
     RDKit          3D

 54 59  0  0  0  0  0  0  0  0999 V2000
   31.7700    3.7663   28.7560 C   0  0  0  0  0  0  0  0  0  0  0  0
   32.0748    4.1639   27.3305 C   0  0  2  0  0  0  0  0  0  0  0  0
   31.1044    3.8623   26.3089 C   0  0  0  0  0  0  0  0  0  0  0  0
   31.6133    4.4262   24.9924 C   0  0  0  0  0  0  0  0  0  0  0  0
   31.8114    5.8854   24.9416 C   0  0  0  0  0  0  0  0  0  0  0  0
   33.1792    6.3226   24.5766 N   0  0  0  0  0  4  0  0  0  0  0  0
   33.9102    6.0418   23.5686 C   0  0  0  0  0  0  0  0  0  0  0  0
   30.6534    3.3053   29.0984 O   0  0  0  0  0  0  0  0  0  0  0  0
   33.3197    3.4592   27.0837 N   0  0  0  0  0  0  0  0  0  0  0  0
   33.7518    7.1461   25.4344 O   0  0  0  0  0  0  0  0  0  0  0  0
   35.2065    6.4329   23.7248 O   0  0  0  0  0  0  0  0  0  0  0  0
   34.3229    3.5938   28.0710 C   0  0  0  0  0  0  0  0  0  0  0  0
   34.0223    4.5409   29.1919 C   0  0  2  0  0  0  0  0  0  0  0  0
   35.1826    4.8557   29.9420 C   0  0  0  0  0  0  0  0  0  0  0  0
   36.1617    5.5950   29.0295 C   0  0  0  0  0  0  0  0  0  0  0  0
   35.4355    6.4436   28.0814 C   0  0  0  0  0  0  0  0  0  0  0  0
   35.4183    2.9970   28.0842 O   0  0  0  0  0  0  0  0  0  0  0  0
   32.8198    3.9366   29.7203 N   0  0  0  0  0  0  0  0  0  0  0  0
   31.0285    5.6667   22.8071 C   0  0  0  0  0  0  0  0  0  0  0  0
   32.1718    4.9080   22.2646 C   0  0  0  0  0  0  0  0  0  0  0  0
   31.9099    3.6180   21.6001 C   0  0  0  0  0  0  0  0  0  0  0  0
   30.5729    3.4758   20.9646 C   0  0  0  0  0  0  0  0  0  0  0  0
   30.6154    2.4963   19.9858 O   0  0  0  0  0  0  0  0  0  0  0  0
   33.3714    5.3496   22.3508 C   0  0  0  0  0  0  0  0  0  0  0  0
   36.1561    7.2203   27.1184 N   0  0  0  0  0  4  0  0  0  0  0  0
   37.1979    7.1583   26.4237 C   0  0  0  0  0  0  0  0  0  0  0  0
   38.4064    6.3940   26.7338 C   0  0  0  0  0  0  0  0  0  0  0  0
   39.3515    6.0386   25.8955 C   0  0  0  0  0  0  0  0  0  0  0  0
   39.4204    6.3224   24.4539 C   0  0  0  0  0  0  0  0  0  0  0  0
   40.4709    7.4070   24.1604 C   0  0  0  0  0  0  0  0  0  0  0  0
   40.4287    7.6715   22.7933 O   0  0  0  0  0  0  0  0  0  0  0  0
   35.5182    8.4077   26.7811 O   0  0  0  0  0  0  0  0  0  0  0  0
   37.2237    7.8638   25.2663 O   0  0  0  0  0  0  0  0  0  0  0  0
   40.3113    8.8763   22.1683 C   0  0  0  0  0  0  0  0  0  0  0  0
   40.8000   10.1066   22.8368 C   0  0  2  0  0  0  0  0  0  0  0  0
   39.6469   11.0741   23.0902 C   0  0  0  0  0  0  0  0  0  0  0  0
   38.3291   10.3768   23.1039 C   0  0  0  0  0  0  0  0  0  0  0  0
   37.3732   10.8656   24.1780 C   0  0  0  0  0  0  0  0  0  0  0  0
   36.0678   10.3255   23.8910 N   0  0  0  0  0  4  0  0  0  0  0  0
   34.8641   10.6313   24.0093 C   0  0  0  0  0  0  0  0  0  0  0  0
   34.1973   11.8335   23.5290 C   0  0  0  0  0  0  0  0  0  0  0  0
   34.6288   12.9644   23.1127 C   0  0  0  0  0  0  0  0  0  0  0  0
   34.2909   14.1837   23.9355 C   0  0  0  0  0  0  0  0  0  0  0  0
   34.9463   15.4369   23.5231 C   0  0  0  0  0  0  0  0  0  0  0  0
   34.7714   16.5062   24.4110 O   0  0  0  0  0  0  0  0  0  0  0  0
   39.7969    8.9834   21.0307 O   0  0  0  0  0  0  0  0  0  0  0  0
   36.0667    9.0624   23.3367 O   0  0  0  0  0  0  0  0  0  0  0  0
   34.1287    9.6810   24.6755 O   0  0  0  0  0  0  0  0  0  0  0  0
   35.4025   13.2799   21.8849 C   0  0  0  0  0  0  0  0  0  0  0  0
   41.7385   10.7280   21.9168 N   0  0  0  0  0  0  0  0  0  0  0  0
   41.5476   10.7346   20.5019 C   0  0  0  0  0  0  0  0  0  0  0  0
   42.3098   11.4206   19.7718 O   0  0  0  0  0  0  0  0  0  0  0  0
   40.4407    9.9254   19.8880 C   0  0  0  0  0  0  0  0  0  0  0  0
   35.1633    8.0628   24.8619 Fe  0  0  0  0  0  6  0  0  0  0  0  0
  2  1  1  0
  1  8  2  0
  1 18  1  0
  2  3  1  6
  2  9  1  0
  4  3  1  0
  5  4  1  0
  6  5  1  0
  7  6  2  0
  6 10  1  0
  7 11  1  0
 24  7  1  0
  9 12  1  0
 12 13  1  0
 12 17  2  0
 13 14  1  1
 18 13  1  0
 14 15  1  0
 15 16  1  0
 16 25  1  0
 20 19  1  0
 20 21  1  0
 20 24  2  0
 21 22  1  0
 22 23  1  0
 25 26  2  0
 25 32  1  0
 26 27  1  0
 26 33  1  0
 27 28  2  0
 28 29  1  0
 29 30  1  0
 30 31  1  0
 31 34  1  0
 34 35  1  0
 34 46  2  0
 35 36  1  0
 35 50  1  6
 36 37  1  0
 37 38  1  0
 38 39  1  0
 39 40  2  0
 39 47  1  0
 40 41  1  0
 40 48  1  0
 41 42  2  0
 42 43  1  0
 42 49  1  0
 43 44  1  0
 44 45  1  0
 50 51  1  0
 51 52  2  0
 51 53  1  0
 10 54  1  0
 54 11  1  0
 54 32  1  0
 54 33  1  0
 54 47  1  0
 54 48  1  0
M  CHG  3   6   1  25   1  39   1
M  END
$$$$
