
     RDKit          3D

 54 59  0  0  0  0  0  0  0  0999 V2000
   39.1713    3.4254   29.0262 C   0  0  0  0  0  0  0  0  0  0  0  0
   38.9504    3.6607   27.5502 C   0  0  2  0  0  0  0  0  0  0  0  0
   39.5035    2.7171   26.6120 C   0  0  0  0  0  0  0  0  0  0  0  0
   39.0802    3.1374   25.2139 C   0  0  0  0  0  0  0  0  0  0  0  0
   37.6304    3.1632   24.9520 C   0  0  0  0  0  0  0  0  0  0  0  0
   37.0980    4.4652   24.4866 N   0  0  0  0  0  4  0  0  0  0  0  0
   37.4358    5.2090   23.5059 C   0  0  0  0  0  0  0  0  0  0  0  0
   39.7019    2.3753   29.4648 O   0  0  0  0  0  0  0  0  0  0  0  0
   39.5375    4.9756   27.3663 N   0  0  0  0  0  0  0  0  0  0  0  0
   36.1004    4.9504   25.2016 O   0  0  0  0  0  0  0  0  0  0  0  0
   36.8821    6.4529   23.5649 O   0  0  0  0  0  0  0  0  0  0  0  0
   39.1499    5.9707   28.2930 C   0  0  0  0  0  0  0  0  0  0  0  0
   38.0921    5.5782   29.2782 C   0  0  2  0  0  0  0  0  0  0  0  0
   37.5435    6.7048   29.9399 C   0  0  0  0  0  0  0  0  0  0  0  0
   36.8366    7.5775   28.9023 C   0  0  0  0  0  0  0  0  0  0  0  0
   36.2205    6.7434   27.8672 C   0  0  0  0  0  0  0  0  0  0  0  0
   39.6107    7.1282   28.3558 O   0  0  0  0  0  0  0  0  0  0  0  0
   38.7465    4.4623   29.9237 N   0  0  0  0  0  0  0  0  0  0  0  0
   39.5664    3.0033   21.2666 C   0  0  0  0  0  0  0  0  0  0  0  0
   39.0155    3.6424   22.4771 C   0  0  0  0  0  0  0  0  0  0  0  0
   39.2527    3.0001   23.7831 C   0  0  0  0  0  0  0  0  0  0  0  0
   40.0208    1.7270   23.7494 C   0  0  0  0  0  0  0  0  0  0  0  0
   40.2948    1.3049   25.0402 O   0  0  0  0  0  0  0  0  0  0  0  0
   38.3521    4.7366   22.4151 C   0  0  0  0  0  0  0  0  0  0  0  0
   35.5135    7.3542   26.7825 N   0  0  0  0  0  4  0  0  0  0  0  0
   35.5560    8.3858   26.0713 C   0  0  0  0  0  0  0  0  0  0  0  0
   36.1260    9.6796   26.4480 C   0  0  0  0  0  0  0  0  0  0  0  0
   36.4886   10.6472   25.6390 C   0  0  0  0  0  0  0  0  0  0  0  0
   36.4086   10.6613   24.1704 C   0  0  0  0  0  0  0  0  0  0  0  0
   35.2654   11.5737   23.6944 C   0  0  0  0  0  0  0  0  0  0  0  0
   35.2062   11.4808   22.3056 O   0  0  0  0  0  0  0  0  0  0  0  0
   34.4667    6.5773   26.3014 O   0  0  0  0  0  0  0  0  0  0  0  0
   35.0255    8.3121   24.8258 O   0  0  0  0  0  0  0  0  0  0  0  0
   34.1247   11.2145   21.5212 C   0  0  0  0  0  0  0  0  0  0  0  0
   32.7639   11.5662   21.9942 C   0  0  2  0  0  0  0  0  0  0  0  0
   31.9070   10.3120   22.1448 C   0  0  0  0  0  0  0  0  0  0  0  0
   32.7399    9.0849   22.2977 C   0  0  0  0  0  0  0  0  0  0  0  0
   32.2135    8.0945   23.3216 C   0  0  0  0  0  0  0  0  0  0  0  0
   32.9336    6.8568   23.1543 N   0  0  0  0  0  4  0  0  0  0  0  0
   32.7524    5.6276   23.2660 C   0  0  0  0  0  0  0  0  0  0  0  0
   31.7149    4.8181   22.6423 C   0  0  0  0  0  0  0  0  0  0  0  0
   30.4953    4.5760   22.9462 C   0  0  0  0  0  0  0  0  0  0  0  0
   29.5183    5.7239   22.8703 C   0  0  0  0  0  0  0  0  0  0  0  0
   29.1540    6.3416   24.1571 C   0  0  0  0  0  0  0  0  0  0  0  0
   28.7374    7.6760   24.0662 O   0  0  0  0  0  0  0  0  0  0  0  0
   34.2409   10.6744   20.3966 O   0  0  0  0  0  0  0  0  0  0  0  0
   34.2550    6.9949   22.7838 O   0  0  0  0  0  0  0  0  0  0  0  0
   33.6745    5.0179   24.0820 O   0  0  0  0  0  0  0  0  0  0  0  0
   29.8783    3.3092   23.4155 C   0  0  0  0  0  0  0  0  0  0  0  0
   32.1786   12.4122   20.9671 N   0  0  0  0  0  0  0  0  0  0  0  0
   32.7650   12.5828   19.6766 C   0  0  0  0  0  0  0  0  0  0  0  0
   33.2547   11.5905   19.0766 O   0  0  0  0  0  0  0  0  0  0  0  0
   32.7969   13.9424   19.0382 C   0  0  0  0  0  0  0  0  0  0  0  0
   35.1214    6.2368   24.4620 Fe  0  0  0  0  0  6  0  0  0  0  0  0
  2  1  1  0
  1  8  2  0
  1 18  1  0
  2  3  1  6
  2  9  1  0
  4  3  1  0
  5  4  1  0
  6  5  1  0
  7  6  2  0
  6 10  1  0
  7 11  1  0
 24  7  1  0
  9 12  1  0
 12 13  1  0
 12 17  2  0
 13 14  1  1
 18 13  1  0
 14 15  1  0
 15 16  1  0
 16 25  1  0
 20 19  1  0
 20 21  1  0
 20 24  2  0
 21 22  1  0
 22 23  1  0
 25 26  2  0
 25 32  1  0
 26 27  1  0
 26 33  1  0
 27 28  2  0
 28 29  1  0
 29 30  1  0
 30 31  1  0
 31 34  1  0
 34 35  1  0
 34 46  2  0
 35 36  1  0
 35 50  1  6
 36 37  1  0
 37 38  1  0
 38 39  1  0
 39 40  2  0
 39 47  1  0
 40 41  1  0
 40 48  1  0
 41 42  2  0
 42 43  1  0
 42 49  1  0
 43 44  1  0
 44 45  1  0
 50 51  1  0
 51 52  2  0
 51 53  1  0
 10 54  1  0
 54 11  1  0
 54 32  1  0
 54 33  1  0
 54 47  1  0
 54 48  1  0
M  CHG  3   6   1  25   1  39   1
M  END
$$$$
