
     RDKit          3D

 54 59  0  0  0  0  0  0  0  0999 V2000
   31.5573    4.9729   29.0395 C   0  0  0  0  0  0  0  0  0  0  0  0
   32.0067    4.8419   27.6030 C   0  0  2  0  0  0  0  0  0  0  0  0
   31.2379    4.0080   26.7142 C   0  0  0  0  0  0  0  0  0  0  0  0
   31.8508    4.1053   25.3266 C   0  0  0  0  0  0  0  0  0  0  0  0
   31.8636    5.4445   24.7123 C   0  0  0  0  0  0  0  0  0  0  0  0
   33.2012    5.9406   24.3122 N   0  0  0  0  0  4  0  0  0  0  0  0
   34.0976    5.4282   23.5618 C   0  0  0  0  0  0  0  0  0  0  0  0
   30.4725    4.4904   29.4484 O   0  0  0  0  0  0  0  0  0  0  0  0
   33.3546    4.3256   27.7578 N   0  0  0  0  0  0  0  0  0  0  0  0
   33.5352    7.1158   24.8112 O   0  0  0  0  0  0  0  0  0  0  0  0
   35.2971    6.0691   23.6503 O   0  0  0  0  0  0  0  0  0  0  0  0
   34.1820    5.0005   28.6847 C   0  0  0  0  0  0  0  0  0  0  0  0
   33.6059    6.2359   29.3057 C   0  0  2  0  0  0  0  0  0  0  0  0
   34.5977    7.0110   29.9563 C   0  0  0  0  0  0  0  0  0  0  0  0
   35.5922    7.5040   28.9047 C   0  0  0  0  0  0  0  0  0  0  0  0
   34.9039    7.7847   27.6421 C   0  0  0  0  0  0  0  0  0  0  0  0
   35.3324    4.6554   29.0219 O   0  0  0  0  0  0  0  0  0  0  0  0
   32.4290    5.6796   29.9349 N   0  0  0  0  0  0  0  0  0  0  0  0
   34.8412    2.0594   22.8240 C   0  0  0  0  0  0  0  0  0  0  0  0
   33.7781    3.0379   23.1230 C   0  0  0  0  0  0  0  0  0  0  0  0
   32.6406    2.6095   23.9577 C   0  0  0  0  0  0  0  0  0  0  0  0
   31.8478    1.4648   23.4352 C   0  0  0  0  0  0  0  0  0  0  0  0
   30.7409    1.2487   24.2397 O   0  0  0  0  0  0  0  0  0  0  0  0
   33.8306    4.2403   22.6841 C   0  0  0  0  0  0  0  0  0  0  0  0
   35.6470    8.2471   26.5091 N   0  0  0  0  0  4  0  0  0  0  0  0
   36.7758    8.1073   25.9818 C   0  0  0  0  0  0  0  0  0  0  0  0
   38.0168    7.7435   26.6661 C   0  0  0  0  0  0  0  0  0  0  0  0
   39.1090    7.2656   26.1174 C   0  0  0  0  0  0  0  0  0  0  0  0
   39.3439    6.9840   24.6930 C   0  0  0  0  0  0  0  0  0  0  0  0
   40.2762    8.0394   24.0741 C   0  0  0  0  0  0  0  0  0  0  0  0
   40.3940    7.7493   22.7166 O   0  0  0  0  0  0  0  0  0  0  0  0
   34.9150    9.0841   25.6758 O   0  0  0  0  0  0  0  0  0  0  0  0
   36.8737    8.3094   24.6448 O   0  0  0  0  0  0  0  0  0  0  0  0
   40.2115    8.5830   21.6548 C   0  0  0  0  0  0  0  0  0  0  0  0
   40.4373   10.0402   21.8117 C   0  0  2  0  0  0  0  0  0  0  0  0
   39.1446   10.8135   21.5650 C   0  0  0  0  0  0  0  0  0  0  0  0
   37.9395    9.9558   21.7525 C   0  0  0  0  0  0  0  0  0  0  0  0
   36.7862   10.6430   22.4622 C   0  0  0  0  0  0  0  0  0  0  0  0
   35.6154    9.8152   22.3131 N   0  0  0  0  0  4  0  0  0  0  0  0
   34.3777    9.9276   22.2038 C   0  0  0  0  0  0  0  0  0  0  0  0
   33.6357   10.7183   21.2317 C   0  0  0  0  0  0  0  0  0  0  0  0
   33.2902   10.5091   20.0171 C   0  0  0  0  0  0  0  0  0  0  0  0
   33.7592   11.5000   18.9798 C   0  0  0  0  0  0  0  0  0  0  0  0
   33.6080   11.0786   17.5764 C   0  0  0  0  0  0  0  0  0  0  0  0
   34.7043   11.3763   16.7567 O   0  0  0  0  0  0  0  0  0  0  0  0
   39.8537    8.1553   20.5326 O   0  0  0  0  0  0  0  0  0  0  0  0
   35.8562    8.4570   22.3121 O   0  0  0  0  0  0  0  0  0  0  0  0
   33.6846    9.1915   23.1342 O   0  0  0  0  0  0  0  0  0  0  0  0
   32.4388    9.4294   19.4558 C   0  0  0  0  0  0  0  0  0  0  0  0
   41.4082   10.4163   20.7972 N   0  0  0  0  0  0  0  0  0  0  0  0
   41.2977   11.6114   20.0239 C   0  0  0  0  0  0  0  0  0  0  0  0
   42.1109   11.8273   19.0876 O   0  0  0  0  0  0  0  0  0  0  0  0
   40.2143   12.6068   20.3276 C   0  0  0  0  0  0  0  0  0  0  0  0
   34.8830    7.9753   24.0333 Fe  0  0  0  0  0  6  0  0  0  0  0  0
  2  1  1  0
  1  8  2  0
  1 18  1  0
  2  3  1  6
  2  9  1  0
  4  3  1  0
  5  4  1  0
  6  5  1  0
  7  6  2  0
  6 10  1  0
  7 11  1  0
 24  7  1  0
  9 12  1  0
 12 13  1  0
 12 17  2  0
 13 14  1  1
 18 13  1  0
 14 15  1  0
 15 16  1  0
 16 25  1  0
 20 19  1  0
 20 21  1  0
 20 24  2  0
 21 22  1  0
 22 23  1  0
 25 26  2  0
 25 32  1  0
 26 27  1  0
 26 33  1  0
 27 28  2  0
 28 29  1  0
 29 30  1  0
 30 31  1  0
 31 34  1  0
 34 35  1  0
 34 46  2  0
 35 36  1  0
 35 50  1  6
 36 37  1  0
 37 38  1  0
 38 39  1  0
 39 40  2  0
 39 47  1  0
 40 41  1  0
 40 48  1  0
 41 42  2  0
 42 43  1  0
 42 49  1  0
 43 44  1  0
 44 45  1  0
 50 51  1  0
 51 52  2  0
 51 53  1  0
 10 54  1  0
 54 11  1  0
 54 32  1  0
 54 33  1  0
 54 47  1  0
 54 48  1  0
M  CHG  3   6   1  25   1  39   1
M  END
$$$$
