
     RDKit          3D

 54 59  0  0  0  0  0  0  0  0999 V2000
   30.2905    3.4096   26.3608 C   0  0  0  0  0  0  0  0  0  0  0  0
   30.8663    4.3164   25.2983 C   0  0  2  0  0  0  0  0  0  0  0  0
   30.0183    4.7234   24.2067 C   0  0  0  0  0  0  0  0  0  0  0  0
   30.8063    5.6808   23.3277 C   0  0  0  0  0  0  0  0  0  0  0  0
   31.2644    6.9264   23.9681 C   0  0  0  0  0  0  0  0  0  0  0  0
   32.7264    7.1606   23.9148 N   0  0  0  0  0  4  0  0  0  0  0  0
   33.5360    7.1982   22.9288 C   0  0  0  0  0  0  0  0  0  0  0  0
   29.0720    3.1082   26.3954 O   0  0  0  0  0  0  0  0  0  0  0  0
   31.9896    3.5342   24.8150 N   0  0  0  0  0  0  0  0  0  0  0  0
   33.3034    7.3685   25.0834 O   0  0  0  0  0  0  0  0  0  0  0  0
   34.8438    7.1782   23.3118 O   0  0  0  0  0  0  0  0  0  0  0  0
   32.8451    2.9898   25.8005 C   0  0  0  0  0  0  0  0  0  0  0  0
   32.5555    3.3846   27.2161 C   0  0  2  0  0  0  0  0  0  0  0  0
   33.6304    3.0664   28.0829 C   0  0  0  0  0  0  0  0  0  0  0  0
   34.8479    3.8922   27.6658 C   0  0  0  0  0  0  0  0  0  0  0  0
   34.4300    5.2111   27.1837 C   0  0  0  0  0  0  0  0  0  0  0  0
   33.8038    2.2200   25.5898 O   0  0  0  0  0  0  0  0  0  0  0  0
   31.2009    2.8959   27.3449 N   0  0  0  0  0  0  0  0  0  0  0  0
   32.4014    4.9423   21.5313 C   0  0  0  0  0  0  0  0  0  0  0  0
   32.6491    6.2317   20.8581 C   0  0  0  0  0  0  0  0  0  0  0  0
   32.3928    6.3310   19.4095 C   0  0  0  0  0  0  0  0  0  0  0  0
   31.8865    7.6443   18.9292 C   0  0  0  0  0  0  0  0  0  0  0  0
   31.8060    7.6439   17.5461 O   0  0  0  0  0  0  0  0  0  0  0  0
   33.0678    7.2559   21.5040 C   0  0  0  0  0  0  0  0  0  0  0  0
   35.4098    6.1496   26.7265 N   0  0  0  0  0  4  0  0  0  0  0  0
   36.5146    6.1692   26.1344 C   0  0  0  0  0  0  0  0  0  0  0  0
   37.5103    5.0972   26.1145 C   0  0  0  0  0  0  0  0  0  0  0  0
   38.4903    4.9470   25.2546 C   0  0  0  0  0  0  0  0  0  0  0  0
   38.8188    5.8151   24.1135 C   0  0  0  0  0  0  0  0  0  0  0  0
   40.0759    6.6512   24.4076 C   0  0  0  0  0  0  0  0  0  0  0  0
   40.2820    7.4946   23.3180 O   0  0  0  0  0  0  0  0  0  0  0  0
   35.0482    7.4731   26.9463 O   0  0  0  0  0  0  0  0  0  0  0  0
   36.8341    7.2876   25.4379 O   0  0  0  0  0  0  0  0  0  0  0  0
   40.4723    8.8435   23.3169 C   0  0  0  0  0  0  0  0  0  0  0  0
   41.0673    9.5072   24.5021 C   0  0  2  0  0  0  0  0  0  0  0  0
   40.0788   10.4942   25.1175 C   0  0  0  0  0  0  0  0  0  0  0  0
   38.6710   10.1779   24.7419 C   0  0  0  0  0  0  0  0  0  0  0  0
   37.6696   10.3423   25.8717 C   0  0  0  0  0  0  0  0  0  0  0  0
   36.3457   10.2927   25.3033 N   0  0  0  0  0  4  0  0  0  0  0  0
   35.2108   10.7760   25.4904 C   0  0  0  0  0  0  0  0  0  0  0  0
   34.8446   12.1820   25.5890 C   0  0  0  0  0  0  0  0  0  0  0  0
   35.3989   13.2597   25.1771 C   0  0  0  0  0  0  0  0  0  0  0  0
   36.4383   13.1359   24.0898 C   0  0  0  0  0  0  0  0  0  0  0  0
   36.0462   13.6509   22.7666 C   0  0  0  0  0  0  0  0  0  0  0  0
   37.0530   13.5886   21.7946 O   0  0  0  0  0  0  0  0  0  0  0  0
   40.1572    9.5545   22.3343 O   0  0  0  0  0  0  0  0  0  0  0  0
   36.2026    9.4408   24.2281 O   0  0  0  0  0  0  0  0  0  0  0  0
   34.2294    9.8211   25.6038 O   0  0  0  0  0  0  0  0  0  0  0  0
   35.2011   14.6553   25.6448 C   0  0  0  0  0  0  0  0  0  0  0  0
   42.2254   10.2429   24.0218 N   0  0  0  0  0  0  0  0  0  0  0  0
   42.7843   10.0465   22.7228 C   0  0  0  0  0  0  0  0  0  0  0  0
   43.6001   10.8861   22.2601 O   0  0  0  0  0  0  0  0  0  0  0  0
   42.3993    8.8417   21.9121 C   0  0  0  0  0  0  0  0  0  0  0  0
   34.9232    8.1011   25.0706 Fe  0  0  0  0  0  6  0  0  0  0  0  0
  2  1  1  0
  1  8  2  0
  1 18  1  0
  2  3  1  6
  2  9  1  0
  4  3  1  0
  5  4  1  0
  6  5  1  0
  7  6  2  0
  6 10  1  0
  7 11  1  0
 24  7  1  0
  9 12  1  0
 12 13  1  0
 12 17  2  0
 13 14  1  1
 18 13  1  0
 14 15  1  0
 15 16  1  0
 16 25  1  0
 20 19  1  0
 20 21  1  0
 20 24  2  0
 21 22  1  0
 22 23  1  0
 25 26  2  0
 25 32  1  0
 26 27  1  0
 26 33  1  0
 27 28  2  0
 28 29  1  0
 29 30  1  0
 30 31  1  0
 31 34  1  0
 34 35  1  0
 34 46  2  0
 35 36  1  0
 35 50  1  6
 36 37  1  0
 37 38  1  0
 38 39  1  0
 39 40  2  0
 39 47  1  0
 40 41  1  0
 40 48  1  0
 41 42  2  0
 42 43  1  0
 42 49  1  0
 43 44  1  0
 44 45  1  0
 50 51  1  0
 51 52  2  0
 51 53  1  0
 10 54  1  0
 54 11  1  0
 54 32  1  0
 54 33  1  0
 54 47  1  0
 54 48  1  0
M  CHG  3   6   1  25   1  39   1
M  END
$$$$
