
     RDKit          3D

 54 59  0  0  0  0  0  0  0  0999 V2000
   42.5339    4.6048   24.0548 C   0  0  0  0  0  0  0  0  0  0  0  0
   41.1318    4.6191   23.4920 C   0  0  2  0  0  0  0  0  0  0  0  0
   40.7435    3.5700   22.5838 C   0  0  0  0  0  0  0  0  0  0  0  0
   39.2798    3.7717   22.2268 C   0  0  0  0  0  0  0  0  0  0  0  0
   38.3220    3.7117   23.3449 C   0  0  0  0  0  0  0  0  0  0  0  0
   37.4746    4.9153   23.5130 N   0  0  0  0  0  4  0  0  0  0  0  0
   36.7050    5.5220   22.6952 C   0  0  0  0  0  0  0  0  0  0  0  0
   43.3224    3.6464   23.8637 O   0  0  0  0  0  0  0  0  0  0  0  0
   41.0870    5.9129   22.8352 N   0  0  0  0  0  0  0  0  0  0  0  0
   37.5128    5.4644   24.7125 O   0  0  0  0  0  0  0  0  0  0  0  0
   36.3018    6.7426   23.1482 O   0  0  0  0  0  0  0  0  0  0  0  0
   41.5418    7.0169   23.5925 C   0  0  0  0  0  0  0  0  0  0  0  0
   41.9029    6.7345   25.0185 C   0  0  2  0  0  0  0  0  0  0  0  0
   42.0323    7.9253   25.7757 C   0  0  0  0  0  0  0  0  0  0  0  0
   40.6694    8.6167   25.8251 C   0  0  0  0  0  0  0  0  0  0  0  0
   39.5937    7.6232   25.8722 C   0  0  0  0  0  0  0  0  0  0  0  0
   41.6655    8.1862   23.1758 O   0  0  0  0  0  0  0  0  0  0  0  0
   42.9393    5.7447   24.8277 N   0  0  0  0  0  0  0  0  0  0  0  0
   35.2225    3.2310   20.0551 C   0  0  0  0  0  0  0  0  0  0  0  0
   35.3354    4.1011   21.2414 C   0  0  0  0  0  0  0  0  0  0  0  0
   34.3078    3.9949   22.2936 C   0  0  0  0  0  0  0  0  0  0  0  0
   32.8977    3.9644   21.8218 C   0  0  0  0  0  0  0  0  0  0  0  0
   32.1046    4.7431   22.6487 O   0  0  0  0  0  0  0  0  0  0  0  0
   36.3037    4.9292   21.3761 C   0  0  0  0  0  0  0  0  0  0  0  0
   38.2272    8.0489   25.9095 N   0  0  0  0  0  4  0  0  0  0  0  0
   37.4981    8.9689   25.4695 C   0  0  0  0  0  0  0  0  0  0  0  0
   37.9253   10.3215   25.1106 C   0  0  0  0  0  0  0  0  0  0  0  0
   37.2831   11.1750   24.3480 C   0  0  0  0  0  0  0  0  0  0  0  0
   35.9894   10.9762   23.6771 C   0  0  0  0  0  0  0  0  0  0  0  0
   34.8795   11.7728   24.3840 C   0  0  0  0  0  0  0  0  0  0  0  0
   33.6793   11.4803   23.7400 O   0  0  0  0  0  0  0  0  0  0  0  0
   37.3983    7.1768   26.6046 O   0  0  0  0  0  0  0  0  0  0  0  0
   36.1796    8.7003   25.3036 O   0  0  0  0  0  0  0  0  0  0  0  0
   32.5028   11.0689   24.2901 C   0  0  0  0  0  0  0  0  0  0  0  0
   32.1705   11.4392   25.6871 C   0  0  2  0  0  0  0  0  0  0  0  0
   32.0424   10.1917   26.5573 C   0  0  0  0  0  0  0  0  0  0  0  0
   32.7646    9.0274   25.9693 C   0  0  0  0  0  0  0  0  0  0  0  0
   33.5104    8.1767   26.9824 C   0  0  0  0  0  0  0  0  0  0  0  0
   33.9044    6.9524   26.3310 N   0  0  0  0  0  4  0  0  0  0  0  0
   34.0804    5.7464   26.5975 C   0  0  0  0  0  0  0  0  0  0  0  0
   33.1392    4.8221   27.2143 C   0  0  0  0  0  0  0  0  0  0  0  0
   32.0348    4.9882   27.8398 C   0  0  0  0  0  0  0  0  0  0  0  0
   31.9680    6.1093   28.8480 C   0  0  0  0  0  0  0  0  0  0  0  0
   32.7812    5.9280   30.0628 C   0  0  0  0  0  0  0  0  0  0  0  0
   33.1172    7.1173   30.7226 O   0  0  0  0  0  0  0  0  0  0  0  0
   31.6788   10.3776   23.6473 O   0  0  0  0  0  0  0  0  0  0  0  0
   34.2356    7.0798   24.9982 O   0  0  0  0  0  0  0  0  0  0  0  0
   35.3261    5.2906   26.2394 O   0  0  0  0  0  0  0  0  0  0  0  0
   30.7795    4.1992   27.7542 C   0  0  0  0  0  0  0  0  0  0  0  0
   30.8816   12.1097   25.6380 N   0  0  0  0  0  0  0  0  0  0  0  0
   30.7456   13.5114   25.4031 C   0  0  0  0  0  0  0  0  0  0  0  0
   31.5186   14.0872   24.5935 O   0  0  0  0  0  0  0  0  0  0  0  0
   29.6834   14.2952   26.1203 C   0  0  0  0  0  0  0  0  0  0  0  0
   36.2087    6.5987   25.1286 Fe  0  0  0  0  0  6  0  0  0  0  0  0
  2  1  1  0
  1  8  2  0
  1 18  1  0
  2  3  1  6
  2  9  1  0
  4  3  1  0
  5  4  1  0
  6  5  1  0
  7  6  2  0
  6 10  1  0
  7 11  1  0
 24  7  1  0
  9 12  1  0
 12 13  1  0
 12 17  2  0
 13 14  1  6
 18 13  1  0
 14 15  1  0
 15 16  1  0
 16 25  1  0
 20 19  1  0
 20 21  1  0
 20 24  2  0
 21 22  1  0
 22 23  1  0
 25 26  2  0
 25 32  1  0
 26 27  1  0
 26 33  1  0
 27 28  2  0
 28 29  1  0
 29 30  1  0
 30 31  1  0
 31 34  1  0
 34 35  1  0
 34 46  2  0
 35 36  1  0
 35 50  1  6
 36 37  1  0
 37 38  1  0
 38 39  1  0
 39 40  2  0
 39 47  1  0
 40 41  1  0
 40 48  1  0
 41 42  2  0
 42 43  1  0
 42 49  1  0
 43 44  1  0
 44 45  1  0
 50 51  1  0
 51 52  2  0
 51 53  1  0
 10 54  1  0
 54 11  1  0
 54 32  1  0
 54 33  1  0
 54 47  1  0
 54 48  1  0
M  CHG  3   6   1  25   1  39   1
M  END
$$$$
