
     RDKit          3D

 54 59  0  0  0  0  0  0  0  0999 V2000
   33.8397    0.8583   23.8886 C   0  0  0  0  0  0  0  0  0  0  0  0
   33.1408    2.1931   24.0015 C   0  0  2  0  0  0  0  0  0  0  0  0
   31.7094    2.2093   24.1660 C   0  0  0  0  0  0  0  0  0  0  0  0
   31.2686    3.6549   24.3275 C   0  0  0  0  0  0  0  0  0  0  0  0
   31.8158    4.3773   25.4893 C   0  0  0  0  0  0  0  0  0  0  0  0
   32.5518    5.6221   25.1670 N   0  0  0  0  0  4  0  0  0  0  0  0
   32.2043    6.6560   24.5040 C   0  0  0  0  0  0  0  0  0  0  0  0
   33.2378   -0.2296   24.0641 O   0  0  0  0  0  0  0  0  0  0  0  0
   33.5246    2.8371   22.7584 N   0  0  0  0  0  0  0  0  0  0  0  0
   33.7811    5.6855   25.6430 O   0  0  0  0  0  0  0  0  0  0  0  0
   33.2520    7.4753   24.2064 O   0  0  0  0  0  0  0  0  0  0  0  0
   34.8996    2.7995   22.4310 C   0  0  0  0  0  0  0  0  0  0  0  0
   35.8072    2.2038   23.4631 C   0  0  2  0  0  0  0  0  0  0  0  0
   37.1686    2.4964   23.2003 C   0  0  0  0  0  0  0  0  0  0  0  0
   37.3658    4.0092   23.3023 C   0  0  0  0  0  0  0  0  0  0  0  0
   36.5018    4.5682   24.3452 C   0  0  0  0  0  0  0  0  0  0  0  0
   35.4086    3.2140   21.3702 O   0  0  0  0  0  0  0  0  0  0  0  0
   35.2389    0.8785   23.5677 N   0  0  0  0  0  0  0  0  0  0  0  0
   30.0333    4.8019   24.9819 C   0  0  0  0  0  0  0  0  0  0  0  0
   29.8520    6.0387   24.1979 C   0  0  0  0  0  0  0  0  0  0  0  0
   28.5611    6.2611   23.5209 C   0  0  0  0  0  0  0  0  0  0  0  0
   28.4232    7.5524   22.7961 C   0  0  0  0  0  0  0  0  0  0  0  0
   27.1373    7.6802   22.2967 O   0  0  0  0  0  0  0  0  0  0  0  0
   30.7811    6.9159   24.1048 C   0  0  0  0  0  0  0  0  0  0  0  0
   36.5126    5.9760   24.6053 N   0  0  0  0  0  4  0  0  0  0  0  0
   36.6521    7.0620   23.9946 C   0  0  0  0  0  0  0  0  0  0  0  0
   37.3909    7.2712   22.7491 C   0  0  0  0  0  0  0  0  0  0  0  0
   37.2751    8.2856   21.9245 C   0  0  0  0  0  0  0  0  0  0  0  0
   36.3809    9.4461   22.0553 C   0  0  0  0  0  0  0  0  0  0  0  0
   37.1724   10.7030   22.4553 C   0  0  0  0  0  0  0  0  0  0  0  0
   36.2554   11.7373   22.6289 O   0  0  0  0  0  0  0  0  0  0  0  0
   36.2456    6.2923   25.9318 O   0  0  0  0  0  0  0  0  0  0  0  0
   36.0660    8.1620   24.5279 O   0  0  0  0  0  0  0  0  0  0  0  0
   36.1157   12.5734   23.6953 C   0  0  0  0  0  0  0  0  0  0  0  0
   37.2855   12.8773   24.5546 C   0  0  2  0  0  0  0  0  0  0  0  0
   37.0468   12.3860   25.9800 C   0  0  0  0  0  0  0  0  0  0  0  0
   36.0102   11.3156   26.0326 C   0  0  0  0  0  0  0  0  0  0  0  0
   36.3291   10.1818   26.9913 C   0  0  0  0  0  0  0  0  0  0  0  0
   35.1356    9.3905   27.1571 N   0  0  0  0  0  4  0  0  0  0  0  0
   34.5607    8.7058   28.0272 C   0  0  0  0  0  0  0  0  0  0  0  0
   34.1784    9.1105   29.3728 C   0  0  0  0  0  0  0  0  0  0  0  0
   33.9111   10.2457   29.9005 C   0  0  0  0  0  0  0  0  0  0  0  0
   34.9840   10.8913   30.7429 C   0  0  0  0  0  0  0  0  0  0  0  0
   35.2208   10.2767   32.0605 C   0  0  0  0  0  0  0  0  0  0  0  0
   36.2196   10.8966   32.8224 O   0  0  0  0  0  0  0  0  0  0  0  0
   35.0164   13.1030   23.9803 O   0  0  0  0  0  0  0  0  0  0  0  0
   34.3428    9.2859   26.0332 O   0  0  0  0  0  0  0  0  0  0  0  0
   34.2747    7.4291   27.6076 O   0  0  0  0  0  0  0  0  0  0  0  0
   32.6542   11.0347   29.8438 C   0  0  0  0  0  0  0  0  0  0  0  0
   37.4148   14.3251   24.5743 N   0  0  0  0  0  0  0  0  0  0  0  0
   36.9955   15.1555   23.4912 C   0  0  0  0  0  0  0  0  0  0  0  0
   36.8965   16.3991   23.6592 O   0  0  0  0  0  0  0  0  0  0  0  0
   36.6738   14.5459   22.1563 C   0  0  0  0  0  0  0  0  0  0  0  0
   34.5476    7.2884   25.7024 Fe  0  0  0  0  0  6  0  0  0  0  0  0
  2  1  1  0
  1  8  2  0
  1 18  1  0
  2  3  1  6
  2  9  1  0
  4  3  1  0
  5  4  1  0
  6  5  1  0
  7  6  2  0
  6 10  1  0
  7 11  1  0
 24  7  1  0
  9 12  1  0
 12 13  1  0
 12 17  2  0
 13 14  1  6
 18 13  1  0
 14 15  1  0
 15 16  1  0
 16 25  1  0
 20 19  1  0
 20 21  1  0
 20 24  2  0
 21 22  1  0
 22 23  1  0
 25 26  2  0
 25 32  1  0
 26 27  1  0
 26 33  1  0
 27 28  2  0
 28 29  1  0
 29 30  1  0
 30 31  1  0
 31 34  1  0
 34 35  1  0
 34 46  2  0
 35 36  1  0
 35 50  1  1
 36 37  1  0
 37 38  1  0
 38 39  1  0
 39 40  2  0
 39 47  1  0
 40 41  1  0
 40 48  1  0
 41 42  2  0
 42 43  1  0
 42 49  1  0
 43 44  1  0
 44 45  1  0
 50 51  1  0
 51 52  2  0
 51 53  1  0
 10 54  1  0
 54 11  1  0
 54 32  1  0
 54 33  1  0
 54 47  1  0
 54 48  1  0
M  CHG  3   6   1  25   1  39   1
M  END
$$$$
