
     RDKit          3D

 54 59  0  0  0  0  0  0  0  0999 V2000
   39.5033    8.2593   18.6455 C   0  0  0  0  0  0  0  0  0  0  0  0
   38.2463    8.6303   19.3973 C   0  0  2  0  0  0  0  0  0  0  0  0
   37.1788    9.2772   18.6773 C   0  0  0  0  0  0  0  0  0  0  0  0
   36.0143    9.4734   19.6344 C   0  0  0  0  0  0  0  0  0  0  0  0
   35.4291    8.2490   20.2084 C   0  0  0  0  0  0  0  0  0  0  0  0
   35.4142    8.1927   21.6888 N   0  0  0  0  0  4  0  0  0  0  0  0
   34.9396    9.0005   22.5557 C   0  0  0  0  0  0  0  0  0  0  0  0
   39.5964    8.3746   17.3986 O   0  0  0  0  0  0  0  0  0  0  0  0
   38.7663    9.4980   20.4385 N   0  0  0  0  0  0  0  0  0  0  0  0
   35.9875    7.1267   22.2148 O   0  0  0  0  0  0  0  0  0  0  0  0
   35.3564    8.7266   23.8240 O   0  0  0  0  0  0  0  0  0  0  0  0
   39.8864    9.0166   21.1546 C   0  0  0  0  0  0  0  0  0  0  0  0
   40.3259    7.6215   20.8316 C   0  0  2  0  0  0  0  0  0  0  0  0
   41.2259    7.1141   21.8014 C   0  0  0  0  0  0  0  0  0  0  0  0
   40.4902    7.0151   23.1381 C   0  0  0  0  0  0  0  0  0  0  0  0
   39.0871    6.6520   22.9236 C   0  0  0  0  0  0  0  0  0  0  0  0
   40.5275    9.6494   22.0177 O   0  0  0  0  0  0  0  0  0  0  0  0
   40.6053    7.7628   19.4201 N   0  0  0  0  0  0  0  0  0  0  0  0
   31.6999   10.7522   22.0379 C   0  0  0  0  0  0  0  0  0  0  0  0
   32.8755    9.9542   21.6402 C   0  0  0  0  0  0  0  0  0  0  0  0
   32.7148    8.9440   20.5781 C   0  0  0  0  0  0  0  0  0  0  0  0
   31.3257    8.7294   20.0923 C   0  0  0  0  0  0  0  0  0  0  0  0
   31.3076    7.7260   19.1373 O   0  0  0  0  0  0  0  0  0  0  0  0
   34.0207   10.1286   22.1873 C   0  0  0  0  0  0  0  0  0  0  0  0
   38.2036    6.5164   24.0420 N   0  0  0  0  0  4  0  0  0  0  0  0
   38.0080    7.0173   25.1745 C   0  0  0  0  0  0  0  0  0  0  0  0
   39.0077    7.6657   26.0236 C   0  0  0  0  0  0  0  0  0  0  0  0
   38.7810    8.4805   27.0272 C   0  0  0  0  0  0  0  0  0  0  0  0
   37.4764    8.9325   27.5341 C   0  0  0  0  0  0  0  0  0  0  0  0
   37.1401    8.2437   28.8677 C   0  0  0  0  0  0  0  0  0  0  0  0
   35.8674    8.6647   29.2470 O   0  0  0  0  0  0  0  0  0  0  0  0
   37.2018    5.5749   23.8405 O   0  0  0  0  0  0  0  0  0  0  0  0
   36.7502    6.9612   25.6772 O   0  0  0  0  0  0  0  0  0  0  0  0
   34.7975    7.9029   29.6087 C   0  0  0  0  0  0  0  0  0  0  0  0
   35.0125    6.5645   30.2099 C   0  0  2  0  0  0  0  0  0  0  0  0
   34.4198    5.4748   29.3203 C   0  0  0  0  0  0  0  0  0  0  0  0
   34.2663    5.9315   27.9094 C   0  0  0  0  0  0  0  0  0  0  0  0
   34.6312    4.8864   26.8698 C   0  0  0  0  0  0  0  0  0  0  0  0
   34.1638    5.3519   25.5880 N   0  0  0  0  0  4  0  0  0  0  0  0
   33.7174    4.8976   24.5152 C   0  0  0  0  0  0  0  0  0  0  0  0
   32.5793    4.0087   24.3273 C   0  0  0  0  0  0  0  0  0  0  0  0
   31.6640    3.5835   25.1145 C   0  0  0  0  0  0  0  0  0  0  0  0
   30.5196    4.5187   25.4203 C   0  0  0  0  0  0  0  0  0  0  0  0
   29.8628    5.1311   24.2525 C   0  0  0  0  0  0  0  0  0  0  0  0
   28.6914    5.8404   24.5475 O   0  0  0  0  0  0  0  0  0  0  0  0
   33.6196    8.2994   29.4486 O   0  0  0  0  0  0  0  0  0  0  0  0
   34.2275    6.7173   25.4032 O   0  0  0  0  0  0  0  0  0  0  0  0
   34.4195    5.3251   23.4142 O   0  0  0  0  0  0  0  0  0  0  0  0
   31.5688    2.2851   25.8291 C   0  0  0  0  0  0  0  0  0  0  0  0
   34.3058    6.5672   31.4802 N   0  0  0  0  0  0  0  0  0  0  0  0
   32.9194    6.2464   31.5965 C   0  0  0  0  0  0  0  0  0  0  0  0
   32.0517    7.1182   31.3294 O   0  0  0  0  0  0  0  0  0  0  0  0
   32.4991    4.8727   32.0363 C   0  0  0  0  0  0  0  0  0  0  0  0
   35.6128    6.7573   23.9129 Fe  0  0  0  0  0  6  0  0  0  0  0  0
  2  1  1  0
  1  8  2  0
  1 18  1  0
  2  3  1  6
  2  9  1  0
  4  3  1  0
  5  4  1  0
  6  5  1  0
  7  6  2  0
  6 10  1  0
  7 11  1  0
 24  7  1  0
  9 12  1  0
 12 13  1  0
 12 17  2  0
 13 14  1  1
 18 13  1  0
 14 15  1  0
 15 16  1  0
 16 25  1  0
 20 19  1  0
 20 21  1  0
 20 24  2  0
 21 22  1  0
 22 23  1  0
 25 26  2  0
 25 32  1  0
 26 27  1  0
 26 33  1  0
 27 28  2  0
 28 29  1  0
 29 30  1  0
 30 31  1  0
 31 34  1  0
 34 35  1  0
 34 46  2  0
 35 36  1  0
 35 50  1  1
 36 37  1  0
 37 38  1  0
 38 39  1  0
 39 40  2  0
 39 47  1  0
 40 41  1  0
 40 48  1  0
 41 42  2  0
 42 43  1  0
 42 49  1  0
 43 44  1  0
 44 45  1  0
 50 51  1  0
 51 52  2  0
 51 53  1  0
 10 54  1  0
 54 11  1  0
 54 32  1  0
 54 33  1  0
 54 47  1  0
 54 48  1  0
M  CHG  3   6   1  25   1  39   1
M  END
$$$$
