
     RDKit          3D

 54 59  0  0  0  0  0  0  0  0999 V2000
   29.7014    4.6828   22.7869 C   0  0  0  0  0  0  0  0  0  0  0  0
   30.8119    4.7789   23.8068 C   0  0  2  0  0  0  0  0  0  0  0  0
   30.7534    3.9312   24.9706 C   0  0  0  0  0  0  0  0  0  0  0  0
   32.0115    4.1665   25.7904 C   0  0  0  0  0  0  0  0  0  0  0  0
   33.2895    3.8529   25.1274 C   0  0  0  0  0  0  0  0  0  0  0  0
   34.2552    4.9745   25.0595 N   0  0  0  0  0  4  0  0  0  0  0  0
   34.7448    5.7183   25.9740 C   0  0  0  0  0  0  0  0  0  0  0  0
   28.8065    3.8043   22.8520 O   0  0  0  0  0  0  0  0  0  0  0  0
   30.7497    6.1791   24.1848 N   0  0  0  0  0  0  0  0  0  0  0  0
   34.6931    5.2643   23.8487 O   0  0  0  0  0  0  0  0  0  0  0  0
   35.3981    6.8084   25.4816 O   0  0  0  0  0  0  0  0  0  0  0  0
   30.6988    7.1133   23.1247 C   0  0  0  0  0  0  0  0  0  0  0  0
   30.8343    6.5508   21.7430 C   0  0  2  0  0  0  0  0  0  0  0  0
   31.0949    7.5619   20.7850 C   0  0  0  0  0  0  0  0  0  0  0  0
   32.4493    8.1945   21.1068 C   0  0  0  0  0  0  0  0  0  0  0  0
   33.3711    7.1867   21.6370 C   0  0  0  0  0  0  0  0  0  0  0  0
   30.5517    8.3462   23.2451 O   0  0  0  0  0  0  0  0  0  0  0  0
   29.7055    5.6476   21.7238 N   0  0  0  0  0  0  0  0  0  0  0  0
   34.2779    3.1057   28.0843 C   0  0  0  0  0  0  0  0  0  0  0  0
   33.8158    4.4924   27.8824 C   0  0  0  0  0  0  0  0  0  0  0  0
   32.4200    4.8264   28.2206 C   0  0  0  0  0  0  0  0  0  0  0  0
   31.3764    4.0062   27.5497 C   0  0  0  0  0  0  0  0  0  0  0  0
   30.1639    4.1556   28.2030 O   0  0  0  0  0  0  0  0  0  0  0  0
   34.5990    5.4017   27.4338 C   0  0  0  0  0  0  0  0  0  0  0  0
   34.6986    7.5618   22.0201 N   0  0  0  0  0  4  0  0  0  0  0  0
   35.3135    8.5348   22.5169 C   0  0  0  0  0  0  0  0  0  0  0  0
   34.9217    9.9424   22.4407 C   0  0  0  0  0  0  0  0  0  0  0  0
   35.3360   10.9193   23.2131 C   0  0  0  0  0  0  0  0  0  0  0  0
   36.2870   10.8320   24.3318 C   0  0  0  0  0  0  0  0  0  0  0  0
   37.6461   11.4375   23.9418 C   0  0  0  0  0  0  0  0  0  0  0  0
   38.5102   11.2553   25.0193 O   0  0  0  0  0  0  0  0  0  0  0  0
   35.6293    6.5447   21.8463 O   0  0  0  0  0  0  0  0  0  0  0  0
   36.4575    8.2741   23.1962 O   0  0  0  0  0  0  0  0  0  0  0  0
   39.7587   10.7102   25.0192 C   0  0  0  0  0  0  0  0  0  0  0  0
   40.5936   10.7752   23.7954 C   0  0  2  0  0  0  0  0  0  0  0  0
   40.8961    9.3718   23.2767 C   0  0  0  0  0  0  0  0  0  0  0  0
   39.9039    8.3725   23.7663 C   0  0  0  0  0  0  0  0  0  0  0  0
   39.4810    7.3491   22.7271 C   0  0  0  0  0  0  0  0  0  0  0  0
   38.7665    6.2961   23.4047 N   0  0  0  0  0  4  0  0  0  0  0  0
   38.5784    5.0658   23.3196 C   0  0  0  0  0  0  0  0  0  0  0  0
   39.5811    4.0110   23.2678 C   0  0  0  0  0  0  0  0  0  0  0  0
   40.4194    3.5603   24.1237 C   0  0  0  0  0  0  0  0  0  0  0  0
   41.3725    2.4841   23.6640 C   0  0  0  0  0  0  0  0  0  0  0  0
   42.6675    2.9548   23.1430 C   0  0  0  0  0  0  0  0  0  0  0  0
   43.5717    3.3795   24.1252 O   0  0  0  0  0  0  0  0  0  0  0  0
   40.2339   10.1470   26.0327 O   0  0  0  0  0  0  0  0  0  0  0  0
   38.0036    6.7047   24.4788 O   0  0  0  0  0  0  0  0  0  0  0  0
   37.2480    4.7246   23.2790 O   0  0  0  0  0  0  0  0  0  0  0  0
   40.5802    3.9146   25.5569 C   0  0  0  0  0  0  0  0  0  0  0  0
   41.8425   11.4095   24.1841 N   0  0  0  0  0  0  0  0  0  0  0  0
   42.5291   12.3442   23.3514 C   0  0  0  0  0  0  0  0  0  0  0  0
   42.1205   13.5325   23.2769 O   0  0  0  0  0  0  0  0  0  0  0  0
   43.7348   11.9097   22.5674 C   0  0  0  0  0  0  0  0  0  0  0  0
   36.1643    6.2555   23.7326 Fe  0  0  0  0  0  6  0  0  0  0  0  0
  2  1  1  0
  1  8  2  0
  1 18  1  0
  2  3  1  1
  2  9  1  0
  4  3  1  0
  5  4  1  0
  6  5  1  0
  7  6  2  0
  6 10  1  0
  7 11  1  0
 24  7  1  0
  9 12  1  0
 12 13  1  0
 12 17  2  0
 13 14  1  6
 18 13  1  0
 14 15  1  0
 15 16  1  0
 16 25  1  0
 20 19  1  0
 20 21  1  0
 20 24  2  0
 21 22  1  0
 22 23  1  0
 25 26  2  0
 25 32  1  0
 26 27  1  0
 26 33  1  0
 27 28  2  0
 28 29  1  0
 29 30  1  0
 30 31  1  0
 31 34  1  0
 34 35  1  0
 34 46  2  0
 35 36  1  0
 35 50  1  1
 36 37  1  0
 37 38  1  0
 38 39  1  0
 39 40  2  0
 39 47  1  0
 40 41  1  0
 40 48  1  0
 41 42  2  0
 42 43  1  0
 42 49  1  0
 43 44  1  0
 44 45  1  0
 50 51  1  0
 51 52  2  0
 51 53  1  0
 10 54  1  0
 54 11  1  0
 54 32  1  0
 54 33  1  0
 54 47  1  0
 54 48  1  0
M  CHG  3   6   1  25   1  39   1
M  END
$$$$
