
     RDKit          3D

 54 59  0  0  0  0  0  0  0  0999 V2000
   38.5027    6.6999   18.6025 C   0  0  0  0  0  0  0  0  0  0  0  0
   37.2398    7.2352   19.2361 C   0  0  2  0  0  0  0  0  0  0  0  0
   36.1578    7.6438   18.3766 C   0  0  0  0  0  0  0  0  0  0  0  0
   34.9914    8.0677   19.2541 C   0  0  0  0  0  0  0  0  0  0  0  0
   34.4326    7.0319   20.1406 C   0  0  0  0  0  0  0  0  0  0  0  0
   34.4217    7.3757   21.5818 N   0  0  0  0  0  4  0  0  0  0  0  0
   33.9322    8.3777   22.2029 C   0  0  0  0  0  0  0  0  0  0  0  0
   38.5910    6.4772   17.3699 O   0  0  0  0  0  0  0  0  0  0  0  0
   37.7439    8.3610   20.0016 N   0  0  0  0  0  0  0  0  0  0  0  0
   35.0179    6.5019   22.3708 O   0  0  0  0  0  0  0  0  0  0  0  0
   34.3571    8.4633   23.4950 O   0  0  0  0  0  0  0  0  0  0  0  0
   38.8750    8.1118   20.8126 C   0  0  0  0  0  0  0  0  0  0  0  0
   39.3425    6.6900   20.8735 C   0  0  2  0  0  0  0  0  0  0  0  0
   40.2547    6.4798   21.9373 C   0  0  0  0  0  0  0  0  0  0  0  0
   39.5237    6.7299   23.2568 C   0  0  0  0  0  0  0  0  0  0  0  0
   38.1279    6.2954   23.1583 C   0  0  0  0  0  0  0  0  0  0  0  0
   39.5045    8.9657   21.4688 O   0  0  0  0  0  0  0  0  0  0  0  0
   39.6162    6.4516   19.4740 N   0  0  0  0  0  0  0  0  0  0  0  0
   31.8729    8.9204   19.4613 C   0  0  0  0  0  0  0  0  0  0  0  0
   32.9336    9.5319   20.2849 C   0  0  0  0  0  0  0  0  0  0  0  0
   33.9388   10.3825   19.6213 C   0  0  0  0  0  0  0  0  0  0  0  0
   33.8046   10.5140   18.1460 C   0  0  0  0  0  0  0  0  0  0  0  0
   34.0191   11.8289   17.7662 O   0  0  0  0  0  0  0  0  0  0  0  0
   32.9897    9.3471   21.5514 C   0  0  0  0  0  0  0  0  0  0  0  0
   37.2496    6.4488   24.2784 N   0  0  0  0  0  4  0  0  0  0  0  0
   37.0459    7.2320   25.2359 C   0  0  0  0  0  0  0  0  0  0  0  0
   38.0337    8.1042   25.8719 C   0  0  0  0  0  0  0  0  0  0  0  0
   37.7922    9.1544   26.6209 C   0  0  0  0  0  0  0  0  0  0  0  0
   36.4795    9.7009   26.9971 C   0  0  0  0  0  0  0  0  0  0  0  0
   36.1600    9.3900   28.4693 C   0  0  0  0  0  0  0  0  0  0  0  0
   34.8797    9.8729   28.7308 O   0  0  0  0  0  0  0  0  0  0  0  0
   36.2670    5.4686   24.3450 O   0  0  0  0  0  0  0  0  0  0  0  0
   35.7905    7.2890   25.7444 O   0  0  0  0  0  0  0  0  0  0  0  0
   33.8263    9.2160   29.2920 C   0  0  0  0  0  0  0  0  0  0  0  0
   34.0701    8.0931   30.2295 C   0  0  2  0  0  0  0  0  0  0  0  0
   33.4982    6.7930   29.6702 C   0  0  0  0  0  0  0  0  0  0  0  0
   33.3327    6.8502   28.1896 C   0  0  0  0  0  0  0  0  0  0  0  0
   33.7170    5.5711   27.4668 C   0  0  0  0  0  0  0  0  0  0  0  0
   33.2376    5.6654   26.1105 N   0  0  0  0  0  4  0  0  0  0  0  0
   32.7986    4.9306   25.2028 C   0  0  0  0  0  0  0  0  0  0  0  0
   31.6788    4.0021   25.2693 C   0  0  0  0  0  0  0  0  0  0  0  0
   31.5592    2.8087   25.7165 C   0  0  0  0  0  0  0  0  0  0  0  0
   32.7390    1.8822   25.5508 C   0  0  0  0  0  0  0  0  0  0  0  0
   32.9531    1.3536   24.1926 C   0  0  0  0  0  0  0  0  0  0  0  0
   34.1975    1.6705   23.6328 O   0  0  0  0  0  0  0  0  0  0  0  0
   32.6403    9.5319   29.0399 O   0  0  0  0  0  0  0  0  0  0  0  0
   33.2729    6.9316   25.5648 O   0  0  0  0  0  0  0  0  0  0  0  0
   33.4896    5.0595   24.0223 O   0  0  0  0  0  0  0  0  0  0  0  0
   30.3881    2.1597   26.3590 C   0  0  0  0  0  0  0  0  0  0  0  0
   33.3659    8.4239   31.4574 N   0  0  0  0  0  0  0  0  0  0  0  0
   32.6865    7.4484   32.2481 C   0  0  0  0  0  0  0  0  0  0  0  0
   33.3460    6.5551   32.8411 O   0  0  0  0  0  0  0  0  0  0  0  0
   31.1897    7.4890   32.3711 C   0  0  0  0  0  0  0  0  0  0  0  0
   34.6541    6.5959   24.1084 Fe  0  0  0  0  0  6  0  0  0  0  0  0
  2  1  1  0
  1  8  2  0
  1 18  1  0
  2  3  1  6
  2  9  1  0
  4  3  1  0
  5  4  1  0
  6  5  1  0
  7  6  2  0
  6 10  1  0
  7 11  1  0
 24  7  1  0
  9 12  1  0
 12 13  1  0
 12 17  2  0
 13 14  1  1
 18 13  1  0
 14 15  1  0
 15 16  1  0
 16 25  1  0
 20 19  1  0
 20 21  1  0
 20 24  2  0
 21 22  1  0
 22 23  1  0
 25 26  2  0
 25 32  1  0
 26 27  1  0
 26 33  1  0
 27 28  2  0
 28 29  1  0
 29 30  1  0
 30 31  1  0
 31 34  1  0
 34 35  1  0
 34 46  2  0
 35 36  1  0
 35 50  1  1
 36 37  1  0
 37 38  1  0
 38 39  1  0
 39 40  2  0
 39 47  1  0
 40 41  1  0
 40 48  1  0
 41 42  2  0
 42 43  1  0
 42 49  1  0
 43 44  1  0
 44 45  1  0
 50 51  1  0
 51 52  2  0
 51 53  1  0
 10 54  1  0
 54 11  1  0
 54 32  1  0
 54 33  1  0
 54 47  1  0
 54 48  1  0
M  CHG  3   6   1  25   1  39   1
M  END
$$$$
