
     RDKit          3D

 54 59  0  0  0  0  0  0  0  0999 V2000
   30.1258    8.1535   28.5993 C   0  0  0  0  0  0  0  0  0  0  0  0
   30.9075    7.1536   27.7795 C   0  0  2  0  0  0  0  0  0  0  0  0
   30.2440    5.9505   27.3450 C   0  0  0  0  0  0  0  0  0  0  0  0
   31.2160    5.1590   26.4853 C   0  0  0  0  0  0  0  0  0  0  0  0
   31.6907    5.8228   25.2585 C   0  0  0  0  0  0  0  0  0  0  0  0
   33.1618    5.9560   25.1437 N   0  0  0  0  0  4  0  0  0  0  0  0
   34.0919    5.0840   25.2059 C   0  0  0  0  0  0  0  0  0  0  0  0
   28.8920    8.0355   28.8009 O   0  0  0  0  0  0  0  0  0  0  0  0
   32.0142    6.8412   28.6656 N   0  0  0  0  0  0  0  0  0  0  0  0
   33.5991    7.1846   24.9413 O   0  0  0  0  0  0  0  0  0  0  0  0
   35.3332    5.6356   25.3167 O   0  0  0  0  0  0  0  0  0  0  0  0
   32.6870    7.9435   29.2412 C   0  0  0  0  0  0  0  0  0  0  0  0
   32.2519    9.2988   28.7747 C   0  0  2  0  0  0  0  0  0  0  0  0
   33.1759   10.3066   29.1468 C   0  0  0  0  0  0  0  0  0  0  0  0
   34.5017   10.0325   28.4362 C   0  0  0  0  0  0  0  0  0  0  0  0
   34.2613    9.4673   27.1060 C   0  0  0  0  0  0  0  0  0  0  0  0
   33.5970    7.8795   30.0921 O   0  0  0  0  0  0  0  0  0  0  0  0
   30.8558    9.2608   29.1487 N   0  0  0  0  0  0  0  0  0  0  0  0
   34.5580    3.1384   27.4037 C   0  0  0  0  0  0  0  0  0  0  0  0
   33.7323    2.8766   26.2092 C   0  0  0  0  0  0  0  0  0  0  0  0
   32.7833    1.7486   26.2419 C   0  0  0  0  0  0  0  0  0  0  0  0
   31.3424    2.1146   26.2822 C   0  0  0  0  0  0  0  0  0  0  0  0
   30.6558    1.4470   25.2811 O   0  0  0  0  0  0  0  0  0  0  0  0
   33.8173    3.6091   25.1615 C   0  0  0  0  0  0  0  0  0  0  0  0
   35.3669    9.1195   26.2655 N   0  0  0  0  0  4  0  0  0  0  0  0
   36.5365    8.6770   26.3553 C   0  0  0  0  0  0  0  0  0  0  0  0
   37.4331    8.8144   27.5033 C   0  0  0  0  0  0  0  0  0  0  0  0
   38.4995    8.0943   27.7617 C   0  0  0  0  0  0  0  0  0  0  0  0
   39.0437    6.9851   26.9636 C   0  0  0  0  0  0  0  0  0  0  0  0
   40.3181    7.4207   26.2206 C   0  0  0  0  0  0  0  0  0  0  0  0
   40.7326    6.3470   25.4356 O   0  0  0  0  0  0  0  0  0  0  0  0
   35.0922    9.2571   24.9104 O   0  0  0  0  0  0  0  0  0  0  0  0
   37.0355    8.0010   25.2913 O   0  0  0  0  0  0  0  0  0  0  0  0
   41.0338    6.3375   24.1070 C   0  0  0  0  0  0  0  0  0  0  0  0
   41.5249    7.5737   23.4514 C   0  0  2  0  0  0  0  0  0  0  0  0
   40.5516    8.0295   22.3674 C   0  0  0  0  0  0  0  0  0  0  0  0
   39.1823    7.4806   22.5834 C   0  0  0  0  0  0  0  0  0  0  0  0
   38.0612    8.4649   22.2996 C   0  0  0  0  0  0  0  0  0  0  0  0
   36.8220    7.7292   22.2634 N   0  0  0  0  0  4  0  0  0  0  0  0
   35.7170    7.7538   21.6848 C   0  0  0  0  0  0  0  0  0  0  0  0
   35.4602    7.7687   20.2514 C   0  0  0  0  0  0  0  0  0  0  0  0
   36.0636    8.3119   19.2618 C   0  0  0  0  0  0  0  0  0  0  0  0
   36.4959    9.7498   19.4147 C   0  0  0  0  0  0  0  0  0  0  0  0
   35.7115   10.7391   18.6558 C   0  0  0  0  0  0  0  0  0  0  0  0
   35.9074   12.0680   19.0533 O   0  0  0  0  0  0  0  0  0  0  0  0
   40.9085    5.3048   23.4084 O   0  0  0  0  0  0  0  0  0  0  0  0
   36.7476    6.6659   23.1388 O   0  0  0  0  0  0  0  0  0  0  0  0
   34.6526    7.7612   22.5536 O   0  0  0  0  0  0  0  0  0  0  0  0
   36.3804    7.7417   17.9276 C   0  0  0  0  0  0  0  0  0  0  0  0
   42.7927    7.2314   22.8279 N   0  0  0  0  0  0  0  0  0  0  0  0
   42.9722    7.1834   21.4124 C   0  0  0  0  0  0  0  0  0  0  0  0
   44.0650    6.7811   20.9343 O   0  0  0  0  0  0  0  0  0  0  0  0
   41.8600    7.6116   20.4977 C   0  0  0  0  0  0  0  0  0  0  0  0
   35.2626    7.3662   24.3413 Fe  0  0  0  0  0  6  0  0  0  0  0  0
  2  1  1  0
  1  8  2  0
  1 18  1  0
  2  3  1  1
  2  9  1  0
  4  3  1  0
  5  4  1  0
  6  5  1  0
  7  6  2  0
  6 10  1  0
  7 11  1  0
 24  7  1  0
  9 12  1  0
 12 13  1  0
 12 17  2  0
 13 14  1  1
 18 13  1  0
 14 15  1  0
 15 16  1  0
 16 25  1  0
 20 19  1  0
 20 21  1  0
 20 24  2  0
 21 22  1  0
 22 23  1  0
 25 26  2  0
 25 32  1  0
 26 27  1  0
 26 33  1  0
 27 28  2  0
 28 29  1  0
 29 30  1  0
 30 31  1  0
 31 34  1  0
 34 35  1  0
 34 46  2  0
 35 36  1  0
 35 50  1  6
 36 37  1  0
 37 38  1  0
 38 39  1  0
 39 40  2  0
 39 47  1  0
 40 41  1  0
 40 48  1  0
 41 42  2  0
 42 43  1  0
 42 49  1  0
 43 44  1  0
 44 45  1  0
 50 51  1  0
 51 52  2  0
 51 53  1  0
 10 54  1  0
 54 11  1  0
 54 32  1  0
 54 33  1  0
 54 47  1  0
 54 48  1  0
M  CHG  3   6   1  25   1  39   1
M  END
$$$$
