
     RDKit          3D

 54 59  0  0  0  0  0  0  0  0999 V2000
   29.5110    7.3853   26.5470 C   0  0  0  0  0  0  0  0  0  0  0  0
   30.5276    6.5947   25.7570 C   0  0  2  0  0  0  0  0  0  0  0  0
   30.0555    5.5956   24.8321 C   0  0  0  0  0  0  0  0  0  0  0  0
   31.2608    5.0043   24.1194 C   0  0  0  0  0  0  0  0  0  0  0  0
   32.0707    5.9415   23.3214 C   0  0  0  0  0  0  0  0  0  0  0  0
   33.5036    6.0085   23.6922 N   0  0  0  0  0  4  0  0  0  0  0  0
   34.3905    5.0955   23.7877 C   0  0  0  0  0  0  0  0  0  0  0  0
   28.2774    7.2947   26.3307 O   0  0  0  0  0  0  0  0  0  0  0  0
   31.3193    5.9881   26.8118 N   0  0  0  0  0  0  0  0  0  0  0  0
   33.9535    7.2167   23.9743 O   0  0  0  0  0  0  0  0  0  0  0  0
   35.5263    5.5187   24.4108 O   0  0  0  0  0  0  0  0  0  0  0  0
   31.7598    6.8518   27.8410 C   0  0  0  0  0  0  0  0  0  0  0  0
   31.4561    8.3069   27.6559 C   0  0  2  0  0  0  0  0  0  0  0  0
   32.1998    9.1186   28.5481 C   0  0  0  0  0  0  0  0  0  0  0  0
   33.6849    8.9627   28.2191 C   0  0  0  0  0  0  0  0  0  0  0  0
   33.8735    8.7905   26.7764 C   0  0  0  0  0  0  0  0  0  0  0  0
   32.3691    6.5056   28.8731 O   0  0  0  0  0  0  0  0  0  0  0  0
   30.0137    8.2573   27.5707 N   0  0  0  0  0  0  0  0  0  0  0  0
   32.3928    2.1758   22.7378 C   0  0  0  0  0  0  0  0  0  0  0  0
   33.2443    2.9317   23.6763 C   0  0  0  0  0  0  0  0  0  0  0  0
   33.0121    2.7718   25.1236 C   0  0  0  0  0  0  0  0  0  0  0  0
   34.0093    1.9435   25.8526 C   0  0  0  0  0  0  0  0  0  0  0  0
   34.1865    2.4353   27.1356 O   0  0  0  0  0  0  0  0  0  0  0  0
   34.1763    3.7065   23.2611 C   0  0  0  0  0  0  0  0  0  0  0  0
   35.1900    8.6122   26.2428 N   0  0  0  0  0  4  0  0  0  0  0  0
   36.2867    8.0898   26.5528 C   0  0  0  0  0  0  0  0  0  0  0  0
   36.7883    7.8586   27.9077 C   0  0  0  0  0  0  0  0  0  0  0  0
   37.7418    7.0306   28.2650 C   0  0  0  0  0  0  0  0  0  0  0  0
   38.5282    6.1439   27.3939 C   0  0  0  0  0  0  0  0  0  0  0  0
   39.9579    6.6822   27.2144 C   0  0  0  0  0  0  0  0  0  0  0  0
   40.6160    5.8343   26.3263 O   0  0  0  0  0  0  0  0  0  0  0  0
   35.3373    9.1245   24.9596 O   0  0  0  0  0  0  0  0  0  0  0  0
   37.1010    7.6936   25.5438 O   0  0  0  0  0  0  0  0  0  0  0  0
   41.3071    6.1621   25.1990 C   0  0  0  0  0  0  0  0  0  0  0  0
   41.9458    7.4956   25.0850 C   0  0  2  0  0  0  0  0  0  0  0  0
   41.3381    8.2848   23.9283 C   0  0  0  0  0  0  0  0  0  0  0  0
   39.9810    7.7846   23.5665 C   0  0  0  0  0  0  0  0  0  0  0  0
   38.9770    8.8768   23.2421 C   0  0  0  0  0  0  0  0  0  0  0  0
   37.8247    8.2565   22.6375 N   0  0  0  0  0  4  0  0  0  0  0  0
   36.9477    8.5040   21.7853 C   0  0  0  0  0  0  0  0  0  0  0  0
   37.1388    8.9181   20.4023 C   0  0  0  0  0  0  0  0  0  0  0  0
   38.1675    8.9784   19.6430 C   0  0  0  0  0  0  0  0  0  0  0  0
   38.5773   10.3385   19.1332 C   0  0  0  0  0  0  0  0  0  0  0  0
   39.7557   10.9381   19.7827 C   0  0  0  0  0  0  0  0  0  0  0  0
   40.0595   12.2371   19.3553 O   0  0  0  0  0  0  0  0  0  0  0  0
   41.4239    5.3641   24.2400 O   0  0  0  0  0  0  0  0  0  0  0  0
   37.5120    7.0043   23.1242 O   0  0  0  0  0  0  0  0  0  0  0  0
   35.6697    8.3447   22.2639 O   0  0  0  0  0  0  0  0  0  0  0  0
   39.0262    7.8777   19.1363 C   0  0  0  0  0  0  0  0  0  0  0  0
   43.3507    7.2544   24.7997 N   0  0  0  0  0  0  0  0  0  0  0  0
   43.8472    7.0384   23.4786 C   0  0  0  0  0  0  0  0  0  0  0  0
   44.5450    6.0201   23.2321 O   0  0  0  0  0  0  0  0  0  0  0  0
   43.5373    8.0235   22.3876 C   0  0  0  0  0  0  0  0  0  0  0  0
   35.7161    7.4483   23.9721 Fe  0  0  0  0  0  6  0  0  0  0  0  0
  2  1  1  0
  1  8  2  0
  1 18  1  0
  2  3  1  1
  2  9  1  0
  4  3  1  0
  5  4  1  0
  6  5  1  0
  7  6  2  0
  6 10  1  0
  7 11  1  0
 24  7  1  0
  9 12  1  0
 12 13  1  0
 12 17  2  0
 13 14  1  1
 18 13  1  0
 14 15  1  0
 15 16  1  0
 16 25  1  0
 20 19  1  0
 20 21  1  0
 20 24  2  0
 21 22  1  0
 22 23  1  0
 25 26  2  0
 25 32  1  0
 26 27  1  0
 26 33  1  0
 27 28  2  0
 28 29  1  0
 29 30  1  0
 30 31  1  0
 31 34  1  0
 34 35  1  0
 34 46  2  0
 35 36  1  0
 35 50  1  6
 36 37  1  0
 37 38  1  0
 38 39  1  0
 39 40  2  0
 39 47  1  0
 40 41  1  0
 40 48  1  0
 41 42  2  0
 42 43  1  0
 42 49  1  0
 43 44  1  0
 44 45  1  0
 50 51  1  0
 51 52  2  0
 51 53  1  0
 10 54  1  0
 54 11  1  0
 54 32  1  0
 54 33  1  0
 54 47  1  0
 54 48  1  0
M  CHG  3   6   1  25   1  39   1
M  END
$$$$
