
     RDKit          3D

 54 59  0  0  0  0  0  0  0  0999 V2000
   30.4721    2.9750   24.1778 C   0  0  0  0  0  0  0  0  0  0  0  0
   31.5360    3.6136   25.0398 C   0  0  2  0  0  0  0  0  0  0  0  0
   31.8622    2.9974   26.3009 C   0  0  0  0  0  0  0  0  0  0  0  0
   33.0004    3.7837   26.9307 C   0  0  0  0  0  0  0  0  0  0  0  0
   34.2601    3.8312   26.1677 C   0  0  0  0  0  0  0  0  0  0  0  0
   34.7493    5.1918   25.8446 N   0  0  0  0  0  4  0  0  0  0  0  0
   34.9950    6.1962   26.5930 C   0  0  0  0  0  0  0  0  0  0  0  0
   29.9608    1.8631   24.4589 O   0  0  0  0  0  0  0  0  0  0  0  0
   30.9970    4.9464   25.2409 N   0  0  0  0  0  0  0  0  0  0  0  0
   34.9745    5.4168   24.5638 O   0  0  0  0  0  0  0  0  0  0  0  0
   35.1777    7.3509   25.8925 O   0  0  0  0  0  0  0  0  0  0  0  0
   30.5445    5.6211   24.0837 C   0  0  0  0  0  0  0  0  0  0  0  0
   30.7850    4.9262   22.7787 C   0  0  2  0  0  0  0  0  0  0  0  0
   30.6010    5.7967   21.6758 C   0  0  0  0  0  0  0  0  0  0  0  0
   31.6534    6.9033   21.7532 C   0  0  0  0  0  0  0  0  0  0  0  0
   32.9088    6.3777   22.2956 C   0  0  0  0  0  0  0  0  0  0  0  0
   29.9703    6.7284   24.0625 O   0  0  0  0  0  0  0  0  0  0  0  0
   30.0595    3.6967   23.0074 N   0  0  0  0  0  0  0  0  0  0  0  0
   32.9670    4.9937   28.5237 C   0  0  0  0  0  0  0  0  0  0  0  0
   34.0345    5.9633   28.8361 C   0  0  0  0  0  0  0  0  0  0  0  0
   33.9003    6.7932   30.0475 C   0  0  0  0  0  0  0  0  0  0  0  0
   33.9245    8.2644   29.8314 C   0  0  0  0  0  0  0  0  0  0  0  0
   33.8354    8.9232   31.0468 O   0  0  0  0  0  0  0  0  0  0  0  0
   35.0672    6.0879   28.0882 C   0  0  0  0  0  0  0  0  0  0  0  0
   34.0331    7.2469   22.4694 N   0  0  0  0  0  4  0  0  0  0  0  0
   34.2858    8.4394   22.7626 C   0  0  0  0  0  0  0  0  0  0  0  0
   33.4083    9.5914   22.5541 C   0  0  0  0  0  0  0  0  0  0  0  0
   33.4907   10.7621   23.1417 C   0  0  0  0  0  0  0  0  0  0  0  0
   34.4787   11.1917   24.1431 C   0  0  0  0  0  0  0  0  0  0  0  0
   35.4997   12.1605   23.5223 C   0  0  0  0  0  0  0  0  0  0  0  0
   36.4384   12.4656   24.5054 O   0  0  0  0  0  0  0  0  0  0  0  0
   35.2549    6.6026   22.3187 O   0  0  0  0  0  0  0  0  0  0  0  0
   35.4878    8.7052   23.3306 O   0  0  0  0  0  0  0  0  0  0  0  0
   37.7968   12.3957   24.4283 C   0  0  0  0  0  0  0  0  0  0  0  0
   38.4716   12.5487   23.1167 C   0  0  2  0  0  0  0  0  0  0  0  0
   39.2263   11.2738   22.7492 C   0  0  0  0  0  0  0  0  0  0  0  0
   38.6953   10.0847   23.4752 C   0  0  0  0  0  0  0  0  0  0  0  0
   38.6046    8.8252   22.6317 C   0  0  0  0  0  0  0  0  0  0  0  0
   38.3634    7.7134   23.5171 N   0  0  0  0  0  4  0  0  0  0  0  0
   38.6270    6.4976   23.6122 C   0  0  0  0  0  0  0  0  0  0  0  0
   39.9373    5.8632   23.5779 C   0  0  0  0  0  0  0  0  0  0  0  0
   40.7410    5.5701   22.6257 C   0  0  0  0  0  0  0  0  0  0  0  0
   42.2029    5.4215   22.9702 C   0  0  0  0  0  0  0  0  0  0  0  0
   42.5535    4.2432   23.7818 C   0  0  0  0  0  0  0  0  0  0  0  0
   43.9028    4.1701   24.1513 O   0  0  0  0  0  0  0  0  0  0  0  0
   38.5072   12.2034   25.4424 O   0  0  0  0  0  0  0  0  0  0  0  0
   37.5750    7.9986   24.6124 O   0  0  0  0  0  0  0  0  0  0  0  0
   37.5098    5.7139   23.7717 O   0  0  0  0  0  0  0  0  0  0  0  0
   40.4563    5.3861   21.1798 C   0  0  0  0  0  0  0  0  0  0  0  0
   39.4295   13.6311   23.2722 N   0  0  0  0  0  0  0  0  0  0  0  0
   39.6136   14.6503   22.2895 C   0  0  0  0  0  0  0  0  0  0  0  0
   40.4788   15.5460   22.4727 O   0  0  0  0  0  0  0  0  0  0  0  0
   38.7770   14.6525   21.0416 C   0  0  0  0  0  0  0  0  0  0  0  0
   35.9780    6.8248   24.1506 Fe  0  0  0  0  0  6  0  0  0  0  0  0
  2  1  1  0
  1  8  2  0
  1 18  1  0
  2  3  1  1
  2  9  1  0
  4  3  1  0
  5  4  1  0
  6  5  1  0
  7  6  2  0
  6 10  1  0
  7 11  1  0
 24  7  1  0
  9 12  1  0
 12 13  1  0
 12 17  2  0
 13 14  1  6
 18 13  1  0
 14 15  1  0
 15 16  1  0
 16 25  1  0
 20 19  1  0
 20 21  1  0
 20 24  2  0
 21 22  1  0
 22 23  1  0
 25 26  2  0
 25 32  1  0
 26 27  1  0
 26 33  1  0
 27 28  2  0
 28 29  1  0
 29 30  1  0
 30 31  1  0
 31 34  1  0
 34 35  1  0
 34 46  2  0
 35 36  1  0
 35 50  1  1
 36 37  1  0
 37 38  1  0
 38 39  1  0
 39 40  2  0
 39 47  1  0
 40 41  1  0
 40 48  1  0
 41 42  2  0
 42 43  1  0
 42 49  1  0
 43 44  1  0
 44 45  1  0
 50 51  1  0
 51 52  2  0
 51 53  1  0
 10 54  1  0
 54 11  1  0
 54 32  1  0
 54 33  1  0
 54 47  1  0
 54 48  1  0
M  CHG  3   6   1  25   1  39   1
M  END
$$$$
