
     RDKit          3D

 54 59  0  0  0  0  0  0  0  0999 V2000
   30.2754    8.3805   20.4809 C   0  0  0  0  0  0  0  0  0  0  0  0
   30.8883    8.1700   21.8458 C   0  0  2  0  0  0  0  0  0  0  0  0
   30.0113    7.9586   22.9694 C   0  0  0  0  0  0  0  0  0  0  0  0
   30.8697    7.7018   24.1972 C   0  0  0  0  0  0  0  0  0  0  0  0
   31.7474    6.5195   24.1431 C   0  0  0  0  0  0  0  0  0  0  0  0
   33.1880    6.7949   24.3526 N   0  0  0  0  0  4  0  0  0  0  0  0
   33.8008    7.3871   25.3029 C   0  0  0  0  0  0  0  0  0  0  0  0
   29.0445    8.2471   20.2719 O   0  0  0  0  0  0  0  0  0  0  0  0
   31.6615    9.3867   22.0167 N   0  0  0  0  0  0  0  0  0  0  0  0
   33.9869    6.3562   23.3981 O   0  0  0  0  0  0  0  0  0  0  0  0
   35.0997    7.6719   25.0038 O   0  0  0  0  0  0  0  0  0  0  0  0
   32.4907    9.7601   20.9340 C   0  0  0  0  0  0  0  0  0  0  0  0
   32.5597    8.7932   19.7921 C   0  0  2  0  0  0  0  0  0  0  0  0
   33.6382    9.0830   18.9198 C   0  0  0  0  0  0  0  0  0  0  0  0
   34.9456    8.9025   19.6919 C   0  0  0  0  0  0  0  0  0  0  0  0
   34.8246    7.8023   20.6518 C   0  0  0  0  0  0  0  0  0  0  0  0
   33.1568   10.8118   20.8541 O   0  0  0  0  0  0  0  0  0  0  0  0
   31.1649    8.7449   19.4146 N   0  0  0  0  0  0  0  0  0  0  0  0
   31.0557    6.5364   26.3461 C   0  0  0  0  0  0  0  0  0  0  0  0
   32.2133    7.0062   27.1312 C   0  0  0  0  0  0  0  0  0  0  0  0
   32.3041    6.6216   28.5518 C   0  0  0  0  0  0  0  0  0  0  0  0
   32.5372    5.1772   28.8187 C   0  0  0  0  0  0  0  0  0  0  0  0
   32.6990    4.9668   30.1784 O   0  0  0  0  0  0  0  0  0  0  0  0
   33.1339    7.7247   26.6043 C   0  0  0  0  0  0  0  0  0  0  0  0
   35.9304    7.4639   21.4959 N   0  0  0  0  0  4  0  0  0  0  0  0
   36.8842    8.0167   22.0930 C   0  0  0  0  0  0  0  0  0  0  0  0
   37.5357    9.2717   21.7172 C   0  0  0  0  0  0  0  0  0  0  0  0
   38.2805   10.0338   22.4834 C   0  0  0  0  0  0  0  0  0  0  0  0
   38.6352    9.8089   23.8930 C   0  0  0  0  0  0  0  0  0  0  0  0
   40.1022    9.3647   24.0228 C   0  0  0  0  0  0  0  0  0  0  0  0
   40.3427    9.1035   25.3699 O   0  0  0  0  0  0  0  0  0  0  0  0
   35.9814    6.1138   21.8206 O   0  0  0  0  0  0  0  0  0  0  0  0
   37.3723    7.4037   23.1993 O   0  0  0  0  0  0  0  0  0  0  0  0
   40.8870    7.9878   25.9310 C   0  0  0  0  0  0  0  0  0  0  0  0
   41.8287    7.1511   25.1484 C   0  0  2  0  0  0  0  0  0  0  0  0
   41.2607    5.7487   24.9469 C   0  0  0  0  0  0  0  0  0  0  0  0
   39.7776    5.7228   25.0972 C   0  0  0  0  0  0  0  0  0  0  0  0
   39.0615    4.8403   24.0899 C   0  0  0  0  0  0  0  0  0  0  0  0
   37.6976    4.6807   24.5287 N   0  0  0  0  0  4  0  0  0  0  0  0
   36.7832    3.8324   24.5052 C   0  0  0  0  0  0  0  0  0  0  0  0
   36.8319    2.4544   24.9737 C   0  0  0  0  0  0  0  0  0  0  0  0
   37.5815    1.8431   25.8121 C   0  0  0  0  0  0  0  0  0  0  0  0
   37.8233    2.5098   27.1443 C   0  0  0  0  0  0  0  0  0  0  0  0
   36.6226    2.7761   27.9551 C   0  0  0  0  0  0  0  0  0  0  0  0
   36.8844    3.2543   29.2455 O   0  0  0  0  0  0  0  0  0  0  0  0
   40.6157    7.6379   27.1032 O   0  0  0  0  0  0  0  0  0  0  0  0
   37.1521    5.7824   25.1542 O   0  0  0  0  0  0  0  0  0  0  0  0
   35.6139    4.3137   23.9676 O   0  0  0  0  0  0  0  0  0  0  0  0
   38.3064    0.5560   25.6588 C   0  0  0  0  0  0  0  0  0  0  0  0
   43.0450    7.0542   25.9386 N   0  0  0  0  0  0  0  0  0  0  0  0
   43.3735    7.9822   26.9726 C   0  0  0  0  0  0  0  0  0  0  0  0
   43.0361    9.1896   26.8590 O   0  0  0  0  0  0  0  0  0  0  0  0
   44.1191    7.5181   28.1915 C   0  0  0  0  0  0  0  0  0  0  0  0
   35.7184    6.2316   23.7815 Fe  0  0  0  0  0  6  0  0  0  0  0  0
  2  1  1  0
  1  8  2  0
  1 18  1  0
  2  3  1  1
  2  9  1  0
  4  3  1  0
  5  4  1  0
  6  5  1  0
  7  6  2  0
  6 10  1  0
  7 11  1  0
 24  7  1  0
  9 12  1  0
 12 13  1  0
 12 17  2  0
 13 14  1  6
 18 13  1  0
 14 15  1  0
 15 16  1  0
 16 25  1  0
 20 19  1  0
 20 21  1  0
 20 24  2  0
 21 22  1  0
 22 23  1  0
 25 26  2  0
 25 32  1  0
 26 27  1  0
 26 33  1  0
 27 28  2  0
 28 29  1  0
 29 30  1  0
 30 31  1  0
 31 34  1  0
 34 35  1  0
 34 46  2  0
 35 36  1  0
 35 50  1  1
 36 37  1  0
 37 38  1  0
 38 39  1  0
 39 40  2  0
 39 47  1  0
 40 41  1  0
 40 48  1  0
 41 42  2  0
 42 43  1  0
 42 49  1  0
 43 44  1  0
 44 45  1  0
 50 51  1  0
 51 52  2  0
 51 53  1  0
 10 54  1  0
 54 11  1  0
 54 32  1  0
 54 33  1  0
 54 47  1  0
 54 48  1  0
M  CHG  3   6   1  25   1  39   1
M  END
$$$$
