
     RDKit          3D

 54 59  0  0  0  0  0  0  0  0999 V2000
   29.7715    8.7172   27.6131 C   0  0  0  0  0  0  0  0  0  0  0  0
   30.5238    7.6935   26.7954 C   0  0  2  0  0  0  0  0  0  0  0  0
   29.7699    6.7057   26.0657 C   0  0  0  0  0  0  0  0  0  0  0  0
   30.7489    5.8526   25.2758 C   0  0  0  0  0  0  0  0  0  0  0  0
   31.5659    6.5578   24.2726 C   0  0  0  0  0  0  0  0  0  0  0  0
   33.0310    6.4151   24.4409 N   0  0  0  0  0  4  0  0  0  0  0  0
   33.7699    5.3777   24.5264 C   0  0  0  0  0  0  0  0  0  0  0  0
   28.5205    8.8178   27.5733 O   0  0  0  0  0  0  0  0  0  0  0  0
   31.3605    7.0644   27.8013 N   0  0  0  0  0  0  0  0  0  0  0  0
   33.6996    7.5504   24.5161 O   0  0  0  0  0  0  0  0  0  0  0  0
   35.0377    5.6590   24.9399 O   0  0  0  0  0  0  0  0  0  0  0  0
   32.0782    7.9347   28.6538 C   0  0  0  0  0  0  0  0  0  0  0  0
   31.9795    9.3958   28.3390 C   0  0  2  0  0  0  0  0  0  0  0  0
   32.9647   10.1505   29.0229 C   0  0  0  0  0  0  0  0  0  0  0  0
   34.3417    9.7134   28.5221 C   0  0  0  0  0  0  0  0  0  0  0  0
   34.2838    9.3748   27.0978 C   0  0  0  0  0  0  0  0  0  0  0  0
   32.7737    7.5899   29.6303 O   0  0  0  0  0  0  0  0  0  0  0  0
   30.5504    9.5846   28.4510 N   0  0  0  0  0  0  0  0  0  0  0  0
   31.1679    2.9029   23.7708 C   0  0  0  0  0  0  0  0  0  0  0  0
   32.1682    3.5270   24.6581 C   0  0  0  0  0  0  0  0  0  0  0  0
   31.8869    3.5877   26.1043 C   0  0  0  0  0  0  0  0  0  0  0  0
   30.6106    2.9630   26.5433 C   0  0  0  0  0  0  0  0  0  0  0  0
   30.5896    2.8482   27.9237 O   0  0  0  0  0  0  0  0  0  0  0  0
   33.2669    4.0016   24.2010 C   0  0  0  0  0  0  0  0  0  0  0  0
   35.4621    8.9250   26.4204 N   0  0  0  0  0  4  0  0  0  0  0  0
   36.4985    8.2555   26.6430 C   0  0  0  0  0  0  0  0  0  0  0  0
   37.1548    8.0726   27.9378 C   0  0  0  0  0  0  0  0  0  0  0  0
   38.0111    7.1323   28.2621 C   0  0  0  0  0  0  0  0  0  0  0  0
   38.5116    6.0458   27.4064 C   0  0  0  0  0  0  0  0  0  0  0  0
   39.9644    6.3133   26.9777 C   0  0  0  0  0  0  0  0  0  0  0  0
   40.3431    5.2849   26.1175 O   0  0  0  0  0  0  0  0  0  0  0  0
   35.4938    9.2800   25.0774 O   0  0  0  0  0  0  0  0  0  0  0  0
   37.0817    7.6321   25.5898 O   0  0  0  0  0  0  0  0  0  0  0  0
   40.9005    5.3812   24.8781 C   0  0  0  0  0  0  0  0  0  0  0  0
   41.7138    6.5695   24.5237 C   0  0  2  0  0  0  0  0  0  0  0  0
   41.0699    7.3367   23.3718 C   0  0  0  0  0  0  0  0  0  0  0  0
   39.6130    7.0425   23.2537 C   0  0  0  0  0  0  0  0  0  0  0  0
   38.7533    8.2537   22.9372 C   0  0  0  0  0  0  0  0  0  0  0  0
   37.4416    7.7837   22.5674 N   0  0  0  0  0  4  0  0  0  0  0  0
   36.4963    8.0944   21.8148 C   0  0  0  0  0  0  0  0  0  0  0  0
   36.5406    8.3362   20.3795 C   0  0  0  0  0  0  0  0  0  0  0  0
   36.1880    7.6395   19.3652 C   0  0  0  0  0  0  0  0  0  0  0  0
   35.8922    8.3779   18.0827 C   0  0  0  0  0  0  0  0  0  0  0  0
   36.1422    9.8295   18.1066 C   0  0  0  0  0  0  0  0  0  0  0  0
   35.9695   10.4715   16.8735 O   0  0  0  0  0  0  0  0  0  0  0  0
   40.7477    4.4873   24.0135 O   0  0  0  0  0  0  0  0  0  0  0  0
   37.0150    6.6553   23.2360 O   0  0  0  0  0  0  0  0  0  0  0  0
   35.2950    8.2015   22.4730 O   0  0  0  0  0  0  0  0  0  0  0  0
   35.9793    6.1728   19.2604 C   0  0  0  0  0  0  0  0  0  0  0  0
   43.0057    6.0667   24.0865 N   0  0  0  0  0  0  0  0  0  0  0  0
   44.2130    6.8183   24.2127 C   0  0  0  0  0  0  0  0  0  0  0  0
   44.2801    7.7573   25.0483 O   0  0  0  0  0  0  0  0  0  0  0  0
   45.3985    6.4886   23.3507 C   0  0  0  0  0  0  0  0  0  0  0  0
   35.4565    7.4773   24.2544 Fe  0  0  0  0  0  6  0  0  0  0  0  0
  2  1  1  0
  1  8  2  0
  1 18  1  0
  2  3  1  1
  2  9  1  0
  4  3  1  0
  5  4  1  0
  6  5  1  0
  7  6  2  0
  6 10  1  0
  7 11  1  0
 24  7  1  0
  9 12  1  0
 12 13  1  0
 12 17  2  0
 13 14  1  1
 18 13  1  0
 14 15  1  0
 15 16  1  0
 16 25  1  0
 20 19  1  0
 20 21  1  0
 20 24  2  0
 21 22  1  0
 22 23  1  0
 25 26  2  0
 25 32  1  0
 26 27  1  0
 26 33  1  0
 27 28  2  0
 28 29  1  0
 29 30  1  0
 30 31  1  0
 31 34  1  0
 34 35  1  0
 34 46  2  0
 35 36  1  0
 35 50  1  6
 36 37  1  0
 37 38  1  0
 38 39  1  0
 39 40  2  0
 39 47  1  0
 40 41  1  0
 40 48  1  0
 41 42  2  0
 42 43  1  0
 42 49  1  0
 43 44  1  0
 44 45  1  0
 50 51  1  0
 51 52  2  0
 51 53  1  0
 10 54  1  0
 54 11  1  0
 54 32  1  0
 54 33  1  0
 54 47  1  0
 54 48  1  0
M  CHG  3   6   1  25   1  39   1
M  END
$$$$
