
     RDKit          3D

 54 59  0  0  0  0  0  0  0  0999 V2000
   35.7933   10.9657   18.5137 C   0  0  0  0  0  0  0  0  0  0  0  0
   35.2235   10.8364   19.9071 C   0  0  2  0  0  0  0  0  0  0  0  0
   33.9894   11.5150   20.2122 C   0  0  0  0  0  0  0  0  0  0  0  0
   33.5990   11.1669   21.6393 C   0  0  0  0  0  0  0  0  0  0  0  0
   33.3545    9.7409   21.9187 C   0  0  0  0  0  0  0  0  0  0  0  0
   34.1833    9.1605   23.0010 N   0  0  0  0  0  4  0  0  0  0  0  0
   34.3522    9.5191   24.2143 C   0  0  0  0  0  0  0  0  0  0  0  0
   35.1663   11.5300   17.5836 O   0  0  0  0  0  0  0  0  0  0  0  0
   36.3095   11.3494   20.7225 N   0  0  0  0  0  0  0  0  0  0  0  0
   34.8706    8.0850   22.6651 O   0  0  0  0  0  0  0  0  0  0  0  0
   35.3961    8.8837   24.8176 O   0  0  0  0  0  0  0  0  0  0  0  0
   37.5971   10.8331   20.4489 C   0  0  0  0  0  0  0  0  0  0  0  0
   37.6650    9.7348   19.4326 C   0  0  2  0  0  0  0  0  0  0  0  0
   38.9155    9.0688   19.4584 C   0  0  0  0  0  0  0  0  0  0  0  0
   39.0697    8.3834   20.8165 C   0  0  0  0  0  0  0  0  0  0  0  0
   37.7725    7.8981   21.2943 C   0  0  0  0  0  0  0  0  0  0  0  0
   38.6623   11.2127   20.9755 O   0  0  0  0  0  0  0  0  0  0  0  0
   37.0983   10.4118   18.2876 N   0  0  0  0  0  0  0  0  0  0  0  0
   31.3279    9.7090   24.1833 C   0  0  0  0  0  0  0  0  0  0  0  0
   32.2422   10.3374   25.1560 C   0  0  0  0  0  0  0  0  0  0  0  0
   31.7094   10.7257   26.4749 C   0  0  0  0  0  0  0  0  0  0  0  0
   30.2640   11.0737   26.5133 C   0  0  0  0  0  0  0  0  0  0  0  0
   29.9266   11.5583   27.7666 O   0  0  0  0  0  0  0  0  0  0  0  0
   33.4773   10.5398   24.8817 C   0  0  0  0  0  0  0  0  0  0  0  0
   37.6786    7.2328   22.5585 N   0  0  0  0  0  4  0  0  0  0  0  0
   38.2036    7.2597   23.6966 C   0  0  0  0  0  0  0  0  0  0  0  0
   39.5553    7.7167   24.0207 C   0  0  0  0  0  0  0  0  0  0  0  0
   40.0054    8.0733   25.2008 C   0  0  0  0  0  0  0  0  0  0  0  0
   39.2630    8.0980   26.4703 C   0  0  0  0  0  0  0  0  0  0  0  0
   39.6967    6.9355   27.3794 C   0  0  0  0  0  0  0  0  0  0  0  0
   38.9053    6.9822   28.5249 O   0  0  0  0  0  0  0  0  0  0  0  0
   36.6724    6.2754   22.6027 O   0  0  0  0  0  0  0  0  0  0  0  0
   37.4582    6.8257   24.7425 O   0  0  0  0  0  0  0  0  0  0  0  0
   38.1788    5.9790   29.0922 C   0  0  0  0  0  0  0  0  0  0  0  0
   38.5953    4.5680   28.9057 C   0  0  2  0  0  0  0  0  0  0  0  0
   37.5194    3.7851   28.1577 C   0  0  0  0  0  0  0  0  0  0  0  0
   36.6234    4.6822   27.3733 C   0  0  0  0  0  0  0  0  0  0  0  0
   36.2480    4.1486   26.0019 C   0  0  0  0  0  0  0  0  0  0  0  0
   35.1698    4.9570   25.4900 N   0  0  0  0  0  4  0  0  0  0  0  0
   34.1576    4.8477   24.7688 C   0  0  0  0  0  0  0  0  0  0  0  0
   33.0520    3.9119   24.9184 C   0  0  0  0  0  0  0  0  0  0  0  0
   32.2885    3.6122   25.9011 C   0  0  0  0  0  0  0  0  0  0  0  0
   31.4148    4.7073   26.4627 C   0  0  0  0  0  0  0  0  0  0  0  0
   30.0017    4.6760   26.0477 C   0  0  0  0  0  0  0  0  0  0  0  0
   29.2451    5.7764   26.4708 O   0  0  0  0  0  0  0  0  0  0  0  0
   37.1550    6.2101   29.7767 O   0  0  0  0  0  0  0  0  0  0  0  0
   35.2210    6.2899   25.8409 O   0  0  0  0  0  0  0  0  0  0  0  0
   34.1356    5.7463   23.7296 O   0  0  0  0  0  0  0  0  0  0  0  0
   32.1521    2.3224   26.6247 C   0  0  0  0  0  0  0  0  0  0  0  0
   38.7431    4.0046   30.2376 N   0  0  0  0  0  0  0  0  0  0  0  0
   38.9693    2.6142   30.4702 C   0  0  0  0  0  0  0  0  0  0  0  0
   38.4182    2.0467   31.4493 O   0  0  0  0  0  0  0  0  0  0  0  0
   39.8621    1.8325   29.5489 C   0  0  0  0  0  0  0  0  0  0  0  0
   35.5055    7.0808   23.9875 Fe  0  0  0  0  0  6  0  0  0  0  0  0
  2  1  1  0
  1  8  2  0
  1 18  1  0
  2  3  1  6
  2  9  1  0
  4  3  1  0
  5  4  1  0
  6  5  1  0
  7  6  2  0
  6 10  1  0
  7 11  1  0
 24  7  1  0
  9 12  1  0
 12 13  1  0
 12 17  2  0
 13 14  1  6
 18 13  1  0
 14 15  1  0
 15 16  1  0
 16 25  1  0
 20 19  1  0
 20 21  1  0
 20 24  2  0
 21 22  1  0
 22 23  1  0
 25 26  2  0
 25 32  1  0
 26 27  1  0
 26 33  1  0
 27 28  2  0
 28 29  1  0
 29 30  1  0
 30 31  1  0
 31 34  1  0
 34 35  1  0
 34 46  2  0
 35 36  1  0
 35 50  1  1
 36 37  1  0
 37 38  1  0
 38 39  1  0
 39 40  2  0
 39 47  1  0
 40 41  1  0
 40 48  1  0
 41 42  2  0
 42 43  1  0
 42 49  1  0
 43 44  1  0
 44 45  1  0
 50 51  1  0
 51 52  2  0
 51 53  1  0
 10 54  1  0
 54 11  1  0
 54 32  1  0
 54 33  1  0
 54 47  1  0
 54 48  1  0
M  CHG  3   6   1  25   1  39   1
M  END
$$$$
