
     RDKit          3D

 12 12  0  0  0  0  0  0  0  0999 V2000
  -19.4634   -7.0986   -2.8552 C   0  0  2  0  0  0  0  0  0  0  0  0
  -19.3518   -7.5544   -4.2726 C   0  0  2  0  0  0  0  0  0  0  0  0
  -18.2361   -8.6065   -4.3106 C   0  0  1  0  0  0  0  0  0  0  0  0
  -18.7377   -9.7190   -3.4099 C   0  0  1  0  0  0  0  0  0  0  0  0
  -17.9084  -10.9681   -3.5450 C   0  0  0  0  0  0  0  0  0  0  0  0
  -19.4397   -8.1742   -1.8392 C   0  0  2  0  0  0  0  0  0  0  0  0
  -18.9803   -7.6088   -0.6281 O   0  0  0  0  0  0  0  0  0  0  0  0
  -20.7001   -6.4245   -2.7362 O   0  0  0  0  0  0  0  0  0  0  0  0
  -19.1198   -6.5126   -5.1289 O   0  0  0  0  0  0  0  0  0  0  0  0
  -17.9480   -9.0171   -5.5820 O   0  0  0  0  0  0  0  0  0  0  0  0
  -18.6374   -9.2455   -2.1135 O   0  0  0  0  0  0  0  0  0  0  0  0
  -16.6809  -10.8752   -2.9331 O   0  0  0  0  0  0  0  0  0  0  0  0
  2  1  1  0
  1  6  1  0
  1  8  1  6
  3  2  1  0
  2  9  1  6
  4  3  1  0
  3 10  1  6
  4  5  1  1
  4 11  1  0
 12  5  1  0
  6  7  1  1
  6 11  1  0
M  END
$$$$
