
     RDKit          3D

 12 12  0  0  0  0  0  0  0  0999 V2000
  -18.5040   -7.7166   -2.6833 C   0  0  2  0  0  0  0  0  0  0  0  0
  -19.1156   -6.5248   -3.3425 C   0  0  2  0  0  0  0  0  0  0  0  0
  -20.4613   -6.2793   -2.6482 C   0  0  1  0  0  0  0  0  0  0  0  0
  -20.0923   -5.9853   -1.2068 C   0  0  1  0  0  0  0  0  0  0  0  0
  -21.2590   -5.4377   -0.4288 C   0  0  0  0  0  0  0  0  0  0  0  0
  -18.5759   -7.7308   -1.2054 C   0  0  2  0  0  0  0  0  0  0  0  0
  -18.5106   -9.0791   -0.7866 O   0  0  0  0  0  0  0  0  0  0  0  0
  -17.1378   -7.7311   -3.0456 O   0  0  0  0  0  0  0  0  0  0  0  0
  -19.2462   -6.6975   -4.6937 O   0  0  0  0  0  0  0  0  0  0  0  0
  -21.1830   -5.2833   -3.2444 O   0  0  0  0  0  0  0  0  0  0  0  0
  -19.7020   -7.1910   -0.6511 O   0  0  0  0  0  0  0  0  0  0  0  0
  -21.9977   -6.4108    0.2015 O   0  0  0  0  0  0  0  0  0  0  0  0
  2  1  1  0
  1  6  1  0
  1  8  1  1
  3  2  1  0
  2  9  1  6
  4  3  1  0
  3 10  1  6
  4  5  1  1
  4 11  1  0
 12  5  1  0
  6  7  1  6
  6 11  1  0
M  END
$$$$
