
     RDKit          3D

 12 12  0  0  0  0  0  0  0  0999 V2000
  -17.1026   -9.0589    9.4686 C   0  0  2  0  0  0  0  0  0  0  0  0
  -18.2543   -9.7041    8.7711 C   0  0  2  0  0  0  0  0  0  0  0  0
  -17.7615  -11.0707    8.2783 C   0  0  1  0  0  0  0  0  0  0  0  0
  -17.3943  -11.8174    9.5464 C   0  0  1  0  0  0  0  0  0  0  0  0
  -17.1583  -13.2815    9.2878 C   0  0  0  0  0  0  0  0  0  0  0  0
  -16.3454   -9.9367   10.3882 C   0  0  2  0  0  0  0  0  0  0  0  0
  -15.0380   -9.4119   10.5010 O   0  0  0  0  0  0  0  0  0  0  0  0
  -17.6294   -7.9920   10.2317 O   0  0  0  0  0  0  0  0  0  0  0  0
  -18.7407   -8.9249    7.7568 O   0  0  0  0  0  0  0  0  0  0  0  0
  -18.6905  -11.7156    7.5108 O   0  0  0  0  0  0  0  0  0  0  0  0
  -16.2236  -11.2440   10.0107 O   0  0  0  0  0  0  0  0  0  0  0  0
  -15.9116  -13.5494    8.7740 O   0  0  0  0  0  0  0  0  0  0  0  0
  2  1  1  0
  1  6  1  0
  1  8  1  1
  3  2  1  0
  2  9  1  6
  4  3  1  0
  3 10  1  1
  4  5  1  6
  4 11  1  0
 12  5  1  0
  6  7  1  6
  6 11  1  0
M  END
$$$$
