
     RDKit          3D

 12 12  0  0  0  0  0  0  0  0999 V2000
  -18.3687   -7.7535   -3.0874 C   0  0  2  0  0  0  0  0  0  0  0  0
  -19.3326   -7.6001   -4.2173 C   0  0  2  0  0  0  0  0  0  0  0  0
  -19.0529   -8.7494   -5.1942 C   0  0  1  0  0  0  0  0  0  0  0  0
  -19.3383  -10.0035   -4.3904 C   0  0  1  0  0  0  0  0  0  0  0  0
  -19.3957  -11.2290   -5.2630 C   0  0  0  0  0  0  0  0  0  0  0  0
  -18.2133   -9.1306   -2.5688 C   0  0  2  0  0  0  0  0  0  0  0  0
  -16.9374   -9.2198   -1.9672 O   0  0  0  0  0  0  0  0  0  0  0  0
  -18.8455   -6.9482   -2.0281 O   0  0  0  0  0  0  0  0  0  0  0  0
  -19.2343   -6.3712   -4.8112 O   0  0  0  0  0  0  0  0  0  0  0  0
  -19.7908   -8.6521   -6.3406 O   0  0  0  0  0  0  0  0  0  0  0  0
  -18.2950  -10.1353   -3.4910 O   0  0  0  0  0  0  0  0  0  0  0  0
  -18.1579  -11.6614   -5.6761 O   0  0  0  0  0  0  0  0  0  0  0  0
  2  1  1  0
  1  6  1  0
  1  8  1  1
  3  2  1  0
  2  9  1  6
  4  3  1  0
  3 10  1  6
  4  5  1  6
  4 11  1  0
 12  5  1  0
  6  7  1  6
  6 11  1  0
M  END
$$$$
