
     RDKit          3D

 12 12  0  0  0  0  0  0  0  0999 V2000
  -17.9361   -7.8501   -3.5648 C   0  0  2  0  0  0  0  0  0  0  0  0
  -18.3413   -7.3868   -4.9250 C   0  0  2  0  0  0  0  0  0  0  0  0
  -18.5751   -8.6467   -5.7683 C   0  0  1  0  0  0  0  0  0  0  0  0
  -19.7130   -9.3628   -5.0663 C   0  0  1  0  0  0  0  0  0  0  0  0
  -20.2775  -10.4780   -5.9054 C   0  0  0  0  0  0  0  0  0  0  0  0
  -18.7382   -8.9622   -3.0084 C   0  0  2  0  0  0  0  0  0  0  0  0
  -17.9330   -9.6407   -2.0657 O   0  0  0  0  0  0  0  0  0  0  0  0
  -18.0758   -6.7446   -2.6952 O   0  0  0  0  0  0  0  0  0  0  0  0
  -17.4113   -6.5498   -5.4792 O   0  0  0  0  0  0  0  0  0  0  0  0
  -18.8335   -8.3579   -7.0790 O   0  0  0  0  0  0  0  0  0  0  0  0
  -19.1812   -9.8937   -3.9043 O   0  0  0  0  0  0  0  0  0  0  0  0
  -19.3933  -11.5122   -6.1022 O   0  0  0  0  0  0  0  0  0  0  0  0
  2  1  1  0
  1  6  1  0
  1  8  1  1
  3  2  1  0
  2  9  1  6
  4  3  1  0
  3 10  1  6
  4  5  1  6
  4 11  1  0
 12  5  1  0
  6  7  1  1
  6 11  1  0
M  END
$$$$
