
     RDKit          3D

 12 12  0  0  0  0  0  0  0  0999 V2000
  -17.7929   -8.3994   -2.2190 C   0  0  2  0  0  0  0  0  0  0  0  0
  -18.9190   -7.7453   -2.9492 C   0  0  2  0  0  0  0  0  0  0  0  0
  -20.0523   -8.7763   -3.0261 C   0  0  1  0  0  0  0  0  0  0  0  0
  -20.4145   -9.0452   -1.5780 C   0  0  1  0  0  0  0  0  0  0  0  0
  -21.7008   -9.8176   -1.4548 C   0  0  0  0  0  0  0  0  0  0  0  0
  -18.1770   -9.1534   -1.0051 C   0  0  2  0  0  0  0  0  0  0  0  0
  -17.1858  -10.1353   -0.7798 O   0  0  0  0  0  0  0  0  0  0  0  0
  -16.9079   -7.3712   -1.8222 O   0  0  0  0  0  0  0  0  0  0  0  0
  -18.5359   -7.2939   -4.1830 O   0  0  0  0  0  0  0  0  0  0  0  0
  -21.1037   -8.3418   -3.7836 O   0  0  0  0  0  0  0  0  0  0  0  0
  -19.3803   -9.7989   -1.0515 O   0  0  0  0  0  0  0  0  0  0  0  0
  -21.7027  -10.7079   -0.4074 O   0  0  0  0  0  0  0  0  0  0  0  0
  2  1  1  0
  1  6  1  0
  1  8  1  1
  3  2  1  0
  2  9  1  6
  4  3  1  0
  3 10  1  6
  4  5  1  6
  4 11  1  0
 12  5  1  0
  6  7  1  6
  6 11  1  0
M  END
$$$$
