
     RDKit          3D

 12 12  0  0  0  0  0  0  0  0999 V2000
  -18.0950   -8.2309   -2.3884 C   0  0  2  0  0  0  0  0  0  0  0  0
  -18.6442   -7.6788   -3.6622 C   0  0  2  0  0  0  0  0  0  0  0  0
  -18.4384   -8.7564   -4.7345 C   0  0  1  0  0  0  0  0  0  0  0  0
  -19.2571   -9.9353   -4.2445 C   0  0  1  0  0  0  0  0  0  0  0  0
  -19.4115  -10.9919   -5.3057 C   0  0  0  0  0  0  0  0  0  0  0  0
  -18.4637   -9.6334   -2.0938 C   0  0  2  0  0  0  0  0  0  0  0  0
  -17.4680  -10.1684   -1.2453 O   0  0  0  0  0  0  0  0  0  0  0  0
  -18.5986   -7.4267   -1.3407 O   0  0  0  0  0  0  0  0  0  0  0  0
  -18.0611   -6.4871   -3.9975 O   0  0  0  0  0  0  0  0  0  0  0  0
  -18.7894   -8.3251   -5.9831 O   0  0  0  0  0  0  0  0  0  0  0  0
  -18.5673  -10.4687   -3.1700 O   0  0  0  0  0  0  0  0  0  0  0  0
  -18.3213  -11.8230   -5.4089 O   0  0  0  0  0  0  0  0  0  0  0  0
  2  1  1  0
  1  6  1  0
  1  8  1  1
  3  2  1  0
  2  9  1  6
  4  3  1  0
  3 10  1  6
  4  5  1  6
  4 11  1  0
 12  5  1  0
  6  7  1  1
  6 11  1  0
M  END
$$$$
