
     RDKit          3D

 12 12  0  0  0  0  0  0  0  0999 V2000
  -18.5451   -7.9621   -2.4945 C   0  0  2  0  0  0  0  0  0  0  0  0
  -19.0751   -6.7605   -3.2047 C   0  0  2  0  0  0  0  0  0  0  0  0
  -20.4690   -6.4856   -2.6260 C   0  0  1  0  0  0  0  0  0  0  0  0
  -20.2160   -6.1941   -1.1593 C   0  0  1  0  0  0  0  0  0  0  0  0
  -21.4323   -5.6205   -0.4827 C   0  0  0  0  0  0  0  0  0  0  0  0
  -18.7408   -7.9697   -1.0278 C   0  0  2  0  0  0  0  0  0  0  0  0
  -18.7381   -9.3175   -0.6027 O   0  0  0  0  0  0  0  0  0  0  0  0
  -17.1540   -8.0052   -2.7411 O   0  0  0  0  0  0  0  0  0  0  0  0
  -19.0957   -6.9352   -4.5618 O   0  0  0  0  0  0  0  0  0  0  0  0
  -21.1178   -5.4774   -3.2823 O   0  0  0  0  0  0  0  0  0  0  0  0
  -19.8981   -7.4054   -0.5707 O   0  0  0  0  0  0  0  0  0  0  0  0
  -22.4007   -6.5593   -0.2166 O   0  0  0  0  0  0  0  0  0  0  0  0
  2  1  1  0
  1  6  1  0
  1  8  1  1
  3  2  1  0
  2  9  1  6
  4  3  1  0
  3 10  1  6
  4  5  1  1
  4 11  1  0
 12  5  1  0
  6  7  1  6
  6 11  1  0
M  END
$$$$
