
     RDKit          3D

 12 12  0  0  0  0  0  0  0  0999 V2000
  -18.8889   -7.8233   -3.4244 C   0  0  2  0  0  0  0  0  0  0  0  0
  -18.8380   -6.3334   -3.3440 C   0  0  2  0  0  0  0  0  0  0  0  0
  -20.1859   -5.8767   -2.7711 C   0  0  1  0  0  0  0  0  0  0  0  0
  -20.2393   -6.5035   -1.3910 C   0  0  1  0  0  0  0  0  0  0  0  0
  -21.3598   -5.9374   -0.5601 C   0  0  0  0  0  0  0  0  0  0  0  0
  -19.4442   -8.5043   -2.2338 C   0  0  2  0  0  0  0  0  0  0  0  0
  -19.9512   -9.7550   -2.6538 O   0  0  0  0  0  0  0  0  0  0  0  0
  -17.5590   -8.2716   -3.5927 O   0  0  0  0  0  0  0  0  0  0  0  0
  -18.5639   -5.7638   -4.5577 O   0  0  0  0  0  0  0  0  0  0  0  0
  -20.3158   -4.5161   -2.7618 O   0  0  0  0  0  0  0  0  0  0  0  0
  -20.4572   -7.8560   -1.5858 O   0  0  0  0  0  0  0  0  0  0  0  0
  -22.5950   -6.4356   -0.9003 O   0  0  0  0  0  0  0  0  0  0  0  0
  2  1  1  0
  1  6  1  0
  1  8  1  1
  3  2  1  0
  2  9  1  6
  4  3  1  0
  3 10  1  1
  4  5  1  1
  4 11  1  0
 12  5  1  0
  6  7  1  6
  6 11  1  0
M  END
$$$$
