
     RDKit          3D

 12 12  0  0  0  0  0  0  0  0999 V2000
  -18.4821   -7.4403   -3.0235 C   0  0  2  0  0  0  0  0  0  0  0  0
  -19.8438   -7.5975   -3.6154 C   0  0  2  0  0  0  0  0  0  0  0  0
  -19.6500   -8.2007   -5.0125 C   0  0  1  0  0  0  0  0  0  0  0  0
  -19.0008   -9.5468   -4.7539 C   0  0  1  0  0  0  0  0  0  0  0  0
  -18.9921  -10.4122   -5.9857 C   0  0  0  0  0  0  0  0  0  0  0  0
  -17.5764   -8.5972   -3.1998 C   0  0  2  0  0  0  0  0  0  0  0  0
  -16.2493   -8.1159   -3.1317 O   0  0  0  0  0  0  0  0  0  0  0  0
  -18.6577   -7.2416   -1.6351 O   0  0  0  0  0  0  0  0  0  0  0  0
  -20.5290   -6.4134   -3.6457 O   0  0  0  0  0  0  0  0  0  0  0  0
  -20.8204   -8.2812   -5.7139 O   0  0  0  0  0  0  0  0  0  0  0  0
  -17.6962   -9.2835   -4.3750 O   0  0  0  0  0  0  0  0  0  0  0  0
  -17.9560  -10.1278   -6.8433 O   0  0  0  0  0  0  0  0  0  0  0  0
  2  1  1  0
  1  6  1  0
  1  8  1  1
  3  2  1  0
  2  9  1  6
  4  3  1  0
  3 10  1  1
  4  5  1  6
  4 11  1  0
 12  5  1  0
  6  7  1  6
  6 11  1  0
M  END
$$$$
