
     RDKit          3D

 12 12  0  0  0  0  0  0  0  0999 V2000
  -18.9532  -11.4825  -22.9535 C   0  0  2  0  0  0  0  0  0  0  0  0
  -19.5536  -10.3981  -22.1213 C   0  0  2  0  0  0  0  0  0  0  0  0
  -18.3971   -9.7297  -21.3670 C   0  0  1  0  0  0  0  0  0  0  0  0
  -17.5134   -9.1619  -22.4611 C   0  0  1  0  0  0  0  0  0  0  0  0
  -16.4744   -8.2209  -21.9122 C   0  0  0  0  0  0  0  0  0  0  0  0
  -17.7218  -11.1120  -23.6858 C   0  0  2  0  0  0  0  0  0  0  0  0
  -16.9919  -12.2987  -23.9235 O   0  0  0  0  0  0  0  0  0  0  0  0
  -19.9254  -11.8526  -23.9104 O   0  0  0  0  0  0  0  0  0  0  0  0
  -20.5224  -10.8747  -21.2804 O   0  0  0  0  0  0  0  0  0  0  0  0
  -18.8298   -8.7940  -20.4696 O   0  0  0  0  0  0  0  0  0  0  0  0
  -16.8810  -10.2423  -23.0508 O   0  0  0  0  0  0  0  0  0  0  0  0
  -15.4444   -8.8637  -21.2673 O   0  0  0  0  0  0  0  0  0  0  0  0
  2  1  1  0
  1  6  1  0
  1  8  1  6
  3  2  1  0
  2  9  1  1
  4  3  1  0
  3 10  1  1
  4  5  1  1
  4 11  1  0
 12  5  1  0
  6  7  1  1
  6 11  1  0
M  END
$$$$
