
     RDKit          3D

 12 12  0  0  0  0  0  0  0  0999 V2000
  -18.2875   -7.8978   -2.3303 C   0  0  2  0  0  0  0  0  0  0  0  0
  -19.1745   -7.6924   -3.5135 C   0  0  2  0  0  0  0  0  0  0  0  0
  -18.6427   -8.6042   -4.6266 C   0  0  1  0  0  0  0  0  0  0  0  0
  -18.7861  -10.0057   -4.0648 C   0  0  1  0  0  0  0  0  0  0  0  0
  -18.5820  -11.0581   -5.1218 C   0  0  0  0  0  0  0  0  0  0  0  0
  -17.9557   -9.3068   -2.0233 C   0  0  2  0  0  0  0  0  0  0  0  0
  -16.7314   -9.3140   -1.3171 O   0  0  0  0  0  0  0  0  0  0  0  0
  -18.9651   -7.3637   -1.2107 O   0  0  0  0  0  0  0  0  0  0  0  0
  -19.2273   -6.3784   -3.8922 O   0  0  0  0  0  0  0  0  0  0  0  0
  -19.2972   -8.4181   -5.8120 O   0  0  0  0  0  0  0  0  0  0  0  0
  -17.8066  -10.1391   -3.0964 O   0  0  0  0  0  0  0  0  0  0  0  0
  -17.2702  -11.1915   -5.5108 O   0  0  0  0  0  0  0  0  0  0  0  0
  2  1  1  0
  1  6  1  0
  1  8  1  1
  3  2  1  0
  2  9  1  6
  4  3  1  0
  3 10  1  6
  4  5  1  6
  4 11  1  0
 12  5  1  0
  6  7  1  6
  6 11  1  0
M  END
$$$$
