
     RDKit          3D

 10  9  0  0  0  0  0  0  0  0999 V2000
    6.8460   24.2879  123.4826 C   0  0  0  0  0  0  0  0  0  0  0  0
    7.5297   25.2390  124.2499 O   0  0  0  0  0  0  0  0  0  0  0  0
    5.5760   24.3728  123.4944 O   0  0  0  0  0  0  0  0  0  0  0  0
    7.5274   23.2720  122.7313 C   0  0  0  0  0  0  0  0  0  0  0  0
    8.7742   23.1853  122.7979 O   0  0  0  0  0  0  0  0  0  0  0  0
    6.7962   22.3204  121.8863 C   0  0  0  0  0  0  0  0  0  0  0  0
    7.8235   21.4651  121.1661 C   0  0  0  0  0  0  0  0  0  0  0  0
    7.1604   20.3530  120.4069 C   0  0  0  0  0  0  0  0  0  0  0  0
    7.8555   19.6943  119.6106 O   0  0  0  0  0  0  0  0  0  0  0  0
    5.8322   20.0250  120.5480 O   0  0  0  0  0  0  0  0  0  0  0  0
  1  2  1  0
  1  3  2  0
  1  4  1  0
  4  5  2  0
  4  6  1  0
  6  7  1  0
  7  8  1  0
  8  9  2  0
  8 10  1  0
M  END
$$$$
