
     RDKit          3D

 10  9  0  0  0  0  0  0  0  0999 V2000
    7.3737   20.7525  119.9887 C   0  0  0  0  0  0  0  0  0  0  0  0
    7.8243   19.4825  119.6079 O   0  0  0  0  0  0  0  0  0  0  0  0
    6.7897   21.4298  119.0830 O   0  0  0  0  0  0  0  0  0  0  0  0
    7.5607   21.2691  121.3149 C   0  0  0  0  0  0  0  0  0  0  0  0
    8.1183   20.5594  122.1821 O   0  0  0  0  0  0  0  0  0  0  0  0
    7.1192   22.6196  121.6831 C   0  0  0  0  0  0  0  0  0  0  0  0
    7.3119   22.7712  123.1815 C   0  0  0  0  0  0  0  0  0  0  0  0
    7.0491   24.1832  123.6174 C   0  0  0  0  0  0  0  0  0  0  0  0
    6.6518   24.3700  124.7830 O   0  0  0  0  0  0  0  0  0  0  0  0
    7.2272   25.2749  122.8001 O   0  0  0  0  0  0  0  0  0  0  0  0
  1  2  1  0
  1  3  2  0
  1  4  1  0
  4  5  2  0
  4  6  1  0
  6  7  1  0
  7  8  1  0
  8  9  2  0
  8 10  1  0
M  END
$$$$
