
     RDKit          3D

 10  9  0  0  0  0  0  0  0  0999 V2000
    6.9776   23.9780  123.5518 C   0  0  0  0  0  0  0  0  0  0  0  0
    7.3076   25.2742  123.9663 O   0  0  0  0  0  0  0  0  0  0  0  0
    6.3201   23.2777  124.3870 O   0  0  0  0  0  0  0  0  0  0  0  0
    7.3589   23.4605  122.2682 C   0  0  0  0  0  0  0  0  0  0  0  0
    8.0420   24.1684  121.4943 O   0  0  0  0  0  0  0  0  0  0  0  0
    6.9732   22.1114  121.8379 C   0  0  0  0  0  0  0  0  0  0  0  0
    7.5898   21.8735  120.4709 C   0  0  0  0  0  0  0  0  0  0  0  0
    7.2802   20.4914  119.9743 C   0  0  0  0  0  0  0  0  0  0  0  0
    7.5539   20.2219  118.7894 O   0  0  0  0  0  0  0  0  0  0  0  0
    6.7158   19.5125  120.7583 O   0  0  0  0  0  0  0  0  0  0  0  0
  1  2  1  0
  1  3  2  0
  1  4  1  0
  4  5  2  0
  4  6  1  0
  6  7  1  0
  7  8  1  0
  8  9  2  0
  8 10  1  0
M  END
$$$$
