
     RDKit          3D

 10  9  0  0  0  0  0  0  0  0999 V2000
    7.6488   24.2776  123.6245 C   0  0  0  0  0  0  0  0  0  0  0  0
    7.3620   25.6000  123.9845 O   0  0  0  0  0  0  0  0  0  0  0  0
    8.5055   23.6773  124.3497 O   0  0  0  0  0  0  0  0  0  0  0  0
    7.0247   23.6330  122.5039 C   0  0  0  0  0  0  0  0  0  0  0  0
    6.1509   24.2432  121.8475 O   0  0  0  0  0  0  0  0  0  0  0  0
    7.3908   22.2706  122.0990 C   0  0  0  0  0  0  0  0  0  0  0  0
    7.0110   22.1101  120.6377 C   0  0  0  0  0  0  0  0  0  0  0  0
    7.3050   20.7196  120.1551 C   0  0  0  0  0  0  0  0  0  0  0  0
    6.4350   19.8453  120.3285 O   0  0  0  0  0  0  0  0  0  0  0  0
    8.4788   20.3654  119.5320 O   0  0  0  0  0  0  0  0  0  0  0  0
  1  2  1  0
  1  3  2  0
  1  4  1  0
  4  5  2  0
  4  6  1  0
  6  7  1  0
  7  8  1  0
  8  9  2  0
  8 10  1  0
M  END
$$$$
