
     RDKit          3D

 10  9  0  0  0  0  0  0  0  0999 V2000
    7.4713   20.3412  120.3357 C   0  0  0  0  0  0  0  0  0  0  0  0
    6.9472   19.6952  119.2092 O   0  0  0  0  0  0  0  0  0  0  0  0
    8.3930   19.7188  120.9548 O   0  0  0  0  0  0  0  0  0  0  0  0
    6.9993   21.6234  120.7760 C   0  0  0  0  0  0  0  0  0  0  0  0
    6.0698   22.1866  120.1552 O   0  0  0  0  0  0  0  0  0  0  0  0
    7.5759   22.2940  121.9473 C   0  0  0  0  0  0  0  0  0  0  0  0
    6.9510   23.6748  122.0375 C   0  0  0  0  0  0  0  0  0  0  0  0
    7.3635   24.3702  123.3020 C   0  0  0  0  0  0  0  0  0  0  0  0
    7.1508   25.5943  123.3912 O   0  0  0  0  0  0  0  0  0  0  0  0
    7.9580   23.7268  124.3622 O   0  0  0  0  0  0  0  0  0  0  0  0
  1  2  1  0
  1  3  2  0
  1  4  1  0
  4  5  2  0
  4  6  1  0
  6  7  1  0
  7  8  1  0
  8  9  2  0
  8 10  1  0
M  END
$$$$
