
     RDKit          3D

 10  9  0  0  0  0  0  0  0  0999 V2000
    7.5572   24.2094  123.5847 C   0  0  0  0  0  0  0  0  0  0  0  0
    7.1686   25.5181  123.8961 O   0  0  0  0  0  0  0  0  0  0  0  0
    8.2713   23.6190  124.4575 O   0  0  0  0  0  0  0  0  0  0  0  0
    7.1833   23.5679  122.3562 C   0  0  0  0  0  0  0  0  0  0  0  0
    6.4491   24.1716  121.5419 O   0  0  0  0  0  0  0  0  0  0  0  0
    7.6476   22.2161  122.0226 C   0  0  0  0  0  0  0  0  0  0  0  0
    7.2143   21.9223  120.5973 C   0  0  0  0  0  0  0  0  0  0  0  0
    7.0341   20.4478  120.3830 C   0  0  0  0  0  0  0  0  0  0  0  0
    5.9796   20.0606  119.8450 O   0  0  0  0  0  0  0  0  0  0  0  0
    7.9710   19.5086  120.7459 O   0  0  0  0  0  0  0  0  0  0  0  0
  1  2  1  0
  1  3  2  0
  1  4  1  0
  4  5  2  0
  4  6  1  0
  6  7  1  0
  7  8  1  0
  8  9  2  0
  8 10  1  0
M  END
$$$$
