
     RDKit          3D

 10  9  0  0  0  0  0  0  0  0999 V2000
    6.5892   24.4195  123.0730 C   0  0  0  0  0  0  0  0  0  0  0  0
    7.1223   25.2459  124.0699 O   0  0  0  0  0  0  0  0  0  0  0  0
    5.4360   24.7423  122.6413 O   0  0  0  0  0  0  0  0  0  0  0  0
    7.2903   23.2732  122.5679 C   0  0  0  0  0  0  0  0  0  0  0  0
    8.3935   22.9544  123.0658 O   0  0  0  0  0  0  0  0  0  0  0  0
    6.7417   22.4542  121.4806 C   0  0  0  0  0  0  0  0  0  0  0  0
    7.7922   21.4222  121.1105 C   0  0  0  0  0  0  0  0  0  0  0  0
    7.2502   20.4349  120.1185 C   0  0  0  0  0  0  0  0  0  0  0  0
    6.0244   20.4420  119.8978 O   0  0  0  0  0  0  0  0  0  0  0  0
    8.0352   19.5302  119.4425 O   0  0  0  0  0  0  0  0  0  0  0  0
  1  2  1  0
  1  3  2  0
  1  4  1  0
  4  5  2  0
  4  6  1  0
  6  7  1  0
  7  8  1  0
  8  9  2  0
  8 10  1  0
M  END
$$$$
