
     RDKit          3D

 10  9  0  0  0  0  0  0  0  0999 V2000
    7.2148   24.6245  123.4838 C   0  0  0  0  0  0  0  0  0  0  0  0
    8.0068   25.5755  124.1391 O   0  0  0  0  0  0  0  0  0  0  0  0
    5.9561   24.7790  123.5930 O   0  0  0  0  0  0  0  0  0  0  0  0
    7.7796   23.5355  122.7383 C   0  0  0  0  0  0  0  0  0  0  0  0
    9.0223   23.3915  122.6995 O   0  0  0  0  0  0  0  0  0  0  0  0
    6.9334   22.5746  122.0209 C   0  0  0  0  0  0  0  0  0  0  0  0
    7.8460   21.7014  121.1783 C   0  0  0  0  0  0  0  0  0  0  0  0
    7.0775   20.5847  120.5339 C   0  0  0  0  0  0  0  0  0  0  0  0
    5.8840   20.4349  120.8571 O   0  0  0  0  0  0  0  0  0  0  0  0
    7.6211   19.7257  119.6076 O   0  0  0  0  0  0  0  0  0  0  0  0
  1  2  1  0
  1  3  2  0
  1  4  1  0
  4  5  2  0
  4  6  1  0
  6  7  1  0
  7  8  1  0
  8  9  2  0
  8 10  1  0
M  END
$$$$
