
     RDKit          3D

 10  9  0  0  0  0  0  0  0  0999 V2000
    7.0977   23.5758  123.5566 C   0  0  0  0  0  0  0  0  0  0  0  0
    7.2996   24.8838  124.0141 O   0  0  0  0  0  0  0  0  0  0  0  0
    6.7086   22.7353  124.4298 O   0  0  0  0  0  0  0  0  0  0  0  0
    7.3198   23.1961  122.1902 C   0  0  0  0  0  0  0  0  0  0  0  0
    7.8298   24.0174  121.3953 O   0  0  0  0  0  0  0  0  0  0  0  0
    6.9695   21.8587  121.6974 C   0  0  0  0  0  0  0  0  0  0  0  0
    7.4880   21.7451  120.2748 C   0  0  0  0  0  0  0  0  0  0  0  0
    7.3015   20.3537  119.7439 C   0  0  0  0  0  0  0  0  0  0  0  0
    7.3445   19.4089  120.5543 O   0  0  0  0  0  0  0  0  0  0  0  0
    7.0837   20.0717  118.4155 O   0  0  0  0  0  0  0  0  0  0  0  0
  1  2  1  0
  1  3  2  0
  1  4  1  0
  4  5  2  0
  4  6  1  0
  6  7  1  0
  7  8  1  0
  8  9  2  0
  8 10  1  0
M  END
$$$$
