
     RDKit          3D

 10  9  0  0  0  0  0  0  0  0999 V2000
    6.6804   20.6300  121.2556 C   0  0  0  0  0  0  0  0  0  0  0  0
    6.9710   19.6324  120.3168 O   0  0  0  0  0  0  0  0  0  0  0  0
    5.6002   20.4784  121.9116 O   0  0  0  0  0  0  0  0  0  0  0  0
    7.5392   21.7608  121.4668 C   0  0  0  0  0  0  0  0  0  0  0  0
    8.5675   21.8957  120.7662 O   0  0  0  0  0  0  0  0  0  0  0  0
    7.2385   22.7748  122.4845 C   0  0  0  0  0  0  0  0  0  0  0  0
    8.4239   23.7212  122.5514 C   0  0  0  0  0  0  0  0  0  0  0  0
    8.1713   24.8315  123.5292 C   0  0  0  0  0  0  0  0  0  0  0  0
    9.1248   25.5754  123.8270 O   0  0  0  0  0  0  0  0  0  0  0  0
    6.9461   25.0690  124.1070 O   0  0  0  0  0  0  0  0  0  0  0  0
  1  2  1  0
  1  3  2  0
  1  4  1  0
  4  5  2  0
  4  6  1  0
  6  7  1  0
  7  8  1  0
  8  9  2  0
  8 10  1  0
M  END
$$$$
