
     RDKit          3D

 10  9  0  0  0  0  0  0  0  0999 V2000
    7.3160   20.4734  120.8869 C   0  0  0  0  0  0  0  0  0  0  0  0
    8.0266   19.6766  121.7930 O   0  0  0  0  0  0  0  0  0  0  0  0
    6.9001   19.8857  119.8372 O   0  0  0  0  0  0  0  0  0  0  0  0
    7.0729   21.8694  121.1167 C   0  0  0  0  0  0  0  0  0  0  0  0
    6.4436   22.5359  120.2645 O   0  0  0  0  0  0  0  0  0  0  0  0
    7.5392   22.5403  122.3360 C   0  0  0  0  0  0  0  0  0  0  0  0
    7.2206   24.0182  122.1952 C   0  0  0  0  0  0  0  0  0  0  0  0
    7.6143   24.7733  123.4312 C   0  0  0  0  0  0  0  0  0  0  0  0
    8.3541   24.2014  124.2539 O   0  0  0  0  0  0  0  0  0  0  0  0
    7.2040   26.0587  123.6975 O   0  0  0  0  0  0  0  0  0  0  0  0
  1  2  1  0
  1  3  2  0
  1  4  1  0
  4  5  2  0
  4  6  1  0
  6  7  1  0
  7  8  1  0
  8  9  2  0
  8 10  1  0
M  END
$$$$
