
     RDKit          3D

 10  9  0  0  0  0  0  0  0  0999 V2000
    6.8541   24.0678  123.4726 C   0  0  0  0  0  0  0  0  0  0  0  0
    7.4678   25.0929  124.2030 O   0  0  0  0  0  0  0  0  0  0  0  0
    5.6176   23.8800  123.7094 O   0  0  0  0  0  0  0  0  0  0  0  0
    7.5695   23.2687  122.5185 C   0  0  0  0  0  0  0  0  0  0  0  0
    8.7943   23.4603  122.3462 O   0  0  0  0  0  0  0  0  0  0  0  0
    6.9009   22.2203  121.7387 C   0  0  0  0  0  0  0  0  0  0  0  0
    7.9234   21.6445  120.7753 C   0  0  0  0  0  0  0  0  0  0  0  0
    7.3644   20.4600  120.0423 C   0  0  0  0  0  0  0  0  0  0  0  0
    6.1381   20.2542  120.1147 O   0  0  0  0  0  0  0  0  0  0  0  0
    8.1334   19.5976  119.2965 O   0  0  0  0  0  0  0  0  0  0  0  0
  1  2  1  0
  1  3  2  0
  1  4  1  0
  4  5  2  0
  4  6  1  0
  6  7  1  0
  7  8  1  0
  8  9  2  0
  8 10  1  0
M  END
$$$$
