
     RDKit          3D

 17 17  0  0  0  0  0  0  0  0999 V2000
    6.1225   43.6360   44.5216 O   0  0  0  0  0  0  0  0  0  0  0  0
    6.3001   42.4608   44.0781 C   0  0  0  0  0  0  0  0  0  0  0  0
    5.9872   41.3450   44.8717 N   0  0  0  0  0  0  0  0  0  0  0  0
    6.8249   40.1680   44.8181 C   0  0  0  0  0  0  0  0  0  0  0  0
    4.8424   41.3369   45.7489 C   0  0  2  0  0  0  0  0  0  0  0  0
    5.2401   41.6295   47.1446 C   0  0  0  0  0  0  0  0  0  0  0  0
    6.4295   41.4931   47.5270 O   0  0  0  0  0  0  0  0  0  0  0  0
    4.2824   42.0724   48.0847 N   0  0  0  0  0  0  0  0  0  0  0  0
    4.1803   39.9711   45.7176 C   0  0  0  0  0  0  0  0  0  0  0  0
    4.5300   39.2390   44.4451 C   0  0  0  0  0  0  0  0  0  0  0  0
    6.0025   39.0402   44.2640 C   0  0  1  0  0  0  0  0  0  0  0  0
    6.2783   38.8640   42.8371 N   0  0  0  0  0  4  0  0  0  0  0  0
    7.6000   38.6994   42.7052 O   0  0  0  0  0  0  0  0  0  0  0  0
    8.3391   39.9424   41.8740 S   0  0  1  0  0  6  0  0  0  0  0  0
    7.8208   40.0621   40.4681 O   0  0  0  0  0  0  0  0  0  0  0  0
    7.9844   41.2373   42.5763 O   0  0  0  0  0  0  0  0  0  0  0  0
   10.0109   39.7858   41.8717 O   0  0  0  0  0  0  0  0  0  0  0  0
  1  2  2  0
  2  3  1  0
  3  4  1  0
  3  5  1  0
  4 11  1  0
  5  6  1  1
  5  9  1  0
  6  7  2  0
  6  8  1  0
  9 10  1  0
 10 11  1  0
 11 12  1  6
 12 13  1  0
 13 14  1  0
 14 15  2  0
 14 16  2  0
 14 17  1  6
M  CHG  1  12   1
M  END
$$$$
