
     RDKit          3D

 17 17  0  0  0  0  0  0  0  0999 V2000
   11.5772   37.7950   43.3259 O   0  0  0  0  0  0  0  0  0  0  0  0
   10.3542   38.0715   43.1333 C   0  0  0  0  0  0  0  0  0  0  0  0
    9.3835   37.7064   44.0804 N   0  0  0  0  0  0  0  0  0  0  0  0
    8.2103   36.9736   43.6604 C   0  0  0  0  0  0  0  0  0  0  0  0
    9.5226   38.0439   45.4758 C   0  0  2  0  0  0  0  0  0  0  0  0
   10.0368   36.8931   46.2523 C   0  0  0  0  0  0  0  0  0  0  0  0
   10.1023   35.7430   45.7496 O   0  0  0  0  0  0  0  0  0  0  0  0
   10.4686   37.0648   47.5869 N   0  0  0  0  0  0  0  0  0  0  0  0
    8.1725   38.4396   46.0461 C   0  0  0  0  0  0  0  0  0  0  0  0
    7.2419   38.8908   44.9470 C   0  0  0  0  0  0  0  0  0  0  0  0
    7.0106   37.8439   43.9025 C   0  0  1  0  0  0  0  0  0  0  0  0
    6.6037   38.5044   42.6609 N   0  0  0  0  0  4  0  0  0  0  0  0
    6.2248   39.7483   42.9782 O   0  0  0  0  0  0  0  0  0  0  0  0
    7.0359   40.9240   42.1169 S   0  0  1  0  0  6  0  0  0  0  0  0
    6.9364   42.2708   42.7769 O   0  0  0  0  0  0  0  0  0  0  0  0
    8.5053   40.5545   42.1098 O   0  0  0  0  0  0  0  0  0  0  0  0
    6.5072   41.0099   40.5255 O   0  0  0  0  0  0  0  0  0  0  0  0
  1  2  2  0
  2  3  1  0
  3  4  1  0
  3  5  1  0
  4 11  1  0
  5  6  1  1
  5  9  1  0
  6  7  2  0
  6  8  1  0
  9 10  1  0
 10 11  1  0
 11 12  1  6
 12 13  1  0
 13 14  1  0
 14 15  2  0
 14 16  2  0
 14 17  1  6
M  CHG  1  12   1
M  END
$$$$
