
     RDKit          3D

 17 17  0  0  0  0  0  0  0  0999 V2000
   11.8943   37.7083   44.4427 O   0  0  0  0  0  0  0  0  0  0  0  0
   10.8227   37.2483   43.9434 C   0  0  0  0  0  0  0  0  0  0  0  0
    9.6173   37.3123   44.6615 N   0  0  0  0  0  0  0  0  0  0  0  0
    8.3624   37.0881   43.9796 C   0  0  0  0  0  0  0  0  0  0  0  0
    9.5924   37.5980   46.0750 C   0  0  2  0  0  0  0  0  0  0  0  0
    9.4531   36.3547   46.8663 C   0  0  0  0  0  0  0  0  0  0  0  0
    9.2062   35.2531   46.3137 O   0  0  0  0  0  0  0  0  0  0  0  0
    9.5960   36.3801   48.2720 N   0  0  0  0  0  0  0  0  0  0  0  0
    8.4160   38.5024   46.3959 C   0  0  0  0  0  0  0  0  0  0  0  0
    7.9746   39.2582   45.1665 C   0  0  0  0  0  0  0  0  0  0  0  0
    7.5713   38.3633   44.0365 C   0  0  1  0  0  0  0  0  0  0  0  0
    7.7107   39.1038   42.7813 N   0  0  0  0  0  4  0  0  0  0  0  0
    6.4982   39.5690   42.4576 O   0  0  0  0  0  0  0  0  0  0  0  0
    6.4676   41.2197   42.2201 S   0  0  1  0  0  6  0  0  0  0  0  0
    6.2746   41.5738   40.7721 O   0  0  0  0  0  0  0  0  0  0  0  0
    5.2650   41.7667   42.9619 O   0  0  0  0  0  0  0  0  0  0  0  0
    7.8443   41.9644   42.8279 O   0  0  0  0  0  0  0  0  0  0  0  0
  1  2  2  0
  2  3  1  0
  3  4  1  0
  3  5  1  0
  4 11  1  0
  5  6  1  1
  5  9  1  0
  6  7  2  0
  6  8  1  0
  9 10  1  0
 10 11  1  0
 11 12  1  6
 12 13  1  0
 13 14  1  0
 14 15  2  0
 14 16  2  0
 14 17  1  1
M  CHG  1  12   1
M  END
$$$$
