
     RDKit          3D

 17 17  0  0  0  0  0  0  0  0999 V2000
   12.2523   37.1827   45.2539 O   0  0  0  0  0  0  0  0  0  0  0  0
   11.2198   37.7296   44.7598 C   0  0  0  0  0  0  0  0  0  0  0  0
    9.9436   37.4265   45.2621 N   0  0  0  0  0  0  0  0  0  0  0  0
    8.8241   37.3092   44.3551 C   0  0  0  0  0  0  0  0  0  0  0  0
    9.7127   37.2264   46.6717 C   0  0  2  0  0  0  0  0  0  0  0  0
    9.6715   35.7844   47.0041 C   0  0  0  0  0  0  0  0  0  0  0  0
    9.6967   34.9060   46.1054 O   0  0  0  0  0  0  0  0  0  0  0  0
    9.6024   35.3611   48.3506 N   0  0  0  0  0  0  0  0  0  0  0  0
    8.3846   37.8458   47.0681 C   0  0  0  0  0  0  0  0  0  0  0  0
    7.9797   38.9137   46.0817 C   0  0  0  0  0  0  0  0  0  0  0  0
    7.8490   38.4040   44.6804 C   0  0  1  0  0  0  0  0  0  0  0  0
    8.0196   39.5270   43.7568 N   0  0  0  0  0  4  0  0  0  0  0  0
    6.8001   40.0068   43.4849 O   0  0  0  0  0  0  0  0  0  0  0  0
    6.6849   40.6935   41.9693 S   0  0  1  0  0  6  0  0  0  0  0  0
    5.2645   40.7346   41.4794 O   0  0  0  0  0  0  0  0  0  0  0  0
    7.1440   42.1330   42.0828 O   0  0  0  0  0  0  0  0  0  0  0  0
    7.6681   39.9140   40.8534 O   0  0  0  0  0  0  0  0  0  0  0  0
  1  2  2  0
  2  3  1  0
  3  4  1  0
  3  5  1  0
  4 11  1  0
  5  6  1  6
  5  9  1  0
  6  7  2  0
  6  8  1  0
  9 10  1  0
 10 11  1  0
 11 12  1  6
 12 13  1  0
 13 14  1  0
 14 15  2  0
 14 16  2  0
 14 17  1  6
M  CHG  1  12   1
M  END
$$$$
