
     RDKit          3D

 17 17  0  0  0  0  0  0  0  0999 V2000
   12.0621   37.6980   44.7805 O   0  0  0  0  0  0  0  0  0  0  0  0
   10.9607   37.4631   44.1965 C   0  0  0  0  0  0  0  0  0  0  0  0
    9.7790   37.3088   44.9398 N   0  0  0  0  0  0  0  0  0  0  0  0
    8.4991   37.3380   44.2682 C   0  0  0  0  0  0  0  0  0  0  0  0
    9.8031   37.1199   46.3695 C   0  0  2  0  0  0  0  0  0  0  0  0
    9.6542   35.6891   46.7192 C   0  0  0  0  0  0  0  0  0  0  0  0
    9.5250   34.8096   45.8306 O   0  0  0  0  0  0  0  0  0  0  0  0
    9.6541   35.2781   48.0713 N   0  0  0  0  0  0  0  0  0  0  0  0
    8.6610   37.8889   47.0090 C   0  0  0  0  0  0  0  0  0  0  0  0
    8.2039   39.0101   46.1082 C   0  0  0  0  0  0  0  0  0  0  0  0
    7.7441   38.5375   44.7644 C   0  0  1  0  0  0  0  0  0  0  0  0
    7.8662   39.6436   43.8130 N   0  0  0  0  0  4  0  0  0  0  0  0
    6.8431   39.5452   42.9558 O   0  0  0  0  0  0  0  0  0  0  0  0
    6.9242   40.6445   41.7040 S   0  0  1  0  0  6  0  0  0  0  0  0
    7.5058   41.9574   42.1483 O   0  0  0  0  0  0  0  0  0  0  0  0
    7.8712   40.0835   40.6627 O   0  0  0  0  0  0  0  0  0  0  0  0
    5.4272   40.8805   40.9810 O   0  0  0  0  0  0  0  0  0  0  0  0
  1  2  2  0
  2  3  1  0
  3  4  1  0
  3  5  1  0
  4 11  1  0
  5  6  1  6
  5  9  1  0
  6  7  2  0
  6  8  1  0
  9 10  1  0
 10 11  1  0
 11 12  1  6
 12 13  1  0
 13 14  1  0
 14 15  2  0
 14 16  2  0
 14 17  1  6
M  CHG  1  12   1
M  END
$$$$
