
     RDKit          3D

 17 17  0  0  0  0  0  0  0  0999 V2000
   11.4230   37.9785   44.1893 O   0  0  0  0  0  0  0  0  0  0  0  0
   10.3260   37.4706   43.8047 C   0  0  0  0  0  0  0  0  0  0  0  0
    9.2238   37.4140   44.6735 N   0  0  0  0  0  0  0  0  0  0  0  0
    7.9783   36.8393   44.2170 C   0  0  0  0  0  0  0  0  0  0  0  0
    9.2970   37.9176   46.0231 C   0  0  2  0  0  0  0  0  0  0  0  0
    9.5193   36.8183   46.9893 C   0  0  0  0  0  0  0  0  0  0  0  0
    9.3078   35.6198   46.6750 O   0  0  0  0  0  0  0  0  0  0  0  0
    9.9781   37.0953   48.2969 N   0  0  0  0  0  0  0  0  0  0  0  0
    7.9969   38.6140   46.3832 C   0  0  0  0  0  0  0  0  0  0  0  0
    7.2674   39.0562   45.1383 C   0  0  0  0  0  0  0  0  0  0  0  0
    6.9422   37.9263   44.2119 C   0  0  1  0  0  0  0  0  0  0  0  0
    6.7764   38.4633   42.8600 N   0  0  0  0  0  4  0  0  0  0  0  0
    5.9754   39.5317   42.9523 O   0  0  0  0  0  0  0  0  0  0  0  0
    6.7084   40.9487   42.4656 S   0  0  1  0  0  6  0  0  0  0  0  0
    5.7592   41.8419   41.7169 O   0  0  0  0  0  0  0  0  0  0  0  0
    7.1183   41.7042   43.7134 O   0  0  0  0  0  0  0  0  0  0  0  0
    8.0858   40.6578   41.5504 O   0  0  0  0  0  0  0  0  0  0  0  0
  1  2  2  0
  2  3  1  0
  3  4  1  0
  3  5  1  0
  4 11  1  0
  5  6  1  1
  5  9  1  0
  6  7  2  0
  6  8  1  0
  9 10  1  0
 10 11  1  0
 11 12  1  6
 12 13  1  0
 13 14  1  0
 14 15  2  0
 14 16  2  0
 14 17  1  6
M  CHG  1  12   1
M  END
$$$$
