
     RDKit          3D

 17 17  0  0  0  0  0  0  0  0999 V2000
    4.9738   42.7861   47.7117 O   0  0  0  0  0  0  0  0  0  0  0  0
    4.7319   41.7468   47.0257 C   0  0  0  0  0  0  0  0  0  0  0  0
    5.6569   40.6907   46.9821 N   0  0  0  0  0  0  0  0  0  0  0  0
    7.0091   40.9385   46.5347 C   0  0  0  0  0  0  0  0  0  0  0  0
    5.2952   39.3508   47.3745 C   0  0  2  0  0  0  0  0  0  0  0  0
    5.7415   39.0629   48.7563 C   0  0  0  0  0  0  0  0  0  0  0  0
    6.8408   38.4974   48.9832 O   0  0  0  0  0  0  0  0  0  0  0  0
    4.9339   39.4208   49.8594 N   0  0  0  0  0  0  0  0  0  0  0  0
    5.9506   38.3476   46.4424 C   0  0  0  0  0  0  0  0  0  0  0  0
    6.3003   38.9948   45.1247 C   0  0  0  0  0  0  0  0  0  0  0  0
    7.2262   40.1622   45.2677 C   0  0  1  0  0  0  0  0  0  0  0  0
    7.0620   41.0343   44.1033 N   0  0  0  0  0  4  0  0  0  0  0  0
    7.3796   40.3150   43.0202 O   0  0  0  0  0  0  0  0  0  0  0  0
    7.3033   41.1903   41.6024 S   0  0  1  0  0  6  0  0  0  0  0  0
    5.8848   41.4178   41.1602 O   0  0  0  0  0  0  0  0  0  0  0  0
    7.8944   42.5582   41.8765 O   0  0  0  0  0  0  0  0  0  0  0  0
    8.1924   40.4693   40.3739 O   0  0  0  0  0  0  0  0  0  0  0  0
  1  2  2  0
  2  3  1  0
  3  4  1  0
  3  5  1  0
  4 11  1  0
  5  6  1  1
  5  9  1  0
  6  7  2  0
  6  8  1  0
  9 10  1  0
 10 11  1  0
 11 12  1  6
 12 13  1  0
 13 14  1  0
 14 15  2  0
 14 16  2  0
 14 17  1  6
M  CHG  1  12   1
M  END
$$$$
