
     RDKit          3D

 17 17  0  0  0  0  0  0  0  0999 V2000
   11.9798   36.5885   44.4281 O   0  0  0  0  0  0  0  0  0  0  0  0
   11.0345   37.4328   44.3750 C   0  0  0  0  0  0  0  0  0  0  0  0
    9.8266   37.1934   45.0507 N   0  0  0  0  0  0  0  0  0  0  0  0
    8.6706   36.7338   44.3142 C   0  0  0  0  0  0  0  0  0  0  0  0
    9.7025   37.3941   46.4736 C   0  0  2  0  0  0  0  0  0  0  0  0
    9.8215   36.1118   47.2037 C   0  0  0  0  0  0  0  0  0  0  0  0
    9.4475   35.0288   46.6869 O   0  0  0  0  0  0  0  0  0  0  0  0
   10.3630   36.0778   48.5086 N   0  0  0  0  0  0  0  0  0  0  0  0
    8.3471   38.0001   46.7909 C   0  0  0  0  0  0  0  0  0  0  0  0
    7.7813   38.7020   45.5807 C   0  0  0  0  0  0  0  0  0  0  0  0
    7.6156   37.7992   44.3983 C   0  0  1  0  0  0  0  0  0  0  0  0
    7.6201   38.6153   43.1829 N   0  0  0  0  0  4  0  0  0  0  0  0
    6.7346   39.6026   43.3639 O   0  0  0  0  0  0  0  0  0  0  0  0
    6.8333   40.7970   42.2038 S   0  0  1  0  0  6  0  0  0  0  0  0
    7.9430   41.7686   42.4932 O   0  0  0  0  0  0  0  0  0  0  0  0
    7.1765   40.1295   40.8876 O   0  0  0  0  0  0  0  0  0  0  0  0
    5.3757   41.6095   42.0175 O   0  0  0  0  0  0  0  0  0  0  0  0
  1  2  2  0
  2  3  1  0
  3  4  1  0
  3  5  1  0
  4 11  1  0
  5  6  1  1
  5  9  1  0
  6  7  2  0
  6  8  1  0
  9 10  1  0
 10 11  1  0
 11 12  1  6
 12 13  1  0
 13 14  1  0
 14 15  2  0
 14 16  2  0
 14 17  1  6
M  CHG  1  12   1
M  END
$$$$
