
     RDKit          3D

 17 17  0  0  0  0  0  0  0  0999 V2000
   11.8016   37.8745   44.3144 O   0  0  0  0  0  0  0  0  0  0  0  0
   10.7443   37.4195   43.7811 C   0  0  0  0  0  0  0  0  0  0  0  0
    9.5573   37.3194   44.5252 N   0  0  0  0  0  0  0  0  0  0  0  0
    8.3681   36.7737   43.9103 C   0  0  0  0  0  0  0  0  0  0  0  0
    9.4872   37.7491   45.9002 C   0  0  2  0  0  0  0  0  0  0  0  0
    9.6101   36.5985   46.8236 C   0  0  0  0  0  0  0  0  0  0  0  0
    9.5564   35.4152   46.4034 O   0  0  0  0  0  0  0  0  0  0  0  0
    9.7918   36.8081   48.2093 N   0  0  0  0  0  0  0  0  0  0  0  0
    8.1547   38.4288   46.1591 C   0  0  0  0  0  0  0  0  0  0  0  0
    7.5584   38.9397   44.8703 C   0  0  0  0  0  0  0  0  0  0  0  0
    7.3353   37.8625   43.8553 C   0  0  1  0  0  0  0  0  0  0  0  0
    7.3106   38.4722   42.5245 N   0  0  0  0  0  4  0  0  0  0  0  0
    6.3010   39.3507   42.5085 O   0  0  0  0  0  0  0  0  0  0  0  0
    6.7916   40.9126   42.1891 S   0  0  1  0  0  6  0  0  0  0  0  0
    8.2094   41.1547   42.6257 O   0  0  0  0  0  0  0  0  0  0  0  0
    6.7646   41.1026   40.6862 O   0  0  0  0  0  0  0  0  0  0  0  0
    5.7630   42.0449   42.8813 O   0  0  0  0  0  0  0  0  0  0  0  0
  1  2  2  0
  2  3  1  0
  3  4  1  0
  3  5  1  0
  4 11  1  0
  5  6  1  1
  5  9  1  0
  6  7  2  0
  6  8  1  0
  9 10  1  0
 10 11  1  0
 11 12  1  6
 12 13  1  0
 13 14  1  0
 14 15  2  0
 14 16  2  0
 14 17  1  1
M  CHG  1  12   1
M  END
$$$$
