
     RDKit          3D

 17 17  0  0  0  0  0  0  0  0999 V2000
   12.0045   38.0255   44.7141 O   0  0  0  0  0  0  0  0  0  0  0  0
   11.0138   37.4330   44.1881 C   0  0  0  0  0  0  0  0  0  0  0  0
    9.8215   37.2604   44.9103 N   0  0  0  0  0  0  0  0  0  0  0  0
    8.5540   37.2627   44.2150 C   0  0  0  0  0  0  0  0  0  0  0  0
    9.8226   37.0786   46.3411 C   0  0  2  0  0  0  0  0  0  0  0  0
    9.6936   35.6470   46.6951 C   0  0  0  0  0  0  0  0  0  0  0  0
    9.4783   34.7739   45.8170 O   0  0  0  0  0  0  0  0  0  0  0  0
    9.8108   35.2280   48.0396 N   0  0  0  0  0  0  0  0  0  0  0  0
    8.6548   37.8294   46.9555 C   0  0  0  0  0  0  0  0  0  0  0  0
    8.1940   38.9377   46.0407 C   0  0  0  0  0  0  0  0  0  0  0  0
    7.7680   38.4504   44.6911 C   0  0  1  0  0  0  0  0  0  0  0  0
    7.8873   39.5541   43.7366 N   0  0  0  0  0  4  0  0  0  0  0  0
    6.6726   39.7603   43.2136 O   0  0  0  0  0  0  0  0  0  0  0  0
    6.6851   40.7968   41.9070 S   0  0  1  0  0  6  0  0  0  0  0  0
    5.4135   41.5924   41.8109 O   0  0  0  0  0  0  0  0  0  0  0  0
    7.8034   41.7956   42.1256 O   0  0  0  0  0  0  0  0  0  0  0  0
    6.9792   39.9844   40.4672 O   0  0  0  0  0  0  0  0  0  0  0  0
  1  2  2  0
  2  3  1  0
  3  4  1  0
  3  5  1  0
  4 11  1  0
  5  6  1  6
  5  9  1  0
  6  7  2  0
  6  8  1  0
  9 10  1  0
 10 11  1  0
 11 12  1  6
 12 13  1  0
 13 14  1  0
 14 15  2  0
 14 16  2  0
 14 17  1  6
M  CHG  1  12   1
M  END
$$$$
