
     RDKit          3D

 17 17  0  0  0  0  0  0  0  0999 V2000
    9.8739   39.4637   42.1253 O   0  0  0  0  0  0  0  0  0  0  0  0
    9.0963   38.5205   42.4645 C   0  0  0  0  0  0  0  0  0  0  0  0
    8.5898   38.4503   43.7727 N   0  0  0  0  0  0  0  0  0  0  0  0
    9.4794   38.6315   44.8978 C   0  0  0  0  0  0  0  0  0  0  0  0
    7.1931   38.2002   44.0314 C   0  0  2  0  0  0  0  0  0  0  0  0
    6.4724   39.4603   44.3218 C   0  0  0  0  0  0  0  0  0  0  0  0
    6.9812   40.3513   45.0478 O   0  0  0  0  0  0  0  0  0  0  0  0
    5.1859   39.6902   43.7843 N   0  0  0  0  0  0  0  0  0  0  0  0
    7.0491   37.2806   45.2307 C   0  0  0  0  0  0  0  0  0  0  0  0
    8.3131   36.4849   45.4462 C   0  0  0  0  0  0  0  0  0  0  0  0
    9.5200   37.3423   45.6669 C   0  0  1  0  0  0  0  0  0  0  0  0
   10.7122   36.5730   45.3060 N   0  0  0  0  0  4  0  0  0  0  0  0
   11.0965   35.9002   46.3973 O   0  0  0  0  0  0  0  0  0  0  0  0
   12.2758   36.6876   47.2756 S   0  0  1  0  0  6  0  0  0  0  0  0
   13.2857   35.7293   47.8424 O   0  0  0  0  0  0  0  0  0  0  0  0
   13.0283   37.5935   46.3223 O   0  0  0  0  0  0  0  0  0  0  0  0
   11.6184   37.6365   48.4949 O   0  0  0  0  0  0  0  0  0  0  0  0
  1  2  2  0
  2  3  1  0
  3  4  1  0
  3  5  1  0
  4 11  1  0
  5  6  1  1
  5  9  1  0
  6  7  2  0
  6  8  1  0
  9 10  1  0
 10 11  1  0
 11 12  1  6
 12 13  1  0
 13 14  1  0
 14 15  2  0
 14 16  2  0
 14 17  1  1
M  CHG  1  12   1
M  END
$$$$
