
     RDKit          3D

 17 17  0  0  0  0  0  0  0  0999 V2000
   35.2586   62.8700   49.3775 O   0  0  0  0  0  0  0  0  0  0  0  0
   35.9452   61.9053   48.9222 C   0  0  0  0  0  0  0  0  0  0  0  0
   37.0271   61.3919   49.6562 N   0  0  0  0  0  0  0  0  0  0  0  0
   37.9251   60.4404   49.0412 C   0  0  0  0  0  0  0  0  0  0  0  0
   37.2728   61.7895   51.0206 C   0  0  2  0  0  0  0  0  0  0  0  0
   38.3253   62.8282   51.0903 C   0  0  0  0  0  0  0  0  0  0  0  0
   38.9422   63.2030   50.0613 O   0  0  0  0  0  0  0  0  0  0  0  0
   38.6618   63.4256   52.3260 N   0  0  0  0  0  0  0  0  0  0  0  0
   37.7313   60.5902   51.8309 C   0  0  0  0  0  0  0  0  0  0  0  0
   37.2843   59.3048   51.1786 C   0  0  0  0  0  0  0  0  0  0  0  0
   37.7997   59.1407   49.7830 C   0  0  1  0  0  0  0  0  0  0  0  0
   36.9115   58.2277   49.0612 N   0  0  0  0  0  4  0  0  0  0  0  0
   37.2794   56.9808   49.3796 O   0  0  0  0  0  0  0  0  0  0  0  0
   36.3622   55.8101   48.6243 S   0  0  1  0  0  6  0  0  0  0  0  0
   36.3598   55.9777   47.1306 O   0  0  0  0  0  0  0  0  0  0  0  0
   37.0086   54.4692   48.9070 O   0  0  0  0  0  0  0  0  0  0  0  0
   34.7902   55.7711   49.2130 O   0  0  0  0  0  0  0  0  0  0  0  0
  1  2  2  0
  2  3  1  0
  3  4  1  0
  3  5  1  0
  4 11  1  0
  5  6  1  6
  5  9  1  0
  6  7  2  0
  6  8  1  0
  9 10  1  0
 10 11  1  0
 11 12  1  6
 12 13  1  0
 13 14  1  0
 14 15  2  0
 14 16  2  0
 14 17  1  1
M  CHG  1  12   1
M  END
$$$$
