
     RDKit          3D

 24 26  0  0  0  0  0  0  0  0999 V2000
  104.7050   63.9388   46.3294 N   0  0  0  0  0  0  0  0  0  0  0  0
  105.6073   63.4649   47.3184 C   0  0  0  0  0  0  0  0  0  0  0  0
  106.6901   64.2463   47.6263 N   0  0  0  0  0  0  0  0  0  0  0  0
  107.5599   63.7970   48.5735 C   0  0  0  0  0  0  0  0  0  0  0  0
  107.4273   62.6468   49.2209 N   0  0  0  0  0  0  0  0  0  0  0  0
  105.4769   62.2829   47.9896 C   0  0  0  0  0  0  0  0  0  0  0  0
  106.3717   61.8284   48.9595 C   0  0  0  0  0  0  0  0  0  0  0  0
  104.5329   61.3275   47.9044 N   0  0  0  0  0  0  0  0  0  0  0  0
  104.7972   60.3173   48.7653 C   0  0  0  0  0  0  0  0  0  0  0  0
  105.9768   60.6160   49.4576 C   0  0  0  0  0  0  0  0  0  0  0  0
  106.6060   59.7777   50.4966 C   0  0  0  0  0  0  0  0  0  0  0  0
  106.2624   60.1441   51.8292 N   0  0  1  0  0  4  0  0  0  0  0  0
  106.8144   61.4060   52.2821 C   0  0  0  0  0  0  0  0  0  0  0  0
  106.1650   61.5311   53.6762 C   0  0  2  0  0  0  0  0  0  0  0  0
  106.8785   60.6169   54.4764 O   0  0  0  0  0  0  0  0  0  0  0  0
  104.8401   60.3870   51.9949 C   0  0  0  0  0  0  0  0  0  0  0  0
  104.8128   60.9723   53.4134 C   0  0  2  0  0  0  0  0  0  0  0  0
  103.7163   62.0726   53.3634 C   0  0  0  0  0  0  0  0  0  0  0  0
  103.6390   62.7836   54.9581 S   0  0  0  0  0  0  0  0  0  0  0  0
  102.4132   62.5495   56.1151 C   0  0  0  0  0  0  0  0  0  0  0  0
  101.2694   61.6563   55.9012 C   0  0  0  0  0  0  0  0  0  0  0  0
  100.2233   61.5138   56.8925 C   0  0  0  0  0  0  0  0  0  0  0  0
   99.1287   60.6536   56.7243 C   0  0  0  0  0  0  0  0  0  0  0  0
   98.2020   59.9090   56.5674 C   0  0  0  0  0  0  0  0  0  0  0  0
  1  2  1  0
  2  3  2  0
  2  6  1  0
  3  4  1  0
  4  5  2  0
  5  7  1  0
  6  7  2  0
  6  8  1  0
  7 10  1  0
  8  9  1  0
  9 10  2  0
 10 11  1  0
 12 11  1  6
 12 13  1  0
 12 16  1  0
 13 14  1  0
 14 15  1  1
 14 17  1  0
 16 17  1  0
 17 18  1  6
 18 19  1  0
 19 20  1  0
 20 21  1  0
 21 22  1  0
 22 23  1  0
 23 24  3  0
M  CHG  1  12   1
M  END
$$$$
