
     RDKit          3D

 24 26  0  0  0  0  0  0  0  0999 V2000
  105.6223   64.6212   46.5143 N   0  0  0  0  0  0  0  0  0  0  0  0
  105.3148   63.3901   47.1519 C   0  0  0  0  0  0  0  0  0  0  0  0
  104.1273   62.7832   46.8366 N   0  0  0  0  0  0  0  0  0  0  0  0
  103.8260   61.6025   47.4453 C   0  0  0  0  0  0  0  0  0  0  0  0
  104.6104   60.9980   48.3279 N   0  0  0  0  0  0  0  0  0  0  0  0
  106.1174   62.7615   48.0604 C   0  0  0  0  0  0  0  0  0  0  0  0
  105.8029   61.5512   48.6803 C   0  0  0  0  0  0  0  0  0  0  0  0
  107.3203   63.1091   48.5539 N   0  0  0  0  0  0  0  0  0  0  0  0
  107.7595   62.1828   49.4373 C   0  0  0  0  0  0  0  0  0  0  0  0
  106.8001   61.1681   49.5364 C   0  0  0  0  0  0  0  0  0  0  0  0
  106.8986   59.9643   50.3844 C   0  0  0  0  0  0  0  0  0  0  0  0
  106.3501   60.1231   51.6891 N   0  0  1  0  0  4  0  0  0  0  0  0
  107.1395   60.9360   52.5936 C   0  0  0  0  0  0  0  0  0  0  0  0
  106.2188   60.9831   53.8309 C   0  0  2  0  0  0  0  0  0  0  0  0
  106.3564   59.7091   54.4166 O   0  0  0  0  0  0  0  0  0  0  0  0
  105.0938   60.8518   51.6842 C   0  0  0  0  0  0  0  0  0  0  0  0
  104.8804   61.0648   53.1891 C   0  0  2  0  0  0  0  0  0  0  0  0
  104.2554   62.4834   53.3004 C   0  0  0  0  0  0  0  0  0  0  0  0
  102.5403   62.2630   53.5541 S   0  0  0  0  0  0  0  0  0  0  0  0
  101.7957   61.5973   54.9319 C   0  0  0  0  0  0  0  0  0  0  0  0
  100.5685   60.7959   54.8713 C   0  0  0  0  0  0  0  0  0  0  0  0
  100.0235   60.1541   56.0495 C   0  0  0  0  0  0  0  0  0  0  0  0
  100.6098   60.2695   57.3181 C   0  0  0  0  0  0  0  0  0  0  0  0
  101.0958   60.3762   58.4090 C   0  0  0  0  0  0  0  0  0  0  0  0
  1  2  1  0
  2  3  2  0
  2  6  1  0
  3  4  1  0
  4  5  2  0
  5  7  1  0
  6  7  2  0
  6  8  1  0
  7 10  1  0
  8  9  1  0
  9 10  2  0
 10 11  1  0
 12 11  1  6
 12 13  1  0
 12 16  1  0
 13 14  1  0
 14 15  1  6
 14 17  1  0
 16 17  1  0
 17 18  1  6
 18 19  1  0
 19 20  1  0
 20 21  1  0
 21 22  1  0
 22 23  1  0
 23 24  3  0
M  CHG  1  12   1
M  END
$$$$
