
     RDKit          3D

 24 26  0  0  0  0  0  0  0  0999 V2000
  106.5481   63.6272   45.9961 N   0  0  0  0  0  0  0  0  0  0  0  0
  106.1921   63.3800   47.3484 C   0  0  0  0  0  0  0  0  0  0  0  0
  106.4462   64.3629   48.2688 N   0  0  0  0  0  0  0  0  0  0  0  0
  106.1079   64.1317   49.5679 C   0  0  0  0  0  0  0  0  0  0  0  0
  105.5456   63.0118   50.0033 N   0  0  0  0  0  0  0  0  0  0  0  0
  105.6123   62.2305   47.8038 C   0  0  0  0  0  0  0  0  0  0  0  0
  105.2676   62.0000   49.1364 C   0  0  0  0  0  0  0  0  0  0  0  0
  105.2482   61.1140   47.1465 N   0  0  0  0  0  0  0  0  0  0  0  0
  104.7007   60.2159   47.9980 C   0  0  0  0  0  0  0  0  0  0  0  0
  104.7011   60.7629   49.2868 C   0  0  0  0  0  0  0  0  0  0  0  0
  104.1805   60.1102   50.5037 C   0  0  0  0  0  0  0  0  0  0  0  0
  105.1219   60.0261   51.5691 N   0  0  1  0  0  4  0  0  0  0  0  0
  106.4652   60.4603   51.2388 C   0  0  0  0  0  0  0  0  0  0  0  0
  107.1610   60.3432   52.6110 C   0  0  2  0  0  0  0  0  0  0  0  0
  107.3557   58.9589   52.7862 O   0  0  0  0  0  0  0  0  0  0  0  0
  104.8037   60.9183   52.6701 C   0  0  0  0  0  0  0  0  0  0  0  0
  106.0731   60.7853   53.5224 C   0  0  2  0  0  0  0  0  0  0  0  0
  106.3174   62.2119   54.0886 C   0  0  0  0  0  0  0  0  0  0  0  0
  105.9109   62.1591   55.7876 S   0  0  0  0  0  0  0  0  0  0  0  0
  104.7839   61.1222   56.5296 C   0  0  0  0  0  0  0  0  0  0  0  0
  105.0376   60.4444   57.8055 C   0  0  0  0  0  0  0  0  0  0  0  0
  104.1156   60.5516   58.9171 C   0  0  0  0  0  0  0  0  0  0  0  0
  102.8001   61.0150   58.7717 C   0  0  0  0  0  0  0  0  0  0  0  0
  101.6786   61.4148   58.6297 C   0  0  0  0  0  0  0  0  0  0  0  0
  1  2  1  0
  2  3  2  0
  2  6  1  0
  3  4  1  0
  4  5  2  0
  5  7  1  0
  6  7  2  0
  6  8  1  0
  7 10  1  0
  8  9  1  0
  9 10  2  0
 10 11  1  0
 12 11  1  6
 12 13  1  0
 12 16  1  0
 13 14  1  0
 14 15  1  1
 14 17  1  0
 16 17  1  0
 17 18  1  6
 18 19  1  0
 19 20  1  0
 20 21  1  0
 21 22  1  0
 22 23  1  0
 23 24  3  0
M  CHG  1  12   1
M  END
$$$$
