
     RDKit          3D

 24 26  0  0  0  0  0  0  0  0999 V2000
  104.8650   64.1503   46.5720 N   0  0  0  0  0  0  0  0  0  0  0  0
  105.8077   63.7314   47.5480 C   0  0  0  0  0  0  0  0  0  0  0  0
  106.8404   64.5805   47.8486 N   0  0  0  0  0  0  0  0  0  0  0  0
  107.7486   64.1843   48.7834 C   0  0  0  0  0  0  0  0  0  0  0  0
  107.6990   63.0246   49.4255 N   0  0  0  0  0  0  0  0  0  0  0  0
  105.7626   62.5400   48.2138 C   0  0  0  0  0  0  0  0  0  0  0  0
  106.6962   62.1401   49.1710 C   0  0  0  0  0  0  0  0  0  0  0  0
  104.8822   61.5252   48.1335 N   0  0  0  0  0  0  0  0  0  0  0  0
  105.2219   60.5301   48.9854 C   0  0  0  0  0  0  0  0  0  0  0  0
  106.3873   60.9019   49.6664 C   0  0  0  0  0  0  0  0  0  0  0  0
  107.0818   60.1013   50.6933 C   0  0  0  0  0  0  0  0  0  0  0  0
  106.6731   60.3833   52.0281 N   0  0  1  0  0  4  0  0  0  0  0  0
  106.9922   61.7163   52.5007 C   0  0  0  0  0  0  0  0  0  0  0  0
  106.3247   61.7060   53.8918 C   0  0  2  0  0  0  0  0  0  0  0  0
  107.1844   60.9209   54.6853 O   0  0  0  0  0  0  0  0  0  0  0  0
  105.2296   60.3696   52.1872 C   0  0  0  0  0  0  0  0  0  0  0  0
  105.0933   60.9215   53.6128 C   0  0  2  0  0  0  0  0  0  0  0  0
  103.8204   61.8122   53.5693 C   0  0  0  0  0  0  0  0  0  0  0  0
  102.5837   60.9731   54.4754 S   0  0  0  0  0  0  0  0  0  0  0  0
  101.3143   61.6839   55.3582 C   0  0  0  0  0  0  0  0  0  0  0  0
  101.5057   62.8260   56.2587 C   0  0  0  0  0  0  0  0  0  0  0  0
  101.3972   62.6845   57.6958 C   0  0  0  0  0  0  0  0  0  0  0  0
  100.7386   61.6073   58.3061 C   0  0  0  0  0  0  0  0  0  0  0  0
  100.1700   60.6804   58.8113 C   0  0  0  0  0  0  0  0  0  0  0  0
  1  2  1  0
  2  3  2  0
  2  6  1  0
  3  4  1  0
  4  5  2  0
  5  7  1  0
  6  7  2  0
  6  8  1  0
  7 10  1  0
  8  9  1  0
  9 10  2  0
 10 11  1  0
 12 11  1  6
 12 13  1  0
 12 16  1  0
 13 14  1  0
 14 15  1  1
 14 17  1  0
 16 17  1  0
 17 18  1  6
 18 19  1  0
 19 20  1  0
 20 21  1  0
 21 22  1  0
 22 23  1  0
 23 24  3  0
M  CHG  1  12   1
M  END
$$$$
