
     RDKit          3D

 24 26  0  0  0  0  0  0  0  0999 V2000
  104.5207   62.9955   45.7171 N   0  0  0  0  0  0  0  0  0  0  0  0
  105.5620   63.0322   46.6820 C   0  0  0  0  0  0  0  0  0  0  0  0
  106.6313   63.8546   46.4410 N   0  0  0  0  0  0  0  0  0  0  0  0
  107.6340   63.8939   47.3622 C   0  0  0  0  0  0  0  0  0  0  0  0
  107.6438   63.1847   48.4832 N   0  0  0  0  0  0  0  0  0  0  0  0
  105.5786   62.3061   47.8383 C   0  0  0  0  0  0  0  0  0  0  0  0
  106.6091   62.3512   48.7785 C   0  0  0  0  0  0  0  0  0  0  0  0
  104.6836   61.4333   48.3367 N   0  0  0  0  0  0  0  0  0  0  0  0
  105.1055   60.9436   49.5257 C   0  0  0  0  0  0  0  0  0  0  0  0
  106.3438   61.5197   49.8332 C   0  0  0  0  0  0  0  0  0  0  0  0
  107.1401   61.2615   51.0486 C   0  0  0  0  0  0  0  0  0  0  0  0
  106.4175   60.6185   52.0940 N   0  0  1  0  0  4  0  0  0  0  0  0
  106.9808   60.7791   53.4203 C   0  0  0  0  0  0  0  0  0  0  0  0
  105.9141   60.0735   54.2835 C   0  0  2  0  0  0  0  0  0  0  0  0
  106.1343   58.7005   54.0565 O   0  0  0  0  0  0  0  0  0  0  0  0
  105.0911   61.1784   52.2852 C   0  0  0  0  0  0  0  0  0  0  0  0
  104.6667   60.4733   53.5807 C   0  0  2  0  0  0  0  0  0  0  0  0
  103.8617   61.5459   54.3662 C   0  0  0  0  0  0  0  0  0  0  0  0
  103.1334   60.7335   55.7315 S   0  0  0  0  0  0  0  0  0  0  0  0
  101.5659   60.0747   55.8024 C   0  0  0  0  0  0  0  0  0  0  0  0
  100.3496   60.8920   55.7372 C   0  0  0  0  0  0  0  0  0  0  0  0
   99.5584   61.1690   56.9181 C   0  0  0  0  0  0  0  0  0  0  0  0
   99.1492   60.1682   57.8110 C   0  0  0  0  0  0  0  0  0  0  0  0
   98.8165   59.3112   58.5809 C   0  0  0  0  0  0  0  0  0  0  0  0
  1  2  1  0
  2  3  2  0
  2  6  1  0
  3  4  1  0
  4  5  2  0
  5  7  1  0
  6  7  2  0
  6  8  1  0
  7 10  1  0
  8  9  1  0
  9 10  2  0
 10 11  1  0
 12 11  1  6
 12 13  1  0
 12 16  1  0
 13 14  1  0
 14 15  1  6
 14 17  1  0
 16 17  1  0
 17 18  1  1
 18 19  1  0
 19 20  1  0
 20 21  1  0
 21 22  1  0
 22 23  1  0
 23 24  3  0
M  CHG  1  12   1
M  END
$$$$
