
     RDKit          3D

 24 26  0  0  0  0  0  0  0  0999 V2000
  104.4843   63.8588   46.8187 N   0  0  0  0  0  0  0  0  0  0  0  0
  105.4774   63.4079   47.7281 C   0  0  0  0  0  0  0  0  0  0  0  0
  106.5439   64.2324   47.9743 N   0  0  0  0  0  0  0  0  0  0  0  0
  107.5005   63.8055   48.8450 C   0  0  0  0  0  0  0  0  0  0  0  0
  107.4678   62.6378   49.4736 N   0  0  0  0  0  0  0  0  0  0  0  0
  105.4501   62.2081   48.3796 C   0  0  0  0  0  0  0  0  0  0  0  0
  106.4335   61.7766   49.2710 C   0  0  0  0  0  0  0  0  0  0  0  0
  104.5462   61.2117   48.3414 N   0  0  0  0  0  0  0  0  0  0  0  0
  104.9183   60.1981   49.1572 C   0  0  0  0  0  0  0  0  0  0  0  0
  106.1313   60.5376   49.7684 C   0  0  0  0  0  0  0  0  0  0  0  0
  106.8724   59.7091   50.7392 C   0  0  0  0  0  0  0  0  0  0  0  0
  106.5598   59.9853   52.1009 N   0  0  1  0  0  4  0  0  0  0  0  0
  106.7631   61.3608   52.5120 C   0  0  0  0  0  0  0  0  0  0  0  0
  106.2340   61.3190   53.9608 C   0  0  2  0  0  0  0  0  0  0  0  0
  107.2501   60.6637   54.6843 O   0  0  0  0  0  0  0  0  0  0  0  0
  105.1489   59.8114   52.3986 C   0  0  0  0  0  0  0  0  0  0  0  0
  105.0824   60.3899   53.8186 C   0  0  2  0  0  0  0  0  0  0  0  0
  103.7154   61.1269   53.8790 C   0  0  0  0  0  0  0  0  0  0  0  0
  103.2575   61.2078   55.5637 S   0  0  0  0  0  0  0  0  0  0  0  0
  101.9626   62.0944   56.2218 C   0  0  0  0  0  0  0  0  0  0  0  0
  100.5736   61.6234   56.1956 C   0  0  0  0  0  0  0  0  0  0  0  0
   99.4788   62.4676   56.6266 C   0  0  0  0  0  0  0  0  0  0  0  0
   99.4459   63.8495   56.3907 C   0  0  0  0  0  0  0  0  0  0  0  0
   99.4332   65.0297   56.1790 C   0  0  0  0  0  0  0  0  0  0  0  0
  1  2  1  0
  2  3  2  0
  2  6  1  0
  3  4  1  0
  4  5  2  0
  5  7  1  0
  6  7  2  0
  6  8  1  0
  7 10  1  0
  8  9  1  0
  9 10  2  0
 10 11  1  0
 12 11  1  6
 12 13  1  0
 12 16  1  0
 13 14  1  0
 14 15  1  1
 14 17  1  0
 16 17  1  0
 17 18  1  6
 18 19  1  0
 19 20  1  0
 20 21  1  0
 21 22  1  0
 22 23  1  0
 23 24  3  0
M  CHG  1  12   1
M  END
$$$$
