
     RDKit          3D

 24 26  0  0  0  0  0  0  0  0999 V2000
  104.5809   63.5211   45.8792 N   0  0  0  0  0  0  0  0  0  0  0  0
  105.5282   63.3568   46.9243 C   0  0  0  0  0  0  0  0  0  0  0  0
  106.5214   64.2933   47.0432 N   0  0  0  0  0  0  0  0  0  0  0  0
  107.4338   64.1410   48.0432 C   0  0  0  0  0  0  0  0  0  0  0  0
  107.4243   63.1405   48.9142 N   0  0  0  0  0  0  0  0  0  0  0  0
  105.5242   62.3304   47.8251 C   0  0  0  0  0  0  0  0  0  0  0  0
  106.4620   62.1803   48.8478 C   0  0  0  0  0  0  0  0  0  0  0  0
  104.6874   61.2846   47.9567 N   0  0  0  0  0  0  0  0  0  0  0  0
  105.0575   60.5056   48.9996 C   0  0  0  0  0  0  0  0  0  0  0  0
  106.1983   61.0613   49.5910 C   0  0  0  0  0  0  0  0  0  0  0  0
  106.9129   60.5241   50.7652 C   0  0  0  0  0  0  0  0  0  0  0  0
  106.1982   60.6490   51.9907 N   0  0  1  0  0  4  0  0  0  0  0  0
  106.6297   61.7369   52.8465 C   0  0  0  0  0  0  0  0  0  0  0  0
  105.5972   61.6434   53.9893 C   0  0  2  0  0  0  0  0  0  0  0  0
  106.0085   60.5244   54.7401 O   0  0  0  0  0  0  0  0  0  0  0  0
  104.8001   60.9887   51.7922 C   0  0  0  0  0  0  0  0  0  0  0  0
  104.3683   61.2798   53.2360 C   0  0  2  0  0  0  0  0  0  0  0  0
  103.3732   62.4676   53.1165 C   0  0  0  0  0  0  0  0  0  0  0  0
  102.6240   62.6604   54.6837 S   0  0  0  0  0  0  0  0  0  0  0  0
  101.6929   61.5020   55.5127 C   0  0  0  0  0  0  0  0  0  0  0  0
  102.2585   60.5781   56.5018 C   0  0  0  0  0  0  0  0  0  0  0  0
  101.5849   60.3029   57.7539 C   0  0  0  0  0  0  0  0  0  0  0  0
  100.3587   60.8876   58.1021 C   0  0  0  0  0  0  0  0  0  0  0  0
   99.3031   61.3707   58.4020 C   0  0  0  0  0  0  0  0  0  0  0  0
  1  2  1  0
  2  3  2  0
  2  6  1  0
  3  4  1  0
  4  5  2  0
  5  7  1  0
  6  7  2  0
  6  8  1  0
  7 10  1  0
  8  9  1  0
  9 10  2  0
 10 11  1  0
 12 11  1  6
 12 13  1  0
 12 16  1  0
 13 14  1  0
 14 15  1  1
 14 17  1  0
 16 17  1  0
 17 18  1  6
 18 19  1  0
 19 20  1  0
 20 21  1  0
 21 22  1  0
 22 23  1  0
 23 24  3  0
M  CHG  1  12   1
M  END
$$$$
