
     RDKit          3D

 24 26  0  0  0  0  0  0  0  0999 V2000
  105.2588   64.2914   46.9461 N   0  0  0  0  0  0  0  0  0  0  0  0
  104.8625   63.3618   47.9437 C   0  0  0  0  0  0  0  0  0  0  0  0
  103.5899   63.4594   48.4425 N   0  0  0  0  0  0  0  0  0  0  0  0
  103.2038   62.5712   49.4004 C   0  0  0  0  0  0  0  0  0  0  0  0
  103.9825   61.6128   49.8849 N   0  0  0  0  0  0  0  0  0  0  0  0
  105.6579   62.3722   48.4465 C   0  0  0  0  0  0  0  0  0  0  0  0
  105.2560   61.4649   49.4279 C   0  0  0  0  0  0  0  0  0  0  0  0
  106.9277   62.0361   48.1534 N   0  0  0  0  0  0  0  0  0  0  0  0
  107.3247   60.9770   48.8963 C   0  0  0  0  0  0  0  0  0  0  0  0
  106.2654   60.5894   49.7257 C   0  0  0  0  0  0  0  0  0  0  0  0
  106.2828   59.4670   50.6837 C   0  0  0  0  0  0  0  0  0  0  0  0
  106.4506   59.8616   52.0418 N   0  0  1  0  0  4  0  0  0  0  0  0
  107.4106   60.9262   52.2591 C   0  0  0  0  0  0  0  0  0  0  0  0
  107.2538   61.1626   53.7758 C   0  0  2  0  0  0  0  0  0  0  0  0
  107.9169   60.0704   54.3693 O   0  0  0  0  0  0  0  0  0  0  0  0
  105.2493   60.4503   52.6072 C   0  0  0  0  0  0  0  0  0  0  0  0
  105.7891   60.9735   53.9452 C   0  0  2  0  0  0  0  0  0  0  0  0
  105.0406   62.3164   54.1727 C   0  0  0  0  0  0  0  0  0  0  0  0
  104.2335   62.1911   55.7179 S   0  0  0  0  0  0  0  0  0  0  0  0
  102.5563   62.2669   55.9957 C   0  0  0  0  0  0  0  0  0  0  0  0
  101.6965   61.0791   56.0373 C   0  0  0  0  0  0  0  0  0  0  0  0
  100.6168   60.8916   55.0906 C   0  0  0  0  0  0  0  0  0  0  0  0
   99.6661   61.8849   54.8152 C   0  0  0  0  0  0  0  0  0  0  0  0
   98.8485   62.7346   54.5975 C   0  0  0  0  0  0  0  0  0  0  0  0
  1  2  1  0
  2  3  2  0
  2  6  1  0
  3  4  1  0
  4  5  2  0
  5  7  1  0
  6  7  2  0
  6  8  1  0
  7 10  1  0
  8  9  1  0
  9 10  2  0
 10 11  1  0
 12 11  1  6
 12 13  1  0
 12 16  1  0
 13 14  1  0
 14 15  1  1
 14 17  1  0
 16 17  1  0
 17 18  1  6
 18 19  1  0
 19 20  1  0
 20 21  1  0
 21 22  1  0
 22 23  1  0
 23 24  3  0
M  CHG  1  12   1
M  END
$$$$
