
     RDKit          3D

 24 26  0  0  0  0  0  0  0  0999 V2000
  105.0337   63.8446   46.2769 N   0  0  0  0  0  0  0  0  0  0  0  0
  105.8408   63.4025   47.3585 C   0  0  0  0  0  0  0  0  0  0  0  0
  106.9148   64.1751   47.7153 N   0  0  0  0  0  0  0  0  0  0  0  0
  107.6936   63.7563   48.7515 C   0  0  0  0  0  0  0  0  0  0  0  0
  107.4798   62.6437   49.4416 N   0  0  0  0  0  0  0  0  0  0  0  0
  105.6265   62.2594   48.0741 C   0  0  0  0  0  0  0  0  0  0  0  0
  106.4281   61.8359   49.1352 C   0  0  0  0  0  0  0  0  0  0  0  0
  104.6683   61.3214   47.9589 N   0  0  0  0  0  0  0  0  0  0  0  0
  104.8363   60.3510   48.8871 C   0  0  0  0  0  0  0  0  0  0  0  0
  105.9634   60.6593   49.6582 C   0  0  0  0  0  0  0  0  0  0  0  0
  106.4850   59.8618   50.7852 C   0  0  0  0  0  0  0  0  0  0  0  0
  106.1056   60.3479   52.0690 N   0  0  1  0  0  4  0  0  0  0  0  0
  106.6788   61.6280   52.4363 C   0  0  0  0  0  0  0  0  0  0  0  0
  105.9844   61.8869   53.7897 C   0  0  2  0  0  0  0  0  0  0  0  0
  106.6413   61.0243   54.6893 O   0  0  0  0  0  0  0  0  0  0  0  0
  104.6862   60.6419   52.1600 C   0  0  0  0  0  0  0  0  0  0  0  0
  104.6262   61.3446   53.5232 C   0  0  2  0  0  0  0  0  0  0  0  0
  103.5657   62.4660   53.3407 C   0  0  0  0  0  0  0  0  0  0  0  0
  102.6467   62.5406   54.8255 S   0  0  0  0  0  0  0  0  0  0  0  0
  102.8942   61.5978   56.2204 C   0  0  0  0  0  0  0  0  0  0  0  0
  101.8035   61.1737   57.1048 C   0  0  0  0  0  0  0  0  0  0  0  0
  101.0648   59.9514   56.8649 C   0  0  0  0  0  0  0  0  0  0  0  0
  100.3174   59.7312   55.6990 C   0  0  0  0  0  0  0  0  0  0  0  0
   99.6808   59.5248   54.7040 C   0  0  0  0  0  0  0  0  0  0  0  0
  1  2  1  0
  2  3  2  0
  2  6  1  0
  3  4  1  0
  4  5  2  0
  5  7  1  0
  6  7  2  0
  6  8  1  0
  7 10  1  0
  8  9  1  0
  9 10  2  0
 10 11  1  0
 12 11  1  6
 12 13  1  0
 12 16  1  0
 13 14  1  0
 14 15  1  1
 14 17  1  0
 16 17  1  0
 17 18  1  6
 18 19  1  0
 19 20  1  0
 20 21  1  0
 21 22  1  0
 22 23  1  0
 23 24  3  0
M  CHG  1  12   1
M  END
$$$$
