
     RDKit          3D

 24 26  0  0  0  0  0  0  0  0999 V2000
  124.8721   87.9745   46.2703 N   0  0  0  0  0  0  0  0  0  0  0  0
  123.9840   87.4268   47.2335 C   0  0  0  0  0  0  0  0  0  0  0  0
  124.0607   86.0821   47.4857 N   0  0  0  0  0  0  0  0  0  0  0  0
  123.2109   85.5503   48.4081 C   0  0  0  0  0  0  0  0  0  0  0  0
  122.3091   86.2521   49.0818 N   0  0  0  0  0  0  0  0  0  0  0  0
  123.0540   88.1428   47.9316 C   0  0  0  0  0  0  0  0  0  0  0  0
  122.1863   87.5918   48.8758 C   0  0  0  0  0  0  0  0  0  0  0  0
  122.7550   89.4546   47.9001 N   0  0  0  0  0  0  0  0  0  0  0  0
  121.7573   89.7377   48.7696 C   0  0  0  0  0  0  0  0  0  0  0  0
  121.3733   88.5542   49.4114 C   0  0  0  0  0  0  0  0  0  0  0  0
  120.3241   88.4301   50.4418 C   0  0  0  0  0  0  0  0  0  0  0  0
  120.7930   88.6013   51.7757 N   0  0  1  0  0  4  0  0  0  0  0  0
  121.7087   87.5785   52.2420 C   0  0  0  0  0  0  0  0  0  0  0  0
  122.0849   88.1287   53.6336 C   0  0  2  0  0  0  0  0  0  0  0  0
  120.9526   87.8665   54.4299 O   0  0  0  0  0  0  0  0  0  0  0  0
  121.6043   89.7953   51.9358 C   0  0  0  0  0  0  0  0  0  0  0  0
  122.1403   89.5886   53.3590 C   0  0  2  0  0  0  0  0  0  0  0  0
  123.5971   90.1280   53.3125 C   0  0  0  0  0  0  0  0  0  0  0  0
  124.2387   89.9949   54.9326 S   0  0  0  0  0  0  0  0  0  0  0  0
  124.2119   91.1972   56.1367 C   0  0  0  0  0  0  0  0  0  0  0  0
  124.7414   92.5496   55.9306 C   0  0  0  0  0  0  0  0  0  0  0  0
  124.8036   93.5119   57.0109 C   0  0  0  0  0  0  0  0  0  0  0  0
  123.7655   93.6821   57.9382 C   0  0  0  0  0  0  0  0  0  0  0  0
  122.8848   93.8139   58.7411 C   0  0  0  0  0  0  0  0  0  0  0  0
  1  2  1  0
  2  3  2  0
  2  6  1  0
  3  4  1  0
  4  5  2  0
  5  7  1  0
  6  7  2  0
  6  8  1  0
  7 10  1  0
  8  9  1  0
  9 10  2  0
 10 11  1  0
 12 11  1  6
 12 13  1  0
 12 16  1  0
 13 14  1  0
 14 15  1  1
 14 17  1  0
 16 17  1  0
 17 18  1  6
 18 19  1  0
 19 20  1  0
 20 21  1  0
 21 22  1  0
 22 23  1  0
 23 24  3  0
M  CHG  1  12   1
M  END
$$$$
