
     RDKit          3D

 24 26  0  0  0  0  0  0  0  0999 V2000
  104.7672   63.8626   46.6230 N   0  0  0  0  0  0  0  0  0  0  0  0
  105.6710   63.3636   47.5981 C   0  0  0  0  0  0  0  0  0  0  0  0
  106.7338   64.1531   47.9515 N   0  0  0  0  0  0  0  0  0  0  0  0
  107.6049   63.6800   48.8858 C   0  0  0  0  0  0  0  0  0  0  0  0
  107.4918   62.4989   49.4791 N   0  0  0  0  0  0  0  0  0  0  0  0
  105.5606   62.1497   48.2138 C   0  0  0  0  0  0  0  0  0  0  0  0
  106.4566   61.6709   49.1707 C   0  0  0  0  0  0  0  0  0  0  0  0
  104.6384   61.1792   48.0763 N   0  0  0  0  0  0  0  0  0  0  0  0
  104.9172   60.1368   48.8931 C   0  0  0  0  0  0  0  0  0  0  0  0
  106.0840   60.4289   49.6096 C   0  0  0  0  0  0  0  0  0  0  0  0
  106.7222   59.5578   50.6155 C   0  0  0  0  0  0  0  0  0  0  0  0
  106.4072   59.8944   51.9630 N   0  0  1  0  0  4  0  0  0  0  0  0
  107.0996   61.0565   52.4849 C   0  0  0  0  0  0  0  0  0  0  0  0
  106.4514   61.1872   53.8790 C   0  0  2  0  0  0  0  0  0  0  0  0
  107.0401   60.1547   54.6355 O   0  0  0  0  0  0  0  0  0  0  0  0
  105.0219   60.2970   52.1311 C   0  0  0  0  0  0  0  0  0  0  0  0
  105.0458   60.8084   53.5779 C   0  0  2  0  0  0  0  0  0  0  0  0
  104.0890   62.0332   53.5776 C   0  0  0  0  0  0  0  0  0  0  0  0
  103.9136   62.5394   55.2412 S   0  0  0  0  0  0  0  0  0  0  0  0
  103.0184   61.7488   56.4534 C   0  0  0  0  0  0  0  0  0  0  0  0
  101.5630   61.8753   56.5861 C   0  0  0  0  0  0  0  0  0  0  0  0
  100.6716   61.5583   55.4897 C   0  0  0  0  0  0  0  0  0  0  0  0
   99.6478   60.6056   55.5933 C   0  0  0  0  0  0  0  0  0  0  0  0
   98.7630   59.8025   55.6927 C   0  0  0  0  0  0  0  0  0  0  0  0
  1  2  1  0
  2  3  2  0
  2  6  1  0
  3  4  1  0
  4  5  2  0
  5  7  1  0
  6  7  2  0
  6  8  1  0
  7 10  1  0
  8  9  1  0
  9 10  2  0
 10 11  1  0
 12 11  1  6
 12 13  1  0
 12 16  1  0
 13 14  1  0
 14 15  1  1
 14 17  1  0
 16 17  1  0
 17 18  1  6
 18 19  1  0
 19 20  1  0
 20 21  1  0
 21 22  1  0
 22 23  1  0
 23 24  3  0
M  CHG  1  12   1
M  END
$$$$
