
     RDKit          3D

 24 26  0  0  0  0  0  0  0  0999 V2000
  104.7671   63.9503   46.1394 N   0  0  0  0  0  0  0  0  0  0  0  0
  105.6301   63.5516   47.1944 C   0  0  0  0  0  0  0  0  0  0  0  0
  106.6766   64.3765   47.5138 N   0  0  0  0  0  0  0  0  0  0  0  0
  107.5087   63.9993   48.5243 C   0  0  0  0  0  0  0  0  0  0  0  0
  107.3720   62.8802   49.2233 N   0  0  0  0  0  0  0  0  0  0  0  0
  105.4952   62.4020   47.9189 C   0  0  0  0  0  0  0  0  0  0  0  0
  106.3511   62.0214   48.9535 C   0  0  0  0  0  0  0  0  0  0  0  0
  104.5802   61.4183   47.8374 N   0  0  0  0  0  0  0  0  0  0  0  0
  104.8257   60.4605   48.7614 C   0  0  0  0  0  0  0  0  0  0  0  0
  105.9615   60.8256   49.4940 C   0  0  0  0  0  0  0  0  0  0  0  0
  106.5582   60.0582   50.6044 C   0  0  0  0  0  0  0  0  0  0  0  0
  106.0087   60.3594   51.8834 N   0  0  1  0  0  4  0  0  0  0  0  0
  106.2297   61.7163   52.3440 C   0  0  0  0  0  0  0  0  0  0  0  0
  105.4280   61.7167   53.6624 C   0  0  2  0  0  0  0  0  0  0  0  0
  106.2330   60.9880   54.5601 O   0  0  0  0  0  0  0  0  0  0  0  0
  104.5579   60.2925   51.9001 C   0  0  0  0  0  0  0  0  0  0  0  0
  104.2603   60.8766   53.2878 C   0  0  2  0  0  0  0  0  0  0  0  0
  102.9659   61.7144   53.0921 C   0  0  0  0  0  0  0  0  0  0  0  0
  102.3619   62.0937   54.6876 S   0  0  0  0  0  0  0  0  0  0  0  0
  101.4608   61.0667   55.7021 C   0  0  0  0  0  0  0  0  0  0  0  0
  100.6023   61.5610   56.7841 C   0  0  0  0  0  0  0  0  0  0  0  0
  100.7366   61.0732   58.1410 C   0  0  0  0  0  0  0  0  0  0  0  0
  101.7770   61.4716   58.9926 C   0  0  0  0  0  0  0  0  0  0  0  0
  102.6751   61.8204   59.7066 C   0  0  0  0  0  0  0  0  0  0  0  0
  1  2  1  0
  2  3  2  0
  2  6  1  0
  3  4  1  0
  4  5  2  0
  5  7  1  0
  6  7  2  0
  6  8  1  0
  7 10  1  0
  8  9  1  0
  9 10  2  0
 10 11  1  0
 12 11  1  6
 12 13  1  0
 12 16  1  0
 13 14  1  0
 14 15  1  1
 14 17  1  0
 16 17  1  0
 17 18  1  6
 18 19  1  0
 19 20  1  0
 20 21  1  0
 21 22  1  0
 22 23  1  0
 23 24  3  0
M  CHG  1  12   1
M  END
$$$$
