
     RDKit          3D

 24 26  0  0  0  0  0  0  0  0999 V2000
  104.7104   64.3017   46.2967 N   0  0  0  0  0  0  0  0  0  0  0  0
  105.5677   63.8369   47.3290 C   0  0  0  0  0  0  0  0  0  0  0  0
  106.5998   64.6490   47.7202 N   0  0  0  0  0  0  0  0  0  0  0  0
  107.4264   64.2087   48.7094 C   0  0  0  0  0  0  0  0  0  0  0  0
  107.2976   63.0392   49.3222 N   0  0  0  0  0  0  0  0  0  0  0  0
  105.4408   62.6352   47.9650 C   0  0  0  0  0  0  0  0  0  0  0  0
  106.2911   62.1899   48.9782 C   0  0  0  0  0  0  0  0  0  0  0  0
  104.5401   61.6488   47.8008 N   0  0  0  0  0  0  0  0  0  0  0  0
  104.7889   60.6284   48.6541 C   0  0  0  0  0  0  0  0  0  0  0  0
  105.9121   60.9525   49.4244 C   0  0  0  0  0  0  0  0  0  0  0  0
  106.5076   60.1126   50.4817 C   0  0  0  0  0  0  0  0  0  0  0  0
  106.1136   60.4707   51.8027 N   0  0  1  0  0  4  0  0  0  0  0  0
  106.6711   61.7153   52.2949 C   0  0  0  0  0  0  0  0  0  0  0  0
  105.9639   61.8379   53.6608 C   0  0  2  0  0  0  0  0  0  0  0  0
  106.6226   60.8996   54.4799 O   0  0  0  0  0  0  0  0  0  0  0  0
  104.6907   60.7417   51.9092 C   0  0  0  0  0  0  0  0  0  0  0  0
  104.6133   61.3109   53.3324 C   0  0  2  0  0  0  0  0  0  0  0  0
  103.5430   62.4347   53.2484 C   0  0  0  0  0  0  0  0  0  0  0  0
  103.1228   62.8578   54.8912 S   0  0  0  0  0  0  0  0  0  0  0  0
  102.0240   62.0392   55.9005 C   0  0  0  0  0  0  0  0  0  0  0  0
  101.8019   62.4023   57.3043 C   0  0  0  0  0  0  0  0  0  0  0  0
  101.8940   61.4203   58.3647 C   0  0  0  0  0  0  0  0  0  0  0  0
  101.0982   60.2664   58.4035 C   0  0  0  0  0  0  0  0  0  0  0  0
  100.4090   59.2853   58.4216 C   0  0  0  0  0  0  0  0  0  0  0  0
  1  2  1  0
  2  3  2  0
  2  6  1  0
  3  4  1  0
  4  5  2  0
  5  7  1  0
  6  7  2  0
  6  8  1  0
  7 10  1  0
  8  9  1  0
  9 10  2  0
 10 11  1  0
 12 11  1  6
 12 13  1  0
 12 16  1  0
 13 14  1  0
 14 15  1  1
 14 17  1  0
 16 17  1  0
 17 18  1  6
 18 19  1  0
 19 20  1  0
 20 21  1  0
 21 22  1  0
 22 23  1  0
 23 24  3  0
M  CHG  1  12   1
M  END
$$$$
