
     RDKit          3D

 24 26  0  0  0  0  0  0  0  0999 V2000
  104.8448   64.2251   46.1600 N   0  0  0  0  0  0  0  0  0  0  0  0
  105.6477   63.7308   47.2219 C   0  0  0  0  0  0  0  0  0  0  0  0
  106.6911   64.5076   47.6528 N   0  0  0  0  0  0  0  0  0  0  0  0
  107.4656   64.0387   48.6706 C   0  0  0  0  0  0  0  0  0  0  0  0
  107.2755   62.8735   49.2754 N   0  0  0  0  0  0  0  0  0  0  0  0
  105.4576   62.5332   47.8500 C   0  0  0  0  0  0  0  0  0  0  0  0
  106.2547   62.0587   48.8927 C   0  0  0  0  0  0  0  0  0  0  0  0
  104.5312   61.5776   47.6504 N   0  0  0  0  0  0  0  0  0  0  0  0
  104.7143   60.5484   48.5099 C   0  0  0  0  0  0  0  0  0  0  0  0
  105.8186   60.8340   49.3217 C   0  0  0  0  0  0  0  0  0  0  0  0
  106.3465   59.9735   50.3982 C   0  0  0  0  0  0  0  0  0  0  0  0
  106.0058   60.4066   51.7115 N   0  0  1  0  0  4  0  0  0  0  0  0
  106.7812   61.5252   52.2110 C   0  0  0  0  0  0  0  0  0  0  0  0
  106.0876   61.7867   53.5643 C   0  0  2  0  0  0  0  0  0  0  0  0
  106.5425   60.7446   54.3963 O   0  0  0  0  0  0  0  0  0  0  0  0
  104.6586   60.9432   51.7930 C   0  0  0  0  0  0  0  0  0  0  0  0
  104.6671   61.5239   53.2136 C   0  0  2  0  0  0  0  0  0  0  0  0
  103.8312   62.8300   53.1092 C   0  0  0  0  0  0  0  0  0  0  0  0
  102.9111   62.9623   54.5892 S   0  0  0  0  0  0  0  0  0  0  0  0
  102.9722   61.9035   55.9201 C   0  0  0  0  0  0  0  0  0  0  0  0
  102.0733   62.0142   57.0740 C   0  0  0  0  0  0  0  0  0  0  0  0
  100.9848   61.0814   57.2789 C   0  0  0  0  0  0  0  0  0  0  0  0
  101.1836   59.7673   57.7264 C   0  0  0  0  0  0  0  0  0  0  0  0
  101.3696   58.6432   58.0999 C   0  0  0  0  0  0  0  0  0  0  0  0
  1  2  1  0
  2  3  2  0
  2  6  1  0
  3  4  1  0
  4  5  2  0
  5  7  1  0
  6  7  2  0
  6  8  1  0
  7 10  1  0
  8  9  1  0
  9 10  2  0
 10 11  1  0
 12 11  1  6
 12 13  1  0
 12 16  1  0
 13 14  1  0
 14 15  1  1
 14 17  1  0
 16 17  1  0
 17 18  1  6
 18 19  1  0
 19 20  1  0
 20 21  1  0
 21 22  1  0
 22 23  1  0
 23 24  3  0
M  CHG  1  12   1
M  END
$$$$
