
     RDKit          3D

 24 26  0  0  0  0  0  0  0  0999 V2000
  105.2620   64.2088   46.3044 N   0  0  0  0  0  0  0  0  0  0  0  0
  105.1396   63.0352   47.0946 C   0  0  0  0  0  0  0  0  0  0  0  0
  104.0705   62.2112   46.8584 N   0  0  0  0  0  0  0  0  0  0  0  0
  103.9468   61.0842   47.6136 C   0  0  0  0  0  0  0  0  0  0  0  0
  104.7976   60.7299   48.5678 N   0  0  0  0  0  0  0  0  0  0  0  0
  106.0116   62.6635   48.0776 C   0  0  0  0  0  0  0  0  0  0  0  0
  105.8793   61.5070   48.8477 C   0  0  0  0  0  0  0  0  0  0  0  0
  107.1330   63.2588   48.5240 N   0  0  0  0  0  0  0  0  0  0  0  0
  107.6940   62.5344   49.5199 C   0  0  0  0  0  0  0  0  0  0  0  0
  106.9056   61.4001   49.7474 C   0  0  0  0  0  0  0  0  0  0  0  0
  107.1750   60.3449   50.7434 C   0  0  0  0  0  0  0  0  0  0  0  0
  106.3596   60.4205   51.9087 N   0  0  1  0  0  4  0  0  0  0  0  0
  106.5458   61.6120   52.7136 C   0  0  0  0  0  0  0  0  0  0  0  0
  105.4589   61.4154   53.7910 C   0  0  2  0  0  0  0  0  0  0  0  0
  105.9869   60.4245   54.6421 O   0  0  0  0  0  0  0  0  0  0  0  0
  104.9440   60.5131   51.5974 C   0  0  0  0  0  0  0  0  0  0  0  0
  104.3642   60.8115   52.9867 C   0  0  2  0  0  0  0  0  0  0  0  0
  103.2033   61.8103   52.7217 C   0  0  0  0  0  0  0  0  0  0  0  0
  102.6157   62.3300   54.2835 S   0  0  0  0  0  0  0  0  0  0  0  0
  101.7276   61.3969   55.3955 C   0  0  0  0  0  0  0  0  0  0  0  0
  100.2779   61.5297   55.5754 C   0  0  0  0  0  0  0  0  0  0  0  0
   99.6641   61.4286   56.8832 C   0  0  0  0  0  0  0  0  0  0  0  0
  100.3318   60.9007   57.9976 C   0  0  0  0  0  0  0  0  0  0  0  0
  100.8887   60.4546   58.9613 C   0  0  0  0  0  0  0  0  0  0  0  0
  1  2  1  0
  2  3  2  0
  2  6  1  0
  3  4  1  0
  4  5  2  0
  5  7  1  0
  6  7  2  0
  6  8  1  0
  7 10  1  0
  8  9  1  0
  9 10  2  0
 10 11  1  0
 12 11  1  6
 12 13  1  0
 12 16  1  0
 13 14  1  0
 14 15  1  1
 14 17  1  0
 16 17  1  0
 17 18  1  6
 18 19  1  0
 19 20  1  0
 20 21  1  0
 21 22  1  0
 22 23  1  0
 23 24  3  0
M  CHG  1  12   1
M  END
$$$$
