
     RDKit          3D

 24 26  0  0  0  0  0  0  0  0999 V2000
  104.1847   64.2529   46.7142 N   0  0  0  0  0  0  0  0  0  0  0  0
  105.2038   63.7912   47.5888 C   0  0  0  0  0  0  0  0  0  0  0  0
  106.2762   64.6135   47.8154 N   0  0  0  0  0  0  0  0  0  0  0  0
  107.2576   64.1762   48.6527 C   0  0  0  0  0  0  0  0  0  0  0  0
  107.2436   63.0003   49.2666 N   0  0  0  0  0  0  0  0  0  0  0  0
  105.1958   62.5829   48.2250 C   0  0  0  0  0  0  0  0  0  0  0  0
  106.2046   62.1408   49.0822 C   0  0  0  0  0  0  0  0  0  0  0  0
  104.2919   61.5861   48.1995 N   0  0  0  0  0  0  0  0  0  0  0  0
  104.6879   60.5623   48.9909 C   0  0  0  0  0  0  0  0  0  0  0  0
  105.9175   60.8950   49.5718 C   0  0  0  0  0  0  0  0  0  0  0  0
  106.6866   60.0546   50.5100 C   0  0  0  0  0  0  0  0  0  0  0  0
  106.6182   60.4820   51.8668 N   0  0  1  0  0  4  0  0  0  0  0  0
  106.6925   61.9164   52.0646 C   0  0  0  0  0  0  0  0  0  0  0  0
  106.4798   62.0174   53.5895 C   0  0  2  0  0  0  0  0  0  0  0  0
  107.7075   61.6008   54.1411 O   0  0  0  0  0  0  0  0  0  0  0  0
  105.3389   60.1815   52.4854 C   0  0  0  0  0  0  0  0  0  0  0  0
  105.4754   60.9440   53.8103 C   0  0  2  0  0  0  0  0  0  0  0  0
  104.0544   61.5098   54.0861 C   0  0  0  0  0  0  0  0  0  0  0  0
  103.7770   61.3667   55.8057 S   0  0  0  0  0  0  0  0  0  0  0  0
  102.2673   61.2823   56.5865 C   0  0  0  0  0  0  0  0  0  0  0  0
  101.6142   62.4458   57.1960 C   0  0  0  0  0  0  0  0  0  0  0  0
  100.9879   63.4724   56.3892 C   0  0  0  0  0  0  0  0  0  0  0  0
  100.0187   63.1890   55.4163 C   0  0  0  0  0  0  0  0  0  0  0  0
   99.2030   62.9468   54.5714 C   0  0  0  0  0  0  0  0  0  0  0  0
  1  2  1  0
  2  3  2  0
  2  6  1  0
  3  4  1  0
  4  5  2  0
  5  7  1  0
  6  7  2  0
  6  8  1  0
  7 10  1  0
  8  9  1  0
  9 10  2  0
 10 11  1  0
 12 11  1  6
 12 13  1  0
 12 16  1  0
 13 14  1  0
 14 15  1  1
 14 17  1  0
 16 17  1  0
 17 18  1  6
 18 19  1  0
 19 20  1  0
 20 21  1  0
 21 22  1  0
 22 23  1  0
 23 24  3  0
M  CHG  1  12   1
M  END
$$$$
