
     RDKit          3D

 24 26  0  0  0  0  0  0  0  0999 V2000
  124.7228   88.0315   46.1765 N   0  0  0  0  0  0  0  0  0  0  0  0
  123.9292   87.4479   47.1994 C   0  0  0  0  0  0  0  0  0  0  0  0
  124.1370   86.1267   47.4976 N   0  0  0  0  0  0  0  0  0  0  0  0
  123.3785   85.5606   48.4772 C   0  0  0  0  0  0  0  0  0  0  0  0
  122.4469   86.2074   49.1654 N   0  0  0  0  0  0  0  0  0  0  0  0
  122.9694   88.1074   47.9126 C   0  0  0  0  0  0  0  0  0  0  0  0
  122.1957   87.5215   48.9156 C   0  0  0  0  0  0  0  0  0  0  0  0
  122.5529   89.3854   47.8462 N   0  0  0  0  0  0  0  0  0  0  0  0
  121.5719   89.6152   48.7496 C   0  0  0  0  0  0  0  0  0  0  0  0
  121.3233   88.4299   49.4520 C   0  0  0  0  0  0  0  0  0  0  0  0
  120.3344   88.2565   50.5336 C   0  0  0  0  0  0  0  0  0  0  0  0
  120.8712   88.4050   51.8444 N   0  0  1  0  0  4  0  0  0  0  0  0
  121.8275   87.3882   52.2365 C   0  0  0  0  0  0  0  0  0  0  0  0
  122.2685   87.9126   53.6190 C   0  0  2  0  0  0  0  0  0  0  0  0
  121.1850   87.6116   54.4679 O   0  0  0  0  0  0  0  0  0  0  0  0
  121.6698   89.6093   51.9900 C   0  0  0  0  0  0  0  0  0  0  0  0
  122.2846   89.3792   53.3773 C   0  0  2  0  0  0  0  0  0  0  0  0
  123.7277   89.9457   53.2664 C   0  0  0  0  0  0  0  0  0  0  0  0
  123.8050   91.3435   54.3125 S   0  0  0  0  0  0  0  0  0  0  0  0
  123.6035   91.3588   56.0022 C   0  0  0  0  0  0  0  0  0  0  0  0
  124.7286   91.3603   56.9434 C   0  0  0  0  0  0  0  0  0  0  0  0
  124.9233   92.4388   57.8901 C   0  0  0  0  0  0  0  0  0  0  0  0
  123.8647   93.2068   58.3959 C   0  0  0  0  0  0  0  0  0  0  0  0
  122.9478   93.8499   58.8242 C   0  0  0  0  0  0  0  0  0  0  0  0
  1  2  1  0
  2  3  2  0
  2  6  1  0
  3  4  1  0
  4  5  2  0
  5  7  1  0
  6  7  2  0
  6  8  1  0
  7 10  1  0
  8  9  1  0
  9 10  2  0
 10 11  1  0
 12 11  1  6
 12 13  1  0
 12 16  1  0
 13 14  1  0
 14 15  1  1
 14 17  1  0
 16 17  1  0
 17 18  1  6
 18 19  1  0
 19 20  1  0
 20 21  1  0
 21 22  1  0
 22 23  1  0
 23 24  3  0
M  CHG  1  12   1
M  END
$$$$
