
     RDKit          3D

 24 26  0  0  0  0  0  0  0  0999 V2000
  125.1079   87.7621   46.3894 N   0  0  0  0  0  0  0  0  0  0  0  0
  124.2225   87.3495   47.4202 C   0  0  0  0  0  0  0  0  0  0  0  0
  124.2829   86.0445   47.8337 N   0  0  0  0  0  0  0  0  0  0  0  0
  123.4357   85.6421   48.8216 C   0  0  0  0  0  0  0  0  0  0  0  0
  122.5512   86.4344   49.4129 N   0  0  0  0  0  0  0  0  0  0  0  0
  123.3104   88.1593   48.0341 C   0  0  0  0  0  0  0  0  0  0  0  0
  122.4452   87.7409   49.0462 C   0  0  0  0  0  0  0  0  0  0  0  0
  123.0297   89.4620   47.8457 N   0  0  0  0  0  0  0  0  0  0  0  0
  122.0456   89.8642   48.6831 C   0  0  0  0  0  0  0  0  0  0  0  0
  121.6518   88.7737   49.4678 C   0  0  0  0  0  0  0  0  0  0  0  0
  120.6122   88.7921   50.5150 C   0  0  0  0  0  0  0  0  0  0  0  0
  121.1229   88.7876   51.8445 N   0  0  1  0  0  4  0  0  0  0  0  0
  121.7662   87.5539   52.2523 C   0  0  0  0  0  0  0  0  0  0  0  0
  122.2801   87.9368   53.6559 C   0  0  2  0  0  0  0  0  0  0  0  0
  121.1266   87.9247   54.4648 O   0  0  0  0  0  0  0  0  0  0  0  0
  122.2027   89.7403   52.0335 C   0  0  0  0  0  0  0  0  0  0  0  0
  122.6872   89.3495   53.4364 C   0  0  2  0  0  0  0  0  0  0  0  0
  124.2310   89.5195   53.3804 C   0  0  0  0  0  0  0  0  0  0  0  0
  124.7497   89.9703   54.9873 S   0  0  0  0  0  0  0  0  0  0  0  0
  124.7112   91.5306   55.6656 C   0  0  0  0  0  0  0  0  0  0  0  0
  124.4208   91.7820   57.0812 C   0  0  0  0  0  0  0  0  0  0  0  0
  123.0818   91.6464   57.6159 C   0  0  0  0  0  0  0  0  0  0  0  0
  122.5549   90.4195   58.0446 C   0  0  0  0  0  0  0  0  0  0  0  0
  122.1102   89.3627   58.3954 C   0  0  0  0  0  0  0  0  0  0  0  0
  1  2  1  0
  2  3  2  0
  2  6  1  0
  3  4  1  0
  4  5  2  0
  5  7  1  0
  6  7  2  0
  6  8  1  0
  7 10  1  0
  8  9  1  0
  9 10  2  0
 10 11  1  0
 12 11  1  6
 12 13  1  0
 12 16  1  0
 13 14  1  0
 14 15  1  1
 14 17  1  0
 16 17  1  0
 17 18  1  6
 18 19  1  0
 19 20  1  0
 20 21  1  0
 21 22  1  0
 22 23  1  0
 23 24  3  0
M  CHG  1  12   1
M  END
$$$$
