
     RDKit          3D

 24 26  0  0  0  0  0  0  0  0999 V2000
  104.9290   64.3447   46.4166 N   0  0  0  0  0  0  0  0  0  0  0  0
  104.8152   63.1462   47.1699 C   0  0  0  0  0  0  0  0  0  0  0  0
  103.7008   62.3720   46.9794 N   0  0  0  0  0  0  0  0  0  0  0  0
  103.5851   61.2215   47.6996 C   0  0  0  0  0  0  0  0  0  0  0  0
  104.4850   60.7989   48.5778 N   0  0  0  0  0  0  0  0  0  0  0  0
  105.7375   62.7043   48.0747 C   0  0  0  0  0  0  0  0  0  0  0  0
  105.6133   61.5241   48.8092 C   0  0  0  0  0  0  0  0  0  0  0  0
  106.9096   63.2401   48.4626 N   0  0  0  0  0  0  0  0  0  0  0  0
  107.5090   62.4568   49.3892 C   0  0  0  0  0  0  0  0  0  0  0  0
  106.6941   61.3442   49.6299 C   0  0  0  0  0  0  0  0  0  0  0  0
  106.9898   60.2414   50.5651 C   0  0  0  0  0  0  0  0  0  0  0  0
  106.3637   60.3718   51.8376 N   0  0  1  0  0  4  0  0  0  0  0  0
  106.9048   61.4160   52.6855 C   0  0  0  0  0  0  0  0  0  0  0  0
  105.9455   61.3459   53.8920 C   0  0  2  0  0  0  0  0  0  0  0  0
  106.3475   60.1902   54.5903 O   0  0  0  0  0  0  0  0  0  0  0  0
  104.9747   60.7847   51.7394 C   0  0  0  0  0  0  0  0  0  0  0  0
  104.6533   61.0617   53.2144 C   0  0  2  0  0  0  0  0  0  0  0  0
  103.7142   62.2997   53.1860 C   0  0  0  0  0  0  0  0  0  0  0  0
  102.8992   62.3528   54.7311 S   0  0  0  0  0  0  0  0  0  0  0  0
  101.7887   61.2121   55.3323 C   0  0  0  0  0  0  0  0  0  0  0  0
  100.8548   61.5020   56.4257 C   0  0  0  0  0  0  0  0  0  0  0  0
   99.4425   61.2010   56.3161 C   0  0  0  0  0  0  0  0  0  0  0  0
   98.5985   61.8386   55.3954 C   0  0  0  0  0  0  0  0  0  0  0  0
   97.8652   62.3695   54.6092 C   0  0  0  0  0  0  0  0  0  0  0  0
  1  2  1  0
  2  3  2  0
  2  6  1  0
  3  4  1  0
  4  5  2  0
  5  7  1  0
  6  7  2  0
  6  8  1  0
  7 10  1  0
  8  9  1  0
  9 10  2  0
 10 11  1  0
 12 11  1  6
 12 13  1  0
 12 16  1  0
 13 14  1  0
 14 15  1  1
 14 17  1  0
 16 17  1  0
 17 18  1  6
 18 19  1  0
 19 20  1  0
 20 21  1  0
 21 22  1  0
 22 23  1  0
 23 24  3  0
M  CHG  1  12   1
M  END
$$$$
