
     RDKit          3D

 24 26  0  0  0  0  0  0  0  0999 V2000
  124.7623   88.2495   46.4132 N   0  0  0  0  0  0  0  0  0  0  0  0
  123.9542   87.7275   47.4578 C   0  0  0  0  0  0  0  0  0  0  0  0
  124.0225   86.3825   47.7109 N   0  0  0  0  0  0  0  0  0  0  0  0
  123.2492   85.8754   48.7111 C   0  0  0  0  0  0  0  0  0  0  0  0
  122.4300   86.6015   49.4604 N   0  0  0  0  0  0  0  0  0  0  0  0
  123.1096   88.4687   48.2338 C   0  0  0  0  0  0  0  0  0  0  0  0
  122.3202   87.9429   49.2576 C   0  0  0  0  0  0  0  0  0  0  0  0
  122.8398   89.7871   48.2212 N   0  0  0  0  0  0  0  0  0  0  0  0
  121.9335   90.0979   49.1769 C   0  0  0  0  0  0  0  0  0  0  0  0
  121.5828   88.9269   49.8593 C   0  0  0  0  0  0  0  0  0  0  0  0
  120.6306   88.8326   50.9828 C   0  0  0  0  0  0  0  0  0  0  0  0
  121.2342   88.5228   52.2350 N   0  0  1  0  0  4  0  0  0  0  0  0
  122.3097   87.5522   52.1762 C   0  0  0  0  0  0  0  0  0  0  0  0
  122.7859   87.5473   53.6439 C   0  0  2  0  0  0  0  0  0  0  0  0
  121.7949   86.8171   54.3295 O   0  0  0  0  0  0  0  0  0  0  0  0
  121.9179   89.6606   52.8245 C   0  0  0  0  0  0  0  0  0  0  0  0
  122.6415   88.9841   53.9968 C   0  0  2  0  0  0  0  0  0  0  0  0
  124.0113   89.7128   54.0863 C   0  0  0  0  0  0  0  0  0  0  0  0
  123.6848   91.3394   54.6360 S   0  0  0  0  0  0  0  0  0  0  0  0
  123.1767   91.8015   56.1930 C   0  0  0  0  0  0  0  0  0  0  0  0
  123.8031   92.8907   56.9500 C   0  0  0  0  0  0  0  0  0  0  0  0
  123.9923   94.2047   56.3713 C   0  0  0  0  0  0  0  0  0  0  0  0
  124.3442   94.4004   55.0280 C   0  0  0  0  0  0  0  0  0  0  0  0
  124.6274   94.5717   53.8756 C   0  0  0  0  0  0  0  0  0  0  0  0
  1  2  1  0
  2  3  2  0
  2  6  1  0
  3  4  1  0
  4  5  2  0
  5  7  1  0
  6  7  2  0
  6  8  1  0
  7 10  1  0
  8  9  1  0
  9 10  2  0
 10 11  1  0
 12 11  1  6
 12 13  1  0
 12 16  1  0
 13 14  1  0
 14 15  1  1
 14 17  1  0
 16 17  1  0
 17 18  1  6
 18 19  1  0
 19 20  1  0
 20 21  1  0
 21 22  1  0
 22 23  1  0
 23 24  3  0
M  CHG  1  12   1
M  END
$$$$
