
     RDKit          3D

 17 19  0  0  0  0  0  0  0  0999 V2000
  -22.5968   20.2293  -11.6626 C   0  0  0  0  0  0  0  0  0  0  0  0
  -24.7768   20.5518  -11.4889 C   0  0  0  0  0  0  0  0  0  0  0  0
  -19.0956   18.0235  -13.3140 C   0  0  0  0  0  0  0  0  0  0  0  0
  -16.8380   17.1494  -13.9952 N   0  0  0  0  0  0  0  0  0  0  0  0
  -18.1481   17.0176  -13.4650 C   0  0  0  0  0  0  0  0  0  0  0  0
  -18.7490   15.9099  -13.0008 N   0  0  0  0  0  0  0  0  0  0  0  0
  -19.9773   16.1858  -12.5880 N   0  0  0  0  0  0  0  0  0  0  0  0
  -20.2453   17.4979  -12.7622 C   0  0  0  0  0  0  0  0  0  0  0  0
  -21.4643   18.2377  -12.4510 C   0  0  0  0  0  0  0  0  0  0  0  0
  -22.7089   17.6806  -12.6355 C   0  0  0  0  0  0  0  0  0  0  0  0
  -23.8958   18.3215  -12.3628 C   0  0  0  0  0  0  0  0  0  0  0  0
  -23.8151   19.6170  -11.8688 C   0  0  0  0  0  0  0  0  0  0  0  0
  -22.8290   21.4834  -11.1773 N   0  0  0  0  0  0  0  0  0  0  0  0
  -24.1512   21.6951  -11.0658 C   0  0  0  0  0  0  0  0  0  0  0  0
  -21.4425   19.5310  -11.9565 C   0  0  0  0  0  0  0  0  0  0  0  0
  -18.8711   19.3909  -13.6887 C   0  0  0  0  0  0  0  0  0  0  0  0
  -18.6758   20.4797  -13.9789 N   0  0  0  0  0  0  0  0  0  0  0  0
  1 12  2  0
  1 13  1  0
 15  1  1  0
 12  2  1  0
  2 14  2  0
  3  5  2  0
  8  3  1  0
  3 16  1  0
  5  4  1  0
  6  5  1  0
  7  6  1  0
  8  7  2  0
  9  8  1  0
  9 10  1  0
  9 15  2  0
 10 11  2  0
 11 12  1  0
 13 14  1  0
 16 17  3  0
M  END
$$$$
