
     RDKit          3D

 17 19  0  0  0  0  0  0  0  0999 V2000
  -11.8981    8.8192  -27.8405 C   0  0  0  0  0  0  0  0  0  0  0  0
  -12.5964    8.9828  -29.9315 C   0  0  0  0  0  0  0  0  0  0  0  0
  -13.4147   10.4625  -23.6204 C   0  0  0  0  0  0  0  0  0  0  0  0
  -13.6841   10.9473  -21.1674 N   0  0  0  0  0  0  0  0  0  0  0  0
  -12.9617   10.9218  -22.3890 C   0  0  0  0  0  0  0  0  0  0  0  0
  -11.7029   11.3294  -22.6185 N   0  0  0  0  0  0  0  0  0  0  0  0
  -11.3795   11.1456  -23.8901 N   0  0  0  0  0  0  0  0  0  0  0  0
  -12.4177   10.6043  -24.5630 C   0  0  0  0  0  0  0  0  0  0  0  0
  -12.5094   10.2354  -25.9721 C   0  0  0  0  0  0  0  0  0  0  0  0
  -13.3040   10.9388  -26.8480 C   0  0  0  0  0  0  0  0  0  0  0  0
  -13.4357   10.6450  -28.1859 C   0  0  0  0  0  0  0  0  0  0  0  0
  -12.7116    9.5629  -28.6692 C   0  0  0  0  0  0  0  0  0  0  0  0
  -11.3210    7.8328  -28.5863 N   0  0  0  0  0  0  0  0  0  0  0  0
  -11.7360    7.9188  -29.8614 C   0  0  0  0  0  0  0  0  0  0  0  0
  -11.8101    9.1667  -26.5072 C   0  0  0  0  0  0  0  0  0  0  0  0
  -14.7296    9.9285  -23.8359 C   0  0  0  0  0  0  0  0  0  0  0  0
  -15.7813    9.5178  -24.0178 N   0  0  0  0  0  0  0  0  0  0  0  0
  1 12  2  0
  1 13  1  0
 15  1  1  0
 12  2  1  0
  2 14  2  0
  3  5  2  0
  8  3  1  0
  3 16  1  0
  5  4  1  0
  6  5  1  0
  7  6  1  0
  8  7  2  0
  9  8  1  0
  9 10  1  0
  9 15  2  0
 10 11  2  0
 11 12  1  0
 13 14  1  0
 16 17  3  0
M  END
$$$$
