
     RDKit          3D

 17 19  0  0  0  0  0  0  0  0999 V2000
  -22.7661   20.4266  -11.0235 C   0  0  0  0  0  0  0  0  0  0  0  0
  -24.9535   20.6284  -11.2705 C   0  0  0  0  0  0  0  0  0  0  0  0
  -19.4792   17.5369  -13.0882 C   0  0  0  0  0  0  0  0  0  0  0  0
  -17.3378   16.3707  -13.7042 N   0  0  0  0  0  0  0  0  0  0  0  0
  -18.1226   17.5112  -13.3906 C   0  0  0  0  0  0  0  0  0  0  0  0
  -17.7323   18.7941  -13.3184 N   0  0  0  0  0  0  0  0  0  0  0  0
  -18.7542   19.5734  -12.9970 N   0  0  0  0  0  0  0  0  0  0  0  0
  -19.8742   18.8351  -12.8410 C   0  0  0  0  0  0  0  0  0  0  0  0
  -21.2223   19.2704  -12.4900 C   0  0  0  0  0  0  0  0  0  0  0  0
  -22.3056   18.9584  -13.2790 C   0  0  0  0  0  0  0  0  0  0  0  0
  -23.6005   19.3364  -13.0066 C   0  0  0  0  0  0  0  0  0  0  0  0
  -23.8115   20.0826  -11.8544 C   0  0  0  0  0  0  0  0  0  0  0  0
  -23.2715   21.1511   -9.9835 N   0  0  0  0  0  0  0  0  0  0  0  0
  -24.6019   21.2828  -10.1192 C   0  0  0  0  0  0  0  0  0  0  0  0
  -21.4901   20.0157  -11.3540 C   0  0  0  0  0  0  0  0  0  0  0  0
  -20.3082   16.3656  -13.0498 C   0  0  0  0  0  0  0  0  0  0  0  0
  -20.9543   15.4227  -13.0132 N   0  0  0  0  0  0  0  0  0  0  0  0
  1 12  2  0
  1 13  1  0
 15  1  1  0
 12  2  1  0
  2 14  2  0
  3  5  2  0
  8  3  1  0
  3 16  1  0
  5  4  1  0
  6  5  1  0
  7  6  1  0
  8  7  2  0
  9  8  1  0
  9 10  1  0
  9 15  2  0
 10 11  2  0
 11 12  1  0
 13 14  1  0
 16 17  3  0
M  END
$$$$
