
     RDKit          3D

 17 19  0  0  0  0  0  0  0  0999 V2000
  -22.6298   19.6615  -11.7684 C   0  0  0  0  0  0  0  0  0  0  0  0
  -24.8344   19.5877  -11.6240 C   0  0  0  0  0  0  0  0  0  0  0  0
  -18.7574   18.0548  -13.2723 C   0  0  0  0  0  0  0  0  0  0  0  0
  -16.3670   17.5761  -13.8902 N   0  0  0  0  0  0  0  0  0  0  0  0
  -17.6408   17.2321  -13.3668 C   0  0  0  0  0  0  0  0  0  0  0  0
  -18.0393   16.0555  -12.8567 N   0  0  0  0  0  0  0  0  0  0  0  0
  -19.3044   16.1216  -12.4691 N   0  0  0  0  0  0  0  0  0  0  0  0
  -19.8025   17.3540  -12.7073 C   0  0  0  0  0  0  0  0  0  0  0  0
  -21.1407   17.8730  -12.4428 C   0  0  0  0  0  0  0  0  0  0  0  0
  -22.2597   17.0885  -12.6038 C   0  0  0  0  0  0  0  0  0  0  0  0
  -23.5477   17.5144  -12.3723 C   0  0  0  0  0  0  0  0  0  0  0  0
  -23.7124   18.8265  -11.9481 C   0  0  0  0  0  0  0  0  0  0  0  0
  -23.0945   20.8752  -11.3524 N   0  0  0  0  0  0  0  0  0  0  0  0
  -24.4347   20.8465  -11.2595 C   0  0  0  0  0  0  0  0  0  0  0  0
  -21.3631   19.1722  -12.0183 C   0  0  0  0  0  0  0  0  0  0  0  0
  -18.7776   19.4221  -13.7088 C   0  0  0  0  0  0  0  0  0  0  0  0
  -18.8117   20.5097  -14.0605 N   0  0  0  0  0  0  0  0  0  0  0  0
  1 12  2  0
  1 13  1  0
 15  1  1  0
 12  2  1  0
  2 14  2  0
  3  5  2  0
  8  3  1  0
  3 16  1  0
  5  4  1  0
  6  5  1  0
  7  6  1  0
  8  7  2  0
  9  8  1  0
  9 10  1  0
  9 15  2  0
 10 11  2  0
 11 12  1  0
 13 14  1  0
 16 17  3  0
M  END
$$$$
