
     RDKit          3D

 17 19  0  0  0  0  0  0  0  0999 V2000
  -22.7265   19.6502  -11.9421 C   0  0  0  0  0  0  0  0  0  0  0  0
  -24.9309   19.6196  -11.7803 C   0  0  0  0  0  0  0  0  0  0  0  0
  -18.8887   17.9757  -13.4464 C   0  0  0  0  0  0  0  0  0  0  0  0
  -16.5092   17.4535  -14.0710 N   0  0  0  0  0  0  0  0  0  0  0  0
  -17.7926   17.1282  -13.5591 C   0  0  0  0  0  0  0  0  0  0  0  0
  -18.2214   15.9495  -13.0794 N   0  0  0  0  0  0  0  0  0  0  0  0
  -19.4855   16.0373  -12.6928 N   0  0  0  0  0  0  0  0  0  0  0  0
  -19.9524   17.2872  -12.9012 C   0  0  0  0  0  0  0  0  0  0  0  0
  -21.2780   17.8325  -12.6266 C   0  0  0  0  0  0  0  0  0  0  0  0
  -22.4133   17.0699  -12.7783 C   0  0  0  0  0  0  0  0  0  0  0  0
  -23.6909   17.5210  -12.5370 C   0  0  0  0  0  0  0  0  0  0  0  0
  -23.8266   18.8364  -12.1126 C   0  0  0  0  0  0  0  0  0  0  0  0
  -23.1641   20.8729  -11.5233 N   0  0  0  0  0  0  0  0  0  0  0  0
  -24.5038   20.8706  -11.4198 C   0  0  0  0  0  0  0  0  0  0  0  0
  -21.4716   19.1360  -12.2014 C   0  0  0  0  0  0  0  0  0  0  0  0
  -18.8739   19.3536  -13.8486 C   0  0  0  0  0  0  0  0  0  0  0  0
  -18.8704   20.4559  -14.1532 N   0  0  0  0  0  0  0  0  0  0  0  0
  1 12  2  0
  1 13  1  0
 15  1  1  0
 12  2  1  0
  2 14  2  0
  3  5  2  0
  8  3  1  0
  3 16  1  0
  5  4  1  0
  6  5  1  0
  7  6  1  0
  8  7  2  0
  9  8  1  0
  9 10  1  0
  9 15  2  0
 10 11  2  0
 11 12  1  0
 13 14  1  0
 16 17  3  0
M  END
$$$$
