
     RDKit          3D

 17 19  0  0  0  0  0  0  0  0999 V2000
  -23.1670   17.6525  -11.8951 C   0  0  0  0  0  0  0  0  0  0  0  0
  -24.7425   19.1990  -11.7830 C   0  0  0  0  0  0  0  0  0  0  0  0
  -18.7160   17.8649  -14.0054 C   0  0  0  0  0  0  0  0  0  0  0  0
  -16.4188   17.2729  -14.8405 N   0  0  0  0  0  0  0  0  0  0  0  0
  -17.5625   17.0892  -14.0200 C   0  0  0  0  0  0  0  0  0  0  0  0
  -17.7767   16.1411  -13.0934 N   0  0  0  0  0  0  0  0  0  0  0  0
  -18.9674   16.2985  -12.5341 N   0  0  0  0  0  0  0  0  0  0  0  0
  -19.5982   17.3655  -13.0700 C   0  0  0  0  0  0  0  0  0  0  0  0
  -20.9179   17.9061  -12.7599 C   0  0  0  0  0  0  0  0  0  0  0  0
  -21.2361   19.2186  -13.0237 C   0  0  0  0  0  0  0  0  0  0  0  0
  -22.4588   19.7910  -12.7569 C   0  0  0  0  0  0  0  0  0  0  0  0
  -23.4259   18.9760  -12.1829 C   0  0  0  0  0  0  0  0  0  0  0  0
  -24.2914   17.1103  -11.3439 N   0  0  0  0  0  0  0  0  0  0  0  0
  -25.2596   18.0390  -11.2688 C   0  0  0  0  0  0  0  0  0  0  0  0
  -21.9190   17.1394  -12.1878 C   0  0  0  0  0  0  0  0  0  0  0  0
  -18.9186   19.0057  -14.8528 C   0  0  0  0  0  0  0  0  0  0  0  0
  -19.0851   19.9033  -15.5415 N   0  0  0  0  0  0  0  0  0  0  0  0
  1 12  2  0
  1 13  1  0
 15  1  1  0
 12  2  1  0
  2 14  2  0
  3  5  2  0
  8  3  1  0
  3 16  1  0
  5  4  1  0
  6  5  1  0
  7  6  1  0
  8  7  2  0
  9  8  1  0
  9 10  1  0
  9 15  2  0
 10 11  2  0
 11 12  1  0
 13 14  1  0
 16 17  3  0
M  END
$$$$
