
     RDKit          3D

 17 19  0  0  0  0  0  0  0  0999 V2000
  -11.7635    9.5073  -27.5405 C   0  0  0  0  0  0  0  0  0  0  0  0
  -12.5027   10.0040  -29.5637 C   0  0  0  0  0  0  0  0  0  0  0  0
  -13.5909   10.3932  -23.1171 C   0  0  0  0  0  0  0  0  0  0  0  0
  -13.9542   10.4717  -20.6299 N   0  0  0  0  0  0  0  0  0  0  0  0
  -13.1534   10.4945  -21.8016 C   0  0  0  0  0  0  0  0  0  0  0  0
  -11.8192   10.6171  -21.8938 N   0  0  0  0  0  0  0  0  0  0  0  0
  -11.4372   10.5958  -23.1622 N   0  0  0  0  0  0  0  0  0  0  0  0
  -12.5096   10.4572  -23.9711 C   0  0  0  0  0  0  0  0  0  0  0  0
  -12.5607   10.3862  -25.4280 C   0  0  0  0  0  0  0  0  0  0  0  0
  -13.4626   11.1319  -26.1518 C   0  0  0  0  0  0  0  0  0  0  0  0
  -13.5638   11.1123  -27.5241 C   0  0  0  0  0  0  0  0  0  0  0  0
  -12.6898   10.2789  -28.2100 C   0  0  0  0  0  0  0  0  0  0  0  0
  -11.0524    8.7999  -28.4657 N   0  0  0  0  0  0  0  0  0  0  0  0
  -11.4903    9.0911  -29.7022 C   0  0  0  0  0  0  0  0  0  0  0  0
  -11.7138    9.5731  -26.1623 C   0  0  0  0  0  0  0  0  0  0  0  0
  -14.9697   10.2454  -23.4881 C   0  0  0  0  0  0  0  0  0  0  0  0
  -16.0661   10.1410  -23.7961 N   0  0  0  0  0  0  0  0  0  0  0  0
  1 12  2  0
  1 13  1  0
 15  1  1  0
 12  2  1  0
  2 14  2  0
  3  5  2  0
  8  3  1  0
  3 16  1  0
  5  4  1  0
  6  5  1  0
  7  6  1  0
  8  7  2  0
  9  8  1  0
  9 10  1  0
  9 15  2  0
 10 11  2  0
 11 12  1  0
 13 14  1  0
 16 17  3  0
M  END
$$$$
