
     RDKit          3D

 17 19  0  0  0  0  0  0  0  0999 V2000
  -22.5970   19.9562  -11.4275 C   0  0  0  0  0  0  0  0  0  0  0  0
  -24.7667   20.3460  -11.5920 C   0  0  0  0  0  0  0  0  0  0  0  0
  -19.0079   17.9329  -13.3928 C   0  0  0  0  0  0  0  0  0  0  0  0
  -16.7284   17.0894  -14.0386 N   0  0  0  0  0  0  0  0  0  0  0  0
  -18.0029   16.9730  -13.4246 C   0  0  0  0  0  0  0  0  0  0  0  0
  -18.5083   15.9269  -12.7511 N   0  0  0  0  0  0  0  0  0  0  0  0
  -19.7334   16.1965  -12.3250 N   0  0  0  0  0  0  0  0  0  0  0  0
  -20.0954   17.4422  -12.7006 C   0  0  0  0  0  0  0  0  0  0  0  0
  -21.3464   18.1515  -12.4521 C   0  0  0  0  0  0  0  0  0  0  0  0
  -22.5350   17.7230  -12.9972 C   0  0  0  0  0  0  0  0  0  0  0  0
  -23.7478   18.3440  -12.8036 C   0  0  0  0  0  0  0  0  0  0  0  0
  -23.7559   19.4779  -12.0018 C   0  0  0  0  0  0  0  0  0  0  0  0
  -22.9106   21.0691  -10.7027 N   0  0  0  0  0  0  0  0  0  0  0  0
  -24.2277   21.3196  -10.7927 C   0  0  0  0  0  0  0  0  0  0  0  0
  -21.4125   19.2864  -11.6615 C   0  0  0  0  0  0  0  0  0  0  0  0
  -18.8911   19.2278  -14.0013 C   0  0  0  0  0  0  0  0  0  0  0  0
  -18.8165   20.2600  -14.4879 N   0  0  0  0  0  0  0  0  0  0  0  0
  1 12  2  0
  1 13  1  0
 15  1  1  0
 12  2  1  0
  2 14  2  0
  3  5  2  0
  8  3  1  0
  3 16  1  0
  5  4  1  0
  6  5  1  0
  7  6  1  0
  8  7  2  0
  9  8  1  0
  9 10  1  0
  9 15  2  0
 10 11  2  0
 11 12  1  0
 13 14  1  0
 16 17  3  0
M  END
$$$$
