
     RDKit          3D

 17 19  0  0  0  0  0  0  0  0999 V2000
  -23.7022   19.8125  -11.8521 C   0  0  0  0  0  0  0  0  0  0  0  0
  -24.8972   21.3028  -10.7398 C   0  0  0  0  0  0  0  0  0  0  0  0
  -19.8413   17.8585  -12.8739 C   0  0  0  0  0  0  0  0  0  0  0  0
  -17.9572   16.4326  -13.7351 N   0  0  0  0  0  0  0  0  0  0  0  0
  -18.5815   17.6705  -13.4306 C   0  0  0  0  0  0  0  0  0  0  0  0
  -18.0992   18.9108  -13.6109 N   0  0  0  0  0  0  0  0  0  0  0  0
  -18.9778   19.8148  -13.2034 N   0  0  0  0  0  0  0  0  0  0  0  0
  -20.0883   19.2081  -12.7319 C   0  0  0  0  0  0  0  0  0  0  0  0
  -21.3022   19.8060  -12.1850 C   0  0  0  0  0  0  0  0  0  0  0  0
  -21.2615   20.9688  -11.4504 C   0  0  0  0  0  0  0  0  0  0  0  0
  -22.3661   21.5844  -10.9073 C   0  0  0  0  0  0  0  0  0  0  0  0
  -23.5970   20.9789  -11.1241 C   0  0  0  0  0  0  0  0  0  0  0  0
  -25.0191   19.4579  -11.8974 N   0  0  0  0  0  0  0  0  0  0  0  0
  -25.7596   20.3551  -11.2249 C   0  0  0  0  0  0  0  0  0  0  0  0
  -22.5548   19.2455  -12.3702 C   0  0  0  0  0  0  0  0  0  0  0  0
  -20.7214   16.7827  -12.5151 C   0  0  0  0  0  0  0  0  0  0  0  0
  -21.4328   15.9293  -12.2442 N   0  0  0  0  0  0  0  0  0  0  0  0
  1 12  2  0
  1 13  1  0
 15  1  1  0
 12  2  1  0
  2 14  2  0
  3  5  2  0
  8  3  1  0
  3 16  1  0
  5  4  1  0
  6  5  1  0
  7  6  1  0
  8  7  2  0
  9  8  1  0
  9 10  1  0
  9 15  2  0
 10 11  2  0
 11 12  1  0
 13 14  1  0
 16 17  3  0
M  END
$$$$
