
     RDKit          3D

 47 47  0  0  0  0  0  0  0  0999 V2000
  -19.8263    9.6303    6.2818 N   0  0  0  0  0  4  0  0  0  0  0  0
  -19.5840    8.3654    5.6380 C   0  0  2  0  0  0  0  0  0  0  0  0
  -20.1545    8.4259    4.2678 C   0  0  0  0  0  0  0  0  0  0  0  0
  -20.6972    9.4623    3.8727 O   0  0  0  0  0  0  0  0  0  0  0  0
  -20.2534    7.2887    6.4477 C   0  0  0  0  0  0  0  0  0  0  0  0
  -20.0990    7.3191    3.3794 N   0  0  0  0  0  0  0  0  0  0  0  0
  -20.8210    7.1873    2.1577 C   0  0  2  0  0  0  0  0  0  0  0  0
  -22.0777    6.3709    2.3600 C   0  0  0  0  0  0  0  0  0  0  0  0
  -23.1997    6.8905    2.5265 O   0  0  0  0  0  0  0  0  0  0  0  0
  -20.0612    6.5216    1.0376 C   0  0  0  0  0  0  0  0  0  0  0  0
  -21.9793    4.9516    2.3606 N   0  0  0  0  0  0  0  0  0  0  0  0
  -22.8260    4.1183    1.5751 C   0  0  2  0  0  0  0  0  0  0  0  0
  -22.4006    2.6765    1.6391 C   0  0  0  0  0  0  0  0  0  0  0  0
  -21.4401    2.2758    0.9463 O   0  0  0  0  0  0  0  0  0  0  0  0
  -22.9233    4.6333    0.1732 C   0  0  0  0  0  0  0  0  0  0  0  0
  -24.2934    5.1645   -0.1167 C   0  0  0  0  0  0  0  0  0  0  0  0
  -24.6208    5.6915   -1.3445 O   0  0  0  0  0  0  0  0  0  0  0  0
  -25.1439    5.1165    0.7986 O   0  0  0  0  0  0  0  0  0  0  0  0
  -23.0521    1.7641    2.4629 N   0  0  0  0  0  0  0  0  0  0  0  0
  -22.6735    0.3961    2.7207 C   0  0  2  0  0  0  0  0  0  0  0  0
  -23.5511   -0.5498    2.0388 C   0  0  0  0  0  0  0  0  0  0  0  0
  -24.7554   -0.1760    1.8064 O   0  0  0  0  0  0  0  0  0  0  0  0
  -22.3753    0.1975    4.1517 C   0  0  2  0  0  0  0  0  0  0  0  0
  -23.4615    0.2737    5.0165 O   0  0  0  0  0  0  0  0  0  0  0  0
  -21.1862    0.9660    4.6887 C   0  0  0  0  0  0  0  0  0  0  0  0
  -23.2414   -1.8509    1.5979 N   0  0  0  0  0  0  0  0  0  0  0  0
  -24.2375   -2.8585    1.2324 C   0  0  2  0  0  0  0  0  0  0  0  0
  -24.8455   -3.4188    2.5018 C   0  0  0  0  0  0  0  0  0  0  0  0
  -24.4586   -2.9754    3.6172 O   0  0  0  0  0  0  0  0  0  0  0  0
  -23.6880   -3.8806    0.3232 C   0  0  2  0  0  0  0  0  0  0  0  0
  -22.6897   -4.6114    0.8933 O   0  0  0  0  0  0  0  0  0  0  0  0
  -23.3309   -3.3039   -1.0441 C   0  0  0  0  0  0  0  0  0  0  0  0
  -25.8292   -4.4106    2.4776 N   0  0  0  0  0  0  0  0  0  0  0  0
  -26.4851   -4.9939    3.6646 C   0  0  2  0  0  0  0  0  0  0  0  0
  -26.7235   -6.4383    3.4938 C   0  0  0  0  0  0  0  0  0  0  0  0
  -27.4166   -6.8056    2.4945 O   0  0  0  0  0  0  0  0  0  0  0  0
  -27.7467   -4.1846    3.8931 C   0  0  2  0  0  0  0  0  0  0  0  0
  -28.6923   -4.4190    2.8972 O   0  0  0  0  0  0  0  0  0  0  0  0
  -27.6296   -2.7453    4.1642 C   0  0  0  0  0  0  0  0  0  0  0  0
  -26.2270   -7.4570    4.3623 N   0  0  0  0  0  0  0  0  0  0  0  0
  -26.4024   -8.8672    4.2227 C   0  0  2  0  0  0  0  0  0  0  0  0
  -27.8031   -9.2693    3.9113 C   0  0  0  0  0  0  0  0  0  0  0  0
  -28.7459   -8.4904    4.1513 O   0  0  0  0  0  0  0  0  0  0  0  0
  -26.0497   -9.4470    5.5654 C   0  0  0  0  0  0  0  0  0  0  0  0
  -25.8457   -8.2432    6.4842 C   0  0  0  0  0  0  0  0  0  0  0  0
  -25.3658   -7.2037    5.4926 C   0  0  0  0  0  0  0  0  0  0  0  0
  -28.0610  -10.5071    3.3558 O   0  0  0  0  0  0  0  0  0  0  0  0
  1  2  1  0
  2  3  1  0
  2  5  1  1
  3  4  2  0
  3  6  1  0
  6  7  1  0
  7  8  1  0
  7 10  1  6
  8  9  2  0
  8 11  1  0
 11 12  1  0
 12 13  1  0
 12 15  1  6
 13 14  2  0
 13 19  1  0
 15 16  1  0
 16 17  1  0
 16 18  2  0
 20 19  1  1
 20 21  1  0
 20 23  1  0
 21 22  2  0
 21 26  1  0
 23 24  1  0
 23 25  1  1
 27 26  1  1
 27 28  1  0
 27 30  1  0
 28 29  2  0
 28 33  1  0
 30 31  1  0
 30 32  1  6
 34 33  1  6
 34 35  1  0
 34 37  1  0
 35 36  2  0
 35 40  1  0
 37 38  1  0
 37 39  1  6
 40 41  1  0
 40 46  1  0
 41 42  1  1
 41 44  1  0
 42 43  2  0
 42 47  1  0
 44 45  1  0
 45 46  1  0
M  CHG  1   1   1
M  END
$$$$
