
     RDKit          3D

 47 47  0  0  0  0  0  0  0  0999 V2000
  -20.7873    8.1534    3.6115 N   0  0  0  0  0  4  0  0  0  0  0  0
  -20.0653    7.9559    4.8414 C   0  0  2  0  0  0  0  0  0  0  0  0
  -21.0193    7.4542    5.8636 C   0  0  0  0  0  0  0  0  0  0  0  0
  -20.6143    7.1663    6.9940 O   0  0  0  0  0  0  0  0  0  0  0  0
  -19.4793    9.2763    5.2610 C   0  0  0  0  0  0  0  0  0  0  0  0
  -22.4025    7.2901    5.5865 N   0  0  0  0  0  0  0  0  0  0  0  0
  -23.1237    7.9066    4.5229 C   0  0  2  0  0  0  0  0  0  0  0  0
  -24.0451    6.9139    3.8505 C   0  0  0  0  0  0  0  0  0  0  0  0
  -25.1923    7.2143    3.4628 O   0  0  0  0  0  0  0  0  0  0  0  0
  -22.2671    8.4947    3.4296 C   0  0  0  0  0  0  0  0  0  0  0  0
  -23.5873    5.5818    3.6503 N   0  0  0  0  0  0  0  0  0  0  0  0
  -23.6023    4.9429    2.3775 C   0  0  2  0  0  0  0  0  0  0  0  0
  -22.8865    3.6200    2.4115 C   0  0  0  0  0  0  0  0  0  0  0  0
  -21.6370    3.5846    2.4355 O   0  0  0  0  0  0  0  0  0  0  0  0
  -23.0768    5.8604    1.3181 C   0  0  0  0  0  0  0  0  0  0  0  0
  -23.5560    5.4522   -0.0409 C   0  0  0  0  0  0  0  0  0  0  0  0
  -24.3698    4.3582   -0.2233 O   0  0  0  0  0  0  0  0  0  0  0  0
  -23.1922    6.1405   -1.0194 O   0  0  0  0  0  0  0  0  0  0  0  0
  -23.5857    2.4173    2.4221 N   0  0  0  0  0  0  0  0  0  0  0  0
  -23.0380    1.0910    2.5714 C   0  0  2  0  0  0  0  0  0  0  0  0
  -23.6087    0.1544    1.6085 C   0  0  0  0  0  0  0  0  0  0  0  0
  -24.7838    0.4084    1.1628 O   0  0  0  0  0  0  0  0  0  0  0  0
  -22.9744    0.7093    3.9950 C   0  0  2  0  0  0  0  0  0  0  0  0
  -24.1721    0.2982    4.5694 O   0  0  0  0  0  0  0  0  0  0  0  0
  -22.2271    1.6664    4.8998 C   0  0  0  0  0  0  0  0  0  0  0  0
  -23.0252   -1.0213    1.0981 N   0  0  0  0  0  0  0  0  0  0  0  0
  -23.6821   -1.9283    0.1565 C   0  0  2  0  0  0  0  0  0  0  0  0
  -24.2699   -3.0882    0.9336 C   0  0  0  0  0  0  0  0  0  0  0  0
  -24.8141   -4.0369    0.3056 O   0  0  0  0  0  0  0  0  0  0  0  0
  -22.7886   -2.3299   -0.9452 C   0  0  2  0  0  0  0  0  0  0  0  0
  -21.7348   -3.0820   -0.5218 O   0  0  0  0  0  0  0  0  0  0  0  0
  -22.3926   -1.1483   -1.8264 C   0  0  0  0  0  0  0  0  0  0  0  0
  -24.2239   -3.1450    2.3288 N   0  0  0  0  0  0  0  0  0  0  0  0
  -24.7648   -4.2396    3.1586 C   0  0  2  0  0  0  0  0  0  0  0  0
  -25.8035   -3.7523    4.0839 C   0  0  0  0  0  0  0  0  0  0  0  0
  -25.6042   -2.6356    4.6559 O   0  0  0  0  0  0  0  0  0  0  0  0
  -23.5749   -4.8765    3.8494 C   0  0  2  0  0  0  0  0  0  0  0  0
  -22.8878   -3.9558    4.6377 O   0  0  0  0  0  0  0  0  0  0  0  0
  -22.6344   -5.6768    3.0533 C   0  0  0  0  0  0  0  0  0  0  0  0
  -27.0211   -4.4367    4.3796 N   0  0  0  0  0  0  0  0  0  0  0  0
  -28.0559   -4.0078    5.2651 C   0  0  2  0  0  0  0  0  0  0  0  0
  -27.5549   -3.5180    6.5803 C   0  0  0  0  0  0  0  0  0  0  0  0
  -27.8164   -2.3595    6.9577 O   0  0  0  0  0  0  0  0  0  0  0  0
  -28.8919   -5.2318    5.5230 C   0  0  0  0  0  0  0  0  0  0  0  0
  -28.1365   -6.3834    4.8612 C   0  0  0  0  0  0  0  0  0  0  0  0
  -27.4385   -5.6565    3.7305 C   0  0  0  0  0  0  0  0  0  0  0  0
  -26.7984   -4.3469    7.3854 O   0  0  0  0  0  0  0  0  0  0  0  0
  1  2  1  0
  2  3  1  0
  2  5  1  1
  3  4  2  0
  3  6  1  0
  6  7  1  0
  7  8  1  0
  7 10  1  6
  8  9  2  0
  8 11  1  0
 11 12  1  0
 12 13  1  0
 12 15  1  6
 13 14  2  0
 13 19  1  0
 15 16  1  0
 16 17  1  0
 16 18  2  0
 20 19  1  1
 20 21  1  0
 20 23  1  0
 21 22  2  0
 21 26  1  0
 23 24  1  0
 23 25  1  1
 27 26  1  1
 27 28  1  0
 27 30  1  0
 28 29  2  0
 28 33  1  0
 30 31  1  0
 30 32  1  1
 34 33  1  1
 34 35  1  0
 34 37  1  0
 35 36  2  0
 35 40  1  0
 37 38  1  0
 37 39  1  6
 40 41  1  0
 40 46  1  0
 41 42  1  1
 41 44  1  0
 42 43  2  0
 42 47  1  0
 44 45  1  0
 45 46  1  0
M  CHG  1   1   1
M  END
$$$$
