
     RDKit          3D

 47 47  0  0  0  0  0  0  0  0999 V2000
  -18.6189    8.5952    3.0867 N   0  0  0  0  0  4  0  0  0  0  0  0
  -18.6324    9.0602    1.7242 C   0  0  2  0  0  0  0  0  0  0  0  0
  -19.4498    8.1157    0.9201 C   0  0  0  0  0  0  0  0  0  0  0  0
  -19.5654    8.2851   -0.2976 O   0  0  0  0  0  0  0  0  0  0  0  0
  -17.2139    9.0970    1.2247 C   0  0  0  0  0  0  0  0  0  0  0  0
  -20.1146    7.0066    1.5074 N   0  0  0  0  0  0  0  0  0  0  0  0
  -20.8549    7.0213    2.7252 C   0  0  2  0  0  0  0  0  0  0  0  0
  -21.8138    5.8537    2.7867 C   0  0  0  0  0  0  0  0  0  0  0  0
  -22.3992    5.5164    3.8356 O   0  0  0  0  0  0  0  0  0  0  0  0
  -21.6842    8.2607    2.9514 C   0  0  0  0  0  0  0  0  0  0  0  0
  -22.0608    5.1074    1.6008 N   0  0  0  0  0  0  0  0  0  0  0  0
  -22.9026    3.9589    1.5720 C   0  0  2  0  0  0  0  0  0  0  0  0
  -22.1828    2.7304    2.0579 C   0  0  0  0  0  0  0  0  0  0  0  0
  -20.9772    2.7981    2.3822 O   0  0  0  0  0  0  0  0  0  0  0  0
  -23.5069    3.7791    0.2146 C   0  0  0  0  0  0  0  0  0  0  0  0
  -24.0727    5.0657   -0.3031 C   0  0  0  0  0  0  0  0  0  0  0  0
  -25.1992    5.6339    0.2453 O   0  0  0  0  0  0  0  0  0  0  0  0
  -23.4872    5.6178   -1.2601 O   0  0  0  0  0  0  0  0  0  0  0  0
  -22.8312    1.5040    2.1629 N   0  0  0  0  0  0  0  0  0  0  0  0
  -23.1914    0.8083    3.3743 C   0  0  2  0  0  0  0  0  0  0  0  0
  -23.8100   -0.4841    3.0969 C   0  0  0  0  0  0  0  0  0  0  0  0
  -25.0085   -0.4795    2.6412 O   0  0  0  0  0  0  0  0  0  0  0  0
  -23.8399    1.7257    4.3304 C   0  0  2  0  0  0  0  0  0  0  0  0
  -24.3702    1.1384    5.4739 O   0  0  0  0  0  0  0  0  0  0  0  0
  -24.7995    2.7312    3.7295 C   0  0  0  0  0  0  0  0  0  0  0  0
  -23.2508   -1.7644    3.2739 N   0  0  0  0  0  0  0  0  0  0  0  0
  -23.9421   -3.0174    2.9690 C   0  0  2  0  0  0  0  0  0  0  0  0
  -25.0213   -3.2388    4.0089 C   0  0  0  0  0  0  0  0  0  0  0  0
  -25.4438   -2.2556    4.6762 O   0  0  0  0  0  0  0  0  0  0  0  0
  -23.0069   -4.1471    2.8186 C   0  0  2  0  0  0  0  0  0  0  0  0
  -22.3452   -4.4409    3.9724 O   0  0  0  0  0  0  0  0  0  0  0  0
  -22.0951   -3.9832    1.6056 C   0  0  0  0  0  0  0  0  0  0  0  0
  -25.5705   -4.5005    4.2502 N   0  0  0  0  0  0  0  0  0  0  0  0
  -26.6652   -4.7898    5.1975 C   0  0  2  0  0  0  0  0  0  0  0  0
  -26.9247   -6.2374    5.2960 C   0  0  0  0  0  0  0  0  0  0  0  0
  -27.2731   -6.8457    4.2365 O   0  0  0  0  0  0  0  0  0  0  0  0
  -27.8585   -3.9813    4.7272 C   0  0  2  0  0  0  0  0  0  0  0  0
  -28.0043   -4.0423    3.3430 O   0  0  0  0  0  0  0  0  0  0  0  0
  -28.0131   -2.5993    5.2013 C   0  0  0  0  0  0  0  0  0  0  0  0
  -26.8057   -7.0097    6.4910 N   0  0  0  0  0  0  0  0  0  0  0  0
  -27.3651   -8.2994    6.7410 C   0  0  2  0  0  0  0  0  0  0  0  0
  -28.7949   -8.4211    6.3392 C   0  0  0  0  0  0  0  0  0  0  0  0
  -29.3667   -7.4737    5.7659 O   0  0  0  0  0  0  0  0  0  0  0  0
  -27.2939   -8.4819    8.2327 C   0  0  0  0  0  0  0  0  0  0  0  0
  -26.8244   -7.1356    8.7822 C   0  0  0  0  0  0  0  0  0  0  0  0
  -25.9952   -6.6256    7.6219 C   0  0  0  0  0  0  0  0  0  0  0  0
  -29.4914   -9.5846    6.6012 O   0  0  0  0  0  0  0  0  0  0  0  0
  1  2  1  0
  2  3  1  0
  2  5  1  6
  3  4  2  0
  3  6  1  0
  6  7  1  0
  7  8  1  0
  7 10  1  6
  8  9  2  0
  8 11  1  0
 11 12  1  0
 12 13  1  0
 12 15  1  6
 13 14  2  0
 13 19  1  0
 15 16  1  0
 16 17  1  0
 16 18  2  0
 20 19  1  6
 20 21  1  0
 20 23  1  0
 21 22  2  0
 21 26  1  0
 23 24  1  0
 23 25  1  6
 27 26  1  1
 27 28  1  0
 27 30  1  0
 28 29  2  0
 28 33  1  0
 30 31  1  0
 30 32  1  6
 34 33  1  6
 34 35  1  0
 34 37  1  0
 35 36  2  0
 35 40  1  0
 37 38  1  0
 37 39  1  6
 40 41  1  0
 40 46  1  0
 41 42  1  1
 41 44  1  0
 42 43  2  0
 42 47  1  0
 44 45  1  0
 45 46  1  0
M  CHG  1   1   1
M  END
$$$$
