
     RDKit          3D

 47 47  0  0  0  0  0  0  0  0999 V2000
  -23.3867   11.7183    0.6402 N   0  0  0  0  0  4  0  0  0  0  0  0
  -22.0076   11.4839    0.2994 C   0  0  2  0  0  0  0  0  0  0  0  0
  -21.8327   10.0302    0.0484 C   0  0  0  0  0  0  0  0  0  0  0  0
  -22.2974    9.5229   -0.9770 O   0  0  0  0  0  0  0  0  0  0  0  0
  -21.1540   11.9325    1.4540 C   0  0  0  0  0  0  0  0  0  0  0  0
  -21.1399    9.1871    0.9574 N   0  0  0  0  0  0  0  0  0  0  0  0
  -20.8777    7.7976    0.7791 C   0  0  2  0  0  0  0  0  0  0  0  0
  -22.0029    6.9603    1.3445 C   0  0  0  0  0  0  0  0  0  0  0  0
  -22.9330    7.4475    2.0184 O   0  0  0  0  0  0  0  0  0  0  0  0
  -19.6122    7.2994    1.4313 C   0  0  0  0  0  0  0  0  0  0  0  0
  -22.0034    5.5589    1.0991 N   0  0  0  0  0  0  0  0  0  0  0  0
  -23.0731    4.7058    1.4946 C   0  0  2  0  0  0  0  0  0  0  0  0
  -22.5902    3.3136    1.7980 C   0  0  0  0  0  0  0  0  0  0  0  0
  -21.9876    2.6551    0.9225 O   0  0  0  0  0  0  0  0  0  0  0  0
  -24.1732    4.7306    0.4800 C   0  0  0  0  0  0  0  0  0  0  0  0
  -25.4930    5.0402    1.1169 C   0  0  0  0  0  0  0  0  0  0  0  0
  -25.8513    6.3253    1.4525 O   0  0  0  0  0  0  0  0  0  0  0  0
  -26.2716    4.0875    1.3395 O   0  0  0  0  0  0  0  0  0  0  0  0
  -22.7936    2.7311    3.0450 N   0  0  0  0  0  0  0  0  0  0  0  0
  -22.3948    1.4104    3.4666 C   0  0  2  0  0  0  0  0  0  0  0  0
  -23.4110    0.4097    3.1570 C   0  0  0  0  0  0  0  0  0  0  0  0
  -23.9234    0.4322    1.9818 O   0  0  0  0  0  0  0  0  0  0  0  0
  -21.8118    1.4482    4.8212 C   0  0  2  0  0  0  0  0  0  0  0  0
  -22.7137    1.6033    5.8682 O   0  0  0  0  0  0  0  0  0  0  0  0
  -20.6052    2.3468    4.9931 C   0  0  0  0  0  0  0  0  0  0  0  0
  -23.9171   -0.5966    4.0023 N   0  0  0  0  0  0  0  0  0  0  0  0
  -24.7084   -1.7392    3.5449 C   0  0  2  0  0  0  0  0  0  0  0  0
  -25.0913   -2.5744    4.7495 C   0  0  0  0  0  0  0  0  0  0  0  0
  -24.5099   -3.6765    4.9441 O   0  0  0  0  0  0  0  0  0  0  0  0
  -24.0294   -2.4950    2.4767 C   0  0  2  0  0  0  0  0  0  0  0  0
  -22.9569   -3.2015    2.9308 O   0  0  0  0  0  0  0  0  0  0  0  0
  -23.7288   -1.6268    1.2579 C   0  0  0  0  0  0  0  0  0  0  0  0
  -26.0673   -2.1599    5.6591 N   0  0  0  0  0  0  0  0  0  0  0  0
  -26.6041   -2.9736    6.7677 C   0  0  2  0  0  0  0  0  0  0  0  0
  -25.6435   -4.0080    7.1917 C   0  0  0  0  0  0  0  0  0  0  0  0
  -25.3914   -4.9469    6.3739 O   0  0  0  0  0  0  0  0  0  0  0  0
  -27.9307   -3.5265    6.2848 C   0  0  2  0  0  0  0  0  0  0  0  0
  -28.5215   -4.3484    7.2422 O   0  0  0  0  0  0  0  0  0  0  0  0
  -28.0005   -4.1502    4.9563 C   0  0  0  0  0  0  0  0  0  0  0  0
  -24.9682   -4.0299    8.4495 N   0  0  0  0  0  0  0  0  0  0  0  0
  -24.1889   -5.0979    8.9889 C   0  0  2  0  0  0  0  0  0  0  0  0
  -24.8398   -6.4333    8.8728 C   0  0  0  0  0  0  0  0  0  0  0  0
  -26.0178   -6.5230    8.4763 O   0  0  0  0  0  0  0  0  0  0  0  0
  -24.0465   -4.7862   10.4539 C   0  0  0  0  0  0  0  0  0  0  0  0
  -24.9483   -3.5773   10.6991 C   0  0  0  0  0  0  0  0  0  0  0  0
  -24.8950   -2.9004    9.3452 C   0  0  0  0  0  0  0  0  0  0  0  0
  -24.1393   -7.5764    9.2047 O   0  0  0  0  0  0  0  0  0  0  0  0
  1  2  1  0
  2  3  1  0
  2  5  1  1
  3  4  2  0
  3  6  1  0
  6  7  1  0
  7  8  1  0
  7 10  1  1
  8  9  2  0
  8 11  1  0
 11 12  1  0
 12 13  1  0
 12 15  1  6
 13 14  2  0
 13 19  1  0
 15 16  1  0
 16 17  1  0
 16 18  2  0
 20 19  1  1
 20 21  1  0
 20 23  1  0
 21 22  2  0
 21 26  1  0
 23 24  1  0
 23 25  1  6
 27 26  1  1
 27 28  1  0
 27 30  1  0
 28 29  2  0
 28 33  1  0
 30 31  1  0
 30 32  1  6
 34 33  1  6
 34 35  1  0
 34 37  1  0
 35 36  2  0
 35 40  1  0
 37 38  1  0
 37 39  1  6
 40 41  1  0
 40 46  1  0
 41 42  1  1
 41 44  1  0
 42 43  2  0
 42 47  1  0
 44 45  1  0
 45 46  1  0
M  CHG  1   1   1
M  END
$$$$
