
     RDKit          3D

 47 47  0  0  0  0  0  0  0  0999 V2000
  -24.8152    9.9819    0.1293 N   0  0  0  0  0  4  0  0  0  0  0  0
  -23.8654    9.9904    1.2113 C   0  0  2  0  0  0  0  0  0  0  0  0
  -22.6293    9.3087    0.7485 C   0  0  0  0  0  0  0  0  0  0  0  0
  -22.4585    9.0958   -0.4558 O   0  0  0  0  0  0  0  0  0  0  0  0
  -24.4730    9.2598    2.3774 C   0  0  0  0  0  0  0  0  0  0  0  0
  -21.6192    8.8854    1.6526 N   0  0  0  0  0  0  0  0  0  0  0  0
  -20.4045    8.2261    1.3044 C   0  0  2  0  0  0  0  0  0  0  0  0
  -20.4390    6.7747    1.7272 C   0  0  0  0  0  0  0  0  0  0  0  0
  -19.4058    6.0923    1.8802 O   0  0  0  0  0  0  0  0  0  0  0  0
  -19.1606    8.8158    1.9208 C   0  0  0  0  0  0  0  0  0  0  0  0
  -21.7003    6.1596    1.9612 N   0  0  0  0  0  0  0  0  0  0  0  0
  -22.0774    5.6277    3.2274 C   0  0  2  0  0  0  0  0  0  0  0  0
  -21.7091    4.1742    3.3512 C   0  0  0  0  0  0  0  0  0  0  0  0
  -20.6266    3.8457    3.8835 O   0  0  0  0  0  0  0  0  0  0  0  0
  -23.5265    5.8847    3.4996 C   0  0  0  0  0  0  0  0  0  0  0  0
  -23.8646    5.6230    4.9350 C   0  0  0  0  0  0  0  0  0  0  0  0
  -25.0387    6.0699    5.4956 O   0  0  0  0  0  0  0  0  0  0  0  0
  -23.0407    4.9792    5.6208 O   0  0  0  0  0  0  0  0  0  0  0  0
  -22.5534    3.1701    2.8879 N   0  0  0  0  0  0  0  0  0  0  0  0
  -22.3327    1.7459    2.9522 C   0  0  2  0  0  0  0  0  0  0  0  0
  -23.4481    0.9957    2.3838 C   0  0  0  0  0  0  0  0  0  0  0  0
  -24.1943    1.6000    1.5341 O   0  0  0  0  0  0  0  0  0  0  0  0
  -21.8044    1.3583    4.2739 C   0  0  2  0  0  0  0  0  0  0  0  0
  -21.5605    0.0018    4.4583 O   0  0  0  0  0  0  0  0  0  0  0  0
  -22.5148    1.9597    5.4683 C   0  0  0  0  0  0  0  0  0  0  0  0
  -23.8226   -0.3340    2.6577 N   0  0  0  0  0  0  0  0  0  0  0  0
  -23.9450   -1.3832    1.6452 C   0  0  2  0  0  0  0  0  0  0  0  0
  -23.8338   -2.7301    2.3299 C   0  0  0  0  0  0  0  0  0  0  0  0
  -23.1653   -2.8256    3.3950 O   0  0  0  0  0  0  0  0  0  0  0  0
  -23.0008   -1.1929    0.5291 C   0  0  2  0  0  0  0  0  0  0  0  0
  -21.7326   -0.9290    0.9506 O   0  0  0  0  0  0  0  0  0  0  0  0
  -23.5270   -0.2058   -0.5093 C   0  0  0  0  0  0  0  0  0  0  0  0
  -24.4549   -3.8736    1.8216 N   0  0  0  0  0  0  0  0  0  0  0  0
  -25.3607   -4.7621    2.5762 C   0  0  2  0  0  0  0  0  0  0  0  0
  -25.8078   -5.9007    1.7540 C   0  0  0  0  0  0  0  0  0  0  0  0
  -26.7117   -5.6819    0.8886 O   0  0  0  0  0  0  0  0  0  0  0  0
  -26.4907   -3.8864    3.0813 C   0  0  2  0  0  0  0  0  0  0  0  0
  -27.2270   -3.3442    2.0302 O   0  0  0  0  0  0  0  0  0  0  0  0
  -26.1983   -2.8587    4.0898 C   0  0  0  0  0  0  0  0  0  0  0  0
  -25.2955   -7.2299    1.8508 N   0  0  0  0  0  0  0  0  0  0  0  0
  -25.6668   -8.3551    1.0540 C   0  0  2  0  0  0  0  0  0  0  0  0
  -27.1395   -8.5159    0.8928 C   0  0  0  0  0  0  0  0  0  0  0  0
  -27.9208   -7.9541    1.6846 O   0  0  0  0  0  0  0  0  0  0  0  0
  -25.1562   -9.5574    1.8006 C   0  0  0  0  0  0  0  0  0  0  0  0
  -24.6443   -9.0167    3.1350 C   0  0  0  0  0  0  0  0  0  0  0  0
  -24.2226   -7.6180    2.7350 C   0  0  0  0  0  0  0  0  0  0  0  0
  -27.6433   -9.2887   -0.1350 O   0  0  0  0  0  0  0  0  0  0  0  0
  1  2  1  0
  2  3  1  0
  2  5  1  1
  3  4  2  0
  3  6  1  0
  6  7  1  0
  7  8  1  0
  7 10  1  1
  8  9  2  0
  8 11  1  0
 11 12  1  0
 12 13  1  0
 12 15  1  6
 13 14  2  0
 13 19  1  0
 15 16  1  0
 16 17  1  0
 16 18  2  0
 20 19  1  1
 20 21  1  0
 20 23  1  0
 21 22  2  0
 21 26  1  0
 23 24  1  0
 23 25  1  1
 27 26  1  1
 27 28  1  0
 27 30  1  0
 28 29  2  0
 28 33  1  0
 30 31  1  0
 30 32  1  6
 34 33  1  6
 34 35  1  0
 34 37  1  0
 35 36  2  0
 35 40  1  0
 37 38  1  0
 37 39  1  6
 40 41  1  0
 40 46  1  0
 41 42  1  1
 41 44  1  0
 42 43  2  0
 42 47  1  0
 44 45  1  0
 45 46  1  0
M  CHG  1   1   1
M  END
$$$$
