
     RDKit          3D

 47 47  0  0  0  0  0  0  0  0999 V2000
  -22.1282    9.7438    5.4306 N   0  0  0  0  0  4  0  0  0  0  0  0
  -22.6273   10.6190    4.4022 C   0  0  2  0  0  0  0  0  0  0  0  0
  -22.6893    9.8527    3.1311 C   0  0  0  0  0  0  0  0  0  0  0  0
  -23.7845    9.5376    2.6557 O   0  0  0  0  0  0  0  0  0  0  0  0
  -21.6847   11.7847    4.2770 C   0  0  0  0  0  0  0  0  0  0  0  0
  -21.5180    9.4620    2.4294 N   0  0  0  0  0  0  0  0  0  0  0  0
  -21.4773    8.7254    1.2099 C   0  0  2  0  0  0  0  0  0  0  0  0
  -21.4162    7.2389    1.4803 C   0  0  0  0  0  0  0  0  0  0  0  0
  -21.6169    6.3837    0.5943 O   0  0  0  0  0  0  0  0  0  0  0  0
  -20.3047    9.0400    0.3148 C   0  0  0  0  0  0  0  0  0  0  0  0
  -21.1175    6.7945    2.7983 N   0  0  0  0  0  0  0  0  0  0  0  0
  -20.8024    5.4396    3.1039 C   0  0  2  0  0  0  0  0  0  0  0  0
  -22.0249    4.5633    3.0676 C   0  0  0  0  0  0  0  0  0  0  0  0
  -23.0476    4.8883    3.7091 O   0  0  0  0  0  0  0  0  0  0  0  0
  -20.0605    5.3478    4.4006 C   0  0  0  0  0  0  0  0  0  0  0  0
  -19.1250    4.1782    4.4098 C   0  0  0  0  0  0  0  0  0  0  0  0
  -18.3507    3.8789    5.5067 O   0  0  0  0  0  0  0  0  0  0  0  0
  -19.0646    3.4708    3.3804 O   0  0  0  0  0  0  0  0  0  0  0  0
  -22.0519    3.3866    2.3258 N   0  0  0  0  0  0  0  0  0  0  0  0
  -23.1687    2.4900    2.1522 C   0  0  2  0  0  0  0  0  0  0  0  0
  -22.7671    1.0915    2.2648 C   0  0  0  0  0  0  0  0  0  0  0  0
  -21.6807    0.7402    1.6813 O   0  0  0  0  0  0  0  0  0  0  0  0
  -24.0023    2.9092    1.0096 C   0  0  2  0  0  0  0  0  0  0  0  0
  -23.4398    2.7366   -0.2503 O   0  0  0  0  0  0  0  0  0  0  0  0
  -24.6621    4.2659    1.1394 C   0  0  0  0  0  0  0  0  0  0  0  0
  -23.4358    0.0533    2.9418 N   0  0  0  0  0  0  0  0  0  0  0  0
  -22.9340   -1.3164    3.0559 C   0  0  2  0  0  0  0  0  0  0  0  0
  -24.0759   -2.2733    2.7811 C   0  0  0  0  0  0  0  0  0  0  0  0
  -25.1974   -2.0633    3.3182 O   0  0  0  0  0  0  0  0  0  0  0  0
  -22.2434   -1.5516    4.3370 C   0  0  2  0  0  0  0  0  0  0  0  0
  -21.8191   -2.8382    4.4787 O   0  0  0  0  0  0  0  0  0  0  0  0
  -23.0422   -1.0275    5.5273 C   0  0  0  0  0  0  0  0  0  0  0  0
  -23.9287   -3.3822    1.9442 N   0  0  0  0  0  0  0  0  0  0  0  0
  -24.9633   -4.4036    1.6879 C   0  0  2  0  0  0  0  0  0  0  0  0
  -25.3989   -5.0552    2.9362 C   0  0  0  0  0  0  0  0  0  0  0  0
  -24.5032   -5.3578    3.7849 O   0  0  0  0  0  0  0  0  0  0  0  0
  -24.3738   -5.3585    0.6684 C   0  0  2  0  0  0  0  0  0  0  0  0
  -25.3012   -6.3193    0.2710 O   0  0  0  0  0  0  0  0  0  0  0  0
  -23.0728   -5.9820    0.9463 C   0  0  0  0  0  0  0  0  0  0  0  0
  -26.7528   -5.3646    3.2674 N   0  0  0  0  0  0  0  0  0  0  0  0
  -27.2263   -5.9782    4.4667 C   0  0  2  0  0  0  0  0  0  0  0  0
  -26.4410   -7.1761    4.8778 C   0  0  0  0  0  0  0  0  0  0  0  0
  -25.9319   -7.9171    4.0148 O   0  0  0  0  0  0  0  0  0  0  0  0
  -28.6251   -6.4355    4.1543 C   0  0  0  0  0  0  0  0  0  0  0  0
  -28.8066   -6.1866    2.6577 C   0  0  0  0  0  0  0  0  0  0  0  0
  -27.8859   -5.0020    2.4501 C   0  0  0  0  0  0  0  0  0  0  0  0
  -26.2753   -7.4692    6.2172 O   0  0  0  0  0  0  0  0  0  0  0  0
  1  2  1  0
  2  3  1  0
  2  5  1  6
  3  4  2  0
  3  6  1  0
  6  7  1  0
  7  8  1  0
  7 10  1  1
  8  9  2  0
  8 11  1  0
 11 12  1  0
 12 13  1  0
 12 15  1  1
 13 14  2  0
 13 19  1  0
 15 16  1  0
 16 17  1  0
 16 18  2  0
 20 19  1  6
 20 21  1  0
 20 23  1  0
 21 22  2  0
 21 26  1  0
 23 24  1  0
 23 25  1  1
 27 26  1  1
 27 28  1  0
 27 30  1  0
 28 29  2  0
 28 33  1  0
 30 31  1  0
 30 32  1  1
 34 33  1  1
 34 35  1  0
 34 37  1  0
 35 36  2  0
 35 40  1  0
 37 38  1  0
 37 39  1  1
 40 41  1  0
 40 46  1  0
 41 42  1  6
 41 44  1  0
 42 43  2  0
 42 47  1  0
 44 45  1  0
 45 46  1  0
M  CHG  1   1   1
M  END
$$$$
