
     RDKit          3D

 47 47  0  0  0  0  0  0  0  0999 V2000
  -21.6502   10.3263    2.8738 N   0  0  0  0  0  4  0  0  0  0  0  0
  -22.0750    9.3069    1.9499 C   0  0  2  0  0  0  0  0  0  0  0  0
  -21.0052    8.2794    1.8694 C   0  0  0  0  0  0  0  0  0  0  0  0
  -20.3849    8.1188    0.8139 O   0  0  0  0  0  0  0  0  0  0  0  0
  -22.2988    9.9503    0.6086 C   0  0  0  0  0  0  0  0  0  0  0  0
  -20.6624    7.4608    2.9782 N   0  0  0  0  0  0  0  0  0  0  0  0
  -21.4328    6.3764    3.4901 C   0  0  2  0  0  0  0  0  0  0  0  0
  -20.7872    5.0510    3.1535 C   0  0  0  0  0  0  0  0  0  0  0  0
  -19.5507    4.8843    3.1521 O   0  0  0  0  0  0  0  0  0  0  0  0
  -22.8475    6.3001    2.9726 C   0  0  0  0  0  0  0  0  0  0  0  0
  -21.6220    3.9468    2.8249 N   0  0  0  0  0  0  0  0  0  0  0  0
  -22.2818    3.1572    3.8097 C   0  0  2  0  0  0  0  0  0  0  0  0
  -23.0458    2.0195    3.1889 C   0  0  0  0  0  0  0  0  0  0  0  0
  -24.2940    1.9938    3.2545 O   0  0  0  0  0  0  0  0  0  0  0  0
  -23.1331    4.0148    4.6928 C   0  0  0  0  0  0  0  0  0  0  0  0
  -23.2716    3.4182    6.0596 C   0  0  0  0  0  0  0  0  0  0  0  0
  -22.2455    2.7188    6.6517 O   0  0  0  0  0  0  0  0  0  0  0  0
  -24.3589    3.5738    6.6572 O   0  0  0  0  0  0  0  0  0  0  0  0
  -22.3936    0.9822    2.5299 N   0  0  0  0  0  0  0  0  0  0  0  0
  -22.9615    0.0608    1.5761 C   0  0  2  0  0  0  0  0  0  0  0  0
  -22.0127   -0.9796    1.1922 C   0  0  0  0  0  0  0  0  0  0  0  0
  -20.9160   -0.6054    0.6434 O   0  0  0  0  0  0  0  0  0  0  0  0
  -23.6981    0.7862    0.5237 C   0  0  2  0  0  0  0  0  0  0  0  0
  -23.0217    1.8437   -0.0744 O   0  0  0  0  0  0  0  0  0  0  0  0
  -25.1256    1.1627    0.8604 C   0  0  0  0  0  0  0  0  0  0  0  0
  -22.1509   -2.3727    1.3450 N   0  0  0  0  0  0  0  0  0  0  0  0
  -22.8259   -3.0175    2.4718 C   0  0  2  0  0  0  0  0  0  0  0  0
  -23.8327   -4.0101    1.9276 C   0  0  0  0  0  0  0  0  0  0  0  0
  -24.9375   -3.5884    1.4894 O   0  0  0  0  0  0  0  0  0  0  0  0
  -23.3931   -2.0374    3.4159 C   0  0  2  0  0  0  0  0  0  0  0  0
  -23.3754   -2.4763    4.7053 O   0  0  0  0  0  0  0  0  0  0  0  0
  -24.7519   -1.5149    2.9574 C   0  0  0  0  0  0  0  0  0  0  0  0
  -23.5744   -5.3825    1.8894 N   0  0  0  0  0  0  0  0  0  0  0  0
  -24.4572   -6.4026    1.2898 C   0  0  2  0  0  0  0  0  0  0  0  0
  -25.4616   -6.8820    2.2562 C   0  0  0  0  0  0  0  0  0  0  0  0
  -25.0605   -7.1709    3.4264 O   0  0  0  0  0  0  0  0  0  0  0  0
  -23.5467   -7.4917    0.7571 C   0  0  2  0  0  0  0  0  0  0  0  0
  -22.7758   -8.0557    1.7713 O   0  0  0  0  0  0  0  0  0  0  0  0
  -22.7194   -7.2128   -0.4246 C   0  0  0  0  0  0  0  0  0  0  0  0
  -26.8534   -7.0382    1.9788 N   0  0  0  0  0  0  0  0  0  0  0  0
  -27.8705   -7.4558    2.8898 C   0  0  2  0  0  0  0  0  0  0  0  0
  -27.4978   -8.6510    3.6979 C   0  0  0  0  0  0  0  0  0  0  0  0
  -26.8434   -9.5770    3.1807 O   0  0  0  0  0  0  0  0  0  0  0  0
  -29.0443   -7.8359    2.0288 C   0  0  0  0  0  0  0  0  0  0  0  0
  -28.5309   -7.7643    0.5914 C   0  0  0  0  0  0  0  0  0  0  0  0
  -27.4683   -6.6925    0.7195 C   0  0  0  0  0  0  0  0  0  0  0  0
  -27.8767   -8.7365    5.0232 O   0  0  0  0  0  0  0  0  0  0  0  0
  1  2  1  0
  2  3  1  0
  2  5  1  6
  3  4  2  0
  3  6  1  0
  6  7  1  0
  7  8  1  0
  7 10  1  6
  8  9  2  0
  8 11  1  0
 11 12  1  0
 12 13  1  0
 12 15  1  6
 13 14  2  0
 13 19  1  0
 15 16  1  0
 16 17  1  0
 16 18  2  0
 20 19  1  6
 20 21  1  0
 20 23  1  0
 21 22  2  0
 21 26  1  0
 23 24  1  0
 23 25  1  1
 27 26  1  6
 27 28  1  0
 27 30  1  0
 28 29  2  0
 28 33  1  0
 30 31  1  0
 30 32  1  6
 34 33  1  1
 34 35  1  0
 34 37  1  0
 35 36  2  0
 35 40  1  0
 37 38  1  0
 37 39  1  6
 40 41  1  0
 40 46  1  0
 41 42  1  6
 41 44  1  0
 42 43  2  0
 42 47  1  0
 44 45  1  0
 45 46  1  0
M  CHG  1   1   1
M  END
$$$$
