
     RDKit          3D

 47 47  0  0  0  0  0  0  0  0999 V2000
  -21.5135   12.2714    3.5895 N   0  0  0  0  0  4  0  0  0  0  0  0
  -20.8294   11.0391    3.2956 C   0  0  2  0  0  0  0  0  0  0  0  0
  -21.5692   10.3457    2.2099 C   0  0  0  0  0  0  0  0  0  0  0  0
  -22.0984   11.0035    1.3088 O   0  0  0  0  0  0  0  0  0  0  0  0
  -20.8080   10.2023    4.5455 C   0  0  0  0  0  0  0  0  0  0  0  0
  -21.6935    8.9316    2.1674 N   0  0  0  0  0  0  0  0  0  0  0  0
  -22.2456    8.1070    3.1904 C   0  0  2  0  0  0  0  0  0  0  0  0
  -23.1233    7.0279    2.5974 C   0  0  0  0  0  0  0  0  0  0  0  0
  -24.1468    7.2820    1.9306 O   0  0  0  0  0  0  0  0  0  0  0  0
  -23.0952    8.8324    4.2038 C   0  0  0  0  0  0  0  0  0  0  0  0
  -22.7696    5.6658    2.8066 N   0  0  0  0  0  0  0  0  0  0  0  0
  -21.6156    5.0690    2.2230 C   0  0  2  0  0  0  0  0  0  0  0  0
  -21.4521    3.6372    2.6551 C   0  0  0  0  0  0  0  0  0  0  0  0
  -20.8125    3.3660    3.6947 O   0  0  0  0  0  0  0  0  0  0  0  0
  -20.3984    5.8984    2.4890 C   0  0  0  0  0  0  0  0  0  0  0  0
  -19.1670    5.2491    1.9366 C   0  0  0  0  0  0  0  0  0  0  0  0
  -18.1180    4.8795    2.7462 O   0  0  0  0  0  0  0  0  0  0  0  0
  -19.1157    5.0489    0.7034 O   0  0  0  0  0  0  0  0  0  0  0  0
  -22.0044    2.5911    1.9229 N   0  0  0  0  0  0  0  0  0  0  0  0
  -22.6927    1.4329    2.4388 C   0  0  2  0  0  0  0  0  0  0  0  0
  -23.1343    0.5412    1.3712 C   0  0  0  0  0  0  0  0  0  0  0  0
  -22.4379    0.5184    0.2949 O   0  0  0  0  0  0  0  0  0  0  0  0
  -23.6483    1.8202    3.4939 C   0  0  2  0  0  0  0  0  0  0  0  0
  -24.6739    2.6740    3.1031 O   0  0  0  0  0  0  0  0  0  0  0  0
  -23.0358    2.2569    4.8081 C   0  0  0  0  0  0  0  0  0  0  0  0
  -24.2543   -0.3125    1.3678 N   0  0  0  0  0  0  0  0  0  0  0  0
  -24.1798   -1.7735    1.3989 C   0  0  2  0  0  0  0  0  0  0  0  0
  -24.8717   -2.2655    2.6536 C   0  0  0  0  0  0  0  0  0  0  0  0
  -24.7738   -1.5913    3.7149 O   0  0  0  0  0  0  0  0  0  0  0  0
  -22.7989   -2.2641    1.2384 C   0  0  2  0  0  0  0  0  0  0  0  0
  -22.1588   -2.4361    2.4284 O   0  0  0  0  0  0  0  0  0  0  0  0
  -22.0094   -1.4423    0.2229 C   0  0  0  0  0  0  0  0  0  0  0  0
  -25.6227   -3.4433    2.6726 N   0  0  0  0  0  0  0  0  0  0  0  0
  -26.2885   -4.0141    3.8602 C   0  0  2  0  0  0  0  0  0  0  0  0
  -25.9099   -5.4238    4.0653 C   0  0  0  0  0  0  0  0  0  0  0  0
  -25.9326   -6.1918    3.0537 O   0  0  0  0  0  0  0  0  0  0  0  0
  -27.7757   -3.7996    3.6574 C   0  0  2  0  0  0  0  0  0  0  0  0
  -28.2361   -4.4534    2.5165 O   0  0  0  0  0  0  0  0  0  0  0  0
  -28.3127   -2.4334    3.7206 C   0  0  0  0  0  0  0  0  0  0  0  0
  -25.5111   -5.9896    5.3141 N   0  0  0  0  0  0  0  0  0  0  0  0
  -25.1558   -7.3490    5.5682 C   0  0  2  0  0  0  0  0  0  0  0  0
  -26.1024   -8.3367    4.9774 C   0  0  0  0  0  0  0  0  0  0  0  0
  -26.7715   -8.0369    3.9697 O   0  0  0  0  0  0  0  0  0  0  0  0
  -25.2121   -7.5022    7.0638 C   0  0  0  0  0  0  0  0  0  0  0  0
  -25.7925   -6.1875    7.5829 C   0  0  0  0  0  0  0  0  0  0  0  0
  -25.3110   -5.2219    6.5199 C   0  0  0  0  0  0  0  0  0  0  0  0
  -26.2415   -9.5879    5.5453 O   0  0  0  0  0  0  0  0  0  0  0  0
  1  2  1  0
  2  3  1  0
  2  5  1  1
  3  4  2  0
  3  6  1  0
  6  7  1  0
  7  8  1  0
  7 10  1  1
  8  9  2  0
  8 11  1  0
 11 12  1  0
 12 13  1  0
 12 15  1  1
 13 14  2  0
 13 19  1  0
 15 16  1  0
 16 17  1  0
 16 18  2  0
 20 19  1  6
 20 21  1  0
 20 23  1  0
 21 22  2  0
 21 26  1  0
 23 24  1  0
 23 25  1  1
 27 26  1  1
 27 28  1  0
 27 30  1  0
 28 29  2  0
 28 33  1  0
 30 31  1  0
 30 32  1  6
 34 33  1  6
 34 35  1  0
 34 37  1  0
 35 36  2  0
 35 40  1  0
 37 38  1  0
 37 39  1  6
 40 41  1  0
 40 46  1  0
 41 42  1  6
 41 44  1  0
 42 43  2  0
 42 47  1  0
 44 45  1  0
 45 46  1  0
M  CHG  1   1   1
M  END
$$$$
