
     RDKit          3D

 47 47  0  0  0  0  0  0  0  0999 V2000
  -20.4099    9.0011    3.2689 N   0  0  0  0  0  4  0  0  0  0  0  0
  -19.8317    7.7321    3.6269 C   0  0  2  0  0  0  0  0  0  0  0  0
  -20.6115    6.6612    2.9546 C   0  0  0  0  0  0  0  0  0  0  0  0
  -20.2049    5.4956    2.9807 O   0  0  0  0  0  0  0  0  0  0  0  0
  -19.9044    7.5862    5.1224 C   0  0  0  0  0  0  0  0  0  0  0  0
  -21.8272    6.9306    2.2716 N   0  0  0  0  0  0  0  0  0  0  0  0
  -23.1313    6.5422    2.6957 C   0  0  2  0  0  0  0  0  0  0  0  0
  -23.4006    5.0945    2.3520 C   0  0  0  0  0  0  0  0  0  0  0  0
  -24.4345    4.4967    2.7133 O   0  0  0  0  0  0  0  0  0  0  0  0
  -24.2611    7.3369    2.0898 C   0  0  0  0  0  0  0  0  0  0  0  0
  -22.4371    4.3824    1.5847 N   0  0  0  0  0  0  0  0  0  0  0  0
  -22.6228    3.0318    1.1725 C   0  0  2  0  0  0  0  0  0  0  0  0
  -23.0105    2.1473    2.3261 C   0  0  0  0  0  0  0  0  0  0  0  0
  -23.1222    2.6289    3.4745 O   0  0  0  0  0  0  0  0  0  0  0  0
  -21.4189    2.5323    0.4368 C   0  0  0  0  0  0  0  0  0  0  0  0
  -21.7649    1.3754   -0.4493 C   0  0  0  0  0  0  0  0  0  0  0  0
  -23.0243    1.2219   -0.9812 O   0  0  0  0  0  0  0  0  0  0  0  0
  -20.8674    0.5406   -0.6966 O   0  0  0  0  0  0  0  0  0  0  0  0
  -23.2567    0.7896    2.1481 N   0  0  0  0  0  0  0  0  0  0  0  0
  -23.6775   -0.1595    3.1498 C   0  0  2  0  0  0  0  0  0  0  0  0
  -24.1397   -1.4097    2.5555 C   0  0  0  0  0  0  0  0  0  0  0  0
  -25.3695   -1.4748    2.1984 O   0  0  0  0  0  0  0  0  0  0  0  0
  -24.5071    0.4985    4.1770 C   0  0  2  0  0  0  0  0  0  0  0  0
  -24.8918   -0.2972    5.2506 O   0  0  0  0  0  0  0  0  0  0  0  0
  -25.6655    1.3238    3.6575 C   0  0  0  0  0  0  0  0  0  0  0  0
  -23.3949   -2.5821    2.3233 N   0  0  0  0  0  0  0  0  0  0  0  0
  -23.9826   -3.8926    2.0432 C   0  0  2  0  0  0  0  0  0  0  0  0
  -25.2199   -4.0600    2.9012 C   0  0  0  0  0  0  0  0  0  0  0  0
  -25.5895   -3.1075    3.6406 O   0  0  0  0  0  0  0  0  0  0  0  0
  -23.0007   -4.9838    2.1791 C   0  0  2  0  0  0  0  0  0  0  0  0
  -22.5495   -5.1309    3.4560 O   0  0  0  0  0  0  0  0  0  0  0  0
  -21.8903   -4.8935    1.1358 C   0  0  0  0  0  0  0  0  0  0  0  0
  -25.9716   -5.2376    2.8963 N   0  0  0  0  0  0  0  0  0  0  0  0
  -27.2080   -5.4663    3.6699 C   0  0  2  0  0  0  0  0  0  0  0  0
  -27.7483   -6.8176    3.4362 C   0  0  0  0  0  0  0  0  0  0  0  0
  -27.7440   -7.2542    2.2432 O   0  0  0  0  0  0  0  0  0  0  0  0
  -28.1595   -4.3487    3.2898 C   0  0  2  0  0  0  0  0  0  0  0  0
  -28.4397   -4.3574    1.9250 O   0  0  0  0  0  0  0  0  0  0  0  0
  -27.8723   -2.9827    3.7483 C   0  0  0  0  0  0  0  0  0  0  0  0
  -28.2685   -7.6767    4.4510 N   0  0  0  0  0  0  0  0  0  0  0  0
  -28.7053   -9.0271    4.2941 C   0  0  2  0  0  0  0  0  0  0  0  0
  -29.5901   -9.2379    3.1138 C   0  0  0  0  0  0  0  0  0  0  0  0
  -30.4612   -8.3944    2.8260 O   0  0  0  0  0  0  0  0  0  0  0  0
  -29.5112   -9.3305    5.5278 C   0  0  0  0  0  0  0  0  0  0  0  0
  -29.6271   -8.0009    6.2717 C   0  0  0  0  0  0  0  0  0  0  0  0
  -28.3409   -7.3223    5.8483 C   0  0  0  0  0  0  0  0  0  0  0  0
  -29.4477  -10.3694    2.3348 O   0  0  0  0  0  0  0  0  0  0  0  0
  1  2  1  0
  2  3  1  0
  2  5  1  1
  3  4  2  0
  3  6  1  0
  6  7  1  0
  7  8  1  0
  7 10  1  6
  8  9  2  0
  8 11  1  0
 11 12  1  0
 12 13  1  0
 12 15  1  1
 13 14  2  0
 13 19  1  0
 15 16  1  0
 16 17  1  0
 16 18  2  0
 20 19  1  6
 20 21  1  0
 20 23  1  0
 21 22  2  0
 21 26  1  0
 23 24  1  0
 23 25  1  6
 27 26  1  1
 27 28  1  0
 27 30  1  0
 28 29  2  0
 28 33  1  0
 30 31  1  0
 30 32  1  6
 34 33  1  6
 34 35  1  0
 34 37  1  0
 35 36  2  0
 35 40  1  0
 37 38  1  0
 37 39  1  6
 40 41  1  0
 40 46  1  0
 41 42  1  6
 41 44  1  0
 42 43  2  0
 42 47  1  0
 44 45  1  0
 45 46  1  0
M  CHG  1   1   1
M  END
$$$$
