
     RDKit          3D

 47 47  0  0  0  0  0  0  0  0999 V2000
  -22.9946   10.7799   -1.5071 N   0  0  0  0  0  4  0  0  0  0  0  0
  -24.4224   10.6749   -1.6596 C   0  0  2  0  0  0  0  0  0  0  0  0
  -24.9761   10.0573   -0.4273 C   0  0  0  0  0  0  0  0  0  0  0  0
  -26.1956   10.0575   -0.2337 O   0  0  0  0  0  0  0  0  0  0  0  0
  -24.7060    9.8152   -2.8611 C   0  0  0  0  0  0  0  0  0  0  0  0
  -24.1431    9.4562    0.5535 N   0  0  0  0  0  0  0  0  0  0  0  0
  -23.1009   10.1030    1.2792 C   0  0  2  0  0  0  0  0  0  0  0  0
  -22.5269    9.1827    2.3329 C   0  0  0  0  0  0  0  0  0  0  0  0
  -21.3017    8.9831    2.4588 O   0  0  0  0  0  0  0  0  0  0  0  0
  -23.5130   11.3630    1.9987 C   0  0  0  0  0  0  0  0  0  0  0  0
  -23.4184    8.5160    3.2187 N   0  0  0  0  0  0  0  0  0  0  0  0
  -23.0783    7.3084    3.8929 C   0  0  2  0  0  0  0  0  0  0  0  0
  -22.3192    6.3673    2.9975 C   0  0  0  0  0  0  0  0  0  0  0  0
  -21.2913    6.7600    2.4040 O   0  0  0  0  0  0  0  0  0  0  0  0
  -24.2939    6.6797    4.4990 C   0  0  0  0  0  0  0  0  0  0  0  0
  -24.5014    7.1451    5.9074 C   0  0  0  0  0  0  0  0  0  0  0  0
  -23.7408    6.6648    6.9482 O   0  0  0  0  0  0  0  0  0  0  0  0
  -25.3964    7.9930    6.1161 O   0  0  0  0  0  0  0  0  0  0  0  0
  -22.7318    5.0516    2.8121 N   0  0  0  0  0  0  0  0  0  0  0  0
  -21.9179    3.9304    2.4100 C   0  0  2  0  0  0  0  0  0  0  0  0
  -22.7008    2.7047    2.2888 C   0  0  0  0  0  0  0  0  0  0  0  0
  -23.6298    2.5097    3.1507 O   0  0  0  0  0  0  0  0  0  0  0  0
  -20.6533    3.9040    3.1691 C   0  0  2  0  0  0  0  0  0  0  0  0
  -20.6813    3.2125    4.3752 O   0  0  0  0  0  0  0  0  0  0  0  0
  -19.9432    5.2340    3.3107 C   0  0  0  0  0  0  0  0  0  0  0  0
  -22.5614    1.6828    1.3298 N   0  0  0  0  0  0  0  0  0  0  0  0
  -23.3778    0.4692    1.2910 C   0  0  2  0  0  0  0  0  0  0  0  0
  -23.0988   -0.3404    2.5407 C   0  0  0  0  0  0  0  0  0  0  0  0
  -22.1483    0.0013    3.2959 O   0  0  0  0  0  0  0  0  0  0  0  0
  -23.2019   -0.2802    0.0337 C   0  0  2  0  0  0  0  0  0  0  0  0
  -21.9367   -0.7606   -0.1211 O   0  0  0  0  0  0  0  0  0  0  0  0
  -23.7244    0.4912   -1.1752 C   0  0  0  0  0  0  0  0  0  0  0  0
  -23.8666   -1.4544    2.8891 N   0  0  0  0  0  0  0  0  0  0  0  0
  -23.6284   -2.3262    4.0564 C   0  0  2  0  0  0  0  0  0  0  0  0
  -24.4530   -3.5463    3.9956 C   0  0  0  0  0  0  0  0  0  0  0  0
  -25.7115   -3.4114    4.1052 O   0  0  0  0  0  0  0  0  0  0  0  0
  -23.8826   -1.4720    5.2831 C   0  0  2  0  0  0  0  0  0  0  0  0
  -23.1637   -0.2796    5.2342 O   0  0  0  0  0  0  0  0  0  0  0  0
  -23.7723   -2.0862    6.6132 C   0  0  0  0  0  0  0  0  0  0  0  0
  -23.9448   -4.8682    3.8141 N   0  0  0  0  0  0  0  0  0  0  0  0
  -24.7030   -6.0609    3.6104 C   0  0  2  0  0  0  0  0  0  0  0  0
  -25.8502   -6.2100    4.5497 C   0  0  0  0  0  0  0  0  0  0  0  0
  -25.7577   -5.7954    5.7213 O   0  0  0  0  0  0  0  0  0  0  0  0
  -23.7463   -7.1911    3.8765 C   0  0  0  0  0  0  0  0  0  0  0  0
  -22.4764   -6.5284    4.4085 C   0  0  0  0  0  0  0  0  0  0  0  0
  -22.5403   -5.1850    3.7117 C   0  0  0  0  0  0  0  0  0  0  0  0
  -27.0199   -6.8088    4.1247 O   0  0  0  0  0  0  0  0  0  0  0  0
  1  2  1  0
  2  3  1  0
  2  5  1  6
  3  4  2  0
  3  6  1  0
  6  7  1  0
  7  8  1  0
  7 10  1  1
  8  9  2  0
  8 11  1  0
 11 12  1  0
 12 13  1  0
 12 15  1  6
 13 14  2  0
 13 19  1  0
 15 16  1  0
 16 17  1  0
 16 18  2  0
 20 19  1  1
 20 21  1  0
 20 23  1  0
 21 22  2  0
 21 26  1  0
 23 24  1  0
 23 25  1  1
 27 26  1  6
 27 28  1  0
 27 30  1  0
 28 29  2  0
 28 33  1  0
 30 31  1  0
 30 32  1  6
 34 33  1  6
 34 35  1  0
 34 37  1  0
 35 36  2  0
 35 40  1  0
 37 38  1  0
 37 39  1  1
 40 41  1  0
 40 46  1  0
 41 42  1  1
 41 44  1  0
 42 43  2  0
 42 47  1  0
 44 45  1  0
 45 46  1  0
M  CHG  1   1   1
M  END
$$$$
