
     RDKit          3D

 47 47  0  0  0  0  0  0  0  0999 V2000
  -21.3605    9.3879    4.6773 N   0  0  0  0  0  4  0  0  0  0  0  0
  -20.7669    9.7848    3.4271 C   0  0  2  0  0  0  0  0  0  0  0  0
  -20.5756    8.5675    2.5975 C   0  0  0  0  0  0  0  0  0  0  0  0
  -19.6096    8.4902    1.8323 O   0  0  0  0  0  0  0  0  0  0  0  0
  -19.4465   10.4434    3.7205 C   0  0  0  0  0  0  0  0  0  0  0  0
  -21.4759    7.4704    2.6514 N   0  0  0  0  0  0  0  0  0  0  0  0
  -21.2875    6.1998    2.0339 C   0  0  2  0  0  0  0  0  0  0  0  0
  -22.4103    5.2535    2.3953 C   0  0  0  0  0  0  0  0  0  0  0  0
  -23.1412    5.4240    3.3919 O   0  0  0  0  0  0  0  0  0  0  0  0
  -20.0063    5.4954    2.4044 C   0  0  0  0  0  0  0  0  0  0  0  0
  -22.6451    4.1215    1.5661 N   0  0  0  0  0  0  0  0  0  0  0  0
  -23.5215    3.0615    1.9361 C   0  0  2  0  0  0  0  0  0  0  0  0
  -22.7897    1.7525    2.0570 C   0  0  0  0  0  0  0  0  0  0  0  0
  -21.8350    1.4958    1.2916 O   0  0  0  0  0  0  0  0  0  0  0  0
  -24.6895    2.9898    1.0028 C   0  0  0  0  0  0  0  0  0  0  0  0
  -25.4392    4.2860    0.9701 C   0  0  0  0  0  0  0  0  0  0  0  0
  -25.1762    5.2509    0.0256 O   0  0  0  0  0  0  0  0  0  0  0  0
  -26.3224    4.4716    1.8356 O   0  0  0  0  0  0  0  0  0  0  0  0
  -23.1473    0.8075    3.0134 N   0  0  0  0  0  0  0  0  0  0  0  0
  -22.6988   -0.5611    3.0980 C   0  0  2  0  0  0  0  0  0  0  0  0
  -23.2264   -1.3757    2.0081 C   0  0  0  0  0  0  0  0  0  0  0  0
  -24.4157   -1.1208    1.6025 O   0  0  0  0  0  0  0  0  0  0  0  0
  -22.8006   -1.0594    4.4828 C   0  0  2  0  0  0  0  0  0  0  0  0
  -24.0456   -1.5471    4.8645 O   0  0  0  0  0  0  0  0  0  0  0  0
  -22.2070   -0.1636    5.5496 C   0  0  0  0  0  0  0  0  0  0  0  0
  -22.5863   -2.4326    1.3325 N   0  0  0  0  0  0  0  0  0  0  0  0
  -23.2225   -3.2671    0.3129 C   0  0  2  0  0  0  0  0  0  0  0  0
  -23.9029   -4.4337    0.9994 C   0  0  0  0  0  0  0  0  0  0  0  0
  -23.4391   -5.5958    0.8421 O   0  0  0  0  0  0  0  0  0  0  0  0
  -22.2821   -3.6581   -0.7530 C   0  0  2  0  0  0  0  0  0  0  0  0
  -21.1672   -4.2754   -0.2720 O   0  0  0  0  0  0  0  0  0  0  0  0
  -21.9888   -2.5086   -1.7134 C   0  0  0  0  0  0  0  0  0  0  0  0
  -25.0285   -4.2633    1.8092 N   0  0  0  0  0  0  0  0  0  0  0  0
  -25.7503   -5.3444    2.5090 C   0  0  2  0  0  0  0  0  0  0  0  0
  -27.1231   -4.9377    2.8590 C   0  0  0  0  0  0  0  0  0  0  0  0
  -27.2991   -3.7444    3.2577 O   0  0  0  0  0  0  0  0  0  0  0  0
  -24.8963   -5.7209    3.7039 C   0  0  2  0  0  0  0  0  0  0  0  0
  -24.8619   -4.6992    4.6505 O   0  0  0  0  0  0  0  0  0  0  0  0
  -23.5476   -6.2564    3.4742 C   0  0  0  0  0  0  0  0  0  0  0  0
  -28.2719   -5.7815    2.7757 N   0  0  0  0  0  0  0  0  0  0  0  0
  -29.6373   -5.3934    2.9306 C   0  0  2  0  0  0  0  0  0  0  0  0
  -29.8816   -4.5178    4.1113 C   0  0  0  0  0  0  0  0  0  0  0  0
  -29.1271   -4.5772    5.1014 O   0  0  0  0  0  0  0  0  0  0  0  0
  -30.3931   -6.6756    3.1499 C   0  0  0  0  0  0  0  0  0  0  0  0
  -29.3226   -7.7582    3.2800 C   0  0  0  0  0  0  0  0  0  0  0  0
  -28.2218   -7.1784    2.4161 C   0  0  0  0  0  0  0  0  0  0  0  0
  -30.9458   -3.6375    4.1123 O   0  0  0  0  0  0  0  0  0  0  0  0
  1  2  1  0
  2  3  1  0
  2  5  1  1
  3  4  2  0
  3  6  1  0
  6  7  1  0
  7  8  1  0
  7 10  1  1
  8  9  2  0
  8 11  1  0
 11 12  1  0
 12 13  1  0
 12 15  1  6
 13 14  2  0
 13 19  1  0
 15 16  1  0
 16 17  1  0
 16 18  2  0
 20 19  1  1
 20 21  1  0
 20 23  1  0
 21 22  2  0
 21 26  1  0
 23 24  1  0
 23 25  1  1
 27 26  1  1
 27 28  1  0
 27 30  1  0
 28 29  2  0
 28 33  1  0
 30 31  1  0
 30 32  1  1
 34 33  1  1
 34 35  1  0
 34 37  1  0
 35 36  2  0
 35 40  1  0
 37 38  1  0
 37 39  1  6
 40 41  1  0
 40 46  1  0
 41 42  1  1
 41 44  1  0
 42 43  2  0
 42 47  1  0
 44 45  1  0
 45 46  1  0
M  CHG  1   1   1
M  END
$$$$
