
     RDKit          3D

 47 47  0  0  0  0  0  0  0  0999 V2000
  -21.5242   11.6020    2.3555 N   0  0  0  0  0  4  0  0  0  0  0  0
  -21.2909   10.2798    1.8356 C   0  0  2  0  0  0  0  0  0  0  0  0
  -22.4419    9.4217    2.2174 C   0  0  0  0  0  0  0  0  0  0  0  0
  -23.5618    9.9223    2.3592 O   0  0  0  0  0  0  0  0  0  0  0  0
  -20.0138    9.7567    2.4341 C   0  0  0  0  0  0  0  0  0  0  0  0
  -22.3019    8.0244    2.4292 N   0  0  0  0  0  0  0  0  0  0  0  0
  -23.0823    7.0010    1.8170 C   0  0  2  0  0  0  0  0  0  0  0  0
  -22.4499    5.6435    2.0261 C   0  0  0  0  0  0  0  0  0  0  0  0
  -21.7136    5.1044    1.1753 O   0  0  0  0  0  0  0  0  0  0  0  0
  -23.2755    7.1517    0.3287 C   0  0  0  0  0  0  0  0  0  0  0  0
  -22.7030    4.9504    3.2425 N   0  0  0  0  0  0  0  0  0  0  0  0
  -22.3946    3.5719    3.4248 C   0  0  2  0  0  0  0  0  0  0  0  0
  -23.0133    2.7177    2.3519 C   0  0  0  0  0  0  0  0  0  0  0  0
  -23.4940    3.2496    1.3275 O   0  0  0  0  0  0  0  0  0  0  0  0
  -22.7607    3.1254    4.8057 C   0  0  0  0  0  0  0  0  0  0  0  0
  -22.0684    3.9518    5.8454 C   0  0  0  0  0  0  0  0  0  0  0  0
  -21.1455    3.4064    6.7075 O   0  0  0  0  0  0  0  0  0  0  0  0
  -22.3549    5.1672    5.9111 O   0  0  0  0  0  0  0  0  0  0  0  0
  -23.0623    1.3321    2.4664 N   0  0  0  0  0  0  0  0  0  0  0  0
  -23.1570    0.3708    1.3948 C   0  0  2  0  0  0  0  0  0  0  0  0
  -23.3351   -0.9882    1.8962 C   0  0  0  0  0  0  0  0  0  0  0  0
  -23.0802   -1.9529    1.0910 O   0  0  0  0  0  0  0  0  0  0  0  0
  -22.1294    0.6298    0.3684 C   0  0  2  0  0  0  0  0  0  0  0  0
  -20.9501   -0.0968    0.4904 O   0  0  0  0  0  0  0  0  0  0  0  0
  -21.8520    2.0879    0.0688 C   0  0  0  0  0  0  0  0  0  0  0  0
  -23.7655   -1.3862    3.1767 N   0  0  0  0  0  0  0  0  0  0  0  0
  -23.8508   -2.7765    3.6246 C   0  0  2  0  0  0  0  0  0  0  0  0
  -25.2053   -3.3286    3.2301 C   0  0  0  0  0  0  0  0  0  0  0  0
  -26.1914   -2.5458    3.1575 O   0  0  0  0  0  0  0  0  0  0  0  0
  -23.5334   -2.9205    5.0571 C   0  0  2  0  0  0  0  0  0  0  0  0
  -24.4649   -2.3406    5.8643 O   0  0  0  0  0  0  0  0  0  0  0  0
  -22.0975   -2.5108    5.3735 C   0  0  0  0  0  0  0  0  0  0  0  0
  -25.3979   -4.6809    2.9371 N   0  0  0  0  0  0  0  0  0  0  0  0
  -26.6963   -5.3134    2.6312 C   0  0  2  0  0  0  0  0  0  0  0  0
  -27.1814   -6.1237    3.7627 C   0  0  0  0  0  0  0  0  0  0  0  0
  -26.3480   -6.8933    4.3346 O   0  0  0  0  0  0  0  0  0  0  0  0
  -26.4936   -6.1016    1.3519 C   0  0  2  0  0  0  0  0  0  0  0  0
  -25.6864   -7.2177    1.5610 O   0  0  0  0  0  0  0  0  0  0  0  0
  -26.0826   -5.3890    0.1345 C   0  0  0  0  0  0  0  0  0  0  0  0
  -28.5158   -6.1027    4.2703 N   0  0  0  0  0  0  0  0  0  0  0  0
  -29.0155   -6.8103    5.4054 C   0  0  2  0  0  0  0  0  0  0  0  0
  -28.6048   -8.2421    5.4481 C   0  0  0  0  0  0  0  0  0  0  0  0
  -28.1039   -8.7797    4.4415 O   0  0  0  0  0  0  0  0  0  0  0  0
  -30.5135   -6.7697    5.2719 C   0  0  0  0  0  0  0  0  0  0  0  0
  -30.7801   -6.1496    3.9010 C   0  0  0  0  0  0  0  0  0  0  0  0
  -29.5642   -5.2596    3.7474 C   0  0  0  0  0  0  0  0  0  0  0  0
  -28.7785   -8.9783    6.6036 O   0  0  0  0  0  0  0  0  0  0  0  0
  1  2  1  0
  2  3  1  0
  2  5  1  1
  3  4  2  0
  3  6  1  0
  6  7  1  0
  7  8  1  0
  7 10  1  6
  8  9  2  0
  8 11  1  0
 11 12  1  0
 12 13  1  0
 12 15  1  1
 13 14  2  0
 13 19  1  0
 15 16  1  0
 16 17  1  0
 16 18  2  0
 20 19  1  1
 20 21  1  0
 20 23  1  0
 21 22  2  0
 21 26  1  0
 23 24  1  0
 23 25  1  1
 27 26  1  1
 27 28  1  0
 27 30  1  0
 28 29  2  0
 28 33  1  0
 30 31  1  0
 30 32  1  6
 34 33  1  1
 34 35  1  0
 34 37  1  0
 35 36  2  0
 35 40  1  0
 37 38  1  0
 37 39  1  6
 40 41  1  0
 40 46  1  0
 41 42  1  6
 41 44  1  0
 42 43  2  0
 42 47  1  0
 44 45  1  0
 45 46  1  0
M  CHG  1   1   1
M  END
$$$$
