
     RDKit          3D

 47 47  0  0  0  0  0  0  0  0999 V2000
  -21.5211   10.3694    3.8971 N   0  0  0  0  0  4  0  0  0  0  0  0
  -20.6845   10.4689    2.7296 C   0  0  2  0  0  0  0  0  0  0  0  0
  -20.5284    9.1083    2.1540 C   0  0  0  0  0  0  0  0  0  0  0  0
  -19.7275    8.9181    1.2335 O   0  0  0  0  0  0  0  0  0  0  0  0
  -19.3522   11.0263    3.1505 C   0  0  0  0  0  0  0  0  0  0  0  0
  -21.2770    7.9990    2.6294 N   0  0  0  0  0  0  0  0  0  0  0  0
  -21.0004    6.6258    2.3664 C   0  0  2  0  0  0  0  0  0  0  0  0
  -22.1489    5.7498    2.8135 C   0  0  0  0  0  0  0  0  0  0  0  0
  -23.2447    6.2139    3.1886 O   0  0  0  0  0  0  0  0  0  0  0  0
  -19.7671    6.0834    3.0445 C   0  0  0  0  0  0  0  0  0  0  0  0
  -21.9757    4.3377    2.8069 N   0  0  0  0  0  0  0  0  0  0  0  0
  -22.9705    3.4396    2.3250 C   0  0  2  0  0  0  0  0  0  0  0  0
  -22.4981    2.0118    2.3690 C   0  0  0  0  0  0  0  0  0  0  0  0
  -21.8525    1.5361    1.4098 O   0  0  0  0  0  0  0  0  0  0  0  0
  -23.4440    3.8530    0.9667 C   0  0  0  0  0  0  0  0  0  0  0  0
  -24.8895    3.5144    0.7687 C   0  0  0  0  0  0  0  0  0  0  0  0
  -25.7604    3.4099    1.8284 O   0  0  0  0  0  0  0  0  0  0  0  0
  -25.2901    3.3262   -0.4007 O   0  0  0  0  0  0  0  0  0  0  0  0
  -22.7588    1.1952    3.4647 N   0  0  0  0  0  0  0  0  0  0  0  0
  -22.4249   -0.2006    3.6117 C   0  0  2  0  0  0  0  0  0  0  0  0
  -23.3822   -1.0646    2.9283 C   0  0  0  0  0  0  0  0  0  0  0  0
  -24.5144   -0.5549    2.6086 O   0  0  0  0  0  0  0  0  0  0  0  0
  -22.0499   -0.5040    5.0059 C   0  0  2  0  0  0  0  0  0  0  0  0
  -23.0943   -0.5411    5.9232 O   0  0  0  0  0  0  0  0  0  0  0  0
  -20.8634    0.2637    5.5498 C   0  0  0  0  0  0  0  0  0  0  0  0
  -23.2220   -2.4175    2.5713 N   0  0  0  0  0  0  0  0  0  0  0  0
  -24.2893   -3.2622    2.0344 C   0  0  2  0  0  0  0  0  0  0  0  0
  -24.8046   -4.1537    3.1456 C   0  0  0  0  0  0  0  0  0  0  0  0
  -24.0654   -4.3864    4.1406 O   0  0  0  0  0  0  0  0  0  0  0  0
  -23.8680   -3.9889    0.8228 C   0  0  2  0  0  0  0  0  0  0  0  0
  -22.8497   -4.8622    1.0593 O   0  0  0  0  0  0  0  0  0  0  0  0
  -23.6191   -3.0506   -0.3550 C   0  0  0  0  0  0  0  0  0  0  0  0
  -26.0792   -4.7244    3.1074 N   0  0  0  0  0  0  0  0  0  0  0  0
  -26.6481   -5.6167    4.1368 C   0  0  2  0  0  0  0  0  0  0  0  0
  -26.7206   -7.0102    3.6622 C   0  0  0  0  0  0  0  0  0  0  0  0
  -27.1125   -7.2055    2.4697 O   0  0  0  0  0  0  0  0  0  0  0  0
  -27.9915   -5.0249    4.5162 C   0  0  2  0  0  0  0  0  0  0  0  0
  -28.8765   -5.0333    3.4402 O   0  0  0  0  0  0  0  0  0  0  0  0
  -28.0287   -3.7272    5.2041 C   0  0  0  0  0  0  0  0  0  0  0  0
  -26.3756   -8.1573    4.4392 N   0  0  0  0  0  0  0  0  0  0  0  0
  -26.4691   -9.5255    4.0415 C   0  0  2  0  0  0  0  0  0  0  0  0
  -27.7620   -9.8728    3.3870 C   0  0  0  0  0  0  0  0  0  0  0  0
  -28.2019   -9.1687    2.4576 O   0  0  0  0  0  0  0  0  0  0  0  0
  -26.3768  -10.3180    5.3170 C   0  0  0  0  0  0  0  0  0  0  0  0
  -26.4067   -9.2815    6.4394 C   0  0  0  0  0  0  0  0  0  0  0  0
  -25.7720   -8.0923    5.7487 C   0  0  0  0  0  0  0  0  0  0  0  0
  -28.4773  -10.9763    3.8088 O   0  0  0  0  0  0  0  0  0  0  0  0
  1  2  1  0
  2  3  1  0
  2  5  1  1
  3  4  2  0
  3  6  1  0
  6  7  1  0
  7  8  1  0
  7 10  1  1
  8  9  2  0
  8 11  1  0
 11 12  1  0
 12 13  1  0
 12 15  1  6
 13 14  2  0
 13 19  1  0
 15 16  1  0
 16 17  1  0
 16 18  2  0
 20 19  1  1
 20 21  1  0
 20 23  1  0
 21 22  2  0
 21 26  1  0
 23 24  1  0
 23 25  1  1
 27 26  1  1
 27 28  1  0
 27 30  1  0
 28 29  2  0
 28 33  1  0
 30 31  1  0
 30 32  1  6
 34 33  1  6
 34 35  1  0
 34 37  1  0
 35 36  2  0
 35 40  1  0
 37 38  1  0
 37 39  1  6
 40 41  1  0
 40 46  1  0
 41 42  1  1
 41 44  1  0
 42 43  2  0
 42 47  1  0
 44 45  1  0
 45 46  1  0
M  CHG  1   1   1
M  END
$$$$
