
     RDKit          3D

 30 35  0  0  0  0  0  0  0  0999 V2000
    8.4577   61.7525   -5.0312 C   0  0  0  0  0  0  0  0  0  0  0  0
    8.9562   60.7843   -4.1825 C   0  0  0  0  0  0  0  0  0  0  0  0
    8.1856   59.7393   -3.7187 C   0  0  0  0  0  0  0  0  0  0  0  0
    6.8505   59.6500   -4.1177 C   0  0  0  0  0  0  0  0  0  0  0  0
    6.3274   60.6039   -4.9650 C   0  0  0  0  0  0  0  0  0  0  0  0
    7.1269   61.6368   -5.4104 C   0  0  0  0  0  0  0  0  0  0  0  0
    4.9213   60.4779   -5.3629 C   0  0  0  0  0  0  0  0  0  0  0  0
    9.2855   62.8428   -5.5070 C   0  0  0  0  0  0  0  0  0  0  0  0
    9.7640   63.8766   -4.7123 C   0  0  0  0  0  0  0  0  0  0  0  0
   10.4746   64.6503   -5.5505 N   0  0  0  0  0  0  0  0  0  0  0  0
   10.4454   64.1525   -6.7522 O   0  0  0  0  0  0  0  0  0  0  0  0
    9.7483   63.0617   -6.8091 C   0  0  0  0  0  0  0  0  0  0  0  0
    9.4522   62.1776   -7.9487 C   0  0  0  0  0  0  0  0  0  0  0  0
    9.5140   64.0426   -3.2550 C   0  0  0  0  0  0  0  0  0  0  0  0
    8.4694   58.7065   -2.8989 N   0  0  0  0  0  0  0  0  0  0  0  0
    7.3347   57.9659   -2.7736 C   0  0  0  0  0  0  0  0  0  0  0  0
    6.3663   58.5475   -3.5146 N   0  0  0  0  0  0  0  0  0  0  0  0
    7.2389   56.7343   -1.9461 C   0  0  2  0  0  0  0  0  0  0  0  0
    7.9525   56.7047   -0.6198 C   0  0  0  0  0  0  0  0  0  0  0  0
    8.3907   55.8544   -1.7426 C   0  0  0  0  0  0  0  0  0  0  0  0
    3.9324   61.0015   -4.5407 C   0  0  0  0  0  0  0  0  0  0  0  0
    2.6174   60.8637   -4.9490 C   0  0  0  0  0  0  0  0  0  0  0  0
    2.3068   60.2216   -6.1424 C   0  0  0  0  0  0  0  0  0  0  0  0
    3.3217   59.7192   -6.9231 C   0  0  0  0  0  0  0  0  0  0  0  0
    4.6408   59.8410   -6.5434 C   0  0  0  0  0  0  0  0  0  0  0  0
    4.2246   61.6383   -3.3590 C   0  0  0  0  0  0  0  0  0  0  0  0
    3.2258   62.1492   -2.5611 C   0  0  0  0  0  0  0  0  0  0  0  0
    1.9227   62.0033   -2.9824 C   0  0  0  0  0  0  0  0  0  0  0  0
    1.6594   61.3699   -4.1544 N   0  0  0  0  0  0  0  0  0  0  0  0
    5.7372   59.2879   -7.4054 C   0  0  0  0  0  0  0  0  0  0  0  0
  1  2  2  0
  1  6  1  0
  1  8  1  0
  2  3  1  0
  3  4  2  0
  3 15  1  0
  4  5  1  0
  4 17  1  0
  5  6  2  0
  5  7  1  0
  7 21  2  0
  7 25  1  0
  8  9  1  0
  8 12  2  0
  9 10  2  0
  9 14  1  0
 10 11  1  0
 11 12  1  0
 12 13  1  0
 15 16  1  0
 16 17  2  0
 18 16  1  6
 18 19  1  0
 18 20  1  0
 19 20  1  0
 21 22  1  0
 21 26  1  0
 22 23  2  0
 22 29  1  0
 23 24  1  0
 24 25  2  0
 25 30  1  0
 26 27  2  0
 27 28  1  0
 28 29  2  0
M  END
$$$$
