
     RDKit          3D

 30 35  0  0  0  0  0  0  0  0999 V2000
    7.9514   61.7891   -5.1050 C   0  0  0  0  0  0  0  0  0  0  0  0
    6.7212   62.3712   -4.8727 C   0  0  0  0  0  0  0  0  0  0  0  0
    5.7015   61.7106   -4.2209 C   0  0  0  0  0  0  0  0  0  0  0  0
    5.9132   60.4040   -3.7763 C   0  0  0  0  0  0  0  0  0  0  0  0
    7.1327   59.7990   -3.9954 C   0  0  0  0  0  0  0  0  0  0  0  0
    8.1318   60.4893   -4.6513 C   0  0  0  0  0  0  0  0  0  0  0  0
    7.3190   58.4259   -3.5144 C   0  0  0  0  0  0  0  0  0  0  0  0
    9.0097   62.5018   -5.7924 C   0  0  0  0  0  0  0  0  0  0  0  0
    9.9896   63.2595   -5.1640 C   0  0  0  0  0  0  0  0  0  0  0  0
   10.7501   63.7323   -6.1661 N   0  0  0  0  0  0  0  0  0  0  0  0
   10.2937   63.3135   -7.3102 O   0  0  0  0  0  0  0  0  0  0  0  0
    9.2449   62.5654   -7.1701 C   0  0  0  0  0  0  0  0  0  0  0  0
    8.4156   61.8872   -8.1801 C   0  0  0  0  0  0  0  0  0  0  0  0
   10.1220   63.4687   -3.6968 C   0  0  0  0  0  0  0  0  0  0  0  0
    4.4475   62.0874   -3.8971 N   0  0  0  0  0  0  0  0  0  0  0  0
    3.8634   61.0395   -3.2548 C   0  0  0  0  0  0  0  0  0  0  0  0
    4.7599   60.0310   -3.1894 N   0  0  0  0  0  0  0  0  0  0  0  0
    2.4704   61.0612   -2.7356 C   0  0  2  0  0  0  0  0  0  0  0  0
    1.4776   61.9890   -3.3856 C   0  0  0  0  0  0  0  0  0  0  0  0
    1.9415   62.2129   -2.0035 C   0  0  0  0  0  0  0  0  0  0  0  0
    6.5378   57.4078   -4.0449 C   0  0  0  0  0  0  0  0  0  0  0  0
    6.7419   56.1254   -3.5667 C   0  0  0  0  0  0  0  0  0  0  0  0
    7.6980   55.8747   -2.5890 C   0  0  0  0  0  0  0  0  0  0  0  0
    8.4475   56.9166   -2.0943 C   0  0  0  0  0  0  0  0  0  0  0  0
    8.2674   58.2044   -2.5506 C   0  0  0  0  0  0  0  0  0  0  0  0
    5.5894   57.6409   -5.0112 C   0  0  0  0  0  0  0  0  0  0  0  0
    4.8274   56.6141   -5.5213 C   0  0  0  0  0  0  0  0  0  0  0  0
    5.0435   55.3441   -5.0342 C   0  0  0  0  0  0  0  0  0  0  0  0
    5.9867   55.1392   -4.0791 N   0  0  0  0  0  0  0  0  0  0  0  0
    9.0925   59.3308   -2.0015 C   0  0  0  0  0  0  0  0  0  0  0  0
  1  2  2  0
  1  6  1  0
  1  8  1  0
  2  3  1  0
  3  4  2  0
  3 15  1  0
  4  5  1  0
  4 17  1  0
  5  6  2  0
  5  7  1  0
  7 21  2  0
  7 25  1  0
  8  9  1  0
  8 12  2  0
  9 10  2  0
  9 14  1  0
 10 11  1  0
 11 12  1  0
 12 13  1  0
 15 16  1  0
 16 17  2  0
 18 16  1  6
 18 19  1  0
 18 20  1  0
 19 20  1  0
 21 22  1  0
 21 26  1  0
 22 23  2  0
 22 29  1  0
 23 24  1  0
 24 25  2  0
 25 30  1  0
 26 27  2  0
 27 28  1  0
 28 29  2  0
M  END
$$$$
