
     RDKit          3D

 30 35  0  0  0  0  0  0  0  0999 V2000
    8.3264   61.6419   -5.0609 C   0  0  0  0  0  0  0  0  0  0  0  0
    8.8821   60.6220   -4.3144 C   0  0  0  0  0  0  0  0  0  0  0  0
    8.1415   59.5538   -3.8545 C   0  0  0  0  0  0  0  0  0  0  0  0
    6.7783   59.4941   -4.1507 C   0  0  0  0  0  0  0  0  0  0  0  0
    6.1981   60.4998   -4.8946 C   0  0  0  0  0  0  0  0  0  0  0  0
    6.9688   61.5548   -5.3392 C   0  0  0  0  0  0  0  0  0  0  0  0
    4.7638   60.4037   -5.1863 C   0  0  0  0  0  0  0  0  0  0  0  0
    9.1234   62.7559   -5.5344 C   0  0  0  0  0  0  0  0  0  0  0  0
    9.8271   63.6289   -4.7146 C   0  0  0  0  0  0  0  0  0  0  0  0
   10.4136   64.4930   -5.5605 N   0  0  0  0  0  0  0  0  0  0  0  0
   10.1089   64.1931   -6.7892 O   0  0  0  0  0  0  0  0  0  0  0  0
    9.3337   63.1570   -6.8582 C   0  0  0  0  0  0  0  0  0  0  0  0
    8.7511   62.4781   -8.0276 C   0  0  0  0  0  0  0  0  0  0  0  0
    9.8847   63.5735   -3.2289 C   0  0  0  0  0  0  0  0  0  0  0  0
    8.4803   58.4719   -3.1237 N   0  0  0  0  0  0  0  0  0  0  0  0
    7.3527   57.7295   -2.9534 C   0  0  0  0  0  0  0  0  0  0  0  0
    6.3338   58.3589   -3.5786 N   0  0  0  0  0  0  0  0  0  0  0  0
    7.3120   56.4503   -2.1967 C   0  0  2  0  0  0  0  0  0  0  0  0
    8.0445   56.3711   -0.8829 C   0  0  0  0  0  0  0  0  0  0  0  0
    8.4968   55.6023   -2.0576 C   0  0  0  0  0  0  0  0  0  0  0  0
    4.3496   59.8229   -6.3776 C   0  0  0  0  0  0  0  0  0  0  0  0
    2.9889   59.7498   -6.6181 C   0  0  0  0  0  0  0  0  0  0  0  0
    2.0757   60.2434   -5.6932 C   0  0  0  0  0  0  0  0  0  0  0  0
    2.5348   60.8101   -4.5270 C   0  0  0  0  0  0  0  0  0  0  0  0
    3.8837   60.8972   -4.2591 C   0  0  0  0  0  0  0  0  0  0  0  0
    5.2406   59.3311   -7.3005 C   0  0  0  0  0  0  0  0  0  0  0  0
    4.8047   58.7597   -8.4747 C   0  0  0  0  0  0  0  0  0  0  0  0
    3.4472   58.6950   -8.6980 C   0  0  0  0  0  0  0  0  0  0  0  0
    2.5866   59.1881   -7.7705 N   0  0  0  0  0  0  0  0  0  0  0  0
    4.3696   61.5181   -2.9826 C   0  0  0  0  0  0  0  0  0  0  0  0
  1  2  2  0
  1  6  1  0
  1  8  1  0
  2  3  1  0
  3  4  2  0
  3 15  1  0
  4  5  1  0
  4 17  1  0
  5  6  2  0
  5  7  1  0
  7 21  2  0
  7 25  1  0
  8  9  1  0
  8 12  2  0
  9 10  2  0
  9 14  1  0
 10 11  1  0
 11 12  1  0
 12 13  1  0
 15 16  1  0
 16 17  2  0
 18 16  1  6
 18 19  1  0
 18 20  1  0
 19 20  1  0
 21 22  1  0
 21 26  1  0
 22 23  2  0
 22 29  1  0
 23 24  1  0
 24 25  2  0
 25 30  1  0
 26 27  2  0
 27 28  1  0
 28 29  2  0
M  END
$$$$
