
     RDKit          3D

 30 35  0  0  0  0  0  0  0  0999 V2000
    8.4942   61.8749   -4.7987 C   0  0  0  0  0  0  0  0  0  0  0  0
    9.0571   60.8400   -4.0787 C   0  0  0  0  0  0  0  0  0  0  0  0
    8.3183   59.7693   -3.6217 C   0  0  0  0  0  0  0  0  0  0  0  0
    6.9494   59.7227   -3.8932 C   0  0  0  0  0  0  0  0  0  0  0  0
    6.3620   60.7434   -4.6104 C   0  0  0  0  0  0  0  0  0  0  0  0
    7.1312   61.8005   -5.0528 C   0  0  0  0  0  0  0  0  0  0  0  0
    4.9220   60.6608   -4.8766 C   0  0  0  0  0  0  0  0  0  0  0  0
    9.2895   62.9911   -5.2696 C   0  0  0  0  0  0  0  0  0  0  0  0
   10.0309   63.8340   -4.4516 C   0  0  0  0  0  0  0  0  0  0  0  0
   10.6003   64.7128   -5.2940 N   0  0  0  0  0  0  0  0  0  0  0  0
   10.2516   64.4486   -6.5192 O   0  0  0  0  0  0  0  0  0  0  0  0
    9.4614   63.4240   -6.5890 C   0  0  0  0  0  0  0  0  0  0  0  0
    8.8320   62.7828   -7.7554 C   0  0  0  0  0  0  0  0  0  0  0  0
   10.1365   63.7393   -2.9705 C   0  0  0  0  0  0  0  0  0  0  0  0
    8.6636   58.6740   -2.9143 N   0  0  0  0  0  0  0  0  0  0  0  0
    7.5346   57.9360   -2.7344 C   0  0  0  0  0  0  0  0  0  0  0  0
    6.5083   58.5814   -3.3306 N   0  0  0  0  0  0  0  0  0  0  0  0
    7.4997   56.6454   -1.9971 C   0  0  2  0  0  0  0  0  0  0  0  0
    7.9384   56.6311   -0.5561 C   0  0  0  0  0  0  0  0  0  0  0  0
    8.7273   55.9533   -1.6019 C   0  0  0  0  0  0  0  0  0  0  0  0
    4.4752   59.9587   -5.9882 C   0  0  0  0  0  0  0  0  0  0  0  0
    3.1100   59.9025   -6.2069 C   0  0  0  0  0  0  0  0  0  0  0  0
    2.2241   60.5302   -5.3385 C   0  0  0  0  0  0  0  0  0  0  0  0
    2.7151   61.2140   -4.2506 C   0  0  0  0  0  0  0  0  0  0  0  0
    4.0692   61.2877   -4.0063 C   0  0  0  0  0  0  0  0  0  0  0  0
    5.3389   59.3336   -6.8546 C   0  0  0  0  0  0  0  0  0  0  0  0
    4.8709   58.6434   -7.9500 C   0  0  0  0  0  0  0  0  0  0  0  0
    3.5094   58.5975   -8.1527 C   0  0  0  0  0  0  0  0  0  0  0  0
    2.6762   59.2234   -7.2821 N   0  0  0  0  0  0  0  0  0  0  0  0
    4.5900   62.0373   -2.8154 C   0  0  0  0  0  0  0  0  0  0  0  0
  1  2  2  0
  1  6  1  0
  1  8  1  0
  2  3  1  0
  3  4  2  0
  3 15  1  0
  4  5  1  0
  4 17  1  0
  5  6  2  0
  5  7  1  0
  7 21  2  0
  7 25  1  0
  8  9  1  0
  8 12  2  0
  9 10  2  0
  9 14  1  0
 10 11  1  0
 11 12  1  0
 12 13  1  0
 15 16  1  0
 16 17  2  0
 18 16  1  6
 18 19  1  0
 18 20  1  0
 19 20  1  0
 21 22  1  0
 21 26  1  0
 22 23  2  0
 22 29  1  0
 23 24  1  0
 24 25  2  0
 25 30  1  0
 26 27  2  0
 27 28  1  0
 28 29  2  0
M  END
$$$$
