
     RDKit          3D

 30 35  0  0  0  0  0  0  0  0999 V2000
    8.2120   61.5923   -5.1885 C   0  0  0  0  0  0  0  0  0  0  0  0
    8.7615   60.5822   -4.4244 C   0  0  0  0  0  0  0  0  0  0  0  0
    8.0179   59.5183   -3.9594 C   0  0  0  0  0  0  0  0  0  0  0  0
    6.6578   59.4530   -4.2687 C   0  0  0  0  0  0  0  0  0  0  0  0
    6.0837   60.4488   -5.0303 C   0  0  0  0  0  0  0  0  0  0  0  0
    6.8574   61.4997   -5.4795 C   0  0  0  0  0  0  0  0  0  0  0  0
    4.6527   60.3470   -5.3353 C   0  0  0  0  0  0  0  0  0  0  0  0
    9.0121   62.7018   -5.6671 C   0  0  0  0  0  0  0  0  0  0  0  0
    9.6587   63.6202   -4.8499 C   0  0  0  0  0  0  0  0  0  0  0  0
   10.2715   64.4613   -5.7003 N   0  0  0  0  0  0  0  0  0  0  0  0
   10.0338   64.1069   -6.9293 O   0  0  0  0  0  0  0  0  0  0  0  0
    9.2813   63.0540   -6.9942 C   0  0  0  0  0  0  0  0  0  0  0  0
    8.7697   62.3180   -8.1623 C   0  0  0  0  0  0  0  0  0  0  0  0
    9.6429   63.6251   -3.3621 C   0  0  0  0  0  0  0  0  0  0  0  0
    8.3509   58.4458   -3.2124 N   0  0  0  0  0  0  0  0  0  0  0  0
    7.2226   57.7036   -3.0447 C   0  0  0  0  0  0  0  0  0  0  0  0
    6.2092   58.3239   -3.6877 N   0  0  0  0  0  0  0  0  0  0  0  0
    7.1762   56.4334   -2.2733 C   0  0  2  0  0  0  0  0  0  0  0  0
    7.9026   56.3683   -0.9553 C   0  0  0  0  0  0  0  0  0  0  0  0
    8.3588   55.5850   -2.1189 C   0  0  0  0  0  0  0  0  0  0  0  0
    4.2546   59.9440   -6.6031 C   0  0  0  0  0  0  0  0  0  0  0  0
    2.8964   59.8596   -6.8539 C   0  0  0  0  0  0  0  0  0  0  0  0
    1.9699   60.1695   -5.8647 C   0  0  0  0  0  0  0  0  0  0  0  0
    2.4133   60.5641   -4.6238 C   0  0  0  0  0  0  0  0  0  0  0  0
    3.7593   60.6577   -4.3439 C   0  0  0  0  0  0  0  0  0  0  0  0
    5.1589   59.6348   -7.5902 C   0  0  0  0  0  0  0  0  0  0  0  0
    4.7389   59.2376   -8.8396 C   0  0  0  0  0  0  0  0  0  0  0  0
    3.3837   59.1589   -9.0721 C   0  0  0  0  0  0  0  0  0  0  0  0
    2.5098   59.4698   -8.0803 N   0  0  0  0  0  0  0  0  0  0  0  0
    4.2279   61.0896   -2.9855 C   0  0  0  0  0  0  0  0  0  0  0  0
  1  2  2  0
  1  6  1  0
  1  8  1  0
  2  3  1  0
  3  4  2  0
  3 15  1  0
  4  5  1  0
  4 17  1  0
  5  6  2  0
  5  7  1  0
  7 21  2  0
  7 25  1  0
  8  9  1  0
  8 12  2  0
  9 10  2  0
  9 14  1  0
 10 11  1  0
 11 12  1  0
 12 13  1  0
 15 16  1  0
 16 17  2  0
 18 16  1  6
 18 19  1  0
 18 20  1  0
 19 20  1  0
 21 22  1  0
 21 26  1  0
 22 23  2  0
 22 29  1  0
 23 24  1  0
 24 25  2  0
 25 30  1  0
 26 27  2  0
 27 28  1  0
 28 29  2  0
M  END
$$$$
