
     RDKit          3D

 30 35  0  0  0  0  0  0  0  0999 V2000
    7.9819   61.6725   -4.9873 C   0  0  0  0  0  0  0  0  0  0  0  0
    8.5454   60.6443   -4.2583 C   0  0  0  0  0  0  0  0  0  0  0  0
    7.8141   59.5604   -3.8208 C   0  0  0  0  0  0  0  0  0  0  0  0
    6.4524   59.4929   -4.1222 C   0  0  0  0  0  0  0  0  0  0  0  0
    5.8645   60.5065   -4.8490 C   0  0  0  0  0  0  0  0  0  0  0  0
    6.6261   61.5772   -5.2714 C   0  0  0  0  0  0  0  0  0  0  0  0
    4.4321   60.4018   -5.1469 C   0  0  0  0  0  0  0  0  0  0  0  0
    8.7692   62.8029   -5.4375 C   0  0  0  0  0  0  0  0  0  0  0  0
    9.3948   63.7150   -4.5972 C   0  0  0  0  0  0  0  0  0  0  0  0
   10.0021   64.5813   -5.4258 N   0  0  0  0  0  0  0  0  0  0  0  0
    9.7804   64.2471   -6.6635 O   0  0  0  0  0  0  0  0  0  0  0  0
    9.0445   63.1845   -6.7552 C   0  0  0  0  0  0  0  0  0  0  0  0
    8.5542   62.4635   -7.9416 C   0  0  0  0  0  0  0  0  0  0  0  0
    9.3661   63.6910   -3.1098 C   0  0  0  0  0  0  0  0  0  0  0  0
    8.1615   58.4685   -3.1092 N   0  0  0  0  0  0  0  0  0  0  0  0
    7.0408   57.7120   -2.9563 C   0  0  0  0  0  0  0  0  0  0  0  0
    6.0175   58.3429   -3.5728 N   0  0  0  0  0  0  0  0  0  0  0  0
    7.0105   56.4185   -2.2237 C   0  0  2  0  0  0  0  0  0  0  0  0
    7.4546   56.3994   -0.7844 C   0  0  0  0  0  0  0  0  0  0  0  0
    8.2407   55.7267   -1.8357 C   0  0  0  0  0  0  0  0  0  0  0  0
    4.0286   59.9318   -6.3896 C   0  0  0  0  0  0  0  0  0  0  0  0
    2.6693   59.8468   -6.6343 C   0  0  0  0  0  0  0  0  0  0  0  0
    1.7471   60.2213   -5.6636 C   0  0  0  0  0  0  0  0  0  0  0  0
    2.1958   60.6810   -4.4473 C   0  0  0  0  0  0  0  0  0  0  0  0
    3.5430   60.7770   -4.1740 C   0  0  0  0  0  0  0  0  0  0  0  0
    4.9285   59.5582   -7.3581 C   0  0  0  0  0  0  0  0  0  0  0  0
    4.5032   59.0951   -8.5828 C   0  0  0  0  0  0  0  0  0  0  0  0
    3.1469   59.0169   -8.8096 C   0  0  0  0  0  0  0  0  0  0  0  0
    2.2773   59.3921   -7.8364 N   0  0  0  0  0  0  0  0  0  0  0  0
    4.0175   61.2803   -2.8426 C   0  0  0  0  0  0  0  0  0  0  0  0
  1  2  2  0
  1  6  1  0
  1  8  1  0
  2  3  1  0
  3  4  2  0
  3 15  1  0
  4  5  1  0
  4 17  1  0
  5  6  2  0
  5  7  1  0
  7 21  2  0
  7 25  1  0
  8  9  1  0
  8 12  2  0
  9 10  2  0
  9 14  1  0
 10 11  1  0
 11 12  1  0
 12 13  1  0
 15 16  1  0
 16 17  2  0
 18 16  1  6
 18 19  1  0
 18 20  1  0
 19 20  1  0
 21 22  1  0
 21 26  1  0
 22 23  2  0
 22 29  1  0
 23 24  1  0
 24 25  2  0
 25 30  1  0
 26 27  2  0
 27 28  1  0
 28 29  2  0
M  END
$$$$
