
     RDKit          3D

 30 35  0  0  0  0  0  0  0  0999 V2000
    8.4431   61.7875   -5.1747 C   0  0  0  0  0  0  0  0  0  0  0  0
    8.9304   60.8404   -4.2963 C   0  0  0  0  0  0  0  0  0  0  0  0
    8.1633   59.7885   -3.8424 C   0  0  0  0  0  0  0  0  0  0  0  0
    6.8436   59.6699   -4.2828 C   0  0  0  0  0  0  0  0  0  0  0  0
    6.3319   60.6023   -5.1603 C   0  0  0  0  0  0  0  0  0  0  0  0
    7.1275   61.6430   -5.5948 C   0  0  0  0  0  0  0  0  0  0  0  0
    4.9418   60.4458   -5.6015 C   0  0  0  0  0  0  0  0  0  0  0  0
    9.2669   62.8856   -5.6395 C   0  0  0  0  0  0  0  0  0  0  0  0
    9.9385   63.7753   -4.8108 C   0  0  0  0  0  0  0  0  0  0  0  0
   10.5672   64.6153   -5.6506 N   0  0  0  0  0  0  0  0  0  0  0  0
   10.3157   64.2864   -6.8840 O   0  0  0  0  0  0  0  0  0  0  0  0
    9.5384   63.2527   -6.9620 C   0  0  0  0  0  0  0  0  0  0  0  0
    9.0044   62.5477   -8.1392 C   0  0  0  0  0  0  0  0  0  0  0  0
    9.9296   63.7566   -3.3231 C   0  0  0  0  0  0  0  0  0  0  0  0
    8.4382   58.7725   -2.9989 N   0  0  0  0  0  0  0  0  0  0  0  0
    7.3130   58.0137   -2.8994 C   0  0  0  0  0  0  0  0  0  0  0  0
    6.3593   58.5675   -3.6796 N   0  0  0  0  0  0  0  0  0  0  0  0
    7.2117   56.7923   -2.0576 C   0  0  2  0  0  0  0  0  0  0  0  0
    7.7551   56.8425   -0.6535 C   0  0  0  0  0  0  0  0  0  0  0  0
    8.3945   56.0118   -1.6912 C   0  0  0  0  0  0  0  0  0  0  0  0
    3.9140   60.8942   -4.7825 C   0  0  0  0  0  0  0  0  0  0  0  0
    2.6157   60.7296   -5.2320 C   0  0  0  0  0  0  0  0  0  0  0  0
    2.3590   60.1349   -6.4622 C   0  0  0  0  0  0  0  0  0  0  0  0
    3.4110   59.7067   -7.2381 C   0  0  0  0  0  0  0  0  0  0  0  0
    4.7147   59.8567   -6.8177 C   0  0  0  0  0  0  0  0  0  0  0  0
    4.1528   61.4836   -3.5647 C   0  0  0  0  0  0  0  0  0  0  0  0
    3.1162   61.9199   -2.7709 C   0  0  0  0  0  0  0  0  0  0  0  0
    1.8303   61.7483   -3.2335 C   0  0  0  0  0  0  0  0  0  0  0  0
    1.6200   61.1629   -4.4406 N   0  0  0  0  0  0  0  0  0  0  0  0
    5.8520   59.3847   -7.6749 C   0  0  0  0  0  0  0  0  0  0  0  0
  1  2  2  0
  1  6  1  0
  1  8  1  0
  2  3  1  0
  3  4  2  0
  3 15  1  0
  4  5  1  0
  4 17  1  0
  5  6  2  0
  5  7  1  0
  7 21  2  0
  7 25  1  0
  8  9  1  0
  8 12  2  0
  9 10  2  0
  9 14  1  0
 10 11  1  0
 11 12  1  0
 12 13  1  0
 15 16  1  0
 16 17  2  0
 18 16  1  6
 18 19  1  0
 18 20  1  0
 19 20  1  0
 21 22  1  0
 21 26  1  0
 22 23  2  0
 22 29  1  0
 23 24  1  0
 24 25  2  0
 25 30  1  0
 26 27  2  0
 27 28  1  0
 28 29  2  0
M  END
$$$$
