
     RDKit          3D

 30 35  0  0  0  0  0  0  0  0999 V2000
    8.2507   61.8996   -4.8716 C   0  0  0  0  0  0  0  0  0  0  0  0
    6.9375   62.3249   -4.8466 C   0  0  0  0  0  0  0  0  0  0  0  0
    5.9450   61.6234   -4.1955 C   0  0  0  0  0  0  0  0  0  0  0  0
    6.2724   60.4378   -3.5346 C   0  0  0  0  0  0  0  0  0  0  0  0
    7.5767   59.9904   -3.5440 C   0  0  0  0  0  0  0  0  0  0  0  0
    8.5454   60.7174   -4.2056 C   0  0  0  0  0  0  0  0  0  0  0  0
    7.8836   58.7412   -2.8392 C   0  0  0  0  0  0  0  0  0  0  0  0
    9.2785   62.6526   -5.5623 C   0  0  0  0  0  0  0  0  0  0  0  0
    9.4417   62.6859   -6.9413 C   0  0  0  0  0  0  0  0  0  0  0  0
   10.4970   63.4938   -7.1404 N   0  0  0  0  0  0  0  0  0  0  0  0
   10.9518   63.9251   -6.0004 O   0  0  0  0  0  0  0  0  0  0  0  0
   10.2707   63.4630   -4.9996 C   0  0  0  0  0  0  0  0  0  0  0  0
   10.4307   63.6857   -3.5531 C   0  0  0  0  0  0  0  0  0  0  0  0
    8.6019   61.9649   -7.9356 C   0  0  0  0  0  0  0  0  0  0  0  0
    4.6246   61.8572   -4.0506 N   0  0  0  0  0  0  0  0  0  0  0  0
    4.1124   60.8381   -3.3085 C   0  0  0  0  0  0  0  0  0  0  0  0
    5.1185   59.9893   -3.0045 N   0  0  0  0  0  0  0  0  0  0  0  0
    2.6788   60.7318   -2.9285 C   0  0  2  0  0  0  0  0  0  0  0  0
    1.6776   61.5845   -3.6631 C   0  0  0  0  0  0  0  0  0  0  0  0
    1.9841   61.8205   -2.2398 C   0  0  0  0  0  0  0  0  0  0  0  0
    7.2613   57.5654   -3.2372 C   0  0  0  0  0  0  0  0  0  0  0  0
    7.5757   56.4069   -2.5489 C   0  0  0  0  0  0  0  0  0  0  0  0
    8.4843   56.4291   -1.4968 C   0  0  0  0  0  0  0  0  0  0  0  0
    9.0750   57.6188   -1.1395 C   0  0  0  0  0  0  0  0  0  0  0  0
    8.7822   58.7889   -1.8058 C   0  0  0  0  0  0  0  0  0  0  0  0
    6.3616   57.5286   -4.2749 C   0  0  0  0  0  0  0  0  0  0  0  0
    5.7578   56.3498   -4.6505 C   0  0  0  0  0  0  0  0  0  0  0  0
    6.0822   55.2063   -3.9548 C   0  0  0  0  0  0  0  0  0  0  0  0
    6.9743   55.2683   -2.9329 N   0  0  0  0  0  0  0  0  0  0  0  0
    9.4345   60.0792   -1.4047 C   0  0  0  0  0  0  0  0  0  0  0  0
  1  2  2  0
  1  6  1  0
  1  8  1  0
  2  3  1  0
  3  4  2  0
  3 15  1  0
  4  5  1  0
  4 17  1  0
  5  6  2  0
  5  7  1  0
  7 21  2  0
  7 25  1  0
  8  9  1  0
  8 12  2  0
  9 10  2  0
  9 14  1  0
 10 11  1  0
 11 12  1  0
 12 13  1  0
 15 16  1  0
 16 17  2  0
 18 16  1  6
 18 19  1  0
 18 20  1  0
 19 20  1  0
 21 22  1  0
 21 26  1  0
 22 23  2  0
 22 29  1  0
 23 24  1  0
 24 25  2  0
 25 30  1  0
 26 27  2  0
 27 28  1  0
 28 29  2  0
M  END
$$$$
