
     RDKit          3D

 30 35  0  0  0  0  0  0  0  0999 V2000
    8.3678   61.6910   -4.7137 C   0  0  0  0  0  0  0  0  0  0  0  0
    8.9049   60.6932   -3.9250 C   0  0  0  0  0  0  0  0  0  0  0  0
    8.1565   59.6305   -3.4651 C   0  0  0  0  0  0  0  0  0  0  0  0
    6.8045   59.5535   -3.8054 C   0  0  0  0  0  0  0  0  0  0  0  0
    6.2430   60.5369   -4.5921 C   0  0  0  0  0  0  0  0  0  0  0  0
    7.0211   61.5870   -5.0353 C   0  0  0  0  0  0  0  0  0  0  0  0
    4.8201   60.4231   -4.9294 C   0  0  0  0  0  0  0  0  0  0  0  0
    9.1727   62.7996   -5.1864 C   0  0  0  0  0  0  0  0  0  0  0  0
    9.8878   63.6632   -4.3665 C   0  0  0  0  0  0  0  0  0  0  0  0
   10.4783   64.5253   -5.2116 N   0  0  0  0  0  0  0  0  0  0  0  0
   10.1657   64.2327   -6.4401 O   0  0  0  0  0  0  0  0  0  0  0  0
    9.3810   63.2039   -6.5097 C   0  0  0  0  0  0  0  0  0  0  0  0
    8.7873   62.5347   -7.6791 C   0  0  0  0  0  0  0  0  0  0  0  0
    9.9512   63.6017   -2.8812 C   0  0  0  0  0  0  0  0  0  0  0  0
    8.4779   58.5687   -2.6978 N   0  0  0  0  0  0  0  0  0  0  0  0
    7.3502   57.8219   -2.5479 C   0  0  0  0  0  0  0  0  0  0  0  0
    6.3488   58.4286   -3.2218 N   0  0  0  0  0  0  0  0  0  0  0  0
    7.2927   56.5605   -1.7629 C   0  0  2  0  0  0  0  0  0  0  0  0
    7.9159   56.5407   -0.3916 C   0  0  0  0  0  0  0  0  0  0  0  0
    8.4916   55.7618   -1.5040 C   0  0  0  0  0  0  0  0  0  0  0  0
    4.4527   59.8762   -6.1518 C   0  0  0  0  0  0  0  0  0  0  0  0
    3.1013   59.7850   -6.4350 C   0  0  0  0  0  0  0  0  0  0  0  0
    2.1517   60.2281   -5.5213 C   0  0  0  0  0  0  0  0  0  0  0  0
    2.5650   60.7626   -4.3232 C   0  0  0  0  0  0  0  0  0  0  0  0
    3.9034   60.8667   -4.0125 C   0  0  0  0  0  0  0  0  0  0  0  0
    5.3801   59.4344   -7.0641 C   0  0  0  0  0  0  0  0  0  0  0  0
    4.9903   58.8959   -8.2696 C   0  0  0  0  0  0  0  0  0  0  0  0
    3.6415   58.8126   -8.5353 C   0  0  0  0  0  0  0  0  0  0  0  0
    2.7443   59.2561   -7.6175 N   0  0  0  0  0  0  0  0  0  0  0  0
    4.3392   61.4520   -2.7015 C   0  0  0  0  0  0  0  0  0  0  0  0
  1  2  2  0
  1  6  1  0
  1  8  1  0
  2  3  1  0
  3  4  2  0
  3 15  1  0
  4  5  1  0
  4 17  1  0
  5  6  2  0
  5  7  1  0
  7 21  2  0
  7 25  1  0
  8  9  1  0
  8 12  2  0
  9 10  2  0
  9 14  1  0
 10 11  1  0
 11 12  1  0
 12 13  1  0
 15 16  1  0
 16 17  2  0
 18 16  1  6
 18 19  1  0
 18 20  1  0
 19 20  1  0
 21 22  1  0
 21 26  1  0
 22 23  2  0
 22 29  1  0
 23 24  1  0
 24 25  2  0
 25 30  1  0
 26 27  2  0
 27 28  1  0
 28 29  2  0
M  END
$$$$
