
     RDKit          3D

 30 35  0  0  0  0  0  0  0  0999 V2000
    8.4004   61.7626   -5.2317 C   0  0  0  0  0  0  0  0  0  0  0  0
    8.9048   60.8376   -4.3393 C   0  0  0  0  0  0  0  0  0  0  0  0
    8.1484   59.7945   -3.8486 C   0  0  0  0  0  0  0  0  0  0  0  0
    6.8222   59.6619   -4.2648 C   0  0  0  0  0  0  0  0  0  0  0  0
    6.2935   60.5721   -5.1556 C   0  0  0  0  0  0  0  0  0  0  0  0
    7.0787   61.6045   -5.6270 C   0  0  0  0  0  0  0  0  0  0  0  0
    4.8971   60.4014   -5.5705 C   0  0  0  0  0  0  0  0  0  0  0  0
    9.2132   62.8517   -5.7352 C   0  0  0  0  0  0  0  0  0  0  0  0
    9.8798   63.7740   -4.9386 C   0  0  0  0  0  0  0  0  0  0  0  0
   10.4984   64.5913   -5.8078 N   0  0  0  0  0  0  0  0  0  0  0  0
   10.2457   64.2198   -7.0288 O   0  0  0  0  0  0  0  0  0  0  0  0
    9.4771   63.1774   -7.0701 C   0  0  0  0  0  0  0  0  0  0  0  0
    8.9454   62.4296   -8.2215 C   0  0  0  0  0  0  0  0  0  0  0  0
    9.8758   63.8041   -3.4510 C   0  0  0  0  0  0  0  0  0  0  0  0
    8.4401   58.7993   -2.9862 N   0  0  0  0  0  0  0  0  0  0  0  0
    7.3190   58.0399   -2.8508 C   0  0  0  0  0  0  0  0  0  0  0  0
    6.3511   58.5727   -3.6284 N   0  0  0  0  0  0  0  0  0  0  0  0
    7.2351   56.8383   -1.9792 C   0  0  2  0  0  0  0  0  0  0  0  0
    7.9232   56.8751   -0.6397 C   0  0  0  0  0  0  0  0  0  0  0  0
    8.4024   55.9938   -1.7210 C   0  0  0  0  0  0  0  0  0  0  0  0
    3.8805   60.8470   -4.7361 C   0  0  0  0  0  0  0  0  0  0  0  0
    2.5757   60.6689   -5.1609 C   0  0  0  0  0  0  0  0  0  0  0  0
    2.3017   60.0638   -6.3823 C   0  0  0  0  0  0  0  0  0  0  0  0
    3.3431   59.6389   -7.1742 C   0  0  0  0  0  0  0  0  0  0  0  0
    4.6529   59.8023   -6.7784 C   0  0  0  0  0  0  0  0  0  0  0  0
    4.1364   61.4465   -3.5267 C   0  0  0  0  0  0  0  0  0  0  0  0
    3.1107   61.8798   -2.7172 C   0  0  0  0  0  0  0  0  0  0  0  0
    1.8182   61.6947   -3.1553 C   0  0  0  0  0  0  0  0  0  0  0  0
    1.5909   61.0995   -4.3545 N   0  0  0  0  0  0  0  0  0  0  0  0
    5.7784   59.3337   -7.6529 C   0  0  0  0  0  0  0  0  0  0  0  0
  1  2  2  0
  1  6  1  0
  1  8  1  0
  2  3  1  0
  3  4  2  0
  3 15  1  0
  4  5  1  0
  4 17  1  0
  5  6  2  0
  5  7  1  0
  7 21  2  0
  7 25  1  0
  8  9  1  0
  8 12  2  0
  9 10  2  0
  9 14  1  0
 10 11  1  0
 11 12  1  0
 12 13  1  0
 15 16  1  0
 16 17  2  0
 18 16  1  6
 18 19  1  0
 18 20  1  0
 19 20  1  0
 21 22  1  0
 21 26  1  0
 22 23  2  0
 22 29  1  0
 23 24  1  0
 24 25  2  0
 25 30  1  0
 26 27  2  0
 27 28  1  0
 28 29  2  0
M  END
$$$$
