
     RDKit          3D

 30 35  0  0  0  0  0  0  0  0999 V2000
    8.4251   61.6507   -4.9696 C   0  0  0  0  0  0  0  0  0  0  0  0
    9.0092   60.6211   -4.2590 C   0  0  0  0  0  0  0  0  0  0  0  0
    8.2867   59.5470   -3.7842 C   0  0  0  0  0  0  0  0  0  0  0  0
    6.9128   59.4914   -4.0270 C   0  0  0  0  0  0  0  0  0  0  0  0
    6.3043   60.5067   -4.7342 C   0  0  0  0  0  0  0  0  0  0  0  0
    7.0575   61.5673   -5.1951 C   0  0  0  0  0  0  0  0  0  0  0  0
    4.8596   60.4146   -4.9701 C   0  0  0  0  0  0  0  0  0  0  0  0
    9.2034   62.7707   -5.4597 C   0  0  0  0  0  0  0  0  0  0  0  0
    9.9344   63.6367   -4.6565 C   0  0  0  0  0  0  0  0  0  0  0  0
   10.4896   64.5102   -5.5138 N   0  0  0  0  0  0  0  0  0  0  0  0
   10.1422   64.2219   -6.7340 O   0  0  0  0  0  0  0  0  0  0  0  0
    9.3666   63.1853   -6.7860 C   0  0  0  0  0  0  0  0  0  0  0  0
    8.7441   62.5170   -7.9409 C   0  0  0  0  0  0  0  0  0  0  0  0
   10.0443   63.5667   -3.1743 C   0  0  0  0  0  0  0  0  0  0  0  0
    8.6535   58.4557   -3.0815 N   0  0  0  0  0  0  0  0  0  0  0  0
    7.5330   57.7113   -2.8764 C   0  0  0  0  0  0  0  0  0  0  0  0
    6.4906   58.3488   -3.4526 N   0  0  0  0  0  0  0  0  0  0  0  0
    7.5215   56.4223   -2.1354 C   0  0  2  0  0  0  0  0  0  0  0  0
    7.9197   56.4271   -0.6827 C   0  0  0  0  0  0  0  0  0  0  0  0
    8.7604   55.7737   -1.7033 C   0  0  0  0  0  0  0  0  0  0  0  0
    4.3926   59.6767   -6.0497 C   0  0  0  0  0  0  0  0  0  0  0  0
    3.0235   59.6126   -6.2404 C   0  0  0  0  0  0  0  0  0  0  0  0
    2.1536   60.2674   -5.3760 C   0  0  0  0  0  0  0  0  0  0  0  0
    2.6643   60.9862   -4.3203 C   0  0  0  0  0  0  0  0  0  0  0  0
    4.0227   61.0687   -4.1043 C   0  0  0  0  0  0  0  0  0  0  0  0
    5.2404   59.0246   -6.9119 C   0  0  0  0  0  0  0  0  0  0  0  0
    4.7526   58.2991   -7.9754 C   0  0  0  0  0  0  0  0  0  0  0  0
    3.3875   58.2458   -8.1505 C   0  0  0  0  0  0  0  0  0  0  0  0
    2.5702   58.8989   -7.2847 N   0  0  0  0  0  0  0  0  0  0  0  0
    4.5651   61.8566   -2.9484 C   0  0  0  0  0  0  0  0  0  0  0  0
  1  2  2  0
  1  6  1  0
  1  8  1  0
  2  3  1  0
  3  4  2  0
  3 15  1  0
  4  5  1  0
  4 17  1  0
  5  6  2  0
  5  7  1  0
  7 21  2  0
  7 25  1  0
  8  9  1  0
  8 12  2  0
  9 10  2  0
  9 14  1  0
 10 11  1  0
 11 12  1  0
 12 13  1  0
 15 16  1  0
 16 17  2  0
 18 16  1  6
 18 19  1  0
 18 20  1  0
 19 20  1  0
 21 22  1  0
 21 26  1  0
 22 23  2  0
 22 29  1  0
 23 24  1  0
 24 25  2  0
 25 30  1  0
 26 27  2  0
 27 28  1  0
 28 29  2  0
M  END
$$$$
