
     RDKit          3D

 24 27  0  0  0  0  0  0  0  0999 V2000
  -21.1740   19.2752  -11.3114 C   0  0  0  0  0  0  0  0  0  0  0  0
  -23.8196   18.9748  -11.9336 C   0  0  0  0  0  0  0  0  0  0  0  0
  -26.5856   17.0966  -11.9793 C   0  0  0  0  0  0  0  0  0  0  0  0
  -27.7433   14.9903  -11.6579 C   0  0  0  0  0  0  0  0  0  0  0  0
  -27.1187   15.9248  -12.4823 C   0  0  0  0  0  0  0  0  0  0  0  0
  -24.5142   20.7424  -10.8078 C   0  0  0  0  0  0  0  0  0  0  0  0
  -17.0977   16.3920  -13.6473 N   0  0  0  0  0  0  0  0  0  0  0  0
  -18.4481   16.5270  -13.2467 C   0  0  0  0  0  0  0  0  0  0  0  0
  -19.3476   15.4820  -13.1461 N   0  0  0  0  0  0  0  0  0  0  0  0
  -20.5011   15.9452  -12.7510 N   0  0  0  0  0  0  0  0  0  0  0  0
  -20.5018   17.2511  -12.5591 C   0  0  0  0  0  0  0  0  0  0  0  0
  -19.1705   17.6113  -12.8831 C   0  0  0  0  0  0  0  0  0  0  0  0
  -18.7184   19.0112  -12.8125 C   0  0  0  0  0  0  0  0  0  0  0  0
  -18.3798   20.0178  -12.7748 N   0  0  0  0  0  0  0  0  0  0  0  0
  -21.5390   18.1949  -12.1179 C   0  0  0  0  0  0  0  0  0  0  0  0
  -22.0536   20.1836  -10.8207 C   0  0  0  0  0  0  0  0  0  0  0  0
  -23.3954   20.0099  -11.1500 C   0  0  0  0  0  0  0  0  0  0  0  0
  -22.8637   18.0445  -12.4303 C   0  0  0  0  0  0  0  0  0  0  0  0
  -25.1531   19.0546  -12.0759 N   0  0  0  0  0  0  0  0  0  0  0  0
  -25.9287   18.0966  -12.8345 C   0  0  0  0  0  0  0  0  0  0  0  0
  -26.6707   17.3539  -10.6312 C   0  0  0  0  0  0  0  0  0  0  0  0
  -27.2923   16.4245   -9.8195 C   0  0  0  0  0  0  0  0  0  0  0  0
  -27.8048   15.2789  -10.3607 N   0  0  0  0  0  0  0  0  0  0  0  0
  -25.5846   20.1283  -11.3935 C   0  0  0  0  0  0  0  0  0  0  0  0
 15  1  2  0
 16  1  1  0
  2 17  1  0
  2 18  2  0
 19  2  1  0
  3  5  1  0
 20  3  1  0
  3 21  2  0
  5  4  2  0
  4 23  1  0
 17  6  1  0
  6 24  2  0
  8  7  1  0
  8  9  1  0
 12  8  2  0
 10  9  1  0
 11 10  2  0
 11 12  1  0
 15 11  1  0
 12 13  1  0
 13 14  3  0
 18 15  1  0
 17 16  2  0
 19 20  1  0
 19 24  1  0
 21 22  1  0
 22 23  2  0
M  END
$$$$
