
     RDKit          3D

 24 27  0  0  0  0  0  0  0  0999 V2000
  -14.5001    9.7535  -26.2348 C   0  0  0  0  0  0  0  0  0  0  0  0
  -12.6191    9.5438  -28.2083 C   0  0  0  0  0  0  0  0  0  0  0  0
   -9.6813    8.3724  -29.4415 C   0  0  0  0  0  0  0  0  0  0  0  0
   -9.2769    6.0750  -28.7791 C   0  0  0  0  0  0  0  0  0  0  0  0
  -10.0579    7.2294  -28.7615 C   0  0  0  0  0  0  0  0  0  0  0  0
  -13.9897    8.7287  -29.7352 C   0  0  0  0  0  0  0  0  0  0  0  0
  -13.2068   10.5184  -20.9215 N   0  0  0  0  0  0  0  0  0  0  0  0
  -12.9502   10.7050  -22.3004 C   0  0  0  0  0  0  0  0  0  0  0  0
  -12.0781   11.6443  -22.8189 N   0  0  0  0  0  0  0  0  0  0  0  0
  -12.0725   11.5526  -24.1200 N   0  0  0  0  0  0  0  0  0  0  0  0
  -12.8787   10.6147  -24.5812 C   0  0  0  0  0  0  0  0  0  0  0  0
  -13.4373   10.0774  -23.3952 C   0  0  0  0  0  0  0  0  0  0  0  0
  -14.4207    8.9820  -23.4413 C   0  0  0  0  0  0  0  0  0  0  0  0
  -15.1424    8.2031  -23.4820 N   0  0  0  0  0  0  0  0  0  0  0  0
  -13.1933   10.1478  -25.9392 C   0  0  0  0  0  0  0  0  0  0  0  0
  -14.8906    9.2747  -27.4424 C   0  0  0  0  0  0  0  0  0  0  0  0
  -13.9154    9.1761  -28.4315 C   0  0  0  0  0  0  0  0  0  0  0  0
  -12.2511   10.0436  -26.9274 C   0  0  0  0  0  0  0  0  0  0  0  0
  -11.9080    9.3337  -29.3285 N   0  0  0  0  0  0  0  0  0  0  0  0
  -10.4892    9.6012  -29.4293 C   0  0  0  0  0  0  0  0  0  0  0  0
   -8.5061    8.3778  -30.1555 C   0  0  0  0  0  0  0  0  0  0  0  0
   -7.7358    7.2308  -30.1679 C   0  0  0  0  0  0  0  0  0  0  0  0
   -8.1479    6.1235  -29.4811 N   0  0  0  0  0  0  0  0  0  0  0  0
  -12.7348    8.8373  -30.2638 C   0  0  0  0  0  0  0  0  0  0  0  0
 15  1  2  0
 16  1  1  0
  2 17  1  0
  2 18  2  0
 19  2  1  0
  3  5  1  0
 20  3  1  0
  3 21  2  0
  5  4  2  0
  4 23  1  0
 17  6  1  0
  6 24  2  0
  8  7  1  0
  8  9  1  0
 12  8  2  0
 10  9  1  0
 11 10  2  0
 11 12  1  0
 15 11  1  0
 12 13  1  0
 13 14  3  0
 18 15  1  0
 17 16  2  0
 19 20  1  0
 19 24  1  0
 21 22  1  0
 22 23  2  0
M  END
$$$$
