
     RDKit          3D

 24 27  0  0  0  0  0  0  0  0999 V2000
  -13.2604   10.7165  -26.6002 C   0  0  0  0  0  0  0  0  0  0  0  0
  -12.5447    8.5267  -28.0729 C   0  0  0  0  0  0  0  0  0  0  0  0
  -10.2614    6.3278  -28.6427 C   0  0  0  0  0  0  0  0  0  0  0  0
   -8.1124    7.3058  -29.1954 C   0  0  0  0  0  0  0  0  0  0  0  0
   -9.5042    7.2989  -29.2705 C   0  0  0  0  0  0  0  0  0  0  0  0
  -13.1778    9.3526  -30.0202 C   0  0  0  0  0  0  0  0  0  0  0  0
  -13.8345   10.3310  -21.0745 N   0  0  0  0  0  0  0  0  0  0  0  0
  -13.1744   10.0321  -22.2898 C   0  0  0  0  0  0  0  0  0  0  0  0
  -11.8681    9.5901  -22.3882 N   0  0  0  0  0  0  0  0  0  0  0  0
  -11.5704    9.4074  -23.6449 N   0  0  0  0  0  0  0  0  0  0  0  0
  -12.5672    9.6864  -24.4639 C   0  0  0  0  0  0  0  0  0  0  0  0
  -13.5943   10.0878  -23.5744 C   0  0  0  0  0  0  0  0  0  0  0  0
  -14.9168   10.5037  -24.0715 C   0  0  0  0  0  0  0  0  0  0  0  0
  -15.8742   10.8124  -24.4141 N   0  0  0  0  0  0  0  0  0  0  0  0
  -12.7043    9.6269  -25.9264 C   0  0  0  0  0  0  0  0  0  0  0  0
  -13.4645   10.7527  -27.9406 C   0  0  0  0  0  0  0  0  0  0  0  0
  -13.0932    9.6260  -28.6698 C   0  0  0  0  0  0  0  0  0  0  0  0
  -12.3450    8.5303  -26.6636 C   0  0  0  0  0  0  0  0  0  0  0  0
  -12.2964    7.5995  -29.0127 N   0  0  0  0  0  0  0  0  0  0  0  0
  -11.7300    6.3011  -28.7160 C   0  0  0  0  0  0  0  0  0  0  0  0
   -9.6314    5.3392  -27.9240 C   0  0  0  0  0  0  0  0  0  0  0  0
   -8.2515    5.3507  -27.8545 C   0  0  0  0  0  0  0  0  0  0  0  0
   -7.5434    6.3312  -28.4910 N   0  0  0  0  0  0  0  0  0  0  0  0
  -12.6788    8.0940  -30.2019 C   0  0  0  0  0  0  0  0  0  0  0  0
 15  1  2  0
 16  1  1  0
  2 17  1  0
  2 18  2  0
 19  2  1  0
  3  5  1  0
 20  3  1  0
  3 21  2  0
  5  4  2  0
  4 23  1  0
 17  6  1  0
  6 24  2  0
  8  7  1  0
  8  9  1  0
 12  8  2  0
 10  9  1  0
 11 10  2  0
 11 12  1  0
 15 11  1  0
 12 13  1  0
 13 14  3  0
 18 15  1  0
 17 16  2  0
 19 20  1  0
 19 24  1  0
 21 22  1  0
 22 23  2  0
M  END
$$$$
