
     RDKit          3D

 24 27  0  0  0  0  0  0  0  0999 V2000
  -25.0124   18.3403  -11.3345 C   0  0  0  0  0  0  0  0  0  0  0  0
  -22.6744   19.0754  -12.5471 C   0  0  0  0  0  0  0  0  0  0  0  0
  -19.4819   18.4720  -12.9605 C   0  0  0  0  0  0  0  0  0  0  0  0
  -19.1263   16.1237  -13.4495 C   0  0  0  0  0  0  0  0  0  0  0  0
  -19.9374   17.2572  -13.4373 C   0  0  0  0  0  0  0  0  0  0  0  0
  -23.4933   19.1234  -14.5969 C   0  0  0  0  0  0  0  0  0  0  0  0
  -25.8214   18.1701   -5.8993 N   0  0  0  0  0  0  0  0  0  0  0  0
  -24.9598   18.1396   -7.0213 C   0  0  0  0  0  0  0  0  0  0  0  0
  -23.6382   17.7347   -6.9883 N   0  0  0  0  0  0  0  0  0  0  0  0
  -23.1317   17.8250   -8.1869 N   0  0  0  0  0  0  0  0  0  0  0  0
  -23.9916   18.2671   -9.0856 C   0  0  0  0  0  0  0  0  0  0  0  0
  -25.1656   18.4654   -8.3179 C   0  0  0  0  0  0  0  0  0  0  0  0
  -26.4047   18.9713   -8.9326 C   0  0  0  0  0  0  0  0  0  0  0  0
  -27.3064   19.3198   -9.3740 N   0  0  0  0  0  0  0  0  0  0  0  0
  -23.8849   18.5194  -10.5299 C   0  0  0  0  0  0  0  0  0  0  0  0
  -25.0159   18.5110  -12.6801 C   0  0  0  0  0  0  0  0  0  0  0  0
  -23.8138   18.8845  -13.2756 C   0  0  0  0  0  0  0  0  0  0  0  0
  -22.7141   18.8882  -11.1366 C   0  0  0  0  0  0  0  0  0  0  0  0
  -21.6778   19.4193  -13.3797 N   0  0  0  0  0  0  0  0  0  0  0  0
  -20.3251   19.6767  -12.9342 C   0  0  0  0  0  0  0  0  0  0  0  0
  -18.1960   18.5718  -12.4837 C   0  0  0  0  0  0  0  0  0  0  0  0
  -17.3975   17.4443  -12.4972 C   0  0  0  0  0  0  0  0  0  0  0  0
  -17.8901   16.2638  -12.9785 N   0  0  0  0  0  0  0  0  0  0  0  0
  -22.1676   19.4510  -14.6303 C   0  0  0  0  0  0  0  0  0  0  0  0
 15  1  2  0
 16  1  1  0
  2 17  1  0
  2 18  2  0
 19  2  1  0
  3  5  1  0
 20  3  1  0
  3 21  2  0
  5  4  2  0
  4 23  1  0
 17  6  1  0
  6 24  2  0
  8  7  1  0
  8  9  1  0
 12  8  2  0
 10  9  1  0
 11 10  2  0
 11 12  1  0
 15 11  1  0
 12 13  1  0
 13 14  3  0
 18 15  1  0
 17 16  2  0
 19 20  1  0
 19 24  1  0
 21 22  1  0
 22 23  2  0
M  END
$$$$
