
     RDKit          3D

 24 27  0  0  0  0  0  0  0  0999 V2000
  -14.4094    9.7480  -26.4698 C   0  0  0  0  0  0  0  0  0  0  0  0
  -12.6022    8.9181  -28.3465 C   0  0  0  0  0  0  0  0  0  0  0  0
  -10.0780    6.9461  -29.0934 C   0  0  0  0  0  0  0  0  0  0  0  0
  -10.5429    4.7003  -28.3058 C   0  0  0  0  0  0  0  0  0  0  0  0
  -10.9669    5.9793  -28.6627 C   0  0  0  0  0  0  0  0  0  0  0  0
  -14.0953    8.4748  -29.9113 C   0  0  0  0  0  0  0  0  0  0  0  0
  -13.1659   10.3636  -21.1318 N   0  0  0  0  0  0  0  0  0  0  0  0
  -12.8044   10.3902  -22.4995 C   0  0  0  0  0  0  0  0  0  0  0  0
  -11.6574   10.9785  -22.9994 N   0  0  0  0  0  0  0  0  0  0  0  0
  -11.6255   10.8246  -24.2942 N   0  0  0  0  0  0  0  0  0  0  0  0
  -12.6677   10.1677  -24.7682 C   0  0  0  0  0  0  0  0  0  0  0  0
  -13.4184    9.8946  -23.5981 C   0  0  0  0  0  0  0  0  0  0  0  0
  -14.6964    9.1652  -23.6626 C   0  0  0  0  0  0  0  0  0  0  0  0
  -15.6104    8.6246  -23.7008 N   0  0  0  0  0  0  0  0  0  0  0  0
  -13.0559    9.7567  -26.1252 C   0  0  0  0  0  0  0  0  0  0  0  0
  -14.8790    9.3540  -27.6797 C   0  0  0  0  0  0  0  0  0  0  0  0
  -13.9405    8.9348  -28.6191 C   0  0  0  0  0  0  0  0  0  0  0  0
  -12.1505    9.3419  -27.0649 C   0  0  0  0  0  0  0  0  0  0  0  0
  -11.9438    8.4638  -29.4257 N   0  0  0  0  0  0  0  0  0  0  0  0
  -10.5061    8.3023  -29.4681 C   0  0  0  0  0  0  0  0  0  0  0  0
   -8.7386    6.6452  -29.1737 C   0  0  0  0  0  0  0  0  0  0  0  0
   -8.3245    5.3762  -28.8172 C   0  0  0  0  0  0  0  0  0  0  0  0
   -9.2392    4.4517  -28.3973 N   0  0  0  0  0  0  0  0  0  0  0  0
  -12.8454    8.1913  -30.3837 C   0  0  0  0  0  0  0  0  0  0  0  0
 15  1  2  0
 16  1  1  0
  2 17  1  0
  2 18  2  0
 19  2  1  0
  3  5  1  0
 20  3  1  0
  3 21  2  0
  5  4  2  0
  4 23  1  0
 17  6  1  0
  6 24  2  0
  8  7  1  0
  8  9  1  0
 12  8  2  0
 10  9  1  0
 11 10  2  0
 11 12  1  0
 15 11  1  0
 12 13  1  0
 13 14  3  0
 18 15  1  0
 17 16  2  0
 19 20  1  0
 19 24  1  0
 21 22  1  0
 22 23  2  0
M  END
$$$$
