
     RDKit          3D

 24 27  0  0  0  0  0  0  0  0999 V2000
  -13.6537    9.9486  -27.0395 C   0  0  0  0  0  0  0  0  0  0  0  0
  -12.3515    7.8804  -28.2658 C   0  0  0  0  0  0  0  0  0  0  0  0
  -11.8567    4.6480  -28.4142 C   0  0  0  0  0  0  0  0  0  0  0  0
  -13.9995    3.5243  -28.2546 C   0  0  0  0  0  0  0  0  0  0  0  0
  -13.2365    4.6662  -28.4930 C   0  0  0  0  0  0  0  0  0  0  0  0
  -12.9246    8.4455  -30.3217 C   0  0  0  0  0  0  0  0  0  0  0  0
  -13.0690   11.2299  -21.7064 N   0  0  0  0  0  0  0  0  0  0  0  0
  -13.0489   10.2920  -22.7657 C   0  0  0  0  0  0  0  0  0  0  0  0
  -13.0785    8.9194  -22.6026 N   0  0  0  0  0  0  0  0  0  0  0  0
  -13.0500    8.3473  -23.7744 N   0  0  0  0  0  0  0  0  0  0  0  0
  -13.0010    9.2072  -24.7746 C   0  0  0  0  0  0  0  0  0  0  0  0
  -13.0009   10.4570  -24.1074 C   0  0  0  0  0  0  0  0  0  0  0  0
  -12.9464   11.7238  -24.8567 C   0  0  0  0  0  0  0  0  0  0  0  0
  -12.8896   12.6401  -25.3918 N   0  0  0  0  0  0  0  0  0  0  0  0
  -12.9637    9.0394  -26.2346 C   0  0  0  0  0  0  0  0  0  0  0  0
  -13.7143    9.8667  -28.3921 C   0  0  0  0  0  0  0  0  0  0  0  0
  -13.0444    8.8049  -28.9943 C   0  0  0  0  0  0  0  0  0  0  0  0
  -12.3108    8.0039  -26.8483 C   0  0  0  0  0  0  0  0  0  0  0  0
  -11.8191    6.9757  -29.1040 N   0  0  0  0  0  0  0  0  0  0  0  0
  -11.0358    5.8440  -28.6564 C   0  0  0  0  0  0  0  0  0  0  0  0
  -11.2134    3.4762  -28.0919 C   0  0  0  0  0  0  0  0  0  0  0  0
  -11.9754    2.3482  -27.8553 C   0  0  0  0  0  0  0  0  0  0  0  0
  -13.3376    2.4126  -27.9450 N   0  0  0  0  0  0  0  0  0  0  0  0
  -12.1631    7.3120  -30.3584 C   0  0  0  0  0  0  0  0  0  0  0  0
 15  1  2  0
 16  1  1  0
  2 17  1  0
  2 18  2  0
 19  2  1  0
  3  5  1  0
 20  3  1  0
  3 21  2  0
  5  4  2  0
  4 23  1  0
 17  6  1  0
  6 24  2  0
  8  7  1  0
  8  9  1  0
 12  8  2  0
 10  9  1  0
 11 10  2  0
 11 12  1  0
 15 11  1  0
 12 13  1  0
 13 14  3  0
 18 15  1  0
 17 16  2  0
 19 20  1  0
 19 24  1  0
 21 22  1  0
 22 23  2  0
M  END
$$$$
