
     RDKit          3D

 24 27  0  0  0  0  0  0  0  0999 V2000
  -21.4621   18.5683  -13.8636 C   0  0  0  0  0  0  0  0  0  0  0  0
  -23.2043   19.2637  -11.8742 C   0  0  0  0  0  0  0  0  0  0  0  0
  -23.6251   20.5203   -8.8650 C   0  0  0  0  0  0  0  0  0  0  0  0
  -22.3680   22.5809   -8.6342 C   0  0  0  0  0  0  0  0  0  0  0  0
  -22.9938   21.6164   -9.4222 C   0  0  0  0  0  0  0  0  0  0  0  0
  -24.5148   20.5008  -13.1496 C   0  0  0  0  0  0  0  0  0  0  0  0
  -16.4497   16.4812  -12.6727 N   0  0  0  0  0  0  0  0  0  0  0  0
  -17.8400   16.6057  -12.4405 C   0  0  0  0  0  0  0  0  0  0  0  0
  -18.6011   15.7059  -11.7177 N   0  0  0  0  0  0  0  0  0  0  0  0
  -19.8395   16.1147  -11.6921 N   0  0  0  0  0  0  0  0  0  0  0  0
  -20.0300   17.2458  -12.3454 C   0  0  0  0  0  0  0  0  0  0  0  0
  -18.7309   17.5493  -12.8221 C   0  0  0  0  0  0  0  0  0  0  0  0
  -18.4748   18.7547  -13.6288 C   0  0  0  0  0  0  0  0  0  0  0  0
  -18.2922   19.6144  -14.2261 N   0  0  0  0  0  0  0  0  0  0  0  0
  -21.2210   18.0752  -12.5794 C   0  0  0  0  0  0  0  0  0  0  0  0
  -22.5092   19.3697  -14.1816 C   0  0  0  0  0  0  0  0  0  0  0  0
  -23.3826   19.7112  -13.1523 C   0  0  0  0  0  0  0  0  0  0  0  0
  -22.0936   18.4225  -11.5830 C   0  0  0  0  0  0  0  0  0  0  0  0
  -24.1860   19.7550  -11.1000 N   0  0  0  0  0  0  0  0  0  0  0  0
  -24.2851   19.4897   -9.6807 C   0  0  0  0  0  0  0  0  0  0  0  0
  -23.6393   20.3708   -7.4982 C   0  0  0  0  0  0  0  0  0  0  0  0
  -23.0160   21.3295   -6.7227 C   0  0  0  0  0  0  0  0  0  0  0  0
  -22.4044   22.3975   -7.3170 N   0  0  0  0  0  0  0  0  0  0  0  0
  -24.9890   20.5097  -11.8685 C   0  0  0  0  0  0  0  0  0  0  0  0
 15  1  2  0
 16  1  1  0
  2 17  1  0
  2 18  2  0
 19  2  1  0
  3  5  1  0
 20  3  1  0
  3 21  2  0
  5  4  2  0
  4 23  1  0
 17  6  1  0
  6 24  2  0
  8  7  1  0
  8  9  1  0
 12  8  2  0
 10  9  1  0
 11 10  2  0
 11 12  1  0
 15 11  1  0
 12 13  1  0
 13 14  3  0
 18 15  1  0
 17 16  2  0
 19 20  1  0
 19 24  1  0
 21 22  1  0
 22 23  2  0
M  END
$$$$
