
     RDKit          3D

 24 27  0  0  0  0  0  0  0  0999 V2000
  -13.5305    8.4011  -26.0995 C   0  0  0  0  0  0  0  0  0  0  0  0
  -12.9865    9.4545  -28.5635 C   0  0  0  0  0  0  0  0  0  0  0  0
  -10.7414   10.7938  -30.5048 C   0  0  0  0  0  0  0  0  0  0  0  0
   -8.5552   11.6733  -31.0765 C   0  0  0  0  0  0  0  0  0  0  0  0
   -9.9328   11.8297  -30.9333 C   0  0  0  0  0  0  0  0  0  0  0  0
  -13.8160    7.7636  -29.7155 C   0  0  0  0  0  0  0  0  0  0  0  0
  -12.9091   10.9905  -21.3061 N   0  0  0  0  0  0  0  0  0  0  0  0
  -12.6125   10.8621  -22.6836 C   0  0  0  0  0  0  0  0  0  0  0  0
  -11.5963   11.5351  -23.3363 N   0  0  0  0  0  0  0  0  0  0  0  0
  -11.5928   11.1912  -24.5945 N   0  0  0  0  0  0  0  0  0  0  0  0
  -12.5342   10.3179  -24.9001 C   0  0  0  0  0  0  0  0  0  0  0  0
  -13.1831   10.1160  -23.6570 C   0  0  0  0  0  0  0  0  0  0  0  0
  -14.3287    9.1987  -23.5326 C   0  0  0  0  0  0  0  0  0  0  0  0
  -15.1666    8.5514  -23.4421 N   0  0  0  0  0  0  0  0  0  0  0  0
  -12.9063    9.6492  -26.1554 C   0  0  0  0  0  0  0  0  0  0  0  0
  -13.8837    7.6826  -27.1944 C   0  0  0  0  0  0  0  0  0  0  0  0
  -13.5959    8.2386  -28.4383 C   0  0  0  0  0  0  0  0  0  0  0  0
  -12.6343   10.1775  -27.3891 C   0  0  0  0  0  0  0  0  0  0  0  0
  -12.8294    9.7303  -29.8688 N   0  0  0  0  0  0  0  0  0  0  0  0
  -12.1972   10.9385  -30.3538 C   0  0  0  0  0  0  0  0  0  0  0  0
  -10.1786    9.5741  -30.2109 C   0  0  0  0  0  0  0  0  0  0  0  0
   -8.8127    9.4250  -30.3561 C   0  0  0  0  0  0  0  0  0  0  0  0
   -8.0520   10.4774  -30.7825 N   0  0  0  0  0  0  0  0  0  0  0  0
  -13.3318    8.7058  -30.5779 C   0  0  0  0  0  0  0  0  0  0  0  0
 15  1  2  0
 16  1  1  0
  2 17  1  0
  2 18  2  0
 19  2  1  0
  3  5  1  0
 20  3  1  0
  3 21  2  0
  5  4  2  0
  4 23  1  0
 17  6  1  0
  6 24  2  0
  8  7  1  0
  8  9  1  0
 12  8  2  0
 10  9  1  0
 11 10  2  0
 11 12  1  0
 15 11  1  0
 12 13  1  0
 13 14  3  0
 18 15  1  0
 17 16  2  0
 19 20  1  0
 19 24  1  0
 21 22  1  0
 22 23  2  0
M  END
$$$$
