
     RDKit          3D

 24 27  0  0  0  0  0  0  0  0999 V2000
  -14.7373   10.8255  -25.0773 C   0  0  0  0  0  0  0  0  0  0  0  0
  -13.3685   10.0226  -27.3041 C   0  0  0  0  0  0  0  0  0  0  0  0
  -11.5619    7.7757  -29.1639 C   0  0  0  0  0  0  0  0  0  0  0  0
  -11.2704    5.9949  -30.7838 C   0  0  0  0  0  0  0  0  0  0  0  0
  -11.2973    7.3483  -30.4515 C   0  0  0  0  0  0  0  0  0  0  0  0
  -15.0586   10.2673  -28.7035 C   0  0  0  0  0  0  0  0  0  0  0  0
  -12.7062    9.5649  -20.0228 N   0  0  0  0  0  0  0  0  0  0  0  0
  -12.5713   10.0127  -21.3583 C   0  0  0  0  0  0  0  0  0  0  0  0
  -11.5277   10.7891  -21.8267 N   0  0  0  0  0  0  0  0  0  0  0  0
  -11.7040   11.0236  -23.0976 N   0  0  0  0  0  0  0  0  0  0  0  0
  -12.8012   10.4733  -23.5832 C   0  0  0  0  0  0  0  0  0  0  0  0
  -13.3492    9.8250  -22.4489 C   0  0  0  0  0  0  0  0  0  0  0  0
  -14.6118    9.0715  -22.5346 C   0  0  0  0  0  0  0  0  0  0  0  0
  -15.5318    8.5436  -22.5991 N   0  0  0  0  0  0  0  0  0  0  0  0
  -13.3991   10.4555  -24.9261 C   0  0  0  0  0  0  0  0  0  0  0  0
  -15.3963   10.8114  -26.2628 C   0  0  0  0  0  0  0  0  0  0  0  0
  -14.6793   10.3981  -27.3827 C   0  0  0  0  0  0  0  0  0  0  0  0
  -12.7130   10.0540  -26.0410 C   0  0  0  0  0  0  0  0  0  0  0  0
  -12.9429    9.6687  -28.5281 N   0  0  0  0  0  0  0  0  0  0  0  0
  -11.6004    9.1992  -28.7963 C   0  0  0  0  0  0  0  0  0  0  0  0
  -11.8063    6.8466  -28.1802 C   0  0  0  0  0  0  0  0  0  0  0  0
  -11.7796    5.5066  -28.5161 C   0  0  0  0  0  0  0  0  0  0  0  0
  -11.5131    5.1299  -29.8026 N   0  0  0  0  0  0  0  0  0  0  0  0
  -13.9658    9.8147  -29.3868 C   0  0  0  0  0  0  0  0  0  0  0  0
 15  1  2  0
 16  1  1  0
  2 17  1  0
  2 18  2  0
 19  2  1  0
  3  5  1  0
 20  3  1  0
  3 21  2  0
  5  4  2  0
  4 23  1  0
 17  6  1  0
  6 24  2  0
  8  7  1  0
  8  9  1  0
 12  8  2  0
 10  9  1  0
 11 10  2  0
 11 12  1  0
 15 11  1  0
 12 13  1  0
 13 14  3  0
 18 15  1  0
 17 16  2  0
 19 20  1  0
 19 24  1  0
 21 22  1  0
 22 23  2  0
M  END
$$$$
