
     RDKit          3D

 24 27  0  0  0  0  0  0  0  0999 V2000
  -21.7872   19.0673  -11.7627 C   0  0  0  0  0  0  0  0  0  0  0  0
  -24.1531   18.1145  -12.7483 C   0  0  0  0  0  0  0  0  0  0  0  0
  -26.5954   15.7285  -13.1966 C   0  0  0  0  0  0  0  0  0  0  0  0
  -27.5025   14.7906  -11.1527 C   0  0  0  0  0  0  0  0  0  0  0  0
  -26.7682   15.7656  -11.8257 C   0  0  0  0  0  0  0  0  0  0  0  0
  -25.4275   19.6260  -11.7656 C   0  0  0  0  0  0  0  0  0  0  0  0
  -16.8168   17.3568  -13.4071 N   0  0  0  0  0  0  0  0  0  0  0  0
  -18.2024   17.1379  -13.2220 C   0  0  0  0  0  0  0  0  0  0  0  0
  -18.8158   15.8994  -13.2599 N   0  0  0  0  0  0  0  0  0  0  0  0
  -20.0946   16.0473  -13.0504 N   0  0  0  0  0  0  0  0  0  0  0  0
  -20.4517   17.3044  -12.8643 C   0  0  0  0  0  0  0  0  0  0  0  0
  -19.2200   17.9951  -12.9781 C   0  0  0  0  0  0  0  0  0  0  0  0
  -19.1493   19.4599  -12.8417 C   0  0  0  0  0  0  0  0  0  0  0  0
  -19.1055   20.5153  -12.7264 N   0  0  0  0  0  0  0  0  0  0  0  0
  -21.7468   17.9446  -12.5925 C   0  0  0  0  0  0  0  0  0  0  0  0
  -22.9296   19.7127  -11.4188 C   0  0  0  0  0  0  0  0  0  0  0  0
  -24.1222   19.2090  -11.9319 C   0  0  0  0  0  0  0  0  0  0  0  0
  -22.9313   17.4676  -13.0869 C   0  0  0  0  0  0  0  0  0  0  0  0
  -25.4287   17.8546  -13.0798 N   0  0  0  0  0  0  0  0  0  0  0  0
  -25.8190   16.7448  -13.9228 C   0  0  0  0  0  0  0  0  0  0  0  0
  -27.1595   14.7052  -13.9215 C   0  0  0  0  0  0  0  0  0  0  0  0
  -27.8851   13.7411  -13.2484 C   0  0  0  0  0  0  0  0  0  0  0  0
  -28.0302   13.8183  -11.8917 N   0  0  0  0  0  0  0  0  0  0  0  0
  -26.2119   18.7704  -12.4857 C   0  0  0  0  0  0  0  0  0  0  0  0
 15  1  2  0
 16  1  1  0
  2 17  1  0
  2 18  2  0
 19  2  1  0
  3  5  1  0
 20  3  1  0
  3 21  2  0
  5  4  2  0
  4 23  1  0
 17  6  1  0
  6 24  2  0
  8  7  1  0
  8  9  1  0
 12  8  2  0
 10  9  1  0
 11 10  2  0
 11 12  1  0
 15 11  1  0
 12 13  1  0
 13 14  3  0
 18 15  1  0
 17 16  2  0
 19 20  1  0
 19 24  1  0
 21 22  1  0
 22 23  2  0
M  END
$$$$
