
     RDKit          3D

 24 27  0  0  0  0  0  0  0  0999 V2000
  -22.3822   17.9475  -12.0336 C   0  0  0  0  0  0  0  0  0  0  0  0
  -22.6058   20.4976  -11.0725 C   0  0  0  0  0  0  0  0  0  0  0  0
  -22.1060   23.1295   -8.8646 C   0  0  0  0  0  0  0  0  0  0  0  0
  -22.1640   22.5547   -6.5096 C   0  0  0  0  0  0  0  0  0  0  0  0
  -22.1181   22.1873   -7.8534 C   0  0  0  0  0  0  0  0  0  0  0  0
  -24.8114   20.5045  -10.9734 C   0  0  0  0  0  0  0  0  0  0  0  0
  -17.6349   16.2290  -14.3838 N   0  0  0  0  0  0  0  0  0  0  0  0
  -18.3600   16.9365  -13.3961 C   0  0  0  0  0  0  0  0  0  0  0  0
  -17.8504   17.3215  -12.1698 N   0  0  0  0  0  0  0  0  0  0  0  0
  -18.7740   17.9543  -11.5008 N   0  0  0  0  0  0  0  0  0  0  0  0
  -19.9166   18.0545  -12.1542 C   0  0  0  0  0  0  0  0  0  0  0  0
  -19.6331   17.3932  -13.3746 C   0  0  0  0  0  0  0  0  0  0  0  0
  -20.6547   17.2597  -14.4271 C   0  0  0  0  0  0  0  0  0  0  0  0
  -21.4039   17.1716  -15.1755 N   0  0  0  0  0  0  0  0  0  0  0  0
  -21.2078   18.6722  -11.8187 C   0  0  0  0  0  0  0  0  0  0  0  0
  -23.6253   18.4333  -11.7923 C   0  0  0  0  0  0  0  0  0  0  0  0
  -23.7146   19.7344  -11.3041 C   0  0  0  0  0  0  0  0  0  0  0  0
  -21.3192   19.9490  -11.3367 C   0  0  0  0  0  0  0  0  0  0  0  0
  -22.9927   21.7001  -10.6155 N   0  0  0  0  0  0  0  0  0  0  0  0
  -22.0639   22.7605  -10.2876 C   0  0  0  0  0  0  0  0  0  0  0  0
  -22.1406   24.4661   -8.5435 C   0  0  0  0  0  0  0  0  0  0  0  0
  -22.1874   24.8238   -7.2098 C   0  0  0  0  0  0  0  0  0  0  0  0
  -22.1973   23.8577   -6.2432 N   0  0  0  0  0  0  0  0  0  0  0  0
  -24.3346   21.7132  -10.5520 C   0  0  0  0  0  0  0  0  0  0  0  0
 15  1  2  0
 16  1  1  0
  2 17  1  0
  2 18  2  0
 19  2  1  0
  3  5  1  0
 20  3  1  0
  3 21  2  0
  5  4  2  0
  4 23  1  0
 17  6  1  0
  6 24  2  0
  8  7  1  0
  8  9  1  0
 12  8  2  0
 10  9  1  0
 11 10  2  0
 11 12  1  0
 15 11  1  0
 12 13  1  0
 13 14  3  0
 18 15  1  0
 17 16  2  0
 19 20  1  0
 19 24  1  0
 21 22  1  0
 22 23  2  0
M  END
$$$$
