
     RDKit          3D

 23 24  0  0  0  0  0  0  0  0999 V2000
   -7.8422   -1.5568   10.1000 C   0  0  0  0  0  0  0  0  0  0  0  0
   -1.5238    3.4586   10.9936 C   0  0  0  0  0  0  0  0  0  0  0  0
   -3.5040    3.4576    9.6223 C   0  0  0  0  0  0  0  0  0  0  0  0
   -7.9472   -1.3231   12.5996 C   0  0  0  0  0  0  0  0  0  0  0  0
   -5.8403   -2.5066   13.2646 C   0  0  0  0  0  0  0  0  0  0  0  0
   -5.8217   -0.8890   11.3979 C   0  0  1  0  0  0  0  0  0  0  0  0
   -6.7985   -0.4930   10.2859 C   0  0  0  0  0  0  0  0  0  0  0  0
   -2.1531    2.2266   11.5686 C   0  0  0  0  0  0  0  0  0  0  0  0
   -4.2422    3.4591   10.9456 C   0  0  0  0  0  0  0  0  0  0  0  0
   -3.6369    2.3296   11.7569 C   0  0  1  0  0  0  0  0  0  0  0  0
   -5.2719    0.4156   11.9140 C   0  0  0  0  0  0  0  0  0  0  0  0
   -8.7336   -1.5863   11.3390 C   0  0  2  0  0  0  0  0  0  0  0  0
   -2.2010    4.0065    9.8645 N   0  0  0  0  0  4  0  0  0  0  0  0
   -4.2186    1.0784   11.2465 N   0  0  0  0  0  0  0  0  0  0  0  0
   -9.4403   -2.8593   11.3914 N   0  0  0  0  0  4  0  0  0  0  0  0
   -6.5330   -1.5893   12.4384 N   0  0  0  0  0  0  0  0  0  0  0  0
   -9.3131   -4.4768    9.0818 O   0  0  0  0  0  0  0  0  0  0  0  0
   -4.7630   -3.0555   12.8490 O   0  0  0  0  0  0  0  0  0  0  0  0
   -5.7732    0.8990   12.9521 O   0  0  0  0  0  0  0  0  0  0  0  0
   -7.3418   -5.5897    9.9809 O   0  0  0  0  0  0  0  0  0  0  0  0
   -9.7068   -6.2238   10.9331 O   0  0  0  0  0  0  0  0  0  0  0  0
   -8.5396   -3.8526   11.5256 O   0  0  0  0  0  0  0  0  0  0  0  0
   -8.6834   -5.0207   10.3314 S   0  0  2  0  0  6  0  0  0  0  0  0
  1  7  1  0
 12  1  1  0
  8  2  1  0
  2 13  1  0
  9  3  1  0
  3 13  1  0
 12  4  1  0
  4 16  1  0
 16  5  1  0
  5 18  2  0
  7  6  1  0
  6 11  1  1
 16  6  1  0
 10  8  1  0
 10  9  1  0
 10 14  1  6
 11 14  1  0
 11 19  2  0
 12 15  1  1
 22 15  1  0
 23 17  2  0
 23 20  2  0
 23 21  1  1
 22 23  1  0
M  CHG  2  13   1  15   1
M  END
$$$$
