
     RDKit          3D

 23 24  0  0  0  0  0  0  0  0999 V2000
   -7.8699   -1.6943    9.9957 C   0  0  0  0  0  0  0  0  0  0  0  0
   -1.6430    3.2546   11.4643 C   0  0  0  0  0  0  0  0  0  0  0  0
   -3.0532    2.8284    9.5587 C   0  0  0  0  0  0  0  0  0  0  0  0
   -8.0154   -1.6276   12.5033 C   0  0  0  0  0  0  0  0  0  0  0  0
   -5.9765   -2.9479   13.1211 C   0  0  0  0  0  0  0  0  0  0  0  0
   -5.8489   -1.2089   11.3715 C   0  0  1  0  0  0  0  0  0  0  0  0
   -6.7845   -0.6940   10.2729 C   0  0  0  0  0  0  0  0  0  0  0  0
   -2.4130    2.1103   12.0493 C   0  0  0  0  0  0  0  0  0  0  0  0
   -4.1900    3.0261   10.5409 C   0  0  0  0  0  0  0  0  0  0  0  0
   -3.8759    2.1276   11.7217 C   0  0  1  0  0  0  0  0  0  0  0  0
   -5.2529    0.0311   11.9861 C   0  0  0  0  0  0  0  0  0  0  0  0
   -8.7868   -1.7682   11.2142 C   0  0  2  0  0  0  0  0  0  0  0  0
   -1.9120    3.5172   10.0887 N   0  0  0  0  0  4  0  0  0  0  0  0
   -4.2394    0.7585   11.3244 N   0  0  0  0  0  0  0  0  0  0  0  0
   -9.5497   -3.0085   11.1660 N   0  0  0  0  0  4  0  0  0  0  0  0
   -6.6113   -1.9459   12.3486 N   0  0  0  0  0  0  0  0  0  0  0  0
   -8.8194   -4.8265    9.1353 O   0  0  0  0  0  0  0  0  0  0  0  0
   -4.8256   -3.3873   12.7789 O   0  0  0  0  0  0  0  0  0  0  0  0
   -5.6795    0.4019   13.1011 O   0  0  0  0  0  0  0  0  0  0  0  0
   -7.2667   -5.9044   10.6715 O   0  0  0  0  0  0  0  0  0  0  0  0
   -9.8370   -6.3942   10.9075 O   0  0  0  0  0  0  0  0  0  0  0  0
   -8.7844   -4.0096   11.6435 O   0  0  0  0  0  0  0  0  0  0  0  0
   -8.6215   -5.2741   10.5546 S   0  0  2  0  0  6  0  0  0  0  0  0
  1  7  1  0
 12  1  1  0
  8  2  1  0
  2 13  1  0
  9  3  1  0
  3 13  1  0
 12  4  1  0
  4 16  1  0
 16  5  1  0
  5 18  2  0
  7  6  1  0
  6 11  1  1
 16  6  1  0
 10  8  1  0
 10  9  1  0
 10 14  1  6
 11 14  1  0
 11 19  2  0
 12 15  1  1
 22 15  1  0
 23 17  2  0
 23 20  2  0
 23 21  1  1
 22 23  1  0
M  CHG  2  13   1  15   1
M  END
$$$$
