
     RDKit          3D

 23 24  0  0  0  0  0  0  0  0999 V2000
   -7.8359   -1.3234    9.8573 C   0  0  0  0  0  0  0  0  0  0  0  0
   -1.5547    3.6579   10.9807 C   0  0  0  0  0  0  0  0  0  0  0  0
   -3.3740    3.5292    9.4076 C   0  0  0  0  0  0  0  0  0  0  0  0
   -7.9041   -1.2455   12.3678 C   0  0  0  0  0  0  0  0  0  0  0  0
   -5.8078   -2.5002   12.9275 C   0  0  0  0  0  0  0  0  0  0  0  0
   -5.7880   -0.7692   11.1656 C   0  0  1  0  0  0  0  0  0  0  0  0
   -6.7729   -0.2893   10.0946 C   0  0  0  0  0  0  0  0  0  0  0  0
   -2.2159    2.4416   11.5533 C   0  0  0  0  0  0  0  0  0  0  0  0
   -4.2513    3.5812   10.6421 C   0  0  0  0  0  0  0  0  0  0  0  0
   -3.7133    2.5138   11.5756 C   0  0  1  0  0  0  0  0  0  0  0  0
   -5.2106    0.4920   11.7544 C   0  0  0  0  0  0  0  0  0  0  0  0
   -8.7112   -1.4172   11.1046 C   0  0  2  0  0  0  0  0  0  0  0  0
   -2.1171    4.1259    9.7567 N   0  0  0  0  0  4  0  0  0  0  0  0
   -4.2091    1.2215   11.0769 N   0  0  0  0  0  0  0  0  0  0  0  0
   -9.4375   -2.6801   11.0873 N   0  0  0  0  0  4  0  0  0  0  0  0
   -6.4966   -1.5225   12.1703 N   0  0  0  0  0  0  0  0  0  0  0  0
   -7.0129   -5.5287   10.6429 O   0  0  0  0  0  0  0  0  0  0  0  0
   -4.5692   -2.7265   12.7057 O   0  0  0  0  0  0  0  0  0  0  0  0
   -5.6416    0.8784   12.8623 O   0  0  0  0  0  0  0  0  0  0  0  0
   -9.4134   -5.8774   10.4215 O   0  0  0  0  0  0  0  0  0  0  0  0
   -8.2432   -4.0786    8.9059 O   0  0  0  0  0  0  0  0  0  0  0  0
   -8.6302   -3.6535   11.5526 O   0  0  0  0  0  0  0  0  0  0  0  0
   -8.3283   -4.8435   10.4107 S   0  0  2  0  0  6  0  0  0  0  0  0
  1  7  1  0
 12  1  1  0
  8  2  1  0
  2 13  1  0
  9  3  1  0
  3 13  1  0
 12  4  1  0
  4 16  1  0
 16  5  1  0
  5 18  2  0
  7  6  1  0
  6 11  1  1
 16  6  1  0
 10  8  1  0
 10  9  1  0
 10 14  1  6
 11 14  1  0
 11 19  2  0
 12 15  1  1
 22 15  1  0
 23 17  2  0
 23 20  2  0
 23 21  1  6
 22 23  1  0
M  CHG  2  13   1  15   1
M  END
$$$$
