
     RDKit          3D

 23 24  0  0  0  0  0  0  0  0999 V2000
   -7.3313   -1.8085    9.9791 C   0  0  0  0  0  0  0  0  0  0  0  0
   -1.2697    3.6480   11.4698 C   0  0  0  0  0  0  0  0  0  0  0  0
   -2.8069    3.4715    9.6239 C   0  0  0  0  0  0  0  0  0  0  0  0
   -7.5112   -1.4759   12.4632 C   0  0  0  0  0  0  0  0  0  0  0  0
   -5.2718   -2.3206   13.2072 C   0  0  0  0  0  0  0  0  0  0  0  0
   -5.4464   -0.8049   11.2647 C   0  0  1  0  0  0  0  0  0  0  0  0
   -6.4494   -0.6016   10.1245 C   0  0  0  0  0  0  0  0  0  0  0  0
   -2.0391    2.4659   11.9750 C   0  0  0  0  0  0  0  0  0  0  0  0
   -3.8745    3.5879   10.6929 C   0  0  0  0  0  0  0  0  0  0  0  0
   -3.5180    2.5565   11.7460 C   0  0  1  0  0  0  0  0  0  0  0  0
   -5.0927    0.5864   11.7228 C   0  0  0  0  0  0  0  0  0  0  0  0
   -8.2313   -1.9050   11.2086 C   0  0  2  0  0  0  0  0  0  0  0  0
   -1.6137    4.0681   10.1512 N   0  0  0  0  0  4  0  0  0  0  0  0
   -3.9491    1.2494   11.2262 N   0  0  0  0  0  0  0  0  0  0  0  0
   -8.7546   -3.2605   11.3150 N   0  0  0  0  0  4  0  0  0  0  0  0
   -6.0712   -1.5487   12.3303 N   0  0  0  0  0  0  0  0  0  0  0  0
   -7.4052   -6.3198    9.4756 O   0  0  0  0  0  0  0  0  0  0  0  0
   -4.5342   -3.2569   12.7445 O   0  0  0  0  0  0  0  0  0  0  0  0
   -5.8398    1.1419   12.5570 O   0  0  0  0  0  0  0  0  0  0  0  0
   -9.4824   -6.1356   10.7344 O   0  0  0  0  0  0  0  0  0  0  0  0
   -9.1588   -4.6549    8.5884 O   0  0  0  0  0  0  0  0  0  0  0  0
   -7.8166   -4.1250   10.8805 O   0  0  0  0  0  0  0  0  0  0  0  0
   -8.4606   -5.3652    9.9540 S   0  0  2  0  0  6  0  0  0  0  0  0
  1  7  1  0
 12  1  1  0
  8  2  1  0
  2 13  1  0
  9  3  1  0
  3 13  1  0
 12  4  1  0
  4 16  1  0
 16  5  1  0
  5 18  2  0
  7  6  1  0
  6 11  1  1
 16  6  1  0
 10  8  1  0
 10  9  1  0
 10 14  1  6
 11 14  1  0
 11 19  2  0
 12 15  1  1
 22 15  1  0
 23 17  2  0
 23 20  2  0
 23 21  1  6
 22 23  1  0
M  CHG  2  13   1  15   1
M  END
$$$$
