
     RDKit          3D

 23 24  0  0  0  0  0  0  0  0999 V2000
   -7.6569   -1.6116   10.1984 C   0  0  0  0  0  0  0  0  0  0  0  0
   -1.2681    3.3234   11.0267 C   0  0  0  0  0  0  0  0  0  0  0  0
   -3.3307    3.5311    9.8002 C   0  0  0  0  0  0  0  0  0  0  0  0
   -7.6962   -1.4244   12.7038 C   0  0  0  0  0  0  0  0  0  0  0  0
   -5.5637   -2.6037   13.2901 C   0  0  0  0  0  0  0  0  0  0  0  0
   -5.6070   -0.9523   11.4538 C   0  0  1  0  0  0  0  0  0  0  0  0
   -6.6161   -0.5435   10.3759 C   0  0  0  0  0  0  0  0  0  0  0  0
   -1.9216    2.0770   11.5404 C   0  0  0  0  0  0  0  0  0  0  0  0
   -3.9803    3.4532   11.1670 C   0  0  0  0  0  0  0  0  0  0  0  0
   -3.3827    2.2317   11.8386 C   0  0  1  0  0  0  0  0  0  0  0  0
   -5.0528    0.3468   11.9789 C   0  0  0  0  0  0  0  0  0  0  0  0
   -8.5144   -1.6706   11.4601 C   0  0  2  0  0  0  0  0  0  0  0  0
   -1.9880    3.9967    9.9962 N   0  0  0  0  0  4  0  0  0  0  0  0
   -4.0603    1.0569   11.2683 N   0  0  0  0  0  0  0  0  0  0  0  0
   -9.2103   -2.9496   11.5079 N   0  0  0  0  0  4  0  0  0  0  0  0
   -6.2850   -1.6768   12.4999 N   0  0  0  0  0  0  0  0  0  0  0  0
   -9.5769   -5.9274   10.4173 O   0  0  0  0  0  0  0  0  0  0  0  0
   -4.7338   -3.4054   12.7394 O   0  0  0  0  0  0  0  0  0  0  0  0
   -5.4950    0.7826   13.0639 O   0  0  0  0  0  0  0  0  0  0  0  0
   -8.4846   -4.2730    9.0019 O   0  0  0  0  0  0  0  0  0  0  0  0
   -7.0024   -5.9703   10.3526 O   0  0  0  0  0  0  0  0  0  0  0  0
   -8.2989   -3.9389   11.5889 O   0  0  0  0  0  0  0  0  0  0  0  0
   -8.3931   -5.0110   10.3033 S   0  0  2  0  0  6  0  0  0  0  0  0
  1  7  1  0
 12  1  1  0
  8  2  1  0
  2 13  1  0
  9  3  1  0
  3 13  1  0
 12  4  1  0
  4 16  1  0
 16  5  1  0
  5 18  2  0
  7  6  1  0
  6 11  1  1
 16  6  1  0
 10  8  1  0
 10  9  1  0
 10 14  1  6
 11 14  1  0
 11 19  2  0
 12 15  1  1
 22 15  1  0
 23 17  2  0
 23 20  2  0
 23 21  1  6
 22 23  1  0
M  CHG  2  13   1  15   1
M  END
$$$$
