
     RDKit          3D

 23 24  0  0  0  0  0  0  0  0999 V2000
   -7.7627   -0.9951    9.8473 C   0  0  0  0  0  0  0  0  0  0  0  0
   -2.0394    4.3095   12.1749 C   0  0  0  0  0  0  0  0  0  0  0  0
   -1.8801    3.1121   10.0911 C   0  0  0  0  0  0  0  0  0  0  0  0
   -7.9041   -0.9092   12.3546 C   0  0  0  0  0  0  0  0  0  0  0  0
   -5.8144   -2.1441   12.9791 C   0  0  0  0  0  0  0  0  0  0  0  0
   -5.7582   -0.4189   11.2122 C   0  0  1  0  0  0  0  0  0  0  0  0
   -6.7158    0.0488   10.1114 C   0  0  0  0  0  0  0  0  0  0  0  0
   -3.1050    3.2947   12.4564 C   0  0  0  0  0  0  0  0  0  0  0  0
   -3.3579    3.4238    9.9682 C   0  0  0  0  0  0  0  0  0  0  0  0
   -3.9820    2.9874   11.2798 C   0  0  1  0  0  0  0  0  0  0  0  0
   -5.2087    0.8491   11.8128 C   0  0  0  0  0  0  0  0  0  0  0  0
   -8.6729   -1.0921   11.0692 C   0  0  2  0  0  0  0  0  0  0  0  0
   -1.3119    4.0956   10.9672 N   0  0  0  0  0  4  0  0  0  0  0  0
   -4.1182    1.5237   11.2213 N   0  0  0  0  0  0  0  0  0  0  0  0
   -9.3877   -2.3612   11.0355 N   0  0  0  0  0  4  0  0  0  0  0  0
   -6.4892   -1.1749   12.1988 N   0  0  0  0  0  0  0  0  0  0  0  0
   -7.5561   -5.0618    9.8450 O   0  0  0  0  0  0  0  0  0  0  0  0
   -4.9670   -2.9298   12.4320 O   0  0  0  0  0  0  0  0  0  0  0  0
   -5.7442    1.2913   12.8522 O   0  0  0  0  0  0  0  0  0  0  0  0
   -8.9011   -5.9162   11.6873 O   0  0  0  0  0  0  0  0  0  0  0  0
  -10.0955   -4.6502    9.7193 O   0  0  0  0  0  0  0  0  0  0  0  0
   -8.5904   -3.3239   11.5390 O   0  0  0  0  0  0  0  0  0  0  0  0
   -8.7414   -4.7804   10.7224 S   0  0  2  0  0  6  0  0  0  0  0  0
  1  7  1  0
 12  1  1  0
  8  2  1  0
  2 13  1  0
  9  3  1  0
  3 13  1  0
 12  4  1  0
  4 16  1  0
 16  5  1  0
  5 18  2  0
  7  6  1  0
  6 11  1  1
 16  6  1  0
 10  8  1  0
 10  9  1  0
 10 14  1  6
 11 14  1  0
 11 19  2  0
 12 15  1  1
 22 15  1  0
 23 17  2  0
 23 20  2  0
 23 21  1  6
 22 23  1  0
M  CHG  2  13   1  15   1
M  END
$$$$
