
     RDKit          3D

 23 24  0  0  0  0  0  0  0  0999 V2000
   -7.3715   -1.0801    9.6056 C   0  0  0  0  0  0  0  0  0  0  0  0
   -1.4265    3.9695   11.8121 C   0  0  0  0  0  0  0  0  0  0  0  0
   -2.7832    3.7887    9.8302 C   0  0  0  0  0  0  0  0  0  0  0  0
   -7.6676   -1.1733   12.0990 C   0  0  0  0  0  0  0  0  0  0  0  0
   -5.5951   -2.4151   12.7657 C   0  0  0  0  0  0  0  0  0  0  0  0
   -5.4665   -0.5691   11.1296 C   0  0  1  0  0  0  0  0  0  0  0  0
   -6.3643   -0.0405   10.0062 C   0  0  0  0  0  0  0  0  0  0  0  0
   -2.2024    2.7555   12.2226 C   0  0  0  0  0  0  0  0  0  0  0  0
   -3.9467    3.8518   10.7988 C   0  0  0  0  0  0  0  0  0  0  0  0
   -3.6564    2.8087   11.8608 C   0  0  1  0  0  0  0  0  0  0  0  0
   -4.9808    0.6622   11.8497 C   0  0  0  0  0  0  0  0  0  0  0  0
   -8.3525   -1.2776   10.7586 C   0  0  2  0  0  0  0  0  0  0  0  0
   -1.6616    4.4077   10.4756 N   0  0  0  0  0  4  0  0  0  0  0  0
   -3.9985    1.5013   11.2794 N   0  0  0  0  0  0  0  0  0  0  0  0
   -9.0377   -2.5526   10.5925 N   0  0  0  0  0  4  0  0  0  0  0  0
   -6.2407   -1.4043   12.0138 N   0  0  0  0  0  0  0  0  0  0  0  0
   -9.4470   -5.0836   11.6507 O   0  0  0  0  0  0  0  0  0  0  0  0
   -4.5959   -3.0413   12.2716 O   0  0  0  0  0  0  0  0  0  0  0  0
   -5.4709    0.9241   12.9695 O   0  0  0  0  0  0  0  0  0  0  0  0
   -8.4118   -6.0106    9.6501 O   0  0  0  0  0  0  0  0  0  0  0  0
   -6.8736   -5.1842   11.6130 O   0  0  0  0  0  0  0  0  0  0  0  0
   -8.1903   -3.4316   10.0223 O   0  0  0  0  0  0  0  0  0  0  0  0
   -8.2840   -4.9581   10.7095 S   0  0  2  0  0  6  0  0  0  0  0  0
  1  7  1  0
 12  1  1  0
  8  2  1  0
  2 13  1  0
  9  3  1  0
  3 13  1  0
 12  4  1  0
  4 16  1  0
 16  5  1  0
  5 18  2  0
  7  6  1  0
  6 11  1  1
 16  6  1  0
 10  8  1  0
 10  9  1  0
 10 14  1  6
 11 14  1  0
 11 19  2  0
 12 15  1  6
 22 15  1  0
 23 17  2  0
 23 20  2  0
 23 21  1  1
 22 23  1  0
M  CHG  2  13   1  15   1
M  END
$$$$
