
     RDKit          3D

 23 24  0  0  0  0  0  0  0  0999 V2000
   -7.4306   -1.3967   10.1881 C   0  0  0  0  0  0  0  0  0  0  0  0
   -1.1024    3.6824   11.1021 C   0  0  0  0  0  0  0  0  0  0  0  0
   -3.2937    4.0140   10.1589 C   0  0  0  0  0  0  0  0  0  0  0  0
   -7.4542   -1.2245   12.6948 C   0  0  0  0  0  0  0  0  0  0  0  0
   -5.2713   -2.3213   13.2552 C   0  0  0  0  0  0  0  0  0  0  0  0
   -5.3970   -0.6631   11.4288 C   0  0  1  0  0  0  0  0  0  0  0  0
   -6.4315   -0.2889   10.3623 C   0  0  0  0  0  0  0  0  0  0  0  0
   -1.6821    2.3586   11.4970 C   0  0  0  0  0  0  0  0  0  0  0  0
   -3.7815    3.7222   11.5636 C   0  0  0  0  0  0  0  0  0  0  0  0
   -3.1006    2.4316   11.9770 C   0  0  1  0  0  0  0  0  0  0  0  0
   -4.8900    0.6542   11.9563 C   0  0  0  0  0  0  0  0  0  0  0  0
   -8.2734   -1.4964   11.4571 C   0  0  2  0  0  0  0  0  0  0  0  0
   -1.9415    4.4797   10.2692 N   0  0  0  0  0  4  0  0  0  0  0  0
   -3.8293    1.3354   11.3199 N   0  0  0  0  0  0  0  0  0  0  0  0
   -8.9176   -2.8023   11.5039 N   0  0  0  0  0  4  0  0  0  0  0  0
   -6.0361   -1.4196   12.4768 N   0  0  0  0  0  0  0  0  0  0  0  0
   -9.5813   -5.2712   10.2578 O   0  0  0  0  0  0  0  0  0  0  0  0
   -4.6678   -3.2990   12.6942 O   0  0  0  0  0  0  0  0  0  0  0  0
   -5.4337    1.1315   12.9757 O   0  0  0  0  0  0  0  0  0  0  0  0
   -7.3392   -4.8466    9.4056 O   0  0  0  0  0  0  0  0  0  0  0  0
   -7.6330   -6.4256   11.4847 O   0  0  0  0  0  0  0  0  0  0  0  0
   -7.9749   -3.7468   11.6914 O   0  0  0  0  0  0  0  0  0  0  0  0
   -8.1492   -5.0494   10.6503 S   0  0  2  0  0  6  0  0  0  0  0  0
  1  7  1  0
 12  1  1  0
  8  2  1  0
  2 13  1  0
  9  3  1  0
  3 13  1  0
 12  4  1  0
  4 16  1  0
 16  5  1  0
  5 18  2  0
  7  6  1  0
  6 11  1  1
 16  6  1  0
 10  8  1  0
 10  9  1  0
 10 14  1  6
 11 14  1  0
 11 19  2  0
 12 15  1  1
 22 15  1  0
 23 17  2  0
 23 20  2  0
 23 21  1  1
 22 23  1  0
M  CHG  2  13   1  15   1
M  END
$$$$
