
     RDKit          3D

 23 24  0  0  0  0  0  0  0  0999 V2000
   -7.5813   -1.7321   10.1070 C   0  0  0  0  0  0  0  0  0  0  0  0
   -3.4493    4.0308    9.4581 C   0  0  0  0  0  0  0  0  0  0  0  0
   -4.6768    3.9817   11.5298 C   0  0  0  0  0  0  0  0  0  0  0  0
   -7.6222   -1.2542   12.5735 C   0  0  0  0  0  0  0  0  0  0  0  0
   -5.7861   -2.7637   13.3686 C   0  0  0  0  0  0  0  0  0  0  0  0
   -5.4605   -1.3596   11.3627 C   0  0  1  0  0  0  0  0  0  0  0  0
   -6.3470   -0.8824   10.2077 C   0  0  0  0  0  0  0  0  0  0  0  0
   -3.7148    2.5567    9.4872 C   0  0  0  0  0  0  0  0  0  0  0  0
   -3.6307    2.9715   11.9555 C   0  0  0  0  0  0  0  0  0  0  0  0
   -3.5795    1.9383   10.8463 C   0  0  1  0  0  0  0  0  0  0  0  0
   -4.6608   -0.1473   11.7642 C   0  0  0  0  0  0  0  0  0  0  0  0
   -8.4531   -1.4717   11.3329 C   0  0  2  0  0  0  0  0  0  0  0  0
   -4.0967    4.7770   10.4865 N   0  0  0  0  0  4  0  0  0  0  0  0
   -4.7427    1.0566   11.0306 N   0  0  0  0  0  0  0  0  0  0  0  0
   -9.3968   -2.5701   11.4927 N   0  0  0  0  0  4  0  0  0  0  0  0
   -6.2894   -1.8075   12.4541 N   0  0  0  0  0  0  0  0  0  0  0  0
   -7.5102   -5.3451   10.2260 O   0  0  0  0  0  0  0  0  0  0  0  0
   -5.0629   -3.7314   12.9500 O   0  0  0  0  0  0  0  0  0  0  0  0
   -3.9197   -0.2335   12.7672 O   0  0  0  0  0  0  0  0  0  0  0  0
   -9.5197   -6.1131   11.3686 O   0  0  0  0  0  0  0  0  0  0  0  0
   -9.7478   -4.3322    9.4507 O   0  0  0  0  0  0  0  0  0  0  0  0
   -8.7213   -3.6737   11.8691 O   0  0  0  0  0  0  0  0  0  0  0  0
   -8.8494   -4.9208   10.7557 S   0  0  2  0  0  6  0  0  0  0  0  0
  1  7  1  0
 12  1  1  0
  8  2  1  0
  2 13  1  0
  9  3  1  0
  3 13  1  0
 12  4  1  0
  4 16  1  0
 16  5  1  0
  5 18  2  0
  7  6  1  0
  6 11  1  1
 16  6  1  0
 10  8  1  0
 10  9  1  0
 10 14  1  1
 11 14  1  0
 11 19  2  0
 12 15  1  1
 22 15  1  0
 23 17  2  0
 23 20  2  0
 23 21  1  6
 22 23  1  0
M  CHG  2  13   1  15   1
M  END
$$$$
