
     RDKit          3D

 23 24  0  0  0  0  0  0  0  0999 V2000
   -6.7675   -1.4126    9.4294 C   0  0  0  0  0  0  0  0  0  0  0  0
   -1.9951    4.3497   12.7332 C   0  0  0  0  0  0  0  0  0  0  0  0
   -2.6175    3.9319   10.4442 C   0  0  0  0  0  0  0  0  0  0  0  0
   -7.4446   -1.5393   11.8459 C   0  0  0  0  0  0  0  0  0  0  0  0
   -5.3417   -2.4398   12.8698 C   0  0  0  0  0  0  0  0  0  0  0  0
   -5.2346   -0.6039   11.2209 C   0  0  1  0  0  0  0  0  0  0  0  0
   -6.0094   -0.2269    9.9539 C   0  0  0  0  0  0  0  0  0  0  0  0
   -2.7689    3.0895   12.9732 C   0  0  0  0  0  0  0  0  0  0  0  0
   -4.0337    3.9330   10.9831 C   0  0  0  0  0  0  0  0  0  0  0  0
   -4.0265    2.9814   12.1640 C   0  0  1  0  0  0  0  0  0  0  0  0
   -5.0659    0.6914   11.9721 C   0  0  0  0  0  0  0  0  0  0  0  0
   -7.8799   -1.7553   10.4174 C   0  0  2  0  0  0  0  0  0  0  0  0
   -1.8159    4.6909   11.3602 N   0  0  0  0  0  4  0  0  0  0  0  0
   -4.0623    1.6177   11.6132 N   0  0  0  0  0  0  0  0  0  0  0  0
   -8.3259   -3.1222   10.1825 N   0  0  0  0  0  4  0  0  0  0  0  0
   -6.0044   -1.5455   11.9953 N   0  0  0  0  0  0  0  0  0  0  0  0
   -9.3273   -5.6740    9.7440 O   0  0  0  0  0  0  0  0  0  0  0  0
   -4.4344   -3.2206   12.4205 O   0  0  0  0  0  0  0  0  0  0  0  0
   -5.8396    0.9270   12.9253 O   0  0  0  0  0  0  0  0  0  0  0  0
   -8.5314   -6.0872   12.0087 O   0  0  0  0  0  0  0  0  0  0  0  0
  -11.0010   -5.2624   11.6579 O   0  0  0  0  0  0  0  0  0  0  0  0
   -8.8961   -3.5941   11.3085 O   0  0  0  0  0  0  0  0  0  0  0  0
   -9.3861   -5.1911   11.1643 S   0  0  2  0  0  6  0  0  0  0  0  0
  1  7  1  0
 12  1  1  0
  8  2  1  0
  2 13  1  0
  9  3  1  0
  3 13  1  0
 12  4  1  0
  4 16  1  0
 16  5  1  0
  5 18  2  0
  7  6  1  0
  6 11  1  1
 16  6  1  0
 10  8  1  0
 10  9  1  0
 10 14  1  6
 11 14  1  0
 11 19  2  0
 12 15  1  1
 22 15  1  0
 23 17  2  0
 23 20  2  0
 23 21  1  1
 22 23  1  0
M  CHG  2  13   1  15   1
M  END
$$$$
