
     RDKit          3D

 23 24  0  0  0  0  0  0  0  0999 V2000
   -7.4700   -1.4769    9.9007 C   0  0  0  0  0  0  0  0  0  0  0  0
   -1.8667    3.8848   12.0069 C   0  0  0  0  0  0  0  0  0  0  0  0
   -1.7463    2.9499    9.7904 C   0  0  0  0  0  0  0  0  0  0  0  0
   -7.4604   -1.2265   12.4008 C   0  0  0  0  0  0  0  0  0  0  0  0
   -5.3360   -2.4245   12.9784 C   0  0  0  0  0  0  0  0  0  0  0  0
   -5.3875   -0.8189   11.1020 C   0  0  1  0  0  0  0  0  0  0  0  0
   -6.4099   -0.4213   10.0324 C   0  0  0  0  0  0  0  0  0  0  0  0
   -2.9583    2.8714   12.1681 C   0  0  0  0  0  0  0  0  0  0  0  0
   -3.2156    3.3133    9.7165 C   0  0  0  0  0  0  0  0  0  0  0  0
   -3.8470    2.7349   10.9683 C   0  0  1  0  0  0  0  0  0  0  0  0
   -4.8039    0.4840   11.5841 C   0  0  0  0  0  0  0  0  0  0  0  0
   -8.3050   -1.4907   11.1787 C   0  0  2  0  0  0  0  0  0  0  0  0
   -1.1491    3.8025   10.7774 N   0  0  0  0  0  4  0  0  0  0  0  0
   -4.0228    1.2937   10.7306 N   0  0  0  0  0  0  0  0  0  0  0  0
   -9.0195   -2.7570   11.2713 N   0  0  0  0  0  4  0  0  0  0  0  0
   -6.0573   -1.5063   12.1781 N   0  0  0  0  0  0  0  0  0  0  0  0
   -7.1060   -5.5423    9.6621 O   0  0  0  0  0  0  0  0  0  0  0  0
   -4.4453   -3.1735   12.4490 O   0  0  0  0  0  0  0  0  0  0  0  0
   -5.0289    0.8322   12.7634 O   0  0  0  0  0  0  0  0  0  0  0  0
   -9.2773   -6.0123   10.6610 O   0  0  0  0  0  0  0  0  0  0  0  0
   -9.0989   -4.1422    8.8244 O   0  0  0  0  0  0  0  0  0  0  0  0
   -8.1222   -3.7611   11.3217 O   0  0  0  0  0  0  0  0  0  0  0  0
   -8.3866   -4.9237   10.1429 S   0  0  2  0  0  6  0  0  0  0  0  0
  1  7  1  0
 12  1  1  0
  8  2  1  0
  2 13  1  0
  9  3  1  0
  3 13  1  0
 12  4  1  0
  4 16  1  0
 16  5  1  0
  5 18  2  0
  7  6  1  0
  6 11  1  1
 16  6  1  0
 10  8  1  0
 10  9  1  0
 10 14  1  6
 11 14  1  0
 11 19  2  0
 12 15  1  1
 22 15  1  0
 23 17  2  0
 23 20  2  0
 23 21  1  6
 22 23  1  0
M  CHG  2  13   1  15   1
M  END
$$$$
