
     RDKit          3D

 23 24  0  0  0  0  0  0  0  0999 V2000
   -7.9099   -1.5595    9.9987 C   0  0  0  0  0  0  0  0  0  0  0  0
   -1.8800    3.5020   11.6906 C   0  0  0  0  0  0  0  0  0  0  0  0
   -2.3300    2.6981    9.4651 C   0  0  0  0  0  0  0  0  0  0  0  0
   -7.9306   -1.2781   12.4955 C   0  0  0  0  0  0  0  0  0  0  0  0
   -5.8991   -2.6028   13.1280 C   0  0  0  0  0  0  0  0  0  0  0  0
   -5.8119   -1.0216   11.2324 C   0  0  1  0  0  0  0  0  0  0  0  0
   -6.7864   -0.5727   10.1386 C   0  0  0  0  0  0  0  0  0  0  0  0
   -2.9319    2.5008   12.0587 C   0  0  0  0  0  0  0  0  0  0  0  0
   -3.7610    3.0918    9.7707 C   0  0  0  0  0  0  0  0  0  0  0  0
   -4.0887    2.4518   11.1061 C   0  0  1  0  0  0  0  0  0  0  0  0
   -5.1543    0.2471   11.7105 C   0  0  0  0  0  0  0  0  0  0  0  0
   -8.7676   -1.5031   11.2604 C   0  0  2  0  0  0  0  0  0  0  0  0
   -1.4845    3.4798   10.3207 N   0  0  0  0  0  4  0  0  0  0  0  0
   -4.3628    1.0306   10.8423 N   0  0  0  0  0  0  0  0  0  0  0  0
   -9.5641   -2.7195   11.3538 N   0  0  0  0  0  4  0  0  0  0  0  0
   -6.5446   -1.6505   12.3033 N   0  0  0  0  0  0  0  0  0  0  0  0
   -7.9258   -5.2642    9.1602 O   0  0  0  0  0  0  0  0  0  0  0  0
   -5.0222   -3.3900   12.6319 O   0  0  0  0  0  0  0  0  0  0  0  0
   -5.3274    0.5908   12.8999 O   0  0  0  0  0  0  0  0  0  0  0  0
   -7.8524   -4.9105   11.5691 O   0  0  0  0  0  0  0  0  0  0  0  0
   -9.9799   -6.0318   10.5114 O   0  0  0  0  0  0  0  0  0  0  0  0
   -9.4725   -3.3909   10.1891 O   0  0  0  0  0  0  0  0  0  0  0  0
   -8.7424   -4.8902   10.3633 S   0  0  2  0  0  6  0  0  0  0  0  0
  1  7  1  0
 12  1  1  0
  8  2  1  0
  2 13  1  0
  9  3  1  0
  3 13  1  0
 12  4  1  0
  4 16  1  0
 16  5  1  0
  5 18  2  0
  7  6  1  0
  6 11  1  1
 16  6  1  0
 10  8  1  0
 10  9  1  0
 10 14  1  6
 11 14  1  0
 11 19  2  0
 12 15  1  1
 22 15  1  0
 23 17  2  0
 23 20  2  0
 23 21  1  1
 22 23  1  0
M  CHG  2  13   1  15   1
M  END
$$$$
