
     RDKit          3D

 23 24  0  0  0  0  0  0  0  0999 V2000
   -7.4715   -1.0991    9.4840 C   0  0  0  0  0  0  0  0  0  0  0  0
   -1.5229    4.1624   11.2567 C   0  0  0  0  0  0  0  0  0  0  0  0
   -3.3420    4.1883    9.6782 C   0  0  0  0  0  0  0  0  0  0  0  0
   -7.6819   -1.1374   11.9876 C   0  0  0  0  0  0  0  0  0  0  0  0
   -5.5141   -2.2261   12.6181 C   0  0  0  0  0  0  0  0  0  0  0  0
   -5.5556   -0.4246   10.9288 C   0  0  1  0  0  0  0  0  0  0  0  0
   -6.5206    0.0132    9.8221 C   0  0  0  0  0  0  0  0  0  0  0  0
   -2.1520    2.8670   11.6698 C   0  0  0  0  0  0  0  0  0  0  0  0
   -4.2175    4.0611   10.9085 C   0  0  0  0  0  0  0  0  0  0  0  0
   -3.6507    2.8979   11.6997 C   0  0  1  0  0  0  0  0  0  0  0  0
   -5.1271    0.8555   11.5984 C   0  0  0  0  0  0  0  0  0  0  0  0
   -8.4008   -1.3240   10.6742 C   0  0  2  0  0  0  0  0  0  0  0  0
   -2.0997    4.7674   10.1014 N   0  0  0  0  0  4  0  0  0  0  0  0
   -4.1150    1.6672   11.0407 N   0  0  0  0  0  0  0  0  0  0  0  0
   -9.0081   -2.6439   10.5660 N   0  0  0  0  0  4  0  0  0  0  0  0
   -6.2465   -1.2806   11.8609 N   0  0  0  0  0  0  0  0  0  0  0  0
   -8.1914   -6.0753    9.5256 O   0  0  0  0  0  0  0  0  0  0  0  0
   -4.8232   -3.1241   12.0257 O   0  0  0  0  0  0  0  0  0  0  0  0
   -5.6919    1.1829   12.6644 O   0  0  0  0  0  0  0  0  0  0  0  0
   -7.7007   -5.5487   11.8527 O   0  0  0  0  0  0  0  0  0  0  0  0
  -10.1270   -5.1285   10.9367 O   0  0  0  0  0  0  0  0  0  0  0  0
   -8.0567   -3.5346   10.2232 O   0  0  0  0  0  0  0  0  0  0  0  0
   -8.4631   -5.1068   10.6402 S   0  0  2  0  0  6  0  0  0  0  0  0
  1  7  1  0
 12  1  1  0
  8  2  1  0
  2 13  1  0
  9  3  1  0
  3 13  1  0
 12  4  1  0
  4 16  1  0
 16  5  1  0
  5 18  2  0
  7  6  1  0
  6 11  1  1
 16  6  1  0
 10  8  1  0
 10  9  1  0
 10 14  1  6
 11 14  1  0
 11 19  2  0
 12 15  1  1
 22 15  1  0
 23 17  2  0
 23 20  2  0
 23 21  1  1
 22 23  1  0
M  CHG  2  13   1  15   1
M  END
$$$$
