
     RDKit          3D

 23 24  0  0  0  0  0  0  0  0999 V2000
   -7.7707   -1.6070   10.1897 C   0  0  0  0  0  0  0  0  0  0  0  0
   -1.5378    3.4859   10.9364 C   0  0  0  0  0  0  0  0  0  0  0  0
   -3.5580    3.5078    9.6249 C   0  0  0  0  0  0  0  0  0  0  0  0
   -7.8659   -1.3524   12.6877 C   0  0  0  0  0  0  0  0  0  0  0  0
   -5.7491   -2.5176   13.3533 C   0  0  0  0  0  0  0  0  0  0  0  0
   -5.7485   -0.9161   11.4728 C   0  0  1  0  0  0  0  0  0  0  0  0
   -6.7325   -0.5355   10.3618 C   0  0  0  0  0  0  0  0  0  0  0  0
   -2.1542    2.2493   11.5154 C   0  0  0  0  0  0  0  0  0  0  0  0
   -4.2565    3.4959   10.9696 C   0  0  0  0  0  0  0  0  0  0  0  0
   -3.6314    2.3549   11.7490 C   0  0  1  0  0  0  0  0  0  0  0  0
   -5.2041    0.3961   11.9751 C   0  0  0  0  0  0  0  0  0  0  0  0
   -8.6564   -1.6312   11.4330 C   0  0  2  0  0  0  0  0  0  0  0  0
   -2.2463    4.0495    9.8346 N   0  0  0  0  0  4  0  0  0  0  0  0
   -4.2326    1.1118   11.2415 N   0  0  0  0  0  0  0  0  0  0  0  0
   -9.3552   -2.9078   11.4995 N   0  0  0  0  0  4  0  0  0  0  0  0
   -6.4509   -1.6116   12.5225 N   0  0  0  0  0  0  0  0  0  0  0  0
   -7.0577   -4.8105   10.0910 O   0  0  0  0  0  0  0  0  0  0  0  0
   -4.8343   -3.2621   12.8597 O   0  0  0  0  0  0  0  0  0  0  0  0
   -5.6355    0.8378   13.0621 O   0  0  0  0  0  0  0  0  0  0  0  0
   -8.7833   -5.6941   11.5657 O   0  0  0  0  0  0  0  0  0  0  0  0
   -9.1322   -5.8423    8.9659 O   0  0  0  0  0  0  0  0  0  0  0  0
   -9.3294   -3.4827   10.2810 O   0  0  0  0  0  0  0  0  0  0  0  0
   -8.5393   -4.9615   10.2810 S   0  0  2  0  0  6  0  0  0  0  0  0
  1  7  1  0
 12  1  1  0
  8  2  1  0
  2 13  1  0
  9  3  1  0
  3 13  1  0
 12  4  1  0
  4 16  1  0
 16  5  1  0
  5 18  2  0
  7  6  1  0
  6 11  1  1
 16  6  1  0
 10  8  1  0
 10  9  1  0
 10 14  1  6
 11 14  1  0
 11 19  2  0
 12 15  1  1
 22 15  1  0
 23 17  2  0
 23 20  2  0
 23 21  1  6
 22 23  1  0
M  CHG  2  13   1  15   1
M  END
$$$$
