
     RDKit          3D

 23 24  0  0  0  0  0  0  0  0999 V2000
   -7.8402   -1.4688   10.0508 C   0  0  0  0  0  0  0  0  0  0  0  0
   -1.5341    3.5552   11.0760 C   0  0  0  0  0  0  0  0  0  0  0  0
   -3.6418    3.6941    9.9187 C   0  0  0  0  0  0  0  0  0  0  0  0
   -7.9156   -1.3387   12.5590 C   0  0  0  0  0  0  0  0  0  0  0  0
   -5.7869   -2.5232   13.1487 C   0  0  0  0  0  0  0  0  0  0  0  0
   -5.8109   -0.8305   11.3499 C   0  0  1  0  0  0  0  0  0  0  0  0
   -6.8064   -0.4010   10.2673 C   0  0  0  0  0  0  0  0  0  0  0  0
   -2.0999    2.2530   11.5539 C   0  0  0  0  0  0  0  0  0  0  0  0
   -4.2436    3.5223   11.2988 C   0  0  0  0  0  0  0  0  0  0  0  0
   -3.5576    2.3106   11.8999 C   0  0  1  0  0  0  0  0  0  0  0  0
   -5.2695    0.4584   11.9122 C   0  0  0  0  0  0  0  0  0  0  0  0
   -8.7152   -1.5596   11.2986 C   0  0  2  0  0  0  0  0  0  0  0  0
   -2.3222    4.2278   10.0963 N   0  0  0  0  0  4  0  0  0  0  0  0
   -4.1850    1.1233   11.2991 N   0  0  0  0  0  0  0  0  0  0  0  0
   -9.4065   -2.8421   11.3074 N   0  0  0  0  0  4  0  0  0  0  0  0
   -6.5007   -1.5812   12.3696 N   0  0  0  0  0  0  0  0  0  0  0  0
   -9.5327   -6.0543   10.8558 O   0  0  0  0  0  0  0  0  0  0  0  0
   -4.9182   -3.2827   12.5980 O   0  0  0  0  0  0  0  0  0  0  0  0
   -5.8062    0.9268   12.9394 O   0  0  0  0  0  0  0  0  0  0  0  0
   -8.2870   -4.6187    9.3327 O   0  0  0  0  0  0  0  0  0  0  0  0
   -6.9876   -5.9025   11.2210 O   0  0  0  0  0  0  0  0  0  0  0  0
   -8.5735   -3.7829   11.7940 O   0  0  0  0  0  0  0  0  0  0  0  0
   -8.3910   -5.0848   10.7534 S   0  0  2  0  0  6  0  0  0  0  0  0
  1  7  1  0
 12  1  1  0
  8  2  1  0
  2 13  1  0
  9  3  1  0
  3 13  1  0
 12  4  1  0
  4 16  1  0
 16  5  1  0
  5 18  2  0
  7  6  1  0
  6 11  1  1
 16  6  1  0
 10  8  1  0
 10  9  1  0
 10 14  1  6
 11 14  1  0
 11 19  2  0
 12 15  1  1
 22 15  1  0
 23 17  2  0
 23 20  2  0
 23 21  1  1
 22 23  1  0
M  CHG  2  13   1  15   1
M  END
$$$$
