
     RDKit          3D

 23 24  0  0  0  0  0  0  0  0999 V2000
   -7.4856   -1.4755    9.8160 C   0  0  0  0  0  0  0  0  0  0  0  0
   -1.3149    3.6428   11.2474 C   0  0  0  0  0  0  0  0  0  0  0  0
   -2.9644    3.5105    9.4972 C   0  0  0  0  0  0  0  0  0  0  0  0
   -7.6469   -1.3473   12.3202 C   0  0  0  0  0  0  0  0  0  0  0  0
   -5.5150   -2.4876   12.9810 C   0  0  0  0  0  0  0  0  0  0  0  0
   -5.5142   -0.7956   11.1814 C   0  0  1  0  0  0  0  0  0  0  0  0
   -6.4818   -0.3867   10.0660 C   0  0  0  0  0  0  0  0  0  0  0  0
   -2.0539    2.4498   11.7719 C   0  0  0  0  0  0  0  0  0  0  0  0
   -3.9631    3.6028   10.6330 C   0  0  0  0  0  0  0  0  0  0  0  0
   -3.5440    2.5468   11.6377 C   0  0  1  0  0  0  0  0  0  0  0  0
   -5.0184    0.5041   11.7605 C   0  0  0  0  0  0  0  0  0  0  0  0
   -8.3995   -1.5845   11.0341 C   0  0  2  0  0  0  0  0  0  0  0  0
   -1.7394    4.0939    9.9629 N   0  0  0  0  0  4  0  0  0  0  0  0
   -4.0095    1.2526   11.1155 N   0  0  0  0  0  0  0  0  0  0  0  0
   -9.0642   -2.8809   11.0208 N   0  0  0  0  0  4  0  0  0  0  0  0
   -6.2218   -1.5605   12.1780 N   0  0  0  0  0  0  0  0  0  0  0  0
   -7.5003   -5.4024    8.7937 O   0  0  0  0  0  0  0  0  0  0  0  0
   -4.6671   -3.2816   12.4468 O   0  0  0  0  0  0  0  0  0  0  0  0
   -5.5242    0.9055   12.8309 O   0  0  0  0  0  0  0  0  0  0  0  0
   -7.9313   -5.3979   11.1911 O   0  0  0  0  0  0  0  0  0  0  0  0
   -9.9047   -5.9410    9.5440 O   0  0  0  0  0  0  0  0  0  0  0  0
   -8.9320   -3.4258    9.7954 O   0  0  0  0  0  0  0  0  0  0  0  0
   -8.5043   -5.0461    9.8516 S   0  0  2  0  0  6  0  0  0  0  0  0
  1  7  1  0
 12  1  1  0
  8  2  1  0
  2 13  1  0
  9  3  1  0
  3 13  1  0
 12  4  1  0
  4 16  1  0
 16  5  1  0
  5 18  2  0
  7  6  1  0
  6 11  1  1
 16  6  1  0
 10  8  1  0
 10  9  1  0
 10 14  1  6
 11 14  1  0
 11 19  2  0
 12 15  1  1
 22 15  1  0
 23 17  2  0
 23 20  2  0
 23 21  1  6
 22 23  1  0
M  CHG  2  13   1  15   1
M  END
$$$$
