
     RDKit          3D

 23 24  0  0  0  0  0  0  0  0999 V2000
   -7.5887   -1.4119   10.0704 C   0  0  0  0  0  0  0  0  0  0  0  0
   -1.5912    3.7949   11.6301 C   0  0  0  0  0  0  0  0  0  0  0  0
   -3.6306    3.6460   10.3573 C   0  0  0  0  0  0  0  0  0  0  0  0
   -7.7979   -1.4254   12.5744 C   0  0  0  0  0  0  0  0  0  0  0  0
   -5.6669   -2.5811   13.2112 C   0  0  0  0  0  0  0  0  0  0  0  0
   -5.6501   -0.7912   11.5090 C   0  0  1  0  0  0  0  0  0  0  0  0
   -6.6011   -0.3295   10.3999 C   0  0  0  0  0  0  0  0  0  0  0  0
   -2.0292    2.4517   12.1285 C   0  0  0  0  0  0  0  0  0  0  0  0
   -4.2870    3.4506   11.7090 C   0  0  0  0  0  0  0  0  0  0  0  0
   -3.5012    2.3488   12.3937 C   0  0  1  0  0  0  0  0  0  0  0  0
   -5.1786    0.4787   12.1691 C   0  0  0  0  0  0  0  0  0  0  0  0
   -8.5239   -1.5973   11.2629 C   0  0  2  0  0  0  0  0  0  0  0  0
   -2.3941    4.3370   10.5837 N   0  0  0  0  0  4  0  0  0  0  0  0
   -3.9513    1.0765   11.8079 N   0  0  0  0  0  0  0  0  0  0  0  0
   -9.1748   -2.8970   11.1646 N   0  0  0  0  0  4  0  0  0  0  0  0
   -6.3682   -1.6171   12.4478 N   0  0  0  0  0  0  0  0  0  0  0  0
   -7.3792   -5.5199   12.0067 O   0  0  0  0  0  0  0  0  0  0  0  0
   -4.8887   -3.4140   12.6320 O   0  0  0  0  0  0  0  0  0  0  0  0
   -5.9037    0.9923   13.0484 O   0  0  0  0  0  0  0  0  0  0  0  0
   -9.7547   -5.6708   11.4895 O   0  0  0  0  0  0  0  0  0  0  0  0
   -8.0051   -6.2686    9.6231 O   0  0  0  0  0  0  0  0  0  0  0  0
   -8.4184   -3.7063   10.3972 O   0  0  0  0  0  0  0  0  0  0  0  0
   -8.4121   -5.2922   10.9412 S   0  0  2  0  0  6  0  0  0  0  0  0
  1  7  1  0
 12  1  1  0
  8  2  1  0
  2 13  1  0
  9  3  1  0
  3 13  1  0
 12  4  1  0
  4 16  1  0
 16  5  1  0
  5 18  2  0
  7  6  1  0
  6 11  1  1
 16  6  1  0
 10  8  1  0
 10  9  1  0
 10 14  1  6
 11 14  1  0
 11 19  2  0
 12 15  1  1
 22 15  1  0
 23 17  2  0
 23 20  2  0
 23 21  1  6
 22 23  1  0
M  CHG  2  13   1  15   1
M  END
$$$$
