
     RDKit          3D

 23 24  0  0  0  0  0  0  0  0999 V2000
   -7.7936   -1.5118   10.1365 C   0  0  0  0  0  0  0  0  0  0  0  0
   -1.7643    3.6482   11.9956 C   0  0  0  0  0  0  0  0  0  0  0  0
   -2.3701    2.9335    9.7766 C   0  0  0  0  0  0  0  0  0  0  0  0
   -7.8752   -1.3319   12.6415 C   0  0  0  0  0  0  0  0  0  0  0  0
   -5.7646   -2.5331   13.2614 C   0  0  0  0  0  0  0  0  0  0  0  0
   -5.7600   -0.8756   11.4299 C   0  0  1  0  0  0  0  0  0  0  0  0
   -6.7462   -0.4540   10.3358 C   0  0  0  0  0  0  0  0  0  0  0  0
   -2.7723    2.6150   12.3968 C   0  0  0  0  0  0  0  0  0  0  0  0
   -3.7791    3.2902   10.2054 C   0  0  0  0  0  0  0  0  0  0  0  0
   -3.9968    2.5881   11.5320 C   0  0  1  0  0  0  0  0  0  0  0  0
   -5.2031    0.4166   11.9689 C   0  0  0  0  0  0  0  0  0  0  0  0
   -8.6737   -1.5666   11.3828 C   0  0  2  0  0  0  0  0  0  0  0  0
   -1.4729    3.6913   10.6003 N   0  0  0  0  0  4  0  0  0  0  0  0
   -4.2714    1.1753   11.2269 N   0  0  0  0  0  0  0  0  0  0  0  0
   -9.3823   -2.8392   11.4142 N   0  0  0  0  0  4  0  0  0  0  0  0
   -6.4631   -1.5970   12.4616 N   0  0  0  0  0  0  0  0  0  0  0  0
   -8.1567   -5.2888   12.1844 O   0  0  0  0  0  0  0  0  0  0  0  0
   -4.9517   -3.3578   12.7194 O   0  0  0  0  0  0  0  0  0  0  0  0
   -5.5876    0.8024   13.0941 O   0  0  0  0  0  0  0  0  0  0  0  0
   -9.8680   -6.0311   10.6181 O   0  0  0  0  0  0  0  0  0  0  0  0
   -7.4107   -5.6922    9.7524 O   0  0  0  0  0  0  0  0  0  0  0  0
   -8.9946   -3.5800   10.3575 O   0  0  0  0  0  0  0  0  0  0  0  0
   -8.6523   -5.1681   10.7724 S   0  0  2  0  0  6  0  0  0  0  0  0
  1  7  1  0
 12  1  1  0
  8  2  1  0
  2 13  1  0
  9  3  1  0
  3 13  1  0
 12  4  1  0
  4 16  1  0
 16  5  1  0
  5 18  2  0
  7  6  1  0
  6 11  1  1
 16  6  1  0
 10  8  1  0
 10  9  1  0
 10 14  1  6
 11 14  1  0
 11 19  2  0
 12 15  1  1
 22 15  1  0
 23 17  2  0
 23 20  2  0
 23 21  1  6
 22 23  1  0
M  CHG  2  13   1  15   1
M  END
$$$$
