
     RDKit          3D

 23 24  0  0  0  0  0  0  0  0999 V2000
   -7.9789   -1.7447   10.1527 C   0  0  0  0  0  0  0  0  0  0  0  0
   -1.7665    3.3006   11.0501 C   0  0  0  0  0  0  0  0  0  0  0  0
   -3.7418    3.2889    9.6720 C   0  0  0  0  0  0  0  0  0  0  0  0
   -8.1232   -1.5287   12.6520 C   0  0  0  0  0  0  0  0  0  0  0  0
   -6.0482   -2.7527   13.3435 C   0  0  0  0  0  0  0  0  0  0  0  0
   -5.9703   -1.1211   11.4906 C   0  0  1  0  0  0  0  0  0  0  0  0
   -6.9209   -0.7000   10.3652 C   0  0  0  0  0  0  0  0  0  0  0  0
   -2.3918    2.0662   11.6241 C   0  0  0  0  0  0  0  0  0  0  0  0
   -4.4847    3.2881   10.9927 C   0  0  0  0  0  0  0  0  0  0  0  0
   -3.8768    2.1623   11.8071 C   0  0  1  0  0  0  0  0  0  0  0  0
   -5.4078    0.1699   12.0265 C   0  0  0  0  0  0  0  0  0  0  0  0
   -8.8920   -1.7689   11.3760 C   0  0  2  0  0  0  0  0  0  0  0  0
   -2.4423    3.8443    9.9182 N   0  0  0  0  0  4  0  0  0  0  0  0
   -4.4507    0.9078   11.2959 N   0  0  0  0  0  0  0  0  0  0  0  0
   -9.6206   -3.0302   11.4059 N   0  0  0  0  0  4  0  0  0  0  0  0
   -6.7111   -1.8174   12.5130 N   0  0  0  0  0  0  0  0  0  0  0  0
   -7.8150   -5.2241   11.6179 O   0  0  0  0  0  0  0  0  0  0  0  0
   -5.0759   -3.4428   12.8817 O   0  0  0  0  0  0  0  0  0  0  0  0
   -5.8109    0.5738   13.1388 O   0  0  0  0  0  0  0  0  0  0  0  0
   -9.7684   -6.2397   10.5757 O   0  0  0  0  0  0  0  0  0  0  0  0
   -7.7765   -5.4548    9.0529 O   0  0  0  0  0  0  0  0  0  0  0  0
   -9.4350   -3.6686   10.2338 O   0  0  0  0  0  0  0  0  0  0  0  0
   -8.7242   -5.1751   10.4242 S   0  0  2  0  0  6  0  0  0  0  0  0
  1  7  1  0
 12  1  1  0
  8  2  1  0
  2 13  1  0
  9  3  1  0
  3 13  1  0
 12  4  1  0
  4 16  1  0
 16  5  1  0
  5 18  2  0
  7  6  1  0
  6 11  1  1
 16  6  1  0
 10  8  1  0
 10  9  1  0
 10 14  1  6
 11 14  1  0
 11 19  2  0
 12 15  1  1
 22 15  1  0
 23 17  2  0
 23 20  2  0
 23 21  1  6
 22 23  1  0
M  CHG  2  13   1  15   1
M  END
$$$$
