
     RDKit          3D

 23 24  0  0  0  0  0  0  0  0999 V2000
   -7.8604   -1.8810   10.3258 C   0  0  0  0  0  0  0  0  0  0  0  0
   -2.1800    3.4709   12.1298 C   0  0  0  0  0  0  0  0  0  0  0  0
   -1.9950    2.4219    9.9696 C   0  0  0  0  0  0  0  0  0  0  0  0
   -7.7837   -1.4525   12.8005 C   0  0  0  0  0  0  0  0  0  0  0  0
   -5.6461   -2.6129   13.4057 C   0  0  0  0  0  0  0  0  0  0  0  0
   -5.7457   -1.1454   11.4213 C   0  0  1  0  0  0  0  0  0  0  0  0
   -6.7958   -0.8220   10.3535 C   0  0  0  0  0  0  0  0  0  0  0  0
   -3.3358    2.5289   12.2759 C   0  0  0  0  0  0  0  0  0  0  0  0
   -3.4346    2.8621    9.7958 C   0  0  0  0  0  0  0  0  0  0  0  0
   -4.1650    2.3825   11.0354 C   0  0  1  0  0  0  0  0  0  0  0  0
   -5.1478    0.1867   11.7933 C   0  0  0  0  0  0  0  0  0  0  0  0
   -8.6610   -1.8008   11.6233 C   0  0  2  0  0  0  0  0  0  0  0  0
   -1.4033    3.2880   10.9480 N   0  0  0  0  0  4  0  0  0  0  0  0
   -4.4113    0.9432   10.8555 N   0  0  0  0  0  0  0  0  0  0  0  0
   -9.3744   -3.0550   11.8252 N   0  0  0  0  0  4  0  0  0  0  0  0
   -6.3874   -1.7520   12.5612 N   0  0  0  0  0  0  0  0  0  0  0  0
   -7.4321   -5.0550   11.0709 O   0  0  0  0  0  0  0  0  0  0  0  0
   -4.9024   -3.5216   12.8999 O   0  0  0  0  0  0  0  0  0  0  0  0
   -5.3204    0.6078   12.9575 O   0  0  0  0  0  0  0  0  0  0  0  0
   -9.5778   -6.2073   11.0320 O   0  0  0  0  0  0  0  0  0  0  0  0
   -8.5721   -5.3128    8.7757 O   0  0  0  0  0  0  0  0  0  0  0  0
   -9.6033   -3.6241   10.6253 O   0  0  0  0  0  0  0  0  0  0  0  0
   -8.7920   -5.0791   10.4352 S   0  0  2  0  0  6  0  0  0  0  0  0
  1  7  1  0
 12  1  1  0
  8  2  1  0
  2 13  1  0
  9  3  1  0
  3 13  1  0
 12  4  1  0
  4 16  1  0
 16  5  1  0
  5 18  2  0
  7  6  1  0
  6 11  1  1
 16  6  1  0
 10  8  1  0
 10  9  1  0
 10 14  1  6
 11 14  1  0
 11 19  2  0
 12 15  1  1
 22 15  1  0
 23 17  2  0
 23 20  2  0
 23 21  1  6
 22 23  1  0
M  CHG  2  13   1  15   1
M  END
$$$$
