
     RDKit          3D

122123  0  0  0  0  0  0  0  0999 V2000
   55.0695   86.3238   95.9378 N   0  0  0  0  0  4  0  0  0  0  0  0
   53.7505   86.1943   96.6389 C   0  0  2  0  0  0  0  0  0  0  0  0
   53.3820   84.7084   96.7184 C   0  0  0  0  0  0  0  0  0  0  0  0
   54.0358   83.9673   97.4524 O   0  0  0  0  0  0  0  0  0  0  0  0
   52.6969   86.9620   95.8624 C   0  0  0  0  0  0  0  0  0  0  0  0
   52.2784   84.3178   95.9876 N   0  0  0  0  0  0  0  0  0  0  0  0
   51.7906   82.9315   96.0951 C   0  0  2  0  0  0  0  0  0  0  0  0
   51.9375   82.3461   94.6588 C   0  0  0  0  0  0  0  0  0  0  0  0
   52.3887   83.0434   93.7459 O   0  0  0  0  0  0  0  0  0  0  0  0
   50.4038   82.7733   96.7312 C   0  0  0  0  0  0  0  0  0  0  0  0
   49.7414   81.4006   96.5460 C   0  0  0  0  0  0  0  0  0  0  0  0
   48.7047   81.0307   97.6066 C   0  0  0  0  0  0  0  0  0  0  0  0
   47.6416   82.0168   97.6641 N   0  0  0  0  0  0  0  0  0  0  0  0
   46.8446   82.1665   98.7402 C   0  0  0  0  0  0  0  0  0  0  0  0
   47.4423   81.7163   99.8635 N   0  0  0  0  0  0  0  0  0  0  0  0
   45.6574   82.6328   98.8122 N   0  0  0  0  0  0  0  0  0  0  0  0
   51.6107   81.0202   94.4897 N   0  0  0  0  0  0  0  0  0  0  0  0
   52.2215   80.1843   93.4306 C   0  0  2  0  0  0  0  0  0  0  0  0
   52.6582   78.8120   94.0191 C   0  0  0  0  0  0  0  0  0  0  0  0
   53.2769   77.9621   93.3836 O   0  0  0  0  0  0  0  0  0  0  0  0
   53.3760   80.8353   92.6359 C   0  0  0  0  0  0  0  0  0  0  0  0
   54.7445   80.1969   92.7787 C   0  0  0  0  0  0  0  0  0  0  0  0
   55.8601   80.8324   92.2099 C   0  0  0  0  0  0  0  0  0  0  0  0
   54.9318   78.9464   93.3861 C   0  0  0  0  0  0  0  0  0  0  0  0
   57.1266   80.2499   92.2715 C   0  0  0  0  0  0  0  0  0  0  0  0
   56.2034   78.3694   93.4695 C   0  0  0  0  0  0  0  0  0  0  0  0
   57.2940   79.0321   92.9129 C   0  0  0  0  0  0  0  0  0  0  0  0
   58.5533   78.5140   92.9721 O   0  0  0  0  0  0  0  0  0  0  0  0
   52.2316   78.5994   95.3081 N   0  0  0  0  0  0  0  0  0  0  0  0
   52.2621   77.3197   95.9955 C   0  0  2  0  0  0  0  0  0  0  0  0
   51.1257   76.4813   95.3887 C   0  0  0  0  0  0  0  0  0  0  0  0
   51.2562   75.2744   95.2077 O   0  0  0  0  0  0  0  0  0  0  0  0
   52.0036   77.5452   97.4876 C   0  0  0  0  0  0  0  0  0  0  0  0
   50.9842   78.5376   97.7058 O   0  0  0  0  0  0  0  0  0  0  0  0
   49.9784   77.1972   95.1426 N   0  0  0  0  0  0  0  0  0  0  0  0
   48.6538   76.6115   94.8914 C   0  0  2  0  0  0  0  0  0  0  0  0
   48.2844   76.8885   93.4178 C   0  0  0  0  0  0  0  0  0  0  0  0
   47.3688   76.3161   92.8310 O   0  0  0  0  0  0  0  0  0  0  0  0
   47.5020   76.9031   95.8643 C   0  0  0  0  0  0  0  0  0  0  0  0
   46.1600   76.2869   95.4485 C   0  0  0  0  0  0  0  0  0  0  0  0
   45.0076   76.5796   96.4096 C   0  0  0  0  0  0  0  0  0  0  0  0
   43.9531   77.3323   95.7435 N   0  0  0  0  0  0  0  0  0  0  0  0
   42.6644   77.2652   96.1438 C   0  0  0  0  0  0  0  0  0  0  0  0
   41.6770   77.8131   95.5412 N   0  0  0  0  0  0  0  0  0  0  0  0
   42.5401   76.5755   97.2969 N   0  0  0  0  0  0  0  0  0  0  0  0
   48.9953   77.9288   92.8472 N   0  0  0  0  0  0  0  0  0  0  0  0
   48.9178   78.1448   91.4067 C   0  0  2  0  0  0  0  0  0  0  0  0
   49.9172   77.2798   90.6291 C   0  0  0  0  0  0  0  0  0  0  0  0
   50.4921   76.3025   91.1079 O   0  0  0  0  0  0  0  0  0  0  0  0
   48.9893   79.6408   91.0549 C   0  0  0  0  0  0  0  0  0  0  0  0
   49.4129   80.5636   92.1965 C   0  0  0  0  0  0  0  0  0  0  0  0
   49.9217   81.8577   91.6306 C   0  0  0  0  0  0  0  0  0  0  0  0
   49.5388   82.9261   92.3488 O   0  0  0  0  0  0  0  0  0  0  0  0
   50.6530   81.9684   90.6598 O   0  0  0  0  0  0  0  0  0  0  0  0
   50.1192   77.6996   89.3329 N   0  0  0  0  0  0  0  0  0  0  0  0
   51.2173   78.6082   89.0031 C   0  0  2  0  0  0  0  0  0  0  0  0
   50.7317   80.0737   89.1773 C   0  0  0  0  0  0  0  0  0  0  0  0
   51.4809   81.0363   89.0362 O   0  0  0  0  0  0  0  0  0  0  0  0
   51.6979   78.4307   87.5581 C   0  0  0  0  0  0  0  0  0  0  0  0
   52.0688   76.9886   87.2283 C   0  0  0  0  0  0  0  0  0  0  0  0
   51.2789   76.4177   86.0656 C   0  0  0  0  0  0  0  0  0  0  0  0
   51.7499   76.1557   84.9627 O   0  0  0  0  0  0  0  0  0  0  0  0
   49.9704   76.1634   86.3504 N   0  0  0  0  0  0  0  0  0  0  0  0
   49.3605   80.2076   89.3185 N   0  0  0  0  0  0  0  0  0  0  0  0
   48.6137   81.1795   88.5181 C   0  0  2  0  0  0  0  0  0  0  0  0
   47.4060   81.6044   89.3978 C   0  0  0  0  0  0  0  0  0  0  0  0
   46.3666   82.0447   88.8952 O   0  0  0  0  0  0  0  0  0  0  0  0
   48.1871   80.5784   87.1724 C   0  0  0  0  0  0  0  0  0  0  0  0
   47.0506   81.3670   86.4717 C   0  0  1  0  0  0  0  0  0  0  0  0
   46.2713   82.2763   87.4249 C   0  0  0  0  0  0  0  0  0  0  0  0
   47.6173   82.2246   85.3363 C   0  0  0  0  0  0  0  0  0  0  0  0
   47.5130   81.4090   90.7632 N   0  0  0  0  0  0  0  0  0  0  0  0
   46.3699   81.7736   91.6235 C   0  0  2  0  0  0  0  0  0  0  0  0
   45.5902   83.0447   91.2126 C   0  0  0  0  0  0  0  0  0  0  0  0
   44.4059   83.2051   91.5024 O   0  0  0  0  0  0  0  0  0  0  0  0
   46.7781   81.7850   93.1103 C   0  0  0  0  0  0  0  0  0  0  0  0
   48.1609   81.2108   93.4931 C   0  0  1  0  0  0  0  0  0  0  0  0
   48.5728   81.7705   94.8598 C   0  0  0  0  0  0  0  0  0  0  0  0
   48.2226   79.6867   93.5461 C   0  0  0  0  0  0  0  0  0  0  0  0
   44.4572   84.8849   89.2915 C   0  0  0  0  0  0  0  0  0  0  0  0
   46.3410   84.0052   90.5712 N   0  0  0  0  0  0  0  0  0  0  0  0
   43.3697   85.3583   89.6524 O   0  0  0  0  0  0  0  0  0  0  0  0
   45.7877   85.2642   90.0130 C   0  0  1  0  0  0  0  0  0  0  0  0
   46.8164   85.7459   88.9405 C   0  0  0  0  0  0  0  0  0  0  0  0
   47.5518   87.4922   87.2549 C   0  0  0  0  0  0  0  0  0  0  0  0
   48.9273   87.0588   87.7381 C   0  0  0  0  0  0  0  0  0  0  0  0
   46.4590   87.0635   88.2355 C   0  0  0  0  0  0  0  0  0  0  0  0
   45.6245   86.3710   91.0690 C   0  0  0  0  0  0  0  0  0  0  0  0
   44.5558   84.1393   88.1362 N   0  0  0  0  0  0  0  0  0  0  0  0
   43.3743   83.5536   87.5039 C   0  0  2  0  0  0  0  0  0  0  0  0
   42.3597   83.1451   88.5994 C   0  0  0  0  0  0  0  0  0  0  0  0
   41.6081   82.1739   88.4535 O   0  0  0  0  0  0  0  0  0  0  0  0
   43.7308   82.4511   86.4911 C   0  0  0  0  0  0  0  0  0  0  0  0
   43.5141   82.8652   85.0498 C   0  0  0  0  0  0  0  0  0  0  0  0
   44.5999   83.0880   84.1939 C   0  0  0  0  0  0  0  0  0  0  0  0
   42.2192   83.0445   84.5415 C   0  0  0  0  0  0  0  0  0  0  0  0
   44.4060   83.4939   82.8736 C   0  0  0  0  0  0  0  0  0  0  0  0
   42.0254   83.4660   83.2252 C   0  0  0  0  0  0  0  0  0  0  0  0
   43.1155   83.6928   82.3931 C   0  0  0  0  0  0  0  0  0  0  0  0
   42.2799   83.9559   89.7032 N   0  0  0  0  0  0  0  0  0  0  0  0
   41.6704   83.5247   90.9571 C   0  0  2  0  0  0  0  0  0  0  0  0
   41.2747   84.7723   91.7655 C   0  0  0  0  0  0  0  0  0  0  0  0
   40.7362   84.6962   92.8722 O   0  0  0  0  0  0  0  0  0  0  0  0
   42.6089   82.6192   91.7689 C   0  0  0  0  0  0  0  0  0  0  0  0
   41.8539   81.7634   92.7886 C   0  0  0  0  0  0  0  0  0  0  0  0
   42.5659   80.4605   93.0644 C   0  0  0  0  0  0  0  0  0  0  0  0
   43.5714   80.3480   93.7617 O   0  0  0  0  0  0  0  0  0  0  0  0
   42.0099   79.3695   92.4560 N   0  0  0  0  0  0  0  0  0  0  0  0
   41.5434   85.9759   91.1425 N   0  0  0  0  0  0  0  0  0  0  0  0
   42.8135   86.6581   91.3782 C   0  0  2  0  0  0  0  0  0  0  0  0
   43.8838   86.0801   90.4391 C   0  0  0  0  0  0  0  0  0  0  0  0
   43.7054   85.0985   89.7205 O   0  0  0  0  0  0  0  0  0  0  0  0
   43.2969   86.4993   92.8311 C   0  0  0  0  0  0  0  0  0  0  0  0
   43.4524   87.7961   93.6309 C   0  0  0  0  0  0  0  0  0  0  0  0
   42.1356   88.4650   94.0221 C   0  0  0  0  0  0  0  0  0  0  0  0
   41.6803   89.3316   92.9431 N   0  0  0  0  0  0  0  0  0  0  0  0
   40.5812   90.1090   93.0925 C   0  0  0  0  0  0  0  0  0  0  0  0
   40.1540   90.9428   92.2235 N   0  0  0  0  0  0  0  0  0  0  0  0
   40.0454   89.9864   94.3208 N   0  0  0  0  0  0  0  0  0  0  0  0
   45.4275   83.1530   97.9658 H   0  0  0  0  0  0  0  0  0  0  0  0
   42.0196   78.4418   94.8143 H   0  0  0  0  0  0  0  0  0  0  0  0
   39.8456   91.7921   92.7110 H   0  0  0  0  0  0  0  0  0  0  0  0
  2  1  1  0
  3  2  1  0
  2  5  1  6
  3  4  2  0
  6  3  1  0
  7  6  1  0
  8  7  1  0
  7 10  1  6
  8  9  2  0
 17  8  1  0
 10 11  1  0
 11 12  1  0
 12 13  1  0
 13 14  1  0
 14 15  1  0
 14 16  2  0
 18 17  1  0
 19 18  1  0
 18 21  1  1
 19 20  2  0
 29 19  1  0
 21 22  1  0
 22 23  2  0
 22 24  1  0
 23 25  1  0
 24 26  2  0
 25 27  2  0
 26 27  1  0
 27 28  1  0
 30 29  1  0
 31 30  1  0
 30 33  1  1
 31 32  2  0
 35 31  1  0
 33 34  1  0
 36 35  1  0
 37 36  1  0
 36 39  1  1
 37 38  2  0
 46 37  1  0
 39 40  1  0
 40 41  1  0
 41 42  1  0
 42 43  1  0
 43 44  2  0
 43 45  1  0
 47 46  1  0
 48 47  1  0
 47 50  1  1
 48 49  2  0
 55 48  1  0
 50 51  1  0
 51 52  1  0
 52 53  1  0
 52 54  2  0
 56 55  1  0
 57 56  1  0
 56 59  1  6
 57 58  2  0
 64 57  1  0
 59 60  1  0
 60 61  1  0
 61 62  2  0
 61 63  1  0
 65 64  1  0
 66 65  1  0
 65 68  1  6
 66 67  2  0
 72 66  1  0
 68 69  1  0
 69 70  1  1
 69 71  1  0
 73 72  1  0
 74 73  1  0
 73 76  1  1
 74 75  2  0
 81 74  1  0
 76 77  1  0
 77 78  1  1
 77 79  1  0
 80 82  2  0
 83 80  1  0
 80 89  1  0
 83 81  1  0
 84 83  1  0
 83 88  1  1
 87 84  1  0
 85 86  1  0
 85 87  1  0
 89 90  1  0
 90 91  1  0
 90 93  1  1
 91 92  2  0
 91100  1  0
 93 94  1  0
 94 95  2  0
 94 96  1  0
 95 97  1  0
 96 98  2  0
 97 99  2  0
 98 99  1  0
100101  1  0
101102  1  0
101104  1  1
102103  2  0
102109  1  0
104105  1  0
105106  1  0
106107  2  0
106108  1  0
109110  1  0
110111  1  0
110113  1  1
111112  2  0
113114  1  0
114115  1  0
115116  1  0
116117  1  0
117118  2  0
117119  1  0
 16120  1  0
 44121  1  0
118122  1  0
M  CHG  1   1   1
M  END
$$$$
