
     RDKit          3D

122123  0  0  0  0  0  0  0  0999 V2000
   61.4365   74.5605   95.2917 N   0  0  0  0  0  4  0  0  0  0  0  0
   60.2273   75.1564   95.9481 C   0  0  2  0  0  0  0  0  0  0  0  0
   59.0361   75.0239   94.9924 C   0  0  0  0  0  0  0  0  0  0  0  0
   59.2133   75.1953   93.7863 O   0  0  0  0  0  0  0  0  0  0  0  0
   60.4989   76.6164   96.2593 C   0  0  0  0  0  0  0  0  0  0  0  0
   57.8369   74.6535   95.5665 N   0  0  0  0  0  0  0  0  0  0  0  0
   56.6390   74.5163   94.7196 C   0  0  2  0  0  0  0  0  0  0  0  0
   56.2548   75.9764   94.3352 C   0  0  0  0  0  0  0  0  0  0  0  0
   56.6338   76.9231   95.0304 O   0  0  0  0  0  0  0  0  0  0  0  0
   55.5060   73.6746   95.3204 C   0  0  0  0  0  0  0  0  0  0  0  0
   55.4857   73.5864   96.8531 C   0  0  0  0  0  0  0  0  0  0  0  0
   54.6140   72.4703   97.4285 C   0  0  0  0  0  0  0  0  0  0  0  0
   54.1215   71.5983   96.3784 N   0  0  0  0  0  0  0  0  0  0  0  0
   52.9542   70.9319   96.4729 C   0  0  0  0  0  0  0  0  0  0  0  0
   53.0019   69.7564   95.8113 N   0  0  0  0  0  0  0  0  0  0  0  0
   51.8705   71.2722   97.0576 N   0  0  0  0  0  0  0  0  0  0  0  0
   55.5481   76.1480   93.1671 N   0  0  0  0  0  0  0  0  0  0  0  0
   55.0460   77.4723   92.7341 C   0  0  2  0  0  0  0  0  0  0  0  0
   53.5259   77.5937   93.0420 C   0  0  0  0  0  0  0  0  0  0  0  0
   52.7405   76.6508   92.9868 O   0  0  0  0  0  0  0  0  0  0  0  0
   55.3441   77.8635   91.2691 C   0  0  0  0  0  0  0  0  0  0  0  0
   54.6409   79.0981   90.7383 C   0  0  0  0  0  0  0  0  0  0  0  0
   54.8442   79.4821   89.4030 C   0  0  0  0  0  0  0  0  0  0  0  0
   53.8571   79.9271   91.5546 C   0  0  0  0  0  0  0  0  0  0  0  0
   54.2596   80.6419   88.8928 C   0  0  0  0  0  0  0  0  0  0  0  0
   53.2512   81.0787   91.0413 C   0  0  0  0  0  0  0  0  0  0  0  0
   53.4557   81.4238   89.7081 C   0  0  0  0  0  0  0  0  0  0  0  0
   52.8839   82.5329   89.1596 O   0  0  0  0  0  0  0  0  0  0  0  0
   53.1165   78.8754   93.3218 N   0  0  0  0  0  0  0  0  0  0  0  0
   51.7437   79.2732   93.5830 C   0  0  2  0  0  0  0  0  0  0  0  0
   51.7928   80.7661   93.9454 C   0  0  0  0  0  0  0  0  0  0  0  0
   52.8026   81.2671   94.4307 O   0  0  0  0  0  0  0  0  0  0  0  0
   51.2043   78.4671   94.7676 C   0  0  0  0  0  0  0  0  0  0  0  0
   52.2604   78.0556   95.6547 O   0  0  0  0  0  0  0  0  0  0  0  0
   50.6483   81.4541   93.6196 N   0  0  0  0  0  0  0  0  0  0  0  0
   50.4187   82.8832   93.8765 C   0  0  2  0  0  0  0  0  0  0  0  0
   48.8930   83.1186   93.9170 C   0  0  0  0  0  0  0  0  0  0  0  0
   48.1143   82.6503   93.0895 O   0  0  0  0  0  0  0  0  0  0  0  0
   51.1661   83.9309   93.0388 C   0  0  0  0  0  0  0  0  0  0  0  0
   50.3357   84.5253   91.8938 C   0  0  0  0  0  0  0  0  0  0  0  0
   50.9946   84.4219   90.5181 C   0  0  0  0  0  0  0  0  0  0  0  0
   51.4070   85.7344   90.0389 N   0  0  0  0  0  0  0  0  0  0  0  0
   52.6961   86.0176   89.7500 C   0  0  0  0  0  0  0  0  0  0  0  0
   53.6145   85.1479   89.5537 N   0  0  0  0  0  0  0  0  0  0  0  0
   52.9181   87.3484   89.7323 N   0  0  0  0  0  0  0  0  0  0  0  0
   48.4605   83.8029   95.0385 N   0  0  0  0  0  0  0  0  0  0  0  0
   47.0355   84.0587   95.2168 C   0  0  2  0  0  0  0  0  0  0  0  0
   46.2581   83.9938   93.8966 C   0  0  0  0  0  0  0  0  0  0  0  0
   45.1547   83.4613   93.7789 O   0  0  0  0  0  0  0  0  0  0  0  0
   46.7888   85.3490   96.0175 C   0  0  0  0  0  0  0  0  0  0  0  0
   45.8665   86.3685   95.3507 C   0  0  0  0  0  0  0  0  0  0  0  0
   45.7955   87.6067   96.1969 C   0  0  0  0  0  0  0  0  0  0  0  0
   45.1669   88.6219   95.5819 O   0  0  0  0  0  0  0  0  0  0  0  0
   46.2006   87.7061   97.3438 O   0  0  0  0  0  0  0  0  0  0  0  0
   46.9125   84.5887   92.8406 N   0  0  0  0  0  0  0  0  0  0  0  0
   46.3440   84.5552   91.4931 C   0  0  2  0  0  0  0  0  0  0  0  0
   46.3140   83.0846   90.9927 C   0  0  0  0  0  0  0  0  0  0  0  0
   45.2754   82.4327   90.9278 O   0  0  0  0  0  0  0  0  0  0  0  0
   47.1672   85.3832   90.4995 C   0  0  0  0  0  0  0  0  0  0  0  0
   46.5160   85.4797   89.1238 C   0  0  0  0  0  0  0  0  0  0  0  0
   47.3112   86.3194   88.1420 C   0  0  0  0  0  0  0  0  0  0  0  0
   47.0720   87.4929   87.8724 O   0  0  0  0  0  0  0  0  0  0  0  0
   48.3773   85.6739   87.5900 N   0  0  0  0  0  0  0  0  0  0  0  0
   47.5111   82.6394   90.4571 N   0  0  0  0  0  0  0  0  0  0  0  0
   47.5594   81.4418   89.6167 C   0  0  2  0  0  0  0  0  0  0  0  0
   47.0450   80.2820   90.5130 C   0  0  0  0  0  0  0  0  0  0  0  0
   47.7834   79.7254   91.3325 O   0  0  0  0  0  0  0  0  0  0  0  0
   48.9766   81.1968   89.0821 C   0  0  0  0  0  0  0  0  0  0  0  0
   49.4947   82.3259   88.1540 C   0  0  1  0  0  0  0  0  0  0  0  0
   50.9016   82.0629   87.6119 C   0  0  0  0  0  0  0  0  0  0  0  0
   48.5451   82.5200   86.9681 C   0  0  0  0  0  0  0  0  0  0  0  0
   45.7090   79.9393   90.4059 N   0  0  0  0  0  0  0  0  0  0  0  0
   45.2098   78.7823   91.1752 C   0  0  2  0  0  0  0  0  0  0  0  0
   43.7352   78.3875   90.9262 C   0  0  0  0  0  0  0  0  0  0  0  0
   43.0457   77.8599   91.7971 O   0  0  0  0  0  0  0  0  0  0  0  0
   45.5368   78.9323   92.6746 C   0  0  0  0  0  0  0  0  0  0  0  0
   44.3668   78.9066   93.6839 C   0  0  1  0  0  0  0  0  0  0  0  0
   44.0960   77.4552   94.0972 C   0  0  0  0  0  0  0  0  0  0  0  0
   44.5943   79.7424   94.9406 C   0  0  0  0  0  0  0  0  0  0  0  0
   42.1615   80.8139   90.3980 C   0  0  0  0  0  0  0  0  0  0  0  0
   43.2397   78.7410   89.6904 N   0  0  0  0  0  0  0  0  0  0  0  0
   41.5113   80.9238   91.4479 O   0  0  0  0  0  0  0  0  0  0  0  0
   42.0189   79.5589   89.4819 C   0  0  1  0  0  0  0  0  0  0  0  0
   40.8284   78.6929   90.0049 C   0  0  0  0  0  0  0  0  0  0  0  0
   38.6800   78.5421   91.3439 C   0  0  0  0  0  0  0  0  0  0  0  0
   37.3459   78.5900   90.6150 C   0  0  0  0  0  0  0  0  0  0  0  0
   39.7010   79.4771   90.6938 C   0  0  0  0  0  0  0  0  0  0  0  0
   41.7665   79.8987   88.0029 C   0  0  0  0  0  0  0  0  0  0  0  0
   43.1576   81.7141   90.0853 N   0  0  0  0  0  0  0  0  0  0  0  0
   42.8595   83.1230   89.8310 C   0  0  2  0  0  0  0  0  0  0  0  0
   41.8359   83.6245   90.8784 C   0  0  0  0  0  0  0  0  0  0  0  0
   42.1124   84.5368   91.6661 O   0  0  0  0  0  0  0  0  0  0  0  0
   42.4865   83.3929   88.3626 C   0  0  0  0  0  0  0  0  0  0  0  0
   43.6697   83.3237   87.4187 C   0  0  0  0  0  0  0  0  0  0  0  0
   43.4973   83.4675   86.0365 C   0  0  0  0  0  0  0  0  0  0  0  0
   44.9659   83.1040   87.9076 C   0  0  0  0  0  0  0  0  0  0  0  0
   44.5799   83.3793   85.1614 C   0  0  0  0  0  0  0  0  0  0  0  0
   46.0470   82.9998   87.0311 C   0  0  0  0  0  0  0  0  0  0  0  0
   45.8553   83.1345   85.6610 C   0  0  0  0  0  0  0  0  0  0  0  0
   40.6385   82.9579   90.9428 N   0  0  0  0  0  0  0  0  0  0  0  0
   39.4695   83.4993   91.6284 C   0  0  2  0  0  0  0  0  0  0  0  0
   39.5919   83.1867   93.1297 C   0  0  0  0  0  0  0  0  0  0  0  0
   38.7056   83.4759   93.9368 O   0  0  0  0  0  0  0  0  0  0  0  0
   38.1588   82.9390   91.0559 C   0  0  0  0  0  0  0  0  0  0  0  0
   36.9306   83.6986   91.5625 C   0  0  0  0  0  0  0  0  0  0  0  0
   36.8388   85.0812   90.9621 C   0  0  0  0  0  0  0  0  0  0  0  0
   36.2859   85.3448   89.8968 O   0  0  0  0  0  0  0  0  0  0  0  0
   37.4442   86.0614   91.6983 N   0  0  0  0  0  0  0  0  0  0  0  0
   40.7793   82.5862   93.5017 N   0  0  0  0  0  0  0  0  0  0  0  0
   41.0198   82.2367   94.8997 C   0  0  2  0  0  0  0  0  0  0  0  0
   41.5143   83.4790   95.6572 C   0  0  0  0  0  0  0  0  0  0  0  0
   41.3060   83.6794   96.8523 O   0  0  0  0  0  0  0  0  0  0  0  0
   42.0701   81.1209   95.0467 C   0  0  0  0  0  0  0  0  0  0  0  0
   43.5296   81.5458   94.8596 C   0  0  0  0  0  0  0  0  0  0  0  0
   44.3686   80.5881   94.0152 C   0  0  0  0  0  0  0  0  0  0  0  0
   45.7420   80.5723   94.5012 N   0  0  0  0  0  0  0  0  0  0  0  0
   46.3803   79.4024   94.7437 C   0  0  0  0  0  0  0  0  0  0  0  0
   46.1966   78.3216   94.0872 N   0  0  0  0  0  0  0  0  0  0  0  0
   47.1574   79.4749   95.8398 N   0  0  0  0  0  0  0  0  0  0  0  0
   51.3548   70.4460   97.3598 H   0  0  0  0  0  0  0  0  0  0  0  0
   53.2396   84.2094   89.6942 H   0  0  0  0  0  0  0  0  0  0  0  0
   46.4111   78.5001   93.0992 H   0  0  0  0  0  0  0  0  0  0  0  0
  2  1  1  0
  3  2  1  0
  2  5  1  6
  3  4  2  0
  6  3  1  0
  7  6  1  0
  8  7  1  0
  7 10  1  1
  8  9  2  0
 17  8  1  0
 10 11  1  0
 11 12  1  0
 12 13  1  0
 13 14  1  0
 14 15  1  0
 14 16  2  0
 18 17  1  0
 19 18  1  0
 18 21  1  6
 19 20  2  0
 29 19  1  0
 21 22  1  0
 22 23  2  0
 22 24  1  0
 23 25  1  0
 24 26  2  0
 25 27  2  0
 26 27  1  0
 27 28  1  0
 30 29  1  0
 31 30  1  0
 30 33  1  1
 31 32  2  0
 35 31  1  0
 33 34  1  0
 36 35  1  0
 37 36  1  0
 36 39  1  6
 37 38  2  0
 46 37  1  0
 39 40  1  0
 40 41  1  0
 41 42  1  0
 42 43  1  0
 43 44  2  0
 43 45  1  0
 47 46  1  0
 48 47  1  0
 47 50  1  6
 48 49  2  0
 55 48  1  0
 50 51  1  0
 51 52  1  0
 52 53  1  0
 52 54  2  0
 56 55  1  0
 57 56  1  0
 56 59  1  6
 57 58  2  0
 64 57  1  0
 59 60  1  0
 60 61  1  0
 61 62  2  0
 61 63  1  0
 65 64  1  0
 66 65  1  0
 65 68  1  1
 66 67  2  0
 72 66  1  0
 68 69  1  0
 69 70  1  6
 69 71  1  0
 73 72  1  0
 74 73  1  0
 73 76  1  1
 74 75  2  0
 81 74  1  0
 76 77  1  0
 77 78  1  1
 77 79  1  0
 80 82  2  0
 83 80  1  0
 80 89  1  0
 83 81  1  0
 84 83  1  0
 83 88  1  6
 87 84  1  0
 85 86  1  0
 85 87  1  0
 89 90  1  0
 90 91  1  0
 90 93  1  6
 91 92  2  0
 91100  1  0
 93 94  1  0
 94 95  2  0
 94 96  1  0
 95 97  1  0
 96 98  2  0
 97 99  2  0
 98 99  1  0
100101  1  0
101102  1  0
101104  1  6
102103  2  0
102109  1  0
104105  1  0
105106  1  0
106107  2  0
106108  1  0
109110  1  0
110111  1  0
110113  1  6
111112  2  0
113114  1  0
114115  1  0
115116  1  0
116117  1  0
117118  2  0
117119  1  0
 16120  1  0
 44121  1  0
118122  1  0
M  CHG  1   1   1
M  END
$$$$
