
     RDKit          3D

122123  0  0  0  0  0  0  0  0999 V2000
   53.1868   74.4291   94.9862 N   0  0  0  0  0  4  0  0  0  0  0  0
   52.5449   74.7422   96.3046 C   0  0  2  0  0  0  0  0  0  0  0  0
   53.1505   76.0416   96.8476 C   0  0  0  0  0  0  0  0  0  0  0  0
   52.9420   76.3561   98.0194 O   0  0  0  0  0  0  0  0  0  0  0  0
   52.7979   73.5959   97.2658 C   0  0  0  0  0  0  0  0  0  0  0  0
   53.9541   76.7468   95.9749 N   0  0  0  0  0  0  0  0  0  0  0  0
   55.2392   77.2893   96.4493 C   0  0  2  0  0  0  0  0  0  0  0  0
   56.0755   77.5193   95.1551 C   0  0  0  0  0  0  0  0  0  0  0  0
   57.3086   77.5304   95.2049 O   0  0  0  0  0  0  0  0  0  0  0  0
   55.9326   76.4672   97.5430 C   0  0  0  0  0  0  0  0  0  0  0  0
   55.1911   76.3894   98.8853 C   0  0  0  0  0  0  0  0  0  0  0  0
   54.9352   77.7342   99.5654 C   0  0  0  0  0  0  0  0  0  0  0  0
   53.8911   77.6227  100.5669 N   0  0  0  0  0  0  0  0  0  0  0  0
   53.9780   76.7861  101.6196 C   0  0  0  0  0  0  0  0  0  0  0  0
   55.1708   76.8975  102.2415 N   0  0  0  0  0  0  0  0  0  0  0  0
   53.1274   75.9379  102.0545 N   0  0  0  0  0  0  0  0  0  0  0  0
   55.3780   77.6343   93.9745 N   0  0  0  0  0  0  0  0  0  0  0  0
   55.7212   78.6461   92.9489 C   0  0  2  0  0  0  0  0  0  0  0  0
   54.5749   78.7560   91.9029 C   0  0  0  0  0  0  0  0  0  0  0  0
   54.3180   79.7808   91.2762 O   0  0  0  0  0  0  0  0  0  0  0  0
   57.0882   78.4660   92.2509 C   0  0  0  0  0  0  0  0  0  0  0  0
   57.3093   79.2552   90.9747 C   0  0  0  0  0  0  0  0  0  0  0  0
   58.5049   79.0805   90.2591 C   0  0  0  0  0  0  0  0  0  0  0  0
   56.4002   80.2224   90.5210 C   0  0  0  0  0  0  0  0  0  0  0  0
   58.7699   79.8282   89.1111 C   0  0  0  0  0  0  0  0  0  0  0  0
   56.6520   80.9583   89.3583 C   0  0  0  0  0  0  0  0  0  0  0  0
   57.8377   80.7497   88.6592 C   0  0  0  0  0  0  0  0  0  0  0  0
   58.1273   81.4379   87.5187 O   0  0  0  0  0  0  0  0  0  0  0  0
   53.8206   77.6135   91.7835 N   0  0  0  0  0  0  0  0  0  0  0  0
   52.6589   77.4681   90.9230 C   0  0  2  0  0  0  0  0  0  0  0  0
   51.7092   78.6201   91.2885 C   0  0  0  0  0  0  0  0  0  0  0  0
   51.1404   79.2722   90.4182 O   0  0  0  0  0  0  0  0  0  0  0  0
   51.9842   76.1248   91.2135 C   0  0  0  0  0  0  0  0  0  0  0  0
   51.9685   75.8322   92.6227 O   0  0  0  0  0  0  0  0  0  0  0  0
   51.5322   78.7853   92.6415 N   0  0  0  0  0  0  0  0  0  0  0  0
   50.7083   79.8308   93.2651 C   0  0  2  0  0  0  0  0  0  0  0  0
   51.6315   80.6986   94.1480 C   0  0  0  0  0  0  0  0  0  0  0  0
   51.8137   80.4898   95.3453 O   0  0  0  0  0  0  0  0  0  0  0  0
   49.3983   79.4425   93.9660 C   0  0  0  0  0  0  0  0  0  0  0  0
   49.5785   78.4591   95.1296 C   0  0  0  0  0  0  0  0  0  0  0  0
   48.2742   78.0397   95.8079 C   0  0  0  0  0  0  0  0  0  0  0  0
   48.4934   76.9138   96.7060 N   0  0  0  0  0  0  0  0  0  0  0  0
   49.0014   77.0774   97.9472 C   0  0  0  0  0  0  0  0  0  0  0  0
   48.5150   77.8485   98.8457 N   0  0  0  0  0  0  0  0  0  0  0  0
   50.1258   76.3520   98.1209 N   0  0  0  0  0  0  0  0  0  0  0  0
   52.3352   81.6613   93.4473 N   0  0  0  0  0  0  0  0  0  0  0  0
   53.0687   82.6878   94.1795 C   0  0  2  0  0  0  0  0  0  0  0  0
   52.1673   83.8431   94.6315 C   0  0  0  0  0  0  0  0  0  0  0  0
   52.5572   84.7833   95.3235 O   0  0  0  0  0  0  0  0  0  0  0  0
   54.3211   83.1441   93.4111 C   0  0  0  0  0  0  0  0  0  0  0  0
   55.2141   82.0209   92.8863 C   0  0  0  0  0  0  0  0  0  0  0  0
   56.1526   81.5799   93.9721 C   0  0  0  0  0  0  0  0  0  0  0  0
   56.1300   82.3924   95.0413 O   0  0  0  0  0  0  0  0  0  0  0  0
   56.8366   80.5694   93.9511 O   0  0  0  0  0  0  0  0  0  0  0  0
   50.8666   83.7332   94.1918 N   0  0  0  0  0  0  0  0  0  0  0  0
   50.0135   84.9159   94.0752 C   0  0  2  0  0  0  0  0  0  0  0  0
   48.6508   84.4983   93.4568 C   0  0  0  0  0  0  0  0  0  0  0  0
   48.5596   83.6376   92.5857 O   0  0  0  0  0  0  0  0  0  0  0  0
   50.6381   85.9908   93.1779 C   0  0  0  0  0  0  0  0  0  0  0  0
   52.1000   86.2679   93.5126 C   0  0  0  0  0  0  0  0  0  0  0  0
   52.2774   87.2030   94.6941 C   0  0  0  0  0  0  0  0  0  0  0  0
   53.3546   87.6534   95.0731 O   0  0  0  0  0  0  0  0  0  0  0  0
   51.1119   87.5595   95.3043 N   0  0  0  0  0  0  0  0  0  0  0  0
   47.5457   85.0371   94.0943 N   0  0  0  0  0  0  0  0  0  0  0  0
   46.2350   84.3918   94.0007 C   0  0  2  0  0  0  0  0  0  0  0  0
   45.8692   84.4073   92.4911 C   0  0  0  0  0  0  0  0  0  0  0  0
   44.7889   83.9652   92.0858 O   0  0  0  0  0  0  0  0  0  0  0  0
   45.1983   85.1140   94.8714 C   0  0  0  0  0  0  0  0  0  0  0  0
   43.9150   85.5203   94.1016 C   0  0  1  0  0  0  0  0  0  0  0  0
   43.0820   84.3211   93.6428 C   0  0  0  0  0  0  0  0  0  0  0  0
   43.0329   86.4205   94.9719 C   0  0  0  0  0  0  0  0  0  0  0  0
   46.7717   84.9958   91.6234 N   0  0  0  0  0  0  0  0  0  0  0  0
   46.4447   85.0428   90.1845 C   0  0  2  0  0  0  0  0  0  0  0  0
   45.9456   83.7192   89.5589 C   0  0  0  0  0  0  0  0  0  0  0  0
   45.2068   83.7006   88.5759 O   0  0  0  0  0  0  0  0  0  0  0  0
   47.5917   85.6830   89.3771 C   0  0  0  0  0  0  0  0  0  0  0  0
   48.4702   86.7471   90.0730 C   0  0  1  0  0  0  0  0  0  0  0  0
   47.7248   87.2846   91.3003 C   0  0  0  0  0  0  0  0  0  0  0  0
   49.8445   86.2481   90.5108 C   0  0  0  0  0  0  0  0  0  0  0  0
   45.7701   80.3400   89.4325 C   0  0  0  0  0  0  0  0  0  0  0  0
   46.4517   82.5759   90.1371 N   0  0  0  0  0  0  0  0  0  0  0  0
   45.8998   79.2134   88.9316 O   0  0  0  0  0  0  0  0  0  0  0  0
   46.9215   81.3915   89.3760 C   0  0  1  0  0  0  0  0  0  0  0  0
   48.1467   80.8320   90.1674 C   0  0  0  0  0  0  0  0  0  0  0  0
   49.0344   79.3454   92.0204 C   0  0  0  0  0  0  0  0  0  0  0  0
   50.3040   79.2268   91.1911 C   0  0  0  0  0  0  0  0  0  0  0  0
   47.8292   79.6885   91.1433 C   0  0  0  0  0  0  0  0  0  0  0  0
   47.3753   81.7349   87.9467 C   0  0  0  0  0  0  0  0  0  0  0  0
   44.6704   80.6487   90.2044 N   0  0  0  0  0  0  0  0  0  0  0  0
   43.5231   79.7461   90.2922 C   0  0  2  0  0  0  0  0  0  0  0  0
   42.3103   80.5177   90.8666 C   0  0  0  0  0  0  0  0  0  0  0  0
   41.1541   80.1031   90.7224 O   0  0  0  0  0  0  0  0  0  0  0  0
   43.8628   78.4256   91.0058 C   0  0  0  0  0  0  0  0  0  0  0  0
   43.7179   78.5012   92.5122 C   0  0  0  0  0  0  0  0  0  0  0  0
   44.7978   78.8757   93.3213 C   0  0  0  0  0  0  0  0  0  0  0  0
   42.4996   78.1880   93.1326 C   0  0  0  0  0  0  0  0  0  0  0  0
   44.6766   78.9221   94.7101 C   0  0  0  0  0  0  0  0  0  0  0  0
   42.3826   78.2189   94.5230 C   0  0  0  0  0  0  0  0  0  0  0  0
   43.4684   78.5826   95.3109 C   0  0  0  0  0  0  0  0  0  0  0  0
   42.5720   81.7197   91.4739 N   0  0  0  0  0  0  0  0  0  0  0  0
   41.7044   82.8838   91.3270 C   0  0  2  0  0  0  0  0  0  0  0  0
   41.4451   83.1174   89.8287 C   0  0  0  0  0  0  0  0  0  0  0  0
   40.3146   83.3195   89.3798 O   0  0  0  0  0  0  0  0  0  0  0  0
   42.3088   84.1353   91.9813 C   0  0  0  0  0  0  0  0  0  0  0  0
   41.3157   85.2983   92.0407 C   0  0  0  0  0  0  0  0  0  0  0  0
   41.6051   86.3378   90.9842 C   0  0  0  0  0  0  0  0  0  0  0  0
   41.2504   87.5128   91.0447 O   0  0  0  0  0  0  0  0  0  0  0  0
   42.3028   85.8717   89.9047 N   0  0  0  0  0  0  0  0  0  0  0  0
   42.5701   83.0539   89.0291 N   0  0  0  0  0  0  0  0  0  0  0  0
   42.4636   83.2862   87.5907 C   0  0  2  0  0  0  0  0  0  0  0  0
   41.9879   81.9980   86.9009 C   0  0  0  0  0  0  0  0  0  0  0  0
   42.7039   81.0152   86.7184 O   0  0  0  0  0  0  0  0  0  0  0  0
   43.8073   83.7089   86.9699 C   0  0  0  0  0  0  0  0  0  0  0  0
   44.0006   85.2123   86.7507 C   0  0  0  0  0  0  0  0  0  0  0  0
   43.4906   85.7310   85.4072 C   0  0  0  0  0  0  0  0  0  0  0  0
   44.5699   86.3984   84.6917 N   0  0  0  0  0  0  0  0  0  0  0  0
   45.2121   85.7826   83.6703 C   0  0  0  0  0  0  0  0  0  0  0  0
   44.6388   85.1051   82.7510 N   0  0  0  0  0  0  0  0  0  0  0  0
   46.5491   85.8699   83.7953 N   0  0  0  0  0  0  0  0  0  0  0  0
   52.2999   75.9265  101.4588 H   0  0  0  0  0  0  0  0  0  0  0  0
   47.5119   77.9631   98.6988 H   0  0  0  0  0  0  0  0  0  0  0  0
   44.8370   85.5496   81.8470 H   0  0  0  0  0  0  0  0  0  0  0  0
  2  1  1  0
  3  2  1  0
  2  5  1  1
  3  4  2  0
  6  3  1  0
  7  6  1  0
  8  7  1  0
  7 10  1  1
  8  9  2  0
 17  8  1  0
 10 11  1  0
 11 12  1  0
 12 13  1  0
 13 14  1  0
 14 15  1  0
 14 16  2  0
 18 17  1  0
 19 18  1  0
 18 21  1  6
 19 20  2  0
 29 19  1  0
 21 22  1  0
 22 23  2  0
 22 24  1  0
 23 25  1  0
 24 26  2  0
 25 27  2  0
 26 27  1  0
 27 28  1  0
 30 29  1  0
 31 30  1  0
 30 33  1  1
 31 32  2  0
 35 31  1  0
 33 34  1  0
 36 35  1  0
 37 36  1  0
 36 39  1  1
 37 38  2  0
 46 37  1  0
 39 40  1  0
 40 41  1  0
 41 42  1  0
 42 43  1  0
 43 44  2  0
 43 45  1  0
 47 46  1  0
 48 47  1  0
 47 50  1  6
 48 49  2  0
 55 48  1  0
 50 51  1  0
 51 52  1  0
 52 53  1  0
 52 54  2  0
 56 55  1  0
 57 56  1  0
 56 59  1  6
 57 58  2  0
 64 57  1  0
 59 60  1  0
 60 61  1  0
 61 62  2  0
 61 63  1  0
 65 64  1  0
 66 65  1  0
 65 68  1  1
 66 67  2  0
 72 66  1  0
 68 69  1  0
 69 70  1  1
 69 71  1  0
 73 72  1  0
 74 73  1  0
 73 76  1  6
 74 75  2  0
 81 74  1  0
 76 77  1  0
 77 78  1  1
 77 79  1  0
 80 82  2  0
 83 80  1  0
 80 89  1  0
 83 81  1  0
 84 83  1  0
 83 88  1  6
 87 84  1  0
 85 86  1  0
 85 87  1  0
 89 90  1  0
 90 91  1  0
 90 93  1  1
 91 92  2  0
 91100  1  0
 93 94  1  0
 94 95  2  0
 94 96  1  0
 95 97  1  0
 96 98  2  0
 97 99  2  0
 98 99  1  0
100101  1  0
101102  1  0
101104  1  6
102103  2  0
102109  1  0
104105  1  0
105106  1  0
106107  2  0
106108  1  0
109110  1  0
110111  1  0
110113  1  6
111112  2  0
113114  1  0
114115  1  0
115116  1  0
116117  1  0
117118  2  0
117119  1  0
 16120  1  0
 44121  1  0
118122  1  0
M  CHG  1   1   1
M  END
$$$$
