
     RDKit          3D

122123  0  0  0  0  0  0  0  0999 V2000
   56.0281   70.8555   97.1543 N   0  0  0  0  0  4  0  0  0  0  0  0
   55.1732   71.4252   96.0621 C   0  0  2  0  0  0  0  0  0  0  0  0
   54.7224   72.8307   96.4760 C   0  0  0  0  0  0  0  0  0  0  0  0
   54.2655   73.0052   97.6057 O   0  0  0  0  0  0  0  0  0  0  0  0
   53.9718   70.5233   95.8490 C   0  0  0  0  0  0  0  0  0  0  0  0
   54.9247   73.8303   95.5462 N   0  0  0  0  0  0  0  0  0  0  0  0
   55.4995   75.1167   95.9774 C   0  0  2  0  0  0  0  0  0  0  0  0
   55.1459   76.1134   94.8333 C   0  0  0  0  0  0  0  0  0  0  0  0
   55.5805   77.2683   94.8579 O   0  0  0  0  0  0  0  0  0  0  0  0
   56.9801   75.0710   96.3756 C   0  0  0  0  0  0  0  0  0  0  0  0
   57.5441   76.3634   96.9833 C   0  0  0  0  0  0  0  0  0  0  0  0
   58.6012   76.1638   98.0692 C   0  0  0  0  0  0  0  0  0  0  0  0
   58.0001   75.6920   99.3028 N   0  0  0  0  0  0  0  0  0  0  0  0
   58.7251   75.3951  100.3991 C   0  0  0  0  0  0  0  0  0  0  0  0
   60.0347   75.2583  100.1026 N   0  0  0  0  0  0  0  0  0  0  0  0
   58.3387   75.2161  101.6035 N   0  0  0  0  0  0  0  0  0  0  0  0
   54.4003   75.6217   93.7866 N   0  0  0  0  0  0  0  0  0  0  0  0
   53.7135   76.5089   92.8198 C   0  0  2  0  0  0  0  0  0  0  0  0
   53.3098   77.8422   93.5124 C   0  0  0  0  0  0  0  0  0  0  0  0
   53.0278   77.9346   94.7044 O   0  0  0  0  0  0  0  0  0  0  0  0
   52.5112   75.8916   92.0703 C   0  0  0  0  0  0  0  0  0  0  0  0
   51.8229   76.7734   91.0460 C   0  0  0  0  0  0  0  0  0  0  0  0
   52.1562   78.1360   90.9799 C   0  0  0  0  0  0  0  0  0  0  0  0
   50.7983   76.3003   90.2130 C   0  0  0  0  0  0  0  0  0  0  0  0
   51.5060   78.9914   90.0896 C   0  0  0  0  0  0  0  0  0  0  0  0
   50.1593   77.1496   89.3035 C   0  0  0  0  0  0  0  0  0  0  0  0
   50.5244   78.4919   89.2474 C   0  0  0  0  0  0  0  0  0  0  0  0
   49.9354   79.3585   88.3755 O   0  0  0  0  0  0  0  0  0  0  0  0
   53.2305   78.9122   92.6537 N   0  0  0  0  0  0  0  0  0  0  0  0
   53.5932   80.2785   92.9893 C   0  0  2  0  0  0  0  0  0  0  0  0
   52.2832   81.0825   92.9831 C   0  0  0  0  0  0  0  0  0  0  0  0
   52.2745   82.2810   93.2475 O   0  0  0  0  0  0  0  0  0  0  0  0
   54.5434   80.8227   91.9192 C   0  0  0  0  0  0  0  0  0  0  0  0
   54.3913   82.2435   91.7469 O   0  0  0  0  0  0  0  0  0  0  0  0
   51.1841   80.3496   92.6036 N   0  0  0  0  0  0  0  0  0  0  0  0
   49.8179   80.5519   93.1069 C   0  0  2  0  0  0  0  0  0  0  0  0
   49.6927   79.8045   94.4525 C   0  0  0  0  0  0  0  0  0  0  0  0
   49.8935   78.5985   94.5774 O   0  0  0  0  0  0  0  0  0  0  0  0
   48.6245   80.3089   92.1716 C   0  0  0  0  0  0  0  0  0  0  0  0
   49.0106   80.1303   90.6976 C   0  0  0  0  0  0  0  0  0  0  0  0
   48.4337   81.1929   89.7620 C   0  0  0  0  0  0  0  0  0  0  0  0
   47.2386   81.7973   90.3353 N   0  0  0  0  0  0  0  0  0  0  0  0
   46.9269   83.0963   90.1331 C   0  0  0  0  0  0  0  0  0  0  0  0
   45.7412   83.5534   89.9793 N   0  0  0  0  0  0  0  0  0  0  0  0
   48.0332   83.8661   90.0695 N   0  0  0  0  0  0  0  0  0  0  0  0
   49.4542   80.6328   95.5343 N   0  0  0  0  0  0  0  0  0  0  0  0
   48.1468   81.2632   95.6797 C   0  0  2  0  0  0  0  0  0  0  0  0
   47.9871   82.4966   94.7826 C   0  0  0  0  0  0  0  0  0  0  0  0
   46.9968   82.7091   94.0832 O   0  0  0  0  0  0  0  0  0  0  0  0
   47.8066   81.5244   97.1572 C   0  0  0  0  0  0  0  0  0  0  0  0
   47.2732   80.3195   97.9305 C   0  0  0  0  0  0  0  0  0  0  0  0
   47.6079   79.0595   97.1857 C   0  0  0  0  0  0  0  0  0  0  0  0
   46.6767   78.7299   96.2758 O   0  0  0  0  0  0  0  0  0  0  0  0
   48.6302   78.4066   97.3200 O   0  0  0  0  0  0  0  0  0  0  0  0
   49.0637   83.3546   94.8268 N   0  0  0  0  0  0  0  0  0  0  0  0
   49.0038   84.6646   94.1783 C   0  0  2  0  0  0  0  0  0  0  0  0
   49.0696   84.4707   92.6382 C   0  0  0  0  0  0  0  0  0  0  0  0
   48.9385   85.4043   91.8514 O   0  0  0  0  0  0  0  0  0  0  0  0
   50.1683   85.5691   94.5980 C   0  0  0  0  0  0  0  0  0  0  0  0
   51.4859   85.1897   93.9300 C   0  0  0  0  0  0  0  0  0  0  0  0
   52.2020   86.3713   93.3034 C   0  0  0  0  0  0  0  0  0  0  0  0
   51.8477   86.9366   92.2729 O   0  0  0  0  0  0  0  0  0  0  0  0
   53.2817   86.8093   94.0106 N   0  0  0  0  0  0  0  0  0  0  0  0
   49.4692   83.2064   92.2386 N   0  0  0  0  0  0  0  0  0  0  0  0
   49.5378   82.8531   90.8197 C   0  0  2  0  0  0  0  0  0  0  0  0
   48.0926   82.4464   90.4207 C   0  0  0  0  0  0  0  0  0  0  0  0
   47.7538   82.3531   89.2361 O   0  0  0  0  0  0  0  0  0  0  0  0
   50.5592   81.7345   90.5758 C   0  0  0  0  0  0  0  0  0  0  0  0
   51.0809   81.6764   89.1166 C   0  0  1  0  0  0  0  0  0  0  0  0
   52.5605   82.0467   88.9901 C   0  0  0  0  0  0  0  0  0  0  0  0
   50.8788   80.2749   88.5328 C   0  0  0  0  0  0  0  0  0  0  0  0
   47.2160   82.1276   91.4423 N   0  0  0  0  0  0  0  0  0  0  0  0
   45.9015   81.5522   91.0951 C   0  0  2  0  0  0  0  0  0  0  0  0
   44.6664   82.3960   91.4888 C   0  0  0  0  0  0  0  0  0  0  0  0
   43.5243   81.9428   91.4379 O   0  0  0  0  0  0  0  0  0  0  0  0
   45.7947   80.0896   91.5714 C   0  0  0  0  0  0  0  0  0  0  0  0
   44.4155   79.3961   91.4991 C   0  0  1  0  0  0  0  0  0  0  0  0
   44.5788   77.9195   91.8782 C   0  0  0  0  0  0  0  0  0  0  0  0
   43.3447   80.0183   92.3912 C   0  0  0  0  0  0  0  0  0  0  0  0
   44.7905   85.5081   90.3879 C   0  0  0  0  0  0  0  0  0  0  0  0
   44.9519   83.6551   91.9692 N   0  0  0  0  0  0  0  0  0  0  0  0
   45.8695   85.1020   89.9320 O   0  0  0  0  0  0  0  0  0  0  0  0
   44.1544   84.8683   91.6609 C   0  0  1  0  0  0  0  0  0  0  0  0
   44.3678   85.8390   92.8663 C   0  0  0  0  0  0  0  0  0  0  0  0
   43.4598   86.9582   94.9529 C   0  0  0  0  0  0  0  0  0  0  0  0
   44.0926   86.2263   96.1265 C   0  0  0  0  0  0  0  0  0  0  0  0
   43.1579   86.0000   93.7995 C   0  0  0  0  0  0  0  0  0  0  0  0
   42.6495   84.5809   91.5222 C   0  0  0  0  0  0  0  0  0  0  0  0
   44.0291   86.4241   89.6939 N   0  0  0  0  0  0  0  0  0  0  0  0
   44.5826   87.1809   88.5716 C   0  0  2  0  0  0  0  0  0  0  0  0
   44.2186   86.4675   87.2469 C   0  0  0  0  0  0  0  0  0  0  0  0
   43.6849   87.0756   86.3116 O   0  0  0  0  0  0  0  0  0  0  0  0
   46.0753   87.5065   88.7567 C   0  0  0  0  0  0  0  0  0  0  0  0
   46.6925   88.2013   87.5600 C   0  0  0  0  0  0  0  0  0  0  0  0
   47.4522   87.4867   86.6255 C   0  0  0  0  0  0  0  0  0  0  0  0
   46.5250   89.5802   87.3655 C   0  0  0  0  0  0  0  0  0  0  0  0
   48.0434   88.1264   85.5361 C   0  0  0  0  0  0  0  0  0  0  0  0
   47.1297   90.2232   86.2844 C   0  0  0  0  0  0  0  0  0  0  0  0
   47.8892   89.4995   85.3727 C   0  0  0  0  0  0  0  0  0  0  0  0
   44.4443   85.1155   87.1890 N   0  0  0  0  0  0  0  0  0  0  0  0
   44.0296   84.2937   86.0567 C   0  0  2  0  0  0  0  0  0  0  0  0
   42.6075   83.7713   86.3236 C   0  0  0  0  0  0  0  0  0  0  0  0
   42.3555   82.5681   86.4208 O   0  0  0  0  0  0  0  0  0  0  0  0
   45.0029   83.1323   85.8045 C   0  0  0  0  0  0  0  0  0  0  0  0
   46.2926   83.5916   85.1206 C   0  0  0  0  0  0  0  0  0  0  0  0
   47.2730   82.4556   84.9507 C   0  0  0  0  0  0  0  0  0  0  0  0
   48.4643   82.5108   85.2472 O   0  0  0  0  0  0  0  0  0  0  0  0
   46.7373   81.3187   84.4124 N   0  0  0  0  0  0  0  0  0  0  0  0
   41.6379   84.7513   86.4160 N   0  0  0  0  0  0  0  0  0  0  0  0
   40.2508   84.3888   86.6965 C   0  0  2  0  0  0  0  0  0  0  0  0
   39.3244   85.1215   85.7133 C   0  0  0  0  0  0  0  0  0  0  0  0
   38.5136   84.5530   84.9843 O   0  0  0  0  0  0  0  0  0  0  0  0
   39.8336   84.7563   88.1319 C   0  0  0  0  0  0  0  0  0  0  0  0
   38.3423   84.6181   88.4523 C   0  0  0  0  0  0  0  0  0  0  0  0
   37.9699   84.9332   89.9001 C   0  0  0  0  0  0  0  0  0  0  0  0
   37.7935   86.3700   90.0649 N   0  0  0  0  0  0  0  0  0  0  0  0
   38.0014   86.9629   91.2649 C   0  0  0  0  0  0  0  0  0  0  0  0
   39.1125   87.4646   91.6478 N   0  0  0  0  0  0  0  0  0  0  0  0
   36.9240   86.8637   92.0649 N   0  0  0  0  0  0  0  0  0  0  0  0
   57.3557   74.9460  101.6255 H   0  0  0  0  0  0  0  0  0  0  0  0
   45.0756   82.9687   90.4854 H   0  0  0  0  0  0  0  0  0  0  0  0
   39.5366   87.9603   90.8550 H   0  0  0  0  0  0  0  0  0  0  0  0
  2  1  1  0
  3  2  1  0
  2  5  1  1
  3  4  2  0
  6  3  1  0
  7  6  1  0
  8  7  1  0
  7 10  1  6
  8  9  2  0
 17  8  1  0
 10 11  1  0
 11 12  1  0
 12 13  1  0
 13 14  1  0
 14 15  1  0
 14 16  2  0
 18 17  1  0
 19 18  1  0
 18 21  1  1
 19 20  2  0
 29 19  1  0
 21 22  1  0
 22 23  2  0
 22 24  1  0
 23 25  1  0
 24 26  2  0
 25 27  2  0
 26 27  1  0
 27 28  1  0
 30 29  1  0
 31 30  1  0
 30 33  1  6
 31 32  2  0
 35 31  1  0
 33 34  1  0
 36 35  1  0
 37 36  1  0
 36 39  1  6
 37 38  2  0
 46 37  1  0
 39 40  1  0
 40 41  1  0
 41 42  1  0
 42 43  1  0
 43 44  2  0
 43 45  1  0
 47 46  1  0
 48 47  1  0
 47 50  1  1
 48 49  2  0
 55 48  1  0
 50 51  1  0
 51 52  1  0
 52 53  1  0
 52 54  2  0
 56 55  1  0
 57 56  1  0
 56 59  1  1
 57 58  2  0
 64 57  1  0
 59 60  1  0
 60 61  1  0
 61 62  2  0
 61 63  1  0
 65 64  1  0
 66 65  1  0
 65 68  1  1
 66 67  2  0
 72 66  1  0
 68 69  1  0
 69 70  1  1
 69 71  1  0
 73 72  1  0
 74 73  1  0
 73 76  1  1
 74 75  2  0
 81 74  1  0
 76 77  1  0
 77 78  1  1
 77 79  1  0
 80 82  2  0
 83 80  1  0
 80 89  1  0
 83 81  1  0
 84 83  1  0
 83 88  1  6
 87 84  1  0
 85 86  1  0
 85 87  1  0
 89 90  1  0
 90 91  1  0
 90 93  1  1
 91 92  2  0
 91100  1  0
 93 94  1  0
 94 95  2  0
 94 96  1  0
 95 97  1  0
 96 98  2  0
 97 99  2  0
 98 99  1  0
100101  1  0
101102  1  0
101104  1  1
102103  2  0
102109  1  0
104105  1  0
105106  1  0
106107  2  0
106108  1  0
109110  1  0
110111  1  0
110113  1  1
111112  2  0
113114  1  0
114115  1  0
115116  1  0
116117  1  0
117118  2  0
117119  1  0
 16120  1  0
 44121  1  0
118122  1  0
M  CHG  1   1   1
M  END
$$$$
