
     RDKit          3D

122123  0  0  0  0  0  0  0  0999 V2000
   44.8166   44.0229   71.6333 N   0  0  0  0  0  4  0  0  0  0  0  0
   46.2291   44.5246   71.6690 C   0  0  2  0  0  0  0  0  0  0  0  0
   46.3030   45.7109   72.6370 C   0  0  0  0  0  0  0  0  0  0  0  0
   47.3872   46.2617   72.8284 O   0  0  0  0  0  0  0  0  0  0  0  0
   46.6407   44.9520   70.2726 C   0  0  0  0  0  0  0  0  0  0  0  0
   45.1052   46.1190   73.1880 N   0  0  0  0  0  0  0  0  0  0  0  0
   45.0664   47.3337   74.0211 C   0  0  2  0  0  0  0  0  0  0  0  0
   43.6538   47.3201   74.6780 C   0  0  0  0  0  0  0  0  0  0  0  0
   42.6856   46.8659   74.0619 O   0  0  0  0  0  0  0  0  0  0  0  0
   45.4439   48.6340   73.3000 C   0  0  0  0  0  0  0  0  0  0  0  0
   44.8316   49.9167   73.8807 C   0  0  0  0  0  0  0  0  0  0  0  0
   45.2060   51.2050   73.1482 C   0  0  0  0  0  0  0  0  0  0  0  0
   46.5370   51.1135   72.5776 N   0  0  0  0  0  0  0  0  0  0  0  0
   47.3499   52.1806   72.4509 C   0  0  0  0  0  0  0  0  0  0  0  0
   48.0661   52.3919   73.5753 N   0  0  0  0  0  0  0  0  0  0  0  0
   47.4947   52.9779   71.4632 N   0  0  0  0  0  0  0  0  0  0  0  0
   43.5660   47.7661   75.9767 N   0  0  0  0  0  0  0  0  0  0  0  0
   42.3989   47.4671   76.8380 C   0  0  2  0  0  0  0  0  0  0  0  0
   41.2270   48.4342   76.5035 C   0  0  0  0  0  0  0  0  0  0  0  0
   41.3678   49.4948   75.9000 O   0  0  0  0  0  0  0  0  0  0  0  0
   42.6702   47.4360   78.3591 C   0  0  0  0  0  0  0  0  0  0  0  0
   41.8799   46.4271   79.1703 C   0  0  0  0  0  0  0  0  0  0  0  0
   40.4786   46.5145   79.1958 C   0  0  0  0  0  0  0  0  0  0  0  0
   42.4983   45.4550   79.9705 C   0  0  0  0  0  0  0  0  0  0  0  0
   39.7190   45.6399   79.9738 C   0  0  0  0  0  0  0  0  0  0  0  0
   41.7397   44.5620   80.7347 C   0  0  0  0  0  0  0  0  0  0  0  0
   40.3510   44.6609   80.7251 C   0  0  0  0  0  0  0  0  0  0  0  0
   39.5675   43.8119   81.4486 O   0  0  0  0  0  0  0  0  0  0  0  0
   40.0127   48.0292   77.0037 N   0  0  0  0  0  0  0  0  0  0  0  0
   38.8358   48.8733   77.1195 C   0  0  2  0  0  0  0  0  0  0  0  0
   38.3830   48.7768   78.5851 C   0  0  0  0  0  0  0  0  0  0  0  0
   37.2084   48.5673   78.8725 O   0  0  0  0  0  0  0  0  0  0  0  0
   37.7383   48.3333   76.1986 C   0  0  0  0  0  0  0  0  0  0  0  0
   37.6417   46.8991   76.2720 O   0  0  0  0  0  0  0  0  0  0  0  0
   39.4105   48.8854   79.4917 N   0  0  0  0  0  0  0  0  0  0  0  0
   39.2554   49.2600   80.9046 C   0  0  2  0  0  0  0  0  0  0  0  0
   39.1454   50.7986   80.9779 C   0  0  0  0  0  0  0  0  0  0  0  0
   38.5963   51.3940   81.9023 O   0  0  0  0  0  0  0  0  0  0  0  0
   40.2160   48.6761   81.9508 C   0  0  0  0  0  0  0  0  0  0  0  0
   41.5714   49.3910   82.0242 C   0  0  0  0  0  0  0  0  0  0  0  0
   41.9791   49.8255   83.4321 C   0  0  0  0  0  0  0  0  0  0  0  0
   41.9401   48.6996   84.3558 N   0  0  0  0  0  0  0  0  0  0  0  0
   43.0512   48.2431   84.9742 C   0  0  0  0  0  0  0  0  0  0  0  0
   43.0926   47.2383   85.7661 N   0  0  0  0  0  0  0  0  0  0  0  0
   44.1257   49.0075   84.6882 N   0  0  0  0  0  0  0  0  0  0  0  0
   39.8279   51.4585   79.9720 N   0  0  0  0  0  0  0  0  0  0  0  0
   39.7604   52.9136   79.8951 C   0  0  2  0  0  0  0  0  0  0  0  0
   38.3621   53.4168   79.5165 C   0  0  0  0  0  0  0  0  0  0  0  0
   37.8074   53.1547   78.4496 O   0  0  0  0  0  0  0  0  0  0  0  0
   40.8837   53.4857   79.0133 C   0  0  0  0  0  0  0  0  0  0  0  0
   42.0466   54.1287   79.7675 C   0  0  0  0  0  0  0  0  0  0  0  0
   42.5274   53.1918   80.8376 C   0  0  0  0  0  0  0  0  0  0  0  0
   43.5606   53.6878   81.5378 O   0  0  0  0  0  0  0  0  0  0  0  0
   42.0271   52.1132   81.1130 O   0  0  0  0  0  0  0  0  0  0  0  0
   37.7757   54.1998   80.4863 N   0  0  0  0  0  0  0  0  0  0  0  0
   36.3289   54.4155   80.5004 C   0  0  2  0  0  0  0  0  0  0  0  0
   35.7674   53.9935   81.8862 C   0  0  0  0  0  0  0  0  0  0  0  0
   35.6231   52.8171   82.2072 O   0  0  0  0  0  0  0  0  0  0  0  0
   35.6131   53.5932   79.4224 C   0  0  0  0  0  0  0  0  0  0  0  0
   34.1026   53.8039   79.4197 C   0  0  0  0  0  0  0  0  0  0  0  0
   33.7013   55.2648   79.5000 C   0  0  0  0  0  0  0  0  0  0  0  0
   32.7989   55.7035   80.2072 O   0  0  0  0  0  0  0  0  0  0  0  0
   34.4669   56.0971   78.7392 N   0  0  0  0  0  0  0  0  0  0  0  0
   35.6219   55.0372   82.7849 N   0  0  0  0  0  0  0  0  0  0  0  0
   35.0358   54.8140   84.1076 C   0  0  2  0  0  0  0  0  0  0  0  0
   33.4989   54.7843   83.8834 C   0  0  0  0  0  0  0  0  0  0  0  0
   32.9588   55.4970   83.0307 O   0  0  0  0  0  0  0  0  0  0  0  0
   35.4715   55.9023   85.0976 C   0  0  0  0  0  0  0  0  0  0  0  0
   35.0459   57.3326   84.6759 C   0  0  1  0  0  0  0  0  0  0  0  0
   34.9449   58.3037   85.8546 C   0  0  0  0  0  0  0  0  0  0  0  0
   36.0357   57.9057   83.6573 C   0  0  0  0  0  0  0  0  0  0  0  0
   32.7641   53.8804   84.6296 N   0  0  0  0  0  0  0  0  0  0  0  0
   31.8652   52.9446   83.9254 C   0  0  2  0  0  0  0  0  0  0  0  0
   30.9453   52.0834   84.8224 C   0  0  0  0  0  0  0  0  0  0  0  0
   29.7426   51.9620   84.5965 O   0  0  0  0  0  0  0  0  0  0  0  0
   32.6417   52.1024   82.8934 C   0  0  0  0  0  0  0  0  0  0  0  0
   31.8378   51.3614   81.8012 C   0  0  1  0  0  0  0  0  0  0  0  0
   32.7700   50.3894   81.0683 C   0  0  0  0  0  0  0  0  0  0  0  0
   30.6279   50.5881   82.3184 C   0  0  0  0  0  0  0  0  0  0  0  0
   29.9885   51.7561   87.6479 C   0  0  0  0  0  0  0  0  0  0  0  0
   31.5886   51.4092   85.8369 N   0  0  0  0  0  0  0  0  0  0  0  0
   29.0157   51.4139   88.3361 O   0  0  0  0  0  0  0  0  0  0  0  0
   30.8948   50.7007   86.9413 C   0  0  1  0  0  0  0  0  0  0  0  0
   32.0146   50.2587   87.9370 C   0  0  0  0  0  0  0  0  0  0  0  0
   32.1968   47.8171   87.2763 C   0  0  0  0  0  0  0  0  0  0  0  0
   33.1240   46.7180   86.7804 C   0  0  0  0  0  0  0  0  0  0  0  0
   32.9417   49.1445   87.4274 C   0  0  0  0  0  0  0  0  0  0  0  0
   30.1343   49.4490   86.4703 C   0  0  0  0  0  0  0  0  0  0  0  0
   30.4071   53.0692   87.6179 N   0  0  0  0  0  0  0  0  0  0  0  0
   29.7936   54.0845   88.4731 C   0  0  2  0  0  0  0  0  0  0  0  0
   28.4284   54.4994   87.8727 C   0  0  0  0  0  0  0  0  0  0  0  0
   28.3431   54.9890   86.7403 O   0  0  0  0  0  0  0  0  0  0  0  0
   30.7523   55.2444   88.7950 C   0  0  0  0  0  0  0  0  0  0  0  0
   30.7319   55.6549   90.2534 C   0  0  0  0  0  0  0  0  0  0  0  0
   31.8435   56.2684   90.8441 C   0  0  0  0  0  0  0  0  0  0  0  0
   29.6009   55.4208   91.0491 C   0  0  0  0  0  0  0  0  0  0  0  0
   31.8388   56.6250   92.1926 C   0  0  0  0  0  0  0  0  0  0  0  0
   29.6017   55.7630   92.4022 C   0  0  0  0  0  0  0  0  0  0  0  0
   30.7182   56.3614   92.9742 C   0  0  0  0  0  0  0  0  0  0  0  0
   27.3299   54.3705   88.6845 N   0  0  0  0  0  0  0  0  0  0  0  0
   26.0138   54.8840   88.3190 C   0  0  2  0  0  0  0  0  0  0  0  0
   25.4236   55.6288   89.5289 C   0  0  0  0  0  0  0  0  0  0  0  0
   24.6456   55.0891   90.3188 O   0  0  0  0  0  0  0  0  0  0  0  0
   25.0717   53.7648   87.8503 C   0  0  0  0  0  0  0  0  0  0  0  0
   23.5968   54.1459   87.9969 C   0  0  0  0  0  0  0  0  0  0  0  0
   22.6827   53.0609   87.4793 C   0  0  0  0  0  0  0  0  0  0  0  0
   22.5607   51.9489   87.9878 O   0  0  0  0  0  0  0  0  0  0  0  0
   21.9794   53.3985   86.3565 N   0  0  0  0  0  0  0  0  0  0  0  0
   25.8108   56.9504   89.6411 N   0  0  0  0  0  0  0  0  0  0  0  0
   25.2215   57.8040   90.6698 C   0  0  2  0  0  0  0  0  0  0  0  0
   25.7675   59.2327   90.5198 C   0  0  0  0  0  0  0  0  0  0  0  0
   25.0686   60.2072   90.2482 O   0  0  0  0  0  0  0  0  0  0  0  0
   25.5377   57.3036   92.0907 C   0  0  0  0  0  0  0  0  0  0  0  0
   26.3185   58.2721   92.9838 C   0  0  0  0  0  0  0  0  0  0  0  0
   27.7344   57.8162   93.3327 C   0  0  0  0  0  0  0  0  0  0  0  0
   28.3893   58.8217   94.1589 N   0  0  0  0  0  0  0  0  0  0  0  0
   28.2884   58.7852   95.5092 C   0  0  0  0  0  0  0  0  0  0  0  0
   28.4639   57.7418   96.2258 N   0  0  0  0  0  0  0  0  0  0  0  0
   27.8665   59.9603   96.0110 N   0  0  0  0  0  0  0  0  0  0  0  0
   46.6038   53.1214   70.9883 H   0  0  0  0  0  0  0  0  0  0  0  0
   42.1817   46.7794   85.7925 H   0  0  0  0  0  0  0  0  0  0  0  0
   28.2378   56.9158   95.6596 H   0  0  0  0  0  0  0  0  0  0  0  0
  2  1  1  0
  3  2  1  0
  2  5  1  6
  3  4  2  0
  6  3  1  0
  7  6  1  0
  8  7  1  0
  7 10  1  6
  8  9  2  0
 17  8  1  0
 10 11  1  0
 11 12  1  0
 12 13  1  0
 13 14  1  0
 14 15  1  0
 14 16  2  0
 18 17  1  0
 19 18  1  0
 18 21  1  1
 19 20  2  0
 29 19  1  0
 21 22  1  0
 22 23  2  0
 22 24  1  0
 23 25  1  0
 24 26  2  0
 25 27  2  0
 26 27  1  0
 27 28  1  0
 30 29  1  0
 31 30  1  0
 30 33  1  6
 31 32  2  0
 35 31  1  0
 33 34  1  0
 36 35  1  0
 37 36  1  0
 36 39  1  1
 37 38  2  0
 46 37  1  0
 39 40  1  0
 40 41  1  0
 41 42  1  0
 42 43  1  0
 43 44  2  0
 43 45  1  0
 47 46  1  0
 48 47  1  0
 47 50  1  6
 48 49  2  0
 55 48  1  0
 50 51  1  0
 51 52  1  0
 52 53  1  0
 52 54  2  0
 56 55  1  0
 57 56  1  0
 56 59  1  6
 57 58  2  0
 64 57  1  0
 59 60  1  0
 60 61  1  0
 61 62  2  0
 61 63  1  0
 65 64  1  0
 66 65  1  0
 65 68  1  1
 66 67  2  0
 72 66  1  0
 68 69  1  0
 69 70  1  1
 69 71  1  0
 73 72  1  0
 74 73  1  0
 73 76  1  1
 74 75  2  0
 81 74  1  0
 76 77  1  0
 77 78  1  1
 77 79  1  0
 80 82  2  0
 83 80  1  0
 80 89  1  0
 83 81  1  0
 84 83  1  0
 83 88  1  6
 87 84  1  0
 85 86  1  0
 85 87  1  0
 89 90  1  0
 90 91  1  0
 90 93  1  6
 91 92  2  0
 91100  1  0
 93 94  1  0
 94 95  2  0
 94 96  1  0
 95 97  1  0
 96 98  2  0
 97 99  2  0
 98 99  1  0
100101  1  0
101102  1  0
101104  1  1
102103  2  0
102109  1  0
104105  1  0
105106  1  0
106107  2  0
106108  1  0
109110  1  0
110111  1  0
110113  1  1
111112  2  0
113114  1  0
114115  1  0
115116  1  0
116117  1  0
117118  2  0
117119  1  0
 16120  1  0
 44121  1  0
118122  1  0
M  CHG  1   1   1
M  END
$$$$
