
     RDKit          3D

122123  0  0  0  0  0  0  0  0999 V2000
   54.2910   77.5030   93.5868 N   0  0  0  0  0  4  0  0  0  0  0  0
   54.3635   76.0058   93.5465 C   0  0  2  0  0  0  0  0  0  0  0  0
   53.2558   75.4378   94.4411 C   0  0  0  0  0  0  0  0  0  0  0  0
   53.1314   74.2169   94.5389 O   0  0  0  0  0  0  0  0  0  0  0  0
   55.7268   75.5602   94.0413 C   0  0  0  0  0  0  0  0  0  0  0  0
   52.5017   76.3633   95.1335 N   0  0  0  0  0  0  0  0  0  0  0  0
   51.3803   75.9043   95.9719 C   0  0  2  0  0  0  0  0  0  0  0  0
   50.1095   76.5030   95.2981 C   0  0  0  0  0  0  0  0  0  0  0  0
   50.1548   77.6129   94.7604 O   0  0  0  0  0  0  0  0  0  0  0  0
   51.5256   76.1892   97.4721 C   0  0  0  0  0  0  0  0  0  0  0  0
   51.4239   77.6659   97.8801 C   0  0  0  0  0  0  0  0  0  0  0  0
   50.6147   77.9356   99.1485 C   0  0  0  0  0  0  0  0  0  0  0  0
   50.2100   79.3271   99.2239 N   0  0  0  0  0  0  0  0  0  0  0  0
   51.0185   80.2961   99.6961 C   0  0  0  0  0  0  0  0  0  0  0  0
   50.5990   81.5199   99.3115 N   0  0  0  0  0  0  0  0  0  0  0  0
   52.0801   80.1959  100.3997 N   0  0  0  0  0  0  0  0  0  0  0  0
   48.9842   75.7115   95.2762 N   0  0  0  0  0  0  0  0  0  0  0  0
   47.8068   76.0345   94.4378 C   0  0  2  0  0  0  0  0  0  0  0  0
   46.8700   77.0223   95.1908 C   0  0  0  0  0  0  0  0  0  0  0  0
   45.9221   77.6000   94.6648 O   0  0  0  0  0  0  0  0  0  0  0  0
   47.0108   74.8265   93.8943 C   0  0  0  0  0  0  0  0  0  0  0  0
   45.5423   75.0592   93.5944 C   0  0  0  0  0  0  0  0  0  0  0  0
   44.7058   73.9545   93.3664 C   0  0  0  0  0  0  0  0  0  0  0  0
   44.9981   76.3440   93.4498 C   0  0  0  0  0  0  0  0  0  0  0  0
   43.3620   74.1286   93.0331 C   0  0  0  0  0  0  0  0  0  0  0  0
   43.6464   76.5228   93.1374 C   0  0  0  0  0  0  0  0  0  0  0  0
   42.8369   75.4081   92.9357 C   0  0  0  0  0  0  0  0  0  0  0  0
   41.5132   75.5295   92.6342 O   0  0  0  0  0  0  0  0  0  0  0  0
   47.2356   77.2485   96.4961 N   0  0  0  0  0  0  0  0  0  0  0  0
   46.5830   78.1865   97.3935 C   0  0  2  0  0  0  0  0  0  0  0  0
   46.2958   79.4460   96.5605 C   0  0  0  0  0  0  0  0  0  0  0  0
   46.7138   79.5543   95.4117 O   0  0  0  0  0  0  0  0  0  0  0  0
   47.5359   78.5279   98.5422 C   0  0  0  0  0  0  0  0  0  0  0  0
   48.9112   78.4931   98.1193 O   0  0  0  0  0  0  0  0  0  0  0  0
   45.5008   80.3659   97.2015 N   0  0  0  0  0  0  0  0  0  0  0  0
   44.6988   81.4014   96.5340 C   0  0  2  0  0  0  0  0  0  0  0  0
   45.6445   82.5610   96.1523 C   0  0  0  0  0  0  0  0  0  0  0  0
   45.2807   83.7323   96.0734 O   0  0  0  0  0  0  0  0  0  0  0  0
   43.3925   81.8807   97.1836 C   0  0  0  0  0  0  0  0  0  0  0  0
   43.0854   83.3656   96.9503 C   0  0  0  0  0  0  0  0  0  0  0  0
   42.3984   83.6652   95.6178 C   0  0  0  0  0  0  0  0  0  0  0  0
   41.2655   82.7744   95.4048 N   0  0  0  0  0  0  0  0  0  0  0  0
   40.0992   83.2130   94.8823 C   0  0  0  0  0  0  0  0  0  0  0  0
   38.9446   83.0321   95.4045 N   0  0  0  0  0  0  0  0  0  0  0  0
   40.2906   83.8403   93.7032 N   0  0  0  0  0  0  0  0  0  0  0  0
   46.9697   82.1857   96.0257 N   0  0  0  0  0  0  0  0  0  0  0  0
   47.9948   83.2132   95.8792 C   0  0  2  0  0  0  0  0  0  0  0  0
   49.2675   82.6809   95.2095 C   0  0  0  0  0  0  0  0  0  0  0  0
   50.3092   83.3287   95.1099 O   0  0  0  0  0  0  0  0  0  0  0  0
   48.2542   83.9459   97.2069 C   0  0  0  0  0  0  0  0  0  0  0  0
   49.1484   83.2061   98.2006 C   0  0  0  0  0  0  0  0  0  0  0  0
   49.7796   84.1951   99.1375 C   0  0  0  0  0  0  0  0  0  0  0  0
   50.6240   83.6202  100.0095 O   0  0  0  0  0  0  0  0  0  0  0  0
   49.6157   85.4040   99.1081 O   0  0  0  0  0  0  0  0  0  0  0  0
   49.1397   81.3994   94.7210 N   0  0  0  0  0  0  0  0  0  0  0  0
   49.7395   81.0231   93.4408 C   0  0  2  0  0  0  0  0  0  0  0  0
   48.7139   81.2872   92.3040 C   0  0  0  0  0  0  0  0  0  0  0  0
   49.0318   81.2866   91.1179 O   0  0  0  0  0  0  0  0  0  0  0  0
   50.1293   79.5410   93.4004 C   0  0  0  0  0  0  0  0  0  0  0  0
   50.9482   79.1754   92.1668 C   0  0  0  0  0  0  0  0  0  0  0  0
   51.5791   80.3771   91.4888 C   0  0  0  0  0  0  0  0  0  0  0  0
   52.5465   80.3258   90.7349 O   0  0  0  0  0  0  0  0  0  0  0  0
   50.9499   81.5583   91.7467 N   0  0  0  0  0  0  0  0  0  0  0  0
   47.3955   81.3367   92.7249 N   0  0  0  0  0  0  0  0  0  0  0  0
   46.3026   81.4671   91.7597 C   0  0  2  0  0  0  0  0  0  0  0  0
   46.2337   82.9789   91.4093 C   0  0  0  0  0  0  0  0  0  0  0  0
   45.5743   83.3875   90.4476 O   0  0  0  0  0  0  0  0  0  0  0  0
   44.9865   80.9297   92.3368 C   0  0  0  0  0  0  0  0  0  0  0  0
   44.6759   79.4686   91.9203 C   0  0  1  0  0  0  0  0  0  0  0  0
   43.2246   79.2628   91.4799 C   0  0  0  0  0  0  0  0  0  0  0  0
   45.5974   79.0319   90.7775 C   0  0  0  0  0  0  0  0  0  0  0  0
   46.8854   83.8587   92.2549 N   0  0  0  0  0  0  0  0  0  0  0  0
   46.7775   85.3073   91.9911 C   0  0  2  0  0  0  0  0  0  0  0  0
   47.5098   85.8234   90.7302 C   0  0  0  0  0  0  0  0  0  0  0  0
   47.0208   86.6820   89.9981 O   0  0  0  0  0  0  0  0  0  0  0  0
   47.1213   86.1263   93.2515 C   0  0  0  0  0  0  0  0  0  0  0  0
   46.2071   85.9815   94.4891 C   0  0  1  0  0  0  0  0  0  0  0  0
   46.7547   86.8605   95.6196 C   0  0  0  0  0  0  0  0  0  0  0  0
   44.7455   86.3469   94.2448 C   0  0  0  0  0  0  0  0  0  0  0  0
   49.2232   84.2490   88.3851 C   0  0  0  0  0  0  0  0  0  0  0  0
   48.7722   85.3064   90.5389 N   0  0  0  0  0  0  0  0  0  0  0  0
   49.3062   83.0869   88.8088 O   0  0  0  0  0  0  0  0  0  0  0  0
   49.5632   85.4710   89.2939 C   0  0  1  0  0  0  0  0  0  0  0  0
   51.0622   85.3716   89.7224 C   0  0  0  0  0  0  0  0  0  0  0  0
   52.9594   84.0107   90.7125 C   0  0  0  0  0  0  0  0  0  0  0  0
   53.3621   82.6674   91.3017 C   0  0  0  0  0  0  0  0  0  0  0  0
   51.5088   83.9910   90.2278 C   0  0  0  0  0  0  0  0  0  0  0  0
   49.3366   86.8310   88.6114 C   0  0  0  0  0  0  0  0  0  0  0  0
   48.6671   84.5145   87.1520 N   0  0  0  0  0  0  0  0  0  0  0  0
   47.8902   83.5055   86.4331 C   0  0  2  0  0  0  0  0  0  0  0  0
   46.4314   83.9999   86.2787 C   0  0  0  0  0  0  0  0  0  0  0  0
   45.5998   83.3626   85.6217 O   0  0  0  0  0  0  0  0  0  0  0  0
   48.0493   82.0977   87.0340 C   0  0  0  0  0  0  0  0  0  0  0  0
   47.2828   81.0309   86.2788 C   0  0  0  0  0  0  0  0  0  0  0  0
   47.2749   79.7019   86.7200 C   0  0  0  0  0  0  0  0  0  0  0  0
   46.5702   81.3487   85.1133 C   0  0  0  0  0  0  0  0  0  0  0  0
   46.5917   78.7116   86.0142 C   0  0  0  0  0  0  0  0  0  0  0  0
   45.8997   80.3552   84.3982 C   0  0  0  0  0  0  0  0  0  0  0  0
   45.9118   79.0392   84.8453 C   0  0  0  0  0  0  0  0  0  0  0  0
   46.1265   85.2146   86.8387 N   0  0  0  0  0  0  0  0  0  0  0  0
   44.8341   85.8667   86.6545 C   0  0  2  0  0  0  0  0  0  0  0  0
   44.9950   86.9920   85.6178 C   0  0  0  0  0  0  0  0  0  0  0  0
   44.6995   88.1632   85.8662 O   0  0  0  0  0  0  0  0  0  0  0  0
   44.2746   86.4138   87.9763 C   0  0  0  0  0  0  0  0  0  0  0  0
   45.3581   87.0557   88.8459 C   0  0  0  0  0  0  0  0  0  0  0  0
   45.4257   88.5510   88.6457 C   0  0  0  0  0  0  0  0  0  0  0  0
   46.2428   89.1234   87.9283 O   0  0  0  0  0  0  0  0  0  0  0  0
   44.4934   89.2610   89.3500 N   0  0  0  0  0  0  0  0  0  0  0  0
   45.4665   86.5817   84.3856 N   0  0  0  0  0  0  0  0  0  0  0  0
   46.4054   87.4185   83.6422 C   0  0  2  0  0  0  0  0  0  0  0  0
   47.3958   86.5215   82.8831 C   0  0  0  0  0  0  0  0  0  0  0  0
   47.3216   85.2946   82.8511 O   0  0  0  0  0  0  0  0  0  0  0  0
   47.2015   88.3587   84.5650 C   0  0  0  0  0  0  0  0  0  0  0  0
   47.4390   89.7755   84.0341 C   0  0  0  0  0  0  0  0  0  0  0  0
   48.1218   90.7199   85.0221 C   0  0  0  0  0  0  0  0  0  0  0  0
   47.1211   91.3734   85.8552 N   0  0  0  0  0  0  0  0  0  0  0  0
   46.4476   90.6811   86.8049 C   0  0  0  0  0  0  0  0  0  0  0  0
   46.9265   89.7011   87.4706 N   0  0  0  0  0  0  0  0  0  0  0  0
   45.1630   91.0722   86.8920 N   0  0  0  0  0  0  0  0  0  0  0  0
   51.8787   80.3989  101.3785 H   0  0  0  0  0  0  0  0  0  0  0  0
   39.0076   82.3455   96.1566 H   0  0  0  0  0  0  0  0  0  0  0  0
   47.4969   89.1264   86.8394 H   0  0  0  0  0  0  0  0  0  0  0  0
  2  1  1  0
  3  2  1  0
  2  5  1  1
  3  4  2  0
  6  3  1  0
  7  6  1  0
  8  7  1  0
  7 10  1  1
  8  9  2  0
 17  8  1  0
 10 11  1  0
 11 12  1  0
 12 13  1  0
 13 14  1  0
 14 15  1  0
 14 16  2  0
 18 17  1  0
 19 18  1  0
 18 21  1  1
 19 20  2  0
 29 19  1  0
 21 22  1  0
 22 23  2  0
 22 24  1  0
 23 25  1  0
 24 26  2  0
 25 27  2  0
 26 27  1  0
 27 28  1  0
 30 29  1  0
 31 30  1  0
 30 33  1  1
 31 32  2  0
 35 31  1  0
 33 34  1  0
 36 35  1  0
 37 36  1  0
 36 39  1  1
 37 38  2  0
 46 37  1  0
 39 40  1  0
 40 41  1  0
 41 42  1  0
 42 43  1  0
 43 44  2  0
 43 45  1  0
 47 46  1  0
 48 47  1  0
 47 50  1  1
 48 49  2  0
 55 48  1  0
 50 51  1  0
 51 52  1  0
 52 53  1  0
 52 54  2  0
 56 55  1  0
 57 56  1  0
 56 59  1  1
 57 58  2  0
 64 57  1  0
 59 60  1  0
 60 61  1  0
 61 62  2  0
 61 63  1  0
 65 64  1  0
 66 65  1  0
 65 68  1  1
 66 67  2  0
 72 66  1  0
 68 69  1  0
 69 70  1  6
 69 71  1  0
 73 72  1  0
 74 73  1  0
 73 76  1  1
 74 75  2  0
 81 74  1  0
 76 77  1  0
 77 78  1  1
 77 79  1  0
 80 82  2  0
 83 80  1  0
 80 89  1  0
 83 81  1  0
 84 83  1  0
 83 88  1  6
 87 84  1  0
 85 86  1  0
 85 87  1  0
 89 90  1  0
 90 91  1  0
 90 93  1  1
 91 92  2  0
 91100  1  0
 93 94  1  0
 94 95  2  0
 94 96  1  0
 95 97  1  0
 96 98  2  0
 97 99  2  0
 98 99  1  0
100101  1  0
101102  1  0
101104  1  1
102103  2  0
102109  1  0
104105  1  0
105106  1  0
106107  2  0
106108  1  0
109110  1  0
110111  1  0
110113  1  1
111112  2  0
113114  1  0
114115  1  0
115116  1  0
116117  1  0
117118  2  0
117119  1  0
 16120  1  0
 44121  1  0
118122  1  0
M  CHG  1   1   1
M  END
$$$$
