
     RDKit          3D

122123  0  0  0  0  0  0  0  0999 V2000
   53.8870   76.3279   98.6720 N   0  0  0  0  0  4  0  0  0  0  0  0
   55.2387   76.9136   98.3925 C   0  0  2  0  0  0  0  0  0  0  0  0
   55.2119   77.5677   97.0063 C   0  0  0  0  0  0  0  0  0  0  0  0
   55.9534   78.5240   96.7804 O   0  0  0  0  0  0  0  0  0  0  0  0
   56.2785   75.8096   98.4389 C   0  0  0  0  0  0  0  0  0  0  0  0
   54.3798   76.9801   96.0751 N   0  0  0  0  0  0  0  0  0  0  0  0
   54.2917   77.5500   94.7192 C   0  0  2  0  0  0  0  0  0  0  0  0
   52.7669   77.5841   94.4008 C   0  0  0  0  0  0  0  0  0  0  0  0
   52.2637   78.5797   93.8728 O   0  0  0  0  0  0  0  0  0  0  0  0
   55.1689   76.8654   93.6634 C   0  0  0  0  0  0  0  0  0  0  0  0
   54.9890   77.3680   92.2237 C   0  0  0  0  0  0  0  0  0  0  0  0
   55.6902   78.6879   91.9037 C   0  0  0  0  0  0  0  0  0  0  0  0
   55.1494   79.7733   92.7007 N   0  0  0  0  0  0  0  0  0  0  0  0
   54.5720   80.8610   92.1537 C   0  0  0  0  0  0  0  0  0  0  0  0
   54.4161   81.8467   93.0624 N   0  0  0  0  0  0  0  0  0  0  0  0
   54.1601   81.0467   90.9588 N   0  0  0  0  0  0  0  0  0  0  0  0
   52.0483   76.4419   94.6700 N   0  0  0  0  0  0  0  0  0  0  0  0
   51.0141   76.3898   95.7287 C   0  0  2  0  0  0  0  0  0  0  0  0
   49.7965   77.2721   95.3294 C   0  0  0  0  0  0  0  0  0  0  0  0
   49.8689   78.4795   95.1153 O   0  0  0  0  0  0  0  0  0  0  0  0
   51.4921   76.7260   97.1593 C   0  0  0  0  0  0  0  0  0  0  0  0
   50.4533   76.6405   98.2612 C   0  0  0  0  0  0  0  0  0  0  0  0
   49.0921   76.6001   97.9185 C   0  0  0  0  0  0  0  0  0  0  0  0
   50.7935   76.6863   99.6213 C   0  0  0  0  0  0  0  0  0  0  0  0
   48.1043   76.5771   98.9038 C   0  0  0  0  0  0  0  0  0  0  0  0
   49.8074   76.6413  100.6124 C   0  0  0  0  0  0  0  0  0  0  0  0
   48.4666   76.5822  100.2421 C   0  0  0  0  0  0  0  0  0  0  0  0
   47.4690   76.5318  101.1696 O   0  0  0  0  0  0  0  0  0  0  0  0
   48.6033   76.5909   95.2992 N   0  0  0  0  0  0  0  0  0  0  0  0
   47.4045   77.0403   94.6120 C   0  0  2  0  0  0  0  0  0  0  0  0
   46.9587   78.3261   95.3266 C   0  0  0  0  0  0  0  0  0  0  0  0
   46.0114   78.3210   96.1069 O   0  0  0  0  0  0  0  0  0  0  0  0
   46.3192   75.9684   94.7433 C   0  0  0  0  0  0  0  0  0  0  0  0
   45.0934   76.5148   95.2632 O   0  0  0  0  0  0  0  0  0  0  0  0
   47.7477   79.4170   95.0496 N   0  0  0  0  0  0  0  0  0  0  0  0
   47.6436   80.7256   95.7111 C   0  0  2  0  0  0  0  0  0  0  0  0
   48.4968   81.7319   94.9085 C   0  0  0  0  0  0  0  0  0  0  0  0
   49.5372   81.4262   94.3301 O   0  0  0  0  0  0  0  0  0  0  0  0
   47.8653   80.8253   97.2273 C   0  0  0  0  0  0  0  0  0  0  0  0
   46.8635   80.0162   98.0611 C   0  0  0  0  0  0  0  0  0  0  0  0
   47.4613   79.3690   99.3106 C   0  0  0  0  0  0  0  0  0  0  0  0
   48.3427   78.2653   98.9537 N   0  0  0  0  0  0  0  0  0  0  0  0
   49.0114   77.5535   99.8874 C   0  0  0  0  0  0  0  0  0  0  0  0
   48.7975   76.3230  100.1674 N   0  0  0  0  0  0  0  0  0  0  0  0
   49.9202   78.3144  100.5321 N   0  0  0  0  0  0  0  0  0  0  0  0
   47.9243   82.9856   94.7922 N   0  0  0  0  0  0  0  0  0  0  0  0
   48.5253   83.9677   93.8966 C   0  0  2  0  0  0  0  0  0  0  0  0
   48.7132   83.4269   92.4740 C   0  0  0  0  0  0  0  0  0  0  0  0
   48.7294   84.1378   91.4694 O   0  0  0  0  0  0  0  0  0  0  0  0
   49.8024   84.5767   94.5009 C   0  0  0  0  0  0  0  0  0  0  0  0
   50.0388   86.0525   94.1841 C   0  0  0  0  0  0  0  0  0  0  0  0
   51.2757   86.5239   94.8927 C   0  0  0  0  0  0  0  0  0  0  0  0
   52.0310   85.5119   95.3501 O   0  0  0  0  0  0  0  0  0  0  0  0
   51.6243   87.6872   95.0129 O   0  0  0  0  0  0  0  0  0  0  0  0
   48.8613   82.0586   92.4186 N   0  0  0  0  0  0  0  0  0  0  0  0
   48.5714   81.3236   91.1874 C   0  0  2  0  0  0  0  0  0  0  0  0
   47.2222   80.5711   91.3526 C   0  0  0  0  0  0  0  0  0  0  0  0
   47.1046   79.3717   91.1171 O   0  0  0  0  0  0  0  0  0  0  0  0
   49.6586   80.2930   90.8618 C   0  0  0  0  0  0  0  0  0  0  0  0
   51.0076   80.6354   91.4856 C   0  0  0  0  0  0  0  0  0  0  0  0
   51.4042   82.0874   91.2959 C   0  0  0  0  0  0  0  0  0  0  0  0
   52.2889   82.4768   90.5392 O   0  0  0  0  0  0  0  0  0  0  0  0
   50.6552   82.9697   92.0158 N   0  0  0  0  0  0  0  0  0  0  0  0
   46.2238   81.3157   91.9583 N   0  0  0  0  0  0  0  0  0  0  0  0
   44.8186   81.1256   91.5948 C   0  0  2  0  0  0  0  0  0  0  0  0
   44.3574   82.4797   90.9892 C   0  0  0  0  0  0  0  0  0  0  0  0
   43.1977   82.8839   91.1246 O   0  0  0  0  0  0  0  0  0  0  0  0
   43.9839   80.7027   92.8107 C   0  0  0  0  0  0  0  0  0  0  0  0
   44.2556   79.2486   93.2758 C   0  0  1  0  0  0  0  0  0  0  0  0
   43.4377   78.8460   94.5052 C   0  0  0  0  0  0  0  0  0  0  0  0
   43.9523   78.2609   92.1452 C   0  0  0  0  0  0  0  0  0  0  0  0
   45.3124   83.2486   90.3484 N   0  0  0  0  0  0  0  0  0  0  0  0
   45.1192   84.7109   90.2840 C   0  0  2  0  0  0  0  0  0  0  0  0
   45.9916   85.4656   89.2536 C   0  0  0  0  0  0  0  0  0  0  0  0
   45.4984   86.1501   88.3589 O   0  0  0  0  0  0  0  0  0  0  0  0
   45.1868   85.3402   91.6900 C   0  0  0  0  0  0  0  0  0  0  0  0
   43.9577   86.1270   92.1985 C   0  0  1  0  0  0  0  0  0  0  0  0
   42.9461   85.1413   92.7952 C   0  0  0  0  0  0  0  0  0  0  0  0
   44.2754   87.1973   93.2392 C   0  0  0  0  0  0  0  0  0  0  0  0
   47.4550   84.1929   87.3288 C   0  0  0  0  0  0  0  0  0  0  0  0
   47.3499   85.3729   89.4635 N   0  0  0  0  0  0  0  0  0  0  0  0
   46.3100   83.7349   87.4562 O   0  0  0  0  0  0  0  0  0  0  0  0
   48.2876   84.6538   88.5653 C   0  0  1  0  0  0  0  0  0  0  0  0
   48.7506   83.3876   89.3545 C   0  0  0  0  0  0  0  0  0  0  0  0
   50.3223   81.4080   89.5607 C   0  0  0  0  0  0  0  0  0  0  0  0
   51.4774   80.6596   88.9133 C   0  0  0  0  0  0  0  0  0  0  0  0
   50.0261   82.7152   88.8237 C   0  0  0  0  0  0  0  0  0  0  0  0
   49.5289   85.4857   88.1995 C   0  0  0  0  0  0  0  0  0  0  0  0
   47.9716   84.4698   86.0810 N   0  0  0  0  0  0  0  0  0  0  0  0
   47.1327   84.4334   84.8837 C   0  0  2  0  0  0  0  0  0  0  0  0
   45.8913   85.3315   85.1036 C   0  0  0  0  0  0  0  0  0  0  0  0
   44.9346   84.9539   85.7903 O   0  0  0  0  0  0  0  0  0  0  0  0
   46.8339   82.9986   84.4144 C   0  0  0  0  0  0  0  0  0  0  0  0
   45.4522   82.5136   84.8037 C   0  0  0  0  0  0  0  0  0  0  0  0
   44.3123   82.9740   84.1332 C   0  0  0  0  0  0  0  0  0  0  0  0
   45.2821   81.5983   85.8528 C   0  0  0  0  0  0  0  0  0  0  0  0
   43.0364   82.5499   84.5046 C   0  0  0  0  0  0  0  0  0  0  0  0
   44.0046   81.1861   86.2350 C   0  0  0  0  0  0  0  0  0  0  0  0
   42.8837   81.6619   85.5648 C   0  0  0  0  0  0  0  0  0  0  0  0
   45.8691   86.5313   84.4386 N   0  0  0  0  0  0  0  0  0  0  0  0
   44.9675   87.6193   84.8032 C   0  0  2  0  0  0  0  0  0  0  0  0
   43.7542   87.0260   85.5399 C   0  0  0  0  0  0  0  0  0  0  0  0
   43.5463   87.2314   86.7379 O   0  0  0  0  0  0  0  0  0  0  0  0
   44.5224   88.4302   83.5768 C   0  0  0  0  0  0  0  0  0  0  0  0
   45.4678   89.5952   83.2747 C   0  0  0  0  0  0  0  0  0  0  0  0
   45.0006   90.4041   82.0882 C   0  0  0  0  0  0  0  0  0  0  0  0
   45.2553   90.1362   80.9163 O   0  0  0  0  0  0  0  0  0  0  0  0
   44.2573   91.5058   82.4091 N   0  0  0  0  0  0  0  0  0  0  0  0
   42.9384   86.2265   84.7626 N   0  0  0  0  0  0  0  0  0  0  0  0
   41.6724   85.7296   85.2961 C   0  0  2  0  0  0  0  0  0  0  0  0
   41.7820   84.2164   85.5408 C   0  0  0  0  0  0  0  0  0  0  0  0
   40.8905   83.5394   86.0494 O   0  0  0  0  0  0  0  0  0  0  0  0
   40.4967   85.9886   84.3367 C   0  0  0  0  0  0  0  0  0  0  0  0
   40.5693   85.2793   82.9813 C   0  0  0  0  0  0  0  0  0  0  0  0
   39.3163   85.4232   82.1190 C   0  0  0  0  0  0  0  0  0  0  0  0
   38.7140   86.7321   82.3348 N   0  0  0  0  0  0  0  0  0  0  0  0
   37.3693   86.8739   82.4156 C   0  0  0  0  0  0  0  0  0  0  0  0
   36.5257   85.9254   82.2687 N   0  0  0  0  0  0  0  0  0  0  0  0
   37.0102   88.1629   82.5582 N   0  0  0  0  0  0  0  0  0  0  0  0
   53.8651   80.1636   90.5429 H   0  0  0  0  0  0  0  0  0  0  0  0
   48.4782   75.8279   99.3344 H   0  0  0  0  0  0  0  0  0  0  0  0
   36.8058   85.3633   81.4565 H   0  0  0  0  0  0  0  0  0  0  0  0
  2  1  1  0
  3  2  1  0
  2  5  1  6
  3  4  2  0
  6  3  1  0
  7  6  1  0
  8  7  1  0
  7 10  1  6
  8  9  2  0
 17  8  1  0
 10 11  1  0
 11 12  1  0
 12 13  1  0
 13 14  1  0
 14 15  1  0
 14 16  2  0
 18 17  1  0
 19 18  1  0
 18 21  1  1
 19 20  2  0
 29 19  1  0
 21 22  1  0
 22 23  2  0
 22 24  1  0
 23 25  1  0
 24 26  2  0
 25 27  2  0
 26 27  1  0
 27 28  1  0
 30 29  1  0
 31 30  1  0
 30 33  1  1
 31 32  2  0
 35 31  1  0
 33 34  1  0
 36 35  1  0
 37 36  1  0
 36 39  1  1
 37 38  2  0
 46 37  1  0
 39 40  1  0
 40 41  1  0
 41 42  1  0
 42 43  1  0
 43 44  2  0
 43 45  1  0
 47 46  1  0
 48 47  1  0
 47 50  1  1
 48 49  2  0
 55 48  1  0
 50 51  1  0
 51 52  1  0
 52 53  1  0
 52 54  2  0
 56 55  1  0
 57 56  1  0
 56 59  1  1
 57 58  2  0
 64 57  1  0
 59 60  1  0
 60 61  1  0
 61 62  2  0
 61 63  1  0
 65 64  1  0
 66 65  1  0
 65 68  1  1
 66 67  2  0
 72 66  1  0
 68 69  1  0
 69 70  1  1
 69 71  1  0
 73 72  1  0
 74 73  1  0
 73 76  1  1
 74 75  2  0
 81 74  1  0
 76 77  1  0
 77 78  1  1
 77 79  1  0
 80 82  2  0
 83 80  1  0
 80 89  1  0
 83 81  1  0
 84 83  1  0
 83 88  1  6
 87 84  1  0
 85 86  1  0
 85 87  1  0
 89 90  1  0
 90 91  1  0
 90 93  1  1
 91 92  2  0
 91100  1  0
 93 94  1  0
 94 95  2  0
 94 96  1  0
 95 97  1  0
 96 98  2  0
 97 99  2  0
 98 99  1  0
100101  1  0
101102  1  0
101104  1  6
102103  2  0
102109  1  0
104105  1  0
105106  1  0
106107  2  0
106108  1  0
109110  1  0
110111  1  0
110113  1  6
111112  2  0
113114  1  0
114115  1  0
115116  1  0
116117  1  0
117118  2  0
117119  1  0
 16120  1  0
 44121  1  0
118122  1  0
M  CHG  1   1   1
M  END
$$$$
