
     RDKit          3D

122123  0  0  0  0  0  0  0  0999 V2000
   53.9140   72.8129  102.9803 N   0  0  0  0  0  4  0  0  0  0  0  0
   52.6559   72.7317  102.1687 C   0  0  2  0  0  0  0  0  0  0  0  0
   52.5528   73.9893  101.2981 C   0  0  0  0  0  0  0  0  0  0  0  0
   52.1351   75.0330  101.7999 O   0  0  0  0  0  0  0  0  0  0  0  0
   51.4655   72.6344  103.1045 C   0  0  0  0  0  0  0  0  0  0  0  0
   53.0051   73.8665  100.0000 N   0  0  0  0  0  0  0  0  0  0  0  0
   53.1508   75.0721   99.1655 C   0  0  2  0  0  0  0  0  0  0  0  0
   52.1534   74.8626   97.9871 C   0  0  0  0  0  0  0  0  0  0  0  0
   52.1629   73.8094   97.3438 O   0  0  0  0  0  0  0  0  0  0  0  0
   54.5890   75.4149   98.7567 C   0  0  0  0  0  0  0  0  0  0  0  0
   55.4005   76.2108   99.7889 C   0  0  0  0  0  0  0  0  0  0  0  0
   56.2039   77.3811   99.2218 C   0  0  0  0  0  0  0  0  0  0  0  0
   55.3936   78.1857   98.3264 N   0  0  0  0  0  0  0  0  0  0  0  0
   55.8814   79.2522   97.6629 C   0  0  0  0  0  0  0  0  0  0  0  0
   57.2287   79.2996   97.7275 N   0  0  0  0  0  0  0  0  0  0  0  0
   55.2563   80.1764   97.0407 N   0  0  0  0  0  0  0  0  0  0  0  0
   51.2386   75.8649   97.7592 N   0  0  0  0  0  0  0  0  0  0  0  0
   50.1386   75.7230   96.7778 C   0  0  2  0  0  0  0  0  0  0  0  0
   49.3219   77.0446   96.6965 C   0  0  0  0  0  0  0  0  0  0  0  0
   48.6274   77.4758   97.6134 O   0  0  0  0  0  0  0  0  0  0  0  0
   49.2035   74.5093   96.9797 C   0  0  0  0  0  0  0  0  0  0  0  0
   48.0455   74.3741   96.0095 C   0  0  0  0  0  0  0  0  0  0  0  0
   48.0260   75.1669   94.8506 C   0  0  0  0  0  0  0  0  0  0  0  0
   46.9423   73.5462   96.2651 C   0  0  0  0  0  0  0  0  0  0  0  0
   46.9517   75.1122   93.9617 C   0  0  0  0  0  0  0  0  0  0  0  0
   45.8737   73.4719   95.3656 C   0  0  0  0  0  0  0  0  0  0  0  0
   45.8912   74.2559   94.2152 C   0  0  0  0  0  0  0  0  0  0  0  0
   44.8766   74.2160   93.3058 O   0  0  0  0  0  0  0  0  0  0  0  0
   49.3910   77.6657   95.4726 N   0  0  0  0  0  0  0  0  0  0  0  0
   48.5716   78.7936   95.0632 C   0  0  2  0  0  0  0  0  0  0  0  0
   47.9167   78.3862   93.7337 C   0  0  0  0  0  0  0  0  0  0  0  0
   48.1193   77.2807   93.2406 O   0  0  0  0  0  0  0  0  0  0  0  0
   49.4699   80.0147   94.8486 C   0  0  0  0  0  0  0  0  0  0  0  0
   50.8005   79.6325   94.4548 O   0  0  0  0  0  0  0  0  0  0  0  0
   47.0685   79.3372   93.2185 N   0  0  0  0  0  0  0  0  0  0  0  0
   46.7661   79.5164   91.7912 C   0  0  2  0  0  0  0  0  0  0  0  0
   47.9772   80.2134   91.1337 C   0  0  0  0  0  0  0  0  0  0  0  0
   48.6738   81.0454   91.7107 O   0  0  0  0  0  0  0  0  0  0  0  0
   45.4213   80.1300   91.3752 C   0  0  0  0  0  0  0  0  0  0  0  0
   44.2044   79.4938   92.0594 C   0  0  0  0  0  0  0  0  0  0  0  0
   43.8701   80.0864   93.4285 C   0  0  0  0  0  0  0  0  0  0  0  0
   43.6136   81.5170   93.3276 N   0  0  0  0  0  0  0  0  0  0  0  0
   42.6566   82.1254   94.0621 C   0  0  0  0  0  0  0  0  0  0  0  0
   41.8890   81.5388   94.9017 N   0  0  0  0  0  0  0  0  0  0  0  0
   42.5733   83.4408   93.7734 N   0  0  0  0  0  0  0  0  0  0  0  0
   48.2879   79.7299   89.8757 N   0  0  0  0  0  0  0  0  0  0  0  0
   49.2228   80.4690   89.0345 C   0  0  2  0  0  0  0  0  0  0  0  0
   48.5956   81.7302   88.4282 C   0  0  0  0  0  0  0  0  0  0  0  0
   48.9067   82.8744   88.7584 O   0  0  0  0  0  0  0  0  0  0  0  0
   49.8961   79.5530   87.9979 C   0  0  0  0  0  0  0  0  0  0  0  0
   49.0198   78.4281   87.4494 C   0  0  0  0  0  0  0  0  0  0  0  0
   49.7004   77.7936   86.2711 C   0  0  0  0  0  0  0  0  0  0  0  0
   51.0389   77.8886   86.3300 O   0  0  0  0  0  0  0  0  0  0  0  0
   49.1409   77.1965   85.3657 O   0  0  0  0  0  0  0  0  0  0  0  0
   47.6399   81.4666   87.4720 N   0  0  0  0  0  0  0  0  0  0  0  0
   47.0655   82.5470   86.6701 C   0  0  2  0  0  0  0  0  0  0  0  0
   45.9753   83.2732   87.5055 C   0  0  0  0  0  0  0  0  0  0  0  0
   45.2398   84.1305   87.0241 O   0  0  0  0  0  0  0  0  0  0  0  0
   46.4157   82.0264   85.3828 C   0  0  0  0  0  0  0  0  0  0  0  0
   47.3606   82.0569   84.1860 C   0  0  0  0  0  0  0  0  0  0  0  0
   48.2077   83.3139   84.1232 C   0  0  0  0  0  0  0  0  0  0  0  0
   49.4050   83.3635   84.3892 O   0  0  0  0  0  0  0  0  0  0  0  0
   47.5361   84.4192   83.6929 N   0  0  0  0  0  0  0  0  0  0  0  0
   45.7809   82.7462   88.7714 N   0  0  0  0  0  0  0  0  0  0  0  0
   44.7085   83.2421   89.6356 C   0  0  2  0  0  0  0  0  0  0  0  0
   45.4198   83.8578   90.8717 C   0  0  0  0  0  0  0  0  0  0  0  0
   44.8162   84.0494   91.9327 O   0  0  0  0  0  0  0  0  0  0  0  0
   43.7333   82.1180   90.0092 C   0  0  0  0  0  0  0  0  0  0  0  0
   43.2424   81.2911   88.7927 C   0  0  1  0  0  0  0  0  0  0  0  0
   42.3110   80.1408   89.1818 C   0  0  0  0  0  0  0  0  0  0  0  0
   42.5102   82.1931   87.7946 C   0  0  0  0  0  0  0  0  0  0  0  0
   46.7730   84.1228   90.7610 N   0  0  0  0  0  0  0  0  0  0  0  0
   47.4639   84.7700   91.8939 C   0  0  2  0  0  0  0  0  0  0  0  0
   47.0520   86.2302   92.1948 C   0  0  0  0  0  0  0  0  0  0  0  0
   46.9011   86.6412   93.3440 O   0  0  0  0  0  0  0  0  0  0  0  0
   48.9920   84.5979   91.7812 C   0  0  0  0  0  0  0  0  0  0  0  0
   49.6174   84.5263   90.3697 C   0  0  1  0  0  0  0  0  0  0  0  0
   49.1391   85.7306   89.5502 C   0  0  0  0  0  0  0  0  0  0  0  0
   51.1432   84.4934   90.3525 C   0  0  0  0  0  0  0  0  0  0  0  0
   45.7795   88.8912   89.9980 C   0  0  0  0  0  0  0  0  0  0  0  0
   46.9447   87.0436   91.0883 N   0  0  0  0  0  0  0  0  0  0  0  0
   45.8064   90.0098   89.4640 O   0  0  0  0  0  0  0  0  0  0  0  0
   46.7662   88.5158   91.1470 C   0  0  1  0  0  0  0  0  0  0  0  0
   48.1654   89.1303   90.8229 C   0  0  0  0  0  0  0  0  0  0  0  0
   50.3843   90.0423   91.6455 C   0  0  0  0  0  0  0  0  0  0  0  0
   50.3959   91.4646   92.1845 C   0  0  0  0  0  0  0  0  0  0  0  0
   49.0961   89.3135   92.0317 C   0  0  0  0  0  0  0  0  0  0  0  0
   46.3199   89.0139   92.5324 C   0  0  0  0  0  0  0  0  0  0  0  0
   44.9934   87.8813   89.4856 N   0  0  0  0  0  0  0  0  0  0  0  0
   45.0131   87.5480   88.0618 C   0  0  2  0  0  0  0  0  0  0  0  0
   43.7595   86.7074   87.7177 C   0  0  0  0  0  0  0  0  0  0  0  0
   43.5890   86.2352   86.5876 O   0  0  0  0  0  0  0  0  0  0  0  0
   46.3557   86.9433   87.6145 C   0  0  0  0  0  0  0  0  0  0  0  0
   46.6454   85.5934   88.2389 C   0  0  0  0  0  0  0  0  0  0  0  0
   47.9533   85.2206   88.5727 C   0  0  0  0  0  0  0  0  0  0  0  0
   45.6098   84.6810   88.4885 C   0  0  0  0  0  0  0  0  0  0  0  0
   48.2281   83.9692   89.1242 C   0  0  0  0  0  0  0  0  0  0  0  0
   45.8864   83.4228   89.0254 C   0  0  0  0  0  0  0  0  0  0  0  0
   47.1922   83.0658   89.3407 C   0  0  0  0  0  0  0  0  0  0  0  0
   42.8119   86.5773   88.7013 N   0  0  0  0  0  0  0  0  0  0  0  0
   41.4466   86.1399   88.4291 C   0  0  2  0  0  0  0  0  0  0  0  0
   40.7669   87.1840   87.5266 C   0  0  0  0  0  0  0  0  0  0  0  0
   39.6326   87.0218   87.0709 O   0  0  0  0  0  0  0  0  0  0  0  0
   40.6447   85.9263   89.7218 C   0  0  0  0  0  0  0  0  0  0  0  0
   41.2660   84.8560   90.6221 C   0  0  0  0  0  0  0  0  0  0  0  0
   40.2126   84.0230   91.3127 C   0  0  0  0  0  0  0  0  0  0  0  0
   40.4409   83.0011   91.9558 O   0  0  0  0  0  0  0  0  0  0  0  0
   38.9345   84.4850   91.1627 N   0  0  0  0  0  0  0  0  0  0  0  0
   41.5365   88.2968   87.2466 N   0  0  0  0  0  0  0  0  0  0  0  0
   41.1552   89.2006   86.1640 C   0  0  2  0  0  0  0  0  0  0  0  0
   40.3244   88.4297   85.1261 C   0  0  0  0  0  0  0  0  0  0  0  0
   39.6686   88.9697   84.2372 O   0  0  0  0  0  0  0  0  0  0  0  0
   42.3799   89.8105   85.4585 C   0  0  0  0  0  0  0  0  0  0  0  0
   42.1312   91.1116   84.6898 C   0  0  0  0  0  0  0  0  0  0  0  0
   43.3630   91.6831   83.9894 C   0  0  0  0  0  0  0  0  0  0  0  0
   44.1689   90.5999   83.4420 N   0  0  0  0  0  0  0  0  0  0  0  0
   45.3780   90.8467   82.8836 C   0  0  0  0  0  0  0  0  0  0  0  0
   46.2502   89.9542   82.6084 N   0  0  0  0  0  0  0  0  0  0  0  0
   45.6082   92.1660   82.7523 N   0  0  0  0  0  0  0  0  0  0  0  0
   54.3598   80.3636   97.4891 H   0  0  0  0  0  0  0  0  0  0  0  0
   41.8545   82.0713   95.7713 H   0  0  0  0  0  0  0  0  0  0  0  0
   45.8618   89.0344   82.8476 H   0  0  0  0  0  0  0  0  0  0  0  0
  2  1  1  0
  3  2  1  0
  2  5  1  1
  3  4  2  0
  6  3  1  0
  7  6  1  0
  8  7  1  0
  7 10  1  6
  8  9  2  0
 17  8  1  0
 10 11  1  0
 11 12  1  0
 12 13  1  0
 13 14  1  0
 14 15  1  0
 14 16  2  0
 18 17  1  0
 19 18  1  0
 18 21  1  1
 19 20  2  0
 29 19  1  0
 21 22  1  0
 22 23  2  0
 22 24  1  0
 23 25  1  0
 24 26  2  0
 25 27  2  0
 26 27  1  0
 27 28  1  0
 30 29  1  0
 31 30  1  0
 30 33  1  6
 31 32  2  0
 35 31  1  0
 33 34  1  0
 36 35  1  0
 37 36  1  0
 36 39  1  1
 37 38  2  0
 46 37  1  0
 39 40  1  0
 40 41  1  0
 41 42  1  0
 42 43  1  0
 43 44  2  0
 43 45  1  0
 47 46  1  0
 48 47  1  0
 47 50  1  6
 48 49  2  0
 55 48  1  0
 50 51  1  0
 51 52  1  0
 52 53  1  0
 52 54  2  0
 56 55  1  0
 57 56  1  0
 56 59  1  6
 57 58  2  0
 64 57  1  0
 59 60  1  0
 60 61  1  0
 61 62  2  0
 61 63  1  0
 65 64  1  0
 66 65  1  0
 65 68  1  1
 66 67  2  0
 72 66  1  0
 68 69  1  0
 69 70  1  1
 69 71  1  0
 73 72  1  0
 74 73  1  0
 73 76  1  6
 74 75  2  0
 81 74  1  0
 76 77  1  0
 77 78  1  6
 77 79  1  0
 80 82  2  0
 83 80  1  0
 80 89  1  0
 83 81  1  0
 84 83  1  0
 83 88  1  1
 87 84  1  0
 85 86  1  0
 85 87  1  0
 89 90  1  0
 90 91  1  0
 90 93  1  1
 91 92  2  0
 91100  1  0
 93 94  1  0
 94 95  2  0
 94 96  1  0
 95 97  1  0
 96 98  2  0
 97 99  2  0
 98 99  1  0
100101  1  0
101102  1  0
101104  1  1
102103  2  0
102109  1  0
104105  1  0
105106  1  0
106107  2  0
106108  1  0
109110  1  0
110111  1  0
110113  1  6
111112  2  0
113114  1  0
114115  1  0
115116  1  0
116117  1  0
117118  2  0
117119  1  0
 16120  1  0
 44121  1  0
118122  1  0
M  CHG  1   1   1
M  END
$$$$
