
     RDKit          3D

122123  0  0  0  0  0  0  0  0999 V2000
   37.1974   80.6083   91.6743 N   0  0  0  0  0  4  0  0  0  0  0  0
   37.5312   80.6302   93.1359 C   0  0  2  0  0  0  0  0  0  0  0  0
   38.6672   81.6340   93.3638 C   0  0  0  0  0  0  0  0  0  0  0  0
   38.4372   82.8372   93.2419 O   0  0  0  0  0  0  0  0  0  0  0  0
   37.9560   79.2398   93.5701 C   0  0  0  0  0  0  0  0  0  0  0  0
   39.8776   81.1004   93.7575 N   0  0  0  0  0  0  0  0  0  0  0  0
   41.0396   81.9892   93.9326 C   0  0  2  0  0  0  0  0  0  0  0  0
   41.6904   82.0755   92.5197 C   0  0  0  0  0  0  0  0  0  0  0  0
   41.6399   81.1108   91.7515 O   0  0  0  0  0  0  0  0  0  0  0  0
   41.9913   81.6050   95.0727 C   0  0  0  0  0  0  0  0  0  0  0  0
   43.4534   81.3709   94.6663 C   0  0  0  0  0  0  0  0  0  0  0  0
   43.8659   79.9046   94.5396 C   0  0  0  0  0  0  0  0  0  0  0  0
   43.7777   79.2248   95.8185 N   0  0  0  0  0  0  0  0  0  0  0  0
   44.0136   77.9057   95.9600 C   0  0  0  0  0  0  0  0  0  0  0  0
   43.9772   77.5340   97.2569 N   0  0  0  0  0  0  0  0  0  0  0  0
   44.2742   77.0278   95.0692 N   0  0  0  0  0  0  0  0  0  0  0  0
   42.2464   83.2823   92.1621 N   0  0  0  0  0  0  0  0  0  0  0  0
   42.8160   83.5225   90.8163 C   0  0  2  0  0  0  0  0  0  0  0  0
   43.5955   82.2653   90.3344 C   0  0  0  0  0  0  0  0  0  0  0  0
   43.7439   81.2520   91.0128 O   0  0  0  0  0  0  0  0  0  0  0  0
   43.6771   84.7965   90.6631 C   0  0  0  0  0  0  0  0  0  0  0  0
   44.5443   85.1779   91.8477 C   0  0  0  0  0  0  0  0  0  0  0  0
   44.8469   86.5312   92.0683 C   0  0  0  0  0  0  0  0  0  0  0  0
   45.1313   84.2214   92.6893 C   0  0  0  0  0  0  0  0  0  0  0  0
   45.6861   86.9177   93.1140 C   0  0  0  0  0  0  0  0  0  0  0  0
   45.9555   84.6060   93.7521 C   0  0  0  0  0  0  0  0  0  0  0  0
   46.2222   85.9569   93.9577 C   0  0  0  0  0  0  0  0  0  0  0  0
   47.0148   86.3827   94.9816 O   0  0  0  0  0  0  0  0  0  0  0  0
   44.1684   82.4089   89.0936 N   0  0  0  0  0  0  0  0  0  0  0  0
   45.0882   81.4624   88.4859 C   0  0  2  0  0  0  0  0  0  0  0  0
   46.1612   82.3040   87.7767 C   0  0  0  0  0  0  0  0  0  0  0  0
   47.1452   81.7766   87.2672 O   0  0  0  0  0  0  0  0  0  0  0  0
   44.3305   80.6137   87.4613 C   0  0  0  0  0  0  0  0  0  0  0  0
   43.0522   81.1896   87.1361 O   0  0  0  0  0  0  0  0  0  0  0  0
   45.8710   83.6467   87.7284 N   0  0  0  0  0  0  0  0  0  0  0  0
   46.4725   84.6087   86.7938 C   0  0  2  0  0  0  0  0  0  0  0  0
   47.2239   85.6713   87.6251 C   0  0  0  0  0  0  0  0  0  0  0  0
   48.0362   86.4572   87.1426 O   0  0  0  0  0  0  0  0  0  0  0  0
   45.6108   85.2179   85.6783 C   0  0  0  0  0  0  0  0  0  0  0  0
   46.2715   86.3946   84.9486 C   0  0  0  0  0  0  0  0  0  0  0  0
   45.2885   87.3389   84.2563 C   0  0  0  0  0  0  0  0  0  0  0  0
   44.4938   86.6267   83.2645 N   0  0  0  0  0  0  0  0  0  0  0  0
   43.1899   86.3363   83.4674 C   0  0  0  0  0  0  0  0  0  0  0  0
   42.5653   86.4895   84.5741 N   0  0  0  0  0  0  0  0  0  0  0  0
   42.6208   85.8174   82.3595 N   0  0  0  0  0  0  0  0  0  0  0  0
   46.8127   85.7459   88.9436 N   0  0  0  0  0  0  0  0  0  0  0  0
   47.4500   86.7040   89.8401 C   0  0  2  0  0  0  0  0  0  0  0  0
   47.0517   86.4909   91.3056 C   0  0  0  0  0  0  0  0  0  0  0  0
   45.9437   86.7741   91.7605 O   0  0  0  0  0  0  0  0  0  0  0  0
   47.2583   88.1499   89.3507 C   0  0  0  0  0  0  0  0  0  0  0  0
   47.2996   89.2216   90.4389 C   0  0  0  0  0  0  0  0  0  0  0  0
   47.0427   90.5674   89.8249 C   0  0  0  0  0  0  0  0  0  0  0  0
   45.8425   91.0705   90.1572 O   0  0  0  0  0  0  0  0  0  0  0  0
   47.8325   91.1968   89.1398 O   0  0  0  0  0  0  0  0  0  0  0  0
   48.0562   85.9507   92.0778 N   0  0  0  0  0  0  0  0  0  0  0  0
   48.0232   84.5417   92.4701 C   0  0  2  0  0  0  0  0  0  0  0  0
   49.3290   84.1994   93.2391 C   0  0  0  0  0  0  0  0  0  0  0  0
   50.3838   83.9451   92.6641 O   0  0  0  0  0  0  0  0  0  0  0  0
   47.9216   83.6083   91.2582 C   0  0  0  0  0  0  0  0  0  0  0  0
   49.1595   82.7367   91.0742 C   0  0  0  0  0  0  0  0  0  0  0  0
   48.8428   81.2552   90.9936 C   0  0  0  0  0  0  0  0  0  0  0  0
   48.6056   80.5379   91.9611 O   0  0  0  0  0  0  0  0  0  0  0  0
   48.7934   80.7628   89.7236 N   0  0  0  0  0  0  0  0  0  0  0  0
   49.2503   84.3862   94.6091 N   0  0  0  0  0  0  0  0  0  0  0  0
   50.4562   84.3816   95.4390 C   0  0  2  0  0  0  0  0  0  0  0  0
   50.9231   82.9008   95.4884 C   0  0  0  0  0  0  0  0  0  0  0  0
   52.0964   82.6036   95.7371 O   0  0  0  0  0  0  0  0  0  0  0  0
   50.1736   84.9629   96.8305 C   0  0  0  0  0  0  0  0  0  0  0  0
   49.2788   86.2292   96.8051 C   0  0  1  0  0  0  0  0  0  0  0  0
   47.7889   85.9179   96.9651 C   0  0  0  0  0  0  0  0  0  0  0  0
   49.6948   87.1992   97.9149 C   0  0  0  0  0  0  0  0  0  0  0  0
   49.9606   81.9235   95.3087 N   0  0  0  0  0  0  0  0  0  0  0  0
   50.2720   80.5385   95.7138 C   0  0  2  0  0  0  0  0  0  0  0  0
   50.5402   79.5395   94.5637 C   0  0  0  0  0  0  0  0  0  0  0  0
   50.6024   78.3263   94.7553 O   0  0  0  0  0  0  0  0  0  0  0  0
   49.2344   80.0113   96.7251 C   0  0  0  0  0  0  0  0  0  0  0  0
   49.5473   80.1486   98.2323 C   0  0  1  0  0  0  0  0  0  0  0  0
   48.5163   81.0856   98.8727 C   0  0  0  0  0  0  0  0  0  0  0  0
   49.5591   78.8300   99.0008 C   0  0  0  0  0  0  0  0  0  0  0  0
   52.3149   79.3091   91.7382 C   0  0  0  0  0  0  0  0  0  0  0  0
   50.6255   80.1052   93.3106 N   0  0  0  0  0  0  0  0  0  0  0  0
   52.7508   78.7980   90.6963 O   0  0  0  0  0  0  0  0  0  0  0  0
   50.7869   79.3327   92.0537 C   0  0  1  0  0  0  0  0  0  0  0  0
   50.0619   80.1612   90.9453 C   0  0  0  0  0  0  0  0  0  0  0  0
   47.6405   80.8939   90.7682 C   0  0  0  0  0  0  0  0  0  0  0  0
   47.4402   81.5945   89.4330 C   0  0  0  0  0  0  0  0  0  0  0  0
   48.6202   79.7263   90.6403 C   0  0  0  0  0  0  0  0  0  0  0  0
   50.1477   77.9349   92.1193 C   0  0  0  0  0  0  0  0  0  0  0  0
   53.1437   80.0244   92.5760 N   0  0  0  0  0  0  0  0  0  0  0  0
   54.5758   80.1489   92.3070 C   0  0  2  0  0  0  0  0  0  0  0  0
   55.3650   79.8725   93.6097 C   0  0  0  0  0  0  0  0  0  0  0  0
   56.5348   79.4724   93.5833 O   0  0  0  0  0  0  0  0  0  0  0  0
   54.9302   81.4622   91.5872 C   0  0  0  0  0  0  0  0  0  0  0  0
   54.6230   81.4372   90.1037 C   0  0  0  0  0  0  0  0  0  0  0  0
   55.5451   80.9183   89.1864 C   0  0  0  0  0  0  0  0  0  0  0  0
   53.4101   81.9427   89.6134 C   0  0  0  0  0  0  0  0  0  0  0  0
   55.2775   80.9163   87.8174 C   0  0  0  0  0  0  0  0  0  0  0  0
   53.1488   81.9554   88.2424 C   0  0  0  0  0  0  0  0  0  0  0  0
   54.0805   81.4460   87.3456 C   0  0  0  0  0  0  0  0  0  0  0  0
   54.6817   80.0174   94.7905 N   0  0  0  0  0  0  0  0  0  0  0  0
   55.3482   80.0620   96.0879 C   0  0  2  0  0  0  0  0  0  0  0  0
   55.3539   78.6447   96.6863 C   0  0  0  0  0  0  0  0  0  0  0  0
   55.9389   78.3765   97.7381 O   0  0  0  0  0  0  0  0  0  0  0  0
   54.6758   81.0589   97.0438 C   0  0  0  0  0  0  0  0  0  0  0  0
   55.6914   81.9390   97.7759 C   0  0  0  0  0  0  0  0  0  0  0  0
   57.1126   81.5510   97.4439 C   0  0  0  0  0  0  0  0  0  0  0  0
   58.1116   82.1159   97.8831 O   0  0  0  0  0  0  0  0  0  0  0  0
   57.2267   80.4983   96.5791 N   0  0  0  0  0  0  0  0  0  0  0  0
   54.6795   77.6977   95.9397 N   0  0  0  0  0  0  0  0  0  0  0  0
   54.5974   76.3158   96.4066 C   0  0  2  0  0  0  0  0  0  0  0  0
   54.3494   75.3873   95.2074 C   0  0  0  0  0  0  0  0  0  0  0  0
   54.3869   74.1601   95.2733 O   0  0  0  0  0  0  0  0  0  0  0  0
   53.4628   76.1144   97.4272 C   0  0  0  0  0  0  0  0  0  0  0  0
   52.1040   76.7083   97.0444 C   0  0  0  0  0  0  0  0  0  0  0  0
   50.9398   75.7202   97.0953 C   0  0  0  0  0  0  0  0  0  0  0  0
   51.2304   74.6609   98.0523 N   0  0  0  0  0  0  0  0  0  0  0  0
   50.2302   74.0028   98.6859 C   0  0  0  0  0  0  0  0  0  0  0  0
   50.2710   73.6094   99.9010 N   0  0  0  0  0  0  0  0  0  0  0  0
   49.2190   73.7053   97.8495 N   0  0  0  0  0  0  0  0  0  0  0  0
   43.8327   76.1395   95.3051 H   0  0  0  0  0  0  0  0  0  0  0  0
   43.0732   86.0239   85.3266 H   0  0  0  0  0  0  0  0  0  0  0  0
   50.9881   74.1529  100.3955 H   0  0  0  0  0  0  0  0  0  0  0  0
  2  1  1  0
  3  2  1  0
  2  5  1  6
  3  4  2  0
  6  3  1  0
  7  6  1  0
  8  7  1  0
  7 10  1  1
  8  9  2  0
 17  8  1  0
 10 11  1  0
 11 12  1  0
 12 13  1  0
 13 14  1  0
 14 15  1  0
 14 16  2  0
 18 17  1  0
 19 18  1  0
 18 21  1  1
 19 20  2  0
 29 19  1  0
 21 22  1  0
 22 23  2  0
 22 24  1  0
 23 25  1  0
 24 26  2  0
 25 27  2  0
 26 27  1  0
 27 28  1  0
 30 29  1  0
 31 30  1  0
 30 33  1  6
 31 32  2  0
 35 31  1  0
 33 34  1  0
 36 35  1  0
 37 36  1  0
 36 39  1  1
 37 38  2  0
 46 37  1  0
 39 40  1  0
 40 41  1  0
 41 42  1  0
 42 43  1  0
 43 44  2  0
 43 45  1  0
 47 46  1  0
 48 47  1  0
 47 50  1  6
 48 49  2  0
 55 48  1  0
 50 51  1  0
 51 52  1  0
 52 53  1  0
 52 54  2  0
 56 55  1  0
 57 56  1  0
 56 59  1  6
 57 58  2  0
 64 57  1  0
 59 60  1  0
 60 61  1  0
 61 62  2  0
 61 63  1  0
 65 64  1  0
 66 65  1  0
 65 68  1  1
 66 67  2  0
 72 66  1  0
 68 69  1  0
 69 70  1  1
 69 71  1  0
 73 72  1  0
 74 73  1  0
 73 76  1  6
 74 75  2  0
 81 74  1  0
 76 77  1  0
 77 78  1  1
 77 79  1  0
 80 82  2  0
 83 80  1  0
 80 89  1  0
 83 81  1  0
 84 83  1  0
 83 88  1  1
 87 84  1  0
 85 86  1  0
 85 87  1  0
 89 90  1  0
 90 91  1  0
 90 93  1  1
 91 92  2  0
 91100  1  0
 93 94  1  0
 94 95  2  0
 94 96  1  0
 95 97  1  0
 96 98  2  0
 97 99  2  0
 98 99  1  0
100101  1  0
101102  1  0
101104  1  1
102103  2  0
102109  1  0
104105  1  0
105106  1  0
106107  2  0
106108  1  0
109110  1  0
110111  1  0
110113  1  1
111112  2  0
113114  1  0
114115  1  0
115116  1  0
116117  1  0
117118  2  0
117119  1  0
 16120  1  0
 44121  1  0
118122  1  0
M  CHG  1   1   1
M  END
$$$$
