
     RDKit          3D

122123  0  0  0  0  0  0  0  0999 V2000
   62.1120   78.7828   90.7099 N   0  0  0  0  0  4  0  0  0  0  0  0
   62.4013   77.5961   91.5796 C   0  0  2  0  0  0  0  0  0  0  0  0
   61.5457   77.6980   92.8475 C   0  0  0  0  0  0  0  0  0  0  0  0
   61.5944   76.7905   93.6779 O   0  0  0  0  0  0  0  0  0  0  0  0
   63.8767   77.5866   91.9337 C   0  0  0  0  0  0  0  0  0  0  0  0
   60.8131   78.8586   92.9925 N   0  0  0  0  0  0  0  0  0  0  0  0
   60.0321   79.0745   94.2231 C   0  0  2  0  0  0  0  0  0  0  0  0
   58.6438   78.4308   93.9307 C   0  0  0  0  0  0  0  0  0  0  0  0
   58.1668   78.4703   92.7931 O   0  0  0  0  0  0  0  0  0  0  0  0
   59.9925   80.5228   94.7272 C   0  0  0  0  0  0  0  0  0  0  0  0
   61.3553   81.1475   95.0587 C   0  0  0  0  0  0  0  0  0  0  0  0
   62.0415   80.5872   96.3044 C   0  0  0  0  0  0  0  0  0  0  0  0
   61.7583   81.4049   97.4691 N   0  0  0  0  0  0  0  0  0  0  0  0
   62.4907   81.3424   98.5984 C   0  0  0  0  0  0  0  0  0  0  0  0
   61.7214   81.5051   99.6954 N   0  0  0  0  0  0  0  0  0  0  0  0
   63.7500   81.1813   98.7410 N   0  0  0  0  0  0  0  0  0  0  0  0
   58.0310   77.7711   94.9713 N   0  0  0  0  0  0  0  0  0  0  0  0
   56.6719   77.1953   94.8512 C   0  0  2  0  0  0  0  0  0  0  0  0
   55.6044   78.2648   95.2215 C   0  0  0  0  0  0  0  0  0  0  0  0
   55.7578   79.1062   96.1032 O   0  0  0  0  0  0  0  0  0  0  0  0
   56.4235   75.8793   95.6225 C   0  0  0  0  0  0  0  0  0  0  0  0
   55.0656   75.2292   95.4385 C   0  0  0  0  0  0  0  0  0  0  0  0
   54.6932   74.7681   94.1654 C   0  0  0  0  0  0  0  0  0  0  0  0
   54.1247   75.1451   96.4756 C   0  0  0  0  0  0  0  0  0  0  0  0
   53.4316   74.2147   93.9433 C   0  0  0  0  0  0  0  0  0  0  0  0
   52.8671   74.5710   96.2624 C   0  0  0  0  0  0  0  0  0  0  0  0
   52.5331   74.1051   94.9937 C   0  0  0  0  0  0  0  0  0  0  0  0
   51.3227   73.5336   94.7362 O   0  0  0  0  0  0  0  0  0  0  0  0
   54.4321   78.1474   94.5140 N   0  0  0  0  0  0  0  0  0  0  0  0
   53.2220   78.9084   94.7744 C   0  0  2  0  0  0  0  0  0  0  0  0
   52.1552   77.8846   95.1942 C   0  0  0  0  0  0  0  0  0  0  0  0
   52.3305   77.1467   96.1590 O   0  0  0  0  0  0  0  0  0  0  0  0
   52.7875   79.6157   93.4879 C   0  0  0  0  0  0  0  0  0  0  0  0
   53.2246   78.9030   92.3164 O   0  0  0  0  0  0  0  0  0  0  0  0
   51.0100   77.9338   94.4356 N   0  0  0  0  0  0  0  0  0  0  0  0
   49.6965   78.3869   94.9156 C   0  0  2  0  0  0  0  0  0  0  0  0
   48.9518   79.0286   93.7246 C   0  0  0  0  0  0  0  0  0  0  0  0
   47.8010   79.4538   93.7965 O   0  0  0  0  0  0  0  0  0  0  0  0
   49.6093   79.2242   96.2000 C   0  0  0  0  0  0  0  0  0  0  0  0
   48.2477   79.1522   96.9030 C   0  0  0  0  0  0  0  0  0  0  0  0
   47.2156   78.2787   96.1895 C   0  0  0  0  0  0  0  0  0  0  0  0
   47.2462   76.9147   96.7004 N   0  0  0  0  0  0  0  0  0  0  0  0
   46.3875   75.9678   96.2629 C   0  0  0  0  0  0  0  0  0  0  0  0
   46.6703   74.7277   96.1190 N   0  0  0  0  0  0  0  0  0  0  0  0
   45.1863   76.4964   95.9497 N   0  0  0  0  0  0  0  0  0  0  0  0
   49.7358   79.1968   92.5976 N   0  0  0  0  0  0  0  0  0  0  0  0
   49.1716   79.8533   91.4235 C   0  0  2  0  0  0  0  0  0  0  0  0
   48.7212   81.2901   91.7144 C   0  0  0  0  0  0  0  0  0  0  0  0
   47.6633   81.5740   92.2757 O   0  0  0  0  0  0  0  0  0  0  0  0
   48.0875   78.9877   90.7583 C   0  0  0  0  0  0  0  0  0  0  0  0
   48.6045   77.8573   89.8698 C   0  0  0  0  0  0  0  0  0  0  0  0
   47.9292   77.9256   88.5306 C   0  0  0  0  0  0  0  0  0  0  0  0
   46.5954   77.7907   88.6128 O   0  0  0  0  0  0  0  0  0  0  0  0
   48.4863   78.1363   87.4654 O   0  0  0  0  0  0  0  0  0  0  0  0
   49.6145   82.2464   91.2845 N   0  0  0  0  0  0  0  0  0  0  0  0
   49.3140   83.6707   91.4305 C   0  0  2  0  0  0  0  0  0  0  0  0
   48.6654   84.1886   90.1171 C   0  0  0  0  0  0  0  0  0  0  0  0
   48.2876   85.3493   89.9829 O   0  0  0  0  0  0  0  0  0  0  0  0
   50.5740   84.5005   91.7029 C   0  0  0  0  0  0  0  0  0  0  0  0
   50.2993   86.0000   91.7481 C   0  0  0  0  0  0  0  0  0  0  0  0
   50.3052   86.6519   90.3782 C   0  0  0  0  0  0  0  0  0  0  0  0
   49.3111   86.8108   89.6758 O   0  0  0  0  0  0  0  0  0  0  0  0
   51.5272   87.1072   89.9814 N   0  0  0  0  0  0  0  0  0  0  0  0
   48.7199   83.2932   89.0619 N   0  0  0  0  0  0  0  0  0  0  0  0
   48.1356   83.6270   87.7618 C   0  0  2  0  0  0  0  0  0  0  0  0
   46.7556   82.9145   87.7294 C   0  0  0  0  0  0  0  0  0  0  0  0
   46.6031   81.8323   87.1529 O   0  0  0  0  0  0  0  0  0  0  0  0
   49.0558   83.1938   86.6130 C   0  0  0  0  0  0  0  0  0  0  0  0
   49.5719   81.7375   86.7455 C   0  0  1  0  0  0  0  0  0  0  0  0
   49.6628   81.0057   85.4044 C   0  0  0  0  0  0  0  0  0  0  0  0
   50.9546   81.7189   87.4041 C   0  0  0  0  0  0  0  0  0  0  0  0
   45.7176   83.5054   88.4275 N   0  0  0  0  0  0  0  0  0  0  0  0
   44.4907   82.7214   88.6720 C   0  0  2  0  0  0  0  0  0  0  0  0
   43.1544   83.4791   88.4912 C   0  0  0  0  0  0  0  0  0  0  0  0
   42.3031   83.1151   87.6818 O   0  0  0  0  0  0  0  0  0  0  0  0
   44.5701   81.9757   90.0192 C   0  0  0  0  0  0  0  0  0  0  0  0
   43.9268   80.5739   90.1178 C   0  0  1  0  0  0  0  0  0  0  0  0
   44.2978   79.7656   88.8689 C   0  0  0  0  0  0  0  0  0  0  0  0
   44.3269   79.7777   91.3569 C   0  0  0  0  0  0  0  0  0  0  0  0
   41.5078   85.4883   87.6417 C   0  0  0  0  0  0  0  0  0  0  0  0
   42.9642   84.5359   89.3540 N   0  0  0  0  0  0  0  0  0  0  0  0
   42.0407   86.0632   86.6813 O   0  0  0  0  0  0  0  0  0  0  0  0
   42.0429   85.6705   89.0961 C   0  0  1  0  0  0  0  0  0  0  0  0
   42.9254   86.9587   89.1447 C   0  0  0  0  0  0  0  0  0  0  0  0
   44.4008   88.6382   87.9471 C   0  0  0  0  0  0  0  0  0  0  0  0
   45.0863   88.9949   86.6370 C   0  0  0  0  0  0  0  0  0  0  0  0
   43.5876   87.3495   87.8144 C   0  0  0  0  0  0  0  0  0  0  0  0
   40.9315   85.7964   90.1524 C   0  0  0  0  0  0  0  0  0  0  0  0
   40.5309   84.5362   87.4430 N   0  0  0  0  0  0  0  0  0  0  0  0
   40.0888   84.1668   86.0988 C   0  0  2  0  0  0  0  0  0  0  0  0
   39.2238   82.8856   86.1809 C   0  0  0  0  0  0  0  0  0  0  0  0
   38.4871   82.5432   85.2485 O   0  0  0  0  0  0  0  0  0  0  0  0
   41.2480   84.1164   85.0880 C   0  0  0  0  0  0  0  0  0  0  0  0
   41.3915   85.3858   84.2731 C   0  0  0  0  0  0  0  0  0  0  0  0
   40.2975   85.9292   83.5885 C   0  0  0  0  0  0  0  0  0  0  0  0
   42.6277   86.0415   84.1780 C   0  0  0  0  0  0  0  0  0  0  0  0
   40.4306   87.0834   82.8166 C   0  0  0  0  0  0  0  0  0  0  0  0
   42.7648   87.1873   83.3929 C   0  0  0  0  0  0  0  0  0  0  0  0
   41.6702   87.7064   82.7116 C   0  0  0  0  0  0  0  0  0  0  0  0
   39.2544   82.1923   87.3643 N   0  0  0  0  0  0  0  0  0  0  0  0
   38.1399   81.3722   87.8277 C   0  0  2  0  0  0  0  0  0  0  0  0
   37.1872   82.2572   88.6499 C   0  0  0  0  0  0  0  0  0  0  0  0
   36.0481   81.8947   88.9522 O   0  0  0  0  0  0  0  0  0  0  0  0
   38.6186   80.1674   88.6518 C   0  0  0  0  0  0  0  0  0  0  0  0
   38.1780   80.2510   90.1151 C   0  0  0  0  0  0  0  0  0  0  0  0
   38.1944   78.8974   90.7843 C   0  0  0  0  0  0  0  0  0  0  0  0
   39.2130   78.2811   91.0890 O   0  0  0  0  0  0  0  0  0  0  0  0
   36.9571   78.3699   91.0295 N   0  0  0  0  0  0  0  0  0  0  0  0
   37.6979   83.4939   88.9948 N   0  0  0  0  0  0  0  0  0  0  0  0
   36.8121   84.5398   89.5005 C   0  0  2  0  0  0  0  0  0  0  0  0
   36.5983   85.5984   88.4072 C   0  0  0  0  0  0  0  0  0  0  0  0
   37.1341   86.7051   88.4124 O   0  0  0  0  0  0  0  0  0  0  0  0
   37.3857   85.2323   90.7498 C   0  0  0  0  0  0  0  0  0  0  0  0
   38.8391   84.8946   91.0952 C   0  0  0  0  0  0  0  0  0  0  0  0
   39.0063   83.7790   92.1256 C   0  0  0  0  0  0  0  0  0  0  0  0
   37.9296   83.8435   93.1049 N   0  0  0  0  0  0  0  0  0  0  0  0
   37.9021   83.0002   94.1646 C   0  0  0  0  0  0  0  0  0  0  0  0
   38.5846   83.1507   95.2344 N   0  0  0  0  0  0  0  0  0  0  0  0
   37.1515   81.9111   93.9175 N   0  0  0  0  0  0  0  0  0  0  0  0
   64.1834   80.9557   97.8460 H   0  0  0  0  0  0  0  0  0  0  0  0
   47.4943   74.4931   96.6731 H   0  0  0  0  0  0  0  0  0  0  0  0
   39.0089   84.0856   95.2213 H   0  0  0  0  0  0  0  0  0  0  0  0
  2  1  1  0
  3  2  1  0
  2  5  1  1
  3  4  2  0
  6  3  1  0
  7  6  1  0
  8  7  1  0
  7 10  1  6
  8  9  2  0
 17  8  1  0
 10 11  1  0
 11 12  1  0
 12 13  1  0
 13 14  1  0
 14 15  1  0
 14 16  2  0
 18 17  1  0
 19 18  1  0
 18 21  1  1
 19 20  2  0
 29 19  1  0
 21 22  1  0
 22 23  2  0
 22 24  1  0
 23 25  1  0
 24 26  2  0
 25 27  2  0
 26 27  1  0
 27 28  1  0
 30 29  1  0
 31 30  1  0
 30 33  1  6
 31 32  2  0
 35 31  1  0
 33 34  1  0
 36 35  1  0
 37 36  1  0
 36 39  1  1
 37 38  2  0
 46 37  1  0
 39 40  1  0
 40 41  1  0
 41 42  1  0
 42 43  1  0
 43 44  2  0
 43 45  1  0
 47 46  1  0
 48 47  1  0
 47 50  1  1
 48 49  2  0
 55 48  1  0
 50 51  1  0
 51 52  1  0
 52 53  1  0
 52 54  2  0
 56 55  1  0
 57 56  1  0
 56 59  1  6
 57 58  2  0
 64 57  1  0
 59 60  1  0
 60 61  1  0
 61 62  2  0
 61 63  1  0
 65 64  1  0
 66 65  1  0
 65 68  1  6
 66 67  2  0
 72 66  1  0
 68 69  1  0
 69 70  1  6
 69 71  1  0
 73 72  1  0
 74 73  1  0
 73 76  1  1
 74 75  2  0
 81 74  1  0
 76 77  1  0
 77 78  1  6
 77 79  1  0
 80 82  2  0
 83 80  1  0
 80 89  1  0
 83 81  1  0
 84 83  1  0
 83 88  1  1
 87 84  1  0
 85 86  1  0
 85 87  1  0
 89 90  1  0
 90 91  1  0
 90 93  1  6
 91 92  2  0
 91100  1  0
 93 94  1  0
 94 95  2  0
 94 96  1  0
 95 97  1  0
 96 98  2  0
 97 99  2  0
 98 99  1  0
100101  1  0
101102  1  0
101104  1  1
102103  2  0
102109  1  0
104105  1  0
105106  1  0
106107  2  0
106108  1  0
109110  1  0
110111  1  0
110113  1  1
111112  2  0
113114  1  0
114115  1  0
115116  1  0
116117  1  0
117118  2  0
117119  1  0
 16120  1  0
 44121  1  0
118122  1  0
M  CHG  1   1   1
M  END
$$$$
