
     RDKit          3D

122123  0  0  0  0  0  0  0  0999 V2000
   59.5374   76.5129   94.3639 N   0  0  0  0  0  4  0  0  0  0  0  0
   58.2962   77.0752   94.9896 C   0  0  2  0  0  0  0  0  0  0  0  0
   57.7077   78.1310   94.0468 C   0  0  0  0  0  0  0  0  0  0  0  0
   58.1136   79.2911   94.1180 O   0  0  0  0  0  0  0  0  0  0  0  0
   58.6510   77.6965   96.3276 C   0  0  0  0  0  0  0  0  0  0  0  0
   56.7871   77.6750   93.1253 N   0  0  0  0  0  0  0  0  0  0  0  0
   56.2380   78.6079   92.1257 C   0  0  2  0  0  0  0  0  0  0  0  0
   54.8986   77.9567   91.6681 C   0  0  0  0  0  0  0  0  0  0  0  0
   54.5732   76.8426   92.0877 O   0  0  0  0  0  0  0  0  0  0  0  0
   57.1999   78.9969   90.9959 C   0  0  0  0  0  0  0  0  0  0  0  0
   57.9200   77.8294   90.3060 C   0  0  0  0  0  0  0  0  0  0  0  0
   57.7958   76.4801   91.0132 C   0  0  0  0  0  0  0  0  0  0  0  0
   58.3764   75.4165   90.2149 N   0  0  0  0  0  0  0  0  0  0  0  0
   58.0831   74.1160   90.4104 C   0  0  0  0  0  0  0  0  0  0  0  0
   58.6092   73.3400   89.4395 N   0  0  0  0  0  0  0  0  0  0  0  0
   57.3900   73.5704   91.3345 N   0  0  0  0  0  0  0  0  0  0  0  0
   54.0889   78.7078   90.8474 N   0  0  0  0  0  0  0  0  0  0  0  0
   52.6187   78.5323   90.8120 C   0  0  2  0  0  0  0  0  0  0  0  0
   51.9835   79.5485   89.8198 C   0  0  0  0  0  0  0  0  0  0  0  0
   52.5056   80.6157   89.5076 O   0  0  0  0  0  0  0  0  0  0  0  0
   51.8988   78.5737   92.1788 C   0  0  0  0  0  0  0  0  0  0  0  0
   50.3824   78.5825   92.1487 C   0  0  0  0  0  0  0  0  0  0  0  0
   49.7037   77.5428   91.4926 C   0  0  0  0  0  0  0  0  0  0  0  0
   49.6252   79.6376   92.6789 C   0  0  0  0  0  0  0  0  0  0  0  0
   48.3117   77.5437   91.3951 C   0  0  0  0  0  0  0  0  0  0  0  0
   48.2285   79.6314   92.6027 C   0  0  0  0  0  0  0  0  0  0  0  0
   47.5824   78.5773   91.9626 C   0  0  0  0  0  0  0  0  0  0  0  0
   46.2238   78.5227   91.8661 O   0  0  0  0  0  0  0  0  0  0  0  0
   50.7409   79.1778   89.3648 N   0  0  0  0  0  0  0  0  0  0  0  0
   50.0264   79.8210   88.2754 C   0  0  2  0  0  0  0  0  0  0  0  0
   48.7039   80.3284   88.8720 C   0  0  0  0  0  0  0  0  0  0  0  0
   48.0877   81.2532   88.3511 O   0  0  0  0  0  0  0  0  0  0  0  0
   49.7421   78.7874   87.1823 C   0  0  0  0  0  0  0  0  0  0  0  0
   49.5412   77.4731   87.7336 O   0  0  0  0  0  0  0  0  0  0  0  0
   48.2812   79.6170   89.9695 N   0  0  0  0  0  0  0  0  0  0  0  0
   46.9335   79.6838   90.5528 C   0  0  2  0  0  0  0  0  0  0  0  0
   46.9927   80.6228   91.7773 C   0  0  0  0  0  0  0  0  0  0  0  0
   46.0363   80.8234   92.5226 O   0  0  0  0  0  0  0  0  0  0  0  0
   46.1649   78.3836   90.8296 C   0  0  0  0  0  0  0  0  0  0  0  0
   46.8834   77.1167   90.3474 C   0  0  0  0  0  0  0  0  0  0  0  0
   46.2427   75.8110   90.8185 C   0  0  0  0  0  0  0  0  0  0  0  0
   47.0019   74.6598   90.3486 N   0  0  0  0  0  0  0  0  0  0  0  0
   46.7811   73.4148   90.8247 C   0  0  0  0  0  0  0  0  0  0  0  0
   46.5962   73.1200   92.0565 N   0  0  0  0  0  0  0  0  0  0  0  0
   46.8193   72.4945   89.8388 N   0  0  0  0  0  0  0  0  0  0  0  0
   48.2544   81.1266   92.0375 N   0  0  0  0  0  0  0  0  0  0  0  0
   48.3941   82.3103   92.8784 C   0  0  2  0  0  0  0  0  0  0  0  0
   47.8474   83.5754   92.2060 C   0  0  0  0  0  0  0  0  0  0  0  0
   48.0353   84.7133   92.6360 O   0  0  0  0  0  0  0  0  0  0  0  0
   49.8310   82.4618   93.4067 C   0  0  0  0  0  0  0  0  0  0  0  0
   50.6459   81.1710   93.4708 C   0  0  0  0  0  0  0  0  0  0  0  0
   51.9334   81.4283   94.1989 C   0  0  0  0  0  0  0  0  0  0  0  0
   52.9892   81.5175   93.3734 O   0  0  0  0  0  0  0  0  0  0  0  0
   52.0457   81.6011   95.4017 O   0  0  0  0  0  0  0  0  0  0  0  0
   47.1165   83.3230   91.0661 N   0  0  0  0  0  0  0  0  0  0  0  0
   46.3794   84.3950   90.3969 C   0  0  2  0  0  0  0  0  0  0  0  0
   44.8723   84.0208   90.3504 C   0  0  0  0  0  0  0  0  0  0  0  0
   44.0634   84.6328   89.6583 O   0  0  0  0  0  0  0  0  0  0  0  0
   46.8633   84.6166   88.9592 C   0  0  0  0  0  0  0  0  0  0  0  0
   46.9025   83.3303   88.1407 C   0  0  0  0  0  0  0  0  0  0  0  0
   47.7393   83.4471   86.8807 C   0  0  0  0  0  0  0  0  0  0  0  0
   47.3457   83.1672   85.7521 O   0  0  0  0  0  0  0  0  0  0  0  0
   48.9917   83.9443   87.0859 N   0  0  0  0  0  0  0  0  0  0  0  0
   44.5572   82.8393   91.0006 N   0  0  0  0  0  0  0  0  0  0  0  0
   43.2257   82.2440   90.8749 C   0  0  2  0  0  0  0  0  0  0  0  0
   42.8246   81.8117   92.3120 C   0  0  0  0  0  0  0  0  0  0  0  0
   41.6472   81.5863   92.6115 O   0  0  0  0  0  0  0  0  0  0  0  0
   43.2332   81.0741   89.8821 C   0  0  0  0  0  0  0  0  0  0  0  0
   42.2468   81.2561   88.6995 C   0  0  1  0  0  0  0  0  0  0  0  0
   42.6146   82.4246   87.7821 C   0  0  0  0  0  0  0  0  0  0  0  0
   42.1815   79.9786   87.8573 C   0  0  0  0  0  0  0  0  0  0  0  0
   43.8440   81.6241   93.2282 N   0  0  0  0  0  0  0  0  0  0  0  0
   43.4924   81.2687   94.6173 C   0  0  2  0  0  0  0  0  0  0  0  0
   43.3177   82.4529   95.5969 C   0  0  0  0  0  0  0  0  0  0  0  0
   43.1984   82.2839   96.8091 O   0  0  0  0  0  0  0  0  0  0  0  0
   44.4380   80.1815   95.1664 C   0  0  0  0  0  0  0  0  0  0  0  0
   44.7047   78.9353   94.2922 C   0  0  1  0  0  0  0  0  0  0  0  0
   45.7956   78.0854   94.9544 C   0  0  0  0  0  0  0  0  0  0  0  0
   43.4796   78.0593   94.0452 C   0  0  0  0  0  0  0  0  0  0  0  0
   44.5949   85.6788   95.7797 C   0  0  0  0  0  0  0  0  0  0  0  0
   43.3837   83.7009   95.0175 N   0  0  0  0  0  0  0  0  0  0  0  0
   44.7030   86.8884   96.0295 O   0  0  0  0  0  0  0  0  0  0  0  0
   43.2022   84.9759   95.7553 C   0  0  1  0  0  0  0  0  0  0  0  0
   42.8206   84.5749   97.2162 C   0  0  0  0  0  0  0  0  0  0  0  0
   42.7412   82.8120   99.0377 C   0  0  0  0  0  0  0  0  0  0  0  0
   42.4792   81.3344   99.2855 C   0  0  0  0  0  0  0  0  0  0  0  0
   43.0038   83.0878   97.5563 C   0  0  0  0  0  0  0  0  0  0  0  0
   42.0776   85.8519   95.1768 C   0  0  0  0  0  0  0  0  0  0  0  0
   45.7101   84.8745   95.6808 N   0  0  0  0  0  0  0  0  0  0  0  0
   47.0368   85.4379   95.4340 C   0  0  2  0  0  0  0  0  0  0  0  0
   46.8978   86.7011   94.5499 C   0  0  0  0  0  0  0  0  0  0  0  0
   47.3101   87.8034   94.9296 O   0  0  0  0  0  0  0  0  0  0  0  0
   48.0411   84.3869   94.9290 C   0  0  0  0  0  0  0  0  0  0  0  0
   48.8882   83.7853   96.0319 C   0  0  0  0  0  0  0  0  0  0  0  0
   49.5963   82.5947   95.8274 C   0  0  0  0  0  0  0  0  0  0  0  0
   48.9749   84.4030   97.2882 C   0  0  0  0  0  0  0  0  0  0  0  0
   50.3571   82.0236   96.8476 C   0  0  0  0  0  0  0  0  0  0  0  0
   49.7231   83.8235   98.3140 C   0  0  0  0  0  0  0  0  0  0  0  0
   50.4109   82.6355   98.0961 C   0  0  0  0  0  0  0  0  0  0  0  0
   46.2274   86.5549   93.3619 N   0  0  0  0  0  0  0  0  0  0  0  0
   46.1162   87.6295   92.3809 C   0  0  2  0  0  0  0  0  0  0  0  0
   45.4533   88.8433   93.0548 C   0  0  0  0  0  0  0  0  0  0  0  0
   46.0987   89.8303   93.4151 O   0  0  0  0  0  0  0  0  0  0  0  0
   45.3261   87.1919   91.1384 C   0  0  0  0  0  0  0  0  0  0  0  0
   46.1376   87.3426   89.8496 C   0  0  0  0  0  0  0  0  0  0  0  0
   45.7367   88.5754   89.0749 C   0  0  0  0  0  0  0  0  0  0  0  0
   46.4878   89.2146   88.3419 O   0  0  0  0  0  0  0  0  0  0  0  0
   44.4379   88.9623   89.2554 N   0  0  0  0  0  0  0  0  0  0  0  0
   44.0902   88.7260   93.2481 N   0  0  0  0  0  0  0  0  0  0  0  0
   43.3521   89.7818   93.9370 C   0  0  2  0  0  0  0  0  0  0  0  0
   44.1270   90.2079   95.1938 C   0  0  0  0  0  0  0  0  0  0  0  0
   43.7827   91.1308   95.9296 O   0  0  0  0  0  0  0  0  0  0  0  0
   41.9439   89.3252   94.3589 C   0  0  0  0  0  0  0  0  0  0  0  0
   41.2881   88.2659   93.4682 C   0  0  0  0  0  0  0  0  0  0  0  0
   39.9556   87.7309   93.9901 C   0  0  0  0  0  0  0  0  0  0  0  0
   39.3777   86.8095   93.0209 N   0  0  0  0  0  0  0  0  0  0  0  0
   38.1594   86.2552   93.2291 C   0  0  0  0  0  0  0  0  0  0  0  0
   37.7567   85.7763   94.3432 N   0  0  0  0  0  0  0  0  0  0  0  0
   37.4514   86.1613   92.0886 N   0  0  0  0  0  0  0  0  0  0  0  0
   56.8782   74.2784   91.8605 H   0  0  0  0  0  0  0  0  0  0  0  0
   45.8719   73.7200   92.4520 H   0  0  0  0  0  0  0  0  0  0  0  0
   38.3644   86.1332   95.0899 H   0  0  0  0  0  0  0  0  0  0  0  0
  2  1  1  0
  3  2  1  0
  2  5  1  1
  3  4  2  0
  6  3  1  0
  7  6  1  0
  8  7  1  0
  7 10  1  6
  8  9  2  0
 17  8  1  0
 10 11  1  0
 11 12  1  0
 12 13  1  0
 13 14  1  0
 14 15  1  0
 14 16  2  0
 18 17  1  0
 19 18  1  0
 18 21  1  1
 19 20  2  0
 29 19  1  0
 21 22  1  0
 22 23  2  0
 22 24  1  0
 23 25  1  0
 24 26  2  0
 25 27  2  0
 26 27  1  0
 27 28  1  0
 30 29  1  0
 31 30  1  0
 30 33  1  6
 31 32  2  0
 35 31  1  0
 33 34  1  0
 36 35  1  0
 37 36  1  0
 36 39  1  1
 37 38  2  0
 46 37  1  0
 39 40  1  0
 40 41  1  0
 41 42  1  0
 42 43  1  0
 43 44  2  0
 43 45  1  0
 47 46  1  0
 48 47  1  0
 47 50  1  6
 48 49  2  0
 55 48  1  0
 50 51  1  0
 51 52  1  0
 52 53  1  0
 52 54  2  0
 56 55  1  0
 57 56  1  0
 56 59  1  6
 57 58  2  0
 64 57  1  0
 59 60  1  0
 60 61  1  0
 61 62  2  0
 61 63  1  0
 65 64  1  0
 66 65  1  0
 65 68  1  6
 66 67  2  0
 72 66  1  0
 68 69  1  0
 69 70  1  6
 69 71  1  0
 73 72  1  0
 74 73  1  0
 73 76  1  1
 74 75  2  0
 81 74  1  0
 76 77  1  0
 77 78  1  1
 77 79  1  0
 80 82  2  0
 83 80  1  0
 80 89  1  0
 83 81  1  0
 84 83  1  0
 83 88  1  6
 87 84  1  0
 85 86  1  0
 85 87  1  0
 89 90  1  0
 90 91  1  0
 90 93  1  6
 91 92  2  0
 91100  1  0
 93 94  1  0
 94 95  2  0
 94 96  1  0
 95 97  1  0
 96 98  2  0
 97 99  2  0
 98 99  1  0
100101  1  0
101102  1  0
101104  1  6
102103  2  0
102109  1  0
104105  1  0
105106  1  0
106107  2  0
106108  1  0
109110  1  0
110111  1  0
110113  1  1
111112  2  0
113114  1  0
114115  1  0
115116  1  0
116117  1  0
117118  2  0
117119  1  0
 16120  1  0
 44121  1  0
118122  1  0
M  CHG  1   1   1
M  END
$$$$
