
     RDKit          3D

122123  0  0  0  0  0  0  0  0999 V2000
   61.4649   75.8467   94.2804 N   0  0  0  0  0  4  0  0  0  0  0  0
   60.8718   74.5009   93.9889 C   0  0  2  0  0  0  0  0  0  0  0  0
   59.5027   74.7017   93.3291 C   0  0  0  0  0  0  0  0  0  0  0  0
   59.4023   75.4822   92.3823 O   0  0  0  0  0  0  0  0  0  0  0  0
   60.7277   73.7289   95.2870 C   0  0  0  0  0  0  0  0  0  0  0  0
   58.4729   73.9260   93.8218 N   0  0  0  0  0  0  0  0  0  0  0  0
   57.1377   74.0162   93.2052 C   0  0  2  0  0  0  0  0  0  0  0  0
   56.5356   75.3443   93.7537 C   0  0  0  0  0  0  0  0  0  0  0  0
   56.8051   75.7242   94.8966 O   0  0  0  0  0  0  0  0  0  0  0  0
   56.2538   72.7739   93.3744 C   0  0  0  0  0  0  0  0  0  0  0  0
   56.8795   71.6171   94.1666 C   0  0  0  0  0  0  0  0  0  0  0  0
   55.9071   70.8299   95.0449 C   0  0  0  0  0  0  0  0  0  0  0  0
   56.5321   70.4380   96.2945 N   0  0  0  0  0  0  0  0  0  0  0  0
   55.8229   70.1249   97.3966 C   0  0  0  0  0  0  0  0  0  0  0  0
   55.3048   71.2265   97.9796 N   0  0  0  0  0  0  0  0  0  0  0  0
   55.6173   68.9835   97.9323 N   0  0  0  0  0  0  0  0  0  0  0  0
   55.7646   76.0839   92.8866 N   0  0  0  0  0  0  0  0  0  0  0  0
   54.9779   77.2569   93.3323 C   0  0  2  0  0  0  0  0  0  0  0  0
   53.4980   76.8450   93.5780 C   0  0  0  0  0  0  0  0  0  0  0  0
   53.1310   75.6850   93.7476 O   0  0  0  0  0  0  0  0  0  0  0  0
   55.0585   78.5087   92.4297 C   0  0  0  0  0  0  0  0  0  0  0  0
   56.3642   78.7314   91.6907 C   0  0  0  0  0  0  0  0  0  0  0  0
   56.5730   79.9467   91.0188 C   0  0  0  0  0  0  0  0  0  0  0  0
   57.3444   77.7344   91.5778 C   0  0  0  0  0  0  0  0  0  0  0  0
   57.7369   80.1684   90.2818 C   0  0  0  0  0  0  0  0  0  0  0  0
   58.5225   77.9606   90.8583 C   0  0  0  0  0  0  0  0  0  0  0  0
   58.7100   79.1828   90.2183 C   0  0  0  0  0  0  0  0  0  0  0  0
   59.8421   79.4536   89.5091 O   0  0  0  0  0  0  0  0  0  0  0  0
   52.6130   77.8950   93.5242 N   0  0  0  0  0  0  0  0  0  0  0  0
   51.1781   77.7864   93.7251 C   0  0  2  0  0  0  0  0  0  0  0  0
   50.6229   79.2162   93.6251 C   0  0  0  0  0  0  0  0  0  0  0  0
   51.3502   80.1909   93.7900 O   0  0  0  0  0  0  0  0  0  0  0  0
   50.9084   77.2194   95.1215 C   0  0  0  0  0  0  0  0  0  0  0  0
   51.7948   77.7848   96.1045 O   0  0  0  0  0  0  0  0  0  0  0  0
   49.2926   79.2724   93.2838 N   0  0  0  0  0  0  0  0  0  0  0  0
   48.5904   80.4750   92.8133 C   0  0  2  0  0  0  0  0  0  0  0  0
   48.1670   81.2925   94.0531 C   0  0  0  0  0  0  0  0  0  0  0  0
   48.3394   80.9082   95.2077 O   0  0  0  0  0  0  0  0  0  0  0  0
   47.4689   80.3367   91.7735 C   0  0  0  0  0  0  0  0  0  0  0  0
   46.0644   80.2187   92.3794 C   0  0  0  0  0  0  0  0  0  0  0  0
   45.8024   78.9021   93.1109 C   0  0  0  0  0  0  0  0  0  0  0  0
   44.5784   78.2748   92.6306 N   0  0  0  0  0  0  0  0  0  0  0  0
   43.3562   78.7078   93.0106 C   0  0  0  0  0  0  0  0  0  0  0  0
   42.4169   77.9616   93.4569 N   0  0  0  0  0  0  0  0  0  0  0  0
   43.2225   80.0373   92.8233 N   0  0  0  0  0  0  0  0  0  0  0  0
   47.6864   82.5549   93.7555 N   0  0  0  0  0  0  0  0  0  0  0  0
   47.6469   83.5717   94.8006 C   0  0  2  0  0  0  0  0  0  0  0  0
   48.3875   84.8535   94.4004 C   0  0  0  0  0  0  0  0  0  0  0  0
   49.6009   85.0111   94.5328 O   0  0  0  0  0  0  0  0  0  0  0  0
   48.0866   83.0018   96.1603 C   0  0  0  0  0  0  0  0  0  0  0  0
   49.3896   82.2040   96.1468 C   0  0  0  0  0  0  0  0  0  0  0  0
   50.0882   82.4102   94.8339 C   0  0  0  0  0  0  0  0  0  0  0  0
   51.2317   81.7123   94.7377 O   0  0  0  0  0  0  0  0  0  0  0  0
   49.6700   83.0838   93.9062 O   0  0  0  0  0  0  0  0  0  0  0  0
   47.5646   85.8256   93.8758 N   0  0  0  0  0  0  0  0  0  0  0  0
   47.9024   86.4939   92.6191 C   0  0  2  0  0  0  0  0  0  0  0  0
   46.7611   86.2503   91.5934 C   0  0  0  0  0  0  0  0  0  0  0  0
   46.2038   87.1689   90.9988 O   0  0  0  0  0  0  0  0  0  0  0  0
   49.2091   85.9636   92.0175 C   0  0  0  0  0  0  0  0  0  0  0  0
   50.4475   86.6353   92.6017 C   0  0  0  0  0  0  0  0  0  0  0  0
   51.2056   85.7519   93.5746 C   0  0  0  0  0  0  0  0  0  0  0  0
   50.8639   84.6192   93.9019 O   0  0  0  0  0  0  0  0  0  0  0  0
   52.3597   86.3026   94.0464 N   0  0  0  0  0  0  0  0  0  0  0  0
   46.5569   84.9188   91.2722 N   0  0  0  0  0  0  0  0  0  0  0  0
   46.9649   84.3883   89.9703 C   0  0  2  0  0  0  0  0  0  0  0  0
   46.5159   82.9012   89.9664 C   0  0  0  0  0  0  0  0  0  0  0  0
   47.2878   81.9964   89.6315 O   0  0  0  0  0  0  0  0  0  0  0  0
   48.4747   84.5543   89.7527 C   0  0  0  0  0  0  0  0  0  0  0  0
   49.3167   83.3807   90.3170 C   0  0  1  0  0  0  0  0  0  0  0  0
   49.7863   83.6124   91.7551 C   0  0  0  0  0  0  0  0  0  0  0  0
   48.5135   82.0774   90.2719 C   0  0  0  0  0  0  0  0  0  0  0  0
   45.2379   82.6209   90.4158 N   0  0  0  0  0  0  0  0  0  0  0  0
   44.0870   83.0917   89.6198 C   0  0  2  0  0  0  0  0  0  0  0  0
   42.8924   82.1151   89.5117 C   0  0  0  0  0  0  0  0  0  0  0  0
   42.7369   81.1855   90.3015 O   0  0  0  0  0  0  0  0  0  0  0  0
   44.5443   83.6212   88.2458 C   0  0  0  0  0  0  0  0  0  0  0  0
   43.6429   83.3485   87.0205 C   0  0  1  0  0  0  0  0  0  0  0  0
   44.1449   84.1827   85.8361 C   0  0  0  0  0  0  0  0  0  0  0  0
   43.5733   81.8838   86.5972 C   0  0  0  0  0  0  0  0  0  0  0  0
   39.8499   82.5824   89.6888 C   0  0  0  0  0  0  0  0  0  0  0  0
   41.9858   82.4138   88.5185 N   0  0  0  0  0  0  0  0  0  0  0  0
   38.8694   82.0432   90.2227 O   0  0  0  0  0  0  0  0  0  0  0  0
   40.5876   81.9169   88.4857 C   0  0  1  0  0  0  0  0  0  0  0  0
   40.6736   80.3784   88.7431 C   0  0  0  0  0  0  0  0  0  0  0  0
   42.9158   80.6905   87.6000 C   0  0  0  0  0  0  0  0  0  0  0  0
   44.0054   79.9426   86.8471 C   0  0  0  0  0  0  0  0  0  0  0  0
   42.0152   79.7266   88.3743 C   0  0  0  0  0  0  0  0  0  0  0  0
   39.8967   82.1504   87.1312 C   0  0  0  0  0  0  0  0  0  0  0  0
   40.4290   83.7041   90.2424 N   0  0  0  0  0  0  0  0  0  0  0  0
   40.0742   85.0482   89.7881 C   0  0  2  0  0  0  0  0  0  0  0  0
   41.2777   85.6660   89.0355 C   0  0  0  0  0  0  0  0  0  0  0  0
   42.2366   86.1563   89.6432 O   0  0  0  0  0  0  0  0  0  0  0  0
   39.4840   85.9162   90.9133 C   0  0  0  0  0  0  0  0  0  0  0  0
   38.4875   85.1774   91.7835 C   0  0  0  0  0  0  0  0  0  0  0  0
   37.9038   85.7977   92.8951 C   0  0  0  0  0  0  0  0  0  0  0  0
   38.1335   83.8501   91.5007 C   0  0  0  0  0  0  0  0  0  0  0  0
   37.0053   85.1135   93.7137 C   0  0  0  0  0  0  0  0  0  0  0  0
   37.2468   83.1602   92.3289 C   0  0  0  0  0  0  0  0  0  0  0  0
   36.6853   83.7886   93.4342 C   0  0  0  0  0  0  0  0  0  0  0  0
   41.1941   85.7137   87.6669 N   0  0  0  0  0  0  0  0  0  0  0  0
   42.1962   86.3748   86.8374 C   0  0  2  0  0  0  0  0  0  0  0  0
   42.4620   85.5021   85.5986 C   0  0  0  0  0  0  0  0  0  0  0  0
   42.6590   84.2875   85.6789 O   0  0  0  0  0  0  0  0  0  0  0  0
   43.4964   86.6400   87.6113 C   0  0  0  0  0  0  0  0  0  0  0  0
   43.9363   88.1034   87.5264 C   0  0  0  0  0  0  0  0  0  0  0  0
   45.4088   88.2648   87.8198 C   0  0  0  0  0  0  0  0  0  0  0  0
   46.0076   89.3379   87.8192 O   0  0  0  0  0  0  0  0  0  0  0  0
   46.0668   87.0958   88.0840 N   0  0  0  0  0  0  0  0  0  0  0  0
   42.4905   86.1897   84.4006 N   0  0  0  0  0  0  0  0  0  0  0  0
   41.2703   86.3433   83.6121 C   0  0  2  0  0  0  0  0  0  0  0  0
   40.4732   87.5478   84.1371 C   0  0  0  0  0  0  0  0  0  0  0  0
   40.1568   88.5132   83.4444 O   0  0  0  0  0  0  0  0  0  0  0  0
   40.3741   85.0936   83.6798 C   0  0  0  0  0  0  0  0  0  0  0  0
   39.1489   85.1965   84.5930 C   0  0  0  0  0  0  0  0  0  0  0  0
   37.8171   84.8926   83.9088 C   0  0  0  0  0  0  0  0  0  0  0  0
   37.8896   83.6036   83.2338 N   0  0  0  0  0  0  0  0  0  0  0  0
   37.1676   83.3642   82.1130 C   0  0  0  0  0  0  0  0  0  0  0  0
   35.8915   83.3171   82.0634 N   0  0  0  0  0  0  0  0  0  0  0  0
   37.9564   83.0656   81.0645 N   0  0  0  0  0  0  0  0  0  0  0  0
   55.9652   68.2392   97.3283 H   0  0  0  0  0  0  0  0  0  0  0  0
   41.9733   78.4057   94.2613 H   0  0  0  0  0  0  0  0  0  0  0  0
   35.5145   83.9018   82.8185 H   0  0  0  0  0  0  0  0  0  0  0  0
  2  1  1  0
  3  2  1  0
  2  5  1  1
  3  4  2  0
  6  3  1  0
  7  6  1  0
  8  7  1  0
  7 10  1  1
  8  9  2  0
 17  8  1  0
 10 11  1  0
 11 12  1  0
 12 13  1  0
 13 14  1  0
 14 15  1  0
 14 16  2  0
 18 17  1  0
 19 18  1  0
 18 21  1  6
 19 20  2  0
 29 19  1  0
 21 22  1  0
 22 23  2  0
 22 24  1  0
 23 25  1  0
 24 26  2  0
 25 27  2  0
 26 27  1  0
 27 28  1  0
 30 29  1  0
 31 30  1  0
 30 33  1  1
 31 32  2  0
 35 31  1  0
 33 34  1  0
 36 35  1  0
 37 36  1  0
 36 39  1  1
 37 38  2  0
 46 37  1  0
 39 40  1  0
 40 41  1  0
 41 42  1  0
 42 43  1  0
 43 44  2  0
 43 45  1  0
 47 46  1  0
 48 47  1  0
 47 50  1  1
 48 49  2  0
 55 48  1  0
 50 51  1  0
 51 52  1  0
 52 53  1  0
 52 54  2  0
 56 55  1  0
 57 56  1  0
 56 59  1  6
 57 58  2  0
 64 57  1  0
 59 60  1  0
 60 61  1  0
 61 62  2  0
 61 63  1  0
 65 64  1  0
 66 65  1  0
 65 68  1  1
 66 67  2  0
 72 66  1  0
 68 69  1  0
 69 70  1  1
 69 71  1  0
 73 72  1  0
 74 73  1  0
 73 76  1  6
 74 75  2  0
 81 74  1  0
 76 77  1  0
 77 78  1  6
 77 79  1  0
 80 82  2  0
 83 80  1  0
 80 89  1  0
 83 81  1  0
 84 83  1  0
 83 88  1  6
 87 84  1  0
 85 86  1  0
 85 87  1  0
 89 90  1  0
 90 91  1  0
 90 93  1  1
 91 92  2  0
 91100  1  0
 93 94  1  0
 94 95  2  0
 94 96  1  0
 95 97  1  0
 96 98  2  0
 97 99  2  0
 98 99  1  0
100101  1  0
101102  1  0
101104  1  1
102103  2  0
102109  1  0
104105  1  0
105106  1  0
106107  2  0
106108  1  0
109110  1  0
110111  1  0
110113  1  1
111112  2  0
113114  1  0
114115  1  0
115116  1  0
116117  1  0
117118  2  0
117119  1  0
 16120  1  0
 44121  1  0
118122  1  0
M  CHG  1   1   1
M  END
$$$$
