
     RDKit          3D

122123  0  0  0  0  0  0  0  0999 V2000
   49.6091   79.5295   97.7344 N   0  0  0  0  0  4  0  0  0  0  0  0
   50.1326   78.1781   97.3498 C   0  0  2  0  0  0  0  0  0  0  0  0
   51.4907   78.3568   96.6617 C   0  0  0  0  0  0  0  0  0  0  0  0
   51.5315   78.4703   95.4365 O   0  0  0  0  0  0  0  0  0  0  0  0
   49.1451   77.5107   96.4109 C   0  0  0  0  0  0  0  0  0  0  0  0
   52.5868   78.4393   97.4963 N   0  0  0  0  0  0  0  0  0  0  0  0
   53.9320   78.1771   96.9553 C   0  0  2  0  0  0  0  0  0  0  0  0
   54.1790   79.3247   95.9310 C   0  0  0  0  0  0  0  0  0  0  0  0
   53.5070   80.3587   95.9813 O   0  0  0  0  0  0  0  0  0  0  0  0
   54.1563   76.7574   96.4192 C   0  0  0  0  0  0  0  0  0  0  0  0
   55.5468   76.4830   95.8288 C   0  0  0  0  0  0  0  0  0  0  0  0
   56.1292   75.1067   96.1499 C   0  0  0  0  0  0  0  0  0  0  0  0
   55.0920   74.1884   96.5814 N   0  0  0  0  0  0  0  0  0  0  0  0
   55.0097   73.7237   97.8436 C   0  0  0  0  0  0  0  0  0  0  0  0
   54.7793   74.7214   98.7229 N   0  0  0  0  0  0  0  0  0  0  0  0
   55.1397   72.5297   98.2788 N   0  0  0  0  0  0  0  0  0  0  0  0
   55.2107   79.1512   95.0373 N   0  0  0  0  0  0  0  0  0  0  0  0
   55.9440   80.2935   94.4449 C   0  0  2  0  0  0  0  0  0  0  0  0
   55.3713   80.6227   93.0364 C   0  0  0  0  0  0  0  0  0  0  0  0
   55.8104   81.5116   92.3112 O   0  0  0  0  0  0  0  0  0  0  0  0
   57.4826   80.1582   94.3960 C   0  0  0  0  0  0  0  0  0  0  0  0
   58.2135   81.0569   93.4169 C   0  0  0  0  0  0  0  0  0  0  0  0
   58.4019   80.6211   92.0954 C   0  0  0  0  0  0  0  0  0  0  0  0
   58.7882   82.2776   93.8008 C   0  0  0  0  0  0  0  0  0  0  0  0
   59.1170   81.3941   91.1798 C   0  0  0  0  0  0  0  0  0  0  0  0
   59.4869   83.0659   92.8803 C   0  0  0  0  0  0  0  0  0  0  0  0
   59.6411   82.6164   91.5717 C   0  0  0  0  0  0  0  0  0  0  0  0
   60.3090   83.3495   90.6366 O   0  0  0  0  0  0  0  0  0  0  0  0
   54.2753   79.8684   92.6923 N   0  0  0  0  0  0  0  0  0  0  0  0
   53.5685   79.9550   91.4258 C   0  0  2  0  0  0  0  0  0  0  0  0
   52.1896   79.3180   91.6612 C   0  0  0  0  0  0  0  0  0  0  0  0
   51.7362   78.4840   90.8833 O   0  0  0  0  0  0  0  0  0  0  0  0
   54.3362   79.1588   90.3672 C   0  0  0  0  0  0  0  0  0  0  0  0
   54.6457   77.8293   90.8236 O   0  0  0  0  0  0  0  0  0  0  0  0
   51.5806   79.7269   92.8237 N   0  0  0  0  0  0  0  0  0  0  0  0
   50.3637   79.1323   93.3951 C   0  0  2  0  0  0  0  0  0  0  0  0
   49.6011   80.2442   94.1479 C   0  0  0  0  0  0  0  0  0  0  0  0
   48.5423   80.0547   94.7425 O   0  0  0  0  0  0  0  0  0  0  0  0
   50.4656   77.8260   94.1959 C   0  0  0  0  0  0  0  0  0  0  0  0
   50.7302   78.0285   95.6934 C   0  0  0  0  0  0  0  0  0  0  0  0
   50.1406   76.9399   96.5903 C   0  0  0  0  0  0  0  0  0  0  0  0
   49.5126   75.8937   95.7944 N   0  0  0  0  0  0  0  0  0  0  0  0
   50.2211   74.8657   95.2777 C   0  0  0  0  0  0  0  0  0  0  0  0
   49.8390   73.6442   95.2597 N   0  0  0  0  0  0  0  0  0  0  0  0
   51.4187   75.2759   94.8109 N   0  0  0  0  0  0  0  0  0  0  0  0
   50.2758   81.4505   94.2006 N   0  0  0  0  0  0  0  0  0  0  0  0
   49.5163   82.6944   94.2633 C   0  0  2  0  0  0  0  0  0  0  0  0
   49.2358   83.2811   92.8745 C   0  0  0  0  0  0  0  0  0  0  0  0
   48.5969   84.3161   92.6864 O   0  0  0  0  0  0  0  0  0  0  0  0
   50.1532   83.6967   95.2414 C   0  0  0  0  0  0  0  0  0  0  0  0
   51.2942   83.1454   96.0951 C   0  0  0  0  0  0  0  0  0  0  0  0
   50.7266   82.3432   97.2302 C   0  0  0  0  0  0  0  0  0  0  0  0
   51.6480   82.0245   98.1539 O   0  0  0  0  0  0  0  0  0  0  0  0
   49.5523   82.0409   97.3673 O   0  0  0  0  0  0  0  0  0  0  0  0
   49.7659   82.5373   91.8435 N   0  0  0  0  0  0  0  0  0  0  0  0
   49.6772   83.0053   90.4603 C   0  0  2  0  0  0  0  0  0  0  0  0
   48.5447   82.2279   89.7344 C   0  0  0  0  0  0  0  0  0  0  0  0
   48.5699   82.0031   88.5274 O   0  0  0  0  0  0  0  0  0  0  0  0
   50.9836   82.7794   89.6905 C   0  0  0  0  0  0  0  0  0  0  0  0
   52.1056   83.7103   90.1385 C   0  0  0  0  0  0  0  0  0  0  0  0
   53.2085   82.9973   90.8979 C   0  0  0  0  0  0  0  0  0  0  0  0
   53.0324   82.2923   91.8873 O   0  0  0  0  0  0  0  0  0  0  0  0
   54.4514   83.1613   90.3630 N   0  0  0  0  0  0  0  0  0  0  0  0
   47.6107   81.6560   90.5821 N   0  0  0  0  0  0  0  0  0  0  0  0
   46.9171   80.4209   90.2130 C   0  0  2  0  0  0  0  0  0  0  0  0
   45.8041   80.2325   91.2801 C   0  0  0  0  0  0  0  0  0  0  0  0
   45.1050   79.2141   91.3083 O   0  0  0  0  0  0  0  0  0  0  0  0
   47.8899   79.2359   90.1525 C   0  0  0  0  0  0  0  0  0  0  0  0
   47.8026   78.2966   91.3833 C   0  0  1  0  0  0  0  0  0  0  0  0
   48.9151   77.2462   91.4203 C   0  0  0  0  0  0  0  0  0  0  0  0
   47.8582   79.1096   92.6802 C   0  0  0  0  0  0  0  0  0  0  0  0
   45.6688   81.2195   92.2400 N   0  0  0  0  0  0  0  0  0  0  0  0
   44.3119   81.6723   92.6052 C   0  0  2  0  0  0  0  0  0  0  0  0
   43.9489   83.1208   92.2022 C   0  0  0  0  0  0  0  0  0  0  0  0
   43.0135   83.7270   92.7218 O   0  0  0  0  0  0  0  0  0  0  0  0
   44.0111   81.3781   94.0885 C   0  0  0  0  0  0  0  0  0  0  0  0
   44.8258   82.1329   95.1632 C   0  0  1  0  0  0  0  0  0  0  0  0
   44.2585   83.5491   95.3162 C   0  0  0  0  0  0  0  0  0  0  0  0
   44.8465   81.4599   96.5329 C   0  0  0  0  0  0  0  0  0  0  0  0
   44.7971   85.0251   89.2326 C   0  0  0  0  0  0  0  0  0  0  0  0
   44.7957   83.6974   91.2813 N   0  0  0  0  0  0  0  0  0  0  0  0
   44.5974   86.0239   88.5258 O   0  0  0  0  0  0  0  0  0  0  0  0
   44.6687   85.0908   90.7862 C   0  0  1  0  0  0  0  0  0  0  0  0
   45.9020   85.8621   91.3561 C   0  0  0  0  0  0  0  0  0  0  0  0
   48.0016   87.1039   90.6628 C   0  0  0  0  0  0  0  0  0  0  0  0
   49.4041   86.9163   90.1047 C   0  0  0  0  0  0  0  0  0  0  0  0
   47.1531   85.8469   90.4644 C   0  0  0  0  0  0  0  0  0  0  0  0
   43.3861   85.7881   91.2715 C   0  0  0  0  0  0  0  0  0  0  0  0
   45.3037   83.8638   88.6894 N   0  0  0  0  0  0  0  0  0  0  0  0
   45.0518   83.5012   87.2952 C   0  0  2  0  0  0  0  0  0  0  0  0
   43.6012   83.8913   86.9212 C   0  0  0  0  0  0  0  0  0  0  0  0
   43.3622   84.8438   86.1695 O   0  0  0  0  0  0  0  0  0  0  0  0
   45.4452   82.0468   86.9820 C   0  0  0  0  0  0  0  0  0  0  0  0
   46.6006   81.9323   86.0084 C   0  0  0  0  0  0  0  0  0  0  0  0
   47.0403   80.6817   85.5571 C   0  0  0  0  0  0  0  0  0  0  0  0
   47.2636   83.0775   85.5436 C   0  0  0  0  0  0  0  0  0  0  0  0
   48.1196   80.5697   84.6806 C   0  0  0  0  0  0  0  0  0  0  0  0
   48.3537   82.9650   84.6793 C   0  0  0  0  0  0  0  0  0  0  0  0
   48.7830   81.7145   84.2501 C   0  0  0  0  0  0  0  0  0  0  0  0
   42.5939   83.1809   87.5234 N   0  0  0  0  0  0  0  0  0  0  0  0
   41.1850   83.3796   87.1993 C   0  0  2  0  0  0  0  0  0  0  0  0
   40.8414   84.8667   87.3927 C   0  0  0  0  0  0  0  0  0  0  0  0
   40.2565   85.5249   86.5295 O   0  0  0  0  0  0  0  0  0  0  0  0
   40.2694   82.4891   88.0527 C   0  0  0  0  0  0  0  0  0  0  0  0
   40.2647   81.0343   87.5775 C   0  0  0  0  0  0  0  0  0  0  0  0
   40.3247   80.9356   86.0718 C   0  0  0  0  0  0  0  0  0  0  0  0
   39.3583   81.0666   85.3242 O   0  0  0  0  0  0  0  0  0  0  0  0
   41.5676   80.6674   85.5692 N   0  0  0  0  0  0  0  0  0  0  0  0
   41.2643   85.4080   88.5916 N   0  0  0  0  0  0  0  0  0  0  0  0
   41.0734   86.8306   88.8636 C   0  0  2  0  0  0  0  0  0  0  0  0
   42.1947   87.6334   88.1856 C   0  0  0  0  0  0  0  0  0  0  0  0
   42.5915   87.4221   87.0412 O   0  0  0  0  0  0  0  0  0  0  0  0
   41.0893   87.1406   90.3713 C   0  0  0  0  0  0  0  0  0  0  0  0
   42.2942   86.6075   91.1521 C   0  0  0  0  0  0  0  0  0  0  0  0
   41.9814   85.4412   92.0881 C   0  0  0  0  0  0  0  0  0  0  0  0
   43.2201   84.8137   92.5290 N   0  0  0  0  0  0  0  0  0  0  0  0
   43.4772   84.6325   93.8465 C   0  0  0  0  0  0  0  0  0  0  0  0
   42.8715   85.2342   94.7973 N   0  0  0  0  0  0  0  0  0  0  0  0
   44.5326   83.8212   94.0430 N   0  0  0  0  0  0  0  0  0  0  0  0
   56.0799   72.1827   98.0905 H   0  0  0  0  0  0  0  0  0  0  0  0
   48.8629   73.5902   94.9678 H   0  0  0  0  0  0  0  0  0  0  0  0
   43.3037   86.1564   94.9269 H   0  0  0  0  0  0  0  0  0  0  0  0
  2  1  1  0
  3  2  1  0
  2  5  1  6
  3  4  2  0
  6  3  1  0
  7  6  1  0
  8  7  1  0
  7 10  1  6
  8  9  2  0
 17  8  1  0
 10 11  1  0
 11 12  1  0
 12 13  1  0
 13 14  1  0
 14 15  1  0
 14 16  2  0
 18 17  1  0
 19 18  1  0
 18 21  1  6
 19 20  2  0
 29 19  1  0
 21 22  1  0
 22 23  2  0
 22 24  1  0
 23 25  1  0
 24 26  2  0
 25 27  2  0
 26 27  1  0
 27 28  1  0
 30 29  1  0
 31 30  1  0
 30 33  1  6
 31 32  2  0
 35 31  1  0
 33 34  1  0
 36 35  1  0
 37 36  1  0
 36 39  1  1
 37 38  2  0
 46 37  1  0
 39 40  1  0
 40 41  1  0
 41 42  1  0
 42 43  1  0
 43 44  2  0
 43 45  1  0
 47 46  1  0
 48 47  1  0
 47 50  1  1
 48 49  2  0
 55 48  1  0
 50 51  1  0
 51 52  1  0
 52 53  1  0
 52 54  2  0
 56 55  1  0
 57 56  1  0
 56 59  1  6
 57 58  2  0
 64 57  1  0
 59 60  1  0
 60 61  1  0
 61 62  2  0
 61 63  1  0
 65 64  1  0
 66 65  1  0
 65 68  1  1
 66 67  2  0
 72 66  1  0
 68 69  1  0
 69 70  1  1
 69 71  1  0
 73 72  1  0
 74 73  1  0
 73 76  1  1
 74 75  2  0
 81 74  1  0
 76 77  1  0
 77 78  1  1
 77 79  1  0
 80 82  2  0
 83 80  1  0
 80 89  1  0
 83 81  1  0
 84 83  1  0
 83 88  1  6
 87 84  1  0
 85 86  1  0
 85 87  1  0
 89 90  1  0
 90 91  1  0
 90 93  1  1
 91 92  2  0
 91100  1  0
 93 94  1  0
 94 95  2  0
 94 96  1  0
 95 97  1  0
 96 98  2  0
 97 99  2  0
 98 99  1  0
100101  1  0
101102  1  0
101104  1  1
102103  2  0
102109  1  0
104105  1  0
105106  1  0
106107  2  0
106108  1  0
109110  1  0
110111  1  0
110113  1  1
111112  2  0
113114  1  0
114115  1  0
115116  1  0
116117  1  0
117118  2  0
117119  1  0
 16120  1  0
 44121  1  0
118122  1  0
M  CHG  1   1   1
M  END
$$$$
