
     RDKit          3D

122123  0  0  0  0  0  0  0  0999 V2000
   53.3174   82.6023   90.4790 N   0  0  0  0  0  4  0  0  0  0  0  0
   53.3618   81.1036   90.4911 C   0  0  2  0  0  0  0  0  0  0  0  0
   52.4804   80.5968   91.6385 C   0  0  0  0  0  0  0  0  0  0  0  0
   52.2747   79.3879   91.7473 O   0  0  0  0  0  0  0  0  0  0  0  0
   54.7968   80.6499   90.6834 C   0  0  0  0  0  0  0  0  0  0  0  0
   52.0227   81.5552   92.5198 N   0  0  0  0  0  0  0  0  0  0  0  0
   51.2534   81.1413   93.7064 C   0  0  2  0  0  0  0  0  0  0  0  0
   49.8722   81.8447   93.5497 C   0  0  0  0  0  0  0  0  0  0  0  0
   49.7642   83.0567   93.7561 O   0  0  0  0  0  0  0  0  0  0  0  0
   51.9559   81.3636   95.0518 C   0  0  0  0  0  0  0  0  0  0  0  0
   51.0722   81.2005   96.2968 C   0  0  0  0  0  0  0  0  0  0  0  0
   50.7893   82.4904   97.0666 C   0  0  0  0  0  0  0  0  0  0  0  0
   49.4685   83.0048   96.7562 N   0  0  0  0  0  0  0  0  0  0  0  0
   48.8788   83.9794   97.4761 C   0  0  0  0  0  0  0  0  0  0  0  0
   49.5997   84.2862   98.5751 N   0  0  0  0  0  0  0  0  0  0  0  0
   47.7767   84.5901   97.2655 N   0  0  0  0  0  0  0  0  0  0  0  0
   48.8241   81.0691   93.1100 N   0  0  0  0  0  0  0  0  0  0  0  0
   47.4118   81.4165   93.3896 C   0  0  2  0  0  0  0  0  0  0  0  0
   46.5622   80.1214   93.5350 C   0  0  0  0  0  0  0  0  0  0  0  0
   47.0042   78.9902   93.3505 O   0  0  0  0  0  0  0  0  0  0  0  0
   46.7486   82.4023   92.4014 C   0  0  0  0  0  0  0  0  0  0  0  0
   46.7969   83.8723   92.7717 C   0  0  0  0  0  0  0  0  0  0  0  0
   46.4673   84.8344   91.8035 C   0  0  0  0  0  0  0  0  0  0  0  0
   47.2426   84.3183   94.0249 C   0  0  0  0  0  0  0  0  0  0  0  0
   46.5530   86.1978   92.0882 C   0  0  0  0  0  0  0  0  0  0  0  0
   47.3087   85.6837   94.3217 C   0  0  0  0  0  0  0  0  0  0  0  0
   46.9573   86.6141   93.3474 C   0  0  0  0  0  0  0  0  0  0  0  0
   47.0003   87.9549   93.5889 O   0  0  0  0  0  0  0  0  0  0  0  0
   45.2398   80.3547   93.8276 N   0  0  0  0  0  0  0  0  0  0  0  0
   44.2270   79.3248   93.9845 C   0  0  2  0  0  0  0  0  0  0  0  0
   43.8755   78.8510   92.5652 C   0  0  0  0  0  0  0  0  0  0  0  0
   44.6049   78.0722   91.9587 O   0  0  0  0  0  0  0  0  0  0  0  0
   42.9908   79.9342   94.6513 C   0  0  0  0  0  0  0  0  0  0  0  0
   42.7548   81.2811   94.2021 O   0  0  0  0  0  0  0  0  0  0  0  0
   42.6735   79.3304   92.1018 N   0  0  0  0  0  0  0  0  0  0  0  0
   42.0386   78.9389   90.8352 C   0  0  2  0  0  0  0  0  0  0  0  0
   42.9927   79.3300   89.6857 C   0  0  0  0  0  0  0  0  0  0  0  0
   43.6467   78.5126   89.0419 O   0  0  0  0  0  0  0  0  0  0  0  0
   40.5800   79.3367   90.5667 C   0  0  0  0  0  0  0  0  0  0  0  0
   39.5480   78.3581   91.1422 C   0  0  0  0  0  0  0  0  0  0  0  0
   38.3424   79.0290   91.8007 C   0  0  0  0  0  0  0  0  0  0  0  0
   38.6900   80.3550   92.2940 N   0  0  0  0  0  0  0  0  0  0  0  0
   37.7793   81.1599   92.8842 C   0  0  0  0  0  0  0  0  0  0  0  0
   38.0191   82.3309   93.3420 N   0  0  0  0  0  0  0  0  0  0  0  0
   36.5742   80.5599   92.9747 N   0  0  0  0  0  0  0  0  0  0  0  0
   42.9561   80.6735   89.3587 N   0  0  0  0  0  0  0  0  0  0  0  0
   43.8606   81.1872   88.3361 C   0  0  2  0  0  0  0  0  0  0  0  0
   45.3037   81.3142   88.8394 C   0  0  0  0  0  0  0  0  0  0  0  0
   45.6027   81.4809   90.0216 O   0  0  0  0  0  0  0  0  0  0  0  0
   43.3142   82.4734   87.6927 C   0  0  0  0  0  0  0  0  0  0  0  0
   42.2187   83.1877   88.4827 C   0  0  0  0  0  0  0  0  0  0  0  0
   40.9309   82.4271   88.3512 C   0  0  0  0  0  0  0  0  0  0  0  0
   40.9125   81.6160   87.2808 O   0  0  0  0  0  0  0  0  0  0  0  0
   39.9995   82.4679   89.1387 O   0  0  0  0  0  0  0  0  0  0  0  0
   46.2469   81.2269   87.8394 N   0  0  0  0  0  0  0  0  0  0  0  0
   47.6736   81.3321   88.1451 C   0  0  2  0  0  0  0  0  0  0  0  0
   47.8771   81.1649   89.6762 C   0  0  0  0  0  0  0  0  0  0  0  0
   47.9703   82.1248   90.4363 O   0  0  0  0  0  0  0  0  0  0  0  0
   48.2535   82.6891   87.7295 C   0  0  0  0  0  0  0  0  0  0  0  0
   48.0119   83.7810   88.7666 C   0  0  0  0  0  0  0  0  0  0  0  0
   46.6758   84.4801   88.6005 C   0  0  0  0  0  0  0  0  0  0  0  0
   45.6034   83.9068   88.4328 O   0  0  0  0  0  0  0  0  0  0  0  0
   46.7400   85.8382   88.6974 N   0  0  0  0  0  0  0  0  0  0  0  0
   47.7584   79.8614   90.1288 N   0  0  0  0  0  0  0  0  0  0  0  0
   48.5337   79.3911   91.2781 C   0  0  2  0  0  0  0  0  0  0  0  0
   48.0644   80.2560   92.4800 C   0  0  0  0  0  0  0  0  0  0  0  0
   47.0923   79.9280   93.1686 O   0  0  0  0  0  0  0  0  0  0  0  0
   50.0408   79.5067   91.0146 C   0  0  0  0  0  0  0  0  0  0  0  0
   50.5081   78.7579   89.7396 C   0  0  1  0  0  0  0  0  0  0  0  0
   51.8189   79.3023   89.1670 C   0  0  0  0  0  0  0  0  0  0  0  0
   50.6884   77.2655   90.0328 C   0  0  0  0  0  0  0  0  0  0  0  0
   48.8168   81.3743   92.7919 N   0  0  0  0  0  0  0  0  0  0  0  0
   48.8678   81.8255   94.1966 C   0  0  2  0  0  0  0  0  0  0  0  0
   50.1783   81.5209   94.9597 C   0  0  0  0  0  0  0  0  0  0  0  0
   50.8705   82.4124   95.4480 O   0  0  0  0  0  0  0  0  0  0  0  0
   47.6138   81.3704   94.9697 C   0  0  0  0  0  0  0  0  0  0  0  0
   46.2673   82.0571   94.6477 C   0  0  1  0  0  0  0  0  0  0  0  0
   45.1731   81.4506   95.5341 C   0  0  0  0  0  0  0  0  0  0  0  0
   46.2674   83.5722   94.8323 C   0  0  0  0  0  0  0  0  0  0  0  0
   52.8340   80.4156   94.5789 C   0  0  0  0  0  0  0  0  0  0  0  0
   50.4634   80.1820   95.1135 N   0  0  0  0  0  0  0  0  0  0  0  0
   54.0326   80.0990   94.5626 O   0  0  0  0  0  0  0  0  0  0  0  0
   51.8031   79.6472   95.4628 C   0  0  1  0  0  0  0  0  0  0  0  0
   51.7927   78.1472   95.0265 C   0  0  0  0  0  0  0  0  0  0  0  0
   52.4432   76.3884   93.3191 C   0  0  0  0  0  0  0  0  0  0  0  0
   51.3308   75.5651   93.9499 C   0  0  0  0  0  0  0  0  0  0  0  0
   52.2451   77.8821   93.5822 C   0  0  0  0  0  0  0  0  0  0  0  0
   52.1062   79.7184   96.9694 C   0  0  0  0  0  0  0  0  0  0  0  0
   52.3359   81.3463   93.6924 N   0  0  0  0  0  0  0  0  0  0  0  0
   53.2242   82.1989   92.9033 C   0  0  2  0  0  0  0  0  0  0  0  0
   53.6835   83.3966   93.7698 C   0  0  0  0  0  0  0  0  0  0  0  0
   54.8200   83.4440   94.2552 O   0  0  0  0  0  0  0  0  0  0  0  0
   52.6276   82.5667   91.5332 C   0  0  0  0  0  0  0  0  0  0  0  0
   53.2340   81.7872   90.3840 C   0  0  0  0  0  0  0  0  0  0  0  0
   53.4933   82.4037   89.1536 C   0  0  0  0  0  0  0  0  0  0  0  0
   53.5413   80.4258   90.5233 C   0  0  0  0  0  0  0  0  0  0  0  0
   54.0278   81.6842   88.0849 C   0  0  0  0  0  0  0  0  0  0  0  0
   54.0612   79.7020   89.4492 C   0  0  0  0  0  0  0  0  0  0  0  0
   54.3020   80.3280   88.2319 C   0  0  0  0  0  0  0  0  0  0  0  0
   52.7471   84.3628   94.0375 N   0  0  0  0  0  0  0  0  0  0  0  0
   53.0772   85.7821   94.1153 C   0  0  2  0  0  0  0  0  0  0  0  0
   51.7852   86.5730   94.3836 C   0  0  0  0  0  0  0  0  0  0  0  0
   51.7296   87.4800   95.2171 O   0  0  0  0  0  0  0  0  0  0  0  0
   53.7707   86.2801   92.8382 C   0  0  0  0  0  0  0  0  0  0  0  0
   55.2824   86.0430   92.8664 C   0  0  0  0  0  0  0  0  0  0  0  0
   56.0442   87.3131   93.1613 C   0  0  0  0  0  0  0  0  0  0  0  0
   57.2676   87.3898   93.2475 O   0  0  0  0  0  0  0  0  0  0  0  0
   55.2585   88.4164   93.3480 N   0  0  0  0  0  0  0  0  0  0  0  0
   50.6929   86.1679   93.6407 N   0  0  0  0  0  0  0  0  0  0  0  0
   49.4027   86.8322   93.8087 C   0  0  2  0  0  0  0  0  0  0  0  0
   49.6001   88.3544   93.7320 C   0  0  0  0  0  0  0  0  0  0  0  0
   49.1008   89.1498   94.5257 O   0  0  0  0  0  0  0  0  0  0  0  0
   48.7444   86.4893   95.1573 C   0  0  0  0  0  0  0  0  0  0  0  0
   47.9131   85.2034   95.1892 C   0  0  0  0  0  0  0  0  0  0  0  0
   47.3304   84.8554   96.5580 C   0  0  0  0  0  0  0  0  0  0  0  0
   47.3835   83.4147   96.7674 N   0  0  0  0  0  0  0  0  0  0  0  0
   48.4765   82.8315   97.3152 C   0  0  0  0  0  0  0  0  0  0  0  0
   48.4536   81.7922   98.0583 N   0  0  0  0  0  0  0  0  0  0  0  0
   49.5939   83.5432   97.0794 N   0  0  0  0  0  0  0  0  0  0  0  0
   47.2445   84.1213   96.5329 H   0  0  0  0  0  0  0  0  0  0  0  0
   39.0175   82.5311   93.2775 H   0  0  0  0  0  0  0  0  0  0  0  0
   47.5801   81.2832   97.8795 H   0  0  0  0  0  0  0  0  0  0  0  0
  2  1  1  0
  3  2  1  0
  2  5  1  1
  3  4  2  0
  6  3  1  0
  7  6  1  0
  8  7  1  0
  7 10  1  1
  8  9  2  0
 17  8  1  0
 10 11  1  0
 11 12  1  0
 12 13  1  0
 13 14  1  0
 14 15  1  0
 14 16  2  0
 18 17  1  0
 19 18  1  0
 18 21  1  6
 19 20  2  0
 29 19  1  0
 21 22  1  0
 22 23  2  0
 22 24  1  0
 23 25  1  0
 24 26  2  0
 25 27  2  0
 26 27  1  0
 27 28  1  0
 30 29  1  0
 31 30  1  0
 30 33  1  6
 31 32  2  0
 35 31  1  0
 33 34  1  0
 36 35  1  0
 37 36  1  0
 36 39  1  6
 37 38  2  0
 46 37  1  0
 39 40  1  0
 40 41  1  0
 41 42  1  0
 42 43  1  0
 43 44  2  0
 43 45  1  0
 47 46  1  0
 48 47  1  0
 47 50  1  1
 48 49  2  0
 55 48  1  0
 50 51  1  0
 51 52  1  0
 52 53  1  0
 52 54  2  0
 56 55  1  0
 57 56  1  0
 56 59  1  1
 57 58  2  0
 64 57  1  0
 59 60  1  0
 60 61  1  0
 61 62  2  0
 61 63  1  0
 65 64  1  0
 66 65  1  0
 65 68  1  6
 66 67  2  0
 72 66  1  0
 68 69  1  0
 69 70  1  1
 69 71  1  0
 73 72  1  0
 74 73  1  0
 73 76  1  1
 74 75  2  0
 81 74  1  0
 76 77  1  0
 77 78  1  1
 77 79  1  0
 80 82  2  0
 83 80  1  0
 80 89  1  0
 83 81  1  0
 84 83  1  0
 83 88  1  1
 87 84  1  0
 85 86  1  0
 85 87  1  0
 89 90  1  0
 90 91  1  0
 90 93  1  6
 91 92  2  0
 91100  1  0
 93 94  1  0
 94 95  2  0
 94 96  1  0
 95 97  1  0
 96 98  2  0
 97 99  2  0
 98 99  1  0
100101  1  0
101102  1  0
101104  1  6
102103  2  0
102109  1  0
104105  1  0
105106  1  0
106107  2  0
106108  1  0
109110  1  0
110111  1  0
110113  1  1
111112  2  0
113114  1  0
114115  1  0
115116  1  0
116117  1  0
117118  2  0
117119  1  0
 16120  1  0
 44121  1  0
118122  1  0
M  CHG  1   1   1
M  END
$$$$
