
     RDKit          3D

122123  0  0  0  0  0  0  0  0999 V2000
   55.6783   74.1591   98.9781 N   0  0  0  0  0  4  0  0  0  0  0  0
   55.8081   74.9572   97.7154 C   0  0  2  0  0  0  0  0  0  0  0  0
   55.9888   76.4338   98.0858 C   0  0  0  0  0  0  0  0  0  0  0  0
   55.7710   76.7923   99.2432 O   0  0  0  0  0  0  0  0  0  0  0  0
   54.5575   74.7691   96.8771 C   0  0  0  0  0  0  0  0  0  0  0  0
   56.4523   77.2583   97.0808 N   0  0  0  0  0  0  0  0  0  0  0  0
   56.7921   78.6583   97.3899 C   0  0  2  0  0  0  0  0  0  0  0  0
   55.8741   79.5050   96.4583 C   0  0  0  0  0  0  0  0  0  0  0  0
   56.0382   80.7246   96.3645 O   0  0  0  0  0  0  0  0  0  0  0  0
   58.2865   78.9983   97.3262 C   0  0  0  0  0  0  0  0  0  0  0  0
   58.7626   79.6556   96.0228 C   0  0  0  0  0  0  0  0  0  0  0  0
   60.2610   79.5373   95.7448 C   0  0  0  0  0  0  0  0  0  0  0  0
   61.0309   80.3295   96.6858 N   0  0  0  0  0  0  0  0  0  0  0  0
   61.1917   81.6610   96.5563 C   0  0  0  0  0  0  0  0  0  0  0  0
   61.0661   82.2911   97.7433 N   0  0  0  0  0  0  0  0  0  0  0  0
   61.4110   82.3536   95.5055 N   0  0  0  0  0  0  0  0  0  0  0  0
   54.9422   78.8207   95.7123 N   0  0  0  0  0  0  0  0  0  0  0  0
   53.9542   79.5130   94.8533 C   0  0  2  0  0  0  0  0  0  0  0  0
   52.6262   79.7293   95.6346 C   0  0  0  0  0  0  0  0  0  0  0  0
   52.3399   79.1370   96.6720 O   0  0  0  0  0  0  0  0  0  0  0  0
   53.6837   78.8666   93.4760 C   0  0  0  0  0  0  0  0  0  0  0  0
   54.4086   79.4693   92.2878 C   0  0  0  0  0  0  0  0  0  0  0  0
   55.8088   79.5719   92.3189 C   0  0  0  0  0  0  0  0  0  0  0  0
   53.7284   80.0105   91.1868 C   0  0  0  0  0  0  0  0  0  0  0  0
   56.5079   80.1704   91.2701 C   0  0  0  0  0  0  0  0  0  0  0  0
   54.4268   80.5915   90.1231 C   0  0  0  0  0  0  0  0  0  0  0  0
   55.8164   80.6618   90.1734 C   0  0  0  0  0  0  0  0  0  0  0  0
   56.5427   81.2138   89.1606 O   0  0  0  0  0  0  0  0  0  0  0  0
   51.7587   80.6028   95.0240 N   0  0  0  0  0  0  0  0  0  0  0  0
   50.5647   81.1575   95.6388 C   0  0  2  0  0  0  0  0  0  0  0  0
   49.9229   82.0689   94.5805 C   0  0  0  0  0  0  0  0  0  0  0  0
   50.5742   82.9457   94.0208 O   0  0  0  0  0  0  0  0  0  0  0  0
   50.9683   81.9843   96.8625 C   0  0  0  0  0  0  0  0  0  0  0  0
   51.2261   83.3569   96.5145 O   0  0  0  0  0  0  0  0  0  0  0  0
   48.6126   81.7599   94.3031 N   0  0  0  0  0  0  0  0  0  0  0  0
   48.1467   81.0532   93.1012 C   0  0  2  0  0  0  0  0  0  0  0  0
   46.9041   80.2232   93.4909 C   0  0  0  0  0  0  0  0  0  0  0  0
   45.9648   80.0126   92.7270 O   0  0  0  0  0  0  0  0  0  0  0  0
   49.1531   80.2647   92.2508 C   0  0  0  0  0  0  0  0  0  0  0  0
   49.3471   80.8209   90.8342 C   0  0  0  0  0  0  0  0  0  0  0  0
   48.4520   82.0136   90.4976 C   0  0  0  0  0  0  0  0  0  0  0  0
   47.8845   81.8778   89.1627 N   0  0  0  0  0  0  0  0  0  0  0  0
   47.8570   80.6927   88.5146 C   0  0  0  0  0  0  0  0  0  0  0  0
   48.2564   79.5782   89.0013 N   0  0  0  0  0  0  0  0  0  0  0  0
   47.3893   80.8280   87.2562 N   0  0  0  0  0  0  0  0  0  0  0  0
   46.9936   79.6307   94.7376 N   0  0  0  0  0  0  0  0  0  0  0  0
   45.7799   79.4148   95.5173 C   0  0  2  0  0  0  0  0  0  0  0  0
   45.3147   80.6837   96.2421 C   0  0  0  0  0  0  0  0  0  0  0  0
   45.9257   81.1986   97.1783 O   0  0  0  0  0  0  0  0  0  0  0  0
   45.9101   78.1889   96.4377 C   0  0  0  0  0  0  0  0  0  0  0  0
   46.9072   77.1265   95.9780 C   0  0  0  0  0  0  0  0  0  0  0  0
   46.9257   75.9971   96.9671 C   0  0  0  0  0  0  0  0  0  0  0  0
   45.9621   75.0897   96.7390 O   0  0  0  0  0  0  0  0  0  0  0  0
   47.7437   75.8504   97.8607 O   0  0  0  0  0  0  0  0  0  0  0  0
   44.1372   81.2010   95.7490 N   0  0  0  0  0  0  0  0  0  0  0  0
   43.5137   82.3686   96.3721 C   0  0  2  0  0  0  0  0  0  0  0  0
   44.0069   83.6523   95.6490 C   0  0  0  0  0  0  0  0  0  0  0  0
   43.5755   84.7688   95.9232 O   0  0  0  0  0  0  0  0  0  0  0  0
   43.8706   82.4881   97.8583 C   0  0  0  0  0  0  0  0  0  0  0  0
   43.3820   83.7905   98.4836 C   0  0  0  0  0  0  0  0  0  0  0  0
   42.0344   84.2416   97.9525 C   0  0  0  0  0  0  0  0  0  0  0  0
   41.3077   83.5676   97.2282 O   0  0  0  0  0  0  0  0  0  0  0  0
   41.6481   85.4753   98.3846 N   0  0  0  0  0  0  0  0  0  0  0  0
   45.0931   83.4548   94.8128 N   0  0  0  0  0  0  0  0  0  0  0  0
   45.5422   84.5093   93.9022 C   0  0  2  0  0  0  0  0  0  0  0  0
   45.4225   83.9072   92.4752 C   0  0  0  0  0  0  0  0  0  0  0  0
   45.8641   82.7838   92.2113 O   0  0  0  0  0  0  0  0  0  0  0  0
   46.9690   84.9619   94.2391 C   0  0  0  0  0  0  0  0  0  0  0  0
   47.4304   84.5547   95.6625 C   0  0  1  0  0  0  0  0  0  0  0  0
   46.2796   84.4686   96.6678 C   0  0  0  0  0  0  0  0  0  0  0  0
   48.1455   83.2008   95.6250 C   0  0  0  0  0  0  0  0  0  0  0  0
   44.7432   84.6497   91.5259 N   0  0  0  0  0  0  0  0  0  0  0  0
   43.9070   83.9412   90.5368 C   0  0  2  0  0  0  0  0  0  0  0  0
   44.5159   83.7816   89.1240 C   0  0  0  0  0  0  0  0  0  0  0  0
   43.8432   83.4156   88.1618 O   0  0  0  0  0  0  0  0  0  0  0  0
   42.4788   84.5213   90.5032 C   0  0  0  0  0  0  0  0  0  0  0  0
   41.4260   83.8206   89.6149 C   0  0  1  0  0  0  0  0  0  0  0  0
   40.0611   84.4807   89.8435 C   0  0  0  0  0  0  0  0  0  0  0  0
   41.7399   83.8425   88.1214 C   0  0  0  0  0  0  0  0  0  0  0  0
   46.8542   82.0588   88.2786 C   0  0  0  0  0  0  0  0  0  0  0  0
   45.8381   84.1527   89.0157 N   0  0  0  0  0  0  0  0  0  0  0  0
   45.8922   81.3172   88.0303 O   0  0  0  0  0  0  0  0  0  0  0  0
   46.7838   83.5954   88.0168 C   0  0  1  0  0  0  0  0  0  0  0  0
   48.1760   84.2218   88.3487 C   0  0  0  0  0  0  0  0  0  0  0  0
   48.5985   86.5918   89.1463 C   0  0  0  0  0  0  0  0  0  0  0  0
   49.9964   86.6165   88.5475 C   0  0  0  0  0  0  0  0  0  0  0  0
   48.1950   85.1739   89.5544 C   0  0  0  0  0  0  0  0  0  0  0  0
   46.4142   83.9594   86.5685 C   0  0  0  0  0  0  0  0  0  0  0  0
   48.0781   81.5345   88.6356 N   0  0  0  0  0  0  0  0  0  0  0  0
   48.3723   80.1105   88.4789 C   0  0  2  0  0  0  0  0  0  0  0  0
   47.2520   79.2815   89.1526 C   0  0  0  0  0  0  0  0  0  0  0  0
   47.3315   78.0516   89.2549 O   0  0  0  0  0  0  0  0  0  0  0  0
   49.8063   79.7523   88.9074 C   0  0  0  0  0  0  0  0  0  0  0  0
   50.1727   78.3076   88.6343 C   0  0  0  0  0  0  0  0  0  0  0  0
   50.3324   77.8410   87.3237 C   0  0  0  0  0  0  0  0  0  0  0  0
   50.3513   77.4008   89.6893 C   0  0  0  0  0  0  0  0  0  0  0  0
   50.6448   76.5061   87.0664 C   0  0  0  0  0  0  0  0  0  0  0  0
   50.6481   76.0616   89.4315 C   0  0  0  0  0  0  0  0  0  0  0  0
   50.7924   75.6137   88.1237 C   0  0  0  0  0  0  0  0  0  0  0  0
   46.1346   79.9655   89.5597 N   0  0  0  0  0  0  0  0  0  0  0  0
   45.1210   79.3761   90.4284 C   0  0  2  0  0  0  0  0  0  0  0  0
   43.7330   79.8213   89.9363 C   0  0  0  0  0  0  0  0  0  0  0  0
   42.6919   79.4669   90.4940 O   0  0  0  0  0  0  0  0  0  0  0  0
   45.3319   79.7631   91.8999 C   0  0  0  0  0  0  0  0  0  0  0  0
   44.7657   78.7178   92.8637 C   0  0  0  0  0  0  0  0  0  0  0  0
   45.1885   77.3182   92.4854 C   0  0  0  0  0  0  0  0  0  0  0  0
   45.9677   77.0461   91.5750 O   0  0  0  0  0  0  0  0  0  0  0  0
   44.6187   76.3296   93.2385 N   0  0  0  0  0  0  0  0  0  0  0  0
   43.7466   80.6210   88.8097 N   0  0  0  0  0  0  0  0  0  0  0  0
   42.5174   81.2612   88.3480 C   0  0  2  0  0  0  0  0  0  0  0  0
   42.5090   81.2986   86.8117 C   0  0  0  0  0  0  0  0  0  0  0  0
   42.5224   82.3366   86.1526 O   0  0  0  0  0  0  0  0  0  0  0  0
   42.3789   82.7007   88.8755 C   0  0  0  0  0  0  0  0  0  0  0  0
   42.3739   83.8054   87.8148 C   0  0  0  0  0  0  0  0  0  0  0  0
   41.9628   85.1831   88.3317 C   0  0  0  0  0  0  0  0  0  0  0  0
   42.5254   86.2208   87.4779 N   0  0  0  0  0  0  0  0  0  0  0  0
   42.0663   87.4939   87.5362 C   0  0  0  0  0  0  0  0  0  0  0  0
   41.1103   87.8908   88.2855 N   0  0  0  0  0  0  0  0  0  0  0  0
   42.6616   88.2824   86.6228 N   0  0  0  0  0  0  0  0  0  0  0  0
   60.9799   81.9136   94.6930 H   0  0  0  0  0  0  0  0  0  0  0  0
   48.8854   79.7480   89.7865 H   0  0  0  0  0  0  0  0  0  0  0  0
   40.9849   87.2087   89.0425 H   0  0  0  0  0  0  0  0  0  0  0  0
  2  1  1  0
  3  2  1  0
  2  5  1  6
  3  4  2  0
  6  3  1  0
  7  6  1  0
  8  7  1  0
  7 10  1  6
  8  9  2  0
 17  8  1  0
 10 11  1  0
 11 12  1  0
 12 13  1  0
 13 14  1  0
 14 15  1  0
 14 16  2  0
 18 17  1  0
 19 18  1  0
 18 21  1  6
 19 20  2  0
 29 19  1  0
 21 22  1  0
 22 23  2  0
 22 24  1  0
 23 25  1  0
 24 26  2  0
 25 27  2  0
 26 27  1  0
 27 28  1  0
 30 29  1  0
 31 30  1  0
 30 33  1  1
 31 32  2  0
 35 31  1  0
 33 34  1  0
 36 35  1  0
 37 36  1  0
 36 39  1  1
 37 38  2  0
 46 37  1  0
 39 40  1  0
 40 41  1  0
 41 42  1  0
 42 43  1  0
 43 44  2  0
 43 45  1  0
 47 46  1  0
 48 47  1  0
 47 50  1  1
 48 49  2  0
 55 48  1  0
 50 51  1  0
 51 52  1  0
 52 53  1  0
 52 54  2  0
 56 55  1  0
 57 56  1  0
 56 59  1  1
 57 58  2  0
 64 57  1  0
 59 60  1  0
 60 61  1  0
 61 62  2  0
 61 63  1  0
 65 64  1  0
 66 65  1  0
 65 68  1  1
 66 67  2  0
 72 66  1  0
 68 69  1  0
 69 70  1  1
 69 71  1  0
 73 72  1  0
 74 73  1  0
 73 76  1  6
 74 75  2  0
 81 74  1  0
 76 77  1  0
 77 78  1  6
 77 79  1  0
 80 82  2  0
 83 80  1  0
 80 89  1  0
 83 81  1  0
 84 83  1  0
 83 88  1  6
 87 84  1  0
 85 86  1  0
 85 87  1  0
 89 90  1  0
 90 91  1  0
 90 93  1  1
 91 92  2  0
 91100  1  0
 93 94  1  0
 94 95  2  0
 94 96  1  0
 95 97  1  0
 96 98  2  0
 97 99  2  0
 98 99  1  0
100101  1  0
101102  1  0
101104  1  1
102103  2  0
102109  1  0
104105  1  0
105106  1  0
106107  2  0
106108  1  0
109110  1  0
110111  1  0
110113  1  1
111112  2  0
113114  1  0
114115  1  0
115116  1  0
116117  1  0
117118  2  0
117119  1  0
 16120  1  0
 44121  1  0
118122  1  0
M  CHG  1   1   1
M  END
$$$$
