
     RDKit          3D

122123  0  0  0  0  0  0  0  0999 V2000
   39.9431   85.7959  100.2840 N   0  0  0  0  0  4  0  0  0  0  0  0
   39.0321   84.6576   99.9337 C   0  0  2  0  0  0  0  0  0  0  0  0
   39.8234   83.6314   99.1147 C   0  0  0  0  0  0  0  0  0  0  0  0
   40.8369   83.1295   99.6009 O   0  0  0  0  0  0  0  0  0  0  0  0
   37.8594   85.1880   99.1304 C   0  0  0  0  0  0  0  0  0  0  0  0
   39.2907   83.2956   97.8866 N   0  0  0  0  0  0  0  0  0  0  0  0
   39.6951   82.0344   97.2408 C   0  0  2  0  0  0  0  0  0  0  0  0
   40.3768   82.4705   95.9095 C   0  0  0  0  0  0  0  0  0  0  0  0
   40.2119   83.6123   95.4710 O   0  0  0  0  0  0  0  0  0  0  0  0
   38.5838   80.9867   97.0983 C   0  0  0  0  0  0  0  0  0  0  0  0
   38.8459   79.8770   96.0700 C   0  0  0  0  0  0  0  0  0  0  0  0
   37.6752   78.9241   95.8293 C   0  0  0  0  0  0  0  0  0  0  0  0
   38.0255   77.8999   94.8630 N   0  0  0  0  0  0  0  0  0  0  0  0
   37.4622   76.6758   94.8628 C   0  0  0  0  0  0  0  0  0  0  0  0
   36.4395   76.6028   95.7406 N   0  0  0  0  0  0  0  0  0  0  0  0
   37.7784   75.6371   94.1895 N   0  0  0  0  0  0  0  0  0  0  0  0
   41.2085   81.5553   95.3062 N   0  0  0  0  0  0  0  0  0  0  0  0
   42.4487   81.9570   94.6034 C   0  0  2  0  0  0  0  0  0  0  0  0
   42.1113   82.4593   93.1701 C   0  0  0  0  0  0  0  0  0  0  0  0
   41.1183   82.1067   92.5389 O   0  0  0  0  0  0  0  0  0  0  0  0
   43.5775   80.9023   94.5658 C   0  0  0  0  0  0  0  0  0  0  0  0
   44.0720   80.3873   95.9041 C   0  0  0  0  0  0  0  0  0  0  0  0
   45.2388   80.9355   96.4609 C   0  0  0  0  0  0  0  0  0  0  0  0
   43.4561   79.3195   96.5736 C   0  0  0  0  0  0  0  0  0  0  0  0
   45.7566   80.4510   97.6627 C   0  0  0  0  0  0  0  0  0  0  0  0
   43.9593   78.8455   97.7897 C   0  0  0  0  0  0  0  0  0  0  0  0
   45.1072   79.4216   98.3269 C   0  0  0  0  0  0  0  0  0  0  0  0
   45.6340   78.9987   99.5108 O   0  0  0  0  0  0  0  0  0  0  0  0
   43.0644   83.2924   92.6350 N   0  0  0  0  0  0  0  0  0  0  0  0
   43.0732   83.7769   91.2652 C   0  0  2  0  0  0  0  0  0  0  0  0
   43.4570   82.5739   90.3887 C   0  0  0  0  0  0  0  0  0  0  0  0
   43.6325   81.4630   90.8798 O   0  0  0  0  0  0  0  0  0  0  0  0
   44.1282   84.8781   91.1292 C   0  0  0  0  0  0  0  0  0  0  0  0
   44.8978   85.0281   92.3362 O   0  0  0  0  0  0  0  0  0  0  0  0
   43.5164   82.8621   89.0461 N   0  0  0  0  0  0  0  0  0  0  0  0
   43.9223   81.9174   87.9956 C   0  0  2  0  0  0  0  0  0  0  0  0
   45.3844   81.5029   88.2696 C   0  0  0  0  0  0  0  0  0  0  0  0
   45.9183   80.5246   87.7517 O   0  0  0  0  0  0  0  0  0  0  0  0
   43.6633   82.2680   86.5231 C   0  0  0  0  0  0  0  0  0  0  0  0
   44.8874   82.8297   85.7886 C   0  0  0  0  0  0  0  0  0  0  0  0
   44.6646   83.0872   84.2982 C   0  0  0  0  0  0  0  0  0  0  0  0
   44.2784   84.4719   84.0615 N   0  0  0  0  0  0  0  0  0  0  0  0
   43.1858   84.7954   83.3355 C   0  0  0  0  0  0  0  0  0  0  0  0
   43.0223   84.5307   82.0939 N   0  0  0  0  0  0  0  0  0  0  0  0
   42.2866   85.4792   84.0733 N   0  0  0  0  0  0  0  0  0  0  0  0
   46.0840   82.4003   89.0560 N   0  0  0  0  0  0  0  0  0  0  0  0
   47.5389   82.3158   89.1188 C   0  0  2  0  0  0  0  0  0  0  0  0
   48.0969   82.7964   90.4639 C   0  0  0  0  0  0  0  0  0  0  0  0
   49.2488   82.5827   90.8413 O   0  0  0  0  0  0  0  0  0  0  0  0
   48.1971   82.9865   87.9006 C   0  0  0  0  0  0  0  0  0  0  0  0
   48.7681   84.3817   88.1489 C   0  0  0  0  0  0  0  0  0  0  0  0
   48.3695   85.2924   87.0238 C   0  0  0  0  0  0  0  0  0  0  0  0
   47.0556   85.5711   87.0204 O   0  0  0  0  0  0  0  0  0  0  0  0
   49.1316   85.7935   86.2130 O   0  0  0  0  0  0  0  0  0  0  0  0
   47.1836   83.4942   91.2230 N   0  0  0  0  0  0  0  0  0  0  0  0
   47.4816   83.8533   92.6095 C   0  0  2  0  0  0  0  0  0  0  0  0
   47.3180   82.5943   93.5050 C   0  0  0  0  0  0  0  0  0  0  0  0
   47.1486   82.6679   94.7190 O   0  0  0  0  0  0  0  0  0  0  0  0
   46.5411   84.9429   93.1374 C   0  0  0  0  0  0  0  0  0  0  0  0
   46.9097   86.3372   92.6412 C   0  0  0  0  0  0  0  0  0  0  0  0
   45.8135   86.9904   91.8206 C   0  0  0  0  0  0  0  0  0  0  0  0
   45.0393   86.3873   91.0831 O   0  0  0  0  0  0  0  0  0  0  0  0
   45.7117   88.3382   91.9964 N   0  0  0  0  0  0  0  0  0  0  0  0
   47.1936   81.4069   92.8032 N   0  0  0  0  0  0  0  0  0  0  0  0
   47.0098   80.1350   93.5042 C   0  0  2  0  0  0  0  0  0  0  0  0
   48.3580   79.3779   93.3556 C   0  0  0  0  0  0  0  0  0  0  0  0
   48.4875   78.2115   93.7421 O   0  0  0  0  0  0  0  0  0  0  0  0
   45.8216   79.3524   92.9298 C   0  0  0  0  0  0  0  0  0  0  0  0
   44.4698   80.1039   93.0418 C   0  0  1  0  0  0  0  0  0  0  0  0
   44.4838   81.4744   92.3608 C   0  0  0  0  0  0  0  0  0  0  0  0
   43.3420   79.2681   92.4293 C   0  0  0  0  0  0  0  0  0  0  0  0
   49.3908   80.0371   92.7132 N   0  0  0  0  0  0  0  0  0  0  0  0
   50.6784   79.3366   92.5372 C   0  0  2  0  0  0  0  0  0  0  0  0
   51.7214   80.0487   91.6442 C   0  0  0  0  0  0  0  0  0  0  0  0
   52.8250   79.5579   91.4127 O   0  0  0  0  0  0  0  0  0  0  0  0
   50.4569   77.8660   92.1301 C   0  0  0  0  0  0  0  0  0  0  0  0
   49.7525   77.5781   90.7850 C   0  0  1  0  0  0  0  0  0  0  0  0
   50.5267   78.2713   89.6577 C   0  0  0  0  0  0  0  0  0  0  0  0
   49.6112   76.0964   90.4470 C   0  0  0  0  0  0  0  0  0  0  0  0
   53.1166   82.6880   91.7721 C   0  0  0  0  0  0  0  0  0  0  0  0
   51.2906   81.2260   91.0732 N   0  0  0  0  0  0  0  0  0  0  0  0
   54.2822   83.0685   91.5891 O   0  0  0  0  0  0  0  0  0  0  0  0
   52.1937   82.2942   90.5772 C   0  0  1  0  0  0  0  0  0  0  0  0
   51.2732   83.5097   90.2368 C   0  0  0  0  0  0  0  0  0  0  0  0
   51.3365   86.0152   90.6242 C   0  0  0  0  0  0  0  0  0  0  0  0
   52.2069   87.2601   90.5471 C   0  0  0  0  0  0  0  0  0  0  0  0
   52.0090   84.8250   89.9381 C   0  0  0  0  0  0  0  0  0  0  0  0
   52.9639   81.8909   89.3080 C   0  0  0  0  0  0  0  0  0  0  0  0
   52.5371   82.7588   93.0209 N   0  0  0  0  0  0  0  0  0  0  0  0
   53.3125   83.1411   94.2004 C   0  0  2  0  0  0  0  0  0  0  0  0
   53.6026   81.8801   95.0502 C   0  0  0  0  0  0  0  0  0  0  0  0
   53.7912   81.9530   96.2702 O   0  0  0  0  0  0  0  0  0  0  0  0
   52.6850   84.3208   94.9639 C   0  0  0  0  0  0  0  0  0  0  0  0
   51.8711   85.2444   94.0805 C   0  0  0  0  0  0  0  0  0  0  0  0
   52.4712   85.9492   93.0298 C   0  0  0  0  0  0  0  0  0  0  0  0
   50.4975   85.4224   94.3013 C   0  0  0  0  0  0  0  0  0  0  0  0
   51.7313   86.8201   92.2299 C   0  0  0  0  0  0  0  0  0  0  0  0
   49.7602   86.3057   93.5114 C   0  0  0  0  0  0  0  0  0  0  0  0
   50.3750   87.0051   92.4795 C   0  0  0  0  0  0  0  0  0  0  0  0
   53.7174   80.6912   94.3753 N   0  0  0  0  0  0  0  0  0  0  0  0
   54.5384   79.5855   94.8580 C   0  0  2  0  0  0  0  0  0  0  0  0
   55.1568   78.8673   93.6461 C   0  0  0  0  0  0  0  0  0  0  0  0
   55.1528   77.6391   93.5362 O   0  0  0  0  0  0  0  0  0  0  0  0
   53.7302   78.6065   95.7228 C   0  0  0  0  0  0  0  0  0  0  0  0
   52.7011   79.3199   96.6027 C   0  0  0  0  0  0  0  0  0  0  0  0
   51.3809   79.4969   95.8911 C   0  0  0  0  0  0  0  0  0  0  0  0
   50.9398   80.5732   95.4948 O   0  0  0  0  0  0  0  0  0  0  0  0
   50.6694   78.3423   95.7184 N   0  0  0  0  0  0  0  0  0  0  0  0
   55.7384   79.7029   92.7120 N   0  0  0  0  0  0  0  0  0  0  0  0
   57.0595   79.3933   92.1707 C   0  0  2  0  0  0  0  0  0  0  0  0
   58.1247   79.6548   93.2471 C   0  0  0  0  0  0  0  0  0  0  0  0
   57.8795   80.1470   94.3469 O   0  0  0  0  0  0  0  0  0  0  0  0
   57.3933   80.2442   90.9320 C   0  0  0  0  0  0  0  0  0  0  0  0
   56.4173   81.3819   90.6180 C   0  0  0  0  0  0  0  0  0  0  0  0
   56.8226   82.2607   89.4357 C   0  0  0  0  0  0  0  0  0  0  0  0
   57.9772   83.0733   89.7952 N   0  0  0  0  0  0  0  0  0  0  0  0
   57.8756   84.4204   89.8940 C   0  0  0  0  0  0  0  0  0  0  0  0
   56.8282   85.0957   89.6113 N   0  0  0  0  0  0  0  0  0  0  0  0
   59.0515   84.9878   90.2198 N   0  0  0  0  0  0  0  0  0  0  0  0
   38.2884   75.9010   93.3469 H   0  0  0  0  0  0  0  0  0  0  0  0
   42.4604   83.6854   81.9903 H   0  0  0  0  0  0  0  0  0  0  0  0
   57.1048   85.9010   89.0377 H   0  0  0  0  0  0  0  0  0  0  0  0
  2  1  1  0
  3  2  1  0
  2  5  1  6
  3  4  2  0
  6  3  1  0
  7  6  1  0
  8  7  1  0
  7 10  1  6
  8  9  2  0
 17  8  1  0
 10 11  1  0
 11 12  1  0
 12 13  1  0
 13 14  1  0
 14 15  1  0
 14 16  2  0
 18 17  1  0
 19 18  1  0
 18 21  1  6
 19 20  2  0
 29 19  1  0
 21 22  1  0
 22 23  2  0
 22 24  1  0
 23 25  1  0
 24 26  2  0
 25 27  2  0
 26 27  1  0
 27 28  1  0
 30 29  1  0
 31 30  1  0
 30 33  1  1
 31 32  2  0
 35 31  1  0
 33 34  1  0
 36 35  1  0
 37 36  1  0
 36 39  1  6
 37 38  2  0
 46 37  1  0
 39 40  1  0
 40 41  1  0
 41 42  1  0
 42 43  1  0
 43 44  2  0
 43 45  1  0
 47 46  1  0
 48 47  1  0
 47 50  1  6
 48 49  2  0
 55 48  1  0
 50 51  1  0
 51 52  1  0
 52 53  1  0
 52 54  2  0
 56 55  1  0
 57 56  1  0
 56 59  1  1
 57 58  2  0
 64 57  1  0
 59 60  1  0
 60 61  1  0
 61 62  2  0
 61 63  1  0
 65 64  1  0
 66 65  1  0
 65 68  1  6
 66 67  2  0
 72 66  1  0
 68 69  1  0
 69 70  1  6
 69 71  1  0
 73 72  1  0
 74 73  1  0
 73 76  1  6
 74 75  2  0
 81 74  1  0
 76 77  1  0
 77 78  1  6
 77 79  1  0
 80 82  2  0
 83 80  1  0
 80 89  1  0
 83 81  1  0
 84 83  1  0
 83 88  1  6
 87 84  1  0
 85 86  1  0
 85 87  1  0
 89 90  1  0
 90 91  1  0
 90 93  1  1
 91 92  2  0
 91100  1  0
 93 94  1  0
 94 95  2  0
 94 96  1  0
 95 97  1  0
 96 98  2  0
 97 99  2  0
 98 99  1  0
100101  1  0
101102  1  0
101104  1  6
102103  2  0
102109  1  0
104105  1  0
105106  1  0
106107  2  0
106108  1  0
109110  1  0
110111  1  0
110113  1  6
111112  2  0
113114  1  0
114115  1  0
115116  1  0
116117  1  0
117118  2  0
117119  1  0
 16120  1  0
 44121  1  0
118122  1  0
M  CHG  1   1   1
M  END
$$$$
