
     RDKit          3D

 17 18  0  0  0  0  0  0  0  0999 V2000
   15.9967   -0.8350  -25.1854 O   0  0  0  0  0  0  0  0  0  0  0  0
   16.0843    0.2180  -26.0737 C   0  0  0  0  0  0  0  0  0  0  0  0
   14.9814    0.5968  -26.8491 C   0  0  0  0  0  0  0  0  0  0  0  0
   15.0975    1.6466  -27.7230 C   0  0  0  0  0  0  0  0  0  0  0  0
   17.2779    0.8784  -26.1732 C   0  0  0  0  0  0  0  0  0  0  0  0
   17.3536    1.9382  -27.0721 C   0  0  0  0  0  0  0  0  0  0  0  0
   16.3044    2.3345  -27.8413 C   0  0  0  0  0  0  0  0  0  0  0  0
   16.3998    3.4747  -28.8015 C   0  0  2  0  0  0  0  0  0  0  0  0
   15.4970    3.1932  -29.9926 C   0  0  0  0  0  0  0  0  0  0  0  0
   17.8162    3.5280  -29.3231 C   0  0  0  0  0  0  0  0  0  0  0  0
   16.0368    4.7403  -28.1470 C   0  0  0  0  0  0  0  0  0  0  0  0
   16.9288    5.3121  -27.2571 C   0  0  0  0  0  0  0  0  0  0  0  0
   16.6677    6.4895  -26.6050 C   0  0  0  0  0  0  0  0  0  0  0  0
   14.8408    5.3760  -28.3888 C   0  0  0  0  0  0  0  0  0  0  0  0
   14.5760    6.5734  -27.7253 C   0  0  0  0  0  0  0  0  0  0  0  0
   15.4721    7.1318  -26.8421 C   0  0  0  0  0  0  0  0  0  0  0  0
   15.1394    8.3322  -26.2148 O   0  0  0  0  0  0  0  0  0  0  0  0
  1  2  1  0
  2  3  2  0
  2  5  1  0
  3  4  1  0
  4  7  2  0
  5  6  2  0
  6  7  1  0
  7  8  1  0
  8  9  1  6
  8 10  1  0
  8 11  1  0
 11 12  2  0
 11 14  1  0
 12 13  1  0
 13 16  2  0
 14 15  2  0
 15 16  1  0
 16 17  1  0
M  END
$$$$
