
     RDKit          3D

 17 18  0  0  0  0  0  0  0  0999 V2000
   15.7896    2.9163  -33.4238 O   0  0  0  0  0  0  0  0  0  0  0  0
   15.8246    3.0979  -32.0558 C   0  0  0  0  0  0  0  0  0  0  0  0
   16.9578    3.6338  -31.4316 C   0  0  0  0  0  0  0  0  0  0  0  0
   16.9643    3.8031  -30.0713 C   0  0  0  0  0  0  0  0  0  0  0  0
   14.7218    2.7396  -31.3306 C   0  0  0  0  0  0  0  0  0  0  0  0
   14.7692    2.9276  -29.9525 C   0  0  0  0  0  0  0  0  0  0  0  0
   15.8515    3.4449  -29.3115 C   0  0  0  0  0  0  0  0  0  0  0  0
   15.8881    3.6421  -27.8313 C   0  0  2  0  0  0  0  0  0  0  0  0
   17.2470    3.2024  -27.3088 C   0  0  0  0  0  0  0  0  0  0  0  0
   14.8590    2.7256  -27.2131 C   0  0  0  0  0  0  0  0  0  0  0  0
   15.6136    5.0443  -27.4844 C   0  0  0  0  0  0  0  0  0  0  0  0
   16.4539    5.6889  -26.5939 C   0  0  0  0  0  0  0  0  0  0  0  0
   16.2686    6.9943  -26.2178 C   0  0  0  0  0  0  0  0  0  0  0  0
   14.5503    5.7378  -28.0145 C   0  0  0  0  0  0  0  0  0  0  0  0
   14.3625    7.0654  -27.6317 C   0  0  0  0  0  0  0  0  0  0  0  0
   15.2059    7.6952  -26.7446 C   0  0  0  0  0  0  0  0  0  0  0  0
   14.9562    9.0253  -26.4075 O   0  0  0  0  0  0  0  0  0  0  0  0
  1  2  1  0
  2  3  2  0
  2  5  1  0
  3  4  1  0
  4  7  2  0
  5  6  2  0
  6  7  1  0
  7  8  1  0
  8  9  1  1
  8 10  1  0
  8 11  1  0
 11 12  2  0
 11 14  1  0
 12 13  1  0
 13 16  2  0
 14 15  2  0
 15 16  1  0
 16 17  1  0
M  END
$$$$
