
     RDKit          3D

 17 18  0  0  0  0  0  0  0  0999 V2000
   14.8328    8.7293  -26.5573 O   0  0  0  0  0  0  0  0  0  0  0  0
   15.0773    7.4103  -26.8833 C   0  0  0  0  0  0  0  0  0  0  0  0
   14.2496    6.7280  -27.7835 C   0  0  0  0  0  0  0  0  0  0  0  0
   14.5166    5.4185  -28.0887 C   0  0  0  0  0  0  0  0  0  0  0  0
   16.1498    6.7920  -26.3020 C   0  0  0  0  0  0  0  0  0  0  0  0
   16.3860    5.4624  -26.6387 C   0  0  0  0  0  0  0  0  0  0  0  0
   15.6043    4.7676  -27.5082 C   0  0  0  0  0  0  0  0  0  0  0  0
   15.8704    3.3408  -27.8611 C   0  0  2  0  0  0  0  0  0  0  0  0
   14.8521    2.4598  -27.1540 C   0  0  0  0  0  0  0  0  0  0  0  0
   17.2294    2.9710  -27.3157 C   0  0  0  0  0  0  0  0  0  0  0  0
   15.8217    3.1453  -29.3176 C   0  0  0  0  0  0  0  0  0  0  0  0
   16.9570    3.4048  -30.0647 C   0  0  0  0  0  0  0  0  0  0  0  0
   16.9958    3.2482  -31.4263 C   0  0  0  0  0  0  0  0  0  0  0  0
   14.6864    2.7131  -29.9634 C   0  0  0  0  0  0  0  0  0  0  0  0
   14.7265    2.5540  -31.3481 C   0  0  0  0  0  0  0  0  0  0  0  0
   15.8627    2.8158  -32.0799 C   0  0  0  0  0  0  0  0  0  0  0  0
   15.8292    2.6341  -33.4624 O   0  0  0  0  0  0  0  0  0  0  0  0
  1  2  1  0
  2  3  2  0
  2  5  1  0
  3  4  1  0
  4  7  2  0
  5  6  2  0
  6  7  1  0
  7  8  1  0
  8  9  1  1
  8 10  1  0
  8 11  1  0
 11 12  2  0
 11 14  1  0
 12 13  1  0
 13 16  2  0
 14 15  2  0
 15 16  1  0
 16 17  1  0
M  END
$$$$
