
     RDKit          3D

 17 18  0  0  0  0  0  0  0  0999 V2000
   15.3080    8.3499  -26.2478 O   0  0  0  0  0  0  0  0  0  0  0  0
   15.3259    7.1125  -26.8594 C   0  0  0  0  0  0  0  0  0  0  0  0
   16.0716    6.0564  -26.3212 C   0  0  0  0  0  0  0  0  0  0  0  0
   16.0706    4.8383  -26.9500 C   0  0  0  0  0  0  0  0  0  0  0  0
   14.5952    6.9497  -28.0040 C   0  0  0  0  0  0  0  0  0  0  0  0
   14.6212    5.6977  -28.6112 C   0  0  0  0  0  0  0  0  0  0  0  0
   15.3332    4.6491  -28.1180 C   0  0  0  0  0  0  0  0  0  0  0  0
   15.3512    3.3102  -28.7799 C   0  0  2  0  0  0  0  0  0  0  0  0
   15.6545    3.4952  -30.2587 C   0  0  0  0  0  0  0  0  0  0  0  0
   13.9627    2.7236  -28.6835 C   0  0  0  0  0  0  0  0  0  0  0  0
   16.3370    2.4254  -28.1419 C   0  0  0  0  0  0  0  0  0  0  0  0
   15.9054    1.5254  -27.1837 C   0  0  0  0  0  0  0  0  0  0  0  0
   16.7590    0.6658  -26.5414 C   0  0  0  0  0  0  0  0  0  0  0  0
   17.6739    2.4612  -28.4647 C   0  0  0  0  0  0  0  0  0  0  0  0
   18.5414    1.5867  -27.8111 C   0  0  0  0  0  0  0  0  0  0  0  0
   18.0991    0.6960  -26.8594 C   0  0  0  0  0  0  0  0  0  0  0  0
   19.0246   -0.1488  -26.2469 O   0  0  0  0  0  0  0  0  0  0  0  0
  1  2  1  0
  2  3  2  0
  2  5  1  0
  3  4  1  0
  4  7  2  0
  5  6  2  0
  6  7  1  0
  7  8  1  0
  8  9  1  6
  8 10  1  0
  8 11  1  0
 11 12  2  0
 11 14  1  0
 12 13  1  0
 13 16  2  0
 14 15  2  0
 15 16  1  0
 16 17  1  0
M  END
$$$$
