
     RDKit          3D

 17 18  0  0  0  0  0  0  0  0999 V2000
   16.3050    2.8624  -33.2086 O   0  0  0  0  0  0  0  0  0  0  0  0
   16.1615    3.0206  -31.8448 C   0  0  0  0  0  0  0  0  0  0  0  0
   16.9687    2.3069  -30.9504 C   0  0  0  0  0  0  0  0  0  0  0  0
   16.8039    2.4842  -29.6011 C   0  0  0  0  0  0  0  0  0  0  0  0
   15.2093    3.8932  -31.3949 C   0  0  0  0  0  0  0  0  0  0  0  0
   15.0742    4.0441  -30.0180 C   0  0  0  0  0  0  0  0  0  0  0  0
   15.8396    3.3684  -29.1194 C   0  0  0  0  0  0  0  0  0  0  0  0
   15.6842    3.5410  -27.6439 C   0  0  2  0  0  0  0  0  0  0  0  0
   16.9229    2.9952  -26.9504 C   0  0  0  0  0  0  0  0  0  0  0  0
   14.5170    2.6938  -27.1955 C   0  0  0  0  0  0  0  0  0  0  0  0
   15.4642    4.9545  -27.3038 C   0  0  0  0  0  0  0  0  0  0  0  0
   16.4495    5.6362  -26.6118 C   0  0  0  0  0  0  0  0  0  0  0  0
   16.3236    6.9544  -26.2563 C   0  0  0  0  0  0  0  0  0  0  0  0
   14.3125    5.6229  -27.6498 C   0  0  0  0  0  0  0  0  0  0  0  0
   14.1852    6.9634  -27.2880 C   0  0  0  0  0  0  0  0  0  0  0  0
   15.1732    7.6303  -26.5994 C   0  0  0  0  0  0  0  0  0  0  0  0
   14.9764    8.9714  -26.2710 O   0  0  0  0  0  0  0  0  0  0  0  0
  1  2  1  0
  2  3  2  0
  2  5  1  0
  3  4  1  0
  4  7  2  0
  5  6  2  0
  6  7  1  0
  7  8  1  0
  8  9  1  1
  8 10  1  0
  8 11  1  0
 11 12  2  0
 11 14  1  0
 12 13  1  0
 13 16  2  0
 14 15  2  0
 15 16  1  0
 16 17  1  0
M  END
$$$$
