
     RDKit          3D

 17 18  0  0  0  0  0  0  0  0999 V2000
   14.5326    7.8270  -26.4795 O   0  0  0  0  0  0  0  0  0  0  0  0
   14.9870    6.6696  -27.0792 C   0  0  0  0  0  0  0  0  0  0  0  0
   14.7276    5.4166  -26.5101 C   0  0  0  0  0  0  0  0  0  0  0  0
   15.1912    4.2841  -27.1278 C   0  0  0  0  0  0  0  0  0  0  0  0
   15.6965    6.7835  -28.2429 C   0  0  0  0  0  0  0  0  0  0  0  0
   16.1491    5.6097  -28.8379 C   0  0  0  0  0  0  0  0  0  0  0  0
   15.9168    4.3759  -28.3148 C   0  0  0  0  0  0  0  0  0  0  0  0
   16.4080    3.1241  -28.9650 C   0  0  2  0  0  0  0  0  0  0  0  0
   17.9023    3.2531  -29.2171 C   0  0  0  0  0  0  0  0  0  0  0  0
   15.7404    3.0065  -30.3147 C   0  0  0  0  0  0  0  0  0  0  0  0
   16.1092    1.9506  -28.1310 C   0  0  0  0  0  0  0  0  0  0  0  0
   14.9292    1.2609  -28.3465 C   0  0  0  0  0  0  0  0  0  0  0  0
   14.5753    0.1575  -27.6135 C   0  0  0  0  0  0  0  0  0  0  0  0
   16.9624    1.5143  -27.1438 C   0  0  0  0  0  0  0  0  0  0  0  0
   16.6019    0.3921  -26.3989 C   0  0  0  0  0  0  0  0  0  0  0  0
   15.4246   -0.2852  -26.6232 C   0  0  0  0  0  0  0  0  0  0  0  0
   15.1298   -1.4001  -25.8387 O   0  0  0  0  0  0  0  0  0  0  0  0
  1  2  1  0
  2  3  2  0
  2  5  1  0
  3  4  1  0
  4  7  2  0
  5  6  2  0
  6  7  1  0
  7  8  1  0
  8  9  1  6
  8 10  1  0
  8 11  1  0
 11 12  2  0
 11 14  1  0
 12 13  1  0
 13 16  2  0
 14 15  2  0
 15 16  1  0
 16 17  1  0
M  END
$$$$
