
     RDKit          3D

 17 18  0  0  0  0  0  0  0  0999 V2000
   15.1207    8.3308  -26.3960 O   0  0  0  0  0  0  0  0  0  0  0  0
   15.3936    7.1181  -26.9965 C   0  0  0  0  0  0  0  0  0  0  0  0
   14.4781    6.5319  -27.8792 C   0  0  0  0  0  0  0  0  0  0  0  0
   14.7759    5.3269  -28.4609 C   0  0  0  0  0  0  0  0  0  0  0  0
   16.5823    6.5081  -26.7037 C   0  0  0  0  0  0  0  0  0  0  0  0
   16.8459    5.2861  -27.3153 C   0  0  0  0  0  0  0  0  0  0  0  0
   15.9815    4.6866  -28.1774 C   0  0  0  0  0  0  0  0  0  0  0  0
   16.2782    3.3749  -28.8274 C   0  0  2  0  0  0  0  0  0  0  0  0
   17.6358    3.4577  -29.5080 C   0  0  0  0  0  0  0  0  0  0  0  0
   15.2524    3.1496  -29.9128 C   0  0  0  0  0  0  0  0  0  0  0  0
   16.2435    2.2841  -27.8421 C   0  0  0  0  0  0  0  0  0  0  0  0
   15.0340    1.6714  -27.5661 C   0  0  0  0  0  0  0  0  0  0  0  0
   14.9149    0.6478  -26.6617 C   0  0  0  0  0  0  0  0  0  0  0  0
   17.3721    1.8513  -27.1849 C   0  0  0  0  0  0  0  0  0  0  0  0
   17.2503    0.8103  -26.2653 C   0  0  0  0  0  0  0  0  0  0  0  0
   16.0407    0.2092  -25.9997 C   0  0  0  0  0  0  0  0  0  0  0  0
   15.9947   -0.8268  -25.0670 O   0  0  0  0  0  0  0  0  0  0  0  0
  1  2  1  0
  2  3  2  0
  2  5  1  0
  3  4  1  0
  4  7  2  0
  5  6  2  0
  6  7  1  0
  7  8  1  0
  8  9  1  6
  8 10  1  0
  8 11  1  0
 11 12  2  0
 11 14  1  0
 12 13  1  0
 13 16  2  0
 14 15  2  0
 15 16  1  0
 16 17  1  0
M  END
$$$$
