
     RDKit          3D

 17 18  0  0  0  0  0  0  0  0999 V2000
   16.1131   -0.7573  -25.3706 O   0  0  0  0  0  0  0  0  0  0  0  0
   16.2302    0.2832  -26.2703 C   0  0  0  0  0  0  0  0  0  0  0  0
   15.1327    0.6983  -27.0346 C   0  0  0  0  0  0  0  0  0  0  0  0
   15.2783    1.7345  -27.9201 C   0  0  0  0  0  0  0  0  0  0  0  0
   17.4475    0.8948  -26.3920 C   0  0  0  0  0  0  0  0  0  0  0  0
   17.5529    1.9424  -27.3021 C   0  0  0  0  0  0  0  0  0  0  0  0
   16.5098    2.3728  -28.0612 C   0  0  0  0  0  0  0  0  0  0  0  0
   16.6372    3.4995  -29.0336 C   0  0  2  0  0  0  0  0  0  0  0  0
   15.7113    3.2407  -30.2122 C   0  0  0  0  0  0  0  0  0  0  0  0
   18.0487    3.4946  -29.5709 C   0  0  0  0  0  0  0  0  0  0  0  0
   16.3290    4.7840  -28.3879 C   0  0  0  0  0  0  0  0  0  0  0  0
   15.1443    5.4243  -28.7059 C   0  0  0  0  0  0  0  0  0  0  0  0
   14.7817    6.6238  -28.1494 C   0  0  0  0  0  0  0  0  0  0  0  0
   17.1777    5.3715  -27.4783 C   0  0  0  0  0  0  0  0  0  0  0  0
   16.8082    6.5912  -26.9127 C   0  0  0  0  0  0  0  0  0  0  0  0
   15.6265    7.2180  -27.2377 C   0  0  0  0  0  0  0  0  0  0  0  0
   15.3227    8.4370  -26.6319 O   0  0  0  0  0  0  0  0  0  0  0  0
  1  2  1  0
  2  3  2  0
  2  5  1  0
  3  4  1  0
  4  7  2  0
  5  6  2  0
  6  7  1  0
  7  8  1  0
  8  9  1  6
  8 10  1  0
  8 11  1  0
 11 12  2  0
 11 14  1  0
 12 13  1  0
 13 16  2  0
 14 15  2  0
 15 16  1  0
 16 17  1  0
M  END
$$$$
