
     RDKit          3D

 17 18  0  0  0  0  0  0  0  0999 V2000
   15.1165    8.9539  -26.3179 O   0  0  0  0  0  0  0  0  0  0  0  0
   15.3254    7.6492  -26.7178 C   0  0  0  0  0  0  0  0  0  0  0  0
   14.3960    6.9904  -27.5322 C   0  0  0  0  0  0  0  0  0  0  0  0
   14.6298    5.6947  -27.9139 C   0  0  0  0  0  0  0  0  0  0  0  0
   16.4648    7.0214  -26.2956 C   0  0  0  0  0  0  0  0  0  0  0  0
   16.6641    5.7064  -26.7055 C   0  0  0  0  0  0  0  0  0  0  0  0
   15.7843    5.0346  -27.4956 C   0  0  0  0  0  0  0  0  0  0  0  0
   16.0118    3.6232  -27.9287 C   0  0  2  0  0  0  0  0  0  0  0  0
   14.8829    2.7554  -27.3944 C   0  0  0  0  0  0  0  0  0  0  0  0
   17.2873    3.1368  -27.2824 C   0  0  0  0  0  0  0  0  0  0  0  0
   16.1024    3.5346  -29.3936 C   0  0  0  0  0  0  0  0  0  0  0  0
   15.0085    3.0727  -30.1038 C   0  0  0  0  0  0  0  0  0  0  0  0
   15.0103    2.9596  -31.4702 C   0  0  0  0  0  0  0  0  0  0  0  0
   17.2372    3.8954  -30.0828 C   0  0  0  0  0  0  0  0  0  0  0  0
   17.2383    3.7802  -31.4724 C   0  0  0  0  0  0  0  0  0  0  0  0
   16.1431    3.3189  -32.1672 C   0  0  0  0  0  0  0  0  0  0  0  0
   16.2165    3.2304  -33.5571 O   0  0  0  0  0  0  0  0  0  0  0  0
  1  2  1  0
  2  3  2  0
  2  5  1  0
  3  4  1  0
  4  7  2  0
  5  6  2  0
  6  7  1  0
  7  8  1  0
  8  9  1  1
  8 10  1  0
  8 11  1  0
 11 12  2  0
 11 14  1  0
 12 13  1  0
 13 16  2  0
 14 15  2  0
 15 16  1  0
 16 17  1  0
M  END
$$$$
