
     RDKit          3D

 17 18  0  0  0  0  0  0  0  0999 V2000
   15.3241    2.6434  -33.3708 O   0  0  0  0  0  0  0  0  0  0  0  0
   15.5743    2.8865  -32.0352 C   0  0  0  0  0  0  0  0  0  0  0  0
   16.7933    3.4382  -31.6220 C   0  0  0  0  0  0  0  0  0  0  0  0
   17.0141    3.6689  -30.2889 C   0  0  0  0  0  0  0  0  0  0  0  0
   14.5980    2.5730  -31.1301 C   0  0  0  0  0  0  0  0  0  0  0  0
   14.8621    2.8228  -29.7867 C   0  0  0  0  0  0  0  0  0  0  0  0
   16.0334    3.3572  -29.3482 C   0  0  0  0  0  0  0  0  0  0  0  0
   16.3028    3.6209  -27.9028 C   0  0  2  0  0  0  0  0  0  0  0  0
   17.7534    3.2775  -27.6010 C   0  0  0  0  0  0  0  0  0  0  0  0
   15.4470    2.6790  -27.0894 C   0  0  0  0  0  0  0  0  0  0  0  0
   16.0063    5.0204  -27.5632 C   0  0  0  0  0  0  0  0  0  0  0  0
   16.8319    5.6805  -26.6704 C   0  0  0  0  0  0  0  0  0  0  0  0
   16.6258    6.9846  -26.3007 C   0  0  0  0  0  0  0  0  0  0  0  0
   14.9363    5.6966  -28.1025 C   0  0  0  0  0  0  0  0  0  0  0  0
   14.7273    7.0228  -27.7261 C   0  0  0  0  0  0  0  0  0  0  0  0
   15.5563    7.6681  -26.8366 C   0  0  0  0  0  0  0  0  0  0  0  0
   15.2857    8.9959  -26.5065 O   0  0  0  0  0  0  0  0  0  0  0  0
  1  2  1  0
  2  3  2  0
  2  5  1  0
  3  4  1  0
  4  7  2  0
  5  6  2  0
  6  7  1  0
  7  8  1  0
  8  9  1  6
  8 10  1  0
  8 11  1  0
 11 12  2  0
 11 14  1  0
 12 13  1  0
 13 16  2  0
 14 15  2  0
 15 16  1  0
 16 17  1  0
M  END
$$$$
