
     RDKit          3D

 17 18  0  0  0  0  0  0  0  0999 V2000
   15.2411    8.4968  -26.7279 O   0  0  0  0  0  0  0  0  0  0  0  0
   15.5038    7.2583  -27.2783 C   0  0  0  0  0  0  0  0  0  0  0  0
   14.6416    6.6975  -28.2287 C   0  0  0  0  0  0  0  0  0  0  0  0
   14.9278    5.4660  -28.7583 C   0  0  0  0  0  0  0  0  0  0  0  0
   16.6288    6.5974  -26.8683 C   0  0  0  0  0  0  0  0  0  0  0  0
   16.8828    5.3499  -27.4304 C   0  0  0  0  0  0  0  0  0  0  0  0
   16.0690    4.7738  -28.3552 C   0  0  0  0  0  0  0  0  0  0  0  0
   16.3546    3.4341  -28.9510 C   0  0  2  0  0  0  0  0  0  0  0  0
   17.6607    3.5079  -29.7268 C   0  0  0  0  0  0  0  0  0  0  0  0
   15.2642    3.1255  -29.9494 C   0  0  0  0  0  0  0  0  0  0  0  0
   16.4143    2.4004  -27.9071 C   0  0  0  0  0  0  0  0  0  0  0  0
   17.6422    1.8550  -27.5764 C   0  0  0  0  0  0  0  0  0  0  0  0
   17.7850    0.8875  -26.6154 C   0  0  0  0  0  0  0  0  0  0  0  0
   15.2915    1.9566  -27.2474 C   0  0  0  0  0  0  0  0  0  0  0  0
   15.4374    0.9727  -26.2702 C   0  0  0  0  0  0  0  0  0  0  0  0
   16.6650    0.4381  -25.9507 C   0  0  0  0  0  0  0  0  0  0  0  0
   16.7348   -0.5432  -24.9620 O   0  0  0  0  0  0  0  0  0  0  0  0
  1  2  1  0
  2  3  2  0
  2  5  1  0
  3  4  1  0
  4  7  2  0
  5  6  2  0
  6  7  1  0
  7  8  1  0
  8  9  1  6
  8 10  1  0
  8 11  1  0
 11 12  2  0
 11 14  1  0
 12 13  1  0
 13 16  2  0
 14 15  2  0
 15 16  1  0
 16 17  1  0
M  END
$$$$
