
     RDKit          3D

 17 18  0  0  0  0  0  0  0  0999 V2000
   14.8475    8.9267  -26.9115 O   0  0  0  0  0  0  0  0  0  0  0  0
   15.1942    7.6340  -27.2498 C   0  0  0  0  0  0  0  0  0  0  0  0
   14.6107    6.9997  -28.3535 C   0  0  0  0  0  0  0  0  0  0  0  0
   14.9743    5.7154  -28.6659 C   0  0  0  0  0  0  0  0  0  0  0  0
   16.1224    6.9932  -26.4762 C   0  0  0  0  0  0  0  0  0  0  0  0
   16.4636    5.6905  -26.8274 C   0  0  0  0  0  0  0  0  0  0  0  0
   15.9185    5.0425  -27.8916 C   0  0  0  0  0  0  0  0  0  0  0  0
   16.2950    3.6441  -28.2574 C   0  0  2  0  0  0  0  0  0  0  0  0
   15.8806    2.7109  -27.1302 C   0  0  0  0  0  0  0  0  0  0  0  0
   17.8007    3.5771  -28.3559 C   0  0  0  0  0  0  0  0  0  0  0  0
   15.6708    3.2510  -29.5293 C   0  0  0  0  0  0  0  0  0  0  0  0
   14.3470    2.8486  -29.5275 C   0  0  0  0  0  0  0  0  0  0  0  0
   13.6905    2.4665  -30.6689 C   0  0  0  0  0  0  0  0  0  0  0  0
   16.3573    3.2695  -30.7214 C   0  0  0  0  0  0  0  0  0  0  0  0
   15.6891    2.8808  -31.8819 C   0  0  0  0  0  0  0  0  0  0  0  0
   14.3716    2.4824  -31.8664 C   0  0  0  0  0  0  0  0  0  0  0  0
   13.7680    2.1072  -33.0665 O   0  0  0  0  0  0  0  0  0  0  0  0
  1  2  1  0
  2  3  2  0
  2  5  1  0
  3  4  1  0
  4  7  2  0
  5  6  2  0
  6  7  1  0
  7  8  1  0
  8  9  1  1
  8 10  1  0
  8 11  1  0
 11 12  2  0
 11 14  1  0
 12 13  1  0
 13 16  2  0
 14 15  2  0
 15 16  1  0
 16 17  1  0
M  END
$$$$
