
     RDKit          3D

 17 18  0  0  0  0  0  0  0  0999 V2000
   14.8545    8.9546  -26.3313 O   0  0  0  0  0  0  0  0  0  0  0  0
   14.9957    7.6364  -26.7164 C   0  0  0  0  0  0  0  0  0  0  0  0
   13.9283    6.9396  -27.2961 C   0  0  0  0  0  0  0  0  0  0  0  0
   14.0974    5.6313  -27.6689 C   0  0  0  0  0  0  0  0  0  0  0  0
   16.2066    7.0333  -26.5149 C   0  0  0  0  0  0  0  0  0  0  0  0
   16.3365    5.7044  -26.9072 C   0  0  0  0  0  0  0  0  0  0  0  0
   15.3229    4.9959  -27.4731 C   0  0  0  0  0  0  0  0  0  0  0  0
   15.4769    3.5699  -27.8903 C   0  0  2  0  0  0  0  0  0  0  0  0
   14.1803    2.8290  -27.6021 C   0  0  0  0  0  0  0  0  0  0  0  0
   16.5455    2.9438  -27.0259 C   0  0  0  0  0  0  0  0  0  0  0  0
   15.8364    3.4780  -29.3131 C   0  0  0  0  0  0  0  0  0  0  0  0
   16.9515    2.7427  -29.6742 C   0  0  0  0  0  0  0  0  0  0  0  0
   17.3553    2.6069  -30.9774 C   0  0  0  0  0  0  0  0  0  0  0  0
   15.1024    4.0977  -30.2980 C   0  0  0  0  0  0  0  0  0  0  0  0
   15.5135    3.9591  -31.6231 C   0  0  0  0  0  0  0  0  0  0  0  0
   16.6252    3.2247  -31.9691 C   0  0  0  0  0  0  0  0  0  0  0  0
   16.9766    3.1298  -33.3155 O   0  0  0  0  0  0  0  0  0  0  0  0
  1  2  1  0
  2  3  2  0
  2  5  1  0
  3  4  1  0
  4  7  2  0
  5  6  2  0
  6  7  1  0
  7  8  1  0
  8  9  1  6
  8 10  1  0
  8 11  1  0
 11 12  2  0
 11 14  1  0
 12 13  1  0
 13 16  2  0
 14 15  2  0
 15 16  1  0
 16 17  1  0
M  END
$$$$
