
     RDKit          3D

 17 18  0  0  0  0  0  0  0  0999 V2000
   15.7579    2.9188  -33.4422 O   0  0  0  0  0  0  0  0  0  0  0  0
   15.8595    3.0903  -32.0762 C   0  0  0  0  0  0  0  0  0  0  0  0
   16.9038    3.8414  -31.5227 C   0  0  0  0  0  0  0  0  0  0  0  0
   16.9794    3.9950  -30.1626 C   0  0  0  0  0  0  0  0  0  0  0  0
   14.9118    2.5058  -31.2820 C   0  0  0  0  0  0  0  0  0  0  0  0
   15.0249    2.6860  -29.9067 C   0  0  0  0  0  0  0  0  0  0  0  0
   16.0245    3.4082  -29.3333 C   0  0  0  0  0  0  0  0  0  0  0  0
   16.1330    3.5941  -27.8551 C   0  0  2  0  0  0  0  0  0  0  0  0
   17.5317    3.1962  -27.4095 C   0  0  0  0  0  0  0  0  0  0  0  0
   15.1693    2.6381  -27.1928 C   0  0  0  0  0  0  0  0  0  0  0  0
   15.8308    4.9832  -27.4799 C   0  0  0  0  0  0  0  0  0  0  0  0
   14.7229    5.5991  -28.0347 C   0  0  0  0  0  0  0  0  0  0  0  0
   14.3712    6.8907  -27.7383 C   0  0  0  0  0  0  0  0  0  0  0  0
   16.6114    5.6921  -26.5961 C   0  0  0  0  0  0  0  0  0  0  0  0
   16.2530    7.0056  -26.2951 C   0  0  0  0  0  0  0  0  0  0  0  0
   15.1481    7.6068  -26.8541 C   0  0  0  0  0  0  0  0  0  0  0  0
   14.8507    8.9243  -26.5061 O   0  0  0  0  0  0  0  0  0  0  0  0
  1  2  1  0
  2  3  2  0
  2  5  1  0
  3  4  1  0
  4  7  2  0
  5  6  2  0
  6  7  1  0
  7  8  1  0
  8  9  1  1
  8 10  1  0
  8 11  1  0
 11 12  2  0
 11 14  1  0
 12 13  1  0
 13 16  2  0
 14 15  2  0
 15 16  1  0
 16 17  1  0
M  END
$$$$
