
     RDKit          3D

 17 18  0  0  0  0  0  0  0  0999 V2000
   15.8726    2.5831  -33.4922 O   0  0  0  0  0  0  0  0  0  0  0  0
   15.9795    2.8005  -32.1332 C   0  0  0  0  0  0  0  0  0  0  0  0
   17.0167    3.5829  -31.6107 C   0  0  0  0  0  0  0  0  0  0  0  0
   17.0978    3.7819  -30.2568 C   0  0  0  0  0  0  0  0  0  0  0  0
   15.0439    2.2300  -31.3147 C   0  0  0  0  0  0  0  0  0  0  0  0
   15.1623    2.4566  -29.9466 C   0  0  0  0  0  0  0  0  0  0  0  0
   16.1555    3.2102  -29.4031 C   0  0  0  0  0  0  0  0  0  0  0  0
   16.2696    3.4458  -27.9325 C   0  0  2  0  0  0  0  0  0  0  0  0
   17.6670    3.0539  -27.4774 C   0  0  0  0  0  0  0  0  0  0  0  0
   15.3016    2.5196  -27.2352 C   0  0  0  0  0  0  0  0  0  0  0  0
   15.9779    4.8490  -27.6042 C   0  0  0  0  0  0  0  0  0  0  0  0
   14.8663    5.4497  -28.1680 C   0  0  0  0  0  0  0  0  0  0  0  0
   14.5236    6.7529  -27.9144 C   0  0  0  0  0  0  0  0  0  0  0  0
   16.7718    5.5855  -26.7556 C   0  0  0  0  0  0  0  0  0  0  0  0
   16.4227    6.9107  -26.4980 C   0  0  0  0  0  0  0  0  0  0  0  0
   15.3139    7.4966  -27.0656 C   0  0  0  0  0  0  0  0  0  0  0  0
   15.0264    8.8272  -26.7620 O   0  0  0  0  0  0  0  0  0  0  0  0
  1  2  1  0
  2  3  2  0
  2  5  1  0
  3  4  1  0
  4  7  2  0
  5  6  2  0
  6  7  1  0
  7  8  1  0
  8  9  1  1
  8 10  1  0
  8 11  1  0
 11 12  2  0
 11 14  1  0
 12 13  1  0
 13 16  2  0
 14 15  2  0
 15 16  1  0
 16 17  1  0
M  END
$$$$
