
     RDKit          3D

 17 18  0  0  0  0  0  0  0  0999 V2000
   14.8837    8.8932  -26.2412 O   0  0  0  0  0  0  0  0  0  0  0  0
   15.1246    7.5882  -26.6215 C   0  0  0  0  0  0  0  0  0  0  0  0
   16.2598    6.9058  -26.1669 C   0  0  0  0  0  0  0  0  0  0  0  0
   16.4732    5.6103  -26.5609 C   0  0  0  0  0  0  0  0  0  0  0  0
   14.2231    6.9836  -27.4537 C   0  0  0  0  0  0  0  0  0  0  0  0
   14.4769    5.6680  -27.8298 C   0  0  0  0  0  0  0  0  0  0  0  0
   15.5679    4.9736  -27.4088 C   0  0  0  0  0  0  0  0  0  0  0  0
   15.8271    3.5612  -27.8200 C   0  0  2  0  0  0  0  0  0  0  0  0
   14.7264    2.6744  -27.2587 C   0  0  0  0  0  0  0  0  0  0  0  0
   17.1212    3.1188  -27.1791 C   0  0  0  0  0  0  0  0  0  0  0  0
   15.9049    3.4494  -29.2840 C   0  0  0  0  0  0  0  0  0  0  0  0
   14.7593    3.1304  -29.9914 C   0  0  0  0  0  0  0  0  0  0  0  0
   14.7459    3.0068  -31.3568 C   0  0  0  0  0  0  0  0  0  0  0  0
   17.0772    3.6513  -29.9751 C   0  0  0  0  0  0  0  0  0  0  0  0
   17.0628    3.5256  -31.3637 C   0  0  0  0  0  0  0  0  0  0  0  0
   15.9161    3.2075  -32.0557 C   0  0  0  0  0  0  0  0  0  0  0  0
   15.9769    3.0986  -33.4448 O   0  0  0  0  0  0  0  0  0  0  0  0
  1  2  1  0
  2  3  2  0
  2  5  1  0
  3  4  1  0
  4  7  2  0
  5  6  2  0
  6  7  1  0
  7  8  1  0
  8  9  1  1
  8 10  1  0
  8 11  1  0
 11 12  2  0
 11 14  1  0
 12 13  1  0
 13 16  2  0
 14 15  2  0
 15 16  1  0
 16 17  1  0
M  END
$$$$
