
     RDKit          3D

 17 18  0  0  0  0  0  0  0  0999 V2000
   14.8956    8.6121  -26.5202 O   0  0  0  0  0  0  0  0  0  0  0  0
   15.2787    7.3365  -26.8832 C   0  0  0  0  0  0  0  0  0  0  0  0
   16.3746    6.7148  -26.2719 C   0  0  0  0  0  0  0  0  0  0  0  0
   16.7321    5.4473  -26.6524 C   0  0  0  0  0  0  0  0  0  0  0  0
   14.5574    6.7000  -27.8554 C   0  0  0  0  0  0  0  0  0  0  0  0
   14.9533    5.4145  -28.2125 C   0  0  0  0  0  0  0  0  0  0  0  0
   16.0116    4.7791  -27.6414 C   0  0  0  0  0  0  0  0  0  0  0  0
   16.4247    3.3983  -28.0340 C   0  0  2  0  0  0  0  0  0  0  0  0
   15.9074    2.4148  -26.9957 C   0  0  0  0  0  0  0  0  0  0  0  0
   17.9331    3.3332  -27.9920 C   0  0  0  0  0  0  0  0  0  0  0  0
   15.9252    3.0657  -29.3763 C   0  0  0  0  0  0  0  0  0  0  0  0
   16.5821    3.5802  -30.4800 C   0  0  0  0  0  0  0  0  0  0  0  0
   16.1815    3.3190  -31.7650 C   0  0  0  0  0  0  0  0  0  0  0  0
   14.8273    2.2603  -29.5730 C   0  0  0  0  0  0  0  0  0  0  0  0
   14.4205    1.9950  -30.8801 C   0  0  0  0  0  0  0  0  0  0  0  0
   15.0828    2.5133  -31.9698 C   0  0  0  0  0  0  0  0  0  0  0  0
   14.6188    2.2050  -33.2484 O   0  0  0  0  0  0  0  0  0  0  0  0
  1  2  1  0
  2  3  2  0
  2  5  1  0
  3  4  1  0
  4  7  2  0
  5  6  2  0
  6  7  1  0
  7  8  1  0
  8  9  1  1
  8 10  1  0
  8 11  1  0
 11 12  2  0
 11 14  1  0
 12 13  1  0
 13 16  2  0
 14 15  2  0
 15 16  1  0
 16 17  1  0
M  END
$$$$
