
     RDKit          3D

 17 18  0  0  0  0  0  0  0  0999 V2000
   15.6477    2.9927  -33.2352 O   0  0  0  0  0  0  0  0  0  0  0  0
   15.7427    3.1345  -31.8654 C   0  0  0  0  0  0  0  0  0  0  0  0
   14.7532    2.6178  -31.0198 C   0  0  0  0  0  0  0  0  0  0  0  0
   14.8739    2.7734  -29.6632 C   0  0  0  0  0  0  0  0  0  0  0  0
   16.8298    3.7931  -31.3604 C   0  0  0  0  0  0  0  0  0  0  0  0
   16.9143    3.9295  -29.9780 C   0  0  0  0  0  0  0  0  0  0  0  0
   15.9734    3.4414  -29.1259 C   0  0  0  0  0  0  0  0  0  0  0  0
   16.0776    3.5944  -27.6436 C   0  0  2  0  0  0  0  0  0  0  0  0
   17.4170    3.0398  -27.1837 C   0  0  0  0  0  0  0  0  0  0  0  0
   15.0046    2.7410  -27.0101 C   0  0  0  0  0  0  0  0  0  0  0  0
   15.9231    5.0031  -27.2519 C   0  0  0  0  0  0  0  0  0  0  0  0
   14.8449    5.7184  -27.7422 C   0  0  0  0  0  0  0  0  0  0  0  0
   14.6279    7.0348  -27.4262 C   0  0  0  0  0  0  0  0  0  0  0  0
   16.8133    5.6349  -26.4146 C   0  0  0  0  0  0  0  0  0  0  0  0
   16.5920    6.9736  -26.0936 C   0  0  0  0  0  0  0  0  0  0  0  0
   15.5152    7.6741  -26.5883 C   0  0  0  0  0  0  0  0  0  0  0  0
   15.3574    9.0111  -26.2240 O   0  0  0  0  0  0  0  0  0  0  0  0
  1  2  1  0
  2  3  2  0
  2  5  1  0
  3  4  1  0
  4  7  2  0
  5  6  2  0
  6  7  1  0
  7  8  1  0
  8  9  1  1
  8 10  1  0
  8 11  1  0
 11 12  2  0
 11 14  1  0
 12 13  1  0
 13 16  2  0
 14 15  2  0
 15 16  1  0
 16 17  1  0
M  END
$$$$
