
     RDKit          3D

 17 18  0  0  0  0  0  0  0  0999 V2000
   15.0123    8.1991  -26.4550 O   0  0  0  0  0  0  0  0  0  0  0  0
   15.2864    6.9877  -27.0576 C   0  0  0  0  0  0  0  0  0  0  0  0
   14.3269    6.3475  -27.8517 C   0  0  0  0  0  0  0  0  0  0  0  0
   14.6269    5.1452  -28.4378 C   0  0  0  0  0  0  0  0  0  0  0  0
   16.5202    6.4331  -26.8558 C   0  0  0  0  0  0  0  0  0  0  0  0
   16.7845    5.2118  -27.4686 C   0  0  0  0  0  0  0  0  0  0  0  0
   15.8782    4.5609  -28.2462 C   0  0  0  0  0  0  0  0  0  0  0  0
   16.1760    3.2506  -28.8986 C   0  0  2  0  0  0  0  0  0  0  0  0
   17.6500    3.2090  -29.2711 C   0  0  0  0  0  0  0  0  0  0  0  0
   15.3921    3.1826  -30.1878 C   0  0  0  0  0  0  0  0  0  0  0  0
   15.8203    2.1330  -28.0119 C   0  0  0  0  0  0  0  0  0  0  0  0
   16.6573    1.8276  -26.9533 C   0  0  0  0  0  0  0  0  0  0  0  0
   16.3988    0.8022  -26.0805 C   0  0  0  0  0  0  0  0  0  0  0  0
   14.6839    1.3802  -28.1982 C   0  0  0  0  0  0  0  0  0  0  0  0
   14.4216    0.3376  -27.3102 C   0  0  0  0  0  0  0  0  0  0  0  0
   15.2627    0.0441  -26.2608 C   0  0  0  0  0  0  0  0  0  0  0  0
   14.9362   -1.0138  -25.4125 O   0  0  0  0  0  0  0  0  0  0  0  0
  1  2  1  0
  2  3  2  0
  2  5  1  0
  3  4  1  0
  4  7  2  0
  5  6  2  0
  6  7  1  0
  7  8  1  0
  8  9  1  6
  8 10  1  0
  8 11  1  0
 11 12  2  0
 11 14  1  0
 12 13  1  0
 13 16  2  0
 14 15  2  0
 15 16  1  0
 16 17  1  0
M  END
$$$$
