
     RDKit          3D

 63 63  0  0  0  0  0  0  0  0999 V2000
  -13.3513  -29.9629   18.4592 C   0  0  2  0  0  0  0  0  0  0  0  0
  -13.9949  -31.1030   17.6839 C   0  0  2  0  0  0  0  0  0  0  0  0
  -14.7281  -30.5756   16.4239 C   0  0  2  0  0  0  0  0  0  0  0  0
  -15.1673  -29.0949   16.6147 C   0  0  2  0  0  0  0  0  0  0  0  0
  -14.4687  -28.9684   18.9058 C   0  0  1  0  0  0  0  0  0  0  0  0
   -4.4422  -20.0543   30.7583 C   0  0  0  0  0  0  0  0  0  0  0  0
   -4.3563  -19.7868   29.2624 C   0  0  0  0  0  0  0  0  0  0  0  0
   -5.4927  -18.8768   28.7937 C   0  0  0  0  0  0  0  0  0  0  0  0
   -5.4200  -18.5319   27.3053 C   0  0  0  0  0  0  0  0  0  0  0  0
   -6.5692  -17.6917   26.7356 C   0  0  0  0  0  0  0  0  0  0  0  0
   -7.7462  -18.5051   26.1846 C   0  0  0  0  0  0  0  0  0  0  0  0
   -7.8329  -18.4764   24.6563 C   0  0  0  0  0  0  0  0  0  0  0  0
   -8.9825  -19.3486   24.1451 C   0  0  0  0  0  0  0  0  0  0  0  0
   -9.1682  -19.2907   22.6249 C   0  0  0  0  0  0  0  0  0  0  0  0
  -10.2587  -20.1909   22.0328 C   0  0  0  0  0  0  0  0  0  0  0  0
  -10.6177  -19.9314   20.5663 C   0  0  0  0  0  0  0  0  0  0  0  0
  -11.6257  -20.9087   19.9646 C   0  0  0  0  0  0  0  0  0  0  0  0
  -11.1054  -22.3481   20.0305 C   0  0  0  0  0  0  0  0  0  0  0  0
  -12.2534  -23.3647   20.0842 C   0  0  0  0  0  0  0  0  0  0  0  0
  -11.9769  -24.5225   21.0679 C   0  0  1  0  0  0  0  0  0  0  0  0
  -12.2841  -24.0850   22.3934 O   0  0  0  0  0  0  0  0  0  0  0  0
  -12.8110  -25.7915   20.7269 C   0  0  1  0  0  0  0  0  0  0  0  0
  -12.7740  -26.7017   21.8423 O   0  0  0  0  0  0  0  0  0  0  0  0
  -14.3057  -25.5246   20.3744 C   0  0  2  0  0  0  0  0  0  0  0  0
  -14.9447  -26.7383   19.6596 C   0  0  0  0  0  0  0  0  0  0  0  0
  -13.9573  -27.6605   19.1899 O   0  0  0  0  0  0  0  0  0  0  0  0
  -12.3490  -29.3434   17.6348 O   0  0  0  0  0  0  0  0  0  0  0  0
  -14.8834  -31.8262   18.5489 O   0  0  0  0  0  0  0  0  0  0  0  0
  -15.5557  -28.8454   17.9727 O   0  0  0  0  0  0  0  0  0  0  0  0
  -16.2875  -28.6001   15.6840 C   0  0  0  0  0  0  0  0  0  0  0  0
  -17.4898  -28.2653   16.3703 O   0  0  0  0  0  0  0  0  0  0  0  0
  -15.8071  -31.5023   16.1997 O   0  0  0  0  0  0  0  0  0  0  0  0
  -15.4384  -32.6724   15.4714 C   0  0  0  0  0  0  0  0  0  0  0  0
  -15.8423  -32.5309   14.0052 C   0  0  0  0  0  0  0  0  0  0  0  0
  -15.0357  -33.4539   13.1098 C   0  0  0  0  0  0  0  0  0  0  0  0
  -14.5317  -24.3191   19.5862 N   0  0  0  0  0  0  0  0  0  0  0  0
  -13.6083  -23.8704   18.6676 C   0  0  0  0  0  0  0  0  0  0  0  0
  -12.8155  -24.6129   18.0968 O   0  0  0  0  0  0  0  0  0  0  0  0
  -13.6573  -22.3668   18.4688 C   0  0  0  0  0  0  0  0  0  0  0  0
  -12.9524  -21.9403   17.1827 C   0  0  0  0  0  0  0  0  0  0  0  0
  -12.0342  -20.7285   17.3563 C   0  0  0  0  0  0  0  0  0  0  0  0
  -10.7605  -20.7849   16.5076 C   0  0  0  0  0  0  0  0  0  0  0  0
   -9.9061  -19.5150   16.6309 C   0  0  0  0  0  0  0  0  0  0  0  0
   -8.5624  -19.5640   15.8916 C   0  0  0  0  0  0  0  0  0  0  0  0
   -7.7350  -18.2782   16.0126 C   0  0  0  0  0  0  0  0  0  0  0  0
   -6.2516  -18.5693   16.2581 C   0  0  0  0  0  0  0  0  0  0  0  0
   -5.5754  -19.2666   15.0734 C   0  0  0  0  0  0  0  0  0  0  0  0
   -6.1462  -20.6439   14.7169 C   0  0  0  0  0  0  0  0  0  0  0  0
   -5.4097  -21.3078   13.5507 C   0  0  0  0  0  0  0  0  0  0  0  0
   -5.9202  -22.7290   13.2989 C   0  0  0  0  0  0  0  0  0  0  0  0
   -5.1982  -23.4263   12.1418 C   0  0  0  0  0  0  0  0  0  0  0  0
   -5.6912  -24.8510   11.8759 C   0  0  0  0  0  0  0  0  0  0  0  0
   -4.7426  -25.5906   10.9262 C   0  0  0  0  0  0  0  0  0  0  0  0
   -5.3529  -25.8466    9.5454 C   0  0  0  0  0  0  0  0  0  0  0  0
   -5.4284  -27.3373    9.2056 C   0  0  0  0  0  0  0  0  0  0  0  0
   -6.7955  -27.9259    9.5693 C   0  0  0  0  0  0  0  0  0  0  0  0
   -7.4705  -28.6413    8.3950 C   0  0  0  0  0  0  0  0  0  0  0  0
   -7.6864  -30.1475    8.5708 C   0  0  0  0  0  0  0  0  0  0  0  0
   -9.1283  -30.5507    8.8718 C   0  0  0  0  0  0  0  0  0  0  0  0
   -9.6466  -31.6552    7.9460 C   0  0  0  0  0  0  0  0  0  0  0  0
   -9.2928  -33.0647    8.4358 C   0  0  0  0  0  0  0  0  0  0  0  0
   -9.8669  -34.1651    7.5451 C   0  0  0  0  0  0  0  0  0  0  0  0
   -9.4909  -35.5446    8.0615 C   0  0  0  0  0  0  0  0  0  0  0  0
  1  2  1  0
  5  1  1  0
  1 27  1  6
  2  3  1  0
  2 28  1  1
  4  3  1  0
  3 32  1  1
 29  4  1  0
  4 30  1  6
  5 26  1  6
  5 29  1  0
  7  6  1  0
  8  7  1  0
  9  8  1  0
 10  9  1  0
 11 10  1  0
 12 11  1  0
 13 12  1  0
 14 13  1  0
 15 14  1  0
 16 15  1  0
 17 16  1  0
 18 17  1  0
 19 18  1  0
 20 19  1  0
 20 21  1  1
 22 20  1  0
 22 23  1  1
 24 22  1  0
 24 25  1  6
 24 36  1  0
 25 26  1  0
 30 31  1  0
 32 33  1  0
 33 34  1  0
 34 35  1  0
 36 37  1  0
 37 38  2  0
 37 39  1  0
 39 40  1  0
 40 41  1  0
 41 42  1  0
 42 43  1  0
 43 44  1  0
 44 45  1  0
 45 46  1  0
 46 47  1  0
 47 48  1  0
 48 49  1  0
 49 50  1  0
 50 51  1  0
 51 52  1  0
 52 53  1  0
 53 54  1  0
 54 55  1  0
 55 56  1  0
 56 57  1  0
 57 58  1  0
 58 59  1  0
 59 60  1  0
 60 61  1  0
 61 62  1  0
 62 63  1  0
M  END
$$$$
