
     RDKit          3D

 63 63  0  0  0  0  0  0  0  0999 V2000
  -14.3759  -28.4542   19.6018 C   0  0  2  0  0  0  0  0  0  0  0  0
  -15.3233  -29.2354   18.7033 C   0  0  2  0  0  0  0  0  0  0  0  0
  -16.6418  -28.4538   18.4707 C   0  0  2  0  0  0  0  0  0  0  0  0
  -16.9248  -27.4771   19.6486 C   0  0  2  0  0  0  0  0  0  0  0  0
  -15.0723  -28.2198   20.9792 C   0  0  1  0  0  0  0  0  0  0  0  0
   -0.6410  -19.4177   24.9348 C   0  0  0  0  0  0  0  0  0  0  0  0
   -2.1174  -19.7839   24.8825 C   0  0  0  0  0  0  0  0  0  0  0  0
   -2.9621  -18.6176   24.3674 C   0  0  0  0  0  0  0  0  0  0  0  0
   -4.4604  -18.9231   24.3295 C   0  0  0  0  0  0  0  0  0  0  0  0
   -5.3687  -17.8442   23.7276 C   0  0  0  0  0  0  0  0  0  0  0  0
   -5.7135  -18.0491   22.2478 C   0  0  0  0  0  0  0  0  0  0  0  0
   -6.8579  -19.0424   22.0297 C   0  0  0  0  0  0  0  0  0  0  0  0
   -7.7191  -18.6478   20.8271 C   0  0  0  0  0  0  0  0  0  0  0  0
   -7.6429  -19.6432   19.6642 C   0  0  0  0  0  0  0  0  0  0  0  0
   -8.6602  -19.4549   18.5330 C   0  0  0  0  0  0  0  0  0  0  0  0
  -10.0453  -20.0650   18.7699 C   0  0  0  0  0  0  0  0  0  0  0  0
  -10.0487  -21.5611   19.0784 C   0  0  0  0  0  0  0  0  0  0  0  0
  -11.4791  -22.0953   19.2033 C   0  0  0  0  0  0  0  0  0  0  0  0
  -11.5168  -23.4570   19.9095 C   0  0  0  0  0  0  0  0  0  0  0  0
  -11.8187  -23.3359   21.4190 C   0  0  1  0  0  0  0  0  0  0  0  0
  -12.1078  -21.9697   21.7236 O   0  0  0  0  0  0  0  0  0  0  0  0
  -13.0140  -24.2346   21.8503 C   0  0  1  0  0  0  0  0  0  0  0  0
  -14.0091  -23.4248   22.5045 O   0  0  0  0  0  0  0  0  0  0  0  0
  -13.7111  -25.0082   20.6905 C   0  0  2  0  0  0  0  0  0  0  0  0
  -14.9145  -25.8338   21.2030 C   0  0  0  0  0  0  0  0  0  0  0  0
  -14.5107  -27.1140   21.6967 O   0  0  0  0  0  0  0  0  0  0  0  0
  -14.0115  -27.2282   18.9443 O   0  0  0  0  0  0  0  0  0  0  0  0
  -15.5688  -30.5277   19.2781 O   0  0  0  0  0  0  0  0  0  0  0  0
  -16.4965  -28.0398   20.8966 O   0  0  0  0  0  0  0  0  0  0  0  0
  -18.3812  -27.0049   19.7962 C   0  0  0  0  0  0  0  0  0  0  0  0
  -19.1812  -27.8715   20.5947 O   0  0  0  0  0  0  0  0  0  0  0  0
  -17.6480  -29.4634   18.2673 O   0  0  0  0  0  0  0  0  0  0  0  0
  -17.8387  -29.8405   16.9046 C   0  0  0  0  0  0  0  0  0  0  0  0
  -16.6893  -30.7311   16.4373 C   0  0  0  0  0  0  0  0  0  0  0  0
  -16.8545  -31.1445   14.9861 C   0  0  0  0  0  0  0  0  0  0  0  0
  -12.8206  -25.8688   19.9211 N   0  0  0  0  0  0  0  0  0  0  0  0
  -13.0759  -26.1832   18.6043 C   0  0  0  0  0  0  0  0  0  0  0  0
  -14.1203  -25.8835   18.0341 O   0  0  0  0  0  0  0  0  0  0  0  0
  -11.9478  -26.9635   17.9552 C   0  0  0  0  0  0  0  0  0  0  0  0
  -11.0717  -26.0720   17.0776 C   0  0  0  0  0  0  0  0  0  0  0  0
  -11.5716  -25.9436   15.6370 C   0  0  0  0  0  0  0  0  0  0  0  0
  -10.7071  -26.6800   14.6093 C   0  0  0  0  0  0  0  0  0  0  0  0
   -9.4650  -25.8790   14.1928 C   0  0  0  0  0  0  0  0  0  0  0  0
   -9.1666  -25.8826   12.6876 C   0  0  0  0  0  0  0  0  0  0  0  0
   -7.6951  -25.6237   12.3414 C   0  0  0  0  0  0  0  0  0  0  0  0
   -6.7432  -26.2849   13.3426 C   0  0  0  0  0  0  0  0  0  0  0  0
   -5.4032  -26.6861   12.7177 C   0  0  0  0  0  0  0  0  0  0  0  0
   -4.3885  -27.2972   13.6907 C   0  0  0  0  0  0  0  0  0  0  0  0
   -3.0513  -27.6285   13.0232 C   0  0  0  0  0  0  0  0  0  0  0  0
   -2.9889  -29.0943   12.5859 C   0  0  0  0  0  0  0  0  0  0  0  0
   -3.5415  -29.3204   11.1752 C   0  0  0  0  0  0  0  0  0  0  0  0
   -3.4615  -30.7756   10.7071 C   0  0  0  0  0  0  0  0  0  0  0  0
   -4.1239  -30.9472    9.3358 C   0  0  0  0  0  0  0  0  0  0  0  0
   -5.3201  -31.9027    9.3610 C   0  0  0  0  0  0  0  0  0  0  0  0
   -6.3445  -31.5879    8.2678 C   0  0  0  0  0  0  0  0  0  0  0  0
   -5.8314  -30.5024    7.3157 C   0  0  0  0  0  0  0  0  0  0  0  0
   -6.7661  -30.2589    6.1268 C   0  0  0  0  0  0  0  0  0  0  0  0
   -7.1104  -31.4942    5.2892 C   0  0  0  0  0  0  0  0  0  0  0  0
   -7.1738  -31.2426    3.7842 C   0  0  0  0  0  0  0  0  0  0  0  0
   -7.4730  -32.5097    2.9776 C   0  0  0  0  0  0  0  0  0  0  0  0
   -8.1652  -32.2207    1.6401 C   0  0  0  0  0  0  0  0  0  0  0  0
   -9.6724  -32.4664    1.6855 C   0  0  0  0  0  0  0  0  0  0  0  0
  -10.3393  -32.0430    0.3867 C   0  0  0  0  0  0  0  0  0  0  0  0
  1  2  1  0
  5  1  1  0
  1 27  1  6
  2  3  1  0
  2 28  1  1
  4  3  1  0
  3 32  1  1
 29  4  1  0
  4 30  1  1
  5 26  1  6
  5 29  1  0
  7  6  1  0
  8  7  1  0
  9  8  1  0
 10  9  1  0
 11 10  1  0
 12 11  1  0
 13 12  1  0
 14 13  1  0
 15 14  1  0
 16 15  1  0
 17 16  1  0
 18 17  1  0
 19 18  1  0
 20 19  1  0
 20 21  1  6
 22 20  1  0
 22 23  1  6
 24 22  1  0
 24 25  1  1
 24 36  1  0
 25 26  1  0
 30 31  1  0
 32 33  1  0
 33 34  1  0
 34 35  1  0
 36 37  1  0
 37 38  2  0
 37 39  1  0
 39 40  1  0
 40 41  1  0
 41 42  1  0
 42 43  1  0
 43 44  1  0
 44 45  1  0
 45 46  1  0
 46 47  1  0
 47 48  1  0
 48 49  1  0
 49 50  1  0
 50 51  1  0
 51 52  1  0
 52 53  1  0
 53 54  1  0
 54 55  1  0
 55 56  1  0
 56 57  1  0
 57 58  1  0
 58 59  1  0
 59 60  1  0
 60 61  1  0
 61 62  1  0
 62 63  1  0
M  END
$$$$
