
     RDKit          3D

 63 63  0  0  0  0  0  0  0  0999 V2000
  -19.4129  -27.6754   20.2130 C   0  0  2  0  0  0  0  0  0  0  0  0
  -20.2371  -26.4227   20.4712 C   0  0  2  0  0  0  0  0  0  0  0  0
  -19.3255  -25.1785   20.6274 C   0  0  2  0  0  0  0  0  0  0  0  0
  -17.9067  -25.5866   21.1197 C   0  0  2  0  0  0  0  0  0  0  0  0
  -18.4545  -27.9020   21.4242 C   0  0  1  0  0  0  0  0  0  0  0  0
   -7.5524  -17.6889   10.6226 C   0  0  0  0  0  0  0  0  0  0  0  0
   -7.8344  -18.7629   11.6635 C   0  0  0  0  0  0  0  0  0  0  0  0
   -8.4785  -18.1679   12.9166 C   0  0  0  0  0  0  0  0  0  0  0  0
   -8.6514  -19.1805   14.0498 C   0  0  0  0  0  0  0  0  0  0  0  0
   -9.2051  -18.6437   15.3751 C   0  0  0  0  0  0  0  0  0  0  0  0
   -9.3177  -19.6875   16.4925 C   0  0  0  0  0  0  0  0  0  0  0  0
   -7.9620  -20.0824   17.0842 C   0  0  0  0  0  0  0  0  0  0  0  0
   -7.8395  -21.6007   17.2367 C   0  0  0  0  0  0  0  0  0  0  0  0
   -8.6931  -22.1747   18.3729 C   0  0  0  0  0  0  0  0  0  0  0  0
   -9.8180  -23.1342   17.9677 C   0  0  0  0  0  0  0  0  0  0  0  0
  -10.0108  -24.3582   18.8685 C   0  0  0  0  0  0  0  0  0  0  0  0
  -11.4639  -24.7009   19.1916 C   0  0  0  0  0  0  0  0  0  0  0  0
  -11.5812  -26.1128   19.7744 C   0  0  0  0  0  0  0  0  0  0  0  0
  -13.0424  -26.5740   19.8548 C   0  0  0  0  0  0  0  0  0  0  0  0
  -13.1805  -28.0266   20.3603 C   0  0  1  0  0  0  0  0  0  0  0  0
  -12.4347  -28.1666   21.5714 O   0  0  0  0  0  0  0  0  0  0  0  0
  -14.6656  -28.4205   20.6092 C   0  0  1  0  0  0  0  0  0  0  0  0
  -15.1960  -27.6275   21.6879 O   0  0  0  0  0  0  0  0  0  0  0  0
  -15.6089  -28.2512   19.3799 C   0  0  2  0  0  0  0  0  0  0  0  0
  -17.0365  -28.7614   19.6868 C   0  0  0  0  0  0  0  0  0  0  0  0
  -17.3276  -28.7199   21.0865 O   0  0  0  0  0  0  0  0  0  0  0  0
  -18.7118  -27.5257   18.9663 O   0  0  0  0  0  0  0  0  0  0  0  0
  -21.0604  -26.6239   21.6298 O   0  0  0  0  0  0  0  0  0  0  0  0
  -17.9779  -26.6899   22.0336 O   0  0  0  0  0  0  0  0  0  0  0  0
  -17.0703  -24.4679   21.7636 C   0  0  0  0  0  0  0  0  0  0  0  0
  -16.9761  -24.5731   23.1809 O   0  0  0  0  0  0  0  0  0  0  0  0
  -20.0411  -24.2950   21.5107 O   0  0  0  0  0  0  0  0  0  0  0  0
  -20.7909  -23.2781   20.8481 C   0  0  0  0  0  0  0  0  0  0  0  0
  -20.7982  -21.9989   21.6825 C   0  0  0  0  0  0  0  0  0  0  0  0
  -20.6220  -20.7640   20.8173 C   0  0  0  0  0  0  0  0  0  0  0  0
  -15.1199  -28.8751   18.1562 N   0  0  0  0  0  0  0  0  0  0  0  0
  -14.5676  -28.1330   17.1354 C   0  0  0  0  0  0  0  0  0  0  0  0
  -14.4506  -26.9124   17.1816 O   0  0  0  0  0  0  0  0  0  0  0  0
  -14.1566  -28.9809   15.9459 C   0  0  0  0  0  0  0  0  0  0  0  0
  -14.4591  -28.2851   14.6204 C   0  0  0  0  0  0  0  0  0  0  0  0
  -13.8910  -26.8673   14.5252 C   0  0  0  0  0  0  0  0  0  0  0  0
  -12.9879  -26.6381   13.3097 C   0  0  0  0  0  0  0  0  0  0  0  0
  -11.8483  -27.6628   13.2129 C   0  0  0  0  0  0  0  0  0  0  0  0
  -10.9848  -27.5539   11.9491 C   0  0  0  0  0  0  0  0  0  0  0  0
   -9.7803  -28.5032   11.9313 C   0  0  0  0  0  0  0  0  0  0  0  0
   -8.5148  -27.8177   11.4078 C   0  0  0  0  0  0  0  0  0  0  0  0
   -7.3064  -28.7576   11.3500 C   0  0  0  0  0  0  0  0  0  0  0  0
   -6.0078  -28.1175   10.8464 C   0  0  0  0  0  0  0  0  0  0  0  0
   -4.7605  -28.9061   11.2538 C   0  0  0  0  0  0  0  0  0  0  0  0
   -3.6071  -27.9755   11.6376 C   0  0  0  0  0  0  0  0  0  0  0  0
   -2.7808  -28.5032   12.8146 C   0  0  0  0  0  0  0  0  0  0  0  0
   -3.6231  -29.1363   13.9249 C   0  0  0  0  0  0  0  0  0  0  0  0
   -3.4679  -28.3629   15.2390 C   0  0  0  0  0  0  0  0  0  0  0  0
   -2.4854  -29.0210   16.2117 C   0  0  0  0  0  0  0  0  0  0  0  0
   -1.5266  -28.0115   16.8482 C   0  0  0  0  0  0  0  0  0  0  0  0
   -1.7729  -27.8786   18.3548 C   0  0  0  0  0  0  0  0  0  0  0  0
   -0.6244  -27.1801   19.0894 C   0  0  0  0  0  0  0  0  0  0  0  0
   -0.6961  -25.6506   19.1311 C   0  0  0  0  0  0  0  0  0  0  0  0
   -0.5066  -25.0444   20.5199 C   0  0  0  0  0  0  0  0  0  0  0  0
   -0.5899  -23.5152   20.5220 C   0  0  0  0  0  0  0  0  0  0  0  0
   -0.4025  -22.9053   21.9165 C   0  0  0  0  0  0  0  0  0  0  0  0
   -1.0979  -21.5540   22.0728 C   0  0  0  0  0  0  0  0  0  0  0  0
   -0.6366  -20.5704   21.0095 C   0  0  0  0  0  0  0  0  0  0  0  0
  1  2  1  0
  5  1  1  0
  1 27  1  6
  2  3  1  0
  2 28  1  1
  4  3  1  0
  3 32  1  1
 29  4  1  0
  4 30  1  1
  5 26  1  6
  5 29  1  0
  7  6  1  0
  8  7  1  0
  9  8  1  0
 10  9  1  0
 11 10  1  0
 12 11  1  0
 13 12  1  0
 14 13  1  0
 15 14  1  0
 16 15  1  0
 17 16  1  0
 18 17  1  0
 19 18  1  0
 20 19  1  0
 20 21  1  1
 22 20  1  0
 22 23  1  1
 24 22  1  0
 24 25  1  1
 24 36  1  0
 25 26  1  0
 30 31  1  0
 32 33  1  0
 33 34  1  0
 34 35  1  0
 36 37  1  0
 37 38  2  0
 37 39  1  0
 39 40  1  0
 40 41  1  0
 41 42  1  0
 42 43  1  0
 43 44  1  0
 44 45  1  0
 45 46  1  0
 46 47  1  0
 47 48  1  0
 48 49  1  0
 49 50  1  0
 50 51  1  0
 51 52  1  0
 52 53  1  0
 53 54  1  0
 54 55  1  0
 55 56  1  0
 56 57  1  0
 57 58  1  0
 58 59  1  0
 59 60  1  0
 60 61  1  0
 61 62  1  0
 62 63  1  0
M  END
$$$$
