
     RDKit          3D

 63 63  0  0  0  0  0  0  0  0999 V2000
  -18.7647  -27.7782   22.3191 C   0  0  2  0  0  0  0  0  0  0  0  0
  -20.2560  -27.7430   22.6188 C   0  0  2  0  0  0  0  0  0  0  0  0
  -20.8012  -26.2928   22.5634 C   0  0  2  0  0  0  0  0  0  0  0  0
  -19.6746  -25.2629   22.8660 C   0  0  2  0  0  0  0  0  0  0  0  0
  -18.0194  -26.9186   23.3881 C   0  0  1  0  0  0  0  0  0  0  0  0
   -5.5663  -12.6681   25.3974 C   0  0  0  0  0  0  0  0  0  0  0  0
   -5.3878  -13.2919   24.0206 C   0  0  0  0  0  0  0  0  0  0  0  0
   -6.1077  -14.6377   23.9219 C   0  0  0  0  0  0  0  0  0  0  0  0
   -5.3693  -15.6593   23.0556 C   0  0  0  0  0  0  0  0  0  0  0  0
   -6.0368  -17.0292   22.8853 C   0  0  0  0  0  0  0  0  0  0  0  0
   -5.4505  -17.8929   21.7624 C   0  0  0  0  0  0  0  0  0  0  0  0
   -6.2317  -19.1892   21.5315 C   0  0  0  0  0  0  0  0  0  0  0  0
   -7.4271  -19.2981   22.4817 C   0  0  0  0  0  0  0  0  0  0  0  0
   -8.2174  -20.6022   22.3274 C   0  0  0  0  0  0  0  0  0  0  0  0
   -9.7449  -20.4780   22.2922 C   0  0  0  0  0  0  0  0  0  0  0  0
  -10.4635  -21.3473   21.2556 C   0  0  0  0  0  0  0  0  0  0  0  0
  -11.4400  -22.3696   21.8342 C   0  0  0  0  0  0  0  0  0  0  0  0
  -12.0837  -23.2070   20.7246 C   0  0  0  0  0  0  0  0  0  0  0  0
  -13.1666  -24.1438   21.2761 C   0  0  0  0  0  0  0  0  0  0  0  0
  -14.4600  -24.1190   20.4331 C   0  0  1  0  0  0  0  0  0  0  0  0
  -14.1676  -24.6144   19.1247 O   0  0  0  0  0  0  0  0  0  0  0  0
  -15.5935  -24.9702   21.0759 C   0  0  1  0  0  0  0  0  0  0  0  0
  -16.8702  -24.5016   20.6023 O   0  0  0  0  0  0  0  0  0  0  0  0
  -15.5099  -26.5013   20.7956 C   0  0  2  0  0  0  0  0  0  0  0  0
  -16.1448  -27.3226   21.9422 C   0  0  0  0  0  0  0  0  0  0  0  0
  -16.7310  -26.4811   22.9391 O   0  0  0  0  0  0  0  0  0  0  0  0
  -18.5458  -27.3124   20.9762 O   0  0  0  0  0  0  0  0  0  0  0  0
  -20.5004  -28.3515   23.8957 O   0  0  0  0  0  0  0  0  0  0  0  0
  -18.7606  -25.7747   23.8459 O   0  0  0  0  0  0  0  0  0  0  0  0
  -20.1412  -23.8664   23.3108 C   0  0  0  0  0  0  0  0  0  0  0  0
  -21.0564  -23.2580   22.4048 O   0  0  0  0  0  0  0  0  0  0  0  0
  -21.9057  -26.2695   23.4867 O   0  0  0  0  0  0  0  0  0  0  0  0
  -23.1409  -25.8372   22.9185 C   0  0  0  0  0  0  0  0  0  0  0  0
  -24.1426  -25.5052   24.0227 C   0  0  0  0  0  0  0  0  0  0  0  0
  -24.8757  -26.7436   24.5056 C   0  0  0  0  0  0  0  0  0  0  0  0
  -14.1625  -26.9916   20.5316 N   0  0  0  0  0  0  0  0  0  0  0  0
  -13.7767  -27.4106   19.2772 C   0  0  0  0  0  0  0  0  0  0  0  0
  -14.5250  -27.3917   18.3048 O   0  0  0  0  0  0  0  0  0  0  0  0
  -12.3496  -27.9251   19.2405 C   0  0  0  0  0  0  0  0  0  0  0  0
  -12.0187  -28.5880   17.9050 C   0  0  0  0  0  0  0  0  0  0  0  0
  -11.8720  -27.5993   16.7462 C   0  0  0  0  0  0  0  0  0  0  0  0
  -11.6071  -28.2621   15.3911 C   0  0  0  0  0  0  0  0  0  0  0  0
  -10.1150  -28.5205   15.1362 C   0  0  0  0  0  0  0  0  0  0  0  0
   -9.4310  -27.5063   14.2099 C   0  0  0  0  0  0  0  0  0  0  0  0
   -8.0172  -27.9114   13.7747 C   0  0  0  0  0  0  0  0  0  0  0  0
   -7.8598  -27.9054   12.2514 C   0  0  0  0  0  0  0  0  0  0  0  0
   -7.1348  -26.6604   11.7305 C   0  0  0  0  0  0  0  0  0  0  0  0
   -5.7251  -26.9101   11.1824 C   0  0  0  0  0  0  0  0  0  0  0  0
   -5.0411  -25.6289   10.6984 C   0  0  0  0  0  0  0  0  0  0  0  0
   -3.8481  -25.9371    9.7897 C   0  0  0  0  0  0  0  0  0  0  0  0
   -4.0806  -27.1567    8.8925 C   0  0  0  0  0  0  0  0  0  0  0  0
   -2.9016  -27.4782    7.9707 C   0  0  0  0  0  0  0  0  0  0  0  0
   -2.5191  -28.9592    8.0669 C   0  0  0  0  0  0  0  0  0  0  0  0
   -2.0576  -29.5492    6.7314 C   0  0  0  0  0  0  0  0  0  0  0  0
   -2.6975  -30.9088    6.4393 C   0  0  0  0  0  0  0  0  0  0  0  0
   -2.1587  -31.5133    5.1384 C   0  0  0  0  0  0  0  0  0  0  0  0
   -3.1347  -31.3764    3.9658 C   0  0  0  0  0  0  0  0  0  0  0  0
   -4.4868  -32.0740    4.1427 C   0  0  0  0  0  0  0  0  0  0  0  0
   -5.5605  -31.2167    4.8095 C   0  0  0  0  0  0  0  0  0  0  0  0
   -6.9306  -31.8996    4.8522 C   0  0  0  0  0  0  0  0  0  0  0  0
   -7.9916  -31.0718    5.5877 C   0  0  0  0  0  0  0  0  0  0  0  0
   -8.5168  -31.7615    6.8458 C   0  0  0  0  0  0  0  0  0  0  0  0
   -9.4234  -32.9305    6.4959 C   0  0  0  0  0  0  0  0  0  0  0  0
  1  2  1  0
  5  1  1  0
  1 27  1  6
  2  3  1  0
  2 28  1  1
  4  3  1  0
  3 32  1  1
 29  4  1  0
  4 30  1  1
  5 26  1  6
  5 29  1  0
  7  6  1  0
  8  7  1  0
  9  8  1  0
 10  9  1  0
 11 10  1  0
 12 11  1  0
 13 12  1  0
 14 13  1  0
 15 14  1  0
 16 15  1  0
 17 16  1  0
 18 17  1  0
 19 18  1  0
 20 19  1  0
 20 21  1  6
 22 20  1  0
 22 23  1  6
 24 22  1  0
 24 25  1  1
 24 36  1  0
 25 26  1  0
 30 31  1  0
 32 33  1  0
 33 34  1  0
 34 35  1  0
 36 37  1  0
 37 38  2  0
 37 39  1  0
 39 40  1  0
 40 41  1  0
 41 42  1  0
 42 43  1  0
 43 44  1  0
 44 45  1  0
 45 46  1  0
 46 47  1  0
 47 48  1  0
 48 49  1  0
 49 50  1  0
 50 51  1  0
 51 52  1  0
 52 53  1  0
 53 54  1  0
 54 55  1  0
 55 56  1  0
 56 57  1  0
 57 58  1  0
 58 59  1  0
 59 60  1  0
 60 61  1  0
 61 62  1  0
 62 63  1  0
M  END
$$$$
