
     RDKit          3D

 63 63  0  0  0  0  0  0  0  0999 V2000
   -8.7738  -26.5150   11.4894 C   0  0  2  0  0  0  0  0  0  0  0  0
   -7.9135  -27.1363   10.3989 C   0  0  2  0  0  0  0  0  0  0  0  0
   -7.2509  -28.4482   10.8919 C   0  0  2  0  0  0  0  0  0  0  0  0
   -7.0906  -28.4430   12.4398 C   0  0  2  0  0  0  0  0  0  0  0  0
   -7.8667  -26.1905   12.7178 C   0  0  1  0  0  0  0  0  0  0  0  0
  -20.5827  -31.1302   15.1123 C   0  0  0  0  0  0  0  0  0  0  0  0
  -19.8847  -32.3320   15.7330 C   0  0  0  0  0  0  0  0  0  0  0  0
  -18.3668  -32.1459   15.7509 C   0  0  0  0  0  0  0  0  0  0  0  0
  -17.7626  -32.2175   17.1542 C   0  0  0  0  0  0  0  0  0  0  0  0
  -18.2877  -31.2089   18.1829 C   0  0  0  0  0  0  0  0  0  0  0  0
  -17.9549  -31.5479   19.6407 C   0  0  0  0  0  0  0  0  0  0  0  0
  -16.8449  -30.6692   20.2233 C   0  0  0  0  0  0  0  0  0  0  0  0
  -15.4799  -31.3555   20.1266 C   0  0  0  0  0  0  0  0  0  0  0  0
  -14.3626  -30.6067   20.8615 C   0  0  0  0  0  0  0  0  0  0  0  0
  -13.1824  -30.1275   20.0084 C   0  0  0  0  0  0  0  0  0  0  0  0
  -13.0112  -28.6094   19.8951 C   0  0  0  0  0  0  0  0  0  0  0  0
  -11.9870  -28.1498   18.8592 C   0  0  0  0  0  0  0  0  0  0  0  0
  -11.2571  -26.8871   19.3278 C   0  0  0  0  0  0  0  0  0  0  0  0
  -10.6993  -26.0824   18.1464 C   0  0  0  0  0  0  0  0  0  0  0  0
  -11.7239  -25.9169   17.0030 C   0  0  1  0  0  0  0  0  0  0  0  0
  -12.5004  -24.7418   17.2457 O   0  0  0  0  0  0  0  0  0  0  0  0
  -11.0353  -25.8135   15.6110 C   0  0  1  0  0  0  0  0  0  0  0  0
  -12.0322  -25.5642   14.6021 O   0  0  0  0  0  0  0  0  0  0  0  0
   -9.9457  -24.7050   15.4938 C   0  0  2  0  0  0  0  0  0  0  0  0
   -9.1965  -24.7877   14.1431 C   0  0  0  0  0  0  0  0  0  0  0  0
   -8.6127  -26.0768   13.9358 O   0  0  0  0  0  0  0  0  0  0  0  0
   -9.8468  -27.4172   11.8102 O   0  0  0  0  0  0  0  0  0  0  0  0
   -6.9351  -26.1814    9.9613 O   0  0  0  0  0  0  0  0  0  0  0  0
   -6.7929  -27.1249   12.9208 O   0  0  0  0  0  0  0  0  0  0  0  0
   -6.0511  -29.4218   13.0119 C   0  0  0  0  0  0  0  0  0  0  0  0
   -4.8377  -28.7920   13.4118 O   0  0  0  0  0  0  0  0  0  0  0  0
   -6.0169  -28.5470   10.1566 O   0  0  0  0  0  0  0  0  0  0  0  0
   -6.0000  -29.5752    9.1676 C   0  0  0  0  0  0  0  0  0  0  0  0
   -4.5686  -30.0481    8.9220 C   0  0  0  0  0  0  0  0  0  0  0  0
   -4.5052  -31.0994    7.8287 C   0  0  0  0  0  0  0  0  0  0  0  0
   -8.9814  -24.6916   16.5872 N   0  0  0  0  0  0  0  0  0  0  0  0
   -8.8747  -23.6197   17.4460 C   0  0  0  0  0  0  0  0  0  0  0  0
   -9.8245  -22.9019   17.7431 O   0  0  0  0  0  0  0  0  0  0  0  0
   -7.4594  -23.4073   17.9507 C   0  0  0  0  0  0  0  0  0  0  0  0
   -7.3551  -22.1762   18.8484 C   0  0  0  0  0  0  0  0  0  0  0  0
   -6.5137  -21.0468   18.2497 C   0  0  0  0  0  0  0  0  0  0  0  0
   -7.0892  -19.6475   18.4874 C   0  0  0  0  0  0  0  0  0  0  0  0
   -6.7191  -19.0775   19.8645 C   0  0  0  0  0  0  0  0  0  0  0  0
   -5.2778  -18.5659   19.9876 C   0  0  0  0  0  0  0  0  0  0  0  0
   -5.0835  -17.1225   19.5068 C   0  0  0  0  0  0  0  0  0  0  0  0
   -4.5825  -16.2053   20.6262 C   0  0  0  0  0  0  0  0  0  0  0  0
   -5.6012  -16.0316   21.7572 C   0  0  0  0  0  0  0  0  0  0  0  0
   -5.4683  -14.7315   22.5585 C   0  0  0  0  0  0  0  0  0  0  0  0
   -5.7842  -14.9158   24.0451 C   0  0  0  0  0  0  0  0  0  0  0  0
   -7.1457  -15.5845   24.2521 C   0  0  0  0  0  0  0  0  0  0  0  0
   -8.2852  -14.5760   24.4291 C   0  0  0  0  0  0  0  0  0  0  0  0
   -9.5443  -15.1728   25.0629 C   0  0  0  0  0  0  0  0  0  0  0  0
  -10.0810  -16.3372   24.2233 C   0  0  0  0  0  0  0  0  0  0  0  0
  -11.1035  -17.1970   24.9715 C   0  0  0  0  0  0  0  0  0  0  0  0
  -12.4425  -16.4804   25.1638 C   0  0  0  0  0  0  0  0  0  0  0  0
  -13.4428  -16.8591   24.0665 C   0  0  0  0  0  0  0  0  0  0  0  0
  -14.7746  -16.1122   24.1873 C   0  0  0  0  0  0  0  0  0  0  0  0
  -15.9914  -16.9763   24.5320 C   0  0  0  0  0  0  0  0  0  0  0  0
  -17.0413  -16.2785   25.3939 C   0  0  0  0  0  0  0  0  0  0  0  0
  -17.6085  -15.0148   24.7405 C   0  0  0  0  0  0  0  0  0  0  0  0
  -18.9161  -15.2670   23.9800 C   0  0  0  0  0  0  0  0  0  0  0  0
  -19.7853  -14.0163   23.8610 C   0  0  0  0  0  0  0  0  0  0  0  0
  -20.8109  -13.9491   24.9810 C   0  0  0  0  0  0  0  0  0  0  0  0
  1  2  1  0
  5  1  1  0
  1 27  1  1
  2  3  1  0
  2 28  1  1
  4  3  1  0
  3 32  1  6
 29  4  1  0
  4 30  1  6
  5 26  1  1
  5 29  1  0
  7  6  1  0
  8  7  1  0
  9  8  1  0
 10  9  1  0
 11 10  1  0
 12 11  1  0
 13 12  1  0
 14 13  1  0
 15 14  1  0
 16 15  1  0
 17 16  1  0
 18 17  1  0
 19 18  1  0
 20 19  1  0
 20 21  1  1
 22 20  1  0
 22 23  1  6
 24 22  1  0
 24 25  1  6
 24 36  1  0
 25 26  1  0
 30 31  1  0
 32 33  1  0
 33 34  1  0
 34 35  1  0
 36 37  1  0
 37 38  2  0
 37 39  1  0
 39 40  1  0
 40 41  1  0
 41 42  1  0
 42 43  1  0
 43 44  1  0
 44 45  1  0
 45 46  1  0
 46 47  1  0
 47 48  1  0
 48 49  1  0
 49 50  1  0
 50 51  1  0
 51 52  1  0
 52 53  1  0
 53 54  1  0
 54 55  1  0
 55 56  1  0
 56 57  1  0
 57 58  1  0
 58 59  1  0
 59 60  1  0
 60 61  1  0
 61 62  1  0
 62 63  1  0
M  END
$$$$
