
     RDKit          3D

 63 63  0  0  0  0  0  0  0  0999 V2000
  -18.3368  -27.1666   19.4062 C   0  0  2  0  0  0  0  0  0  0  0  0
  -18.7074  -27.2850   20.8772 C   0  0  2  0  0  0  0  0  0  0  0  0
  -17.8724  -26.3065   21.7425 C   0  0  2  0  0  0  0  0  0  0  0  0
  -16.5165  -25.9740   21.0549 C   0  0  2  0  0  0  0  0  0  0  0  0
  -16.8238  -27.5145   19.2422 C   0  0  1  0  0  0  0  0  0  0  0  0
   -5.0767  -34.7806    3.4029 C   0  0  0  0  0  0  0  0  0  0  0  0
   -5.7253  -33.6301    4.1595 C   0  0  0  0  0  0  0  0  0  0  0  0
   -5.3902  -33.6858    5.6508 C   0  0  0  0  0  0  0  0  0  0  0  0
   -6.0065  -32.5400    6.4549 C   0  0  0  0  0  0  0  0  0  0  0  0
   -6.0932  -32.7324    7.9737 C   0  0  0  0  0  0  0  0  0  0  0  0
   -6.6115  -31.5135    8.7459 C   0  0  0  0  0  0  0  0  0  0  0  0
   -6.7631  -31.7735   10.2470 C   0  0  0  0  0  0  0  0  0  0  0  0
   -7.8560  -30.8935   10.8591 C   0  0  0  0  0  0  0  0  0  0  0  0
   -7.3111  -29.7044   11.6581 C   0  0  0  0  0  0  0  0  0  0  0  0
   -7.4428  -29.7854   13.1833 C   0  0  0  0  0  0  0  0  0  0  0  0
   -8.8605  -29.6288   13.7421 C   0  0  0  0  0  0  0  0  0  0  0  0
   -8.9362  -29.1171   15.1794 C   0  0  0  0  0  0  0  0  0  0  0  0
  -10.1813  -28.2502   15.3915 C   0  0  0  0  0  0  0  0  0  0  0  0
  -10.2330  -27.6686   16.8104 C   0  0  0  0  0  0  0  0  0  0  0  0
  -11.4256  -26.7097   17.0170 C   0  0  1  0  0  0  0  0  0  0  0  0
  -11.2760  -25.5915   16.1395 O   0  0  0  0  0  0  0  0  0  0  0  0
  -12.7907  -27.4082   16.7499 C   0  0  1  0  0  0  0  0  0  0  0  0
  -12.5675  -28.8037   16.4735 O   0  0  0  0  0  0  0  0  0  0  0  0
  -13.8228  -27.3083   17.9138 C   0  0  2  0  0  0  0  0  0  0  0  0
  -15.2278  -27.7758   17.4667 C   0  0  0  0  0  0  0  0  0  0  0  0
  -16.2637  -26.9731   18.0396 O   0  0  0  0  0  0  0  0  0  0  0  0
  -18.6583  -25.8421   18.9475 O   0  0  0  0  0  0  0  0  0  0  0  0
  -18.5378  -28.6451   21.3038 O   0  0  0  0  0  0  0  0  0  0  0  0
  -16.0032  -27.1149   20.3532 O   0  0  0  0  0  0  0  0  0  0  0  0
  -15.4127  -25.4245   21.9744 C   0  0  0  0  0  0  0  0  0  0  0  0
  -14.0955  -25.6927   21.5035 O   0  0  0  0  0  0  0  0  0  0  0  0
  -17.7579  -26.9438   23.0285 O   0  0  0  0  0  0  0  0  0  0  0  0
  -18.0142  -26.0842   24.1380 C   0  0  0  0  0  0  0  0  0  0  0  0
  -19.1918  -26.6128   24.9545 C   0  0  0  0  0  0  0  0  0  0  0  0
  -18.7476  -27.1235   26.3133 C   0  0  0  0  0  0  0  0  0  0  0  0
  -13.9182  -25.9863   18.5211 N   0  0  0  0  0  0  0  0  0  0  0  0
  -12.8023  -25.3089   18.9613 C   0  0  0  0  0  0  0  0  0  0  0  0
  -11.8559  -25.8629   19.5119 O   0  0  0  0  0  0  0  0  0  0  0  0
  -12.8889  -23.8128   18.7231 C   0  0  0  0  0  0  0  0  0  0  0  0
  -11.9517  -23.0354   19.6451 C   0  0  0  0  0  0  0  0  0  0  0  0
  -11.3218  -21.8053   18.9879 C   0  0  0  0  0  0  0  0  0  0  0  0
  -10.2467  -22.1358   17.9484 C   0  0  0  0  0  0  0  0  0  0  0  0
   -9.1283  -21.0848   17.8937 C   0  0  0  0  0  0  0  0  0  0  0  0
   -7.7068  -21.6557   17.8047 C   0  0  0  0  0  0  0  0  0  0  0  0
   -7.1282  -22.1054   19.1520 C   0  0  0  0  0  0  0  0  0  0  0  0
   -6.4151  -20.9636   19.8822 C   0  0  0  0  0  0  0  0  0  0  0  0
   -4.9448  -21.2722   20.1821 C   0  0  0  0  0  0  0  0  0  0  0  0
   -4.1022  -20.0669   20.6149 C   0  0  0  0  0  0  0  0  0  0  0  0
   -4.7051  -18.7314   20.1716 C   0  0  0  0  0  0  0  0  0  0  0  0
   -3.8381  -17.5490   20.6120 C   0  0  0  0  0  0  0  0  0  0  0  0
   -4.4090  -16.1957   20.1774 C   0  0  0  0  0  0  0  0  0  0  0  0
   -4.2033  -15.0804   21.2055 C   0  0  0  0  0  0  0  0  0  0  0  0
   -5.5077  -14.7738   21.9495 C   0  0  0  0  0  0  0  0  0  0  0  0
   -5.2981  -14.4923   23.4398 C   0  0  0  0  0  0  0  0  0  0  0  0
   -5.6844  -13.0622   23.8259 C   0  0  0  0  0  0  0  0  0  0  0  0
   -7.1989  -12.9220   24.0114 C   0  0  0  0  0  0  0  0  0  0  0  0
   -7.5764  -12.0115   25.1839 C   0  0  0  0  0  0  0  0  0  0  0  0
   -7.9754  -12.7268   26.4782 C   0  0  0  0  0  0  0  0  0  0  0  0
   -9.2017  -12.1409   27.1746 C   0  0  0  0  0  0  0  0  0  0  0  0
   -9.1762  -12.3331   28.6938 C   0  0  0  0  0  0  0  0  0  0  0  0
   -9.4711  -11.0424   29.4676 C   0  0  0  0  0  0  0  0  0  0  0  0
  -10.2510  -11.2879   30.7581 C   0  0  0  0  0  0  0  0  0  0  0  0
   -9.7283  -10.4203   31.8917 C   0  0  0  0  0  0  0  0  0  0  0  0
  1  2  1  0
  5  1  1  0
  1 27  1  1
  2  3  1  0
  2 28  1  1
  4  3  1  0
  3 32  1  1
 29  4  1  0
  4 30  1  1
  5 26  1  6
  5 29  1  0
  7  6  1  0
  8  7  1  0
  9  8  1  0
 10  9  1  0
 11 10  1  0
 12 11  1  0
 13 12  1  0
 14 13  1  0
 15 14  1  0
 16 15  1  0
 17 16  1  0
 18 17  1  0
 19 18  1  0
 20 19  1  0
 20 21  1  6
 22 20  1  0
 22 23  1  1
 24 22  1  0
 24 25  1  6
 24 36  1  0
 25 26  1  0
 30 31  1  0
 32 33  1  0
 33 34  1  0
 34 35  1  0
 36 37  1  0
 37 38  2  0
 37 39  1  0
 39 40  1  0
 40 41  1  0
 41 42  1  0
 42 43  1  0
 43 44  1  0
 44 45  1  0
 45 46  1  0
 46 47  1  0
 47 48  1  0
 48 49  1  0
 49 50  1  0
 50 51  1  0
 51 52  1  0
 52 53  1  0
 53 54  1  0
 54 55  1  0
 55 56  1  0
 56 57  1  0
 57 58  1  0
 58 59  1  0
 59 60  1  0
 60 61  1  0
 61 62  1  0
 62 63  1  0
M  END
$$$$
