
     RDKit          3D

 63 63  0  0  0  0  0  0  0  0999 V2000
  -19.6229  -27.2901   19.5054 C   0  0  2  0  0  0  0  0  0  0  0  0
  -20.6840  -27.0503   20.5692 C   0  0  2  0  0  0  0  0  0  0  0  0
  -20.0539  -26.4796   21.8656 C   0  0  2  0  0  0  0  0  0  0  0  0
  -18.5604  -26.8987   21.9896 C   0  0  2  0  0  0  0  0  0  0  0  0
  -18.5856  -28.3185   20.0564 C   0  0  1  0  0  0  0  0  0  0  0  0
   -3.8132  -31.9494    9.1257 C   0  0  0  0  0  0  0  0  0  0  0  0
   -4.7700  -31.0210    8.3914 C   0  0  0  0  0  0  0  0  0  0  0  0
   -4.6346  -29.5794    8.8841 C   0  0  0  0  0  0  0  0  0  0  0  0
   -5.4754  -28.5828    8.0846 C   0  0  0  0  0  0  0  0  0  0  0  0
   -6.8207  -28.1709    8.6944 C   0  0  0  0  0  0  0  0  0  0  0  0
   -6.7448  -27.6882   10.1477 C   0  0  0  0  0  0  0  0  0  0  0  0
   -8.0941  -27.7410   10.8692 C   0  0  0  0  0  0  0  0  0  0  0  0
   -7.9158  -27.9773   12.3712 C   0  0  0  0  0  0  0  0  0  0  0  0
   -9.1692  -27.6629   13.1954 C   0  0  0  0  0  0  0  0  0  0  0  0
   -9.0185  -26.6072   14.2966 C   0  0  0  0  0  0  0  0  0  0  0  0
   -9.2078  -27.1061   15.7326 C   0  0  0  0  0  0  0  0  0  0  0  0
  -10.6427  -27.0483   16.2533 C   0  0  0  0  0  0  0  0  0  0  0  0
  -10.9674  -28.2740   17.1129 C   0  0  0  0  0  0  0  0  0  0  0  0
  -12.1752  -28.0236   18.0255 C   0  0  0  0  0  0  0  0  0  0  0  0
  -13.4598  -28.7110   17.5138 C   0  0  1  0  0  0  0  0  0  0  0  0
  -13.1089  -29.9655   16.9259 O   0  0  0  0  0  0  0  0  0  0  0  0
  -14.4961  -28.9361   18.6531 C   0  0  1  0  0  0  0  0  0  0  0  0
  -13.9536  -29.8581   19.6172 O   0  0  0  0  0  0  0  0  0  0  0  0
  -14.9322  -27.6473   19.4136 C   0  0  2  0  0  0  0  0  0  0  0  0
  -16.2304  -27.8786   20.2221 C   0  0  0  0  0  0  0  0  0  0  0  0
  -17.3258  -28.2439   19.3781 O   0  0  0  0  0  0  0  0  0  0  0  0
  -19.0259  -26.0317   19.1476 O   0  0  0  0  0  0  0  0  0  0  0  0
  -21.3931  -28.2730   20.8197 O   0  0  0  0  0  0  0  0  0  0  0  0
  -18.3532  -28.2203   21.4720 O   0  0  0  0  0  0  0  0  0  0  0  0
  -17.9553  -26.8231   23.4017 C   0  0  0  0  0  0  0  0  0  0  0  0
  -17.3688  -28.0468   23.8346 O   0  0  0  0  0  0  0  0  0  0  0  0
  -20.9024  -26.9423   22.9328 O   0  0  0  0  0  0  0  0  0  0  0  0
  -21.8729  -25.9921   23.3695 C   0  0  0  0  0  0  0  0  0  0  0  0
  -21.9442  -25.9730   24.8950 C   0  0  0  0  0  0  0  0  0  0  0  0
  -23.3594  -26.2042   25.3932 C   0  0  0  0  0  0  0  0  0  0  0  0
  -15.0882  -26.4720   18.5651 N   0  0  0  0  0  0  0  0  0  0  0  0
  -15.4652  -25.2513   19.0804 C   0  0  0  0  0  0  0  0  0  0  0  0
  -16.1580  -25.1335   20.0863 O   0  0  0  0  0  0  0  0  0  0  0  0
  -14.9625  -24.0820   18.2540 C   0  0  0  0  0  0  0  0  0  0  0  0
  -13.9939  -23.2034   19.0429 C   0  0  0  0  0  0  0  0  0  0  0  0
  -13.5701  -21.9337   18.3010 C   0  0  0  0  0  0  0  0  0  0  0  0
  -12.5855  -21.0562   19.0797 C   0  0  0  0  0  0  0  0  0  0  0  0
  -11.1187  -21.3824   18.7635 C   0  0  0  0  0  0  0  0  0  0  0  0
  -10.0908  -20.4675   19.4426 C   0  0  0  0  0  0  0  0  0  0  0  0
   -8.9720  -19.9847   18.5112 C   0  0  0  0  0  0  0  0  0  0  0  0
   -7.6169  -19.9243   19.2223 C   0  0  0  0  0  0  0  0  0  0  0  0
   -6.4578  -19.6043   18.2732 C   0  0  0  0  0  0  0  0  0  0  0  0
   -5.7699  -18.2563   18.5175 C   0  0  0  0  0  0  0  0  0  0  0  0
   -5.6458  -17.9143   20.0045 C   0  0  0  0  0  0  0  0  0  0  0  0
   -4.9432  -16.5706   20.2159 C   0  0  0  0  0  0  0  0  0  0  0  0
   -4.7954  -16.2006   21.6950 C   0  0  0  0  0  0  0  0  0  0  0  0
   -3.3702  -16.3582   22.2310 C   0  0  0  0  0  0  0  0  0  0  0  0
   -2.6087  -15.0300   22.1610 C   0  0  0  0  0  0  0  0  0  0  0  0
   -1.2115  -15.1044   22.7830 C   0  0  0  0  0  0  0  0  0  0  0  0
   -0.8207  -13.8105   23.5017 C   0  0  0  0  0  0  0  0  0  0  0  0
    0.5876  -13.9049   24.0983 C   0  0  0  0  0  0  0  0  0  0  0  0
    0.6104  -14.5768   25.4747 C   0  0  0  0  0  0  0  0  0  0  0  0
    0.2816  -13.6676   26.6627 C   0  0  0  0  0  0  0  0  0  0  0  0
   -0.6214  -14.3037   27.7174 C   0  0  0  0  0  0  0  0  0  0  0  0
   -2.0666  -13.8015   27.6497 C   0  0  0  0  0  0  0  0  0  0  0  0
   -2.6154  -13.3651   29.0137 C   0  0  0  0  0  0  0  0  0  0  0  0
   -3.7704  -12.3717   28.8995 C   0  0  0  0  0  0  0  0  0  0  0  0
   -4.3536  -12.0452   30.2649 C   0  0  0  0  0  0  0  0  0  0  0  0
  1  2  1  0
  5  1  1  0
  1 27  1  1
  2  3  1  0
  2 28  1  1
  4  3  1  0
  3 32  1  1
 29  4  1  0
  4 30  1  1
  5 26  1  6
  5 29  1  0
  7  6  1  0
  8  7  1  0
  9  8  1  0
 10  9  1  0
 11 10  1  0
 12 11  1  0
 13 12  1  0
 14 13  1  0
 15 14  1  0
 16 15  1  0
 17 16  1  0
 18 17  1  0
 19 18  1  0
 20 19  1  0
 20 21  1  1
 22 20  1  0
 22 23  1  1
 24 22  1  0
 24 25  1  6
 24 36  1  0
 25 26  1  0
 30 31  1  0
 32 33  1  0
 33 34  1  0
 34 35  1  0
 36 37  1  0
 37 38  2  0
 37 39  1  0
 39 40  1  0
 40 41  1  0
 41 42  1  0
 42 43  1  0
 43 44  1  0
 44 45  1  0
 45 46  1  0
 46 47  1  0
 47 48  1  0
 48 49  1  0
 49 50  1  0
 50 51  1  0
 51 52  1  0
 52 53  1  0
 53 54  1  0
 54 55  1  0
 55 56  1  0
 56 57  1  0
 57 58  1  0
 58 59  1  0
 59 60  1  0
 60 61  1  0
 61 62  1  0
 62 63  1  0
M  END
$$$$
