
     RDKit          3D

 63 63  0  0  0  0  0  0  0  0999 V2000
  -14.5047  -26.2667   16.3043 C   0  0  2  0  0  0  0  0  0  0  0  0
  -14.9656  -25.0473   15.5196 C   0  0  2  0  0  0  0  0  0  0  0  0
  -14.7668  -23.7481   16.3417 C   0  0  2  0  0  0  0  0  0  0  0  0
  -14.7879  -24.0473   17.8687 C   0  0  2  0  0  0  0  0  0  0  0  0
  -15.3473  -26.3659   17.6147 C   0  0  1  0  0  0  0  0  0  0  0  0
   -6.1943  -31.6578    5.0575 C   0  0  0  0  0  0  0  0  0  0  0  0
   -7.3987  -30.7744    4.7649 C   0  0  0  0  0  0  0  0  0  0  0  0
   -8.0734  -30.3081    6.0558 C   0  0  0  0  0  0  0  0  0  0  0  0
   -7.1083  -29.6466    7.0409 C   0  0  0  0  0  0  0  0  0  0  0  0
   -7.5860  -29.5171    8.4922 C   0  0  0  0  0  0  0  0  0  0  0  0
   -6.5944  -28.8243    9.4342 C   0  0  0  0  0  0  0  0  0  0  0  0
   -7.1418  -27.5261   10.0331 C   0  0  0  0  0  0  0  0  0  0  0  0
   -8.2396  -27.8049   11.0629 C   0  0  0  0  0  0  0  0  0  0  0  0
   -8.8180  -26.5378   11.7024 C   0  0  0  0  0  0  0  0  0  0  0  0
   -8.5506  -26.3419   13.1991 C   0  0  0  0  0  0  0  0  0  0  0  0
   -9.2190  -27.3524   14.1364 C   0  0  0  0  0  0  0  0  0  0  0  0
   -9.4779  -26.8463   15.5543 C   0  0  0  0  0  0  0  0  0  0  0  0
  -10.5253  -27.7090   16.2652 C   0  0  0  0  0  0  0  0  0  0  0  0
  -10.7141  -27.2828   17.7271 C   0  0  0  0  0  0  0  0  0  0  0  0
  -11.4423  -28.3529   18.5692 C   0  0  1  0  0  0  0  0  0  0  0  0
  -10.7008  -29.5732   18.5059 O   0  0  0  0  0  0  0  0  0  0  0  0
  -11.6086  -27.9156   20.0537 C   0  0  1  0  0  0  0  0  0  0  0  0
  -10.5978  -26.9436   20.3816 O   0  0  0  0  0  0  0  0  0  0  0  0
  -12.9970  -27.3035   20.4105 C   0  0  2  0  0  0  0  0  0  0  0  0
  -13.5756  -26.4862   19.2317 C   0  0  0  0  0  0  0  0  0  0  0  0
  -14.6955  -27.1405   18.6287 O   0  0  0  0  0  0  0  0  0  0  0  0
  -13.0929  -26.1559   16.5550 O   0  0  0  0  0  0  0  0  0  0  0  0
  -16.3358  -25.2216   15.1288 O   0  0  0  0  0  0  0  0  0  0  0  0
  -15.7193  -25.0946   18.1740 O   0  0  0  0  0  0  0  0  0  0  0  0
  -15.0795  -22.8472   18.7856 C   0  0  0  0  0  0  0  0  0  0  0  0
  -15.5934  -23.2185   20.0610 O   0  0  0  0  0  0  0  0  0  0  0  0
  -15.7981  -22.8523   15.8868 O   0  0  0  0  0  0  0  0  0  0  0  0
  -16.0363  -22.8920   14.4806 C   0  0  0  0  0  0  0  0  0  0  0  0
  -15.1077  -21.9168   13.7600 C   0  0  0  0  0  0  0  0  0  0  0  0
  -14.7712  -22.3943   12.3589 C   0  0  0  0  0  0  0  0  0  0  0  0
  -13.0021  -26.4882   21.6192 N   0  0  0  0  0  0  0  0  0  0  0  0
  -12.2529  -26.8266   22.7246 C   0  0  0  0  0  0  0  0  0  0  0  0
  -11.8489  -27.9656   22.9372 O   0  0  0  0  0  0  0  0  0  0  0  0
  -12.0155  -25.6536   23.6575 C   0  0  0  0  0  0  0  0  0  0  0  0
  -10.5319  -25.4643   23.9663 C   0  0  0  0  0  0  0  0  0  0  0  0
   -9.6108  -26.3633   23.1385 C   0  0  0  0  0  0  0  0  0  0  0  0
   -8.2299  -25.7592   22.8665 C   0  0  0  0  0  0  0  0  0  0  0  0
   -7.4012  -25.5683   24.1452 C   0  0  0  0  0  0  0  0  0  0  0  0
   -6.2466  -24.5648   24.0249 C   0  0  0  0  0  0  0  0  0  0  0  0
   -5.0786  -24.8383   24.9806 C   0  0  0  0  0  0  0  0  0  0  0  0
   -3.7759  -24.1948   24.4966 C   0  0  0  0  0  0  0  0  0  0  0  0
   -3.8227  -22.6636   24.5160 C   0  0  0  0  0  0  0  0  0  0  0  0
   -2.6071  -21.9676   23.8931 C   0  0  0  0  0  0  0  0  0  0  0  0
   -2.4321  -20.5279   24.3830 C   0  0  0  0  0  0  0  0  0  0  0  0
   -2.7446  -19.5157   23.2777 C   0  0  0  0  0  0  0  0  0  0  0  0
   -2.7634  -18.0691   23.7811 C   0  0  0  0  0  0  0  0  0  0  0  0
   -3.5463  -17.1120   22.8788 C   0  0  0  0  0  0  0  0  0  0  0  0
   -3.4446  -15.6707   23.3899 C   0  0  0  0  0  0  0  0  0  0  0  0
   -4.7530  -15.1531   23.9939 C   0  0  0  0  0  0  0  0  0  0  0  0
   -5.8750  -15.0475   22.9578 C   0  0  0  0  0  0  0  0  0  0  0  0
   -6.3241  -13.5952   22.7651 C   0  0  0  0  0  0  0  0  0  0  0  0
   -7.5815  -13.4677   21.8996 C   0  0  0  0  0  0  0  0  0  0  0  0
   -8.7480  -12.7027   22.5323 C   0  0  0  0  0  0  0  0  0  0  0  0
  -10.0067  -12.6387   21.6699 C   0  0  0  0  0  0  0  0  0  0  0  0
  -11.2958  -12.8122   22.4784 C   0  0  0  0  0  0  0  0  0  0  0  0
  -12.5579  -12.7949   21.6075 C   0  0  0  0  0  0  0  0  0  0  0  0
  -13.8442  -12.9196   22.4224 C   0  0  0  0  0  0  0  0  0  0  0  0
  -14.8067  -11.7850   22.1103 C   0  0  0  0  0  0  0  0  0  0  0  0
  1  2  1  0
  5  1  1  0
  1 27  1  1
  2  3  1  0
  2 28  1  1
  4  3  1  0
  3 32  1  1
 29  4  1  0
  4 30  1  1
  5 26  1  1
  5 29  1  0
  7  6  1  0
  8  7  1  0
  9  8  1  0
 10  9  1  0
 11 10  1  0
 12 11  1  0
 13 12  1  0
 14 13  1  0
 15 14  1  0
 16 15  1  0
 17 16  1  0
 18 17  1  0
 19 18  1  0
 20 19  1  0
 20 21  1  1
 22 20  1  0
 22 23  1  6
 24 22  1  0
 24 25  1  6
 24 36  1  0
 25 26  1  0
 30 31  1  0
 32 33  1  0
 33 34  1  0
 34 35  1  0
 36 37  1  0
 37 38  2  0
 37 39  1  0
 39 40  1  0
 40 41  1  0
 41 42  1  0
 42 43  1  0
 43 44  1  0
 44 45  1  0
 45 46  1  0
 46 47  1  0
 47 48  1  0
 48 49  1  0
 49 50  1  0
 50 51  1  0
 51 52  1  0
 52 53  1  0
 53 54  1  0
 54 55  1  0
 55 56  1  0
 56 57  1  0
 57 58  1  0
 58 59  1  0
 59 60  1  0
 60 61  1  0
 61 62  1  0
 62 63  1  0
M  END
$$$$
