
     RDKit          3D

 63 63  0  0  0  0  0  0  0  0999 V2000
  -15.4989  -23.9011   23.7762 C   0  0  2  0  0  0  0  0  0  0  0  0
  -16.7965  -24.2451   24.4925 C   0  0  2  0  0  0  0  0  0  0  0  0
  -17.4392  -25.5241   23.8973 C   0  0  2  0  0  0  0  0  0  0  0  0
  -17.0057  -25.7273   22.4166 C   0  0  2  0  0  0  0  0  0  0  0  0
  -15.8116  -23.6524   22.2670 C   0  0  1  0  0  0  0  0  0  0  0  0
   -9.7778  -11.9215   26.2052 C   0  0  0  0  0  0  0  0  0  0  0  0
   -9.9188  -12.9872   25.1276 C   0  0  0  0  0  0  0  0  0  0  0  0
   -9.4687  -12.4622   23.7635 C   0  0  0  0  0  0  0  0  0  0  0  0
   -9.5493  -13.5104   22.6526 C   0  0  0  0  0  0  0  0  0  0  0  0
   -8.2178  -14.0348   22.1018 C   0  0  0  0  0  0  0  0  0  0  0  0
   -8.1543  -15.5556   21.9182 C   0  0  0  0  0  0  0  0  0  0  0  0
   -6.8016  -16.0409   21.3905 C   0  0  0  0  0  0  0  0  0  0  0  0
   -6.7590  -17.5674   21.2821 C   0  0  0  0  0  0  0  0  0  0  0  0
   -7.1765  -18.0972   19.9059 C   0  0  0  0  0  0  0  0  0  0  0  0
   -7.2123  -19.6208   19.7399 C   0  0  0  0  0  0  0  0  0  0  0  0
   -8.1487  -20.1537   18.6509 C   0  0  0  0  0  0  0  0  0  0  0  0
   -7.6704  -21.4251   17.9522 C   0  0  0  0  0  0  0  0  0  0  0  0
   -8.7488  -22.5126   17.9867 C   0  0  0  0  0  0  0  0  0  0  0  0
   -9.8645  -22.1740   18.9841 C   0  0  0  0  0  0  0  0  0  0  0  0
  -10.9510  -23.2689   19.0552 C   0  0  1  0  0  0  0  0  0  0  0  0
  -10.4524  -24.3644   19.8259 O   0  0  0  0  0  0  0  0  0  0  0  0
  -12.2726  -22.7413   19.6859 C   0  0  1  0  0  0  0  0  0  0  0  0
  -12.4386  -21.3500   19.3536 O   0  0  0  0  0  0  0  0  0  0  0  0
  -13.5626  -23.4974   19.2453 C   0  0  2  0  0  0  0  0  0  0  0  0
  -14.7593  -23.1594   20.1652 C   0  0  0  0  0  0  0  0  0  0  0  0
  -14.6566  -23.8114   21.4341 O   0  0  0  0  0  0  0  0  0  0  0  0
  -14.5538  -24.9653   23.9828 O   0  0  0  0  0  0  0  0  0  0  0  0
  -17.6901  -23.1237   24.4253 O   0  0  0  0  0  0  0  0  0  0  0  0
  -16.8735  -24.4679   21.7428 O   0  0  0  0  0  0  0  0  0  0  0  0
  -17.9058  -26.6448   21.5717 C   0  0  0  0  0  0  0  0  0  0  0  0
  -18.0522  -26.2115   20.2229 O   0  0  0  0  0  0  0  0  0  0  0  0
  -18.8560  -25.3618   24.0957 O   0  0  0  0  0  0  0  0  0  0  0  0
  -19.2561  -25.2913   25.4634 C   0  0  0  0  0  0  0  0  0  0  0  0
  -19.0462  -26.6417   26.1453 C   0  0  0  0  0  0  0  0  0  0  0  0
  -19.5118  -26.6189   27.5899 C   0  0  0  0  0  0  0  0  0  0  0  0
  -13.4101  -24.9445   19.1542 N   0  0  0  0  0  0  0  0  0  0  0  0
  -13.8186  -25.6474   18.0421 C   0  0  0  0  0  0  0  0  0  0  0  0
  -14.4820  -25.1469   17.1393 O   0  0  0  0  0  0  0  0  0  0  0  0
  -13.3910  -27.1031   18.0749 C   0  0  0  0  0  0  0  0  0  0  0  0
  -12.0554  -27.3191   17.3663 C   0  0  0  0  0  0  0  0  0  0  0  0
  -11.5923  -28.7776   17.3562 C   0  0  0  0  0  0  0  0  0  0  0  0
  -10.2429  -28.9983   16.6662 C   0  0  0  0  0  0  0  0  0  0  0  0
   -9.9525  -30.4800   16.3865 C   0  0  0  0  0  0  0  0  0  0  0  0
   -9.2782  -30.7646   15.0378 C   0  0  0  0  0  0  0  0  0  0  0  0
   -7.8111  -30.3229   14.9669 C   0  0  0  0  0  0  0  0  0  0  0  0
   -7.1685  -30.6744   13.6219 C   0  0  0  0  0  0  0  0  0  0  0  0
   -6.2044  -29.5949   13.1200 C   0  0  0  0  0  0  0  0  0  0  0  0
   -6.5015  -29.0596   11.7146 C   0  0  0  0  0  0  0  0  0  0  0  0
   -5.4826  -28.0160   11.2494 C   0  0  0  0  0  0  0  0  0  0  0  0
   -5.7134  -27.6164    9.7896 C   0  0  0  0  0  0  0  0  0  0  0  0
   -4.4161  -27.5450    8.9782 C   0  0  0  0  0  0  0  0  0  0  0  0
   -4.6379  -27.4698    7.4655 C   0  0  0  0  0  0  0  0  0  0  0  0
   -3.4934  -28.1532    6.7093 C   0  0  0  0  0  0  0  0  0  0  0  0
   -3.8498  -29.5607    6.2230 C   0  0  0  0  0  0  0  0  0  0  0  0
   -4.1738  -29.5992    4.7273 C   0  0  0  0  0  0  0  0  0  0  0  0
   -4.3265  -31.0385    4.2244 C   0  0  0  0  0  0  0  0  0  0  0  0
   -5.7871  -31.4420    3.9999 C   0  0  0  0  0  0  0  0  0  0  0  0
   -6.4757  -32.1279    5.1838 C   0  0  0  0  0  0  0  0  0  0  0  0
   -7.1733  -33.4416    4.8376 C   0  0  0  0  0  0  0  0  0  0  0  0
   -7.7889  -34.1321    6.0581 C   0  0  0  0  0  0  0  0  0  0  0  0
   -8.4563  -35.4703    5.7181 C   0  0  0  0  0  0  0  0  0  0  0  0
   -9.0846  -36.1474    6.9349 C   0  0  0  0  0  0  0  0  0  0  0  0
   -9.8678  -37.3868    6.5330 C   0  0  0  0  0  0  0  0  0  0  0  0
  1  2  1  0
  5  1  1  0
  1 27  1  6
  2  3  1  0
  2 28  1  6
  4  3  1  0
  3 32  1  6
 29  4  1  0
  4 30  1  6
  5 26  1  6
  5 29  1  0
  7  6  1  0
  8  7  1  0
  9  8  1  0
 10  9  1  0
 11 10  1  0
 12 11  1  0
 13 12  1  0
 14 13  1  0
 15 14  1  0
 16 15  1  0
 17 16  1  0
 18 17  1  0
 19 18  1  0
 20 19  1  0
 20 21  1  1
 22 20  1  0
 22 23  1  6
 24 22  1  0
 24 25  1  1
 24 36  1  0
 25 26  1  0
 30 31  1  0
 32 33  1  0
 33 34  1  0
 34 35  1  0
 36 37  1  0
 37 38  2  0
 37 39  1  0
 39 40  1  0
 40 41  1  0
 41 42  1  0
 42 43  1  0
 43 44  1  0
 44 45  1  0
 45 46  1  0
 46 47  1  0
 47 48  1  0
 48 49  1  0
 49 50  1  0
 50 51  1  0
 51 52  1  0
 52 53  1  0
 53 54  1  0
 54 55  1  0
 55 56  1  0
 56 57  1  0
 57 58  1  0
 58 59  1  0
 59 60  1  0
 60 61  1  0
 61 62  1  0
 62 63  1  0
M  END
$$$$
