
     RDKit          3D

 63 63  0  0  0  0  0  0  0  0999 V2000
  -18.8330  -26.8395   22.5274 C   0  0  2  0  0  0  0  0  0  0  0  0
  -18.7431  -27.0434   24.0325 C   0  0  2  0  0  0  0  0  0  0  0  0
  -17.2932  -27.3840   24.4629 C   0  0  2  0  0  0  0  0  0  0  0  0
  -16.5069  -28.0456   23.2943 C   0  0  2  0  0  0  0  0  0  0  0  0
  -18.3932  -28.1582   21.8169 C   0  0  1  0  0  0  0  0  0  0  0  0
   -4.0767  -20.5762   11.8728 C   0  0  0  0  0  0  0  0  0  0  0  0
   -4.7177  -21.7417   12.6125 C   0  0  0  0  0  0  0  0  0  0  0  0
   -5.1902  -22.8247   11.6416 C   0  0  0  0  0  0  0  0  0  0  0  0
   -6.5013  -22.4768   10.9349 C   0  0  0  0  0  0  0  0  0  0  0  0
   -7.6135  -23.5311   10.9874 C   0  0  0  0  0  0  0  0  0  0  0  0
   -8.0744  -24.0455    9.6186 C   0  0  0  0  0  0  0  0  0  0  0  0
   -9.5054  -24.5895    9.6321 C   0  0  0  0  0  0  0  0  0  0  0  0
   -9.7073  -25.6032   10.7614 C   0  0  0  0  0  0  0  0  0  0  0  0
  -10.9702  -25.3529   11.5929 C   0  0  0  0  0  0  0  0  0  0  0  0
  -10.9649  -25.8936   13.0273 C   0  0  0  0  0  0  0  0  0  0  0  0
  -12.3153  -26.3763   13.5658 C   0  0  0  0  0  0  0  0  0  0  0  0
  -12.4752  -26.2892   15.0824 C   0  0  0  0  0  0  0  0  0  0  0  0
  -13.6113  -25.3348   15.4634 C   0  0  0  0  0  0  0  0  0  0  0  0
  -14.1531  -25.6295   16.8684 C   0  0  0  0  0  0  0  0  0  0  0  0
  -15.4991  -26.3857   16.8402 C   0  0  1  0  0  0  0  0  0  0  0  0
  -15.2447  -27.7858   16.9732 O   0  0  0  0  0  0  0  0  0  0  0  0
  -16.4577  -25.9160   17.9730 C   0  0  1  0  0  0  0  0  0  0  0  0
  -17.8204  -26.1666   17.5804 O   0  0  0  0  0  0  0  0  0  0  0  0
  -16.2249  -26.5921   19.3581 C   0  0  2  0  0  0  0  0  0  0  0  0
  -17.5185  -26.6066   20.2059 C   0  0  0  0  0  0  0  0  0  0  0  0
  -17.9703  -27.9386   20.4657 O   0  0  0  0  0  0  0  0  0  0  0  0
  -18.0233  -25.7096   22.1588 O   0  0  0  0  0  0  0  0  0  0  0  0
  -19.6674  -28.0668   24.4312 O   0  0  0  0  0  0  0  0  0  0  0  0
  -17.3642  -28.8858   22.5092 O   0  0  0  0  0  0  0  0  0  0  0  0
  -15.2597  -28.8522   23.6940 C   0  0  0  0  0  0  0  0  0  0  0  0
  -14.4048  -28.1636   24.6016 O   0  0  0  0  0  0  0  0  0  0  0  0
  -17.4313  -28.2031   25.6389 O   0  0  0  0  0  0  0  0  0  0  0  0
  -18.4106  -27.7413   26.5680 C   0  0  0  0  0  0  0  0  0  0  0  0
  -18.2398  -28.4490   27.9106 C   0  0  0  0  0  0  0  0  0  0  0  0
  -18.7797  -27.6138   29.0575 C   0  0  0  0  0  0  0  0  0  0  0  0
  -15.1376  -26.0105   20.1360 N   0  0  0  0  0  0  0  0  0  0  0  0
  -14.5465  -24.8190   19.7770 C   0  0  0  0  0  0  0  0  0  0  0  0
  -13.9299  -24.6664   18.7272 O   0  0  0  0  0  0  0  0  0  0  0  0
  -14.7116  -23.7384   20.8295 C   0  0  0  0  0  0  0  0  0  0  0  0
  -13.9008  -22.4887   20.4929 C   0  0  0  0  0  0  0  0  0  0  0  0
  -12.8787  -22.7005   19.3739 C   0  0  0  0  0  0  0  0  0  0  0  0
  -11.4816  -22.1616   19.6957 C   0  0  0  0  0  0  0  0  0  0  0  0
  -10.4818  -22.3774   18.5504 C   0  0  0  0  0  0  0  0  0  0  0  0
   -9.0663  -21.8487   18.8179 C   0  0  0  0  0  0  0  0  0  0  0  0
   -8.1416  -21.8914   17.5951 C   0  0  0  0  0  0  0  0  0  0  0  0
   -7.6655  -23.3131   17.2827 C   0  0  0  0  0  0  0  0  0  0  0  0
   -7.7040  -23.6410   15.7867 C   0  0  0  0  0  0  0  0  0  0  0  0
   -6.8971  -22.6932   14.8919 C   0  0  0  0  0  0  0  0  0  0  0  0
   -6.5622  -23.3051   13.5292 C   0  0  0  0  0  0  0  0  0  0  0  0
   -7.3041  -24.6259   13.3080 C   0  0  0  0  0  0  0  0  0  0  0  0
   -6.3613  -25.8274   13.1898 C   0  0  0  0  0  0  0  0  0  0  0  0
   -6.6688  -26.7381   11.9985 C   0  0  0  0  0  0  0  0  0  0  0  0
   -5.4012  -27.4471   11.5094 C   0  0  0  0  0  0  0  0  0  0  0  0
   -5.5403  -28.9715   11.4741 C   0  0  0  0  0  0  0  0  0  0  0  0
   -4.2492  -29.6676   11.0359 C   0  0  0  0  0  0  0  0  0  0  0  0
   -4.4414  -31.1835   10.9216 C   0  0  0  0  0  0  0  0  0  0  0  0
   -4.1452  -31.7199    9.5177 C   0  0  0  0  0  0  0  0  0  0  0  0
   -2.8442  -32.5151    9.3719 C   0  0  0  0  0  0  0  0  0  0  0  0
   -3.0323  -34.0278    9.2792 C   0  0  0  0  0  0  0  0  0  0  0  0
   -1.7187  -34.7814    9.0510 C   0  0  0  0  0  0  0  0  0  0  0  0
   -1.1859  -35.4577   10.3201 C   0  0  0  0  0  0  0  0  0  0  0  0
   -0.2110  -36.5957   10.0227 C   0  0  0  0  0  0  0  0  0  0  0  0
    0.2968  -37.2357   11.3046 C   0  0  0  0  0  0  0  0  0  0  0  0
  1  2  1  0
  5  1  1  0
  1 27  1  6
  2  3  1  0
  2 28  1  6
  4  3  1  0
  3 32  1  1
 29  4  1  0
  4 30  1  1
  5 26  1  6
  5 29  1  0
  7  6  1  0
  8  7  1  0
  9  8  1  0
 10  9  1  0
 11 10  1  0
 12 11  1  0
 13 12  1  0
 14 13  1  0
 15 14  1  0
 16 15  1  0
 17 16  1  0
 18 17  1  0
 19 18  1  0
 20 19  1  0
 20 21  1  1
 22 20  1  0
 22 23  1  6
 24 22  1  0
 24 25  1  1
 24 36  1  0
 25 26  1  0
 30 31  1  0
 32 33  1  0
 33 34  1  0
 34 35  1  0
 36 37  1  0
 37 38  2  0
 37 39  1  0
 39 40  1  0
 40 41  1  0
 41 42  1  0
 42 43  1  0
 43 44  1  0
 44 45  1  0
 45 46  1  0
 46 47  1  0
 47 48  1  0
 48 49  1  0
 49 50  1  0
 50 51  1  0
 51 52  1  0
 52 53  1  0
 53 54  1  0
 54 55  1  0
 55 56  1  0
 56 57  1  0
 57 58  1  0
 58 59  1  0
 59 60  1  0
 60 61  1  0
 61 62  1  0
 62 63  1  0
M  END
$$$$
