
     RDKit          3D

 63 63  0  0  0  0  0  0  0  0999 V2000
  -12.4389  -28.4717   20.1281 C   0  0  2  0  0  0  0  0  0  0  0  0
  -13.0785  -29.8419   20.2974 C   0  0  2  0  0  0  0  0  0  0  0  0
  -14.1067  -30.1197   19.1710 C   0  0  2  0  0  0  0  0  0  0  0  0
  -14.6781  -28.7900   18.5989 C   0  0  2  0  0  0  0  0  0  0  0  0
  -13.5590  -27.3859   20.1894 C   0  0  1  0  0  0  0  0  0  0  0  0
   -9.0776  -14.2369   30.2702 C   0  0  0  0  0  0  0  0  0  0  0  0
   -8.7754  -15.4368   29.3838 C   0  0  0  0  0  0  0  0  0  0  0  0
   -7.6632  -15.1226   28.3822 C   0  0  0  0  0  0  0  0  0  0  0  0
   -8.0146  -15.5070   26.9441 C   0  0  0  0  0  0  0  0  0  0  0  0
   -6.8487  -15.6081   25.9532 C   0  0  0  0  0  0  0  0  0  0  0  0
   -7.1387  -16.4513   24.7060 C   0  0  0  0  0  0  0  0  0  0  0  0
   -6.1278  -16.2239   23.5790 C   0  0  0  0  0  0  0  0  0  0  0  0
   -6.4417  -17.0977   22.3617 C   0  0  0  0  0  0  0  0  0  0  0  0
   -7.9379  -17.3694   22.1703 C   0  0  0  0  0  0  0  0  0  0  0  0
   -8.3169  -18.7318   21.5785 C   0  0  0  0  0  0  0  0  0  0  0  0
   -9.4057  -19.5072   22.3268 C   0  0  0  0  0  0  0  0  0  0  0  0
  -10.8058  -19.3992   21.7254 C   0  0  0  0  0  0  0  0  0  0  0  0
  -11.5111  -20.7590   21.7221 C   0  0  0  0  0  0  0  0  0  0  0  0
  -11.4890  -21.4065   20.3312 C   0  0  0  0  0  0  0  0  0  0  0  0
  -12.8707  -21.3828   19.6421 C   0  0  1  0  0  0  0  0  0  0  0  0
  -12.6796  -21.3349   18.2265 O   0  0  0  0  0  0  0  0  0  0  0  0
  -13.7314  -22.6250   20.0144 C   0  0  1  0  0  0  0  0  0  0  0  0
  -15.1109  -22.2309   20.1383 O   0  0  0  0  0  0  0  0  0  0  0  0
  -13.6589  -23.8068   19.0005 C   0  0  2  0  0  0  0  0  0  0  0  0
  -14.1568  -25.1274   19.6332 C   0  0  0  0  0  0  0  0  0  0  0  0
  -13.1663  -26.1570   19.5662 O   0  0  0  0  0  0  0  0  0  0  0  0
  -11.7045  -28.4474   18.8919 O   0  0  0  0  0  0  0  0  0  0  0  0
  -13.6813  -29.9295   21.5972 O   0  0  0  0  0  0  0  0  0  0  0  0
  -14.8165  -27.8041   19.6316 O   0  0  0  0  0  0  0  0  0  0  0  0
  -16.0131  -28.9013   17.8431 C   0  0  0  0  0  0  0  0  0  0  0  0
  -16.6529  -27.6463   17.6326 O   0  0  0  0  0  0  0  0  0  0  0  0
  -15.0863  -30.9941   19.7616 O   0  0  0  0  0  0  0  0  0  0  0  0
  -14.5845  -31.8179   20.8128 C   0  0  0  0  0  0  0  0  0  0  0  0
  -14.2784  -33.2184   20.2859 C   0  0  0  0  0  0  0  0  0  0  0  0
  -15.5290  -33.9113   19.7757 C   0  0  0  0  0  0  0  0  0  0  0  0
  -12.3414  -24.0138   18.4114 N   0  0  0  0  0  0  0  0  0  0  0  0
  -12.1448  -24.8878   17.3649 C   0  0  0  0  0  0  0  0  0  0  0  0
  -13.0649  -25.4534   16.7824 O   0  0  0  0  0  0  0  0  0  0  0  0
  -10.6776  -25.0974   17.0394 C   0  0  0  0  0  0  0  0  0  0  0  0
  -10.4875  -25.7824   15.6877 C   0  0  0  0  0  0  0  0  0  0  0  0
   -9.1221  -25.5173   15.0494 C   0  0  0  0  0  0  0  0  0  0  0  0
   -8.9984  -26.0242   13.6094 C   0  0  0  0  0  0  0  0  0  0  0  0
   -8.0723  -27.2427   13.4847 C   0  0  0  0  0  0  0  0  0  0  0  0
   -6.7038  -26.9543   12.8533 C   0  0  0  0  0  0  0  0  0  0  0  0
   -5.5888  -27.8988   13.3192 C   0  0  0  0  0  0  0  0  0  0  0  0
   -4.7381  -28.4056   12.1508 C   0  0  0  0  0  0  0  0  0  0  0  0
   -5.5719  -29.0562   11.0426 C   0  0  0  0  0  0  0  0  0  0  0  0
   -4.7672  -29.5967    9.8550 C   0  0  0  0  0  0  0  0  0  0  0  0
   -5.4918  -30.7203    9.1094 C   0  0  0  0  0  0  0  0  0  0  0  0
   -4.5043  -31.6701    8.4263 C   0  0  0  0  0  0  0  0  0  0  0  0
   -5.1974  -32.7846    7.6364 C   0  0  0  0  0  0  0  0  0  0  0  0
   -4.3033  -33.4409    6.5814 C   0  0  0  0  0  0  0  0  0  0  0  0
   -4.8232  -33.1551    5.1682 C   0  0  0  0  0  0  0  0  0  0  0  0
   -4.0650  -32.0256    4.4654 C   0  0  0  0  0  0  0  0  0  0  0  0
   -3.9711  -32.2362    2.9521 C   0  0  0  0  0  0  0  0  0  0  0  0
   -5.3603  -32.3226    2.3115 C   0  0  0  0  0  0  0  0  0  0  0  0
   -6.3818  -31.3902    2.9699 C   0  0  0  0  0  0  0  0  0  0  0  0
   -7.8216  -31.5194    2.4635 C   0  0  0  0  0  0  0  0  0  0  0  0
   -7.9964  -31.2441    0.9716 C   0  0  0  0  0  0  0  0  0  0  0  0
   -9.4416  -31.4193    0.4959 C   0  0  0  0  0  0  0  0  0  0  0  0
   -9.6719  -32.7379   -0.2524 C   0  0  0  0  0  0  0  0  0  0  0  0
   -9.5651  -32.5872   -1.7690 C   0  0  0  0  0  0  0  0  0  0  0  0
   -9.8127  -33.9114   -2.4733 C   0  0  0  0  0  0  0  0  0  0  0  0
  1  2  1  0
  5  1  1  0
  1 27  1  6
  2  3  1  0
  2 28  1  1
  4  3  1  0
  3 32  1  1
 29  4  1  0
  4 30  1  1
  5 26  1  6
  5 29  1  0
  7  6  1  0
  8  7  1  0
  9  8  1  0
 10  9  1  0
 11 10  1  0
 12 11  1  0
 13 12  1  0
 14 13  1  0
 15 14  1  0
 16 15  1  0
 17 16  1  0
 18 17  1  0
 19 18  1  0
 20 19  1  0
 20 21  1  6
 22 20  1  0
 22 23  1  6
 24 22  1  0
 24 25  1  1
 24 36  1  0
 25 26  1  0
 30 31  1  0
 32 33  1  0
 33 34  1  0
 34 35  1  0
 36 37  1  0
 37 38  2  0
 37 39  1  0
 39 40  1  0
 40 41  1  0
 41 42  1  0
 42 43  1  0
 43 44  1  0
 44 45  1  0
 45 46  1  0
 46 47  1  0
 47 48  1  0
 48 49  1  0
 49 50  1  0
 50 51  1  0
 51 52  1  0
 52 53  1  0
 53 54  1  0
 54 55  1  0
 55 56  1  0
 56 57  1  0
 57 58  1  0
 58 59  1  0
 59 60  1  0
 60 61  1  0
 61 62  1  0
 62 63  1  0
M  END
$$$$
