
     RDKit          3D

 63 63  0  0  0  0  0  0  0  0999 V2000
  -12.2643  -27.8412   17.4127 C   0  0  2  0  0  0  0  0  0  0  0  0
  -13.5027  -28.4901   18.0130 C   0  0  2  0  0  0  0  0  0  0  0  0
  -14.7827  -28.0557   17.2540 C   0  0  2  0  0  0  0  0  0  0  0  0
  -14.5838  -26.6693   16.5757 C   0  0  2  0  0  0  0  0  0  0  0  0
  -12.4110  -26.2906   17.5187 C   0  0  1  0  0  0  0  0  0  0  0  0
  -18.0971  -13.6270   26.9518 C   0  0  0  0  0  0  0  0  0  0  0  0
  -16.9593  -14.1175   27.8358 C   0  0  0  0  0  0  0  0  0  0  0  0
  -15.6601  -14.2616   27.0417 C   0  0  0  0  0  0  0  0  0  0  0  0
  -14.9554  -15.6001   27.2678 C   0  0  0  0  0  0  0  0  0  0  0  0
  -14.7879  -16.5064   26.0423 C   0  0  0  0  0  0  0  0  0  0  0  0
  -13.5006  -17.3392   26.0321 C   0  0  0  0  0  0  0  0  0  0  0  0
  -12.2951  -16.5886   26.6042 C   0  0  0  0  0  0  0  0  0  0  0  0
  -11.0376  -16.8283   25.7648 C   0  0  0  0  0  0  0  0  0  0  0  0
  -10.5656  -18.2864   25.7681 C   0  0  0  0  0  0  0  0  0  0  0  0
   -9.8337  -18.7729   24.5121 C   0  0  0  0  0  0  0  0  0  0  0  0
   -9.8375  -20.2870   24.2793 C   0  0  0  0  0  0  0  0  0  0  0  0
  -10.6259  -20.7512   23.0560 C   0  0  0  0  0  0  0  0  0  0  0  0
  -10.5760  -22.2757   22.9135 C   0  0  0  0  0  0  0  0  0  0  0  0
  -11.3315  -22.7543   21.6668 C   0  0  0  0  0  0  0  0  0  0  0  0
  -10.5178  -22.5630   20.3684 C   0  0  1  0  0  0  0  0  0  0  0  0
   -9.1935  -22.1486   20.7106 O   0  0  0  0  0  0  0  0  0  0  0  0
  -10.4576  -23.8657   19.5186 C   0  0  1  0  0  0  0  0  0  0  0  0
  -11.2518  -24.8865   20.1520 O   0  0  0  0  0  0  0  0  0  0  0  0
  -10.9504  -23.7179   18.0472 C   0  0  2  0  0  0  0  0  0  0  0  0
  -10.4816  -24.9033   17.1711 C   0  0  0  0  0  0  0  0  0  0  0  0
  -11.5835  -25.5957   16.5777 O   0  0  0  0  0  0  0  0  0  0  0  0
  -12.1078  -28.2961   16.0574 O   0  0  0  0  0  0  0  0  0  0  0  0
  -13.5807  -28.1675   19.4096 O   0  0  0  0  0  0  0  0  0  0  0  0
  -13.7614  -25.8156   17.3834 O   0  0  0  0  0  0  0  0  0  0  0  0
  -15.8695  -25.9093   16.2081 C   0  0  0  0  0  0  0  0  0  0  0  0
  -15.8322  -24.5285   16.5557 O   0  0  0  0  0  0  0  0  0  0  0  0
  -15.8368  -28.1037   18.2337 O   0  0  0  0  0  0  0  0  0  0  0  0
  -16.8832  -29.0248   17.9299 C   0  0  0  0  0  0  0  0  0  0  0  0
  -16.6237  -29.6927   16.5811 C   0  0  0  0  0  0  0  0  0  0  0  0
  -17.3432  -31.0245   16.4672 C   0  0  0  0  0  0  0  0  0  0  0  0
  -10.5746  -22.4614   17.4105 N   0  0  0  0  0  0  0  0  0  0  0  0
  -11.4762  -21.7238   16.6749 C   0  0  0  0  0  0  0  0  0  0  0  0
  -12.6651  -21.6359   16.9653 O   0  0  0  0  0  0  0  0  0  0  0  0
  -10.8483  -21.0680   15.4590 C   0  0  0  0  0  0  0  0  0  0  0  0
  -10.6351  -22.0652   14.3220 C   0  0  0  0  0  0  0  0  0  0  0  0
  -10.5233  -21.4120   12.9426 C   0  0  0  0  0  0  0  0  0  0  0  0
  -10.6407  -22.3967   11.7754 C   0  0  0  0  0  0  0  0  0  0  0  0
   -9.3960  -23.2816   11.6155 C   0  0  0  0  0  0  0  0  0  0  0  0
   -9.6772  -24.7885   11.5460 C   0  0  0  0  0  0  0  0  0  0  0  0
   -8.4283  -25.6653   11.7008 C   0  0  0  0  0  0  0  0  0  0  0  0
   -7.4681  -25.5137   10.5173 C   0  0  0  0  0  0  0  0  0  0  0  0
   -6.2859  -26.4860   10.5787 C   0  0  0  0  0  0  0  0  0  0  0  0
   -5.6450  -26.8172    9.2261 C   0  0  0  0  0  0  0  0  0  0  0  0
   -6.6784  -27.1201    8.1381 C   0  0  0  0  0  0  0  0  0  0  0  0
   -6.3344  -28.4032    7.3771 C   0  0  0  0  0  0  0  0  0  0  0  0
   -4.8265  -28.6034    7.1957 C   0  0  0  0  0  0  0  0  0  0  0  0
   -4.4663  -29.7162    6.2082 C   0  0  0  0  0  0  0  0  0  0  0  0
   -3.7961  -30.8916    6.9280 C   0  0  0  0  0  0  0  0  0  0  0  0
   -4.7558  -31.6686    7.8333 C   0  0  0  0  0  0  0  0  0  0  0  0
   -4.3269  -33.1251    8.0287 C   0  0  0  0  0  0  0  0  0  0  0  0
   -4.6559  -33.6211    9.4407 C   0  0  0  0  0  0  0  0  0  0  0  0
   -5.8106  -34.6272    9.4674 C   0  0  0  0  0  0  0  0  0  0  0  0
   -6.9802  -34.2710   10.3901 C   0  0  0  0  0  0  0  0  0  0  0  0
   -7.2039  -35.2524   11.5385 C   0  0  0  0  0  0  0  0  0  0  0  0
   -8.6572  -35.7227   11.6495 C   0  0  0  0  0  0  0  0  0  0  0  0
   -9.6698  -34.6461   11.2403 C   0  0  0  0  0  0  0  0  0  0  0  0
  -10.6391  -34.2838   12.3642 C   0  0  0  0  0  0  0  0  0  0  0  0
  -11.5887  -33.1760   11.9374 C   0  0  0  0  0  0  0  0  0  0  0  0
  1  2  1  0
  5  1  1  0
  1 27  1  6
  2  3  1  0
  2 28  1  1
  4  3  1  0
  3 32  1  1
 29  4  1  0
  4 30  1  1
  5 26  1  6
  5 29  1  0
  7  6  1  0
  8  7  1  0
  9  8  1  0
 10  9  1  0
 11 10  1  0
 12 11  1  0
 13 12  1  0
 14 13  1  0
 15 14  1  0
 16 15  1  0
 17 16  1  0
 18 17  1  0
 19 18  1  0
 20 19  1  0
 20 21  1  1
 22 20  1  0
 22 23  1  1
 24 22  1  0
 24 25  1  6
 24 36  1  0
 25 26  1  0
 30 31  1  0
 32 33  1  0
 33 34  1  0
 34 35  1  0
 36 37  1  0
 37 38  2  0
 37 39  1  0
 39 40  1  0
 40 41  1  0
 41 42  1  0
 42 43  1  0
 43 44  1  0
 44 45  1  0
 45 46  1  0
 46 47  1  0
 47 48  1  0
 48 49  1  0
 49 50  1  0
 50 51  1  0
 51 52  1  0
 52 53  1  0
 53 54  1  0
 54 55  1  0
 55 56  1  0
 56 57  1  0
 57 58  1  0
 58 59  1  0
 59 60  1  0
 60 61  1  0
 61 62  1  0
 62 63  1  0
M  END
$$$$
