
     RDKit          3D

 63 63  0  0  0  0  0  0  0  0999 V2000
  -17.0874  -29.3248   19.5254 C   0  0  2  0  0  0  0  0  0  0  0  0
  -17.4167  -30.0584   18.2337 C   0  0  2  0  0  0  0  0  0  0  0  0
  -16.1349  -30.3302   17.4052 C   0  0  2  0  0  0  0  0  0  0  0  0
  -15.0289  -29.2854   17.7325 C   0  0  2  0  0  0  0  0  0  0  0  0
  -16.4191  -27.9597   19.1689 C   0  0  1  0  0  0  0  0  0  0  0  0
   -1.4112  -30.0176    7.0997 C   0  0  0  0  0  0  0  0  0  0  0  0
   -2.8463  -30.1565    6.6121 C   0  0  0  0  0  0  0  0  0  0  0  0
   -3.7660  -30.6603    7.7254 C   0  0  0  0  0  0  0  0  0  0  0  0
   -4.5505  -29.5440    8.4168 C   0  0  0  0  0  0  0  0  0  0  0  0
   -4.9457  -29.7830    9.8789 C   0  0  0  0  0  0  0  0  0  0  0  0
   -4.9286  -28.5289   10.7608 C   0  0  0  0  0  0  0  0  0  0  0  0
   -5.6041  -28.7401   12.1184 C   0  0  0  0  0  0  0  0  0  0  0  0
   -5.5954  -27.4567   12.9528 C   0  0  0  0  0  0  0  0  0  0  0  0
   -6.3968  -27.5651   14.2547 C   0  0  0  0  0  0  0  0  0  0  0  0
   -7.3336  -26.3967   14.5824 C   0  0  0  0  0  0  0  0  0  0  0  0
   -8.2781  -26.6086   15.7696 C   0  0  0  0  0  0  0  0  0  0  0  0
   -8.9271  -25.3377   16.3145 C   0  0  0  0  0  0  0  0  0  0  0  0
   -9.7244  -25.6286   17.5899 C   0  0  0  0  0  0  0  0  0  0  0  0
  -11.0792  -24.9083   17.5890 C   0  0  0  0  0  0  0  0  0  0  0  0
  -11.8351  -25.0617   18.9267 C   0  0  1  0  0  0  0  0  0  0  0  0
  -12.8354  -24.0443   19.0108 O   0  0  0  0  0  0  0  0  0  0  0  0
  -12.4980  -26.4630   19.0666 C   0  0  1  0  0  0  0  0  0  0  0  0
  -11.4842  -27.4820   18.9792 O   0  0  0  0  0  0  0  0  0  0  0  0
  -13.2930  -26.6888   20.3882 C   0  0  2  0  0  0  0  0  0  0  0  0
  -14.2813  -27.8717   20.2597 C   0  0  0  0  0  0  0  0  0  0  0  0
  -15.6418  -27.4306   20.2500 O   0  0  0  0  0  0  0  0  0  0  0  0
  -16.2475  -30.1624   20.3385 O   0  0  0  0  0  0  0  0  0  0  0  0
  -18.3787  -29.2993   17.4861 O   0  0  0  0  0  0  0  0  0  0  0  0
  -15.6008  -27.9949   17.9871 O   0  0  0  0  0  0  0  0  0  0  0  0
  -13.9164  -29.1317   16.6816 C   0  0  0  0  0  0  0  0  0  0  0  0
  -14.3821  -29.2464   15.3404 O   0  0  0  0  0  0  0  0  0  0  0  0
  -16.5685  -30.3418   16.0323 O   0  0  0  0  0  0  0  0  0  0  0  0
  -17.1694  -31.5661   15.6135 C   0  0  0  0  0  0  0  0  0  0  0  0
  -16.3643  -32.1868   14.4737 C   0  0  0  0  0  0  0  0  0  0  0  0
  -17.0935  -32.0760   13.1469 C   0  0  0  0  0  0  0  0  0  0  0  0
  -14.0021  -25.5104   20.8722 N   0  0  0  0  0  0  0  0  0  0  0  0
  -13.3929  -24.5827   21.6884 C   0  0  0  0  0  0  0  0  0  0  0  0
  -12.2674  -24.7353   22.1530 O   0  0  0  0  0  0  0  0  0  0  0  0
  -14.2735  -23.3804   21.9741 C   0  0  0  0  0  0  0  0  0  0  0  0
  -13.4500  -22.1157   22.2088 C   0  0  0  0  0  0  0  0  0  0  0  0
  -12.7750  -22.0661   23.5813 C   0  0  0  0  0  0  0  0  0  0  0  0
  -11.5937  -21.0944   23.6601 C   0  0  0  0  0  0  0  0  0  0  0  0
  -10.3971  -21.5415   22.8080 C   0  0  0  0  0  0  0  0  0  0  0  0
   -9.1916  -20.5925   22.8357 C   0  0  0  0  0  0  0  0  0  0  0  0
   -8.0186  -21.0460   21.9578 C   0  0  0  0  0  0  0  0  0  0  0  0
   -7.1345  -19.8721   21.5268 C   0  0  0  0  0  0  0  0  0  0  0  0
   -6.9655  -19.7778   20.0071 C   0  0  0  0  0  0  0  0  0  0  0  0
   -6.3108  -18.4861   19.5042 C   0  0  0  0  0  0  0  0  0  0  0  0
   -6.1138  -18.4727   17.9861 C   0  0  0  0  0  0  0  0  0  0  0  0
   -6.8931  -17.3311   17.3278 C   0  0  0  0  0  0  0  0  0  0  0  0
   -7.8520  -17.8151   16.2357 C   0  0  0  0  0  0  0  0  0  0  0  0
   -7.2526  -18.8831   15.3174 C   0  0  0  0  0  0  0  0  0  0  0  0
   -8.2167  -20.0621   15.1462 C   0  0  0  0  0  0  0  0  0  0  0  0
   -7.7285  -21.0952   14.1269 C   0  0  0  0  0  0  0  0  0  0  0  0
   -8.8495  -22.0218   13.6492 C   0  0  0  0  0  0  0  0  0  0  0  0
   -8.3477  -23.0066   12.5879 C   0  0  0  0  0  0  0  0  0  0  0  0
   -9.4788  -23.6113   11.7504 C   0  0  0  0  0  0  0  0  0  0  0  0
  -10.0990  -24.8981   12.3033 C   0  0  0  0  0  0  0  0  0  0  0  0
  -10.4151  -25.9547   11.2470 C   0  0  0  0  0  0  0  0  0  0  0  0
   -9.4438  -27.1385   11.2750 C   0  0  0  0  0  0  0  0  0  0  0  0
   -9.6581  -28.1189   10.1154 C   0  0  0  0  0  0  0  0  0  0  0  0
   -8.3482  -28.5944    9.4892 C   0  0  0  0  0  0  0  0  0  0  0  0
   -7.6600  -29.6267   10.3678 C   0  0  0  0  0  0  0  0  0  0  0  0
  1  2  1  0
  5  1  1  0
  1 27  1  1
  2  3  1  0
  2 28  1  6
  4  3  1  0
  3 32  1  6
 29  4  1  0
  4 30  1  6
  5 26  1  1
  5 29  1  0
  7  6  1  0
  8  7  1  0
  9  8  1  0
 10  9  1  0
 11 10  1  0
 12 11  1  0
 13 12  1  0
 14 13  1  0
 15 14  1  0
 16 15  1  0
 17 16  1  0
 18 17  1  0
 19 18  1  0
 20 19  1  0
 20 21  1  6
 22 20  1  0
 22 23  1  1
 24 22  1  0
 24 25  1  6
 24 36  1  0
 25 26  1  0
 30 31  1  0
 32 33  1  0
 33 34  1  0
 34 35  1  0
 36 37  1  0
 37 38  2  0
 37 39  1  0
 39 40  1  0
 40 41  1  0
 41 42  1  0
 42 43  1  0
 43 44  1  0
 44 45  1  0
 45 46  1  0
 46 47  1  0
 47 48  1  0
 48 49  1  0
 49 50  1  0
 50 51  1  0
 51 52  1  0
 52 53  1  0
 53 54  1  0
 54 55  1  0
 55 56  1  0
 56 57  1  0
 57 58  1  0
 58 59  1  0
 59 60  1  0
 60 61  1  0
 61 62  1  0
 62 63  1  0
M  END
$$$$
