
     RDKit          3D

 63 63  0  0  0  0  0  0  0  0999 V2000
  -21.6995  -28.3782   20.2207 C   0  0  2  0  0  0  0  0  0  0  0  0
  -22.2425  -29.7175   20.6968 C   0  0  2  0  0  0  0  0  0  0  0  0
  -21.2871  -30.3712   21.7278 C   0  0  2  0  0  0  0  0  0  0  0  0
  -19.8258  -29.8762   21.5241 C   0  0  2  0  0  0  0  0  0  0  0  0
  -20.3124  -28.6130   19.5440 C   0  0  1  0  0  0  0  0  0  0  0  0
   -7.6844  -25.4961   13.5738 C   0  0  0  0  0  0  0  0  0  0  0  0
   -6.8224  -24.3429   14.0672 C   0  0  0  0  0  0  0  0  0  0  0  0
   -6.7996  -24.2793   15.5952 C   0  0  0  0  0  0  0  0  0  0  0  0
   -7.1255  -22.8918   16.1502 C   0  0  0  0  0  0  0  0  0  0  0  0
   -7.2690  -22.7747   17.6724 C   0  0  0  0  0  0  0  0  0  0  0  0
   -7.3449  -21.3373   18.2004 C   0  0  0  0  0  0  0  0  0  0  0  0
   -8.5032  -21.1167   19.1770 C   0  0  0  0  0  0  0  0  0  0  0  0
   -9.8488  -21.4666   18.5364 C   0  0  0  0  0  0  0  0  0  0  0  0
  -10.9992  -20.5615   18.9906 C   0  0  0  0  0  0  0  0  0  0  0  0
  -12.1090  -21.2247   19.8143 C   0  0  0  0  0  0  0  0  0  0  0  0
  -12.9707  -22.2513   19.0726 C   0  0  0  0  0  0  0  0  0  0  0  0
  -13.9774  -23.0005   19.9436 C   0  0  0  0  0  0  0  0  0  0  0  0
  -14.9706  -23.7895   19.0844 C   0  0  0  0  0  0  0  0  0  0  0  0
  -16.3722  -23.8069   19.7086 C   0  0  0  0  0  0  0  0  0  0  0  0
  -16.4802  -24.7824   20.9007 C   0  0  1  0  0  0  0  0  0  0  0  0
  -17.1158  -24.1106   21.9904 O   0  0  0  0  0  0  0  0  0  0  0  0
  -17.2815  -26.0658   20.5355 C   0  0  1  0  0  0  0  0  0  0  0  0
  -18.6410  -25.9258   20.9895 O   0  0  0  0  0  0  0  0  0  0  0  0
  -17.3160  -26.4131   19.0163 C   0  0  2  0  0  0  0  0  0  0  0  0
  -18.3268  -27.5448   18.7167 C   0  0  0  0  0  0  0  0  0  0  0  0
  -19.5102  -27.4262   19.5112 O   0  0  0  0  0  0  0  0  0  0  0  0
  -21.6299  -27.4770   21.3393 O   0  0  0  0  0  0  0  0  0  0  0  0
  -22.4638  -30.5720   19.5647 O   0  0  0  0  0  0  0  0  0  0  0  0
  -19.5413  -29.6742   20.1328 O   0  0  0  0  0  0  0  0  0  0  0  0
  -18.7243  -30.7642   22.1274 C   0  0  0  0  0  0  0  0  0  0  0  0
  -17.7911  -31.2446   21.1645 O   0  0  0  0  0  0  0  0  0  0  0  0
  -21.4727  -31.7900   21.5676 O   0  0  0  0  0  0  0  0  0  0  0  0
  -21.7669  -32.4870   22.7772 C   0  0  0  0  0  0  0  0  0  0  0  0
  -20.5526  -33.2952   23.2297 C   0  0  0  0  0  0  0  0  0  0  0  0
  -20.8718  -34.1590   24.4365 C   0  0  0  0  0  0  0  0  0  0  0  0
  -16.0176  -26.7549   18.4479 N   0  0  0  0  0  0  0  0  0  0  0  0
  -15.4554  -28.0004   18.6226 C   0  0  0  0  0  0  0  0  0  0  0  0
  -15.7852  -28.9827   17.9653 O   0  0  0  0  0  0  0  0  0  0  0  0
  -14.4190  -28.0291   19.7307 C   0  0  0  0  0  0  0  0  0  0  0  0
  -13.0427  -28.4395   19.2109 C   0  0  0  0  0  0  0  0  0  0  0  0
  -12.3575  -27.3635   18.3656 C   0  0  0  0  0  0  0  0  0  0  0  0
  -11.1135  -26.7552   19.0200 C   0  0  0  0  0  0  0  0  0  0  0  0
  -10.4696  -25.6537   18.1656 C   0  0  0  0  0  0  0  0  0  0  0  0
   -9.3017  -24.9155   18.8332 C   0  0  0  0  0  0  0  0  0  0  0  0
   -8.0161  -24.8937   17.9971 C   0  0  0  0  0  0  0  0  0  0  0  0
   -6.7693  -24.6928   18.8634 C   0  0  0  0  0  0  0  0  0  0  0  0
   -5.8694  -23.5591   18.3615 C   0  0  0  0  0  0  0  0  0  0  0  0
   -5.2811  -22.6621   19.4566 C   0  0  0  0  0  0  0  0  0  0  0  0
   -3.8246  -22.2748   19.1877 C   0  0  0  0  0  0  0  0  0  0  0  0
   -3.2762  -21.3544   20.2813 C   0  0  0  0  0  0  0  0  0  0  0  0
   -1.7864  -21.0433   20.1078 C   0  0  0  0  0  0  0  0  0  0  0  0
   -0.8690  -21.9232   20.9605 C   0  0  0  0  0  0  0  0  0  0  0  0
    0.5667  -21.3868   20.9528 C   0  0  0  0  0  0  0  0  0  0  0  0
    0.7139  -20.0518   21.6881 C   0  0  0  0  0  0  0  0  0  0  0  0
    0.6607  -18.8516   20.7394 C   0  0  0  0  0  0  0  0  0  0  0  0
    0.6974  -17.5273   21.5094 C   0  0  0  0  0  0  0  0  0  0  0  0
    1.2073  -16.3570   20.6629 C   0  0  0  0  0  0  0  0  0  0  0  0
    0.5587  -16.2031   19.2838 C   0  0  0  0  0  0  0  0  0  0  0  0
   -0.4742  -15.0821   19.1901 C   0  0  0  0  0  0  0  0  0  0  0  0
   -1.9148  -15.5987   19.1331 C   0  0  0  0  0  0  0  0  0  0  0  0
   -2.8196  -14.9741   20.2021 C   0  0  0  0  0  0  0  0  0  0  0  0
   -4.2496  -15.5099   20.1577 C   0  0  0  0  0  0  0  0  0  0  0  0
   -5.0887  -14.9361   21.2880 C   0  0  0  0  0  0  0  0  0  0  0  0
  1  2  1  0
  5  1  1  0
  1 27  1  1
  2  3  1  0
  2 28  1  6
  4  3  1  0
  3 32  1  6
 29  4  1  0
  4 30  1  6
  5 26  1  1
  5 29  1  0
  7  6  1  0
  8  7  1  0
  9  8  1  0
 10  9  1  0
 11 10  1  0
 12 11  1  0
 13 12  1  0
 14 13  1  0
 15 14  1  0
 16 15  1  0
 17 16  1  0
 18 17  1  0
 19 18  1  0
 20 19  1  0
 20 21  1  1
 22 20  1  0
 22 23  1  6
 24 22  1  0
 24 25  1  1
 24 36  1  0
 25 26  1  0
 30 31  1  0
 32 33  1  0
 33 34  1  0
 34 35  1  0
 36 37  1  0
 37 38  2  0
 37 39  1  0
 39 40  1  0
 40 41  1  0
 41 42  1  0
 42 43  1  0
 43 44  1  0
 44 45  1  0
 45 46  1  0
 46 47  1  0
 47 48  1  0
 48 49  1  0
 49 50  1  0
 50 51  1  0
 51 52  1  0
 52 53  1  0
 53 54  1  0
 54 55  1  0
 55 56  1  0
 56 57  1  0
 57 58  1  0
 58 59  1  0
 59 60  1  0
 60 61  1  0
 61 62  1  0
 62 63  1  0
M  END
$$$$
