
     RDKit          3D

 63 63  0  0  0  0  0  0  0  0999 V2000
  -18.6313  -28.4628   20.6110 C   0  0  2  0  0  0  0  0  0  0  0  0
  -19.6680  -28.1682   21.6852 C   0  0  2  0  0  0  0  0  0  0  0  0
  -19.4978  -26.7325   22.2447 C   0  0  2  0  0  0  0  0  0  0  0  0
  -18.0302  -26.2416   22.0803 C   0  0  2  0  0  0  0  0  0  0  0  0
  -17.2085  -28.3326   21.2401 C   0  0  1  0  0  0  0  0  0  0  0  0
   -0.8736  -25.4467   15.5571 C   0  0  0  0  0  0  0  0  0  0  0  0
   -1.5886  -26.7559   15.8592 C   0  0  0  0  0  0  0  0  0  0  0  0
   -1.9269  -27.5144   14.5748 C   0  0  0  0  0  0  0  0  0  0  0  0
   -2.5047  -28.9079   14.8268 C   0  0  0  0  0  0  0  0  0  0  0  0
   -2.8774  -29.7336   13.5896 C   0  0  0  0  0  0  0  0  0  0  0  0
   -4.3373  -30.1997   13.5458 C   0  0  0  0  0  0  0  0  0  0  0  0
   -5.3392  -29.0471   13.6543 C   0  0  0  0  0  0  0  0  0  0  0  0
   -6.7560  -29.5024   13.2952 C   0  0  0  0  0  0  0  0  0  0  0  0
   -7.8040  -28.3890   13.4006 C   0  0  0  0  0  0  0  0  0  0  0  0
   -9.2700  -28.8110   13.2500 C   0  0  0  0  0  0  0  0  0  0  0  0
  -10.3026  -27.8913   13.9092 C   0  0  0  0  0  0  0  0  0  0  0  0
  -11.2342  -28.5758   14.9077 C   0  0  0  0  0  0  0  0  0  0  0  0
  -12.2352  -27.5793   15.5007 C   0  0  0  0  0  0  0  0  0  0  0  0
  -13.1551  -28.2450   16.5327 C   0  0  0  0  0  0  0  0  0  0  0  0
  -12.4300  -28.5623   17.8586 C   0  0  1  0  0  0  0  0  0  0  0  0
  -11.5053  -27.5101   18.1421 O   0  0  0  0  0  0  0  0  0  0  0  0
  -13.4244  -28.7218   19.0454 C   0  0  1  0  0  0  0  0  0  0  0  0
  -12.8144  -29.5219   20.0757 O   0  0  0  0  0  0  0  0  0  0  0  0
  -13.8997  -27.3860   19.6931 C   0  0  2  0  0  0  0  0  0  0  0  0
  -14.9532  -27.6355   20.7977 C   0  0  0  0  0  0  0  0  0  0  0  0
  -16.1931  -28.0996   20.2564 O   0  0  0  0  0  0  0  0  0  0  0  0
  -18.8367  -27.5678   19.5042 O   0  0  0  0  0  0  0  0  0  0  0  0
  -19.5729  -29.1551   22.7232 O   0  0  0  0  0  0  0  0  0  0  0  0
  -17.1042  -27.3225   22.2580 O   0  0  0  0  0  0  0  0  0  0  0  0
  -17.6050  -25.0754   22.9885 C   0  0  0  0  0  0  0  0  0  0  0  0
  -16.2414  -25.1399   23.3950 O   0  0  0  0  0  0  0  0  0  0  0  0
  -19.9638  -26.8001   23.6053 O   0  0  0  0  0  0  0  0  0  0  0  0
  -21.2479  -26.2162   23.8190 C   0  0  0  0  0  0  0  0  0  0  0  0
  -21.6395  -26.3257   25.2912 C   0  0  0  0  0  0  0  0  0  0  0  0
  -22.7362  -25.3411   25.6545 C   0  0  0  0  0  0  0  0  0  0  0  0
  -14.4111  -26.4055   18.7429 N   0  0  0  0  0  0  0  0  0  0  0  0
  -15.1506  -25.3176   19.1519 C   0  0  0  0  0  0  0  0  0  0  0  0
  -14.8682  -24.6489   20.1412 O   0  0  0  0  0  0  0  0  0  0  0  0
  -16.3603  -25.0626   18.2718 C   0  0  0  0  0  0  0  0  0  0  0  0
  -16.0166  -24.1765   17.0763 C   0  0  0  0  0  0  0  0  0  0  0  0
  -14.5130  -24.0060   16.8480 C   0  0  0  0  0  0  0  0  0  0  0  0
  -14.1611  -23.0959   15.6675 C   0  0  0  0  0  0  0  0  0  0  0  0
  -12.6528  -23.0450   15.3840 C   0  0  0  0  0  0  0  0  0  0  0  0
  -12.2183  -23.7053   14.0688 C   0  0  0  0  0  0  0  0  0  0  0  0
  -11.4496  -22.7723   13.1249 C   0  0  0  0  0  0  0  0  0  0  0  0
  -11.0399  -23.4759   11.8277 C   0  0  0  0  0  0  0  0  0  0  0  0
   -9.5575  -23.2894   11.4893 C   0  0  0  0  0  0  0  0  0  0  0  0
   -8.6938  -22.7395   12.6302 C   0  0  0  0  0  0  0  0  0  0  0  0
   -7.2257  -22.5661   12.2326 C   0  0  0  0  0  0  0  0  0  0  0  0
   -6.4080  -21.9338   13.3619 C   0  0  0  0  0  0  0  0  0  0  0  0
   -6.1619  -22.8936   14.5302 C   0  0  0  0  0  0  0  0  0  0  0  0
   -5.5030  -22.2326   15.7434 C   0  0  0  0  0  0  0  0  0  0  0  0
   -4.6625  -23.2447   16.5296 C   0  0  0  0  0  0  0  0  0  0  0  0
   -5.3131  -23.6714   17.8483 C   0  0  0  0  0  0  0  0  0  0  0  0
   -4.4267  -23.3764   19.0611 C   0  0  0  0  0  0  0  0  0  0  0  0
   -4.9841  -22.2166   19.8930 C   0  0  0  0  0  0  0  0  0  0  0  0
   -3.9996  -21.7136   20.9534 C   0  0  0  0  0  0  0  0  0  0  0  0
   -4.1690  -20.2511   21.3757 C   0  0  0  0  0  0  0  0  0  0  0  0
   -3.0336  -19.3286   20.9372 C   0  0  0  0  0  0  0  0  0  0  0  0
   -3.2839  -17.8603   21.2934 C   0  0  0  0  0  0  0  0  0  0  0  0
   -2.0476  -17.1643   21.8756 C   0  0  0  0  0  0  0  0  0  0  0  0
   -2.2555  -15.6664   22.0922 C   0  0  0  0  0  0  0  0  0  0  0  0
   -1.0116  -15.0158   22.6757 C   0  0  0  0  0  0  0  0  0  0  0  0
  1  2  1  0
  5  1  1  0
  1 27  1  6
  2  3  1  0
  2 28  1  1
  4  3  1  0
  3 32  1  1
 29  4  1  0
  4 30  1  1
  5 26  1  6
  5 29  1  0
  7  6  1  0
  8  7  1  0
  9  8  1  0
 10  9  1  0
 11 10  1  0
 12 11  1  0
 13 12  1  0
 14 13  1  0
 15 14  1  0
 16 15  1  0
 17 16  1  0
 18 17  1  0
 19 18  1  0
 20 19  1  0
 20 21  1  1
 22 20  1  0
 22 23  1  1
 24 22  1  0
 24 25  1  1
 24 36  1  0
 25 26  1  0
 30 31  1  0
 32 33  1  0
 33 34  1  0
 34 35  1  0
 36 37  1  0
 37 38  2  0
 37 39  1  0
 39 40  1  0
 40 41  1  0
 41 42  1  0
 42 43  1  0
 43 44  1  0
 44 45  1  0
 45 46  1  0
 46 47  1  0
 47 48  1  0
 48 49  1  0
 49 50  1  0
 50 51  1  0
 51 52  1  0
 52 53  1  0
 53 54  1  0
 54 55  1  0
 55 56  1  0
 56 57  1  0
 57 58  1  0
 58 59  1  0
 59 60  1  0
 60 61  1  0
 61 62  1  0
 62 63  1  0
M  END
$$$$
