
     RDKit          3D

 63 63  0  0  0  0  0  0  0  0999 V2000
  -18.7877  -27.5236   20.6421 C   0  0  2  0  0  0  0  0  0  0  0  0
  -19.8749  -26.7978   21.4208 C   0  0  2  0  0  0  0  0  0  0  0  0
  -19.4012  -25.3873   21.8559 C   0  0  2  0  0  0  0  0  0  0  0  0
  -17.8506  -25.3337   21.9761 C   0  0  2  0  0  0  0  0  0  0  0  0
  -17.5324  -27.6740   21.5578 C   0  0  1  0  0  0  0  0  0  0  0  0
   -4.8145  -19.9317   17.9606 C   0  0  0  0  0  0  0  0  0  0  0  0
   -6.3102  -20.0380   17.6996 C   0  0  0  0  0  0  0  0  0  0  0  0
   -6.5963  -20.7962   16.4025 C   0  0  0  0  0  0  0  0  0  0  0  0
   -8.0701  -21.1661   16.2276 C   0  0  0  0  0  0  0  0  0  0  0  0
   -8.4861  -21.7095   14.8554 C   0  0  0  0  0  0  0  0  0  0  0  0
   -8.5019  -23.2390   14.7496 C   0  0  0  0  0  0  0  0  0  0  0  0
   -9.2035  -23.7464   13.4870 C   0  0  0  0  0  0  0  0  0  0  0  0
   -8.7699  -25.1734   13.1418 C   0  0  0  0  0  0  0  0  0  0  0  0
   -9.9265  -26.1788   13.1219 C   0  0  0  0  0  0  0  0  0  0  0  0
  -10.4144  -26.6893   14.4826 C   0  0  0  0  0  0  0  0  0  0  0  0
  -10.2169  -28.1854   14.7463 C   0  0  0  0  0  0  0  0  0  0  0  0
  -11.5055  -28.9981   14.8571 C   0  0  0  0  0  0  0  0  0  0  0  0
  -12.7313  -28.0820   14.9267 C   0  0  0  0  0  0  0  0  0  0  0  0
  -13.7826  -28.6141   15.9096 C   0  0  0  0  0  0  0  0  0  0  0  0
  -14.9720  -27.6461   16.0898 C   0  0  1  0  0  0  0  0  0  0  0  0
  -15.6320  -27.4868   14.8321 O   0  0  0  0  0  0  0  0  0  0  0  0
  -15.9861  -28.1573   17.1542 C   0  0  1  0  0  0  0  0  0  0  0  0
  -16.5519  -29.4063   16.7141 O   0  0  0  0  0  0  0  0  0  0  0  0
  -15.3942  -28.3743   18.5799 C   0  0  2  0  0  0  0  0  0  0  0  0
  -16.5062  -28.6512   19.6187 C   0  0  0  0  0  0  0  0  0  0  0  0
  -16.3281  -27.8779   20.8087 O   0  0  0  0  0  0  0  0  0  0  0  0
  -18.5128  -26.7957   19.4326 O   0  0  0  0  0  0  0  0  0  0  0  0
  -20.2673  -27.5953   22.5481 O   0  0  0  0  0  0  0  0  0  0  0  0
  -17.3301  -26.5775   22.4656 O   0  0  0  0  0  0  0  0  0  0  0  0
  -17.2814  -24.1908   22.8338 C   0  0  0  0  0  0  0  0  0  0  0  0
  -15.9786  -23.7757   22.4346 O   0  0  0  0  0  0  0  0  0  0  0  0
  -20.1123  -25.1106   23.0770 O   0  0  0  0  0  0  0  0  0  0  0  0
  -20.6419  -26.2654   23.7261 C   0  0  0  0  0  0  0  0  0  0  0  0
  -21.4568  -25.8555   24.9511 C   0  0  0  0  0  0  0  0  0  0  0  0
  -22.4862  -26.9091   25.3181 C   0  0  0  0  0  0  0  0  0  0  0  0
  -14.5459  -27.2861   19.0508 N   0  0  0  0  0  0  0  0  0  0  0  0
  -13.1853  -27.2825   18.8347 C   0  0  0  0  0  0  0  0  0  0  0  0
  -12.6018  -28.1713   18.2221 O   0  0  0  0  0  0  0  0  0  0  0  0
  -12.4918  -26.0876   19.4623 C   0  0  0  0  0  0  0  0  0  0  0  0
  -12.3422  -24.9334   18.4734 C   0  0  0  0  0  0  0  0  0  0  0  0
  -12.2567  -23.5584   19.1397 C   0  0  0  0  0  0  0  0  0  0  0  0
  -11.2373  -23.4808   20.2801 C   0  0  0  0  0  0  0  0  0  0  0  0
  -11.0263  -22.0490   20.7936 C   0  0  0  0  0  0  0  0  0  0  0  0
   -9.5720  -21.5600   20.7695 C   0  0  0  0  0  0  0  0  0  0  0  0
   -8.8792  -21.5916   22.1375 C   0  0  0  0  0  0  0  0  0  0  0  0
   -7.3654  -21.7869   22.0117 C   0  0  0  0  0  0  0  0  0  0  0  0
   -6.6323  -21.6529   23.3502 C   0  0  0  0  0  0  0  0  0  0  0  0
   -5.1090  -21.8073   23.2761 C   0  0  0  0  0  0  0  0  0  0  0  0
   -4.3909  -21.1919   24.4798 C   0  0  0  0  0  0  0  0  0  0  0  0
   -3.4609  -20.0515   24.0574 C   0  0  0  0  0  0  0  0  0  0  0  0
   -2.6102  -19.5158   25.2132 C   0  0  0  0  0  0  0  0  0  0  0  0
   -3.2853  -18.3954   26.0084 C   0  0  0  0  0  0  0  0  0  0  0  0
   -3.6472  -17.2179   25.0967 C   0  0  0  0  0  0  0  0  0  0  0  0
   -3.8250  -15.9009   25.8572 C   0  0  0  0  0  0  0  0  0  0  0  0
   -3.9780  -14.6997   24.9206 C   0  0  0  0  0  0  0  0  0  0  0  0
   -4.2141  -13.4047   25.7050 C   0  0  0  0  0  0  0  0  0  0  0  0
   -5.2631  -12.4957   25.0572 C   0  0  0  0  0  0  0  0  0  0  0  0
   -4.8735  -11.8913   23.7048 C   0  0  0  0  0  0  0  0  0  0  0  0
   -5.9637  -11.0455   23.0502 C   0  0  0  0  0  0  0  0  0  0  0  0
   -5.5004  -10.3684   21.7570 C   0  0  0  0  0  0  0  0  0  0  0  0
   -6.0339  -11.0563   20.4944 C   0  0  0  0  0  0  0  0  0  0  0  0
   -4.9344  -11.7285   19.6740 C   0  0  0  0  0  0  0  0  0  0  0  0
   -5.5100  -12.4444   18.4627 C   0  0  0  0  0  0  0  0  0  0  0  0
  1  2  1  0
  5  1  1  0
  1 27  1  6
  2  3  1  0
  2 28  1  1
  4  3  1  0
  3 32  1  1
 29  4  1  0
  4 30  1  1
  5 26  1  6
  5 29  1  0
  7  6  1  0
  8  7  1  0
  9  8  1  0
 10  9  1  0
 11 10  1  0
 12 11  1  0
 13 12  1  0
 14 13  1  0
 15 14  1  0
 16 15  1  0
 17 16  1  0
 18 17  1  0
 19 18  1  0
 20 19  1  0
 20 21  1  6
 22 20  1  0
 22 23  1  6
 24 22  1  0
 24 25  1  1
 24 36  1  0
 25 26  1  0
 30 31  1  0
 32 33  1  0
 33 34  1  0
 34 35  1  0
 36 37  1  0
 37 38  2  0
 37 39  1  0
 39 40  1  0
 40 41  1  0
 41 42  1  0
 42 43  1  0
 43 44  1  0
 44 45  1  0
 45 46  1  0
 46 47  1  0
 47 48  1  0
 48 49  1  0
 49 50  1  0
 50 51  1  0
 51 52  1  0
 52 53  1  0
 53 54  1  0
 54 55  1  0
 55 56  1  0
 56 57  1  0
 57 58  1  0
 58 59  1  0
 59 60  1  0
 60 61  1  0
 61 62  1  0
 62 63  1  0
M  END
$$$$
