
     RDKit          3D

 63 63  0  0  0  0  0  0  0  0999 V2000
  -16.4257  -27.7842   19.7964 C   0  0  2  0  0  0  0  0  0  0  0  0
  -16.0912  -29.0060   18.9535 C   0  0  2  0  0  0  0  0  0  0  0  0
  -14.8099  -28.7694   18.1135 C   0  0  2  0  0  0  0  0  0  0  0  0
  -14.5945  -27.2521   17.8427 C   0  0  2  0  0  0  0  0  0  0  0  0
  -16.6644  -26.5700   18.8446 C   0  0  1  0  0  0  0  0  0  0  0  0
   -7.1032  -19.5734   33.9717 C   0  0  0  0  0  0  0  0  0  0  0  0
   -7.1140  -19.4232   32.4572 C   0  0  0  0  0  0  0  0  0  0  0  0
   -6.6517  -18.0284   32.0330 C   0  0  0  0  0  0  0  0  0  0  0  0
   -6.7657  -17.7825   30.5277 C   0  0  0  0  0  0  0  0  0  0  0  0
   -8.0458  -18.2770   29.8436 C   0  0  0  0  0  0  0  0  0  0  0  0
   -8.6597  -17.2910   28.8427 C   0  0  0  0  0  0  0  0  0  0  0  0
   -9.4571  -17.9806   27.7325 C   0  0  0  0  0  0  0  0  0  0  0  0
  -10.1320  -16.9600   26.8125 C   0  0  0  0  0  0  0  0  0  0  0  0
  -11.5163  -17.3973   26.3210 C   0  0  0  0  0  0  0  0  0  0  0  0
  -11.5536  -18.5612   25.3241 C   0  0  0  0  0  0  0  0  0  0  0  0
  -12.9430  -18.9732   24.8276 C   0  0  0  0  0  0  0  0  0  0  0  0
  -12.9477  -20.0107   23.7065 C   0  0  0  0  0  0  0  0  0  0  0  0
  -14.1522  -19.8164   22.7801 C   0  0  0  0  0  0  0  0  0  0  0  0
  -14.4696  -21.0909   21.9868 C   0  0  0  0  0  0  0  0  0  0  0  0
  -13.9304  -22.3664   22.6700 C   0  0  1  0  0  0  0  0  0  0  0  0
  -13.9250  -22.1648   24.0850 O   0  0  0  0  0  0  0  0  0  0  0  0
  -14.7826  -23.6214   22.3214 C   0  0  1  0  0  0  0  0  0  0  0  0
  -16.1110  -23.4598   22.8534 O   0  0  0  0  0  0  0  0  0  0  0  0
  -14.9094  -23.9317   20.7991 C   0  0  2  0  0  0  0  0  0  0  0  0
  -15.5216  -25.3310   20.5554 C   0  0  0  0  0  0  0  0  0  0  0  0
  -16.4955  -25.3114   19.5081 O   0  0  0  0  0  0  0  0  0  0  0  0
  -15.3602  -27.5571   20.7351 O   0  0  0  0  0  0  0  0  0  0  0  0
  -17.2150  -29.3346   18.1229 O   0  0  0  0  0  0  0  0  0  0  0  0
  -15.8485  -26.5798   17.6607 O   0  0  0  0  0  0  0  0  0  0  0  0
  -13.6736  -26.9036   16.6610 C   0  0  0  0  0  0  0  0  0  0  0  0
  -12.3586  -26.5266   17.0575 O   0  0  0  0  0  0  0  0  0  0  0  0
  -14.9783  -29.5764   16.9331 O   0  0  0  0  0  0  0  0  0  0  0  0
  -13.9269  -30.5131   16.7038 C   0  0  0  0  0  0  0  0  0  0  0  0
  -12.9274  -29.9489   15.6961 C   0  0  0  0  0  0  0  0  0  0  0  0
  -11.8539  -30.9626   15.3433 C   0  0  0  0  0  0  0  0  0  0  0  0
  -13.6623  -23.8077   20.0542 N   0  0  0  0  0  0  0  0  0  0  0  0
  -13.1547  -22.5797   19.6904 C   0  0  0  0  0  0  0  0  0  0  0  0
  -13.8089  -21.5427   19.7402 O   0  0  0  0  0  0  0  0  0  0  0  0
  -11.7230  -22.6574   19.1934 C   0  0  0  0  0  0  0  0  0  0  0  0
  -11.6390  -22.5042   17.6762 C   0  0  0  0  0  0  0  0  0  0  0  0
  -10.3469  -23.0583   17.0718 C   0  0  0  0  0  0  0  0  0  0  0  0
  -10.1863  -22.7728   15.5756 C   0  0  0  0  0  0  0  0  0  0  0  0
   -9.3285  -23.8248   14.8575 C   0  0  0  0  0  0  0  0  0  0  0  0
   -9.3294  -23.7257   13.3262 C   0  0  0  0  0  0  0  0  0  0  0  0
   -8.1029  -24.3596   12.6581 C   0  0  0  0  0  0  0  0  0  0  0  0
   -8.4943  -25.3416   11.5500 C   0  0  0  0  0  0  0  0  0  0  0  0
   -7.2933  -25.8335   10.7360 C   0  0  0  0  0  0  0  0  0  0  0  0
   -7.6192  -26.3001    9.3126 C   0  0  0  0  0  0  0  0  0  0  0  0
   -7.4837  -27.8150    9.1390 C   0  0  0  0  0  0  0  0  0  0  0  0
   -8.8261  -28.5255    9.3312 C   0  0  0  0  0  0  0  0  0  0  0  0
   -8.6725  -30.0175    9.6424 C   0  0  0  0  0  0  0  0  0  0  0  0
   -7.3130  -30.5949    9.2403 C   0  0  0  0  0  0  0  0  0  0  0  0
   -6.4633  -30.9075   10.4768 C   0  0  0  0  0  0  0  0  0  0  0  0
   -4.9987  -31.2024   10.1413 C   0  0  0  0  0  0  0  0  0  0  0  0
   -4.5794  -30.6219    8.7883 C   0  0  0  0  0  0  0  0  0  0  0  0
   -3.1263  -30.9747    8.4538 C   0  0  0  0  0  0  0  0  0  0  0  0
   -2.9757  -32.3694    7.8386 C   0  0  0  0  0  0  0  0  0  0  0  0
   -4.1599  -32.8552    6.9974 C   0  0  0  0  0  0  0  0  0  0  0  0
   -3.8250  -33.9803    6.0205 C   0  0  0  0  0  0  0  0  0  0  0  0
   -5.0034  -34.3615    5.1197 C   0  0  0  0  0  0  0  0  0  0  0  0
   -4.6576  -35.4661    4.1137 C   0  0  0  0  0  0  0  0  0  0  0  0
   -5.8396  -35.8536    3.2266 C   0  0  0  0  0  0  0  0  0  0  0  0
   -6.7761  -36.8124    3.9439 C   0  0  0  0  0  0  0  0  0  0  0  0
  1  2  1  0
  5  1  1  0
  1 27  1  1
  2  3  1  0
  2 28  1  6
  4  3  1  0
  3 32  1  6
 29  4  1  0
  4 30  1  6
  5 26  1  1
  5 29  1  0
  7  6  1  0
  8  7  1  0
  9  8  1  0
 10  9  1  0
 11 10  1  0
 12 11  1  0
 13 12  1  0
 14 13  1  0
 15 14  1  0
 16 15  1  0
 17 16  1  0
 18 17  1  0
 19 18  1  0
 20 19  1  0
 20 21  1  1
 22 20  1  0
 22 23  1  6
 24 22  1  0
 24 25  1  1
 24 36  1  0
 25 26  1  0
 30 31  1  0
 32 33  1  0
 33 34  1  0
 34 35  1  0
 36 37  1  0
 37 38  2  0
 37 39  1  0
 39 40  1  0
 40 41  1  0
 41 42  1  0
 42 43  1  0
 43 44  1  0
 44 45  1  0
 45 46  1  0
 46 47  1  0
 47 48  1  0
 48 49  1  0
 49 50  1  0
 50 51  1  0
 51 52  1  0
 52 53  1  0
 53 54  1  0
 54 55  1  0
 55 56  1  0
 56 57  1  0
 57 58  1  0
 58 59  1  0
 59 60  1  0
 60 61  1  0
 61 62  1  0
 62 63  1  0
M  END
$$$$
