
     RDKit          3D

 63 63  0  0  0  0  0  0  0  0999 V2000
  -16.4124  -28.7555   19.4349 C   0  0  2  0  0  0  0  0  0  0  0  0
  -17.0938  -29.6200   18.3844 C   0  0  2  0  0  0  0  0  0  0  0  0
  -16.1344  -29.9234   17.2050 C   0  0  2  0  0  0  0  0  0  0  0  0
  -15.0523  -28.8134   17.0683 C   0  0  2  0  0  0  0  0  0  0  0  0
  -15.9855  -27.4076   18.7732 C   0  0  1  0  0  0  0  0  0  0  0  0
   -2.9060  -35.0267    5.2227 C   0  0  0  0  0  0  0  0  0  0  0  0
   -3.8761  -34.1023    5.9445 C   0  0  0  0  0  0  0  0  0  0  0  0
   -4.7079  -33.2858    4.9542 C   0  0  0  0  0  0  0  0  0  0  0  0
   -5.4617  -32.1255    5.6061 C   0  0  0  0  0  0  0  0  0  0  0  0
   -6.7126  -32.4851    6.4169 C   0  0  0  0  0  0  0  0  0  0  0  0
   -6.6966  -31.9974    7.8703 C   0  0  0  0  0  0  0  0  0  0  0  0
   -8.0948  -31.8982    8.4859 C   0  0  0  0  0  0  0  0  0  0  0  0
   -8.2815  -30.5788    9.2395 C   0  0  0  0  0  0  0  0  0  0  0  0
   -9.0497  -30.7276   10.5573 C   0  0  0  0  0  0  0  0  0  0  0  0
   -9.2838  -29.4445   11.3629 C   0  0  0  0  0  0  0  0  0  0  0  0
  -10.3335  -29.5345   12.4750 C   0  0  0  0  0  0  0  0  0  0  0  0
  -10.8080  -28.1913   13.0266 C   0  0  0  0  0  0  0  0  0  0  0  0
  -11.2479  -28.3196   14.4883 C   0  0  0  0  0  0  0  0  0  0  0  0
  -11.7187  -26.9756   15.0595 C   0  0  0  0  0  0  0  0  0  0  0  0
  -12.2621  -27.0990   16.4996 C   0  0  1  0  0  0  0  0  0  0  0  0
  -11.3817  -27.9339   17.2550 O   0  0  0  0  0  0  0  0  0  0  0  0
  -12.3969  -25.7128   17.1946 C   0  0  1  0  0  0  0  0  0  0  0  0
  -13.3644  -24.9152   16.4864 O   0  0  0  0  0  0  0  0  0  0  0  0
  -12.8215  -25.7640   18.6936 C   0  0  2  0  0  0  0  0  0  0  0  0
  -13.6230  -27.0480   19.0118 C   0  0  0  0  0  0  0  0  0  0  0  0
  -14.9361  -26.7506   19.4943 O   0  0  0  0  0  0  0  0  0  0  0  0
  -15.3020  -29.4815   19.9901 O   0  0  0  0  0  0  0  0  0  0  0  0
  -18.2931  -28.9704   17.9370 O   0  0  0  0  0  0  0  0  0  0  0  0
  -15.5934  -27.5257   17.3949 O   0  0  0  0  0  0  0  0  0  0  0  0
  -14.3523  -28.7206   15.7019 C   0  0  0  0  0  0  0  0  0  0  0  0
  -13.1223  -29.4363   15.6439 O   0  0  0  0  0  0  0  0  0  0  0  0
  -16.9874  -30.0809   16.0558 O   0  0  0  0  0  0  0  0  0  0  0  0
  -16.6678  -31.2017   15.2329 C   0  0  0  0  0  0  0  0  0  0  0  0
  -16.4592  -30.7534   13.7878 C   0  0  0  0  0  0  0  0  0  0  0  0
  -15.1069  -31.1909   13.2546 C   0  0  0  0  0  0  0  0  0  0  0  0
  -13.5686  -24.5970   19.1471 N   0  0  0  0  0  0  0  0  0  0  0  0
  -13.3930  -24.0691   20.4074 C   0  0  0  0  0  0  0  0  0  0  0  0
  -13.3299  -24.7591   21.4201 O   0  0  0  0  0  0  0  0  0  0  0  0
  -13.3220  -22.5533   20.4069 C   0  0  0  0  0  0  0  0  0  0  0  0
  -12.0378  -22.0443   21.0583 C   0  0  0  0  0  0  0  0  0  0  0  0
  -11.6378  -20.6358   20.6134 C   0  0  0  0  0  0  0  0  0  0  0  0
  -10.6519  -20.6087   19.4416 C   0  0  0  0  0  0  0  0  0  0  0  0
   -9.2954  -19.9959   19.8190 C   0  0  0  0  0  0  0  0  0  0  0  0
   -9.0935  -18.5427   19.3694 C   0  0  0  0  0  0  0  0  0  0  0  0
   -7.6659  -18.0191   19.5692 C   0  0  0  0  0  0  0  0  0  0  0  0
   -6.8392  -18.9336   20.4780 C   0  0  0  0  0  0  0  0  0  0  0  0
   -5.3714  -18.5067   20.5794 C   0  0  0  0  0  0  0  0  0  0  0  0
   -4.6296  -19.0170   21.8201 C   0  0  0  0  0  0  0  0  0  0  0  0
   -4.6625  -18.0214   22.9825 C   0  0  0  0  0  0  0  0  0  0  0  0
   -3.8587  -18.5303   24.1819 C   0  0  0  0  0  0  0  0  0  0  0  0
   -3.6814  -17.4711   25.2743 C   0  0  0  0  0  0  0  0  0  0  0  0
   -3.1275  -16.1403   24.7591 C   0  0  0  0  0  0  0  0  0  0  0  0
   -2.8813  -15.1651   25.9154 C   0  0  0  0  0  0  0  0  0  0  0  0
   -4.1379  -14.3951   26.3308 C   0  0  0  0  0  0  0  0  0  0  0  0
   -4.4055  -13.1833   25.4345 C   0  0  0  0  0  0  0  0  0  0  0  0
   -5.7454  -12.5216   25.7730 C   0  0  0  0  0  0  0  0  0  0  0  0
   -5.5852  -11.1394   26.4136 C   0  0  0  0  0  0  0  0  0  0  0  0
   -5.7445  -11.0911   27.9363 C   0  0  0  0  0  0  0  0  0  0  0  0
   -6.6531   -9.9735   28.4438 C   0  0  0  0  0  0  0  0  0  0  0  0
   -7.0031  -10.1143   29.9282 C   0  0  0  0  0  0  0  0  0  0  0  0
   -7.8753   -8.9664   30.4510 C   0  0  0  0  0  0  0  0  0  0  0  0
   -8.1621   -9.0720   31.9479 C   0  0  0  0  0  0  0  0  0  0  0  0
   -8.9533  -10.3294   32.2702 C   0  0  0  0  0  0  0  0  0  0  0  0
  1  2  1  0
  5  1  1  0
  1 27  1  6
  2  3  1  0
  2 28  1  6
  4  3  1  0
  3 32  1  6
 29  4  1  0
  4 30  1  6
  5 26  1  1
  5 29  1  0
  7  6  1  0
  8  7  1  0
  9  8  1  0
 10  9  1  0
 11 10  1  0
 12 11  1  0
 13 12  1  0
 14 13  1  0
 15 14  1  0
 16 15  1  0
 17 16  1  0
 18 17  1  0
 19 18  1  0
 20 19  1  0
 20 21  1  1
 22 20  1  0
 22 23  1  6
 24 22  1  0
 24 25  1  6
 24 36  1  0
 25 26  1  0
 30 31  1  0
 32 33  1  0
 33 34  1  0
 34 35  1  0
 36 37  1  0
 37 38  2  0
 37 39  1  0
 39 40  1  0
 40 41  1  0
 41 42  1  0
 42 43  1  0
 43 44  1  0
 44 45  1  0
 45 46  1  0
 46 47  1  0
 47 48  1  0
 48 49  1  0
 49 50  1  0
 50 51  1  0
 51 52  1  0
 52 53  1  0
 53 54  1  0
 54 55  1  0
 55 56  1  0
 56 57  1  0
 57 58  1  0
 58 59  1  0
 59 60  1  0
 60 61  1  0
 61 62  1  0
 62 63  1  0
M  END
$$$$
