
     RDKit          3D

 32 35  0  0  0  0  0  0  0  0999 V2000
   30.0742  -11.2309   10.0960 C   0  0  0  0  0  0  0  0  0  0  0  0
   29.4151  -11.5555    8.9284 C   0  0  0  0  0  0  0  0  0  0  0  0
   28.0237  -11.5403    8.8313 C   0  0  0  0  0  0  0  0  0  0  0  0
   25.1073   -9.8936    8.6159 C   0  0  0  0  0  0  0  0  0  0  0  0
   32.2850  -11.7918    9.0350 C   0  0  2  0  0  0  0  0  0  0  0  0
   33.4197  -12.6126    9.6011 C   0  0  0  0  0  0  0  0  0  0  0  0
   35.0553  -12.9237   11.2746 C   0  0  0  0  0  0  0  0  0  0  0  0
   35.4898  -14.0699   10.6736 C   0  0  0  0  0  0  0  0  0  0  0  0
   34.8731  -14.4893    9.5152 C   0  0  0  0  0  0  0  0  0  0  0  0
   33.8261  -13.7581    8.9670 C   0  0  0  0  0  0  0  0  0  0  0  0
   32.8328  -10.7028    8.1897 C   0  0  0  0  0  0  0  0  0  0  0  0
   33.3759  -10.9084    6.9445 C   0  0  0  0  0  0  0  0  0  0  0  0
   33.8859   -9.9030    6.1547 C   0  0  0  0  0  0  0  0  0  0  0  0
   33.8655   -8.6179    6.6064 C   0  0  0  0  0  0  0  0  0  0  0  0
   33.3259   -8.3639    7.8593 C   0  0  0  0  0  0  0  0  0  0  0  0
   32.8170   -9.3812    8.6428 C   0  0  0  0  0  0  0  0  0  0  0  0
   29.7961  -11.4313   13.5444 C   0  0  0  0  0  0  0  0  0  0  0  0
   30.2447  -11.9591   15.7764 C   0  0  0  0  0  0  0  0  0  0  0  0
   29.5390  -13.1446   15.6677 C   0  0  0  0  0  0  0  0  0  0  0  0
   27.2726  -11.1913    9.9323 C   0  0  0  0  0  0  0  0  0  0  0  0
   27.9311  -10.8712   11.0857 C   0  0  0  0  0  0  0  0  0  0  0  0
   29.3313  -10.8881   11.1774 C   0  0  0  0  0  0  0  0  0  0  0  0
   31.4685  -11.2793   10.1372 N   0  0  0  0  0  0  0  0  0  0  0  0
   25.5306  -11.1757    9.7993 S   0  0  1  0  0  6  0  0  0  0  0  0
   24.8584  -10.8870   11.1000 O   0  0  0  0  0  0  0  0  0  0  0  0
   25.0218  -12.4646    9.2215 O   0  0  0  0  0  0  0  0  0  0  0  0
   34.0433  -12.2429   10.7191 N   0  0  0  0  0  0  0  0  0  0  0  0
   33.3228   -6.6907    8.3961 Cl  0  0  0  0  0  0  0  0  0  0  0  0
   29.9193  -10.5409   12.4093 N   0  0  0  0  0  0  0  0  0  0  0  0
   30.3542  -11.1430   14.7263 N   0  0  0  0  0  0  0  0  0  0  0  0
   28.9673  -13.4342   14.4472 C   0  0  0  0  0  0  0  0  0  0  0  0
   29.1095  -12.5774   13.4263 N   0  0  0  0  0  0  0  0  0  0  0  0
  1  2  2  0
 22  1  1  0
  1 23  1  0
  2  3  1  0
 20  3  2  0
 24  4  1  6
  5  6  1  0
  5 11  1  0
  5 23  1  1
  6 10  1  0
  6 27  2  0
  7  8  2  0
 27  7  1  0
  9  8  1  0
 10  9  2  0
 11 12  2  0
 11 16  1  0
 12 13  1  0
 13 14  2  0
 15 14  1  0
 16 15  2  0
 15 28  1  0
 29 17  1  0
 17 30  2  0
 17 32  1  0
 18 19  2  0
 30 18  1  0
 19 31  1  0
 21 20  1  0
 20 24  1  0
 22 21  2  0
 22 29  1  0
 24 25  2  0
 24 26  2  0
 31 32  2  0
M  END
$$$$
