
     RDKit          3D

 32 35  0  0  0  0  0  0  0  0999 V2000
   31.4560  -10.8336   10.4795 C   0  0  0  0  0  0  0  0  0  0  0  0
   30.7297  -11.0025    9.3190 C   0  0  0  0  0  0  0  0  0  0  0  0
   29.5374  -11.7257    9.2869 C   0  0  0  0  0  0  0  0  0  0  0  0
   26.2308  -12.0150   10.5937 C   0  0  0  0  0  0  0  0  0  0  0  0
   33.5171  -10.0514    9.2678 C   0  0  2  0  0  0  0  0  0  0  0  0
   34.9431  -10.3179    9.6889 C   0  0  0  0  0  0  0  0  0  0  0  0
   36.6724  -10.0409   11.2717 C   0  0  0  0  0  0  0  0  0  0  0  0
   37.5297  -10.7736   10.5021 C   0  0  0  0  0  0  0  0  0  0  0  0
   37.0784  -11.2848    9.3049 C   0  0  0  0  0  0  0  0  0  0  0  0
   35.7724  -11.0587    8.8872 C   0  0  0  0  0  0  0  0  0  0  0  0
   33.4385   -8.7387    8.5815 C   0  0  0  0  0  0  0  0  0  0  0  0
   33.3638   -7.5382    9.2454 C   0  0  0  0  0  0  0  0  0  0  0  0
   33.2907   -6.3166    8.6153 C   0  0  0  0  0  0  0  0  0  0  0  0
   33.2903   -6.2616    7.2541 C   0  0  0  0  0  0  0  0  0  0  0  0
   33.3644   -7.4505    6.5424 C   0  0  0  0  0  0  0  0  0  0  0  0
   33.4374   -8.6705    7.1860 C   0  0  0  0  0  0  0  0  0  0  0  0
   31.0436  -10.5462   13.9407 C   0  0  0  0  0  0  0  0  0  0  0  0
   31.1186   -9.6881   16.1132 C   0  0  0  0  0  0  0  0  0  0  0  0
   29.8446   -9.1639   15.9808 C   0  0  0  0  0  0  0  0  0  0  0  0
   29.0602  -12.2950   10.4472 C   0  0  0  0  0  0  0  0  0  0  0  0
   29.7842  -12.1245   11.5931 C   0  0  0  0  0  0  0  0  0  0  0  0
   30.9830  -11.3956   11.6194 C   0  0  0  0  0  0  0  0  0  0  0  0
   32.6506  -10.1124   10.4467 N   0  0  0  0  0  0  0  0  0  0  0  0
   27.5659  -13.1989   10.3953 S   0  0  1  0  0  6  0  0  0  0  0  0
   27.4785  -14.2256   11.4748 O   0  0  0  0  0  0  0  0  0  0  0  0
   27.3662  -13.8350    9.0501 O   0  0  0  0  0  0  0  0  0  0  0  0
   35.4198   -9.8422   10.8387 N   0  0  0  0  0  0  0  0  0  0  0  0
   33.3607   -7.3260    4.7896 Cl  0  0  0  0  0  0  0  0  0  0  0  0
   31.6578  -11.2733   12.8496 N   0  0  0  0  0  0  0  0  0  0  0  0
   31.6788  -10.3570   15.1035 N   0  0  0  0  0  0  0  0  0  0  0  0
   29.1972   -9.3631   14.7802 C   0  0  0  0  0  0  0  0  0  0  0  0
   29.8083  -10.0431   13.8000 N   0  0  0  0  0  0  0  0  0  0  0  0
  1  2  2  0
 22  1  1  0
  1 23  1  0
  2  3  1  0
 20  3  2  0
 24  4  1  1
  5  6  1  0
  5 11  1  0
  5 23  1  1
  6 10  1  0
  6 27  2  0
  7  8  2  0
 27  7  1  0
  9  8  1  0
 10  9  2  0
 11 12  2  0
 11 16  1  0
 12 13  1  0
 13 14  2  0
 15 14  1  0
 16 15  2  0
 15 28  1  0
 29 17  1  0
 17 30  2  0
 17 32  1  0
 18 19  2  0
 30 18  1  0
 19 31  1  0
 21 20  1  0
 20 24  1  0
 22 21  2  0
 22 29  1  0
 24 25  2  0
 24 26  2  0
 31 32  2  0
M  END
$$$$
