
     RDKit          3D

 32 35  0  0  0  0  0  0  0  0999 V2000
   30.1497  -13.5952   12.3956 C   0  0  0  0  0  0  0  0  0  0  0  0
   29.2782  -12.8162   13.1281 C   0  0  0  0  0  0  0  0  0  0  0  0
   28.5399  -13.3289   14.1947 C   0  0  0  0  0  0  0  0  0  0  0  0
   28.5264  -16.8272   16.3723 C   0  0  0  0  0  0  0  0  0  0  0  0
   30.6051  -11.6712   10.8403 C   0  0  2  0  0  0  0  0  0  0  0  0
   29.5247  -11.7129    9.7854 C   0  0  0  0  0  0  0  0  0  0  0  0
   28.6303  -12.7096    7.8414 C   0  0  0  0  0  0  0  0  0  0  0  0
   27.5842  -11.8323    7.8414 C   0  0  0  0  0  0  0  0  0  0  0  0
   27.5134  -10.8804    8.8349 C   0  0  0  0  0  0  0  0  0  0  0  0
   28.4904  -10.8138    9.8209 C   0  0  0  0  0  0  0  0  0  0  0  0
   31.8277  -11.0497   10.2752 C   0  0  0  0  0  0  0  0  0  0  0  0
   32.1263   -9.7141   10.3972 C   0  0  0  0  0  0  0  0  0  0  0  0
   33.2587   -9.1307    9.8755 C   0  0  0  0  0  0  0  0  0  0  0  0
   34.1554   -9.8961    9.1929 C   0  0  0  0  0  0  0  0  0  0  0  0
   33.8941  -11.2509    9.0454 C   0  0  0  0  0  0  0  0  0  0  0  0
   32.7542  -11.8251    9.5734 C   0  0  0  0  0  0  0  0  0  0  0  0
   31.8072  -16.8477   12.7520 C   0  0  0  0  0  0  0  0  0  0  0  0
   33.2105  -18.7164   12.7670 C   0  0  0  0  0  0  0  0  0  0  0  0
   33.0330  -18.8744   14.1304 C   0  0  0  0  0  0  0  0  0  0  0  0
   28.6776  -14.6565   14.5365 C   0  0  0  0  0  0  0  0  0  0  0  0
   29.5420  -15.4228   13.8070 C   0  0  0  0  0  0  0  0  0  0  0  0
   30.2823  -14.9013   12.7350 C   0  0  0  0  0  0  0  0  0  0  0  0
   30.8500  -13.0298   11.3287 N   0  0  0  0  0  0  0  0  0  0  0  0
   27.7479  -15.2881   15.8741 S   0  0  1  0  0  6  0  0  0  0  0  0
   26.3247  -15.5509   15.5102 O   0  0  0  0  0  0  0  0  0  0  0  0
   27.8243  -14.3750   17.0634 O   0  0  0  0  0  0  0  0  0  0  0  0
   29.5548  -12.6171    8.8072 N   0  0  0  0  0  0  0  0  0  0  0  0
   35.0810  -12.1944    8.1572 Cl  0  0  0  0  0  0  0  0  0  0  0  0
   31.1495  -15.7696   12.0437 N   0  0  0  0  0  0  0  0  0  0  0  0
   32.6014  -17.7205   12.1206 N   0  0  0  0  0  0  0  0  0  0  0  0
   32.2135  -17.9714   14.7734 C   0  0  0  0  0  0  0  0  0  0  0  0
   31.6271  -16.9902   14.0734 N   0  0  0  0  0  0  0  0  0  0  0  0
  1  2  2  0
 22  1  1  0
  1 23  1  0
  2  3  1  0
 20  3  2  0
 24  4  1  1
  5  6  1  0
  5 11  1  0
  5 23  1  6
  6 10  1  0
  6 27  2  0
  7  8  2  0
 27  7  1  0
  9  8  1  0
 10  9  2  0
 11 12  2  0
 11 16  1  0
 12 13  1  0
 13 14  2  0
 15 14  1  0
 16 15  2  0
 15 28  1  0
 29 17  1  0
 17 30  2  0
 17 32  1  0
 18 19  2  0
 30 18  1  0
 19 31  1  0
 21 20  1  0
 20 24  1  0
 22 21  2  0
 22 29  1  0
 24 25  2  0
 24 26  2  0
 31 32  2  0
M  END
$$$$
