
     RDKit          3D

 32 35  0  0  0  0  0  0  0  0999 V2000
   29.1863  -13.6005   12.9525 C   0  0  0  0  0  0  0  0  0  0  0  0
   28.5177  -13.8292   11.7677 C   0  0  0  0  0  0  0  0  0  0  0  0
   28.5612  -12.9282   10.7038 C   0  0  0  0  0  0  0  0  0  0  0  0
   30.9465  -10.8305    8.7101 C   0  0  0  0  0  0  0  0  0  0  0  0
   28.2808  -15.7473   13.9010 C   0  0  2  0  0  0  0  0  0  0  0  0
   27.9929  -16.2497   15.2962 C   0  0  0  0  0  0  0  0  0  0  0  0
   28.7695  -16.7505   17.4684 C   0  0  0  0  0  0  0  0  0  0  0  0
   27.5226  -17.1560   17.8489 C   0  0  0  0  0  0  0  0  0  0  0  0
   26.4967  -17.1046   16.9309 C   0  0  0  0  0  0  0  0  0  0  0  0
   26.7266  -16.6477   15.6387 C   0  0  0  0  0  0  0  0  0  0  0  0
   28.9502  -16.8137   13.1169 C   0  0  0  0  0  0  0  0  0  0  0  0
   30.2558  -17.1942   13.3128 C   0  0  0  0  0  0  0  0  0  0  0  0
   30.8834  -18.1827   12.5892 C   0  0  0  0  0  0  0  0  0  0  0  0
   30.1962  -18.8411   11.6144 C   0  0  0  0  0  0  0  0  0  0  0  0
   28.8742  -18.4893   11.3821 C   0  0  0  0  0  0  0  0  0  0  0  0
   28.2551  -17.4955   12.1149 C   0  0  0  0  0  0  0  0  0  0  0  0
   30.2376  -10.9917   15.0362 C   0  0  0  0  0  0  0  0  0  0  0  0
   30.5718   -9.5772   16.8662 C   0  0  0  0  0  0  0  0  0  0  0  0
   29.4800   -8.8066   16.5062 C   0  0  0  0  0  0  0  0  0  0  0  0
   29.2930  -11.7677   10.8297 C   0  0  0  0  0  0  0  0  0  0  0  0
   29.9526  -11.5468   12.0055 C   0  0  0  0  0  0  0  0  0  0  0  0
   29.9053  -12.4571   13.0725 C   0  0  0  0  0  0  0  0  0  0  0  0
   29.0927  -14.5318   13.9880 N   0  0  0  0  0  0  0  0  0  0  0  0
   29.3404  -10.6462    9.4908 S   0  0  1  0  0  6  0  0  0  0  0  0
   29.1621   -9.2290    9.9228 O   0  0  0  0  0  0  0  0  0  0  0  0
   28.3229  -11.0077    8.4477 O   0  0  0  0  0  0  0  0  0  0  0  0
   28.9561  -16.3156   16.2145 N   0  0  0  0  0  0  0  0  0  0  0  0
   28.0317  -19.3678   10.1147 Cl  0  0  0  0  0  0  0  0  0  0  0  0
   30.6199  -12.1423   14.2447 N   0  0  0  0  0  0  0  0  0  0  0  0
   30.9186  -10.6362   16.1321 N   0  0  0  0  0  0  0  0  0  0  0  0
   28.7839   -9.1793   15.3763 C   0  0  0  0  0  0  0  0  0  0  0  0
   29.1775  -10.2528   14.6768 N   0  0  0  0  0  0  0  0  0  0  0  0
  1  2  2  0
 22  1  1  0
  1 23  1  0
  2  3  1  0
 20  3  2  0
 24  4  1  6
  5  6  1  0
  5 11  1  0
  5 23  1  1
  6 10  1  0
  6 27  2  0
  7  8  2  0
 27  7  1  0
  9  8  1  0
 10  9  2  0
 11 12  2  0
 11 16  1  0
 12 13  1  0
 13 14  2  0
 15 14  1  0
 16 15  2  0
 15 28  1  0
 29 17  1  0
 17 30  2  0
 17 32  1  0
 18 19  2  0
 30 18  1  0
 19 31  1  0
 21 20  1  0
 20 24  1  0
 22 21  2  0
 22 29  1  0
 24 25  2  0
 24 26  2  0
 31 32  2  0
M  END
$$$$
