
     RDKit          3D

 32 35  0  0  0  0  0  0  0  0999 V2000
   31.5380   -9.9366   10.6520 C   0  0  0  0  0  0  0  0  0  0  0  0
   30.9858  -11.1764   10.8991 C   0  0  0  0  0  0  0  0  0  0  0  0
   30.0614  -11.3878   11.9221 C   0  0  0  0  0  0  0  0  0  0  0  0
   29.3423  -10.2047   15.5427 C   0  0  0  0  0  0  0  0  0  0  0  0
   33.0132  -10.9196    8.8671 C   0  0  2  0  0  0  0  0  0  0  0  0
   34.3484  -11.3114    9.4549 C   0  0  0  0  0  0  0  0  0  0  0  0
   36.4204  -10.6648   10.3828 C   0  0  0  0  0  0  0  0  0  0  0  0
   36.7911  -11.9704   10.5309 C   0  0  0  0  0  0  0  0  0  0  0  0
   35.9193  -12.9595   10.1315 C   0  0  0  0  0  0  0  0  0  0  0  0
   34.6828  -12.6343    9.5867 C   0  0  0  0  0  0  0  0  0  0  0  0
   33.1775  -10.6032    7.4273 C   0  0  0  0  0  0  0  0  0  0  0  0
   32.6908   -9.4601    6.8407 C   0  0  0  0  0  0  0  0  0  0  0  0
   32.8395   -9.1600    5.5056 C   0  0  0  0  0  0  0  0  0  0  0  0
   33.5036  -10.0276    4.6918 C   0  0  0  0  0  0  0  0  0  0  0  0
   34.0123  -11.1955    5.2420 C   0  0  0  0  0  0  0  0  0  0  0  0
   33.8567  -11.4857    6.5834 C   0  0  0  0  0  0  0  0  0  0  0  0
   30.8209   -6.4497   11.4884 C   0  0  0  0  0  0  0  0  0  0  0  0
   30.4494   -4.1436   11.4152 C   0  0  0  0  0  0  0  0  0  0  0  0
   29.1793   -4.3026   11.9414 C   0  0  0  0  0  0  0  0  0  0  0  0
   29.6804  -10.3303   12.7187 C   0  0  0  0  0  0  0  0  0  0  0  0
   30.2310   -9.1051   12.4691 C   0  0  0  0  0  0  0  0  0  0  0  0
   31.1604   -8.8984   11.4383 C   0  0  0  0  0  0  0  0  0  0  0  0
   32.4703   -9.7895    9.6236 N   0  0  0  0  0  0  0  0  0  0  0  0
   28.5220  -10.6066   13.9971 S   0  0  1  0  0  6  0  0  0  0  0  0
   28.0464  -12.0203   14.0448 O   0  0  0  0  0  0  0  0  0  0  0  0
   27.3576   -9.6658   13.8831 O   0  0  0  0  0  0  0  0  0  0  0  0
   35.2209  -10.3867    9.8538 N   0  0  0  0  0  0  0  0  0  0  0  0
   34.8603  -12.2812    4.1511 Cl  0  0  0  0  0  0  0  0  0  0  0  0
   31.6715   -7.5984   11.2574 N   0  0  0  0  0  0  0  0  0  0  0  0
   31.2280   -5.2067   11.2047 N   0  0  0  0  0  0  0  0  0  0  0  0
   28.7675   -5.5860   12.2309 C   0  0  0  0  0  0  0  0  0  0  0  0
   29.5919   -6.6170   11.9989 N   0  0  0  0  0  0  0  0  0  0  0  0
  1  2  2  0
 22  1  1  0
  1 23  1  0
  2  3  1  0
 20  3  2  0
 24  4  1  1
  5  6  1  0
  5 11  1  0
  5 23  1  1
  6 10  1  0
  6 27  2  0
  7  8  2  0
 27  7  1  0
  9  8  1  0
 10  9  2  0
 11 12  2  0
 11 16  1  0
 12 13  1  0
 13 14  2  0
 15 14  1  0
 16 15  2  0
 15 28  1  0
 29 17  1  0
 17 30  2  0
 17 32  1  0
 18 19  2  0
 30 18  1  0
 19 31  1  0
 21 20  1  0
 20 24  1  0
 22 21  2  0
 22 29  1  0
 24 25  2  0
 24 26  2  0
 31 32  2  0
M  END
$$$$
