
     RDKit          3D

 32 35  0  0  0  0  0  0  0  0999 V2000
   30.2860  -10.9528   11.1338 C   0  0  0  0  0  0  0  0  0  0  0  0
   29.4905  -11.3006   10.0618 C   0  0  0  0  0  0  0  0  0  0  0  0
   28.1294  -11.5710   10.2032 C   0  0  0  0  0  0  0  0  0  0  0  0
   24.9684  -10.3066   11.2575 C   0  0  0  0  0  0  0  0  0  0  0  0
   32.2761  -10.7273    9.6116 C   0  0  2  0  0  0  0  0  0  0  0  0
   33.5811  -11.4831    9.6976 C   0  0  0  0  0  0  0  0  0  0  0  0
   35.5737  -11.9558   10.8719 C   0  0  0  0  0  0  0  0  0  0  0  0
   35.9672  -12.8336    9.9030 C   0  0  0  0  0  0  0  0  0  0  0  0
   35.1475  -13.0348    8.8142 C   0  0  0  0  0  0  0  0  0  0  0  0
   33.9399  -12.3560    8.7033 C   0  0  0  0  0  0  0  0  0  0  0  0
   32.5263   -9.3612    9.0907 C   0  0  0  0  0  0  0  0  0  0  0  0
   33.2169   -8.3982    9.7859 C   0  0  0  0  0  0  0  0  0  0  0  0
   33.4528   -7.1287    9.3089 C   0  0  0  0  0  0  0  0  0  0  0  0
   32.9868   -6.7760    8.0783 C   0  0  0  0  0  0  0  0  0  0  0  0
   32.2835   -7.7176    7.3406 C   0  0  0  0  0  0  0  0  0  0  0  0
   32.0530   -8.9885    7.8300 C   0  0  0  0  0  0  0  0  0  0  0  0
   30.0633  -11.0582   14.8006 C   0  0  0  0  0  0  0  0  0  0  0  0
   28.6858  -12.4104   16.1181 C   0  0  0  0  0  0  0  0  0  0  0  0
   29.3695  -12.0405   17.2631 C   0  0  0  0  0  0  0  0  0  0  0  0
   27.5499  -11.4913   11.4505 C   0  0  0  0  0  0  0  0  0  0  0  0
   28.3431  -11.1467   12.5082 C   0  0  0  0  0  0  0  0  0  0  0  0
   29.7119  -10.8756   12.3599 C   0  0  0  0  0  0  0  0  0  0  0  0
   31.6457  -10.7088   10.9332 N   0  0  0  0  0  0  0  0  0  0  0  0
   25.8443  -11.8322   11.6158 S   0  0  1  0  0  6  0  0  0  0  0  0
   25.4824  -12.2978   12.9867 O   0  0  0  0  0  0  0  0  0  0  0  0
   25.3907  -12.8279   10.5877 O   0  0  0  0  0  0  0  0  0  0  0  0
   34.4031  -11.3181   10.7333 N   0  0  0  0  0  0  0  0  0  0  0  0
   31.7037   -7.2138    5.7601 Cl  0  0  0  0  0  0  0  0  0  0  0  0
   30.4470  -10.5267   13.5095 N   0  0  0  0  0  0  0  0  0  0  0  0
   29.0448  -11.9167   14.9315 N   0  0  0  0  0  0  0  0  0  0  0  0
   30.4171  -11.1560   17.1198 C   0  0  0  0  0  0  0  0  0  0  0  0
   30.7339  -10.6920   15.9029 N   0  0  0  0  0  0  0  0  0  0  0  0
  1  2  2  0
 22  1  1  0
  1 23  1  0
  2  3  1  0
 20  3  2  0
 24  4  1  6
  5  6  1  0
  5 11  1  0
  5 23  1  1
  6 10  1  0
  6 27  2  0
  7  8  2  0
 27  7  1  0
  9  8  1  0
 10  9  2  0
 11 12  2  0
 11 16  1  0
 12 13  1  0
 13 14  2  0
 15 14  1  0
 16 15  2  0
 15 28  1  0
 29 17  1  0
 17 30  2  0
 17 32  1  0
 18 19  2  0
 30 18  1  0
 19 31  1  0
 21 20  1  0
 20 24  1  0
 22 21  2  0
 22 29  1  0
 24 25  2  0
 24 26  2  0
 31 32  2  0
M  END
$$$$
