
     RDKit          3D

 32 35  0  0  0  0  0  0  0  0999 V2000
   33.9813   -9.2302   12.4938 C   0  0  0  0  0  0  0  0  0  0  0  0
   32.6716   -9.4194   12.8839 C   0  0  0  0  0  0  0  0  0  0  0  0
   32.2823   -9.3834   14.2228 C   0  0  0  0  0  0  0  0  0  0  0  0
   32.2262   -7.4225   17.2234 C   0  0  0  0  0  0  0  0  0  0  0  0
   33.3163   -9.4291   10.0759 C   0  0  2  0  0  0  0  0  0  0  0  0
   33.2784  -10.8673    9.6156 C   0  0  0  0  0  0  0  0  0  0  0  0
   32.0148  -12.7576    8.9810 C   0  0  0  0  0  0  0  0  0  0  0  0
   33.1535  -13.4828    8.7773 C   0  0  0  0  0  0  0  0  0  0  0  0
   34.3737  -12.8827    8.9989 C   0  0  0  0  0  0  0  0  0  0  0  0
   34.4449  -11.5611    9.4227 C   0  0  0  0  0  0  0  0  0  0  0  0
   33.6049   -8.5448    8.9204 C   0  0  0  0  0  0  0  0  0  0  0  0
   32.6354   -7.8637    8.2248 C   0  0  0  0  0  0  0  0  0  0  0  0
   32.8958   -7.0417    7.1520 C   0  0  0  0  0  0  0  0  0  0  0  0
   34.1804   -6.8730    6.7309 C   0  0  0  0  0  0  0  0  0  0  0  0
   35.1923   -7.5421    7.4046 C   0  0  0  0  0  0  0  0  0  0  0  0
   34.9185   -8.3645    8.4800 C   0  0  0  0  0  0  0  0  0  0  0  0
   36.9760   -7.6703   13.7198 C   0  0  0  0  0  0  0  0  0  0  0  0
   37.0371   -5.8085   15.1310 C   0  0  0  0  0  0  0  0  0  0  0  0
   38.3492   -5.5472   14.7766 C   0  0  0  0  0  0  0  0  0  0  0  0
   33.2290   -9.1521   15.1966 C   0  0  0  0  0  0  0  0  0  0  0  0
   34.5243   -8.9658   14.8040 C   0  0  0  0  0  0  0  0  0  0  0  0
   34.9101   -9.0029   13.4553 C   0  0  0  0  0  0  0  0  0  0  0  0
   34.3135   -9.2930   11.1396 N   0  0  0  0  0  0  0  0  0  0  0  0
   32.7301   -9.1091   16.8704 S   0  0  1  0  0  6  0  0  0  0  0  0
   33.8244   -9.5025   17.8057 O   0  0  0  0  0  0  0  0  0  0  0  0
   31.5170   -9.9650   17.0942 O   0  0  0  0  0  0  0  0  0  0  0  0
   32.1199  -11.4856    9.3898 N   0  0  0  0  0  0  0  0  0  0  0  0
   36.8314   -7.2916    6.8230 Cl  0  0  0  0  0  0  0  0  0  0  0  0
   36.2694   -8.7978   13.1487 N   0  0  0  0  0  0  0  0  0  0  0  0
   36.3920   -6.8494   14.6009 N   0  0  0  0  0  0  0  0  0  0  0  0
   38.9435   -6.3973   13.8686 C   0  0  0  0  0  0  0  0  0  0  0  0
   38.2474   -7.4277   13.3682 N   0  0  0  0  0  0  0  0  0  0  0  0
  1  2  2  0
 22  1  1  0
  1 23  1  0
  2  3  1  0
 20  3  2  0
 24  4  1  1
  5  6  1  0
  5 11  1  0
  5 23  1  1
  6 10  1  0
  6 27  2  0
  7  8  2  0
 27  7  1  0
  9  8  1  0
 10  9  2  0
 11 12  2  0
 11 16  1  0
 12 13  1  0
 13 14  2  0
 15 14  1  0
 16 15  2  0
 15 28  1  0
 29 17  1  0
 17 30  2  0
 17 32  1  0
 18 19  2  0
 30 18  1  0
 19 31  1  0
 21 20  1  0
 20 24  1  0
 22 21  2  0
 22 29  1  0
 24 25  2  0
 24 26  2  0
 31 32  2  0
M  END
$$$$
