
     RDKit          3D

 32 35  0  0  0  0  0  0  0  0999 V2000
   30.1052  -11.4274   10.0634 C   0  0  0  0  0  0  0  0  0  0  0  0
   29.2866  -11.4937   11.1718 C   0  0  0  0  0  0  0  0  0  0  0  0
   27.9644  -11.0499   11.1470 C   0  0  0  0  0  0  0  0  0  0  0  0
   25.0026  -10.7332    8.5400 C   0  0  0  0  0  0  0  0  0  0  0  0
   31.9868  -12.4735   11.3646 C   0  0  2  0  0  0  0  0  0  0  0  0
   33.4946  -12.4389   11.2794 C   0  0  0  0  0  0  0  0  0  0  0  0
   35.4459  -11.5906   10.2570 C   0  0  0  0  0  0  0  0  0  0  0  0
   36.2351  -12.3389   11.0823 C   0  0  0  0  0  0  0  0  0  0  0  0
   35.6360  -13.1500   12.0212 C   0  0  0  0  0  0  0  0  0  0  0  0
   34.2515  -13.2058   12.1268 C   0  0  0  0  0  0  0  0  0  0  0  0
   31.5319  -13.8719   11.5598 C   0  0  0  0  0  0  0  0  0  0  0  0
   31.0460  -14.3529   12.7515 C   0  0  0  0  0  0  0  0  0  0  0  0
   30.6223  -15.6489   12.9397 C   0  0  0  0  0  0  0  0  0  0  0  0
   30.6753  -16.5306   11.9026 C   0  0  0  0  0  0  0  0  0  0  0  0
   31.1594  -16.0877   10.6799 C   0  0  0  0  0  0  0  0  0  0  0  0
   31.5819  -14.7846   10.5031 C   0  0  0  0  0  0  0  0  0  0  0  0
   30.3852   -9.5568    7.0070 C   0  0  0  0  0  0  0  0  0  0  0  0
   29.6020   -7.3828    6.6576 C   0  0  0  0  0  0  0  0  0  0  0  0
   30.4714   -7.2098    5.5948 C   0  0  0  0  0  0  0  0  0  0  0  0
   27.4486  -10.5257    9.9819 C   0  0  0  0  0  0  0  0  0  0  0  0
   28.2644  -10.4624    8.8879 C   0  0  0  0  0  0  0  0  0  0  0  0
   29.5938  -10.9106    8.9187 C   0  0  0  0  0  0  0  0  0  0  0  0
   31.4250  -11.8728   10.1531 N   0  0  0  0  0  0  0  0  0  0  0  0
   25.7914   -9.9728    9.9623 S   0  0  1  0  0  6  0  0  0  0  0  0
   25.6829   -8.4887    9.8510 O   0  0  0  0  0  0  0  0  0  0  0  0
   25.0443  -10.4636   11.1686 O   0  0  0  0  0  0  0  0  0  0  0  0
   34.1142  -11.6685   10.3860 N   0  0  0  0  0  0  0  0  0  0  0  0
   31.2077  -17.2629    9.3743 Cl  0  0  0  0  0  0  0  0  0  0  0  0
   30.3564  -10.8056    7.7392 N   0  0  0  0  0  0  0  0  0  0  0  0
   29.5809   -8.5364    7.3281 N   0  0  0  0  0  0  0  0  0  0  0  0
   31.2965   -8.2655    5.2704 C   0  0  0  0  0  0  0  0  0  0  0  0
   31.2323   -9.4015    5.9788 N   0  0  0  0  0  0  0  0  0  0  0  0
  1  2  2  0
 22  1  1  0
  1 23  1  0
  2  3  1  0
 20  3  2  0
 24  4  1  6
  5  6  1  0
  5 11  1  0
  5 23  1  6
  6 10  1  0
  6 27  2  0
  7  8  2  0
 27  7  1  0
  9  8  1  0
 10  9  2  0
 11 12  2  0
 11 16  1  0
 12 13  1  0
 13 14  2  0
 15 14  1  0
 16 15  2  0
 15 28  1  0
 29 17  1  0
 17 30  2  0
 17 32  1  0
 18 19  2  0
 30 18  1  0
 19 31  1  0
 21 20  1  0
 20 24  1  0
 22 21  2  0
 22 29  1  0
 24 25  2  0
 24 26  2  0
 31 32  2  0
M  END
$$$$
