
     RDKit          3D

 32 35  0  0  0  0  0  0  0  0999 V2000
   30.2900  -12.3747   10.4210 C   0  0  0  0  0  0  0  0  0  0  0  0
   30.8456  -13.2604   11.3209 C   0  0  0  0  0  0  0  0  0  0  0  0
   30.1623  -14.3906   11.7698 C   0  0  0  0  0  0  0  0  0  0  0  0
   26.6195  -15.4811   12.8043 C   0  0  0  0  0  0  0  0  0  0  0  0
   32.3464  -10.9308   10.5415 C   0  0  2  0  0  0  0  0  0  0  0  0
   32.2038   -9.9748   11.7024 C   0  0  0  0  0  0  0  0  0  0  0  0
   31.0777   -8.1564   12.7014 C   0  0  0  0  0  0  0  0  0  0  0  0
   31.9012   -8.2103   13.7890 C   0  0  0  0  0  0  0  0  0  0  0  0
   32.8921   -9.1668   13.8272 C   0  0  0  0  0  0  0  0  0  0  0  0
   33.0513  -10.0621   12.7764 C   0  0  0  0  0  0  0  0  0  0  0  0
   33.2238  -10.3299    9.5075 C   0  0  0  0  0  0  0  0  0  0  0  0
   34.4991  -10.7688    9.2455 C   0  0  0  0  0  0  0  0  0  0  0  0
   35.3188  -10.2160    8.2877 C   0  0  0  0  0  0  0  0  0  0  0  0
   34.8678   -9.1710    7.5392 C   0  0  0  0  0  0  0  0  0  0  0  0
   33.5851   -8.6948    7.7700 C   0  0  0  0  0  0  0  0  0  0  0  0
   32.7717   -9.2577    8.7340 C   0  0  0  0  0  0  0  0  0  0  0  0
   27.0433  -11.3179    9.3075 C   0  0  0  0  0  0  0  0  0  0  0  0
   25.1489  -11.2396   10.6737 C   0  0  0  0  0  0  0  0  0  0  0  0
   24.4906  -10.4316    9.7633 C   0  0  0  0  0  0  0  0  0  0  0  0
   28.8893  -14.6401   11.3058 C   0  0  0  0  0  0  0  0  0  0  0  0
   28.3445  -13.7592   10.4150 C   0  0  0  0  0  0  0  0  0  0  0  0
   29.0368  -12.6238    9.9667 C   0  0  0  0  0  0  0  0  0  0  0  0
   31.0163  -11.2522   10.0200 N   0  0  0  0  0  0  0  0  0  0  0  0
   28.0428  -16.0586   11.8749 S   0  0  1  0  0  6  0  0  0  0  0  0
   28.8893  -16.9181   12.7534 O   0  0  0  0  0  0  0  0  0  0  0  0
   27.4981  -16.8588   10.7273 O   0  0  0  0  0  0  0  0  0  0  0  0
   31.2592   -9.0351   11.7058 N   0  0  0  0  0  0  0  0  0  0  0  0
   33.0505   -7.3460    6.7786 Cl  0  0  0  0  0  0  0  0  0  0  0  0
   28.3922  -11.7748    9.0461 N   0  0  0  0  0  0  0  0  0  0  0  0
   26.3920  -11.6570   10.4265 N   0  0  0  0  0  0  0  0  0  0  0  0
   25.1682  -10.0869    8.6133 C   0  0  0  0  0  0  0  0  0  0  0  0
   26.4160  -10.5352    8.4172 N   0  0  0  0  0  0  0  0  0  0  0  0
  1  2  2  0
 22  1  1  0
  1 23  1  0
  2  3  1  0
 20  3  2  0
 24  4  1  1
  5  6  1  0
  5 11  1  0
  5 23  1  6
  6 10  1  0
  6 27  2  0
  7  8  2  0
 27  7  1  0
  9  8  1  0
 10  9  2  0
 11 12  2  0
 11 16  1  0
 12 13  1  0
 13 14  2  0
 15 14  1  0
 16 15  2  0
 15 28  1  0
 29 17  1  0
 17 30  2  0
 17 32  1  0
 18 19  2  0
 30 18  1  0
 19 31  1  0
 21 20  1  0
 20 24  1  0
 22 21  2  0
 22 29  1  0
 24 25  2  0
 24 26  2  0
 31 32  2  0
M  END
$$$$
