
     RDKit          3D

 32 35  0  0  0  0  0  0  0  0999 V2000
   30.7126  -10.5972   10.1952 C   0  0  0  0  0  0  0  0  0  0  0  0
   29.4716  -11.1261    9.9066 C   0  0  0  0  0  0  0  0  0  0  0  0
   28.6006  -10.5251    8.9978 C   0  0  0  0  0  0  0  0  0  0  0  0
   28.2044   -9.3632    5.6230 C   0  0  0  0  0  0  0  0  0  0  0  0
   31.1152  -12.4104   11.8918 C   0  0  2  0  0  0  0  0  0  0  0  0
   31.1713  -12.0847   13.3658 C   0  0  0  0  0  0  0  0  0  0  0  0
   32.2539  -10.9966   15.1593 C   0  0  0  0  0  0  0  0  0  0  0  0
   31.3199  -11.4621   16.0396 C   0  0  0  0  0  0  0  0  0  0  0  0
   30.2954  -12.2529   15.5672 C   0  0  0  0  0  0  0  0  0  0  0  0
   30.2136  -12.5720   14.2171 C   0  0  0  0  0  0  0  0  0  0  0  0
   31.9639  -13.5943   11.6117 C   0  0  0  0  0  0  0  0  0  0  0  0
   33.3369  -13.5725   11.6583 C   0  0  0  0  0  0  0  0  0  0  0  0
   34.1305  -14.6669   11.3996 C   0  0  0  0  0  0  0  0  0  0  0  0
   33.5504  -15.8562   11.0755 C   0  0  0  0  0  0  0  0  0  0  0  0
   32.1657  -15.9242   11.0167 C   0  0  0  0  0  0  0  0  0  0  0  0
   31.3796  -14.8190   11.2784 C   0  0  0  0  0  0  0  0  0  0  0  0
   33.0123   -8.1576    8.7216 C   0  0  0  0  0  0  0  0  0  0  0  0
   34.8914   -7.0574    7.8729 C   0  0  0  0  0  0  0  0  0  0  0  0
   34.2625   -6.8617    6.6558 C   0  0  0  0  0  0  0  0  0  0  0  0
   28.9821   -9.3641    8.3617 C   0  0  0  0  0  0  0  0  0  0  0  0
   30.2121   -8.8452    8.6520 C   0  0  0  0  0  0  0  0  0  0  0  0
   31.0843   -9.4543    9.5672 C   0  0  0  0  0  0  0  0  0  0  0  0
   31.5347  -11.2351   11.1256 N   0  0  0  0  0  0  0  0  0  0  0  0
   27.8832   -8.6199    7.2254 S   0  0  1  0  0  6  0  0  0  0  0  0
   28.0703   -7.1425    7.1297 O   0  0  0  0  0  0  0  0  0  0  0  0
   26.4568   -8.9465    7.5611 O   0  0  0  0  0  0  0  0  0  0  0  0
   32.1448  -11.3236   13.8641 N   0  0  0  0  0  0  0  0  0  0  0  0
   31.4663  -17.4800   10.5946 Cl  0  0  0  0  0  0  0  0  0  0  0  0
   32.3327   -8.8450    9.7996 N   0  0  0  0  0  0  0  0  0  0  0  0
   34.2592   -7.6919    8.8621 N   0  0  0  0  0  0  0  0  0  0  0  0
   32.9784   -7.3442    6.5191 C   0  0  0  0  0  0  0  0  0  0  0  0
   32.3920   -7.9741    7.5467 N   0  0  0  0  0  0  0  0  0  0  0  0
  1  2  2  0
 22  1  1  0
  1 23  1  0
  2  3  1  0
 20  3  2  0
 24  4  1  6
  5  6  1  0
  5 11  1  0
  5 23  1  6
  6 10  1  0
  6 27  2  0
  7  8  2  0
 27  7  1  0
  9  8  1  0
 10  9  2  0
 11 12  2  0
 11 16  1  0
 12 13  1  0
 13 14  2  0
 15 14  1  0
 16 15  2  0
 15 28  1  0
 29 17  1  0
 17 30  2  0
 17 32  1  0
 18 19  2  0
 30 18  1  0
 19 31  1  0
 21 20  1  0
 20 24  1  0
 22 21  2  0
 22 29  1  0
 24 25  2  0
 24 26  2  0
 31 32  2  0
M  END
$$$$
