
     RDKit          3D

 32 35  0  0  0  0  0  0  0  0999 V2000
   29.4930  -11.6172   11.0288 C   0  0  0  0  0  0  0  0  0  0  0  0
   28.5849  -11.3849   10.0167 C   0  0  0  0  0  0  0  0  0  0  0  0
   27.2082  -11.3750   10.2411 C   0  0  0  0  0  0  0  0  0  0  0  0
   24.6510  -10.1899   12.8499 C   0  0  0  0  0  0  0  0  0  0  0  0
   31.3892  -11.6079    9.3758 C   0  0  2  0  0  0  0  0  0  0  0  0
   32.5525  -12.5670    9.2824 C   0  0  0  0  0  0  0  0  0  0  0  0
   34.6024  -13.3541   10.1491 C   0  0  0  0  0  0  0  0  0  0  0  0
   34.6921  -14.2892    9.1584 C   0  0  0  0  0  0  0  0  0  0  0  0
   33.6898  -14.3587    8.2157 C   0  0  0  0  0  0  0  0  0  0  0  0
   32.6052  -13.4917    8.2718 C   0  0  0  0  0  0  0  0  0  0  0  0
   31.8294  -10.2514    8.9676 C   0  0  0  0  0  0  0  0  0  0  0  0
   31.3839   -9.6181    7.8326 C   0  0  0  0  0  0  0  0  0  0  0  0
   31.7879   -8.3598    7.4478 C   0  0  0  0  0  0  0  0  0  0  0  0
   32.6812   -7.6765    8.2165 C   0  0  0  0  0  0  0  0  0  0  0  0
   33.1580   -8.2781    9.3724 C   0  0  0  0  0  0  0  0  0  0  0  0
   32.7452   -9.5415    9.7483 C   0  0  0  0  0  0  0  0  0  0  0  0
   29.8626  -11.1903   14.5084 C   0  0  0  0  0  0  0  0  0  0  0  0
   28.8977   -9.4323   15.7084 C   0  0  0  0  0  0  0  0  0  0  0  0
   29.8848   -9.5126   16.6751 C   0  0  0  0  0  0  0  0  0  0  0  0
   26.7284  -11.6040   11.5121 C   0  0  0  0  0  0  0  0  0  0  0  0
   27.6327  -11.8338   12.5100 C   0  0  0  0  0  0  0  0  0  0  0  0
   29.0167  -11.8423   12.2783 C   0  0  0  0  0  0  0  0  0  0  0  0
   30.8587  -11.6303   10.7404 N   0  0  0  0  0  0  0  0  0  0  0  0
   25.0022  -11.5894   11.7816 S   0  0  1  0  0  6  0  0  0  0  0  0
   24.5123  -12.8403   12.4312 O   0  0  0  0  0  0  0  0  0  0  0  0
   24.2582  -11.3376   10.5021 O   0  0  0  0  0  0  0  0  0  0  0  0
   33.5429  -12.5338   10.1733 N   0  0  0  0  0  0  0  0  0  0  0  0
   34.3079   -7.3559   10.3290 Cl  0  0  0  0  0  0  0  0  0  0  0  0
   29.8705  -12.0870   13.3715 N   0  0  0  0  0  0  0  0  0  0  0  0
   28.9111  -10.2619   14.6633 N   0  0  0  0  0  0  0  0  0  0  0  0
   30.8612  -10.4714   16.5083 C   0  0  0  0  0  0  0  0  0  0  0  0
   30.8249  -11.2782   15.4386 N   0  0  0  0  0  0  0  0  0  0  0  0
  1  2  2  0
 22  1  1  0
  1 23  1  0
  2  3  1  0
 20  3  2  0
 24  4  1  1
  5  6  1  0
  5 11  1  0
  5 23  1  1
  6 10  1  0
  6 27  2  0
  7  8  2  0
 27  7  1  0
  9  8  1  0
 10  9  2  0
 11 12  2  0
 11 16  1  0
 12 13  1  0
 13 14  2  0
 15 14  1  0
 16 15  2  0
 15 28  1  0
 29 17  1  0
 17 30  2  0
 17 32  1  0
 18 19  2  0
 30 18  1  0
 19 31  1  0
 21 20  1  0
 20 24  1  0
 22 21  2  0
 22 29  1  0
 24 25  2  0
 24 26  2  0
 31 32  2  0
M  END
$$$$
