
     RDKit          3D

 32 35  0  0  0  0  0  0  0  0999 V2000
   34.2150   -9.3180   12.7438 C   0  0  0  0  0  0  0  0  0  0  0  0
   32.8419   -9.4376   12.6869 C   0  0  0  0  0  0  0  0  0  0  0  0
   32.0466   -9.4262   13.8329 C   0  0  0  0  0  0  0  0  0  0  0  0
   31.2448  -10.9896   16.8766 C   0  0  0  0  0  0  0  0  0  0  0  0
   34.3525   -9.4744   10.2369 C   0  0  2  0  0  0  0  0  0  0  0  0
   35.1626  -10.4458    9.4110 C   0  0  0  0  0  0  0  0  0  0  0  0
   37.2701  -11.3093    8.7904 C   0  0  0  0  0  0  0  0  0  0  0  0
   36.6839  -12.1931    7.9305 C   0  0  0  0  0  0  0  0  0  0  0  0
   35.3112  -12.1976    7.8138 C   0  0  0  0  0  0  0  0  0  0  0  0
   34.5355  -11.3174    8.5588 C   0  0  0  0  0  0  0  0  0  0  0  0
   34.2728   -8.1705    9.5342 C   0  0  0  0  0  0  0  0  0  0  0  0
   35.2980   -7.2561    9.5119 C   0  0  0  0  0  0  0  0  0  0  0  0
   35.2310   -6.0445    8.8622 C   0  0  0  0  0  0  0  0  0  0  0  0
   34.0947   -5.7029    8.1927 C   0  0  0  0  0  0  0  0  0  0  0  0
   33.0334   -6.5967    8.1888 C   0  0  0  0  0  0  0  0  0  0  0  0
   33.1124   -7.8098    8.8445 C   0  0  0  0  0  0  0  0  0  0  0  0
   36.7575   -7.7920   14.5331 C   0  0  0  0  0  0  0  0  0  0  0  0
   36.4986   -5.6003   15.3017 C   0  0  0  0  0  0  0  0  0  0  0  0
   37.8699   -5.4140   15.3191 C   0  0  0  0  0  0  0  0  0  0  0  0
   32.6420   -9.2920   15.0680 C   0  0  0  0  0  0  0  0  0  0  0  0
   34.0022   -9.1743   15.1178 C   0  0  0  0  0  0  0  0  0  0  0  0
   34.7972   -9.1862   13.9614 C   0  0  0  0  0  0  0  0  0  0  0  0
   34.9597   -9.3519   11.5637 N   0  0  0  0  0  0  0  0  0  0  0  0
   31.6363   -9.2791   16.4966 S   0  0  1  0  0  6  0  0  0  0  0  0
   30.3693   -8.5157   16.2995 O   0  0  0  0  0  0  0  0  0  0  0  0
   32.3890   -8.7477   17.6819 O   0  0  0  0  0  0  0  0  0  0  0  0
   36.4922  -10.4746    9.4934 N   0  0  0  0  0  0  0  0  0  0  0  0
   31.5908   -6.1096    7.3115 Cl  0  0  0  0  0  0  0  0  0  0  0  0
   36.1914   -9.0571   14.1140 N   0  0  0  0  0  0  0  0  0  0  0  0
   35.9836   -6.7688   14.9144 N   0  0  0  0  0  0  0  0  0  0  0  0
   38.6600   -6.4727   14.9249 C   0  0  0  0  0  0  0  0  0  0  0  0
   38.0882   -7.6240   14.5455 N   0  0  0  0  0  0  0  0  0  0  0  0
  1  2  2  0
 22  1  1  0
  1 23  1  0
  2  3  1  0
 20  3  2  0
 24  4  1  1
  5  6  1  0
  5 11  1  0
  5 23  1  1
  6 10  1  0
  6 27  2  0
  7  8  2  0
 27  7  1  0
  9  8  1  0
 10  9  2  0
 11 12  2  0
 11 16  1  0
 12 13  1  0
 13 14  2  0
 15 14  1  0
 16 15  2  0
 15 28  1  0
 29 17  1  0
 17 30  2  0
 17 32  1  0
 18 19  2  0
 30 18  1  0
 19 31  1  0
 21 20  1  0
 20 24  1  0
 22 21  2  0
 22 29  1  0
 24 25  2  0
 24 26  2  0
 31 32  2  0
M  END
$$$$
