
     RDKit          3D

 32 35  0  0  0  0  0  0  0  0999 V2000
   30.4932  -14.4261   11.7920 C   0  0  0  0  0  0  0  0  0  0  0  0
   31.5634  -14.4417   10.9217 C   0  0  0  0  0  0  0  0  0  0  0  0
   31.8705  -15.5562   10.1411 C   0  0  0  0  0  0  0  0  0  0  0  0
   30.3081  -19.3665    9.6796 C   0  0  0  0  0  0  0  0  0  0  0  0
   31.0032  -12.0426   12.4141 C   0  0  2  0  0  0  0  0  0  0  0  0
   30.9322  -11.2674   13.7087 C   0  0  0  0  0  0  0  0  0  0  0  0
   29.8908  -10.9017   15.7954 C   0  0  0  0  0  0  0  0  0  0  0  0
   30.7594   -9.8877   16.0805 C   0  0  0  0  0  0  0  0  0  0  0  0
   31.7298   -9.5630   15.1581 C   0  0  0  0  0  0  0  0  0  0  0  0
   31.8235  -10.2558   13.9570 C   0  0  0  0  0  0  0  0  0  0  0  0
   30.4944  -11.2021   11.3028 C   0  0  0  0  0  0  0  0  0  0  0  0
   29.1584  -11.0004   11.0535 C   0  0  0  0  0  0  0  0  0  0  0  0
   28.6793  -10.2220   10.0245 C   0  0  0  0  0  0  0  0  0  0  0  0
   29.5562   -9.6017    9.1865 C   0  0  0  0  0  0  0  0  0  0  0  0
   30.9158   -9.7776    9.4012 C   0  0  0  0  0  0  0  0  0  0  0  0
   31.3847  -10.5613   10.4374 C   0  0  0  0  0  0  0  0  0  0  0  0
   28.7101  -16.3376   13.9907 C   0  0  0  0  0  0  0  0  0  0  0  0
   27.8749  -16.8735   16.1065 C   0  0  0  0  0  0  0  0  0  0  0  0
   28.9363  -17.7304   16.3399 C   0  0  0  0  0  0  0  0  0  0  0  0
   31.0856  -16.6846   10.2347 C   0  0  0  0  0  0  0  0  0  0  0  0
   30.0274  -16.6630   11.0986 C   0  0  0  0  0  0  0  0  0  0  0  0
   29.7232  -15.5387   11.8814 C   0  0  0  0  0  0  0  0  0  0  0  0
   30.2447  -13.2867   12.5591 N   0  0  0  0  0  0  0  0  0  0  0  0
   31.4795  -18.0747    9.2524 S   0  0  1  0  0  6  0  0  0  0  0  0
   32.8672  -18.5699    9.4890 O   0  0  0  0  0  0  0  0  0  0  0  0
   31.2690  -17.7827    7.7948 O   0  0  0  0  0  0  0  0  0  0  0  0
   30.0095  -11.5489   14.6278 N   0  0  0  0  0  0  0  0  0  0  0  0
   32.0053   -8.9568    8.2934 Cl  0  0  0  0  0  0  0  0  0  0  0  0
   28.6106  -15.6114   12.7419 N   0  0  0  0  0  0  0  0  0  0  0  0
   27.7894  -16.2075   14.9534 N   0  0  0  0  0  0  0  0  0  0  0  0
   29.8802  -17.8589   15.3435 C   0  0  0  0  0  0  0  0  0  0  0  0
   29.7436  -17.1651   14.2048 N   0  0  0  0  0  0  0  0  0  0  0  0
  1  2  2  0
 22  1  1  0
  1 23  1  0
  2  3  1  0
 20  3  2  0
 24  4  1  1
  5  6  1  0
  5 11  1  0
  5 23  1  1
  6 10  1  0
  6 27  2  0
  7  8  2  0
 27  7  1  0
  9  8  1  0
 10  9  2  0
 11 12  2  0
 11 16  1  0
 12 13  1  0
 13 14  2  0
 15 14  1  0
 16 15  2  0
 15 28  1  0
 29 17  1  0
 17 30  2  0
 17 32  1  0
 18 19  2  0
 30 18  1  0
 19 31  1  0
 21 20  1  0
 20 24  1  0
 22 21  2  0
 22 29  1  0
 24 25  2  0
 24 26  2  0
 31 32  2  0
M  END
$$$$
