
     RDKit          3D

 32 35  0  0  0  0  0  0  0  0999 V2000
   30.5624  -12.7059   10.4657 C   0  0  0  0  0  0  0  0  0  0  0  0
   31.2164  -13.4510   11.4250 C   0  0  0  0  0  0  0  0  0  0  0  0
   30.6535  -14.5963   11.9880 C   0  0  0  0  0  0  0  0  0  0  0  0
   27.4938  -15.8942   13.4962 C   0  0  0  0  0  0  0  0  0  0  0  0
   32.2904  -10.8831   10.6062 C   0  0  2  0  0  0  0  0  0  0  0  0
   31.7623  -10.0486   11.7493 C   0  0  0  0  0  0  0  0  0  0  0  0
   30.1253   -8.5695   12.5890 C   0  0  0  0  0  0  0  0  0  0  0  0
   30.7584   -8.5134   13.7973 C   0  0  0  0  0  0  0  0  0  0  0  0
   31.9143   -9.2409   13.9777 C   0  0  0  0  0  0  0  0  0  0  0  0
   32.4279  -10.0192   12.9473 C   0  0  0  0  0  0  0  0  0  0  0  0
   33.0499  -10.0193    9.6696 C   0  0  0  0  0  0  0  0  0  0  0  0
   34.3840   -9.7268    9.8187 C   0  0  0  0  0  0  0  0  0  0  0  0
   35.0949   -8.9263    8.9537 C   0  0  0  0  0  0  0  0  0  0  0  0
   34.4670   -8.3768    7.8768 C   0  0  0  0  0  0  0  0  0  0  0  0
   33.1190   -8.6456    7.6869 C   0  0  0  0  0  0  0  0  0  0  0  0
   32.4160   -9.4506    8.5619 C   0  0  0  0  0  0  0  0  0  0  0  0
   27.2011  -12.0940    9.3342 C   0  0  0  0  0  0  0  0  0  0  0  0
   25.2812  -12.2289   10.6599 C   0  0  0  0  0  0  0  0  0  0  0  0
   24.5667  -11.4658    9.7530 C   0  0  0  0  0  0  0  0  0  0  0  0
   29.4030  -15.0061   11.5801 C   0  0  0  0  0  0  0  0  0  0  0  0
   28.7603  -14.2638   10.6300 C   0  0  0  0  0  0  0  0  0  0  0  0
   29.3317  -13.1124   10.0670 C   0  0  0  0  0  0  0  0  0  0  0  0
   31.1698  -11.5598    9.9500 N   0  0  0  0  0  0  0  0  0  0  0  0
   28.7076  -16.4420   12.2921 S   0  0  1  0  0  6  0  0  0  0  0  0
   29.7253  -17.2960   12.9719 O   0  0  0  0  0  0  0  0  0  0  0  0
   27.9529  -17.2407   11.2690 O   0  0  0  0  0  0  0  0  0  0  0  0
   30.6479   -9.3301   11.6171 N   0  0  0  0  0  0  0  0  0  0  0  0
   32.3553   -7.9135    6.2838 Cl  0  0  0  0  0  0  0  0  0  0  0  0
   28.5924  -12.4140    9.0926 N   0  0  0  0  0  0  0  0  0  0  0  0
   26.5632  -12.5200   10.4310 N   0  0  0  0  0  0  0  0  0  0  0  0
   25.2309  -11.0308    8.6260 C   0  0  0  0  0  0  0  0  0  0  0  0
   26.5195  -11.3535    8.4476 N   0  0  0  0  0  0  0  0  0  0  0  0
  1  2  2  0
 22  1  1  0
  1 23  1  0
  2  3  1  0
 20  3  2  0
 24  4  1  1
  5  6  1  0
  5 11  1  0
  5 23  1  6
  6 10  1  0
  6 27  2  0
  7  8  2  0
 27  7  1  0
  9  8  1  0
 10  9  2  0
 11 12  2  0
 11 16  1  0
 12 13  1  0
 13 14  2  0
 15 14  1  0
 16 15  2  0
 15 28  1  0
 29 17  1  0
 17 30  2  0
 17 32  1  0
 18 19  2  0
 30 18  1  0
 19 31  1  0
 21 20  1  0
 20 24  1  0
 22 21  2  0
 22 29  1  0
 24 25  2  0
 24 26  2  0
 31 32  2  0
M  END
$$$$
