
     RDKit          3D

 32 35  0  0  0  0  0  0  0  0999 V2000
   32.2208   -9.9936    9.6765 C   0  0  0  0  0  0  0  0  0  0  0  0
   31.5810   -8.8188    9.3392 C   0  0  0  0  0  0  0  0  0  0  0  0
   32.2053   -7.8207    8.5911 C   0  0  0  0  0  0  0  0  0  0  0  0
   34.0467   -7.1670    5.5034 C   0  0  0  0  0  0  0  0  0  0  0  0
   30.2332  -10.7169   11.0383 C   0  0  2  0  0  0  0  0  0  0  0  0
   30.1435  -11.4709   12.3441 C   0  0  0  0  0  0  0  0  0  0  0  0
   30.7008  -13.3731   13.6263 C   0  0  0  0  0  0  0  0  0  0  0  0
   30.0115  -12.8843   14.6987 C   0  0  0  0  0  0  0  0  0  0  0  0
   29.3790  -11.6658   14.5845 C   0  0  0  0  0  0  0  0  0  0  0  0
   29.4412  -10.9455   13.3976 C   0  0  0  0  0  0  0  0  0  0  0  0
   29.1285  -11.1398   10.1432 C   0  0  0  0  0  0  0  0  0  0  0  0
   29.1282  -12.3226    9.4442 C   0  0  0  0  0  0  0  0  0  0  0  0
   28.1069  -12.7214    8.6120 C   0  0  0  0  0  0  0  0  0  0  0  0
   27.0186  -11.9178    8.4511 C   0  0  0  0  0  0  0  0  0  0  0  0
   26.9765  -10.7131    9.1383 C   0  0  0  0  0  0  0  0  0  0  0  0
   28.0077  -10.3236    9.9707 C   0  0  0  0  0  0  0  0  0  0  0  0
   35.6534  -11.2561    9.8018 C   0  0  0  0  0  0  0  0  0  0  0  0
   37.6308  -10.0166    9.9242 C   0  0  0  0  0  0  0  0  0  0  0  0
   38.3507  -11.1458   10.2733 C   0  0  0  0  0  0  0  0  0  0  0  0
   33.5043   -8.0036    8.1700 C   0  0  0  0  0  0  0  0  0  0  0  0
   34.1326   -9.1688    8.5075 C   0  0  0  0  0  0  0  0  0  0  0  0
   33.4993  -10.1696    9.2602 C   0  0  0  0  0  0  0  0  0  0  0  0
   31.5497  -10.9495   10.4407 N   0  0  0  0  0  0  0  0  0  0  0  0
   34.2764   -6.7468    7.2337 S   0  0  1  0  0  6  0  0  0  0  0  0
   35.7358   -6.6302    7.5228 O   0  0  0  0  0  0  0  0  0  0  0  0
   33.5947   -5.4249    7.4385 O   0  0  0  0  0  0  0  0  0  0  0  0
   30.7403  -12.6524   12.4970 N   0  0  0  0  0  0  0  0  0  0  0  0
   25.5520   -9.7129    8.8972 Cl  0  0  0  0  0  0  0  0  0  0  0  0
   34.2285  -11.3374    9.5571 N   0  0  0  0  0  0  0  0  0  0  0  0
   36.3179  -10.0988    9.7002 N   0  0  0  0  0  0  0  0  0  0  0  0
   37.6590  -12.3339   10.3759 C   0  0  0  0  0  0  0  0  0  0  0  0
   36.3398  -12.3577   10.1395 N   0  0  0  0  0  0  0  0  0  0  0  0
  1  2  2  0
 22  1  1  0
  1 23  1  0
  2  3  1  0
 20  3  2  0
 24  4  1  6
  5  6  1  0
  5 11  1  0
  5 23  1  6
  6 10  1  0
  6 27  2  0
  7  8  2  0
 27  7  1  0
  9  8  1  0
 10  9  2  0
 11 12  2  0
 11 16  1  0
 12 13  1  0
 13 14  2  0
 15 14  1  0
 16 15  2  0
 15 28  1  0
 29 17  1  0
 17 30  2  0
 17 32  1  0
 18 19  2  0
 30 18  1  0
 19 31  1  0
 21 20  1  0
 20 24  1  0
 22 21  2  0
 22 29  1  0
 24 25  2  0
 24 26  2  0
 31 32  2  0
M  END
$$$$
