
     RDKit          3D

 32 35  0  0  0  0  0  0  0  0999 V2000
   30.2030  -12.3478   10.8848 C   0  0  0  0  0  0  0  0  0  0  0  0
   30.6372  -13.0997   11.9568 C   0  0  0  0  0  0  0  0  0  0  0  0
   29.8384  -14.0762   12.5518 C   0  0  0  0  0  0  0  0  0  0  0  0
   27.6970  -17.0012   11.7902 C   0  0  0  0  0  0  0  0  0  0  0  0
   32.4416  -11.2097   10.7381 C   0  0  2  0  0  0  0  0  0  0  0  0
   32.5028  -10.3846   12.0019 C   0  0  0  0  0  0  0  0  0  0  0  0
   33.5300   -9.9360   14.0795 C   0  0  0  0  0  0  0  0  0  0  0  0
   32.6577   -8.9135   14.3195 C   0  0  0  0  0  0  0  0  0  0  0  0
   31.6928   -8.6269   13.3789 C   0  0  0  0  0  0  0  0  0  0  0  0
   31.6081   -9.3659   12.2051 C   0  0  0  0  0  0  0  0  0  0  0  0
   33.2522  -10.5589    9.6799 C   0  0  0  0  0  0  0  0  0  0  0  0
   34.4944  -11.0019    9.2947 C   0  0  0  0  0  0  0  0  0  0  0  0
   35.2520  -10.4032    8.3138 C   0  0  0  0  0  0  0  0  0  0  0  0
   34.7692   -9.3049    7.6683 C   0  0  0  0  0  0  0  0  0  0  0  0
   33.5180   -8.8227    8.0253 C   0  0  0  0  0  0  0  0  0  0  0  0
   32.7669   -9.4321    9.0114 C   0  0  0  0  0  0  0  0  0  0  0  0
   26.9992  -11.6801    9.1868 C   0  0  0  0  0  0  0  0  0  0  0  0
   25.1475  -10.8029    8.0629 C   0  0  0  0  0  0  0  0  0  0  0  0
   24.2840  -11.3690    8.9846 C   0  0  0  0  0  0  0  0  0  0  0  0
   28.5718  -14.3056   12.0608 C   0  0  0  0  0  0  0  0  0  0  0  0
   28.1475  -13.5575   10.9993 C   0  0  0  0  0  0  0  0  0  0  0  0
   28.9556  -12.5764   10.4045 C   0  0  0  0  0  0  0  0  0  0  0  0
   31.0418  -11.3736   10.3408 N   0  0  0  0  0  0  0  0  0  0  0  0
   27.5800  -15.5310   12.8139 S   0  0  1  0  0  6  0  0  0  0  0  0
   26.1494  -15.1219   12.9269 O   0  0  0  0  0  0  0  0  0  0  0  0
   28.1235  -15.9129   14.1604 O   0  0  0  0  0  0  0  0  0  0  0  0
   33.4201  -10.6282   12.9372 N   0  0  0  0  0  0  0  0  0  0  0  0
   32.9403   -7.4044    7.1636 Cl  0  0  0  0  0  0  0  0  0  0  0  0
   28.4307  -11.8574    9.3131 N   0  0  0  0  0  0  0  0  0  0  0  0
   26.4657  -10.9704    8.1854 N   0  0  0  0  0  0  0  0  0  0  0  0
   24.8414  -12.0985   10.0129 C   0  0  0  0  0  0  0  0  0  0  0  0
   26.1729  -12.2338   10.0865 N   0  0  0  0  0  0  0  0  0  0  0  0
  1  2  2  0
 22  1  1  0
  1 23  1  0
  2  3  1  0
 20  3  2  0
 24  4  1  6
  5  6  1  0
  5 11  1  0
  5 23  1  6
  6 10  1  0
  6 27  2  0
  7  8  2  0
 27  7  1  0
  9  8  1  0
 10  9  2  0
 11 12  2  0
 11 16  1  0
 12 13  1  0
 13 14  2  0
 15 14  1  0
 16 15  2  0
 15 28  1  0
 29 17  1  0
 17 30  2  0
 17 32  1  0
 18 19  2  0
 30 18  1  0
 19 31  1  0
 21 20  1  0
 20 24  1  0
 22 21  2  0
 22 29  1  0
 24 25  2  0
 24 26  2  0
 31 32  2  0
M  END
$$$$
