
     RDKit          3D

 32 35  0  0  0  0  0  0  0  0999 V2000
   30.2506  -11.1554   11.6148 C   0  0  0  0  0  0  0  0  0  0  0  0
   30.9875  -10.6633   12.6721 C   0  0  0  0  0  0  0  0  0  0  0  0
   30.6253  -10.8902   13.9999 C   0  0  0  0  0  0  0  0  0  0  0  0
   29.6715  -13.5320   16.3860 C   0  0  0  0  0  0  0  0  0  0  0  0
   31.9574  -10.3033    9.9750 C   0  0  2  0  0  0  0  0  0  0  0  0
   31.8148   -9.4387    8.7446 C   0  0  0  0  0  0  0  0  0  0  0  0
   30.9064   -9.1178    6.5895 C   0  0  0  0  0  0  0  0  0  0  0  0
   31.5224   -7.9041    6.4822 C   0  0  0  0  0  0  0  0  0  0  0  0
   32.2973   -7.4557    7.5293 C   0  0  0  0  0  0  0  0  0  0  0  0
   32.4499   -8.2257    8.6761 C   0  0  0  0  0  0  0  0  0  0  0  0
   32.9881  -11.3428    9.7354 C   0  0  0  0  0  0  0  0  0  0  0  0
   32.7405  -12.5180    9.0681 C   0  0  0  0  0  0  0  0  0  0  0  0
   33.6918  -13.4868    8.8422 C   0  0  0  0  0  0  0  0  0  0  0  0
   34.9630  -13.2987    9.2946 C   0  0  0  0  0  0  0  0  0  0  0  0
   35.2582  -12.1255    9.9742 C   0  0  0  0  0  0  0  0  0  0  0  0
   34.2950  -11.1604   10.1949 C   0  0  0  0  0  0  0  0  0  0  0  0
   28.2159  -13.8598   10.7298 C   0  0  0  0  0  0  0  0  0  0  0  0
   27.2951  -15.7347    9.6816 C   0  0  0  0  0  0  0  0  0  0  0  0
   28.0331  -16.5835   10.4881 C   0  0  0  0  0  0  0  0  0  0  0  0
   29.4956  -11.6287   14.2761 C   0  0  0  0  0  0  0  0  0  0  0  0
   28.7698  -12.1129   13.2248 C   0  0  0  0  0  0  0  0  0  0  0  0
   29.1392  -11.8816   11.8909 C   0  0  0  0  0  0  0  0  0  0  0  0
   30.6540  -10.8824   10.3067 N   0  0  0  0  0  0  0  0  0  0  0  0
   29.0513  -11.9065   15.9429 S   0  0  1  0  0  6  0  0  0  0  0  0
   27.5751  -11.8669   16.1575 O   0  0  0  0  0  0  0  0  0  0  0  0
   29.7395  -10.9320   16.8545 O   0  0  0  0  0  0  0  0  0  0  0  0
   31.0750   -9.8344    7.7094 N   0  0  0  0  0  0  0  0  0  0  0  0
   36.9114  -11.9307   10.5372 Cl  0  0  0  0  0  0  0  0  0  0  0  0
   28.3281  -12.4235   10.8749 N   0  0  0  0  0  0  0  0  0  0  0  0
   27.4035  -14.4120    9.8207 N   0  0  0  0  0  0  0  0  0  0  0  0
   28.8675  -16.0070   11.4218 C   0  0  0  0  0  0  0  0  0  0  0  0
   28.9365  -14.6718   11.5174 N   0  0  0  0  0  0  0  0  0  0  0  0
  1  2  2  0
 22  1  1  0
  1 23  1  0
  2  3  1  0
 20  3  2  0
 24  4  1  1
  5  6  1  0
  5 11  1  0
  5 23  1  6
  6 10  1  0
  6 27  2  0
  7  8  2  0
 27  7  1  0
  9  8  1  0
 10  9  2  0
 11 12  2  0
 11 16  1  0
 12 13  1  0
 13 14  2  0
 15 14  1  0
 16 15  2  0
 15 28  1  0
 29 17  1  0
 17 30  2  0
 17 32  1  0
 18 19  2  0
 30 18  1  0
 19 31  1  0
 21 20  1  0
 20 24  1  0
 22 21  2  0
 22 29  1  0
 24 25  2  0
 24 26  2  0
 31 32  2  0
M  END
$$$$
