
     RDKit          3D

 32 35  0  0  0  0  0  0  0  0999 V2000
   31.5249  -10.6251   10.1978 C   0  0  0  0  0  0  0  0  0  0  0  0
   31.3482  -11.2367    8.9739 C   0  0  0  0  0  0  0  0  0  0  0  0
   30.1153  -11.7490    8.5701 C   0  0  0  0  0  0  0  0  0  0  0  0
   27.0475  -13.5825   10.0642 C   0  0  0  0  0  0  0  0  0  0  0  0
   34.0014  -10.4475    9.7937 C   0  0  2  0  0  0  0  0  0  0  0  0
   35.2078  -10.1443   10.6507 C   0  0  0  0  0  0  0  0  0  0  0  0
   36.1712   -8.9386   12.4370 C   0  0  0  0  0  0  0  0  0  0  0  0
   37.3730   -9.5557   12.2396 C   0  0  0  0  0  0  0  0  0  0  0  0
   37.4870  -10.4831   11.2272 C   0  0  0  0  0  0  0  0  0  0  0  0
   36.3971  -10.7859   10.4199 C   0  0  0  0  0  0  0  0  0  0  0  0
   34.0808   -9.6722    8.5316 C   0  0  0  0  0  0  0  0  0  0  0  0
   34.3833  -10.2325    7.3141 C   0  0  0  0  0  0  0  0  0  0  0  0
   34.4587   -9.5193    6.1392 C   0  0  0  0  0  0  0  0  0  0  0  0
   34.2248   -8.1773    6.1515 C   0  0  0  0  0  0  0  0  0  0  0  0
   33.9156   -7.5692    7.3598 C   0  0  0  0  0  0  0  0  0  0  0  0
   33.8429   -8.2954    8.5325 C   0  0  0  0  0  0  0  0  0  0  0  0
   30.2472  -10.6837   13.4843 C   0  0  0  0  0  0  0  0  0  0  0  0
   30.0227  -10.8330   15.8057 C   0  0  0  0  0  0  0  0  0  0  0  0
   29.6793  -12.1706   15.7151 C   0  0  0  0  0  0  0  0  0  0  0  0
   29.0311  -11.6466    9.4140 C   0  0  0  0  0  0  0  0  0  0  0  0
   29.2125  -11.0402   10.6247 C   0  0  0  0  0  0  0  0  0  0  0  0
   30.4553  -10.5264   11.0255 C   0  0  0  0  0  0  0  0  0  0  0  0
   32.7866  -10.1454   10.5533 N   0  0  0  0  0  0  0  0  0  0  0  0
   27.4917  -12.2919    8.8979 S   0  0  1  0  0  6  0  0  0  0  0  0
   27.5429  -12.8674    7.5220 O   0  0  0  0  0  0  0  0  0  0  0  0
   26.4122  -11.2526    8.9910 O   0  0  0  0  0  0  0  0  0  0  0  0
   35.1409   -9.2544   11.6402 N   0  0  0  0  0  0  0  0  0  0  0  0
   33.6227   -5.8369    7.3228 Cl  0  0  0  0  0  0  0  0  0  0  0  0
   30.5435   -9.9170   12.2923 N   0  0  0  0  0  0  0  0  0  0  0  0
   30.2944  -10.1324   14.7030 N   0  0  0  0  0  0  0  0  0  0  0  0
   29.6329  -12.7309   14.4565 C   0  0  0  0  0  0  0  0  0  0  0  0
   29.9156  -11.9793   13.3833 N   0  0  0  0  0  0  0  0  0  0  0  0
  1  2  2  0
 22  1  1  0
  1 23  1  0
  2  3  1  0
 20  3  2  0
 24  4  1  1
  5  6  1  0
  5 11  1  0
  5 23  1  1
  6 10  1  0
  6 27  2  0
  7  8  2  0
 27  7  1  0
  9  8  1  0
 10  9  2  0
 11 12  2  0
 11 16  1  0
 12 13  1  0
 13 14  2  0
 15 14  1  0
 16 15  2  0
 15 28  1  0
 29 17  1  0
 17 30  2  0
 17 32  1  0
 18 19  2  0
 30 18  1  0
 19 31  1  0
 21 20  1  0
 20 24  1  0
 22 21  2  0
 22 29  1  0
 24 25  2  0
 24 26  2  0
 31 32  2  0
M  END
$$$$
