
     RDKit          3D

 76 78  0  0  0  0  0  0  0  0999 V2000
   56.2249  -36.4709  -12.2352 N   0  0  0  0  0  4  0  0  0  0  0  0
   55.4566  -35.6948  -11.3194 C   0  0  2  0  0  0  0  0  0  0  0  0
   54.3635  -34.8925  -11.9288 C   0  0  0  0  0  0  0  0  0  0  0  0
   53.8593  -34.0584  -11.0696 O   0  0  0  0  0  0  0  0  0  0  0  0
   56.4798  -34.7168  -10.6776 C   0  0  0  0  0  0  0  0  0  0  0  0
   57.2542  -35.4629   -9.6134 C   0  0  0  0  0  0  0  0  0  0  0  0
   57.9809  -34.4987   -8.6895 C   0  0  0  0  0  0  0  0  0  0  0  0
   57.1374  -34.1710   -7.4769 C   0  0  0  0  0  0  0  0  0  0  0  0
   57.7094  -34.8060   -6.2995 N   0  0  0  0  0  0  0  0  0  0  0  0
   53.8497  -34.9160  -13.2138 N   0  0  0  0  0  0  0  0  0  0  0  0
   53.0120  -35.8881  -13.8959 C   0  0  2  0  0  0  0  0  0  0  0  0
   52.3602  -36.8726  -13.0033 C   0  0  0  0  0  0  0  0  0  0  0  0
   53.1691  -37.2033  -12.0431 O   0  0  0  0  0  0  0  0  0  0  0  0
   53.8149  -36.4673  -14.9792 C   0  0  0  0  0  0  0  0  0  0  0  0
   54.9838  -35.6288  -15.3676 C   0  0  0  0  0  0  0  0  0  0  0  0
   55.0723  -34.2520  -14.8624 C   0  0  0  0  0  0  0  0  0  0  0  0
   55.1750  -33.9715  -13.4867 N   0  0  0  0  0  0  0  0  0  0  0  0
   56.3960  -33.9256  -12.7644 C   0  0  0  0  0  0  0  0  0  0  0  0
   56.3645  -33.7008  -11.5166 N   0  0  0  0  0  0  0  0  0  0  0  0
   57.6087  -34.1320  -13.4731 N   0  0  0  0  0  0  0  0  0  0  0  0
   51.1010  -37.4495  -13.0464 N   0  0  0  0  0  0  0  0  0  0  0  0
   49.7740  -36.8977  -13.0543 C   0  0  2  0  0  0  0  0  0  0  0  0
   48.8367  -37.9339  -12.4699 C   0  0  0  0  0  0  0  0  0  0  0  0
   49.2743  -38.4068  -11.3483 O   0  0  0  0  0  0  0  0  0  0  0  0
   49.2628  -36.3158  -14.3076 C   0  0  0  0  0  0  0  0  0  0  0  0
   50.2638  -36.0529  -15.3543 C   0  0  0  0  0  0  0  0  0  0  0  0
   51.5315  -35.3759  -14.9938 C   0  0  0  0  0  0  0  0  0  0  0  0
   51.1869  -34.1066  -14.3590 N   0  0  0  0  0  0  0  0  0  0  0  0
   52.1679  -33.2813  -13.7561 C   0  0  0  0  0  0  0  0  0  0  0  0
   52.0093  -31.8763  -13.6882 N   0  0  0  0  0  0  0  0  0  0  0  0
   53.2172  -33.8436  -13.2724 N   0  0  0  0  0  0  0  0  0  0  0  0
   47.6330  -38.3917  -13.0004 N   0  0  0  0  0  0  0  0  0  0  0  0
   46.3714  -37.7248  -13.1647 C   0  0  1  0  0  0  0  0  0  0  0  0
   45.2202  -38.6936  -13.4380 C   0  0  1  0  0  0  0  0  0  0  0  0
   45.6025  -40.1251  -13.4263 C   0  0  0  0  0  0  0  0  0  0  0  0
   44.2016  -38.4660  -12.3301 C   0  0  0  0  0  0  0  0  0  0  0  0
   44.6646  -38.3356  -14.7907 C   0  0  0  0  0  0  0  0  0  0  0  0
   46.0289  -36.7324  -12.1223 C   0  0  0  0  0  0  0  0  0  0  0  0
   45.2397  -35.8061  -12.5473 O   0  0  0  0  0  0  0  0  0  0  0  0
   46.4521  -36.6986  -10.7948 N   0  0  0  0  0  0  0  0  0  0  0  0
   46.4517  -37.7751   -9.8314 C   0  0  2  0  0  0  0  0  0  0  0  0
   45.1522  -37.8439   -9.0930 C   0  0  0  0  0  0  0  0  0  0  0  0
   44.2864  -36.9839   -9.3940 O   0  0  0  0  0  0  0  0  0  0  0  0
   47.5230  -37.5099   -8.7753 C   0  0  0  0  0  0  0  0  0  0  0  0
   48.0956  -38.8277   -8.3567 C   0  0  0  0  0  0  0  0  0  0  0  0
   48.0197  -39.0804   -6.8837 C   0  0  0  0  0  0  0  0  0  0  0  0
   49.2671  -38.5466   -6.2073 C   0  0  0  0  0  0  0  0  0  0  0  0
   49.8212  -39.5297   -5.2927 N   0  0  0  0  0  0  0  0  0  0  0  0
   44.8628  -38.8107   -8.0960 N   0  0  0  0  0  0  0  0  0  0  0  0
   45.7140  -39.1176   -6.9781 C   0  0  0  0  0  0  0  0  0  0  0  0
   45.0480  -39.0954   -5.6691 C   0  0  0  0  0  0  0  0  0  0  0  0
   44.8177  -37.8702   -5.0566 C   0  0  0  0  0  0  0  0  0  0  0  0
   44.2027  -37.7824   -3.8259 C   0  0  0  0  0  0  0  0  0  0  0  0
   43.7844  -38.9272   -3.1421 C   0  0  0  0  0  0  0  0  0  0  0  0
   43.1351  -38.8072   -1.8375 C   0  0  0  0  0  0  0  0  0  0  0  0
   42.7799  -39.8068   -1.1194 N   0  0  0  0  0  0  0  0  0  0  0  0
   42.8606  -37.5006   -1.2965 N   0  0  0  0  0  0  0  0  0  0  0  0
   44.0136  -40.1373   -3.7507 C   0  0  0  0  0  0  0  0  0  0  0  0
   44.6276  -40.2148   -4.9778 C   0  0  0  0  0  0  0  0  0  0  0  0
   56.9068  -35.0820   -5.1453 C   0  0  0  0  0  0  0  0  0  0  0  0
   55.5075  -35.5644   -5.2373 C   0  0  0  0  0  0  0  0  0  0  0  0
   54.7177  -35.0395   -4.0519 C   0  0  0  0  0  0  0  0  0  0  0  0
   52.5799  -35.1613   -3.1374 C   0  0  0  0  0  0  0  0  0  0  0  0
   51.2973  -35.9423   -2.9740 C   0  0  0  0  0  0  0  0  0  0  0  0
   50.5743  -38.0666   -2.1873 C   0  0  0  0  0  0  0  0  0  0  0  0
   49.3693  -38.3321   -3.0664 C   0  0  0  0  0  0  0  0  0  0  0  0
   49.5831  -39.5419   -3.9051 C   0  0  0  0  0  0  0  0  0  0  0  0
   52.8753  -37.5589   -2.3672 C   0  0  0  0  0  0  0  0  0  0  0  0
   53.9237  -37.1389   -3.3661 C   0  0  0  0  0  0  0  0  0  0  0  0
   53.5339  -35.8656   -3.9511 N   0  0  2  0  0  4  0  0  0  0  0  0
   51.5745  -37.3632   -2.9737 N   0  0  2  0  0  4  0  0  0  0  0  0
   57.3714  -34.9220   -3.9831 O   0  0  0  0  0  0  0  0  0  0  0  0
   49.5430  -40.6621   -3.3024 O   0  0  0  0  0  0  0  0  0  0  0  0
   55.4875  -33.4693  -10.9761 H   0  0  0  0  0  0  0  0  0  0  0  0
   53.9178  -33.3314  -12.6959 H   0  0  0  0  0  0  0  0  0  0  0  0
   42.2406  -39.6928   -0.2207 H   0  0  0  0  0  0  0  0  0  0  0  0
  2  1  1  6
  2  3  1  0
  5  2  1  0
  3  4  2  0
  3 10  1  0
  6  5  1  0
  7  6  1  0
  8  7  1  0
  9  8  1  0
 60  9  1  0
 10 11  1  0
 11 12  1  0
 11 14  1  6
 12 13  2  0
 21 12  1  0
 14 15  1  0
 15 16  1  0
 16 17  1  0
 17 18  1  0
 18 19  2  0
 18 20  1  0
 22 21  1  0
 23 22  1  0
 22 25  1  6
 23 24  2  0
 32 23  1  0
 25 26  1  0
 26 27  1  0
 27 28  1  0
 28 29  1  0
 29 30  1  0
 29 31  2  0
 33 32  1  1
 33 34  1  0
 38 33  1  0
 34 35  1  6
 34 36  1  0
 34 37  1  0
 38 39  2  0
 40 38  1  0
 41 40  1  0
 41 42  1  1
 44 41  1  0
 42 43  2  0
 42 49  1  0
 45 44  1  0
 46 45  1  0
 47 46  1  0
 48 47  1  0
 67 48  1  0
 49 50  1  0
 50 51  1  0
 51 52  2  0
 51 59  1  0
 52 53  1  0
 53 54  2  0
 54 55  1  0
 58 54  1  0
 55 56  2  0
 55 57  1  0
 59 58  2  0
 61 60  1  0
 60 72  2  0
 62 61  1  0
 70 62  1  1
 64 63  1  0
 63 70  1  0
 71 64  1  1
 65 66  1  0
 71 65  1  0
 66 67  1  0
 67 73  2  0
 68 69  1  0
 68 71  1  0
 69 70  1  0
 19 74  1  0
 31 75  1  0
 56 76  1  0
M  CHG  3   1   1  70   1  71   1
M  END
$$$$
