
     RDKit          3D

 76 78  0  0  0  0  0  0  0  0999 V2000
   57.4630  -39.2406   -7.1251 N   0  0  0  0  0  4  0  0  0  0  0  0
   56.9919  -37.8963   -7.1752 C   0  0  2  0  0  0  0  0  0  0  0  0
   56.5558  -37.4264   -8.5164 C   0  0  0  0  0  0  0  0  0  0  0  0
   56.3501  -36.1435   -8.5195 O   0  0  0  0  0  0  0  0  0  0  0  0
   58.2074  -37.0368   -6.7288 C   0  0  0  0  0  0  0  0  0  0  0  0
   58.3072  -37.0939   -5.2203 C   0  0  0  0  0  0  0  0  0  0  0  0
   59.2061  -35.9884   -4.6900 C   0  0  0  0  0  0  0  0  0  0  0  0
   58.3991  -34.7602   -4.3297 C   0  0  0  0  0  0  0  0  0  0  0  0
   58.3558  -34.6129   -2.8830 N   0  0  0  0  0  0  0  0  0  0  0  0
   56.3575  -38.1350   -9.6888 N   0  0  0  0  0  0  0  0  0  0  0  0
   55.3119  -39.0633  -10.0852 C   0  0  2  0  0  0  0  0  0  0  0  0
   54.1093  -39.0401   -9.2227 C   0  0  0  0  0  0  0  0  0  0  0  0
   54.4565  -38.8713   -7.9831 O   0  0  0  0  0  0  0  0  0  0  0  0
   55.9392  -40.3807  -10.2421 C   0  0  0  0  0  0  0  0  0  0  0  0
   57.3245  -40.3193  -10.7873 C   0  0  0  0  0  0  0  0  0  0  0  0
   58.2590  -39.3220  -10.2479 C   0  0  0  0  0  0  0  0  0  0  0  0
   58.4350  -38.0648  -10.8562 N   0  0  0  0  0  0  0  0  0  0  0  0
   59.2372  -37.8320  -12.0038 C   0  0  0  0  0  0  0  0  0  0  0  0
   59.1974  -36.6936  -12.5616 N   0  0  0  0  0  0  0  0  0  0  0  0
   60.0535  -38.8898  -12.4837 N   0  0  0  0  0  0  0  0  0  0  0  0
   52.7639  -39.1658   -9.5300 N   0  0  0  0  0  0  0  0  0  0  0  0
   51.8895  -38.4331  -10.4040 C   0  0  2  0  0  0  0  0  0  0  0  0
   50.4782  -38.5721   -9.8723 C   0  0  0  0  0  0  0  0  0  0  0  0
   50.4076  -38.3086   -8.6079 O   0  0  0  0  0  0  0  0  0  0  0  0
   51.9747  -38.6830  -11.8534 C   0  0  0  0  0  0  0  0  0  0  0  0
   52.3750  -40.0419  -12.2533 C   0  0  0  0  0  0  0  0  0  0  0  0
   52.9686  -40.9508  -11.2448 C   0  0  0  0  0  0  0  0  0  0  0  0
   51.8822  -41.4398  -10.4001 N   0  0  0  0  0  0  0  0  0  0  0  0
   52.1003  -42.4018   -9.3832 C   0  0  0  0  0  0  0  0  0  0  0  0
   51.0775  -42.7558   -8.4711 N   0  0  0  0  0  0  0  0  0  0  0  0
   53.2616  -42.9464   -9.3050 N   0  0  0  0  0  0  0  0  0  0  0  0
   49.3331  -38.9373  -10.5761 N   0  0  0  0  0  0  0  0  0  0  0  0
   48.6003  -38.2379  -11.5946 C   0  0  1  0  0  0  0  0  0  0  0  0
   47.2068  -38.8223  -11.8291 C   0  0  1  0  0  0  0  0  0  0  0  0
   47.1945  -40.2539  -12.2109 C   0  0  0  0  0  0  0  0  0  0  0  0
   46.4580  -38.6767  -10.5119 C   0  0  0  0  0  0  0  0  0  0  0  0
   46.5739  -38.0071  -12.9253 C   0  0  0  0  0  0  0  0  0  0  0  0
   48.5723  -36.7640  -11.4683 C   0  0  0  0  0  0  0  0  0  0  0  0
   48.4192  -36.1635  -12.5984 O   0  0  0  0  0  0  0  0  0  0  0  0
   48.6894  -35.9978  -10.3099 N   0  0  0  0  0  0  0  0  0  0  0  0
   47.9877  -36.1619   -9.0579 C   0  0  2  0  0  0  0  0  0  0  0  0
   46.6948  -35.4086   -9.0560 C   0  0  0  0  0  0  0  0  0  0  0  0
   46.3424  -34.8908  -10.1457 O   0  0  0  0  0  0  0  0  0  0  0  0
   48.8241  -35.5663   -7.9269 C   0  0  0  0  0  0  0  0  0  0  0  0
   48.6066  -36.3997   -6.7030 C   0  0  0  0  0  0  0  0  0  0  0  0
   48.1309  -35.6211   -5.5169 C   0  0  0  0  0  0  0  0  0  0  0  0
   49.3208  -35.1186   -4.7231 C   0  0  0  0  0  0  0  0  0  0  0  0
   49.1486  -35.3872   -3.3060 N   0  0  0  0  0  0  0  0  0  0  0  0
   45.8725  -35.2581   -7.9099 N   0  0  0  0  0  0  0  0  0  0  0  0
   46.1684  -35.7981   -6.6102 C   0  0  0  0  0  0  0  0  0  0  0  0
   45.4746  -37.0522   -6.2888 C   0  0  0  0  0  0  0  0  0  0  0  0
   44.1338  -37.1807   -6.6280 C   0  0  0  0  0  0  0  0  0  0  0  0
   43.4251  -38.3297   -6.3483 C   0  0  0  0  0  0  0  0  0  0  0  0
   44.0296  -39.4160   -5.7097 C   0  0  0  0  0  0  0  0  0  0  0  0
   43.2557  -40.6232   -5.4236 C   0  0  0  0  0  0  0  0  0  0  0  0
   43.6760  -41.5867   -4.6915 N   0  0  0  0  0  0  0  0  0  0  0  0
   41.9372  -40.7730   -5.9842 N   0  0  0  0  0  0  0  0  0  0  0  0
   45.3557  -39.2856   -5.3757 C   0  0  0  0  0  0  0  0  0  0  0  0
   46.0540  -38.1362   -5.6585 C   0  0  0  0  0  0  0  0  0  0  0  0
   57.3086  -33.8703   -2.2469 C   0  0  0  0  0  0  0  0  0  0  0  0
   55.8977  -33.9230   -2.7002 C   0  0  0  0  0  0  0  0  0  0  0  0
   55.2358  -32.5829   -2.4345 C   0  0  0  0  0  0  0  0  0  0  0  0
   53.1641  -31.5422   -2.6500 C   0  0  0  0  0  0  0  0  0  0  0  0
   51.6610  -31.6777   -2.7126 C   0  0  0  0  0  0  0  0  0  0  0  0
   49.8768  -32.5308   -1.3923 C   0  0  0  0  0  0  0  0  0  0  0  0
   48.8906  -32.9793   -2.4515 C   0  0  0  0  0  0  0  0  0  0  0  0
   48.6648  -34.4476   -2.3757 C   0  0  0  0  0  0  0  0  0  0  0  0
   52.1267  -32.8631   -0.7505 C   0  0  0  0  0  0  0  0  0  0  0  0
   53.4224  -33.4644   -1.2333 C   0  0  0  0  0  0  0  0  0  0  0  0
   53.8083  -32.8163   -2.4768 N   0  0  2  0  0  4  0  0  0  0  0  0
   51.2237  -32.7784   -1.8801 N   0  0  2  0  0  4  0  0  0  0  0  0
   57.5538  -33.1288   -1.2558 O   0  0  0  0  0  0  0  0  0  0  0  0
   47.9795  -34.8641   -1.3875 O   0  0  0  0  0  0  0  0  0  0  0  0
   58.3845  -36.3410  -13.1357 H   0  0  0  0  0  0  0  0  0  0  0  0
   54.1456  -42.4166   -9.4573 H   0  0  0  0  0  0  0  0  0  0  0  0
   43.8609  -41.4726   -3.6599 H   0  0  0  0  0  0  0  0  0  0  0  0
  2  1  1  6
  2  3  1  0
  5  2  1  0
  3  4  2  0
  3 10  1  0
  6  5  1  0
  7  6  1  0
  8  7  1  0
  9  8  1  0
 60  9  1  0
 10 11  1  0
 11 12  1  0
 11 14  1  1
 12 13  2  0
 21 12  1  0
 14 15  1  0
 15 16  1  0
 16 17  1  0
 17 18  1  0
 18 19  2  0
 18 20  1  0
 22 21  1  0
 23 22  1  0
 22 25  1  6
 23 24  2  0
 32 23  1  0
 25 26  1  0
 26 27  1  0
 27 28  1  0
 28 29  1  0
 29 30  1  0
 29 31  2  0
 33 32  1  1
 33 34  1  0
 38 33  1  0
 34 35  1  6
 34 36  1  0
 34 37  1  0
 38 39  2  0
 40 38  1  0
 41 40  1  0
 41 42  1  6
 44 41  1  0
 42 43  2  0
 42 49  1  0
 45 44  1  0
 46 45  1  0
 47 46  1  0
 48 47  1  0
 67 48  1  0
 49 50  1  0
 50 51  1  0
 51 52  2  0
 51 59  1  0
 52 53  1  0
 53 54  2  0
 54 55  1  0
 58 54  1  0
 55 56  2  0
 55 57  1  0
 59 58  2  0
 61 60  1  0
 60 72  2  0
 62 61  1  0
 70 62  1  1
 64 63  1  0
 63 70  1  0
 71 64  1  6
 65 66  1  0
 71 65  1  0
 66 67  1  0
 67 73  2  0
 68 69  1  0
 68 71  1  0
 69 70  1  0
 19 74  1  0
 31 75  1  0
 56 76  1  0
M  CHG  3   1   1  70   1  71   1
M  END
$$$$
