
     RDKit          3D

 76 78  0  0  0  0  0  0  0  0999 V2000
   54.1414  -32.7122   -2.7024 N   0  0  0  0  0  4  0  0  0  0  0  0
   54.5842  -33.9038   -3.3471 C   0  0  2  0  0  0  0  0  0  0  0  0
   53.8384  -35.1370   -2.9827 C   0  0  0  0  0  0  0  0  0  0  0  0
   54.4348  -36.1975   -3.4388 O   0  0  0  0  0  0  0  0  0  0  0  0
   56.0599  -34.0733   -2.8899 C   0  0  0  0  0  0  0  0  0  0  0  0
   56.9258  -33.1413   -3.7086 C   0  0  0  0  0  0  0  0  0  0  0  0
   58.3934  -33.5237   -3.6012 C   0  0  0  0  0  0  0  0  0  0  0  0
   58.7930  -34.4582   -4.7221 C   0  0  0  0  0  0  0  0  0  0  0  0
   59.6525  -33.7534   -5.6608 N   0  0  0  0  0  0  0  0  0  0  0  0
   52.6667  -35.2906   -2.2619 N   0  0  0  0  0  0  0  0  0  0  0  0
   51.2839  -35.0024   -2.6034 C   0  0  2  0  0  0  0  0  0  0  0  0
   51.0405  -34.7776   -4.0460 C   0  0  0  0  0  0  0  0  0  0  0  0
   52.0359  -34.1269   -4.5669 O   0  0  0  0  0  0  0  0  0  0  0  0
   50.8368  -33.9182   -1.7212 C   0  0  0  0  0  0  0  0  0  0  0  0
   49.3671  -33.6784   -1.7704 C   0  0  0  0  0  0  0  0  0  0  0  0
   48.6231  -34.0588   -2.9789 C   0  0  0  0  0  0  0  0  0  0  0  0
   47.2820  -34.4832   -2.9219 N   0  0  0  0  0  0  0  0  0  0  0  0
   46.7544  -35.5812   -3.6503 C   0  0  0  0  0  0  0  0  0  0  0  0
   46.6053  -36.6949   -3.0622 N   0  0  0  0  0  0  0  0  0  0  0  0
   46.4157  -35.3866   -5.0152 N   0  0  0  0  0  0  0  0  0  0  0  0
   49.9766  -35.1364   -4.8583 N   0  0  0  0  0  0  0  0  0  0  0  0
   49.3704  -36.4013   -5.1712 C   0  0  2  0  0  0  0  0  0  0  0  0
   48.7244  -36.2817   -6.5359 C   0  0  0  0  0  0  0  0  0  0  0  0
   49.5316  -35.7793   -7.4128 O   0  0  0  0  0  0  0  0  0  0  0  0
   48.4771  -37.0176   -4.1749 C   0  0  0  0  0  0  0  0  0  0  0  0
   49.0810  -37.3283   -2.8690 C   0  0  0  0  0  0  0  0  0  0  0  0
   50.5416  -37.5616   -2.7810 C   0  0  0  0  0  0  0  0  0  0  0  0
   51.0161  -36.9209   -1.5574 N   0  0  0  0  0  0  0  0  0  0  0  0
   52.3717  -36.9936   -1.1523 C   0  0  0  0  0  0  0  0  0  0  0  0
   53.1117  -38.1950   -1.2649 N   0  0  0  0  0  0  0  0  0  0  0  0
   52.9168  -35.9342   -0.6709 N   0  0  0  0  0  0  0  0  0  0  0  0
   47.4278  -36.6366   -6.9003 N   0  0  0  0  0  0  0  0  0  0  0  0
   46.8093  -37.9283   -7.0105 C   0  0  1  0  0  0  0  0  0  0  0  0
   45.4975  -37.8922   -7.7956 C   0  0  1  0  0  0  0  0  0  0  0  0
   44.6834  -39.1260   -7.6939 C   0  0  0  0  0  0  0  0  0  0  0  0
   44.6876  -36.7409   -7.2167 C   0  0  0  0  0  0  0  0  0  0  0  0
   45.8615  -37.6509   -9.2365 C   0  0  0  0  0  0  0  0  0  0  0  0
   47.6938  -39.0284   -7.4537 C   0  0  0  0  0  0  0  0  0  0  0  0
   47.3118  -40.1845   -7.0309 O   0  0  0  0  0  0  0  0  0  0  0  0
   48.8406  -38.9455   -8.2415 N   0  0  0  0  0  0  0  0  0  0  0  0
   49.0139  -38.2439   -9.4924 C   0  0  2  0  0  0  0  0  0  0  0  0
   48.6497  -39.1100  -10.6569 C   0  0  0  0  0  0  0  0  0  0  0  0
   49.0145  -40.3115  -10.6019 O   0  0  0  0  0  0  0  0  0  0  0  0
   50.4889  -37.8909   -9.6748 C   0  0  0  0  0  0  0  0  0  0  0  0
   50.5650  -36.5743  -10.3821 C   0  0  0  0  0  0  0  0  0  0  0  0
   51.3717  -36.6095  -11.6419 C   0  0  0  0  0  0  0  0  0  0  0  0
   52.8231  -36.3023  -11.3296 C   0  0  0  0  0  0  0  0  0  0  0  0
   53.3528  -35.3123  -12.2513 N   0  0  0  0  0  0  0  0  0  0  0  0
   47.9304  -38.6469  -11.7885 N   0  0  0  0  0  0  0  0  0  0  0  0
   47.2821  -37.3664  -11.8820 C   0  0  0  0  0  0  0  0  0  0  0  0
   48.1082  -36.2952  -12.4542 C   0  0  0  0  0  0  0  0  0  0  0  0
   47.4801  -35.2456  -13.1124 C   0  0  0  0  0  0  0  0  0  0  0  0
   48.1992  -34.2131  -13.6760 C   0  0  0  0  0  0  0  0  0  0  0  0
   49.5947  -34.1808  -13.6075 C   0  0  0  0  0  0  0  0  0  0  0  0
   50.3343  -33.0748  -14.2141 C   0  0  0  0  0  0  0  0  0  0  0  0
   49.7832  -32.1032  -14.8412 N   0  0  0  0  0  0  0  0  0  0  0  0
   51.7716  -33.0446  -14.1225 N   0  0  0  0  0  0  0  0  0  0  0  0
   50.2126  -35.2204  -12.9559 C   0  0  0  0  0  0  0  0  0  0  0  0
   49.4873  -36.2453  -12.3972 C   0  0  0  0  0  0  0  0  0  0  0  0
   59.7845  -34.1956   -7.0172 C   0  0  0  0  0  0  0  0  0  0  0  0
   58.6406  -34.7097   -7.8088 C   0  0  0  0  0  0  0  0  0  0  0  0
   59.1396  -35.7566   -8.7883 C   0  0  0  0  0  0  0  0  0  0  0  0
   58.3409  -37.1382  -10.4837 C   0  0  0  0  0  0  0  0  0  0  0  0
   57.3108  -37.3818  -11.5614 C   0  0  0  0  0  0  0  0  0  0  0  0
   56.4716  -36.3224  -13.5179 C   0  0  0  0  0  0  0  0  0  0  0  0
   55.0279  -36.7820  -13.5276 C   0  0  0  0  0  0  0  0  0  0  0  0
   54.1035  -35.6234  -13.4010 C   0  0  0  0  0  0  0  0  0  0  0  0
   58.0156  -35.2196  -12.1092 C   0  0  0  0  0  0  0  0  0  0  0  0
   58.2004  -34.7492  -10.6887 C   0  0  0  0  0  0  0  0  0  0  0  0
   58.1118  -35.8952   -9.7975 N   0  0  2  0  0  4  0  0  0  0  0  0
   56.8845  -36.1242  -12.1381 N   0  0  2  0  0  4  0  0  0  0  0  0
   60.9027  -34.1622   -7.6008 O   0  0  0  0  0  0  0  0  0  0  0  0
   53.9980  -34.8701  -14.4214 O   0  0  0  0  0  0  0  0  0  0  0  0
   46.7527  -36.8454   -2.0276 H   0  0  0  0  0  0  0  0  0  0  0  0
   53.1510  -35.8281    0.3388 H   0  0  0  0  0  0  0  0  0  0  0  0
   48.7372  -31.9769  -14.8792 H   0  0  0  0  0  0  0  0  0  0  0  0
  2  1  1  1
  2  3  1  0
  5  2  1  0
  3  4  2  0
  3 10  1  0
  6  5  1  0
  7  6  1  0
  8  7  1  0
  9  8  1  0
 60  9  1  0
 10 11  1  0
 11 12  1  0
 11 14  1  1
 12 13  2  0
 21 12  1  0
 14 15  1  0
 15 16  1  0
 16 17  1  0
 17 18  1  0
 18 19  2  0
 18 20  1  0
 22 21  1  0
 23 22  1  0
 22 25  1  1
 23 24  2  0
 32 23  1  0
 25 26  1  0
 26 27  1  0
 27 28  1  0
 28 29  1  0
 29 30  1  0
 29 31  2  0
 33 32  1  6
 33 34  1  0
 38 33  1  0
 34 35  1  6
 34 36  1  0
 34 37  1  0
 38 39  2  0
 40 38  1  0
 41 40  1  0
 41 42  1  6
 44 41  1  0
 42 43  2  0
 42 49  1  0
 45 44  1  0
 46 45  1  0
 47 46  1  0
 48 47  1  0
 67 48  1  0
 49 50  1  0
 50 51  1  0
 51 52  2  0
 51 59  1  0
 52 53  1  0
 53 54  2  0
 54 55  1  0
 58 54  1  0
 55 56  2  0
 55 57  1  0
 59 58  2  0
 61 60  1  0
 60 72  2  0
 62 61  1  0
 70 62  1  1
 64 63  1  0
 63 70  1  0
 71 64  1  6
 65 66  1  0
 71 65  1  0
 66 67  1  0
 67 73  2  0
 68 69  1  0
 68 71  1  0
 69 70  1  0
 19 74  1  0
 31 75  1  0
 56 76  1  0
M  CHG  3   1   1  70   1  71   1
M  END
$$$$
