
     RDKit          3D

 76 78  0  0  0  0  0  0  0  0999 V2000
   50.4540  -34.5168   -2.7345 N   0  0  0  0  0  4  0  0  0  0  0  0
   51.0655  -35.6305   -3.3803 C   0  0  2  0  0  0  0  0  0  0  0  0
   50.1693  -36.7898   -3.6302 C   0  0  0  0  0  0  0  0  0  0  0  0
   50.8450  -37.8298   -4.0176 O   0  0  0  0  0  0  0  0  0  0  0  0
   52.1878  -36.0831   -2.4050 C   0  0  0  0  0  0  0  0  0  0  0  0
   53.3718  -35.1565   -2.5729 C   0  0  0  0  0  0  0  0  0  0  0  0
   54.6260  -35.7555   -1.9567 C   0  0  0  0  0  0  0  0  0  0  0  0
   55.4184  -36.5306   -2.9865 C   0  0  0  0  0  0  0  0  0  0  0  0
   56.6359  -35.8041   -3.3123 N   0  0  0  0  0  0  0  0  0  0  0  0
   48.7948  -36.8974   -3.5069 N   0  0  0  0  0  0  0  0  0  0  0  0
   47.7127  -36.3621   -4.3160 C   0  0  2  0  0  0  0  0  0  0  0  0
   48.1284  -35.8608   -5.6452 C   0  0  0  0  0  0  0  0  0  0  0  0
   49.2851  -35.2779   -5.5568 O   0  0  0  0  0  0  0  0  0  0  0  0
   46.9889  -35.3932   -3.4847 C   0  0  0  0  0  0  0  0  0  0  0  0
   47.8682  -34.3529   -2.8807 C   0  0  0  0  0  0  0  0  0  0  0  0
   48.3955  -34.5647   -1.5258 C   0  0  0  0  0  0  0  0  0  0  0  0
   49.5561  -33.9108   -1.0706 N   0  0  0  0  0  0  0  0  0  0  0  0
   50.0585  -33.9937    0.2543 C   0  0  0  0  0  0  0  0  0  0  0  0
   49.4674  -34.7416    1.0908 N   0  0  0  0  0  0  0  0  0  0  0  0
   51.2071  -33.2299    0.5906 N   0  0  0  0  0  0  0  0  0  0  0  0
   47.5013  -35.9205   -6.8795 N   0  0  0  0  0  0  0  0  0  0  0  0
   47.0212  -37.0142   -7.6788 C   0  0  2  0  0  0  0  0  0  0  0  0
   47.0349  -36.5719   -9.1272 C   0  0  0  0  0  0  0  0  0  0  0  0
   48.1677  -36.0458   -9.4635 O   0  0  0  0  0  0  0  0  0  0  0  0
   45.7532  -37.6596   -7.2967 C   0  0  0  0  0  0  0  0  0  0  0  0
   45.5218  -37.8271   -5.8528 C   0  0  0  0  0  0  0  0  0  0  0  0
   46.6358  -37.5867   -4.9057 C   0  0  0  0  0  0  0  0  0  0  0  0
   46.7560  -38.7705   -4.0589 N   0  0  0  0  0  0  0  0  0  0  0  0
   45.7913  -39.0837   -3.0699 C   0  0  0  0  0  0  0  0  0  0  0  0
   45.2824  -38.0932   -2.1961 N   0  0  0  0  0  0  0  0  0  0  0  0
   45.3895  -40.3010   -2.9809 N   0  0  0  0  0  0  0  0  0  0  0  0
   46.0053  -36.6718  -10.0599 N   0  0  0  0  0  0  0  0  0  0  0  0
   45.4251  -37.8247  -10.6904 C   0  0  1  0  0  0  0  0  0  0  0  0
   44.5848  -37.4690  -11.9175 C   0  0  1  0  0  0  0  0  0  0  0  0
   43.2761  -38.1600  -11.9904 C   0  0  0  0  0  0  0  0  0  0  0  0
   44.3260  -35.9713  -11.8354 C   0  0  0  0  0  0  0  0  0  0  0  0
   45.4081  -37.8289  -13.1255 C   0  0  0  0  0  0  0  0  0  0  0  0
   46.3526  -38.9463  -10.9563 C   0  0  0  0  0  0  0  0  0  0  0  0
   45.7629  -40.0919  -10.9884 O   0  0  0  0  0  0  0  0  0  0  0  0
   47.7297  -38.8925  -11.1645 N   0  0  0  0  0  0  0  0  0  0  0  0
   48.4640  -38.0183  -12.0497 C   0  0  2  0  0  0  0  0  0  0  0  0
   48.5911  -38.6112  -13.4176 C   0  0  0  0  0  0  0  0  0  0  0  0
   48.6097  -39.8659  -13.4888 O   0  0  0  0  0  0  0  0  0  0  0  0
   49.8901  -37.8517  -11.5284 C   0  0  0  0  0  0  0  0  0  0  0  0
   50.3360  -36.4574  -11.8396 C   0  0  0  0  0  0  0  0  0  0  0  0
   51.6041  -36.3895  -12.6311 C   0  0  0  0  0  0  0  0  0  0  0  0
   52.7931  -36.3492  -11.6914 C   0  0  0  0  0  0  0  0  0  0  0  0
   53.7219  -35.3007  -12.0762 N   0  0  0  0  0  0  0  0  0  0  0  0
   48.6886  -37.8402  -14.6044 N   0  0  0  0  0  0  0  0  0  0  0  0
   49.4699  -36.6407  -14.7426 C   0  0  0  0  0  0  0  0  0  0  0  0
   50.2350  -36.5413  -15.9924 C   0  0  0  0  0  0  0  0  0  0  0  0
   50.9650  -35.3857  -16.2395 C   0  0  0  0  0  0  0  0  0  0  0  0
   51.6988  -35.2286  -17.3961 C   0  0  0  0  0  0  0  0  0  0  0  0
   51.7379  -36.2298  -18.3705 C   0  0  0  0  0  0  0  0  0  0  0  0
   52.5232  -36.0383  -19.5889 C   0  0  0  0  0  0  0  0  0  0  0  0
   53.2053  -34.9843  -19.8434 N   0  0  0  0  0  0  0  0  0  0  0  0
   52.5527  -37.0765  -20.5872 N   0  0  0  0  0  0  0  0  0  0  0  0
   51.0148  -37.3713  -18.1228 C   0  0  0  0  0  0  0  0  0  0  0  0
   50.2862  -37.5188  -16.9669 C   0  0  0  0  0  0  0  0  0  0  0  0
   57.3159  -36.0209   -4.5547 C   0  0  0  0  0  0  0  0  0  0  0  0
   56.5993  -36.2243   -5.8370 C   0  0  0  0  0  0  0  0  0  0  0  0
   57.4140  -37.1475   -6.7250 C   0  0  0  0  0  0  0  0  0  0  0  0
   57.3507  -38.0903   -8.8530 C   0  0  0  0  0  0  0  0  0  0  0  0
   56.8749  -37.9970  -10.2837 C   0  0  0  0  0  0  0  0  0  0  0  0
   57.0215  -36.5095  -12.1330 C   0  0  0  0  0  0  0  0  0  0  0  0
   55.7005  -36.7515  -12.8345 C   0  0  0  0  0  0  0  0  0  0  0  0
   54.8770  -35.5129  -12.8528 C   0  0  0  0  0  0  0  0  0  0  0  0
   57.8643  -35.8947  -10.0126 C   0  0  0  0  0  0  0  0  0  0  0  0
   57.4434  -35.7062   -8.5771 C   0  0  0  0  0  0  0  0  0  0  0  0
   56.9164  -36.9639   -8.0714 N   0  0  2  0  0  4  0  0  0  0  0  0
   56.8088  -36.6116  -10.6985 N   0  0  2  0  0  4  0  0  0  0  0  0
   58.5764  -36.0466   -4.6043 O   0  0  0  0  0  0  0  0  0  0  0  0
   55.2635  -34.5884  -13.6373 O   0  0  0  0  0  0  0  0  0  0  0  0
   49.8957  -35.0756    1.9962 H   0  0  0  0  0  0  0  0  0  0  0  0
   44.4492  -40.5603   -2.6148 H   0  0  0  0  0  0  0  0  0  0  0  0
   53.5769  -34.7715  -20.8068 H   0  0  0  0  0  0  0  0  0  0  0  0
  2  1  1  1
  2  3  1  0
  5  2  1  0
  3  4  2  0
  3 10  1  0
  6  5  1  0
  7  6  1  0
  8  7  1  0
  9  8  1  0
 60  9  1  0
 10 11  1  0
 11 12  1  0
 11 14  1  1
 12 13  2  0
 21 12  1  0
 14 15  1  0
 15 16  1  0
 16 17  1  0
 17 18  1  0
 18 19  2  0
 18 20  1  0
 22 21  1  0
 23 22  1  0
 22 25  1  1
 23 24  2  0
 32 23  1  0
 25 26  1  0
 26 27  1  0
 27 28  1  0
 28 29  1  0
 29 30  1  0
 29 31  2  0
 33 32  1  6
 33 34  1  0
 38 33  1  0
 34 35  1  1
 34 36  1  0
 34 37  1  0
 38 39  2  0
 40 38  1  0
 41 40  1  0
 41 42  1  6
 44 41  1  0
 42 43  2  0
 42 49  1  0
 45 44  1  0
 46 45  1  0
 47 46  1  0
 48 47  1  0
 67 48  1  0
 49 50  1  0
 50 51  1  0
 51 52  2  0
 51 59  1  0
 52 53  1  0
 53 54  2  0
 54 55  1  0
 58 54  1  0
 55 56  2  0
 55 57  1  0
 59 58  2  0
 61 60  1  0
 60 72  2  0
 62 61  1  0
 70 62  1  1
 64 63  1  0
 63 70  1  0
 71 64  1  1
 65 66  1  0
 71 65  1  0
 66 67  1  0
 67 73  2  0
 68 69  1  0
 68 71  1  0
 69 70  1  0
 19 74  1  0
 31 75  1  0
 56 76  1  0
M  CHG  3   1   1  70   1  71   1
M  END
$$$$
