
     RDKit          3D

 76 78  0  0  0  0  0  0  0  0999 V2000
   53.1046  -33.1458   -2.1138 N   0  0  0  0  0  4  0  0  0  0  0  0
   53.7369  -34.2688   -2.7227 C   0  0  2  0  0  0  0  0  0  0  0  0
   52.9199  -35.5099   -2.7676 C   0  0  0  0  0  0  0  0  0  0  0  0
   53.6365  -36.5297   -3.1344 O   0  0  0  0  0  0  0  0  0  0  0  0
   54.9886  -34.5406   -1.8424 C   0  0  0  0  0  0  0  0  0  0  0  0
   56.0668  -33.5497   -2.2226 C   0  0  0  0  0  0  0  0  0  0  0  0
   57.4241  -33.9918   -1.6994 C   0  0  0  0  0  0  0  0  0  0  0  0
   58.1672  -34.8026   -2.7385 C   0  0  0  0  0  0  0  0  0  0  0  0
   59.2789  -34.0232   -3.2610 N   0  0  0  0  0  0  0  0  0  0  0  0
   51.5797  -35.7062   -2.4829 N   0  0  0  0  0  0  0  0  0  0  0  0
   50.3782  -35.3332   -3.2105 C   0  0  2  0  0  0  0  0  0  0  0  0
   50.6096  -34.9339   -4.6168 C   0  0  0  0  0  0  0  0  0  0  0  0
   51.7163  -34.2614   -4.7098 O   0  0  0  0  0  0  0  0  0  0  0  0
   49.6661  -34.3444   -2.3926 C   0  0  0  0  0  0  0  0  0  0  0  0
   50.4674  -33.8329   -1.2452 C   0  0  0  0  0  0  0  0  0  0  0  0
   51.8827  -34.2128   -1.1389 C   0  0  0  0  0  0  0  0  0  0  0  0
   52.6757  -33.8218   -0.0434 N   0  0  0  0  0  0  0  0  0  0  0  0
   54.0306  -34.2008    0.1443 C   0  0  0  0  0  0  0  0  0  0  0  0
   54.6155  -34.8642   -0.7646 N   0  0  0  0  0  0  0  0  0  0  0  0
   54.6777  -33.8212    1.3497 N   0  0  0  0  0  0  0  0  0  0  0  0
   49.8647  -35.1593   -5.7634 N   0  0  0  0  0  0  0  0  0  0  0  0
   49.3975  -36.3578   -6.4043 C   0  0  2  0  0  0  0  0  0  0  0  0
   49.2232  -36.0583   -7.8786 C   0  0  0  0  0  0  0  0  0  0  0  0
   50.2666  -35.4851   -8.3843 O   0  0  0  0  0  0  0  0  0  0  0  0
   48.2348  -37.0550   -5.8277 C   0  0  0  0  0  0  0  0  0  0  0  0
   48.5184  -37.9731   -4.7127 C   0  0  0  0  0  0  0  0  0  0  0  0
   49.7255  -37.7555   -3.8814 C   0  0  0  0  0  0  0  0  0  0  0  0
   50.0249  -36.3263   -3.9067 N   0  0  0  0  0  0  0  0  0  0  0  0
   49.0277  -35.3579   -4.1804 C   0  0  0  0  0  0  0  0  0  0  0  0
   49.0090  -34.1096   -3.5135 N   0  0  0  0  0  0  0  0  0  0  0  0
   48.1292  -35.6450   -5.0531 N   0  0  0  0  0  0  0  0  0  0  0  0
   48.1141  -36.3239   -8.6782 N   0  0  0  0  0  0  0  0  0  0  0  0
   47.5702  -37.5723   -9.1356 C   0  0  1  0  0  0  0  0  0  0  0  0
   46.5798  -37.4003  -10.2880 C   0  0  1  0  0  0  0  0  0  0  0  0
   47.1880  -37.4575  -11.6379 C   0  0  0  0  0  0  0  0  0  0  0  0
   45.5849  -38.5460  -10.1675 C   0  0  0  0  0  0  0  0  0  0  0  0
   45.9178  -36.0621  -10.0943 C   0  0  0  0  0  0  0  0  0  0  0  0
   48.5557  -38.6428   -9.4030 C   0  0  0  0  0  0  0  0  0  0  0  0
   48.0642  -39.8266   -9.2677 O   0  0  0  0  0  0  0  0  0  0  0  0
   49.8943  -38.5080   -9.7673 N   0  0  0  0  0  0  0  0  0  0  0  0
   50.4565  -37.6720  -10.8027 C   0  0  2  0  0  0  0  0  0  0  0  0
   50.4898  -38.3837  -12.1184 C   0  0  0  0  0  0  0  0  0  0  0  0
   51.5896  -38.8879  -12.4590 O   0  0  0  0  0  0  0  0  0  0  0  0
   51.9101  -37.3507  -10.4605 C   0  0  0  0  0  0  0  0  0  0  0  0
   52.2026  -35.9640  -10.9415 C   0  0  0  0  0  0  0  0  0  0  0  0
   53.3712  -35.8799  -11.8723 C   0  0  0  0  0  0  0  0  0  0  0  0
   54.6440  -35.6609  -11.0782 C   0  0  0  0  0  0  0  0  0  0  0  0
   55.4364  -34.5890  -11.6554 N   0  0  0  0  0  0  0  0  0  0  0  0
   49.3654  -38.5109  -12.9740 N   0  0  0  0  0  0  0  0  0  0  0  0
   48.7106  -37.4158  -13.6378 C   0  0  0  0  0  0  0  0  0  0  0  0
   47.3865  -37.0714  -13.1037 C   0  0  0  0  0  0  0  0  0  0  0  0
   46.2568  -37.4999  -13.7891 C   0  0  0  0  0  0  0  0  0  0  0  0
   44.9862  -37.2044  -13.3430 C   0  0  0  0  0  0  0  0  0  0  0  0
   44.7827  -36.4589  -12.1785 C   0  0  0  0  0  0  0  0  0  0  0  0
   43.4248  -36.1583  -11.7270 C   0  0  0  0  0  0  0  0  0  0  0  0
   43.1046  -35.1056  -11.0710 N   0  0  0  0  0  0  0  0  0  0  0  0
   42.3573  -37.0809  -12.0178 N   0  0  0  0  0  0  0  0  0  0  0  0
   45.9020  -36.0368  -11.5032 C   0  0  0  0  0  0  0  0  0  0  0  0
   47.1647  -36.3361  -11.9557 C   0  0  0  0  0  0  0  0  0  0  0  0
   59.8416  -34.3087   -4.5474 C   0  0  0  0  0  0  0  0  0  0  0  0
   59.0151  -34.6879   -5.7188 C   0  0  0  0  0  0  0  0  0  0  0  0
   59.8074  -35.6302   -6.6069 C   0  0  0  0  0  0  0  0  0  0  0  0
   59.6023  -36.7771   -8.6228 C   0  0  0  0  0  0  0  0  0  0  0  0
   58.9740  -36.8585   -9.9941 C   0  0  0  0  0  0  0  0  0  0  0  0
   58.8019  -35.5507  -11.9726 C   0  0  0  0  0  0  0  0  0  0  0  0
   57.4401  -35.9564  -12.4983 C   0  0  0  0  0  0  0  0  0  0  0  0
   56.5181  -34.7896  -12.5341 C   0  0  0  0  0  0  0  0  0  0  0  0
   59.8063  -34.6725  -10.0220 C   0  0  0  0  0  0  0  0  0  0  0  0
   59.5229  -34.3771   -8.5709 C   0  0  0  0  0  0  0  0  0  0  0  0
   59.1587  -35.6154   -7.9004 N   0  0  2  0  0  4  0  0  0  0  0  0
   58.7490  -35.5285  -10.5199 N   0  0  2  0  0  4  0  0  0  0  0  0
   61.0879  -34.2459   -4.7348 O   0  0  0  0  0  0  0  0  0  0  0  0
   56.7420  -33.9196  -13.4355 O   0  0  0  0  0  0  0  0  0  0  0  0
   54.1497  -35.6093   -1.3501 H   0  0  0  0  0  0  0  0  0  0  0  0
   47.2964  -36.2318   -4.8347 H   0  0  0  0  0  0  0  0  0  0  0  0
   42.1022  -34.8087  -10.9347 H   0  0  0  0  0  0  0  0  0  0  0  0
  2  1  1  1
  2  3  1  0
  5  2  1  0
  3  4  2  0
  3 10  1  0
  6  5  1  0
  7  6  1  0
  8  7  1  0
  9  8  1  0
 60  9  1  0
 10 11  1  0
 11 12  1  0
 11 14  1  1
 12 13  2  0
 21 12  1  0
 14 15  1  0
 15 16  1  0
 16 17  1  0
 17 18  1  0
 18 19  2  0
 18 20  1  0
 22 21  1  0
 23 22  1  0
 22 25  1  1
 23 24  2  0
 32 23  1  0
 25 26  1  0
 26 27  1  0
 27 28  1  0
 28 29  1  0
 29 30  1  0
 29 31  2  0
 33 32  1  6
 33 34  1  0
 38 33  1  0
 34 35  1  6
 34 36  1  0
 34 37  1  0
 38 39  2  0
 40 38  1  0
 41 40  1  0
 41 42  1  6
 44 41  1  0
 42 43  2  0
 42 49  1  0
 45 44  1  0
 46 45  1  0
 47 46  1  0
 48 47  1  0
 67 48  1  0
 49 50  1  0
 50 51  1  0
 51 52  2  0
 51 59  1  0
 52 53  1  0
 53 54  2  0
 54 55  1  0
 58 54  1  0
 55 56  2  0
 55 57  1  0
 59 58  2  0
 61 60  1  0
 60 72  2  0
 62 61  1  0
 70 62  1  1
 64 63  1  0
 63 70  1  0
 71 64  1  1
 65 66  1  0
 71 65  1  0
 66 67  1  0
 67 73  2  0
 68 69  1  0
 68 71  1  0
 69 70  1  0
 19 74  1  0
 31 75  1  0
 56 76  1  0
M  CHG  3   1   1  70   1  71   1
M  END
$$$$
