
     RDKit          3D

 76 78  0  0  0  0  0  0  0  0999 V2000
   52.9451  -33.6778   -2.4824 N   0  0  0  0  0  4  0  0  0  0  0  0
   53.3744  -34.9241   -3.0246 C   0  0  2  0  0  0  0  0  0  0  0  0
   52.3964  -36.0375   -2.9078 C   0  0  0  0  0  0  0  0  0  0  0  0
   52.9405  -37.1743   -3.2238 O   0  0  0  0  0  0  0  0  0  0  0  0
   54.6384  -35.2969   -2.2008 C   0  0  0  0  0  0  0  0  0  0  0  0
   55.8100  -34.5015   -2.7334 C   0  0  0  0  0  0  0  0  0  0  0  0
   57.1296  -35.0863   -2.2557 C   0  0  0  0  0  0  0  0  0  0  0  0
   57.6793  -36.0749   -3.2605 C   0  0  0  0  0  0  0  0  0  0  0  0
   58.8452  -35.5045   -3.9175 N   0  0  0  0  0  0  0  0  0  0  0  0
   51.0661  -36.0197   -2.5259 N   0  0  0  0  0  0  0  0  0  0  0  0
   49.8764  -35.5417   -3.2100 C   0  0  2  0  0  0  0  0  0  0  0  0
   50.0571  -35.2942   -4.6581 C   0  0  0  0  0  0  0  0  0  0  0  0
   51.2346  -34.7937   -4.8783 O   0  0  0  0  0  0  0  0  0  0  0  0
   49.3653  -34.3996   -2.4432 C   0  0  0  0  0  0  0  0  0  0  0  0
   50.2555  -33.2056   -2.4891 C   0  0  0  0  0  0  0  0  0  0  0  0
   51.4642  -33.2496   -3.3231 C   0  0  0  0  0  0  0  0  0  0  0  0
   51.6820  -34.2770   -4.2605 N   0  0  0  0  0  0  0  0  0  0  0  0
   52.8722  -34.4360   -5.0173 C   0  0  0  0  0  0  0  0  0  0  0  0
   53.2939  -35.6068   -5.2621 N   0  0  0  0  0  0  0  0  0  0  0  0
   53.5463  -33.2712   -5.4694 N   0  0  0  0  0  0  0  0  0  0  0  0
   49.2075  -35.5047   -5.7325 N   0  0  0  0  0  0  0  0  0  0  0  0
   48.5377  -36.6736   -6.2331 C   0  0  2  0  0  0  0  0  0  0  0  0
   48.2991  -36.4730   -7.7152 C   0  0  0  0  0  0  0  0  0  0  0  0
   49.3709  -36.0951   -8.3328 O   0  0  0  0  0  0  0  0  0  0  0  0
   47.3365  -37.1513   -5.5266 C   0  0  0  0  0  0  0  0  0  0  0  0
   47.1169  -36.6015   -4.1789 C   0  0  0  0  0  0  0  0  0  0  0  0
   48.0073  -35.5282   -3.6782 C   0  0  0  0  0  0  0  0  0  0  0  0
   47.4414  -35.0366   -2.4248 N   0  0  0  0  0  0  0  0  0  0  0  0
   47.7502  -35.6359   -1.1789 C   0  0  0  0  0  0  0  0  0  0  0  0
   48.5108  -34.9525   -0.2000 N   0  0  0  0  0  0  0  0  0  0  0  0
   47.3235  -36.8278   -0.9587 N   0  0  0  0  0  0  0  0  0  0  0  0
   47.1093  -36.6439   -8.4188 N   0  0  0  0  0  0  0  0  0  0  0  0
   46.3703  -37.8363   -8.7280 C   0  0  1  0  0  0  0  0  0  0  0  0
   45.3313  -37.6208   -9.8291 C   0  0  1  0  0  0  0  0  0  0  0  0
   45.8252  -36.8651  -11.0040 C   0  0  0  0  0  0  0  0  0  0  0  0
   44.9157  -39.0078  -10.2982 C   0  0  0  0  0  0  0  0  0  0  0  0
   44.1835  -36.8754   -9.2017 C   0  0  0  0  0  0  0  0  0  0  0  0
   47.1805  -39.0529   -8.9569 C   0  0  0  0  0  0  0  0  0  0  0  0
   46.5450  -40.1409   -8.6857 O   0  0  0  0  0  0  0  0  0  0  0  0
   48.4952  -39.1376   -9.4123 N   0  0  0  0  0  0  0  0  0  0  0  0
   49.0884  -38.4755  -10.5510 C   0  0  2  0  0  0  0  0  0  0  0  0
   48.9301  -39.2891  -11.7967 C   0  0  0  0  0  0  0  0  0  0  0  0
   49.5987  -40.3512  -11.8653 O   0  0  0  0  0  0  0  0  0  0  0  0
   50.5930  -38.3351  -10.3278 C   0  0  0  0  0  0  0  0  0  0  0  0
   51.0342  -37.0470  -10.9489 C   0  0  0  0  0  0  0  0  0  0  0  0
   52.1330  -37.2036  -11.9525 C   0  0  0  0  0  0  0  0  0  0  0  0
   53.4778  -37.1021  -11.2599 C   0  0  0  0  0  0  0  0  0  0  0  0
   54.3636  -36.2026  -11.9785 N   0  0  0  0  0  0  0  0  0  0  0  0
   48.0815  -38.9242  -12.8734 N   0  0  0  0  0  0  0  0  0  0  0  0
   47.2182  -37.7740  -12.8852 C   0  0  0  0  0  0  0  0  0  0  0  0
   47.9025  -36.4889  -13.0788 C   0  0  0  0  0  0  0  0  0  0  0  0
   47.1860  -35.4226  -13.6068 C   0  0  0  0  0  0  0  0  0  0  0  0
   47.7722  -34.1927  -13.8182 C   0  0  0  0  0  0  0  0  0  0  0  0
   49.1163  -33.9684  -13.5084 C   0  0  0  0  0  0  0  0  0  0  0  0
   49.7146  -32.6549  -13.7428 C   0  0  0  0  0  0  0  0  0  0  0  0
   50.9763  -32.4444  -13.8112 N   0  0  0  0  0  0  0  0  0  0  0  0
   48.8636  -31.5046  -13.9093 N   0  0  0  0  0  0  0  0  0  0  0  0
   49.8221  -35.0251  -12.9863 C   0  0  0  0  0  0  0  0  0  0  0  0
   49.2291  -36.2475  -12.7793 C   0  0  0  0  0  0  0  0  0  0  0  0
   59.2696  -35.9695   -5.2045 C   0  0  0  0  0  0  0  0  0  0  0  0
   58.3168  -36.3224   -6.2847 C   0  0  0  0  0  0  0  0  0  0  0  0
   58.9084  -37.4356   -7.1306 C   0  0  0  0  0  0  0  0  0  0  0  0
   58.4050  -38.7017   -9.0186 C   0  0  0  0  0  0  0  0  0  0  0  0
   57.6738  -38.8047  -10.3364 C   0  0  0  0  0  0  0  0  0  0  0  0
   57.5368  -37.6504  -12.4107 C   0  0  0  0  0  0  0  0  0  0  0  0
   56.0982  -37.9019  -12.8142 C   0  0  0  0  0  0  0  0  0  0  0  0
   55.3419  -36.6239  -12.8993 C   0  0  0  0  0  0  0  0  0  0  0  0
   58.7890  -36.7670  -10.6118 C   0  0  0  0  0  0  0  0  0  0  0  0
   58.6539  -36.3182   -9.1788 C   0  0  0  0  0  0  0  0  0  0  0  0
   58.1756  -37.4345   -8.3784 N   0  0  2  0  0  4  0  0  0  0  0  0
   57.5927  -37.5034  -10.9655 N   0  0  2  0  0  4  0  0  0  0  0  0
   60.4960  -36.0979   -5.4720 O   0  0  0  0  0  0  0  0  0  0  0  0
   55.6151  -35.8698  -13.8875 O   0  0  0  0  0  0  0  0  0  0  0  0
   52.6700  -36.4287   -5.4858 H   0  0  0  0  0  0  0  0  0  0  0  0
   47.4030  -37.2940   -0.0303 H   0  0  0  0  0  0  0  0  0  0  0  0
   51.6840  -33.2196  -13.7123 H   0  0  0  0  0  0  0  0  0  0  0  0
  2  1  1  1
  2  3  1  0
  5  2  1  0
  3  4  2  0
  3 10  1  0
  6  5  1  0
  7  6  1  0
  8  7  1  0
  9  8  1  0
 60  9  1  0
 10 11  1  0
 11 12  1  0
 11 14  1  1
 12 13  2  0
 21 12  1  0
 14 15  1  0
 15 16  1  0
 16 17  1  0
 17 18  1  0
 18 19  2  0
 18 20  1  0
 22 21  1  0
 23 22  1  0
 22 25  1  1
 23 24  2  0
 32 23  1  0
 25 26  1  0
 26 27  1  0
 27 28  1  0
 28 29  1  0
 29 30  1  0
 29 31  2  0
 33 32  1  6
 33 34  1  0
 38 33  1  0
 34 35  1  6
 34 36  1  0
 34 37  1  0
 38 39  2  0
 40 38  1  0
 41 40  1  0
 41 42  1  6
 44 41  1  0
 42 43  2  0
 42 49  1  0
 45 44  1  0
 46 45  1  0
 47 46  1  0
 48 47  1  0
 67 48  1  0
 49 50  1  0
 50 51  1  0
 51 52  2  0
 51 59  1  0
 52 53  1  0
 53 54  2  0
 54 55  1  0
 58 54  1  0
 55 56  2  0
 55 57  1  0
 59 58  2  0
 61 60  1  0
 60 72  2  0
 62 61  1  0
 70 62  1  1
 64 63  1  0
 63 70  1  0
 71 64  1  1
 65 66  1  0
 71 65  1  0
 66 67  1  0
 67 73  2  0
 68 69  1  0
 68 71  1  0
 69 70  1  0
 19 74  1  0
 31 75  1  0
 56 76  1  0
M  CHG  3   1   1  70   1  71   1
M  END
$$$$
