
     RDKit          3D

 76 78  0  0  0  0  0  0  0  0999 V2000
   54.8354  -32.7118   -1.2913 N   0  0  0  0  0  4  0  0  0  0  0  0
   55.2389  -33.9133   -1.9432 C   0  0  2  0  0  0  0  0  0  0  0  0
   54.3581  -35.0880   -1.7107 C   0  0  0  0  0  0  0  0  0  0  0  0
   54.9058  -36.1796   -2.1541 O   0  0  0  0  0  0  0  0  0  0  0  0
   56.6407  -34.2302   -1.3516 C   0  0  0  0  0  0  0  0  0  0  0  0
   57.6613  -33.3491   -2.0378 C   0  0  0  0  0  0  0  0  0  0  0  0
   59.0726  -33.8642   -1.8045 C   0  0  0  0  0  0  0  0  0  0  0  0
   59.5037  -34.7882   -2.9223 C   0  0  0  0  0  0  0  0  0  0  0  0
   60.5109  -34.1284   -3.7388 N   0  0  0  0  0  0  0  0  0  0  0  0
   53.1104  -35.1635   -1.1162 N   0  0  0  0  0  0  0  0  0  0  0  0
   51.7989  -34.7410   -1.5783 C   0  0  2  0  0  0  0  0  0  0  0  0
   51.7235  -34.4421   -3.0260 C   0  0  0  0  0  0  0  0  0  0  0  0
   52.8183  -33.8636   -3.4163 O   0  0  0  0  0  0  0  0  0  0  0  0
   51.3579  -33.6548   -0.6955 C   0  0  0  0  0  0  0  0  0  0  0  0
   50.4274  -34.1017    0.3791 C   0  0  0  0  0  0  0  0  0  0  0  0
   49.5625  -35.2640    0.1349 C   0  0  0  0  0  0  0  0  0  0  0  0
   50.0819  -36.4960   -0.3056 N   0  0  0  0  0  0  0  0  0  0  0  0
   50.6634  -37.4734    0.5437 C   0  0  0  0  0  0  0  0  0  0  0  0
   51.8835  -37.7802    0.3835 N   0  0  0  0  0  0  0  0  0  0  0  0
   49.8497  -38.0719    1.5414 N   0  0  0  0  0  0  0  0  0  0  0  0
   50.7213  -34.6745   -3.9544 N   0  0  0  0  0  0  0  0  0  0  0  0
   50.0451  -35.8680   -4.3830 C   0  0  2  0  0  0  0  0  0  0  0  0
   49.5539  -35.6410   -5.7975 C   0  0  0  0  0  0  0  0  0  0  0  0
   50.4858  -35.1802   -6.5670 O   0  0  0  0  0  0  0  0  0  0  0  0
   49.0061  -36.4390   -3.5084 C   0  0  0  0  0  0  0  0  0  0  0  0
   48.5336  -35.5741   -2.4151 C   0  0  0  0  0  0  0  0  0  0  0  0
   48.9289  -34.1462   -2.3958 C   0  0  0  0  0  0  0  0  0  0  0  0
   49.2950  -33.7729   -3.7594 N   0  0  0  0  0  0  0  0  0  0  0  0
   49.9671  -32.5596   -4.0479 C   0  0  0  0  0  0  0  0  0  0  0  0
   50.9154  -32.4727   -5.0952 N   0  0  0  0  0  0  0  0  0  0  0  0
   49.6964  -31.5317   -3.3258 N   0  0  0  0  0  0  0  0  0  0  0  0
   48.2757  -35.8654   -6.3034 N   0  0  0  0  0  0  0  0  0  0  0  0
   47.5644  -37.0921   -6.5328 C   0  0  1  0  0  0  0  0  0  0  0  0
   46.3472  -36.9104   -7.4405 C   0  0  1  0  0  0  0  0  0  0  0  0
   46.6702  -36.7034   -8.8717 C   0  0  0  0  0  0  0  0  0  0  0  0
   45.5320  -38.1900   -7.3189 C   0  0  0  0  0  0  0  0  0  0  0  0
   45.5934  -35.7155   -6.9203 C   0  0  0  0  0  0  0  0  0  0  0  0
   48.3930  -38.2492   -6.9369 C   0  0  0  0  0  0  0  0  0  0  0  0
   47.8734  -39.3817   -6.6071 O   0  0  0  0  0  0  0  0  0  0  0  0
   49.6170  -38.2395   -7.6037 N   0  0  0  0  0  0  0  0  0  0  0  0
   49.9756  -37.5101   -8.7981 C   0  0  2  0  0  0  0  0  0  0  0  0
   49.6597  -38.2966  -10.0312 C   0  0  0  0  0  0  0  0  0  0  0  0
   50.4286  -39.2533  -10.3021 O   0  0  0  0  0  0  0  0  0  0  0  0
   51.4860  -37.2832   -8.8184 C   0  0  0  0  0  0  0  0  0  0  0  0
   51.7450  -35.9531   -9.4538 C   0  0  0  0  0  0  0  0  0  0  0  0
   52.6699  -36.0131  -10.6286 C   0  0  0  0  0  0  0  0  0  0  0  0
   54.1028  -35.8480  -10.1616 C   0  0  0  0  0  0  0  0  0  0  0  0
   54.8054  -34.8755  -10.9804 N   0  0  0  0  0  0  0  0  0  0  0  0
   48.5608  -38.0174  -10.8837 N   0  0  0  0  0  0  0  0  0  0  0  0
   47.8949  -36.7459  -10.9754 C   0  0  0  0  0  0  0  0  0  0  0  0
   48.2144  -35.9655  -12.1780 C   0  0  0  0  0  0  0  0  0  0  0  0
   48.6891  -36.6314  -13.3007 C   0  0  0  0  0  0  0  0  0  0  0  0
   49.0125  -35.9556  -14.4582 C   0  0  0  0  0  0  0  0  0  0  0  0
   48.8751  -34.5678  -14.5489 C   0  0  0  0  0  0  0  0  0  0  0  0
   49.2257  -33.8746  -15.7876 C   0  0  0  0  0  0  0  0  0  0  0  0
   48.8755  -32.6729  -16.0598 N   0  0  0  0  0  0  0  0  0  0  0  0
   50.0100  -34.5548  -16.7865 N   0  0  0  0  0  0  0  0  0  0  0  0
   48.4054  -33.9124  -13.4367 C   0  0  0  0  0  0  0  0  0  0  0  0
   48.0857  -34.5946  -12.2872 C   0  0  0  0  0  0  0  0  0  0  0  0
   60.7423  -34.5299   -5.0946 C   0  0  0  0  0  0  0  0  0  0  0  0
   59.6456  -34.9105   -6.0173 C   0  0  0  0  0  0  0  0  0  0  0  0
   60.1511  -35.9606   -6.9900 C   0  0  0  0  0  0  0  0  0  0  0  0
   59.4149  -37.2019   -8.8172 C   0  0  0  0  0  0  0  0  0  0  0  0
   58.4831  -37.3128  -10.0008 C   0  0  0  0  0  0  0  0  0  0  0  0
   57.9402  -36.1112  -11.9797 C   0  0  0  0  0  0  0  0  0  0  0  0
   56.4712  -36.4399  -12.1521 C   0  0  0  0  0  0  0  0  0  0  0  0
   55.6403  -35.2093  -12.0640 C   0  0  0  0  0  0  0  0  0  0  0  0
   59.4206  -35.2030  -10.3771 C   0  0  0  0  0  0  0  0  0  0  0  0
   59.4990  -34.8039   -8.9253 C   0  0  0  0  0  0  0  0  0  0  0  0
   59.2234  -35.9698   -8.1005 N   0  0  2  0  0  4  0  0  0  0  0  0
   58.2258  -36.0018  -10.5584 N   0  0  2  0  0  4  0  0  0  0  0  0
   61.9130  -34.5745   -5.5633 O   0  0  0  0  0  0  0  0  0  0  0  0
   55.7034  -34.4122  -13.0541 O   0  0  0  0  0  0  0  0  0  0  0  0
   52.2398  -38.7692    0.2850 H   0  0  0  0  0  0  0  0  0  0  0  0
   49.5573  -30.5802   -3.7269 H   0  0  0  0  0  0  0  0  0  0  0  0
   48.3387  -32.0735  -15.3785 H   0  0  0  0  0  0  0  0  0  0  0  0
  2  1  1  1
  2  3  1  0
  5  2  1  0
  3  4  2  0
  3 10  1  0
  6  5  1  0
  7  6  1  0
  8  7  1  0
  9  8  1  0
 60  9  1  0
 10 11  1  0
 11 12  1  0
 11 14  1  1
 12 13  2  0
 21 12  1  0
 14 15  1  0
 15 16  1  0
 16 17  1  0
 17 18  1  0
 18 19  2  0
 18 20  1  0
 22 21  1  0
 23 22  1  0
 22 25  1  1
 23 24  2  0
 32 23  1  0
 25 26  1  0
 26 27  1  0
 27 28  1  0
 28 29  1  0
 29 30  1  0
 29 31  2  0
 33 32  1  6
 33 34  1  0
 38 33  1  0
 34 35  1  6
 34 36  1  0
 34 37  1  0
 38 39  2  0
 40 38  1  0
 41 40  1  0
 41 42  1  6
 44 41  1  0
 42 43  2  0
 42 49  1  0
 45 44  1  0
 46 45  1  0
 47 46  1  0
 48 47  1  0
 67 48  1  0
 49 50  1  0
 50 51  1  0
 51 52  2  0
 51 59  1  0
 52 53  1  0
 53 54  2  0
 54 55  1  0
 58 54  1  0
 55 56  2  0
 55 57  1  0
 59 58  2  0
 61 60  1  0
 60 72  2  0
 62 61  1  0
 70 62  1  1
 64 63  1  0
 63 70  1  0
 71 64  1  6
 65 66  1  0
 71 65  1  0
 66 67  1  0
 67 73  2  0
 68 69  1  0
 68 71  1  0
 69 70  1  0
 19 74  1  0
 31 75  1  0
 56 76  1  0
M  CHG  3   1   1  70   1  71   1
M  END
$$$$
