
     RDKit          3D

 76 78  0  0  0  0  0  0  0  0999 V2000
   55.2737  -31.6150   -3.3895 N   0  0  0  0  0  4  0  0  0  0  0  0
   55.1136  -33.0290   -3.3089 C   0  0  2  0  0  0  0  0  0  0  0  0
   53.7442  -33.4940   -2.9653 C   0  0  0  0  0  0  0  0  0  0  0  0
   53.7337  -34.7661   -2.7008 O   0  0  0  0  0  0  0  0  0  0  0  0
   56.0778  -33.4698   -2.1725 C   0  0  0  0  0  0  0  0  0  0  0  0
   57.4839  -33.5197   -2.7286 C   0  0  0  0  0  0  0  0  0  0  0  0
   58.4070  -34.3046   -1.8104 C   0  0  0  0  0  0  0  0  0  0  0  0
   58.4719  -35.7591   -2.2222 C   0  0  0  0  0  0  0  0  0  0  0  0
   59.7747  -36.0429   -2.8042 N   0  0  0  0  0  0  0  0  0  0  0  0
   52.5552  -32.7892   -2.8918 N   0  0  0  0  0  0  0  0  0  0  0  0
   51.7030  -32.2317   -3.9286 C   0  0  2  0  0  0  0  0  0  0  0  0
   51.9850  -32.7333   -5.2923 C   0  0  0  0  0  0  0  0  0  0  0  0
   53.2642  -32.8880   -5.4516 O   0  0  0  0  0  0  0  0  0  0  0  0
   51.7421  -30.7719   -3.7828 C   0  0  0  0  0  0  0  0  0  0  0  0
   52.2851  -30.3190   -2.4712 C   0  0  0  0  0  0  0  0  0  0  0  0
   52.1121  -31.1796   -1.2930 C   0  0  0  0  0  0  0  0  0  0  0  0
   53.2112  -31.7473   -0.6210 N   0  0  0  0  0  0  0  0  0  0  0  0
   53.1262  -32.4483    0.6102 C   0  0  0  0  0  0  0  0  0  0  0  0
   52.0432  -32.4059    1.2689 N   0  0  0  0  0  0  0  0  0  0  0  0
   54.2642  -33.1701    1.0569 N   0  0  0  0  0  0  0  0  0  0  0  0
   51.1375  -33.0371   -6.3459 N   0  0  0  0  0  0  0  0  0  0  0  0
   50.0248  -33.9373   -6.4755 C   0  0  2  0  0  0  0  0  0  0  0  0
   49.9099  -34.3265   -7.9346 C   0  0  0  0  0  0  0  0  0  0  0  0
   51.0430  -34.7120   -8.4250 O   0  0  0  0  0  0  0  0  0  0  0  0
   48.7308  -33.5430   -5.8919 C   0  0  0  0  0  0  0  0  0  0  0  0
   48.7910  -32.6083   -4.7564 C   0  0  0  0  0  0  0  0  0  0  0  0
   49.9055  -32.7151   -3.7858 C   0  0  0  0  0  0  0  0  0  0  0  0
   49.6310  -33.8632   -2.9258 N   0  0  0  0  0  0  0  0  0  0  0  0
   50.4036  -34.1332   -1.7695 C   0  0  0  0  0  0  0  0  0  0  0  0
   51.4713  -35.0621   -1.7961 N   0  0  0  0  0  0  0  0  0  0  0  0
   50.1057  -33.5125   -0.6845 N   0  0  0  0  0  0  0  0  0  0  0  0
   48.7718  -34.3027   -8.7372 N   0  0  0  0  0  0  0  0  0  0  0  0
   47.5852  -35.1114   -8.6990 C   0  0  1  0  0  0  0  0  0  0  0  0
   46.7557  -35.0073   -9.9794 C   0  0  1  0  0  0  0  0  0  0  0  0
   47.1653  -35.9379  -11.0572 C   0  0  0  0  0  0  0  0  0  0  0  0
   45.3234  -35.3391   -9.5857 C   0  0  0  0  0  0  0  0  0  0  0  0
   46.8874  -33.5889  -10.4668 C   0  0  0  0  0  0  0  0  0  0  0  0
   47.7778  -36.5149   -8.2724 C   0  0  0  0  0  0  0  0  0  0  0  0
   46.7256  -37.0269   -7.7319 O   0  0  0  0  0  0  0  0  0  0  0  0
   48.9237  -37.2997   -8.3892 N   0  0  0  0  0  0  0  0  0  0  0  0
   49.7564  -37.4936   -9.5536 C   0  0  2  0  0  0  0  0  0  0  0  0
   49.2648  -38.6324  -10.3905 C   0  0  0  0  0  0  0  0  0  0  0  0
   49.7477  -38.7321  -11.5466 O   0  0  0  0  0  0  0  0  0  0  0  0
   51.1672  -37.8755   -9.1093 C   0  0  0  0  0  0  0  0  0  0  0  0
   52.1355  -37.2772  -10.0809 C   0  0  0  0  0  0  0  0  0  0  0  0
   53.0601  -38.2741  -10.7060 C   0  0  0  0  0  0  0  0  0  0  0  0
   54.3068  -38.4200   -9.8557 C   0  0  0  0  0  0  0  0  0  0  0  0
   55.5037  -38.3540  -10.6762 N   0  0  0  0  0  0  0  0  0  0  0  0
   48.3044  -39.5781   -9.9480 N   0  0  0  0  0  0  0  0  0  0  0  0
   46.9760  -39.2527   -9.5030 C   0  0  0  0  0  0  0  0  0  0  0  0
   45.9868  -40.3251   -9.6725 C   0  0  0  0  0  0  0  0  0  0  0  0
   46.2516  -41.5723   -9.1217 C   0  0  0  0  0  0  0  0  0  0  0  0
   45.3665  -42.6215   -9.2508 C   0  0  0  0  0  0  0  0  0  0  0  0
   44.1622  -42.4717   -9.9438 C   0  0  0  0  0  0  0  0  0  0  0  0
   43.2407  -43.6003  -10.0673 C   0  0  0  0  0  0  0  0  0  0  0  0
   43.4604  -44.7617   -9.5737 N   0  0  0  0  0  0  0  0  0  0  0  0
   42.0017  -43.4326  -10.7829 N   0  0  0  0  0  0  0  0  0  0  0  0
   43.9034  -41.2368  -10.4874 C   0  0  0  0  0  0  0  0  0  0  0  0
   44.7920  -40.1970  -10.3535 C   0  0  0  0  0  0  0  0  0  0  0  0
   59.9600  -37.1472   -3.6981 C   0  0  0  0  0  0  0  0  0  0  0  0
   58.9572  -37.5280   -4.7221 C   0  0  0  0  0  0  0  0  0  0  0  0
   59.0037  -39.0304   -4.9343 C   0  0  0  0  0  0  0  0  0  0  0  0
   58.0076  -40.6793   -6.2420 C   0  0  0  0  0  0  0  0  0  0  0  0
   57.3156  -41.0487   -7.5329 C   0  0  0  0  0  0  0  0  0  0  0  0
   57.7167  -40.9641   -9.8752 C   0  0  0  0  0  0  0  0  0  0  0  0
   56.3176  -40.7767  -10.4255 C   0  0  0  0  0  0  0  0  0  0  0  0
   56.2028  -39.4815  -11.1479 C   0  0  0  0  0  0  0  0  0  0  0  0
   59.2169  -39.9588   -8.3508 C   0  0  0  0  0  0  0  0  0  0  0  0
   59.2829  -38.9181   -7.2619 C   0  0  0  0  0  0  0  0  0  0  0  0
   58.3557  -39.2845   -6.2030 N   0  0  2  0  0  4  0  0  0  0  0  0
   57.8211  -40.2376   -8.6202 N   0  0  2  0  0  4  0  0  0  0  0  0
   61.0062  -37.8507   -3.6462 O   0  0  0  0  0  0  0  0  0  0  0  0
   56.7877  -39.4093  -12.2759 O   0  0  0  0  0  0  0  0  0  0  0  0
   51.2075  -33.0228    1.0793 H   0  0  0  0  0  0  0  0  0  0  0  0
   50.8191  -33.2377    0.0234 H   0  0  0  0  0  0  0  0  0  0  0  0
   43.5669  -44.9236   -8.5373 H   0  0  0  0  0  0  0  0  0  0  0  0
  2  1  1  1
  2  3  1  0
  5  2  1  0
  3  4  2  0
  3 10  1  0
  6  5  1  0
  7  6  1  0
  8  7  1  0
  9  8  1  0
 60  9  1  0
 10 11  1  0
 11 12  1  0
 11 14  1  6
 12 13  2  0
 21 12  1  0
 14 15  1  0
 15 16  1  0
 16 17  1  0
 17 18  1  0
 18 19  2  0
 18 20  1  0
 22 21  1  0
 23 22  1  0
 22 25  1  6
 23 24  2  0
 32 23  1  0
 25 26  1  0
 26 27  1  0
 27 28  1  0
 28 29  1  0
 29 30  1  0
 29 31  2  0
 33 32  1  6
 33 34  1  0
 38 33  1  0
 34 35  1  6
 34 36  1  0
 34 37  1  0
 38 39  2  0
 40 38  1  0
 41 40  1  0
 41 42  1  6
 44 41  1  0
 42 43  2  0
 42 49  1  0
 45 44  1  0
 46 45  1  0
 47 46  1  0
 48 47  1  0
 67 48  1  0
 49 50  1  0
 50 51  1  0
 51 52  2  0
 51 59  1  0
 52 53  1  0
 53 54  2  0
 54 55  1  0
 58 54  1  0
 55 56  2  0
 55 57  1  0
 59 58  2  0
 61 60  1  0
 60 72  2  0
 62 61  1  0
 70 62  1  1
 64 63  1  0
 63 70  1  0
 71 64  1  1
 65 66  1  0
 71 65  1  0
 66 67  1  0
 67 73  2  0
 68 69  1  0
 68 71  1  0
 69 70  1  0
 19 74  1  0
 31 75  1  0
 56 76  1  0
M  CHG  3   1   1  70   1  71   1
M  END
$$$$
