
     RDKit          3D

 76 78  0  0  0  0  0  0  0  0999 V2000
   52.7338  -33.5046   -3.0303 N   0  0  0  0  0  4  0  0  0  0  0  0
   53.1979  -34.7467   -3.5531 C   0  0  2  0  0  0  0  0  0  0  0  0
   52.2955  -35.9064   -3.3290 C   0  0  0  0  0  0  0  0  0  0  0  0
   52.8824  -37.0237   -3.6381 O   0  0  0  0  0  0  0  0  0  0  0  0
   54.5324  -35.0151   -2.8030 C   0  0  0  0  0  0  0  0  0  0  0  0
   55.6190  -34.1791   -3.4428 C   0  0  0  0  0  0  0  0  0  0  0  0
   56.9984  -34.6702   -3.0336 C   0  0  0  0  0  0  0  0  0  0  0  0
   57.5375  -35.6677   -4.0354 C   0  0  0  0  0  0  0  0  0  0  0  0
   58.6233  -35.0616   -4.7905 N   0  0  0  0  0  0  0  0  0  0  0  0
   50.9941  -35.9461   -2.8592 N   0  0  0  0  0  0  0  0  0  0  0  0
   49.7367  -35.5629   -3.4790 C   0  0  2  0  0  0  0  0  0  0  0  0
   49.8081  -35.3658   -4.9442 C   0  0  0  0  0  0  0  0  0  0  0  0
   50.9380  -34.8107   -5.2619 O   0  0  0  0  0  0  0  0  0  0  0  0
   49.2117  -34.4200   -2.7228 C   0  0  0  0  0  0  0  0  0  0  0  0
   50.0061  -34.0972   -1.5042 C   0  0  0  0  0  0  0  0  0  0  0  0
   50.8908  -35.1241   -0.9375 C   0  0  0  0  0  0  0  0  0  0  0  0
   52.2583  -35.1886   -1.2655 N   0  0  0  0  0  0  0  0  0  0  0  0
   53.2219  -35.9466   -0.5502 C   0  0  0  0  0  0  0  0  0  0  0  0
   54.3362  -35.4125   -0.2646 N   0  0  0  0  0  0  0  0  0  0  0  0
   52.8974  -37.2793   -0.1842 N   0  0  0  0  0  0  0  0  0  0  0  0
   48.9038  -35.6668   -5.9502 N   0  0  0  0  0  0  0  0  0  0  0  0
   48.2713  -36.8904   -6.3604 C   0  0  2  0  0  0  0  0  0  0  0  0
   47.9253  -36.7645   -7.8294 C   0  0  0  0  0  0  0  0  0  0  0  0
   48.9310  -36.3541   -8.5316 O   0  0  0  0  0  0  0  0  0  0  0  0
   47.1482  -37.4040   -5.5570 C   0  0  0  0  0  0  0  0  0  0  0  0
   47.0224  -36.8567   -4.1964 C   0  0  0  0  0  0  0  0  0  0  0  0
   47.1454  -35.3950   -3.9870 C   0  0  0  0  0  0  0  0  0  0  0  0
   47.1372  -35.1550   -2.5465 N   0  0  0  0  0  0  0  0  0  0  0  0
   47.4870  -33.8975   -1.9957 C   0  0  0  0  0  0  0  0  0  0  0  0
   48.0301  -33.7881   -0.6932 N   0  0  0  0  0  0  0  0  0  0  0  0
   47.2928  -32.8484   -2.7119 N   0  0  0  0  0  0  0  0  0  0  0  0
   46.7040  -37.0296   -8.4444 N   0  0  0  0  0  0  0  0  0  0  0  0
   46.0165  -38.2725   -8.6581 C   0  0  1  0  0  0  0  0  0  0  0  0
   44.8972  -38.1601   -9.6939 C   0  0  1  0  0  0  0  0  0  0  0  0
   45.3554  -38.1868  -11.1028 C   0  0  0  0  0  0  0  0  0  0  0  0
   43.9878  -39.3596   -9.4685 C   0  0  0  0  0  0  0  0  0  0  0  0
   44.1861  -36.8607   -9.4241 C   0  0  0  0  0  0  0  0  0  0  0  0
   46.8788  -39.4511   -8.8953 C   0  0  0  0  0  0  0  0  0  0  0  0
   46.3260  -40.5603   -8.5413 O   0  0  0  0  0  0  0  0  0  0  0  0
   48.1636  -39.4820   -9.4348 N   0  0  0  0  0  0  0  0  0  0  0  0
   48.6422  -38.8359  -10.6349 C   0  0  2  0  0  0  0  0  0  0  0  0
   48.4501  -39.7076  -11.8358 C   0  0  0  0  0  0  0  0  0  0  0  0
   48.9727  -40.8499  -11.7926 O   0  0  0  0  0  0  0  0  0  0  0  0
   50.1476  -38.6038  -10.5191 C   0  0  0  0  0  0  0  0  0  0  0  0
   50.4723  -37.3201  -11.2164 C   0  0  0  0  0  0  0  0  0  0  0  0
   51.5105  -37.4573  -12.2852 C   0  0  0  0  0  0  0  0  0  0  0  0
   52.8895  -37.2535  -11.6892 C   0  0  0  0  0  0  0  0  0  0  0  0
   53.6733  -36.3370  -12.4990 N   0  0  0  0  0  0  0  0  0  0  0  0
   47.7239  -39.3121  -12.9884 N   0  0  0  0  0  0  0  0  0  0  0  0
   46.7220  -38.2805  -13.0138 C   0  0  0  0  0  0  0  0  0  0  0  0
   47.2402  -36.9194  -13.2038 C   0  0  0  0  0  0  0  0  0  0  0  0
   48.4620  -36.5835  -12.6349 C   0  0  0  0  0  0  0  0  0  0  0  0
   48.9997  -35.3214  -12.7717 C   0  0  0  0  0  0  0  0  0  0  0  0
   48.3345  -34.3250  -13.4913 C   0  0  0  0  0  0  0  0  0  0  0  0
   48.9258  -32.9940  -13.6211 C   0  0  0  0  0  0  0  0  0  0  0  0
   48.3682  -31.9187  -13.2043 N   0  0  0  0  0  0  0  0  0  0  0  0
   50.2118  -32.8449  -14.2531 N   0  0  0  0  0  0  0  0  0  0  0  0
   47.1264  -34.6606  -14.0527 C   0  0  0  0  0  0  0  0  0  0  0  0
   46.5983  -35.9214  -13.9108 C   0  0  0  0  0  0  0  0  0  0  0  0
   58.9889  -35.5553   -6.0848 C   0  0  0  0  0  0  0  0  0  0  0  0
   57.9896  -36.0043   -7.0843 C   0  0  0  0  0  0  0  0  0  0  0  0
   58.5880  -37.1171   -7.9258 C   0  0  0  0  0  0  0  0  0  0  0  0
   58.0363  -38.4858   -9.7268 C   0  0  0  0  0  0  0  0  0  0  0  0
   57.2280  -38.6832  -10.9874 C   0  0  0  0  0  0  0  0  0  0  0  0
   56.8897  -37.6246  -13.0897 C   0  0  0  0  0  0  0  0  0  0  0  0
   55.4448  -37.9713  -13.3855 C   0  0  0  0  0  0  0  0  0  0  0  0
   54.6121  -36.7414  -13.4673 C   0  0  0  0  0  0  0  0  0  0  0  0
   58.2036  -36.6003  -11.4137 C   0  0  0  0  0  0  0  0  0  0  0  0
   58.1365  -36.1008   -9.9926 C   0  0  0  0  0  0  0  0  0  0  0  0
   57.7766  -37.2078   -9.1205 N   0  0  2  0  0  4  0  0  0  0  0  0
   57.0312  -37.4153  -11.6580 N   0  0  2  0  0  4  0  0  0  0  0  0
   60.2007  -35.6269   -6.4293 O   0  0  0  0  0  0  0  0  0  0  0  0
   54.7764  -36.0149  -14.4992 O   0  0  0  0  0  0  0  0  0  0  0  0
   54.5367  -34.9016    0.6375 H   0  0  0  0  0  0  0  0  0  0  0  0
   46.3850  -32.6446   -3.1809 H   0  0  0  0  0  0  0  0  0  0  0  0
   47.7584  -31.8959  -12.3445 H   0  0  0  0  0  0  0  0  0  0  0  0
  2  1  1  1
  2  3  1  0
  5  2  1  0
  3  4  2  0
  3 10  1  0
  6  5  1  0
  7  6  1  0
  8  7  1  0
  9  8  1  0
 60  9  1  0
 10 11  1  0
 11 12  1  0
 11 14  1  1
 12 13  2  0
 21 12  1  0
 14 15  1  0
 15 16  1  0
 16 17  1  0
 17 18  1  0
 18 19  2  0
 18 20  1  0
 22 21  1  0
 23 22  1  0
 22 25  1  1
 23 24  2  0
 32 23  1  0
 25 26  1  0
 26 27  1  0
 27 28  1  0
 28 29  1  0
 29 30  1  0
 29 31  2  0
 33 32  1  6
 33 34  1  0
 38 33  1  0
 34 35  1  6
 34 36  1  0
 34 37  1  0
 38 39  2  0
 40 38  1  0
 41 40  1  0
 41 42  1  6
 44 41  1  0
 42 43  2  0
 42 49  1  0
 45 44  1  0
 46 45  1  0
 47 46  1  0
 48 47  1  0
 67 48  1  0
 49 50  1  0
 50 51  1  0
 51 52  2  0
 51 59  1  0
 52 53  1  0
 53 54  2  0
 54 55  1  0
 58 54  1  0
 55 56  2  0
 55 57  1  0
 59 58  2  0
 61 60  1  0
 60 72  2  0
 62 61  1  0
 70 62  1  1
 64 63  1  0
 63 70  1  0
 71 64  1  1
 65 66  1  0
 71 65  1  0
 66 67  1  0
 67 73  2  0
 68 69  1  0
 68 71  1  0
 69 70  1  0
 19 74  1  0
 31 75  1  0
 56 76  1  0
M  CHG  3   1   1  70   1  71   1
M  END
$$$$
