
     RDKit          3D

 23 25  0  0  0  0  0  0  0  0999 V2000
   58.4612  212.1351   46.6152 N   0  0  0  0  0  4  0  0  0  0  0  0
   59.8371  212.4241   46.7813 C   0  0  0  0  0  0  0  0  0  0  0  0
   60.1639  213.7984   47.2184 C   0  0  0  0  0  0  0  0  0  0  0  0
   60.8971  213.9078   48.4174 N   0  0  0  0  0  0  0  0  0  0  0  0
   62.2576  213.7696   48.7010 C   0  0  0  0  0  0  0  0  0  0  0  0
   63.0788  213.6471   47.7772 O   0  0  0  0  0  0  0  0  0  0  0  0
   62.7896  213.7615   50.1020 C   0  0  1  0  0  0  0  0  0  0  0  0
   63.7354  212.7736   50.1971 O   0  0  0  0  0  0  0  0  0  0  0  0
   63.4731  215.0751   50.4345 C   0  0  1  0  0  0  0  0  0  0  0  0
   63.6389  215.1686   51.7994 O   0  0  0  0  0  0  0  0  0  0  0  0
   64.8589  214.7638   49.8434 C   0  0  1  0  0  0  0  0  0  0  0  0
   65.8253  215.5976   50.3336 O   0  0  0  0  0  0  0  0  0  0  0  0
   64.9712  213.3406   50.3690 C   0  0  2  0  0  0  0  0  0  0  0  0
   66.0595  212.6188   49.7777 N   0  0  0  0  0  0  0  0  0  0  0  0
   66.0322  212.1165   48.5327 C   0  0  0  0  0  0  0  0  0  0  0  0
   67.1855  211.4904   48.2429 N   0  0  0  0  0  0  0  0  0  0  0  0
   67.9418  211.6046   49.3236 C   0  0  0  0  0  0  0  0  0  0  0  0
   67.2527  212.3044   50.2849 C   0  0  0  0  0  0  0  0  0  0  0  0
   67.8435  212.5257   51.4488 N   0  0  0  0  0  0  0  0  0  0  0  0
   69.1026  212.0811   51.7111 C   0  0  0  0  0  0  0  0  0  0  0  0
   69.7746  211.3974   50.7704 N   0  0  0  0  0  0  0  0  0  0  0  0
   69.2358  211.1328   49.5570 C   0  0  0  0  0  0  0  0  0  0  0  0
   69.9407  210.4115   48.5601 N   0  0  0  0  0  0  0  0  0  0  0  0
  1  2  1  0
  2  3  1  0
  3  4  1  0
  4  5  1  0
  5  6  2  0
  7  5  1  6
  7  8  1  0
  7  9  1  0
  8 13  1  0
  9 10  1  1
  9 11  1  0
 11 12  1  1
 11 13  1  0
 13 14  1  6
 14 15  1  0
 14 18  1  0
 15 16  2  0
 16 17  1  0
 17 18  2  0
 17 22  1  0
 18 19  1  0
 19 20  2  0
 20 21  1  0
 21 22  2  0
 22 23  1  0
M  CHG  1   1   1
M  END
$$$$
