
     RDKit          3D

 23 25  0  0  0  0  0  0  0  0999 V2000
   62.6145  219.0975   46.2967 N   0  0  0  0  0  4  0  0  0  0  0  0
   62.9009  218.3563   47.4684 C   0  0  0  0  0  0  0  0  0  0  0  0
   63.3194  216.9530   47.2631 C   0  0  0  0  0  0  0  0  0  0  0  0
   63.3049  216.1299   48.4074 N   0  0  0  0  0  0  0  0  0  0  0  0
   64.3272  215.5157   49.1343 C   0  0  0  0  0  0  0  0  0  0  0  0
   65.5149  215.7072   48.8256 O   0  0  0  0  0  0  0  0  0  0  0  0
   64.0544  214.6130   50.2992 C   0  0  1  0  0  0  0  0  0  0  0  0
   64.8018  213.4742   50.1448 O   0  0  0  0  0  0  0  0  0  0  0  0
   64.4812  215.2604   51.6037 C   0  0  1  0  0  0  0  0  0  0  0  0
   63.9154  214.5758   52.6575 O   0  0  0  0  0  0  0  0  0  0  0  0
   65.9688  214.8693   51.5730 C   0  0  1  0  0  0  0  0  0  0  0  0
   66.5499  214.9633   52.8071 O   0  0  0  0  0  0  0  0  0  0  0  0
   65.7753  213.4336   51.1086 C   0  0  2  0  0  0  0  0  0  0  0  0
   67.0039  212.8139   50.7069 N   0  0  0  0  0  0  0  0  0  0  0  0
   68.2096  213.1762   51.1742 C   0  0  0  0  0  0  0  0  0  0  0  0
   69.1812  212.4270   50.6259 N   0  0  0  0  0  0  0  0  0  0  0  0
   68.5714  211.5859   49.8053 C   0  0  0  0  0  0  0  0  0  0  0  0
   67.2172  211.8166   49.8468 C   0  0  0  0  0  0  0  0  0  0  0  0
   66.4271  211.0715   49.0898 N   0  0  0  0  0  0  0  0  0  0  0  0
   66.9201  210.0943   48.2812 C   0  0  0  0  0  0  0  0  0  0  0  0
   68.2437  209.8701   48.2418 N   0  0  0  0  0  0  0  0  0  0  0  0
   69.1134  210.5914   48.9874 C   0  0  0  0  0  0  0  0  0  0  0  0
   70.5119  210.3591   48.9499 N   0  0  0  0  0  0  0  0  0  0  0  0
  1  2  1  0
  2  3  1  0
  3  4  1  0
  4  5  1  0
  5  6  2  0
  7  5  1  6
  7  8  1  0
  7  9  1  0
  8 13  1  0
  9 10  1  1
  9 11  1  0
 11 12  1  1
 11 13  1  0
 13 14  1  6
 14 15  1  0
 14 18  1  0
 15 16  2  0
 16 17  1  0
 17 18  2  0
 17 22  1  0
 18 19  1  0
 19 20  2  0
 20 21  1  0
 21 22  2  0
 22 23  1  0
M  CHG  1   1   1
M  END
$$$$
