
     RDKit          3D

 23 25  0  0  0  0  0  0  0  0999 V2000
   61.4423  218.5894   46.2223 N   0  0  0  0  0  4  0  0  0  0  0  0
   62.3756  217.5875   46.5818 C   0  0  0  0  0  0  0  0  0  0  0  0
   61.8921  216.1922   46.5057 C   0  0  0  0  0  0  0  0  0  0  0  0
   61.9698  215.4451   47.6986 N   0  0  0  0  0  0  0  0  0  0  0  0
   62.9882  214.6671   48.2536 C   0  0  0  0  0  0  0  0  0  0  0  0
   64.0595  214.5134   47.6441 O   0  0  0  0  0  0  0  0  0  0  0  0
   62.8485  213.9906   49.5837 C   0  0  1  0  0  0  0  0  0  0  0  0
   63.5054  212.7886   49.5258 O   0  0  0  0  0  0  0  0  0  0  0  0
   63.4992  214.8087   50.6838 C   0  0  1  0  0  0  0  0  0  0  0  0
   63.0646  214.3507   51.9087 O   0  0  0  0  0  0  0  0  0  0  0  0
   64.9434  214.3066   50.5136 C   0  0  1  0  0  0  0  0  0  0  0  0
   65.7078  214.5572   51.6192 O   0  0  0  0  0  0  0  0  0  0  0  0
   64.6096  212.8330   50.3363 C   0  0  2  0  0  0  0  0  0  0  0  0
   65.7306  212.0648   49.8801 N   0  0  0  0  0  0  0  0  0  0  0  0
   65.7013  211.2749   48.7946 C   0  0  0  0  0  0  0  0  0  0  0  0
   66.8897  210.6768   48.6046 N   0  0  0  0  0  0  0  0  0  0  0  0
   67.6702  211.1006   49.5864 C   0  0  0  0  0  0  0  0  0  0  0  0
   66.9609  211.9642   50.3863 C   0  0  0  0  0  0  0  0  0  0  0  0
   67.5709  212.5006   51.4316 N   0  0  0  0  0  0  0  0  0  0  0  0
   68.8689  212.2191   51.7281 C   0  0  0  0  0  0  0  0  0  0  0  0
   69.5606  211.3749   50.9453 N   0  0  0  0  0  0  0  0  0  0  0  0
   69.0041  210.7882   49.8597 C   0  0  0  0  0  0  0  0  0  0  0  0
   69.7296  209.8961   49.0298 N   0  0  0  0  0  0  0  0  0  0  0  0
  1  2  1  0
  2  3  1  0
  3  4  1  0
  4  5  1  0
  5  6  2  0
  7  5  1  6
  7  8  1  0
  7  9  1  0
  8 13  1  0
  9 10  1  1
  9 11  1  0
 11 12  1  1
 11 13  1  0
 13 14  1  6
 14 15  1  0
 14 18  1  0
 15 16  2  0
 16 17  1  0
 17 18  2  0
 17 22  1  0
 18 19  1  0
 19 20  2  0
 20 21  1  0
 21 22  2  0
 22 23  1  0
M  CHG  1   1   1
M  END
$$$$
