
     RDKit          3D

 23 25  0  0  0  0  0  0  0  0999 V2000
   57.7210  213.4344   46.9934 N   0  0  0  0  0  4  0  0  0  0  0  0
   58.7609  212.4738   46.9839 C   0  0  0  0  0  0  0  0  0  0  0  0
   60.1392  213.0084   47.0149 C   0  0  0  0  0  0  0  0  0  0  0  0
   60.7457  213.0808   48.2854 N   0  0  0  0  0  0  0  0  0  0  0  0
   62.0779  213.2150   48.6826 C   0  0  0  0  0  0  0  0  0  0  0  0
   62.9661  213.4047   47.8355 O   0  0  0  0  0  0  0  0  0  0  0  0
   62.4997  213.1393   50.1188 C   0  0  1  0  0  0  0  0  0  0  0  0
   63.4236  212.1340   50.2431 O   0  0  0  0  0  0  0  0  0  0  0  0
   63.1708  214.4270   50.5598 C   0  0  1  0  0  0  0  0  0  0  0  0
   63.2315  214.4599   51.9361 O   0  0  0  0  0  0  0  0  0  0  0  0
   64.5944  214.1202   50.0639 C   0  0  1  0  0  0  0  0  0  0  0  0
   65.5297  214.9177   50.6628 O   0  0  0  0  0  0  0  0  0  0  0  0
   64.6489  212.6744   50.5341 C   0  0  2  0  0  0  0  0  0  0  0  0
   65.7712  211.9621   49.9973 N   0  0  0  0  0  0  0  0  0  0  0  0
   65.7200  211.2261   48.8753 C   0  0  0  0  0  0  0  0  0  0  0  0
   66.9155  210.6724   48.6101 N   0  0  0  0  0  0  0  0  0  0  0  0
   67.7227  211.0697   49.5814 C   0  0  0  0  0  0  0  0  0  0  0  0
   67.0228  211.8722   50.4502 C   0  0  0  0  0  0  0  0  0  0  0  0
   67.6592  212.3737   51.4971 N   0  0  0  0  0  0  0  0  0  0  0  0
   68.9750  212.1154   51.7291 C   0  0  0  0  0  0  0  0  0  0  0  0
   69.6575  211.3309   50.8790 N   0  0  0  0  0  0  0  0  0  0  0  0
   69.0743  210.7826   49.7873 C   0  0  0  0  0  0  0  0  0  0  0  0
   69.7900  209.9537   48.8863 N   0  0  0  0  0  0  0  0  0  0  0  0
  1  2  1  0
  2  3  1  0
  3  4  1  0
  4  5  1  0
  5  6  2  0
  7  5  1  6
  7  8  1  0
  7  9  1  0
  8 13  1  0
  9 10  1  1
  9 11  1  0
 11 12  1  1
 11 13  1  0
 13 14  1  6
 14 15  1  0
 14 18  1  0
 15 16  2  0
 16 17  1  0
 17 18  2  0
 17 22  1  0
 18 19  1  0
 19 20  2  0
 20 21  1  0
 21 22  2  0
 22 23  1  0
M  CHG  1   1   1
M  END
$$$$
