
     RDKit          3D

 23 25  0  0  0  0  0  0  0  0999 V2000
   59.8370  216.9628   46.5082 N   0  0  0  0  0  4  0  0  0  0  0  0
   61.1549  216.4856   46.7075 C   0  0  0  0  0  0  0  0  0  0  0  0
   61.3282  215.0178   46.6605 C   0  0  0  0  0  0  0  0  0  0  0  0
   61.7117  214.4017   47.8689 N   0  0  0  0  0  0  0  0  0  0  0  0
   62.9625  214.1340   48.4298 C   0  0  0  0  0  0  0  0  0  0  0  0
   63.9984  214.3612   47.7833 O   0  0  0  0  0  0  0  0  0  0  0  0
   63.1205  213.5713   49.8098 C   0  0  1  0  0  0  0  0  0  0  0  0
   63.8818  212.4342   49.7259 O   0  0  0  0  0  0  0  0  0  0  0  0
   63.8564  214.5421   50.7148 C   0  0  1  0  0  0  0  0  0  0  0  0
   63.6846  214.1594   52.0275 O   0  0  0  0  0  0  0  0  0  0  0  0
   65.2964  214.1609   50.3304 C   0  0  1  0  0  0  0  0  0  0  0  0
   66.2047  214.5797   51.2625 O   0  0  0  0  0  0  0  0  0  0  0  0
   65.0954  212.6529   50.3238 C   0  0  2  0  0  0  0  0  0  0  0  0
   66.1988  211.9522   49.7352 N   0  0  0  0  0  0  0  0  0  0  0  0
   66.0988  211.1988   48.6281 C   0  0  0  0  0  0  0  0  0  0  0  0
   67.2876  210.6620   48.3044 N   0  0  0  0  0  0  0  0  0  0  0  0
   68.1401  211.0876   49.2236 C   0  0  0  0  0  0  0  0  0  0  0  0
   67.4751  211.8907   50.1188 C   0  0  0  0  0  0  0  0  0  0  0  0
   68.1595  212.4188   51.1215 N   0  0  0  0  0  0  0  0  0  0  0  0
   69.4906  212.1868   51.2834 C   0  0  0  0  0  0  0  0  0  0  0  0
   70.1389  211.4017   50.4075 N   0  0  0  0  0  0  0  0  0  0  0  0
   69.5061  210.8272   49.3578 C   0  0  0  0  0  0  0  0  0  0  0  0
   70.1855  209.9974   48.4299 N   0  0  0  0  0  0  0  0  0  0  0  0
  1  2  1  0
  2  3  1  0
  3  4  1  0
  4  5  1  0
  5  6  2  0
  7  5  1  6
  7  8  1  0
  7  9  1  0
  8 13  1  0
  9 10  1  1
  9 11  1  0
 11 12  1  1
 11 13  1  0
 13 14  1  6
 14 15  1  0
 14 18  1  0
 15 16  2  0
 16 17  1  0
 17 18  2  0
 17 22  1  0
 18 19  1  0
 19 20  2  0
 20 21  1  0
 21 22  2  0
 22 23  1  0
M  CHG  1   1   1
M  END
$$$$
