
     RDKit          3D

 23 25  0  0  0  0  0  0  0  0999 V2000
   58.9311  214.7999   46.2798 N   0  0  0  0  0  4  0  0  0  0  0  0
   59.5926  214.5425   47.5046 C   0  0  0  0  0  0  0  0  0  0  0  0
   60.8462  213.7634   47.4146 C   0  0  0  0  0  0  0  0  0  0  0  0
   61.4878  213.4811   48.6376 N   0  0  0  0  0  0  0  0  0  0  0  0
   62.7329  213.8510   49.1510 C   0  0  0  0  0  0  0  0  0  0  0  0
   63.5342  214.4882   48.4478 O   0  0  0  0  0  0  0  0  0  0  0  0
   63.1611  213.5078   50.5457 C   0  0  1  0  0  0  0  0  0  0  0  0
   64.0117  212.4344   50.4823 O   0  0  0  0  0  0  0  0  0  0  0  0
   63.9266  214.6544   51.1800 C   0  0  1  0  0  0  0  0  0  0  0  0
   64.0019  214.4529   52.5412 O   0  0  0  0  0  0  0  0  0  0  0  0
   65.3201  214.3370   50.6106 C   0  0  1  0  0  0  0  0  0  0  0  0
   66.3155  214.9568   51.3138 O   0  0  0  0  0  0  0  0  0  0  0  0
   65.2752  212.8327   50.8333 C   0  0  2  0  0  0  0  0  0  0  0  0
   66.3386  212.1441   50.1626 N   0  0  0  0  0  0  0  0  0  0  0  0
   66.1726  211.4323   49.0361 C   0  0  0  0  0  0  0  0  0  0  0  0
   67.3369  210.8971   48.6312 N   0  0  0  0  0  0  0  0  0  0  0  0
   68.2410  211.2814   49.5187 C   0  0  0  0  0  0  0  0  0  0  0  0
   67.6325  212.0574   50.4759 C   0  0  0  0  0  0  0  0  0  0  0  0
   68.3741  212.5426   51.4594 N   0  0  0  0  0  0  0  0  0  0  0  0
   69.7093  212.2931   51.5423 C   0  0  0  0  0  0  0  0  0  0  0  0
   70.3024  211.5346   50.6059 N   0  0  0  0  0  0  0  0  0  0  0  0
   69.6092  211.0041   49.5712 C   0  0  0  0  0  0  0  0  0  0  0  0
   70.2301  210.2026   48.5797 N   0  0  0  0  0  0  0  0  0  0  0  0
  1  2  1  0
  2  3  1  0
  3  4  1  0
  4  5  1  0
  5  6  2  0
  7  5  1  6
  7  8  1  0
  7  9  1  0
  8 13  1  0
  9 10  1  1
  9 11  1  0
 11 12  1  1
 11 13  1  0
 13 14  1  6
 14 15  1  0
 14 18  1  0
 15 16  2  0
 16 17  1  0
 17 18  2  0
 17 22  1  0
 18 19  1  0
 19 20  2  0
 20 21  1  0
 21 22  2  0
 22 23  1  0
M  CHG  1   1   1
M  END
$$$$
