
     RDKit          3D

 23 25  0  0  0  0  0  0  0  0999 V2000
   60.4851  218.3119   46.8676 N   0  0  0  0  0  4  0  0  0  0  0  0
   61.7071  217.6266   47.0709 C   0  0  0  0  0  0  0  0  0  0  0  0
   61.6209  216.1522   47.1414 C   0  0  0  0  0  0  0  0  0  0  0  0
   61.9984  215.5689   48.3680 N   0  0  0  0  0  0  0  0  0  0  0  0
   63.2090  215.0410   48.8225 C   0  0  0  0  0  0  0  0  0  0  0  0
   64.1775  214.9454   48.0509 O   0  0  0  0  0  0  0  0  0  0  0  0
   63.4019  214.5719   50.2328 C   0  0  1  0  0  0  0  0  0  0  0  0
   64.0067  213.3420   50.1977 O   0  0  0  0  0  0  0  0  0  0  0  0
   64.3208  215.5058   50.9984 C   0  0  1  0  0  0  0  0  0  0  0  0
   64.2048  215.2525   52.3480 O   0  0  0  0  0  0  0  0  0  0  0  0
   65.6680  214.9110   50.5535 C   0  0  1  0  0  0  0  0  0  0  0  0
   66.6908  215.2791   51.3828 O   0  0  0  0  0  0  0  0  0  0  0  0
   65.2807  213.4463   50.6919 C   0  0  2  0  0  0  0  0  0  0  0  0
   66.2394  212.5638   50.0943 N   0  0  0  0  0  0  0  0  0  0  0  0
   65.9959  211.8323   48.9949 C   0  0  0  0  0  0  0  0  0  0  0  0
   67.0705  211.0981   48.6597 N   0  0  0  0  0  0  0  0  0  0  0  0
   67.9965  211.3768   49.5639 C   0  0  0  0  0  0  0  0  0  0  0  0
   67.4918  212.2870   50.4614 C   0  0  0  0  0  0  0  0  0  0  0  0
   68.2709  212.6959   51.4506 N   0  0  0  0  0  0  0  0  0  0  0  0
   69.5449  212.2404   51.5965 C   0  0  0  0  0  0  0  0  0  0  0  0
   70.0366  211.3509   50.7184 N   0  0  0  0  0  0  0  0  0  0  0  0
   69.2996  210.8872   49.6820 C   0  0  0  0  0  0  0  0  0  0  0  0
   69.8136  209.9481   48.7519 N   0  0  0  0  0  0  0  0  0  0  0  0
  1  2  1  0
  2  3  1  0
  3  4  1  0
  4  5  1  0
  5  6  2  0
  7  5  1  6
  7  8  1  0
  7  9  1  0
  8 13  1  0
  9 10  1  1
  9 11  1  0
 11 12  1  1
 11 13  1  0
 13 14  1  6
 14 15  1  0
 14 18  1  0
 15 16  2  0
 16 17  1  0
 17 18  2  0
 17 22  1  0
 18 19  1  0
 19 20  2  0
 20 21  1  0
 21 22  2  0
 22 23  1  0
M  CHG  1   1   1
M  END
$$$$
