
     RDKit          3D

 23 25  0  0  0  0  0  0  0  0999 V2000
   60.3593  215.9171   46.1462 N   0  0  0  0  0  4  0  0  0  0  0  0
   59.6683  214.8614   46.7881 C   0  0  0  0  0  0  0  0  0  0  0  0
   60.3950  213.5778   46.8916 C   0  0  0  0  0  0  0  0  0  0  0  0
   60.9026  213.2559   48.1667 N   0  0  0  0  0  0  0  0  0  0  0  0
   62.1966  213.2700   48.6922 C   0  0  0  0  0  0  0  0  0  0  0  0
   63.1536  213.6278   47.9860 O   0  0  0  0  0  0  0  0  0  0  0  0
   62.4950  212.8639   50.1037 C   0  0  1  0  0  0  0  0  0  0  0  0
   63.4197  211.8522   50.0735 O   0  0  0  0  0  0  0  0  0  0  0  0
   63.1068  214.0122   50.8849 C   0  0  1  0  0  0  0  0  0  0  0  0
   63.0490  213.7275   52.2320 O   0  0  0  0  0  0  0  0  0  0  0  0
   64.5720  213.8203   50.4571 C   0  0  1  0  0  0  0  0  0  0  0  0
   65.4407  214.4538   51.3017 O   0  0  0  0  0  0  0  0  0  0  0  0
   64.6075  212.3048   50.5858 C   0  0  2  0  0  0  0  0  0  0  0  0
   65.7820  211.7291   49.9992 N   0  0  0  0  0  0  0  0  0  0  0  0
   65.7754  211.0217   48.8578 C   0  0  0  0  0  0  0  0  0  0  0  0
   67.0141  210.6042   48.5453 N   0  0  0  0  0  0  0  0  0  0  0  0
   67.8032  211.0585   49.5064 C   0  0  0  0  0  0  0  0  0  0  0  0
   67.0488  211.7596   50.4164 C   0  0  0  0  0  0  0  0  0  0  0  0
   67.6595  212.2975   51.4606 N   0  0  0  0  0  0  0  0  0  0  0  0
   69.0013  212.1732   51.6504 C   0  0  0  0  0  0  0  0  0  0  0  0
   69.7370  211.4878   50.7601 N   0  0  0  0  0  0  0  0  0  0  0  0
   69.1828  210.9101   49.6684 C   0  0  0  0  0  0  0  0  0  0  0  0
   69.9548  210.1852   48.7251 N   0  0  0  0  0  0  0  0  0  0  0  0
  1  2  1  0
  2  3  1  0
  3  4  1  0
  4  5  1  0
  5  6  2  0
  7  5  1  6
  7  8  1  0
  7  9  1  0
  8 13  1  0
  9 10  1  1
  9 11  1  0
 11 12  1  1
 11 13  1  0
 13 14  1  6
 14 15  1  0
 14 18  1  0
 15 16  2  0
 16 17  1  0
 17 18  2  0
 17 22  1  0
 18 19  1  0
 19 20  2  0
 20 21  1  0
 21 22  2  0
 22 23  1  0
M  CHG  1   1   1
M  END
$$$$
