
     RDKit          3D

 23 25  0  0  0  0  0  0  0  0999 V2000
   62.4079  218.3328   45.6308 N   0  0  0  0  0  4  0  0  0  0  0  0
   62.4907  217.4367   46.7236 C   0  0  0  0  0  0  0  0  0  0  0  0
   61.9121  216.0932   46.5071 C   0  0  0  0  0  0  0  0  0  0  0  0
   61.9354  215.2240   47.6166 N   0  0  0  0  0  0  0  0  0  0  0  0
   62.9797  214.5699   48.2742 C   0  0  0  0  0  0  0  0  0  0  0  0
   64.1321  214.6127   47.8129 O   0  0  0  0  0  0  0  0  0  0  0  0
   62.7728  213.7987   49.5424 C   0  0  1  0  0  0  0  0  0  0  0  0
   63.4533  212.6129   49.4404 O   0  0  0  0  0  0  0  0  0  0  0  0
   63.3417  214.5452   50.7349 C   0  0  1  0  0  0  0  0  0  0  0  0
   62.8428  213.9953   51.8959 O   0  0  0  0  0  0  0  0  0  0  0  0
   64.8022  214.0763   50.6183 C   0  0  1  0  0  0  0  0  0  0  0  0
   65.4945  214.2579   51.7833 O   0  0  0  0  0  0  0  0  0  0  0  0
   64.5060  212.6146   50.3179 C   0  0  2  0  0  0  0  0  0  0  0  0
   65.6660  211.8962   49.8781 N   0  0  0  0  0  0  0  0  0  0  0  0
   65.6813  211.0902   48.8042 C   0  0  0  0  0  0  0  0  0  0  0  0
   66.8987  210.5488   48.6284 N   0  0  0  0  0  0  0  0  0  0  0  0
   67.6522  211.0247   49.6074 C   0  0  0  0  0  0  0  0  0  0  0  0
   66.8970  211.8638   50.3913 C   0  0  0  0  0  0  0  0  0  0  0  0
   67.4744  212.4446   51.4314 N   0  0  0  0  0  0  0  0  0  0  0  0
   68.7831  212.2319   51.7378 C   0  0  0  0  0  0  0  0  0  0  0  0
   69.5197  211.4117   50.9707 N   0  0  0  0  0  0  0  0  0  0  0  0
   68.9985  210.7825   49.8912 C   0  0  0  0  0  0  0  0  0  0  0  0
   69.7715  209.9155   49.0778 N   0  0  0  0  0  0  0  0  0  0  0  0
  1  2  1  0
  2  3  1  0
  3  4  1  0
  4  5  1  0
  5  6  2  0
  7  5  1  6
  7  8  1  0
  7  9  1  0
  8 13  1  0
  9 10  1  1
  9 11  1  0
 11 12  1  1
 11 13  1  0
 13 14  1  6
 14 15  1  0
 14 18  1  0
 15 16  2  0
 16 17  1  0
 17 18  2  0
 17 22  1  0
 18 19  1  0
 19 20  2  0
 20 21  1  0
 21 22  2  0
 22 23  1  0
M  CHG  1   1   1
M  END
$$$$
