
     RDKit          3D

 23 25  0  0  0  0  0  0  0  0999 V2000
   58.9013  212.1570   45.7087 N   0  0  0  0  0  4  0  0  0  0  0  0
   59.7970  212.3135   46.7938 C   0  0  0  0  0  0  0  0  0  0  0  0
   60.5315  213.5956   46.8499 C   0  0  0  0  0  0  0  0  0  0  0  0
   61.2628  213.8379   48.0304 N   0  0  0  0  0  0  0  0  0  0  0  0
   62.5675  213.5135   48.4091 C   0  0  0  0  0  0  0  0  0  0  0  0
   63.4504  213.3702   47.5474 O   0  0  0  0  0  0  0  0  0  0  0  0
   62.9649  213.3248   49.8417 C   0  0  1  0  0  0  0  0  0  0  0  0
   63.8600  212.2883   49.9066 O   0  0  0  0  0  0  0  0  0  0  0  0
   63.6629  214.5592   50.3823 C   0  0  1  0  0  0  0  0  0  0  0  0
   63.7033  214.4929   51.7582 O   0  0  0  0  0  0  0  0  0  0  0  0
   65.0854  214.2495   49.8850 C   0  0  1  0  0  0  0  0  0  0  0  0
   66.0321  214.9766   50.5517 O   0  0  0  0  0  0  0  0  0  0  0  0
   65.0946  212.7730   50.2518 C   0  0  2  0  0  0  0  0  0  0  0  0
   66.2057  212.0700   49.6808 N   0  0  0  0  0  0  0  0  0  0  0  0
   66.1297  211.3452   48.5529 C   0  0  0  0  0  0  0  0  0  0  0  0
   67.3202  210.7983   48.2533 N   0  0  0  0  0  0  0  0  0  0  0  0
   68.1495  211.1885   49.2088 C   0  0  0  0  0  0  0  0  0  0  0  0
   67.4683  211.9798   50.1024 C   0  0  0  0  0  0  0  0  0  0  0  0
   68.1283  212.4730   51.1386 N   0  0  0  0  0  0  0  0  0  0  0  0
   69.4501  212.2170   51.3361 C   0  0  0  0  0  0  0  0  0  0  0  0
   70.1143  211.4435   50.4618 N   0  0  0  0  0  0  0  0  0  0  0  0
   69.5066  210.9041   49.3790 C   0  0  0  0  0  0  0  0  0  0  0  0
   70.2029  210.0868   48.4527 N   0  0  0  0  0  0  0  0  0  0  0  0
  1  2  1  0
  2  3  1  0
  3  4  1  0
  4  5  1  0
  5  6  2  0
  7  5  1  6
  7  8  1  0
  7  9  1  0
  8 13  1  0
  9 10  1  1
  9 11  1  0
 11 12  1  1
 11 13  1  0
 13 14  1  6
 14 15  1  0
 14 18  1  0
 15 16  2  0
 16 17  1  0
 17 18  2  0
 17 22  1  0
 18 19  1  0
 19 20  2  0
 20 21  1  0
 21 22  2  0
 22 23  1  0
M  CHG  1   1   1
M  END
$$$$
