
     RDKit          3D

 23 25  0  0  0  0  0  0  0  0999 V2000
   58.0373  212.5560   46.4676 N   0  0  0  0  0  4  0  0  0  0  0  0
   59.1836  212.5333   47.2980 C   0  0  0  0  0  0  0  0  0  0  0  0
   60.1634  213.6196   47.0824 C   0  0  0  0  0  0  0  0  0  0  0  0
   61.0451  213.8780   48.1514 N   0  0  0  0  0  0  0  0  0  0  0  0
   62.2324  213.2647   48.5574 C   0  0  0  0  0  0  0  0  0  0  0  0
   63.0861  212.9384   47.7162 O   0  0  0  0  0  0  0  0  0  0  0  0
   62.5352  212.9731   49.9959 C   0  0  1  0  0  0  0  0  0  0  0  0
   63.4547  211.9573   50.0444 O   0  0  0  0  0  0  0  0  0  0  0  0
   63.1562  214.1778   50.6786 C   0  0  1  0  0  0  0  0  0  0  0  0
   63.1031  214.0039   52.0446 O   0  0  0  0  0  0  0  0  0  0  0  0
   64.6185  213.9438   50.2619 C   0  0  1  0  0  0  0  0  0  0  0  0
   65.4942  214.6392   51.0486 O   0  0  0  0  0  0  0  0  0  0  0  0
   64.6470  212.4437   50.5133 C   0  0  2  0  0  0  0  0  0  0  0  0
   65.8160  211.8159   49.9707 N   0  0  0  0  0  0  0  0  0  0  0  0
   65.8115  211.0696   48.8543 C   0  0  0  0  0  0  0  0  0  0  0  0
   67.0437  210.6077   48.5815 N   0  0  0  0  0  0  0  0  0  0  0  0
   67.8266  211.0734   49.5422 C   0  0  0  0  0  0  0  0  0  0  0  0
   67.0749  211.8262   50.4121 C   0  0  0  0  0  0  0  0  0  0  0  0
   67.6802  212.3833   51.4493 N   0  0  0  0  0  0  0  0  0  0  0  0
   69.0140  212.2290   51.6704 C   0  0  0  0  0  0  0  0  0  0  0  0
   69.7472  211.4930   50.8192 N   0  0  0  0  0  0  0  0  0  0  0  0
   69.1982  210.8929   49.7370 C   0  0  0  0  0  0  0  0  0  0  0  0
   69.9675  210.1147   48.8350 N   0  0  0  0  0  0  0  0  0  0  0  0
  1  2  1  0
  2  3  1  0
  3  4  1  0
  4  5  1  0
  5  6  2  0
  7  5  1  6
  7  8  1  0
  7  9  1  0
  8 13  1  0
  9 10  1  1
  9 11  1  0
 11 12  1  1
 11 13  1  0
 13 14  1  6
 14 15  1  0
 14 18  1  0
 15 16  2  0
 16 17  1  0
 17 18  2  0
 17 22  1  0
 18 19  1  0
 19 20  2  0
 20 21  1  0
 21 22  2  0
 22 23  1  0
M  CHG  1   1   1
M  END
$$$$
