
     RDKit          3D

 23 25  0  0  0  0  0  0  0  0999 V2000
   58.9031  212.3816   46.1878 N   0  0  0  0  0  4  0  0  0  0  0  0
   60.2467  212.6619   46.5346 C   0  0  0  0  0  0  0  0  0  0  0  0
   60.5394  214.0585   46.9226 C   0  0  0  0  0  0  0  0  0  0  0  0
   61.1308  214.2370   48.1897 N   0  0  0  0  0  0  0  0  0  0  0  0
   62.4056  213.9446   48.6795 C   0  0  0  0  0  0  0  0  0  0  0  0
   63.3853  213.9537   47.9161 O   0  0  0  0  0  0  0  0  0  0  0  0
   62.6564  213.6115   50.1191 C   0  0  1  0  0  0  0  0  0  0  0  0
   63.4730  212.5115   50.1699 O   0  0  0  0  0  0  0  0  0  0  0  0
   63.3797  214.7443   50.8240 C   0  0  1  0  0  0  0  0  0  0  0  0
   63.2887  214.5633   52.1871 O   0  0  0  0  0  0  0  0  0  0  0  0
   64.8190  214.3744   50.4262 C   0  0  1  0  0  0  0  0  0  0  0  0
   65.7451  214.9747   51.2333 O   0  0  0  0  0  0  0  0  0  0  0  0
   64.6991  212.8762   50.6616 C   0  0  2  0  0  0  0  0  0  0  0  0
   65.8106  212.1439   50.1293 N   0  0  0  0  0  0  0  0  0  0  0  0
   65.7429  211.3850   49.0235 C   0  0  0  0  0  0  0  0  0  0  0  0
   66.9314  210.8164   48.7587 N   0  0  0  0  0  0  0  0  0  0  0  0
   67.7510  211.2273   49.7138 C   0  0  0  0  0  0  0  0  0  0  0  0
   67.0658  212.0534   50.5722 C   0  0  0  0  0  0  0  0  0  0  0  0
   67.7161  212.5716   51.6023 N   0  0  0  0  0  0  0  0  0  0  0  0
   69.0320  212.3077   51.8273 C   0  0  0  0  0  0  0  0  0  0  0  0
   69.7001  211.5002   50.9874 N   0  0  0  0  0  0  0  0  0  0  0  0
   69.1022  210.9338   49.9130 C   0  0  0  0  0  0  0  0  0  0  0  0
   69.8028  210.0806   49.0229 N   0  0  0  0  0  0  0  0  0  0  0  0
  1  2  1  0
  2  3  1  0
  3  4  1  0
  4  5  1  0
  5  6  2  0
  7  5  1  6
  7  8  1  0
  7  9  1  0
  8 13  1  0
  9 10  1  1
  9 11  1  0
 11 12  1  1
 11 13  1  0
 13 14  1  6
 14 15  1  0
 14 18  1  0
 15 16  2  0
 16 17  1  0
 17 18  2  0
 17 22  1  0
 18 19  1  0
 19 20  2  0
 20 21  1  0
 21 22  2  0
 22 23  1  0
M  CHG  1   1   1
M  END
$$$$
