
     RDKit          3D

 23 25  0  0  0  0  0  0  0  0999 V2000
   61.9291  216.4257   46.0032 N   0  0  0  0  0  4  0  0  0  0  0  0
   60.8791  215.7826   46.7020 C   0  0  0  0  0  0  0  0  0  0  0  0
   60.9993  214.3161   46.8487 C   0  0  0  0  0  0  0  0  0  0  0  0
   61.4345  213.8543   48.1074 N   0  0  0  0  0  0  0  0  0  0  0  0
   62.7055  213.5825   48.6188 C   0  0  0  0  0  0  0  0  0  0  0  0
   63.7158  213.8030   47.9308 O   0  0  0  0  0  0  0  0  0  0  0  0
   62.9159  213.0230   49.9932 C   0  0  1  0  0  0  0  0  0  0  0  0
   63.7878  211.9692   49.8995 O   0  0  0  0  0  0  0  0  0  0  0  0
   63.5482  214.0527   50.9113 C   0  0  1  0  0  0  0  0  0  0  0  0
   63.4125  213.6400   52.2191 O   0  0  0  0  0  0  0  0  0  0  0  0
   65.0202  213.8224   50.5279 C   0  0  1  0  0  0  0  0  0  0  0  0
   65.8795  214.3200   51.4678 O   0  0  0  0  0  0  0  0  0  0  0  0
   64.9718  212.3020   50.5041 C   0  0  2  0  0  0  0  0  0  0  0  0
   66.1415  211.7225   49.9118 N   0  0  0  0  0  0  0  0  0  0  0  0
   66.1238  210.9963   48.7824 C   0  0  0  0  0  0  0  0  0  0  0  0
   67.3604  210.5797   48.4608 N   0  0  0  0  0  0  0  0  0  0  0  0
   68.1596  211.0536   49.4040 C   0  0  0  0  0  0  0  0  0  0  0  0
   67.4135  211.7660   50.3120 C   0  0  0  0  0  0  0  0  0  0  0  0
   68.0348  212.3241   51.3391 N   0  0  0  0  0  0  0  0  0  0  0  0
   69.3795  212.2095   51.5135 C   0  0  0  0  0  0  0  0  0  0  0  0
   70.1072  211.5130   50.6251 N   0  0  0  0  0  0  0  0  0  0  0  0
   69.5419  210.9146   49.5504 C   0  0  0  0  0  0  0  0  0  0  0  0
   70.3053  210.1781   48.6093 N   0  0  0  0  0  0  0  0  0  0  0  0
  1  2  1  0
  2  3  1  0
  3  4  1  0
  4  5  1  0
  5  6  2  0
  7  5  1  6
  7  8  1  0
  7  9  1  0
  8 13  1  0
  9 10  1  1
  9 11  1  0
 11 12  1  1
 11 13  1  0
 13 14  1  6
 14 15  1  0
 14 18  1  0
 15 16  2  0
 16 17  1  0
 17 18  2  0
 17 22  1  0
 18 19  1  0
 19 20  2  0
 20 21  1  0
 21 22  2  0
 22 23  1  0
M  CHG  1   1   1
M  END
$$$$
