
     RDKit          3D

 23 25  0  0  0  0  0  0  0  0999 V2000
   58.0529  213.4674   46.8514 N   0  0  0  0  0  4  0  0  0  0  0  0
   59.3107  214.0238   47.1871 C   0  0  0  0  0  0  0  0  0  0  0  0
   60.4961  213.2256   46.8076 C   0  0  0  0  0  0  0  0  0  0  0  0
   61.2792  212.7369   47.8730 N   0  0  0  0  0  0  0  0  0  0  0  0
   62.4864  213.1703   48.4258 C   0  0  0  0  0  0  0  0  0  0  0  0
   63.3136  213.7746   47.7234 O   0  0  0  0  0  0  0  0  0  0  0  0
   62.8422  212.9361   49.8626 C   0  0  1  0  0  0  0  0  0  0  0  0
   63.7817  211.9390   49.9158 O   0  0  0  0  0  0  0  0  0  0  0  0
   63.4628  214.1753   50.4809 C   0  0  1  0  0  0  0  0  0  0  0  0
   63.4584  214.0496   51.8532 O   0  0  0  0  0  0  0  0  0  0  0  0
   64.9146  213.9522   50.0234 C   0  0  1  0  0  0  0  0  0  0  0  0
   65.8028  214.6907   50.7550 O   0  0  0  0  0  0  0  0  0  0  0  0
   64.9796  212.4628   50.3266 C   0  0  2  0  0  0  0  0  0  0  0  0
   66.1414  211.8365   49.7672 N   0  0  0  0  0  0  0  0  0  0  0  0
   66.1254  211.1059   48.6406 C   0  0  0  0  0  0  0  0  0  0  0  0
   67.3532  210.6414   48.3529 N   0  0  0  0  0  0  0  0  0  0  0  0
   68.1452  211.0895   49.3145 C   0  0  0  0  0  0  0  0  0  0  0  0
   67.4034  211.8340   50.2000 C   0  0  0  0  0  0  0  0  0  0  0  0
   68.0187  212.3734   51.2407 N   0  0  0  0  0  0  0  0  0  0  0  0
   69.3532  212.2090   51.4504 C   0  0  0  0  0  0  0  0  0  0  0  0
   70.0766  211.4811   50.5840 N   0  0  0  0  0  0  0  0  0  0  0  0
   69.5170  210.8992   49.4974 C   0  0  0  0  0  0  0  0  0  0  0  0
   70.2759  210.1297   48.5793 N   0  0  0  0  0  0  0  0  0  0  0  0
  1  2  1  0
  2  3  1  0
  3  4  1  0
  4  5  1  0
  5  6  2  0
  7  5  1  6
  7  8  1  0
  7  9  1  0
  8 13  1  0
  9 10  1  1
  9 11  1  0
 11 12  1  1
 11 13  1  0
 13 14  1  6
 14 15  1  0
 14 18  1  0
 15 16  2  0
 16 17  1  0
 17 18  2  0
 17 22  1  0
 18 19  1  0
 19 20  2  0
 20 21  1  0
 21 22  2  0
 22 23  1  0
M  CHG  1   1   1
M  END
$$$$
