
     RDKit          3D

 23 25  0  0  0  0  0  0  0  0999 V2000
   60.3755  218.3630   46.4193 N   0  0  0  0  0  4  0  0  0  0  0  0
   60.8601  217.0349   46.3457 C   0  0  0  0  0  0  0  0  0  0  0  0
   62.2795  216.8402   46.7117 C   0  0  0  0  0  0  0  0  0  0  0  0
   62.5194  216.2977   47.9904 N   0  0  0  0  0  0  0  0  0  0  0  0
   63.3907  215.3025   48.4389 C   0  0  0  0  0  0  0  0  0  0  0  0
   64.3947  215.0042   47.7712 O   0  0  0  0  0  0  0  0  0  0  0  0
   63.1681  214.5571   49.7199 C   0  0  1  0  0  0  0  0  0  0  0  0
   63.6783  213.2928   49.5758 O   0  0  0  0  0  0  0  0  0  0  0  0
   63.9079  215.2146   50.8703 C   0  0  1  0  0  0  0  0  0  0  0  0
   63.4186  214.7278   52.0630 O   0  0  0  0  0  0  0  0  0  0  0  0
   65.2830  214.5582   50.6583 C   0  0  1  0  0  0  0  0  0  0  0  0
   66.0684  214.6397   51.7744 O   0  0  0  0  0  0  0  0  0  0  0  0
   64.7776  213.1502   50.3816 C   0  0  2  0  0  0  0  0  0  0  0  0
   65.8012  212.2882   49.8677 N   0  0  0  0  0  0  0  0  0  0  0  0
   65.6402  211.4962   48.7953 C   0  0  0  0  0  0  0  0  0  0  0  0
   66.7611  210.7998   48.5410 N   0  0  0  0  0  0  0  0  0  0  0  0
   67.6326  211.1637   49.4688 C   0  0  0  0  0  0  0  0  0  0  0  0
   67.0475  212.0888   50.2998 C   0  0  0  0  0  0  0  0  0  0  0  0
   67.7626  212.5795   51.3000 N   0  0  0  0  0  0  0  0  0  0  0  0
   69.0486  212.1928   51.5208 C   0  0  0  0  0  0  0  0  0  0  0  0
   69.6188  211.2886   50.7077 N   0  0  0  0  0  0  0  0  0  0  0  0
   68.9503  210.7430   49.6647 C   0  0  0  0  0  0  0  0  0  0  0  0
   69.5474  209.7879   48.8030 N   0  0  0  0  0  0  0  0  0  0  0  0
  1  2  1  0
  2  3  1  0
  3  4  1  0
  4  5  1  0
  5  6  2  0
  7  5  1  6
  7  8  1  0
  7  9  1  0
  8 13  1  0
  9 10  1  1
  9 11  1  0
 11 12  1  1
 11 13  1  0
 13 14  1  6
 14 15  1  0
 14 18  1  0
 15 16  2  0
 16 17  1  0
 17 18  2  0
 17 22  1  0
 18 19  1  0
 19 20  2  0
 20 21  1  0
 21 22  2  0
 22 23  1  0
M  CHG  1   1   1
M  END
$$$$
