
     RDKit          3D

 23 25  0  0  0  0  0  0  0  0999 V2000
   63.6945  215.7096   45.8271 N   0  0  0  0  0  4  0  0  0  0  0  0
   63.0462  214.9290   46.8142 C   0  0  0  0  0  0  0  0  0  0  0  0
   62.3308  215.6790   47.8688 C   0  0  0  0  0  0  0  0  0  0  0  0
   62.7736  215.4630   49.1896 N   0  0  0  0  0  0  0  0  0  0  0  0
   63.9814  214.9915   49.7088 C   0  0  0  0  0  0  0  0  0  0  0  0
   65.0375  215.1479   49.0741 O   0  0  0  0  0  0  0  0  0  0  0  0
   64.0682  214.2875   51.0290 C   0  0  1  0  0  0  0  0  0  0  0  0
   64.8785  213.1917   50.8794 O   0  0  0  0  0  0  0  0  0  0  0  0
   64.7017  215.1776   52.0823 C   0  0  1  0  0  0  0  0  0  0  0  0
   64.4570  214.6491   53.3312 O   0  0  0  0  0  0  0  0  0  0  0  0
   66.1785  214.8877   51.7635 C   0  0  1  0  0  0  0  0  0  0  0  0
   67.0042  215.2322   52.7975 O   0  0  0  0  0  0  0  0  0  0  0  0
   66.0391  213.3836   51.5824 C   0  0  2  0  0  0  0  0  0  0  0  0
   67.2071  212.7876   51.0032 N   0  0  0  0  0  0  0  0  0  0  0  0
   68.4498  213.2690   51.1679 C   0  0  0  0  0  0  0  0  0  0  0  0
   69.3475  212.5128   50.5135 N   0  0  0  0  0  0  0  0  0  0  0  0
   68.6534  211.5464   49.9330 C   0  0  0  0  0  0  0  0  0  0  0  0
   67.3212  211.7064   50.2300 C   0  0  0  0  0  0  0  0  0  0  0  0
   66.4562  210.8331   49.7384 N   0  0  0  0  0  0  0  0  0  0  0  0
   66.8522  209.7932   48.9550 C   0  0  0  0  0  0  0  0  0  0  0  0
   68.1546  209.6383   48.6657 N   0  0  0  0  0  0  0  0  0  0  0  0
   69.0968  210.4911   49.1322 C   0  0  0  0  0  0  0  0  0  0  0  0
   70.4732  210.3324   48.8299 N   0  0  0  0  0  0  0  0  0  0  0  0
  1  2  1  0
  2  3  1  0
  3  4  1  0
  4  5  1  0
  5  6  2  0
  7  5  1  6
  7  8  1  0
  7  9  1  0
  8 13  1  0
  9 10  1  1
  9 11  1  0
 11 12  1  1
 11 13  1  0
 13 14  1  6
 14 15  1  0
 14 18  1  0
 15 16  2  0
 16 17  1  0
 17 18  2  0
 17 22  1  0
 18 19  1  0
 19 20  2  0
 20 21  1  0
 21 22  2  0
 22 23  1  0
M  CHG  1   1   1
M  END
$$$$
