
     RDKit          3D

 30 33  0  0  0  0  0  0  0  0999 V2000
   63.3740   -4.0983   25.4375 C   0  0  0  0  0  0  0  0  0  0  0  0
   64.3725   -4.8807   25.9680 C   0  0  0  0  0  0  0  0  0  0  0  0
   64.8325   -4.7001   27.2507 C   0  0  0  0  0  0  0  0  0  0  0  0
   64.2566   -3.6952   28.0068 C   0  0  0  0  0  0  0  0  0  0  0  0
   63.2561   -2.9133   27.4712 C   0  0  0  0  0  0  0  0  0  0  0  0
   62.7928   -3.0904   26.1888 C   0  0  0  0  0  0  0  0  0  0  0  0
   61.8780   -2.5026   25.4551 O   0  0  0  0  0  0  0  0  0  0  0  0
   61.7852   -3.0225   24.2686 C   0  0  0  0  0  0  0  0  0  0  0  0
   62.7232   -4.0423   24.2204 C   0  0  0  0  0  0  0  0  0  0  0  0
   62.8605   -4.7871   23.0708 C   0  0  0  0  0  0  0  0  0  0  0  0
   62.0513   -4.4948   21.9849 C   0  0  0  0  0  0  0  0  0  0  0  0
   61.1235   -3.4735   22.0567 C   0  0  0  0  0  0  0  0  0  0  0  0
   60.9729   -2.7172   23.2013 C   0  0  0  0  0  0  0  0  0  0  0  0
   60.0047   -1.6312   23.3150 C   0  0  0  0  0  0  0  0  0  0  0  0
   59.9914   -0.5735   22.4290 C   0  0  0  0  0  0  0  0  0  0  0  0
   59.0477   -1.5941   24.3097 C   0  0  0  0  0  0  0  0  0  0  0  0
   58.1330   -0.5668   24.4161 C   0  0  0  0  0  0  0  0  0  0  0  0
   58.1304    0.4847   23.5238 C   0  0  0  0  0  0  0  0  0  0  0  0
   59.0809    0.4608   22.5249 C   0  0  0  0  0  0  0  0  0  0  0  0
   59.0910    1.5829   21.5612 C   0  0  0  0  0  0  0  0  0  0  0  0
   58.5736    1.2439   20.2086 C   0  0  1  0  0  0  0  0  0  0  0  0
   56.8198    0.7856   20.2190 P   0  0  2  0  0  5  0  0  0  0  0  0
   56.3060    0.4606   18.6504 O   0  0  0  0  0  0  0  0  0  0  0  0
   55.9675    1.9182   20.7450 O   0  0  0  0  0  0  0  0  0  0  0  0
   56.5355   -0.5469   21.2150 O   0  0  0  0  0  0  0  0  0  0  0  0
   58.7181    2.7411   19.1753 P   0  0  1  0  0  5  0  0  0  0  0  0
   58.1828    2.4477   17.7751 O   0  0  0  0  0  0  0  0  0  0  0  0
   57.7144    3.9334   19.8323 O   0  0  0  0  0  0  0  0  0  0  0  0
   60.3116    3.2481   19.0493 O   0  0  0  0  0  0  0  0  0  0  0  0
   59.2969    0.2488   19.5736 O   0  0  0  0  0  0  0  0  0  0  0  0
  1  2  2  0
  1  6  1  0
  1  9  1  0
  2  3  1  0
  3  4  2  0
  4  5  1  0
  5  6  2  0
  6  7  1  0
  7  8  1  0
  8  9  2  0
  8 13  1  0
  9 10  1  0
 10 11  2  0
 11 12  1  0
 12 13  2  0
 13 14  1  0
 14 15  2  0
 14 16  1  0
 15 19  1  0
 16 17  2  0
 17 18  1  0
 18 19  2  0
 19 20  1  0
 20 21  1  0
 21 22  1  0
 21 26  1  0
 21 30  1  6
 22 23  1  6
 22 24  2  0
 22 25  1  0
 26 27  2  0
 26 28  1  1
 26 29  1  0
M  END
$$$$
