
     RDKit          3D

 30 33  0  0  0  0  0  0  0  0999 V2000
   62.7859   -2.0027   26.8789 C   0  0  0  0  0  0  0  0  0  0  0  0
   63.5731   -1.8356   27.9938 C   0  0  0  0  0  0  0  0  0  0  0  0
   63.3509   -0.8207   28.8941 C   0  0  0  0  0  0  0  0  0  0  0  0
   62.2987    0.0422   28.6463 C   0  0  0  0  0  0  0  0  0  0  0  0
   61.5123   -0.1289   27.5277 C   0  0  0  0  0  0  0  0  0  0  0  0
   61.7307   -1.1424   26.6246 C   0  0  0  0  0  0  0  0  0  0  0  0
   61.1491   -1.5193   25.5109 O   0  0  0  0  0  0  0  0  0  0  0  0
   61.7164   -2.5619   24.9838 C   0  0  0  0  0  0  0  0  0  0  0  0
   62.7636   -2.8985   25.8278 C   0  0  0  0  0  0  0  0  0  0  0  0
   63.5604   -3.9798   25.5259 C   0  0  0  0  0  0  0  0  0  0  0  0
   63.2919   -4.7077   24.3781 C   0  0  0  0  0  0  0  0  0  0  0  0
   62.2425   -4.3530   23.5523 C   0  0  0  0  0  0  0  0  0  0  0  0
   61.4340   -3.2721   23.8401 C   0  0  0  0  0  0  0  0  0  0  0  0
   60.3170   -2.8668   22.9928 C   0  0  0  0  0  0  0  0  0  0  0  0
   59.9710   -1.5409   22.8313 C   0  0  0  0  0  0  0  0  0  0  0  0
   59.5416   -3.7785   22.3043 C   0  0  0  0  0  0  0  0  0  0  0  0
   58.4859   -3.3941   21.5037 C   0  0  0  0  0  0  0  0  0  0  0  0
   58.1503   -2.0653   21.3507 C   0  0  0  0  0  0  0  0  0  0  0  0
   58.9164   -1.1433   22.0326 C   0  0  0  0  0  0  0  0  0  0  0  0
   58.5672    0.2858   21.8791 C   0  0  0  0  0  0  0  0  0  0  0  0
   59.1641    0.9458   20.6874 C   0  0  1  0  0  0  0  0  0  0  0  0
   58.3648    0.4561   19.1358 P   0  0  2  0  0  5  0  0  0  0  0  0
   58.7545   -1.1395   18.7723 O   0  0  0  0  0  0  0  0  0  0  0  0
   58.8479    1.3096   17.9852 O   0  0  0  0  0  0  0  0  0  0  0  0
   56.6896    0.6444   19.2178 O   0  0  0  0  0  0  0  0  0  0  0  0
   58.9025    2.7429   20.8674 P   0  0  1  0  0  5  0  0  0  0  0  0
   59.3608    3.4546   19.5959 O   0  0  0  0  0  0  0  0  0  0  0  0
   57.2397    3.0223   21.0004 O   0  0  0  0  0  0  0  0  0  0  0  0
   59.7586    3.3599   22.1706 O   0  0  0  0  0  0  0  0  0  0  0  0
   60.5299    0.7504   20.5733 O   0  0  0  0  0  0  0  0  0  0  0  0
  1  2  2  0
  1  6  1  0
  1  9  1  0
  2  3  1  0
  3  4  2  0
  4  5  1  0
  5  6  2  0
  6  7  1  0
  7  8  1  0
  8  9  2  0
  8 13  1  0
  9 10  1  0
 10 11  2  0
 11 12  1  0
 12 13  2  0
 13 14  1  0
 14 15  2  0
 14 16  1  0
 15 19  1  0
 16 17  2  0
 17 18  1  0
 18 19  2  0
 19 20  1  0
 20 21  1  0
 21 22  1  0
 21 26  1  0
 21 30  1  6
 22 23  1  6
 22 24  2  0
 22 25  1  0
 26 27  2  0
 26 28  1  1
 26 29  1  0
M  END
$$$$
