
     RDKit          3D

 30 33  0  0  0  0  0  0  0  0999 V2000
   63.1515   -3.4719   25.8908 C   0  0  0  0  0  0  0  0  0  0  0  0
   64.0489   -4.0576   26.7524 C   0  0  0  0  0  0  0  0  0  0  0  0
   64.5581   -5.3143   26.5266 C   0  0  0  0  0  0  0  0  0  0  0  0
   64.1385   -5.9859   25.3926 C   0  0  0  0  0  0  0  0  0  0  0  0
   63.2390   -5.3952   24.5317 C   0  0  0  0  0  0  0  0  0  0  0  0
   62.7270   -4.1386   24.7535 C   0  0  0  0  0  0  0  0  0  0  0  0
   61.8820   -3.3665   24.1127 O   0  0  0  0  0  0  0  0  0  0  0  0
   61.6936   -2.2312   24.7147 C   0  0  0  0  0  0  0  0  0  0  0  0
   62.4862   -2.2620   25.8518 C   0  0  0  0  0  0  0  0  0  0  0  0
   62.4967   -1.1806   26.7036 C   0  0  0  0  0  0  0  0  0  0  0  0
   61.7089   -0.0825   26.3988 C   0  0  0  0  0  0  0  0  0  0  0  0
   60.9272   -0.0750   25.2595 C   0  0  0  0  0  0  0  0  0  0  0  0
   60.9049   -1.1506   24.3950 C   0  0  0  0  0  0  0  0  0  0  0  0
   60.0927   -1.1796   23.1828 C   0  0  0  0  0  0  0  0  0  0  0  0
   59.3841   -0.0753   22.7561 C   0  0  0  0  0  0  0  0  0  0  0  0
   59.9832   -2.3064   22.3923 C   0  0  0  0  0  0  0  0  0  0  0  0
   59.2152   -2.3326   21.2466 C   0  0  0  0  0  0  0  0  0  0  0  0
   58.5115   -1.2218   20.8309 C   0  0  0  0  0  0  0  0  0  0  0  0
   58.6116   -0.0889   21.6110 C   0  0  0  0  0  0  0  0  0  0  0  0
   57.8612    1.1100   21.1782 C   0  0  0  0  0  0  0  0  0  0  0  0
   58.5006    1.8781   20.0768 C   0  0  1  0  0  0  0  0  0  0  0  0
   57.8663    1.4249   18.4402 P   0  0  2  0  0  5  0  0  0  0  0  0
   58.4787    2.4776   17.2796 O   0  0  0  0  0  0  0  0  0  0  0  0
   56.3591    1.5339   18.3947 O   0  0  0  0  0  0  0  0  0  0  0  0
   58.2559   -0.1695   18.0468 O   0  0  0  0  0  0  0  0  0  0  0  0
   58.0928    3.6390   20.3277 P   0  0  1  0  0  5  0  0  0  0  0  0
   56.5754    3.8134   20.3456 O   0  0  0  0  0  0  0  0  0  0  0  0
   58.6458    4.0946   21.8598 O   0  0  0  0  0  0  0  0  0  0  0  0
   58.7324    4.5967   19.1087 O   0  0  0  0  0  0  0  0  0  0  0  0
   59.8819    1.7853   20.0676 O   0  0  0  0  0  0  0  0  0  0  0  0
  1  2  2  0
  1  6  1  0
  1  9  1  0
  2  3  1  0
  3  4  2  0
  4  5  1  0
  5  6  2  0
  6  7  1  0
  7  8  1  0
  8  9  2  0
  8 13  1  0
  9 10  1  0
 10 11  2  0
 11 12  1  0
 12 13  2  0
 13 14  1  0
 14 15  2  0
 14 16  1  0
 15 19  1  0
 16 17  2  0
 17 18  1  0
 18 19  2  0
 19 20  1  0
 20 21  1  0
 21 22  1  0
 21 26  1  0
 21 30  1  6
 22 23  1  6
 22 24  2  0
 22 25  1  0
 26 27  2  0
 26 28  1  1
 26 29  1  0
M  END
$$$$
