
     RDKit          3D

 30 33  0  0  0  0  0  0  0  0999 V2000
   62.3088   -1.3858   26.9386 C   0  0  0  0  0  0  0  0  0  0  0  0
   62.8433   -0.9843   28.1401 C   0  0  0  0  0  0  0  0  0  0  0  0
   62.5001    0.2120   28.7240 C   0  0  0  0  0  0  0  0  0  0  0  0
   61.5889    1.0148   28.0618 C   0  0  0  0  0  0  0  0  0  0  0  0
   61.0557    0.6085   26.8577 C   0  0  0  0  0  0  0  0  0  0  0  0
   61.3960   -0.5871   26.2701 C   0  0  0  0  0  0  0  0  0  0  0  0
   61.0469   -1.1962   25.1620 O   0  0  0  0  0  0  0  0  0  0  0  0
   61.6428   -2.3411   25.0172 C   0  0  0  0  0  0  0  0  0  0  0  0
   62.4550   -2.4961   26.1300 C   0  0  0  0  0  0  0  0  0  0  0  0
   63.2225   -3.6316   26.2596 C   0  0  0  0  0  0  0  0  0  0  0  0
   63.1617   -4.5959   25.2667 C   0  0  0  0  0  0  0  0  0  0  0  0
   62.3446   -4.4191   24.1667 C   0  0  0  0  0  0  0  0  0  0  0  0
   61.5688   -3.2869   24.0211 C   0  0  0  0  0  0  0  0  0  0  0  0
   60.6940   -3.0645   22.8743 C   0  0  0  0  0  0  0  0  0  0  0  0
   60.6465   -1.8500   22.2211 C   0  0  0  0  0  0  0  0  0  0  0  0
   59.8648   -4.0488   22.3743 C   0  0  0  0  0  0  0  0  0  0  0  0
   59.0383   -3.8373   21.2901 C   0  0  0  0  0  0  0  0  0  0  0  0
   59.0001   -2.6184   20.6460 C   0  0  0  0  0  0  0  0  0  0  0  0
   59.8234   -1.6258   21.1347 C   0  0  0  0  0  0  0  0  0  0  0  0
   59.7921   -0.3126   20.4547 C   0  0  0  0  0  0  0  0  0  0  0  0
   58.4843    0.3922   20.5262 C   0  0  1  0  0  0  0  0  0  0  0  0
   58.6553    2.1968   20.5357 P   0  0  2  0  0  5  0  0  0  0  0  0
   57.1349    2.9142   20.4736 O   0  0  0  0  0  0  0  0  0  0  0  0
   59.4266    2.6737   19.3259 O   0  0  0  0  0  0  0  0  0  0  0  0
   59.4980    2.7301   21.8974 O   0  0  0  0  0  0  0  0  0  0  0  0
   57.5468   -0.0376   19.0207 P   0  0  1  0  0  5  0  0  0  0  0  0
   58.2232    0.5888   17.8028 O   0  0  0  0  0  0  0  0  0  0  0  0
   57.6321   -1.7133   18.8076 O   0  0  0  0  0  0  0  0  0  0  0  0
   55.9655    0.5144   19.1042 O   0  0  0  0  0  0  0  0  0  0  0  0
   57.7067    0.0063   21.6048 O   0  0  0  0  0  0  0  0  0  0  0  0
  1  2  2  0
  1  6  1  0
  1  9  1  0
  2  3  1  0
  3  4  2  0
  4  5  1  0
  5  6  2  0
  6  7  1  0
  7  8  1  0
  8  9  2  0
  8 13  1  0
  9 10  1  0
 10 11  2  0
 11 12  1  0
 12 13  2  0
 13 14  1  0
 14 15  2  0
 14 16  1  0
 15 19  1  0
 16 17  2  0
 17 18  1  0
 18 19  2  0
 19 20  1  0
 20 21  1  0
 21 22  1  0
 21 26  1  0
 21 30  1  1
 22 23  1  6
 22 24  2  0
 22 25  1  0
 26 27  2  0
 26 28  1  6
 26 29  1  0
M  END
$$$$
