
     RDKit          3D

 30 33  0  0  0  0  0  0  0  0999 V2000
   62.8666   -2.2374   26.8603 C   0  0  0  0  0  0  0  0  0  0  0  0
   63.7154   -2.0901   27.9320 C   0  0  0  0  0  0  0  0  0  0  0  0
   63.5406   -1.0963   28.8655 C   0  0  0  0  0  0  0  0  0  0  0  0
   62.4723   -0.2341   28.6971 C   0  0  0  0  0  0  0  0  0  0  0  0
   61.6240   -0.3853   27.6215 C   0  0  0  0  0  0  0  0  0  0  0  0
   61.7949   -1.3778   26.6854 C   0  0  0  0  0  0  0  0  0  0  0  0
   61.1523   -1.7336   25.5987 O   0  0  0  0  0  0  0  0  0  0  0  0
   61.6931   -2.7615   25.0174 C   0  0  0  0  0  0  0  0  0  0  0  0
   62.7882   -3.1105   25.7927 C   0  0  0  0  0  0  0  0  0  0  0  0
   63.5712   -4.1805   25.4223 C   0  0  0  0  0  0  0  0  0  0  0  0
   63.2408   -4.8848   24.2760 C   0  0  0  0  0  0  0  0  0  0  0  0
   62.1444   -4.5181   23.5193 C   0  0  0  0  0  0  0  0  0  0  0  0
   61.3490   -3.4482   23.8763 C   0  0  0  0  0  0  0  0  0  0  0  0
   60.1837   -3.0309   23.1031 C   0  0  0  0  0  0  0  0  0  0  0  0
   59.9005   -1.6996   22.8766 C   0  0  0  0  0  0  0  0  0  0  0  0
   59.2976   -3.9360   22.5535 C   0  0  0  0  0  0  0  0  0  0  0  0
   58.1963   -3.5402   21.8228 C   0  0  0  0  0  0  0  0  0  0  0  0
   57.9244   -2.2061   21.6036 C   0  0  0  0  0  0  0  0  0  0  0  0
   58.8013   -1.2907   22.1468 C   0  0  0  0  0  0  0  0  0  0  0  0
   58.5216    0.1441   21.9211 C   0  0  0  0  0  0  0  0  0  0  0  0
   59.1538    0.7152   20.7020 C   0  0  1  0  0  0  0  0  0  0  0  0
   58.2067    0.3795   19.1932 P   0  0  2  0  0  5  0  0  0  0  0  0
   57.9430   -1.2751   19.0417 O   0  0  0  0  0  0  0  0  0  0  0  0
   58.9676    0.8271   17.9658 O   0  0  0  0  0  0  0  0  0  0  0  0
   56.7366    1.2085   19.1896 O   0  0  0  0  0  0  0  0  0  0  0  0
   59.1937    2.5285   20.9033 P   0  0  1  0  0  5  0  0  0  0  0  0
   59.3228    3.1909   19.5330 O   0  0  0  0  0  0  0  0  0  0  0  0
   57.7043    3.0211   21.5355 O   0  0  0  0  0  0  0  0  0  0  0  0
   60.4832    3.0113   21.8606 O   0  0  0  0  0  0  0  0  0  0  0  0
   60.4628    0.3052   20.5145 O   0  0  0  0  0  0  0  0  0  0  0  0
  1  2  2  0
  1  6  1  0
  1  9  1  0
  2  3  1  0
  3  4  2  0
  4  5  1  0
  5  6  2  0
  6  7  1  0
  7  8  1  0
  8  9  2  0
  8 13  1  0
  9 10  1  0
 10 11  2  0
 11 12  1  0
 12 13  2  0
 13 14  1  0
 14 15  2  0
 14 16  1  0
 15 19  1  0
 16 17  2  0
 17 18  1  0
 18 19  2  0
 19 20  1  0
 20 21  1  0
 21 22  1  0
 21 26  1  0
 21 30  1  6
 22 23  1  6
 22 24  2  0
 22 25  1  0
 26 27  2  0
 26 28  1  1
 26 29  1  0
M  END
$$$$
