
     RDKit          3D

 30 33  0  0  0  0  0  0  0  0999 V2000
   62.5016   -5.1719   20.5081 C   0  0  0  0  0  0  0  0  0  0  0  0
   62.9824   -6.3162   19.9163 C   0  0  0  0  0  0  0  0  0  0  0  0
   62.6884   -6.6380   18.6126 C   0  0  0  0  0  0  0  0  0  0  0  0
   61.8839   -5.7680   17.8993 C   0  0  0  0  0  0  0  0  0  0  0  0
   61.4042   -4.6222   18.4962 C   0  0  0  0  0  0  0  0  0  0  0  0
   61.6956   -4.2962   19.7998 C   0  0  0  0  0  0  0  0  0  0  0  0
   61.3782   -3.2969   20.5879 O   0  0  0  0  0  0  0  0  0  0  0  0
   61.8980   -3.4154   21.7722 C   0  0  0  0  0  0  0  0  0  0  0  0
   62.6208   -4.5984   21.7590 C   0  0  0  0  0  0  0  0  0  0  0  0
   63.2938   -4.9975   22.8917 C   0  0  0  0  0  0  0  0  0  0  0  0
   63.2298   -4.1999   24.0226 C   0  0  0  0  0  0  0  0  0  0  0  0
   62.5029   -3.0249   24.0117 C   0  0  0  0  0  0  0  0  0  0  0  0
   61.8224   -2.6101   22.8849 C   0  0  0  0  0  0  0  0  0  0  0  0
   61.0445   -1.3763   22.8350 C   0  0  0  0  0  0  0  0  0  0  0  0
   59.9459   -1.2426   22.0109 C   0  0  0  0  0  0  0  0  0  0  0  0
   61.3569   -0.2729   23.6040 C   0  0  0  0  0  0  0  0  0  0  0  0
   60.6208    0.8928   23.5559 C   0  0  0  0  0  0  0  0  0  0  0  0
   59.5246    1.0136   22.7278 C   0  0  0  0  0  0  0  0  0  0  0  0
   59.2008   -0.0809   21.9537 C   0  0  0  0  0  0  0  0  0  0  0  0
   58.0283    0.0346   21.0595 C   0  0  0  0  0  0  0  0  0  0  0  0
   58.3356    0.5421   19.6957 C   0  0  1  0  0  0  0  0  0  0  0  0
   56.9393    0.3789   18.5512 P   0  0  2  0  0  5  0  0  0  0  0  0
   56.4077   -1.2170   18.5240 O   0  0  0  0  0  0  0  0  0  0  0  0
   57.3499    0.7396   17.1416 O   0  0  0  0  0  0  0  0  0  0  0  0
   55.6715    1.4101   18.9729 O   0  0  0  0  0  0  0  0  0  0  0  0
   58.6882    2.3266   19.8413 P   0  0  1  0  0  5  0  0  0  0  0  0
   57.7064    2.9617   20.8241 O   0  0  0  0  0  0  0  0  0  0  0  0
   60.2278    2.5057   20.5184 O   0  0  0  0  0  0  0  0  0  0  0  0
   58.5490    3.1023   18.3611 O   0  0  0  0  0  0  0  0  0  0  0  0
   59.4555   -0.0415   19.1281 O   0  0  0  0  0  0  0  0  0  0  0  0
  1  2  2  0
  1  6  1  0
  1  9  1  0
  2  3  1  0
  3  4  2  0
  4  5  1  0
  5  6  2  0
  6  7  1  0
  7  8  1  0
  8  9  2  0
  8 13  1  0
  9 10  1  0
 10 11  2  0
 11 12  1  0
 12 13  2  0
 13 14  1  0
 14 15  2  0
 14 16  1  0
 15 19  1  0
 16 17  2  0
 17 18  1  0
 18 19  2  0
 19 20  1  0
 20 21  1  0
 21 22  1  0
 21 26  1  0
 21 30  1  6
 22 23  1  6
 22 24  2  0
 22 25  1  0
 26 27  2  0
 26 28  1  1
 26 29  1  0
M  END
$$$$
