
     RDKit          3D

 30 33  0  0  0  0  0  0  0  0999 V2000
   62.8595   -3.7374   25.0843 C   0  0  0  0  0  0  0  0  0  0  0  0
   63.5306   -4.8990   25.3860 C   0  0  0  0  0  0  0  0  0  0  0  0
   63.9418   -5.7746   24.4094 C   0  0  0  0  0  0  0  0  0  0  0  0
   63.6591   -5.4528   23.0942 C   0  0  0  0  0  0  0  0  0  0  0  0
   62.9863   -4.2876   22.7963 C   0  0  0  0  0  0  0  0  0  0  0  0
   62.5731   -3.4089   23.7697 C   0  0  0  0  0  0  0  0  0  0  0  0
   61.9339   -2.2635   23.7595 O   0  0  0  0  0  0  0  0  0  0  0  0
   61.7597   -1.7826   24.9533 C   0  0  0  0  0  0  0  0  0  0  0  0
   62.3364   -2.6946   25.8239 C   0  0  0  0  0  0  0  0  0  0  0  0
   62.3085   -2.4534   27.1790 C   0  0  0  0  0  0  0  0  0  0  0  0
   61.7001   -1.2970   27.6393 C   0  0  0  0  0  0  0  0  0  0  0  0
   61.1320   -0.4029   26.7523 C   0  0  0  0  0  0  0  0  0  0  0  0
   61.1512   -0.6292   25.3909 C   0  0  0  0  0  0  0  0  0  0  0  0
   60.5622    0.2912   24.4235 C   0  0  0  0  0  0  0  0  0  0  0  0
   60.3005   -0.0902   23.1236 C   0  0  0  0  0  0  0  0  0  0  0  0
   60.2321    1.5925   24.7462 C   0  0  0  0  0  0  0  0  0  0  0  0
   59.6754    2.4616   23.8308 C   0  0  0  0  0  0  0  0  0  0  0  0
   59.4187    2.0679   22.5343 C   0  0  0  0  0  0  0  0  0  0  0  0
   59.7434    0.7705   22.1978 C   0  0  0  0  0  0  0  0  0  0  0  0
   59.4751    0.3345   20.8101 C   0  0  0  0  0  0  0  0  0  0  0  0
   58.0479    0.4154   20.3993 C   0  0  1  0  0  0  0  0  0  0  0  0
   57.7391    1.7161   19.1750 P   0  0  2  0  0  5  0  0  0  0  0  0
   56.1532    1.6149   18.6229 O   0  0  0  0  0  0  0  0  0  0  0  0
   58.6437    1.5550   17.9743 O   0  0  0  0  0  0  0  0  0  0  0  0
   58.0389    3.2493   19.8138 O   0  0  0  0  0  0  0  0  0  0  0  0
   57.6163   -1.1682   19.6018 P   0  0  1  0  0  5  0  0  0  0  0  0
   57.2788   -2.2032   20.6732 O   0  0  0  0  0  0  0  0  0  0  0  0
   56.2055   -0.9357   18.6984 O   0  0  0  0  0  0  0  0  0  0  0  0
   58.8820   -1.7499   18.6682 O   0  0  0  0  0  0  0  0  0  0  0  0
   57.1753    0.5786   21.4617 O   0  0  0  0  0  0  0  0  0  0  0  0
  1  2  2  0
  1  6  1  0
  1  9  1  0
  2  3  1  0
  3  4  2  0
  4  5  1  0
  5  6  2  0
  6  7  1  0
  7  8  1  0
  8  9  2  0
  8 13  1  0
  9 10  1  0
 10 11  2  0
 11 12  1  0
 12 13  2  0
 13 14  1  0
 14 15  2  0
 14 16  1  0
 15 19  1  0
 16 17  2  0
 17 18  1  0
 18 19  2  0
 19 20  1  0
 20 21  1  0
 21 22  1  0
 21 26  1  0
 21 30  1  1
 22 23  1  6
 22 24  2  0
 22 25  1  0
 26 27  2  0
 26 28  1  6
 26 29  1  0
M  END
$$$$
