
     RDKit          3D

 30 33  0  0  0  0  0  0  0  0999 V2000
   63.3807   -3.8606   26.3768 C   0  0  0  0  0  0  0  0  0  0  0  0
   64.1527   -4.7111   27.1326 C   0  0  0  0  0  0  0  0  0  0  0  0
   64.5583   -4.3861   28.4052 C   0  0  0  0  0  0  0  0  0  0  0  0
   64.1640   -3.1622   28.9148 C   0  0  0  0  0  0  0  0  0  0  0  0
   63.3902   -2.3128   28.1540 C   0  0  0  0  0  0  0  0  0  0  0  0
   62.9822   -2.6336   26.8807 C   0  0  0  0  0  0  0  0  0  0  0  0
   62.2630   -2.0254   25.9678 O   0  0  0  0  0  0  0  0  0  0  0  0
   62.1366   -2.7315   24.8851 C   0  0  0  0  0  0  0  0  0  0  0  0
   62.8356   -3.9078   25.1085 C   0  0  0  0  0  0  0  0  0  0  0  0
   62.8830   -4.8688   24.1240 C   0  0  0  0  0  0  0  0  0  0  0  0
   62.2259   -4.6324   22.9275 C   0  0  0  0  0  0  0  0  0  0  0  0
   61.5356   -3.4523   22.7280 C   0  0  0  0  0  0  0  0  0  0  0  0
   61.4779   -2.4784   23.7043 C   0  0  0  0  0  0  0  0  0  0  0  0
   60.7595   -1.2200   23.5307 C   0  0  0  0  0  0  0  0  0  0  0  0
   59.7603   -1.0774   22.5899 C   0  0  0  0  0  0  0  0  0  0  0  0
   61.0327   -0.1009   24.2918 C   0  0  0  0  0  0  0  0  0  0  0  0
   60.3528    1.0881   24.1267 C   0  0  0  0  0  0  0  0  0  0  0  0
   59.3560    1.2176   23.1826 C   0  0  0  0  0  0  0  0  0  0  0  0
   59.0723    0.1076   22.4149 C   0  0  0  0  0  0  0  0  0  0  0  0
   58.0063    0.2321   21.3971 C   0  0  0  0  0  0  0  0  0  0  0  0
   58.4880    0.5779   20.0332 C   0  0  1  0  0  0  0  0  0  0  0  0
   57.2972    0.1499   18.7351 P   0  0  2  0  0  5  0  0  0  0  0  0
   57.8468    0.7140   17.2485 O   0  0  0  0  0  0  0  0  0  0  0  0
   55.9571    0.7999   18.9944 O   0  0  0  0  0  0  0  0  0  0  0  0
   57.0308   -1.5152   18.6662 O   0  0  0  0  0  0  0  0  0  0  0  0
   58.7033    2.3890   19.9706 P   0  0  1  0  0  5  0  0  0  0  0  0
   59.4194    2.8612   21.2344 O   0  0  0  0  0  0  0  0  0  0  0  0
   59.7274    2.7532   18.6747 O   0  0  0  0  0  0  0  0  0  0  0  0
   57.2282    3.1786   19.8583 O   0  0  0  0  0  0  0  0  0  0  0  0
   59.7158    0.0187   19.7223 O   0  0  0  0  0  0  0  0  0  0  0  0
  1  2  2  0
  1  6  1  0
  1  9  1  0
  2  3  1  0
  3  4  2  0
  4  5  1  0
  5  6  2  0
  6  7  1  0
  7  8  1  0
  8  9  2  0
  8 13  1  0
  9 10  1  0
 10 11  2  0
 11 12  1  0
 12 13  2  0
 13 14  1  0
 14 15  2  0
 14 16  1  0
 15 19  1  0
 16 17  2  0
 17 18  1  0
 18 19  2  0
 19 20  1  0
 20 21  1  0
 21 22  1  0
 21 26  1  0
 21 30  1  6
 22 23  1  6
 22 24  2  0
 22 25  1  0
 26 27  2  0
 26 28  1  6
 26 29  1  0
M  END
$$$$
