
     RDKit          3D

 30 33  0  0  0  0  0  0  0  0999 V2000
   63.4980   -5.1794   21.5775 C   0  0  0  0  0  0  0  0  0  0  0  0
   64.4557   -6.0612   21.1349 C   0  0  0  0  0  0  0  0  0  0  0  0
   64.5137   -6.4728   19.8246 C   0  0  0  0  0  0  0  0  0  0  0  0
   63.5693   -5.9696   18.9482 C   0  0  0  0  0  0  0  0  0  0  0  0
   62.6112   -5.0861   19.3960 C   0  0  0  0  0  0  0  0  0  0  0  0
   62.5493   -4.6716   20.7056 C   0  0  0  0  0  0  0  0  0  0  0  0
   61.7634   -3.8624   21.3750 O   0  0  0  0  0  0  0  0  0  0  0  0
   62.0940   -3.7746   22.6279 C   0  0  0  0  0  0  0  0  0  0  0  0
   63.1954   -4.6001   22.7944 C   0  0  0  0  0  0  0  0  0  0  0  0
   63.7783   -4.7151   24.0363 C   0  0  0  0  0  0  0  0  0  0  0  0
   63.2442   -3.9971   25.0939 C   0  0  0  0  0  0  0  0  0  0  0  0
   62.1460   -3.1806   24.9035 C   0  0  0  0  0  0  0  0  0  0  0  0
   61.5495   -3.0539   23.6653 C   0  0  0  0  0  0  0  0  0  0  0  0
   60.3890   -2.2021   23.4252 C   0  0  0  0  0  0  0  0  0  0  0  0
   60.3758   -1.2586   22.4185 C   0  0  0  0  0  0  0  0  0  0  0  0
   59.2394   -2.2863   24.1853 C   0  0  0  0  0  0  0  0  0  0  0  0
   58.1430   -1.4805   23.9573 C   0  0  0  0  0  0  0  0  0  0  0  0
   58.1426   -0.5412   22.9476 C   0  0  0  0  0  0  0  0  0  0  0  0
   59.2845   -0.4460   22.1802 C   0  0  0  0  0  0  0  0  0  0  0  0
   59.2990    0.5582   21.0943 C   0  0  0  0  0  0  0  0  0  0  0  0
   58.4370    0.2245   19.9290 C   0  0  1  0  0  0  0  0  0  0  0  0
   56.6790    0.1213   20.3590 P   0  0  2  0  0  5  0  0  0  0  0  0
   55.7512    0.0667   18.9567 O   0  0  0  0  0  0  0  0  0  0  0  0
   56.2406    1.3391   21.1404 O   0  0  0  0  0  0  0  0  0  0  0  0
   56.3576   -1.2246   21.3253 O   0  0  0  0  0  0  0  0  0  0  0  0
   58.6020    1.5804   18.7189 P   0  0  1  0  0  5  0  0  0  0  0  0
   57.5929    1.3815   17.5897 O   0  0  0  0  0  0  0  0  0  0  0  0
   58.1817    3.0269   19.4882 O   0  0  0  0  0  0  0  0  0  0  0  0
   60.1442    1.6326   18.0625 O   0  0  0  0  0  0  0  0  0  0  0  0
   58.8123   -0.9389   19.2791 O   0  0  0  0  0  0  0  0  0  0  0  0
  1  2  2  0
  1  6  1  0
  1  9  1  0
  2  3  1  0
  3  4  2  0
  4  5  1  0
  5  6  2  0
  6  7  1  0
  7  8  1  0
  8  9  2  0
  8 13  1  0
  9 10  1  0
 10 11  2  0
 11 12  1  0
 12 13  2  0
 13 14  1  0
 14 15  2  0
 14 16  1  0
 15 19  1  0
 16 17  2  0
 17 18  1  0
 18 19  2  0
 19 20  1  0
 20 21  1  0
 21 22  1  0
 21 26  1  0
 21 30  1  6
 22 23  1  6
 22 24  2  0
 22 25  1  0
 26 27  2  0
 26 28  1  1
 26 29  1  0
M  END
$$$$
