
     RDKit          3D

 30 33  0  0  0  0  0  0  0  0999 V2000
   63.5988   -3.9515   25.9089 C   0  0  0  0  0  0  0  0  0  0  0  0
   64.4011   -4.8757   26.5356 C   0  0  0  0  0  0  0  0  0  0  0  0
   65.1480   -4.5557   27.6444 C   0  0  0  0  0  0  0  0  0  0  0  0
   65.0709   -3.2599   28.1218 C   0  0  0  0  0  0  0  0  0  0  0  0
   64.2655   -2.3367   27.4907 C   0  0  0  0  0  0  0  0  0  0  0  0
   63.5168   -2.6522   26.3814 C   0  0  0  0  0  0  0  0  0  0  0  0
   62.6918   -1.9834   25.6116 O   0  0  0  0  0  0  0  0  0  0  0  0
   62.2041   -2.7142   24.6551 C   0  0  0  0  0  0  0  0  0  0  0  0
   62.7593   -3.9749   24.8122 C   0  0  0  0  0  0  0  0  0  0  0  0
   62.4255   -4.9800   23.9327 C   0  0  0  0  0  0  0  0  0  0  0  0
   61.5370   -4.7021   22.9068 C   0  0  0  0  0  0  0  0  0  0  0  0
   60.9966   -3.4379   22.7705 C   0  0  0  0  0  0  0  0  0  0  0  0
   61.3204   -2.4189   23.6432 C   0  0  0  0  0  0  0  0  0  0  0  0
   60.7705   -1.0716   23.5316 C   0  0  0  0  0  0  0  0  0  0  0  0
   60.4929   -0.4990   22.3073 C   0  0  0  0  0  0  0  0  0  0  0  0
   60.4956   -0.2908   24.6367 C   0  0  0  0  0  0  0  0  0  0  0  0
   59.9758    0.9827   24.5299 C   0  0  0  0  0  0  0  0  0  0  0  0
   59.7027    1.5436   23.3000 C   0  0  0  0  0  0  0  0  0  0  0  0
   59.9724    0.7748   22.1872 C   0  0  0  0  0  0  0  0  0  0  0  0
   59.6858    1.3640   20.8611 C   0  0  0  0  0  0  0  0  0  0  0  0
   58.2396    1.4890   20.5371 C   0  0  1  0  0  0  0  0  0  0  0  0
   57.7206    3.2066   20.2790 P   0  0  2  0  0  5  0  0  0  0  0  0
   57.6138    3.9987   21.7594 O   0  0  0  0  0  0  0  0  0  0  0  0
   56.3531    3.2681   19.6372 O   0  0  0  0  0  0  0  0  0  0  0  0
   58.7822    4.0250   19.2535 O   0  0  0  0  0  0  0  0  0  0  0  0
   57.9528    0.6125   18.9624 P   0  0  1  0  0  5  0  0  0  0  0  0
   58.8779    1.1796   17.8874 O   0  0  0  0  0  0  0  0  0  0  0  0
   58.3968   -1.0060   19.1721 O   0  0  0  0  0  0  0  0  0  0  0  0
   56.3645    0.7761   18.4497 O   0  0  0  0  0  0  0  0  0  0  0  0
   57.4098    0.9027   21.4776 O   0  0  0  0  0  0  0  0  0  0  0  0
  1  2  2  0
  1  6  1  0
  1  9  1  0
  2  3  1  0
  3  4  2  0
  4  5  1  0
  5  6  2  0
  6  7  1  0
  7  8  1  0
  8  9  2  0
  8 13  1  0
  9 10  1  0
 10 11  2  0
 11 12  1  0
 12 13  2  0
 13 14  1  0
 14 15  2  0
 14 16  1  0
 15 19  1  0
 16 17  2  0
 17 18  1  0
 18 19  2  0
 19 20  1  0
 20 21  1  0
 21 22  1  0
 21 26  1  0
 21 30  1  1
 22 23  1  1
 22 24  2  0
 22 25  1  0
 26 27  2  0
 26 28  1  1
 26 29  1  0
M  END
$$$$
