
     RDKit          3D

 30 33  0  0  0  0  0  0  0  0999 V2000
   64.1659   -3.7379   26.1210 C   0  0  0  0  0  0  0  0  0  0  0  0
   65.1360   -4.5461   26.6655 C   0  0  0  0  0  0  0  0  0  0  0  0
   65.2208   -4.7676   28.0195 C   0  0  0  0  0  0  0  0  0  0  0  0
   64.2908   -4.1471   28.8339 C   0  0  0  0  0  0  0  0  0  0  0  0
   63.3202   -3.3379   28.2841 C   0  0  0  0  0  0  0  0  0  0  0  0
   63.2315   -3.1135   26.9305 C   0  0  0  0  0  0  0  0  0  0  0  0
   62.4291   -2.4091   26.1685 O   0  0  0  0  0  0  0  0  0  0  0  0
   62.7355   -2.4992   24.9096 C   0  0  0  0  0  0  0  0  0  0  0  0
   63.8374   -3.3377   24.8405 C   0  0  0  0  0  0  0  0  0  0  0  0
   64.3972   -3.6265   23.6163 C   0  0  0  0  0  0  0  0  0  0  0  0
   63.8398   -3.0668   22.4782 C   0  0  0  0  0  0  0  0  0  0  0  0
   62.7414   -2.2339   22.5723 C   0  0  0  0  0  0  0  0  0  0  0  0
   62.1680   -1.9340   23.7913 C   0  0  0  0  0  0  0  0  0  0  0  0
   61.0082   -1.0592   23.9308 C   0  0  0  0  0  0  0  0  0  0  0  0
   60.0745   -0.9240   22.9239 C   0  0  0  0  0  0  0  0  0  0  0  0
   60.7742   -0.3168   25.0712 C   0  0  0  0  0  0  0  0  0  0  0  0
   59.6775    0.5099   25.2018 C   0  0  0  0  0  0  0  0  0  0  0  0
   58.7514    0.6361   24.1878 C   0  0  0  0  0  0  0  0  0  0  0  0
   58.9724   -0.0997   23.0425 C   0  0  0  0  0  0  0  0  0  0  0  0
   57.9880    0.0267   21.9458 C   0  0  0  0  0  0  0  0  0  0  0  0
   58.5029    0.7018   20.7247 C   0  0  1  0  0  0  0  0  0  0  0  0
   57.4402    0.4490   19.2780 P   0  0  2  0  0  5  0  0  0  0  0  0
   58.0993    1.2314   17.9425 O   0  0  0  0  0  0  0  0  0  0  0  0
   56.0651    1.0340   19.5077 O   0  0  0  0  0  0  0  0  0  0  0  0
   57.2271   -1.1923   18.9475 O   0  0  0  0  0  0  0  0  0  0  0  0
   58.5191    2.4963   21.0560 P   0  0  1  0  0  5  0  0  0  0  0  0
   57.2035    2.9049   21.7157 O   0  0  0  0  0  0  0  0  0  0  0  0
   59.7395    2.8126   22.1836 O   0  0  0  0  0  0  0  0  0  0  0  0
   58.7124    3.3792   19.6435 O   0  0  0  0  0  0  0  0  0  0  0  0
   59.8003    0.3436   20.4004 O   0  0  0  0  0  0  0  0  0  0  0  0
  1  2  2  0
  1  6  1  0
  1  9  1  0
  2  3  1  0
  3  4  2  0
  4  5  1  0
  5  6  2  0
  6  7  1  0
  7  8  1  0
  8  9  2  0
  8 13  1  0
  9 10  1  0
 10 11  2  0
 11 12  1  0
 12 13  2  0
 13 14  1  0
 14 15  2  0
 14 16  1  0
 15 19  1  0
 16 17  2  0
 17 18  1  0
 18 19  2  0
 19 20  1  0
 20 21  1  0
 21 22  1  0
 21 26  1  0
 21 30  1  6
 22 23  1  6
 22 24  2  0
 22 25  1  0
 26 27  2  0
 26 28  1  1
 26 29  1  0
M  END
$$$$
