
     RDKit          3D

 30 33  0  0  0  0  0  0  0  0999 V2000
   63.2142   -4.5494   24.5577 C   0  0  0  0  0  0  0  0  0  0  0  0
   64.0350   -5.5972   24.9026 C   0  0  0  0  0  0  0  0  0  0  0  0
   65.2205   -5.4016   25.5705 C   0  0  0  0  0  0  0  0  0  0  0  0
   65.5728   -4.1033   25.8921 C   0  0  0  0  0  0  0  0  0  0  0  0
   64.7472   -3.0560   25.5445 C   0  0  0  0  0  0  0  0  0  0  0  0
   63.5607   -3.2469   24.8765 C   0  0  0  0  0  0  0  0  0  0  0  0
   62.6161   -2.4488   24.4391 O   0  0  0  0  0  0  0  0  0  0  0  0
   61.6556   -3.0943   23.8496 C   0  0  0  0  0  0  0  0  0  0  0  0
   62.0018   -4.4357   23.9058 C   0  0  0  0  0  0  0  0  0  0  0  0
   61.1640   -5.3785   23.3540 C   0  0  0  0  0  0  0  0  0  0  0  0
   59.9888   -4.9579   22.7529 C   0  0  0  0  0  0  0  0  0  0  0  0
   59.6652   -3.6154   22.7092 C   0  0  0  0  0  0  0  0  0  0  0  0
   60.4935   -2.6572   23.2574 C   0  0  0  0  0  0  0  0  0  0  0  0
   60.1860   -1.2308   23.2308 C   0  0  0  0  0  0  0  0  0  0  0  0
   59.2439   -0.7063   22.3699 C   0  0  0  0  0  0  0  0  0  0  0  0
   60.8141   -0.3228   24.0599 C   0  0  0  0  0  0  0  0  0  0  0  0
   60.5225    1.0254   24.0338 C   0  0  0  0  0  0  0  0  0  0  0  0
   59.5786    1.5370   23.1684 C   0  0  0  0  0  0  0  0  0  0  0  0
   58.9429    0.6413   22.3342 C   0  0  0  0  0  0  0  0  0  0  0  0
   57.9290    1.1760   21.3994 C   0  0  0  0  0  0  0  0  0  0  0  0
   58.3556    1.2112   19.9750 C   0  0  1  0  0  0  0  0  0  0  0  0
   57.2906    0.2184   18.8951 P   0  0  2  0  0  5  0  0  0  0  0  0
   57.8395    0.3148   17.3078 O   0  0  0  0  0  0  0  0  0  0  0  0
   55.8702    0.7362   18.9113 O   0  0  0  0  0  0  0  0  0  0  0  0
   57.2323   -1.3921   19.3966 O   0  0  0  0  0  0  0  0  0  0  0  0
   58.2166    2.9388   19.4037 P   0  0  1  0  0  5  0  0  0  0  0  0
   58.8421    3.8704   20.4401 O   0  0  0  0  0  0  0  0  0  0  0  0
   59.1367    3.1030   17.9941 O   0  0  0  0  0  0  0  0  0  0  0  0
   56.6156    3.3823   19.1748 O   0  0  0  0  0  0  0  0  0  0  0  0
   59.6731    0.8317   19.7831 O   0  0  0  0  0  0  0  0  0  0  0  0
  1  2  2  0
  1  6  1  0
  1  9  1  0
  2  3  1  0
  3  4  2  0
  4  5  1  0
  5  6  2  0
  6  7  1  0
  7  8  1  0
  8  9  2  0
  8 13  1  0
  9 10  1  0
 10 11  2  0
 11 12  1  0
 12 13  2  0
 13 14  1  0
 14 15  2  0
 14 16  1  0
 15 19  1  0
 16 17  2  0
 17 18  1  0
 18 19  2  0
 19 20  1  0
 20 21  1  0
 21 22  1  0
 21 26  1  0
 21 30  1  1
 22 23  1  6
 22 24  2  0
 22 25  1  0
 26 27  2  0
 26 28  1  6
 26 29  1  0
M  END
$$$$
