
     RDKit          3D

 30 33  0  0  0  0  0  0  0  0999 V2000
   62.7111   -3.8184   25.1648 C   0  0  0  0  0  0  0  0  0  0  0  0
   63.3240   -4.9901   25.5419 C   0  0  0  0  0  0  0  0  0  0  0  0
   63.8131   -5.8835   24.6187 C   0  0  0  0  0  0  0  0  0  0  0  0
   63.6711   -5.5693   23.2793 C   0  0  0  0  0  0  0  0  0  0  0  0
   63.0562   -4.3939   22.9057 C   0  0  0  0  0  0  0  0  0  0  0  0
   62.5655   -3.4974   23.8255 C   0  0  0  0  0  0  0  0  0  0  0  0
   61.9547   -2.3396   23.7417 O   0  0  0  0  0  0  0  0  0  0  0  0
   61.6713   -1.8434   24.9080 C   0  0  0  0  0  0  0  0  0  0  0  0
   62.1382   -2.7580   25.8395 C   0  0  0  0  0  0  0  0  0  0  0  0
   61.9790   -2.5027   27.1829 C   0  0  0  0  0  0  0  0  0  0  0  0
   61.3517   -1.3298   27.5703 C   0  0  0  0  0  0  0  0  0  0  0  0
   60.8947   -0.4334   26.6234 C   0  0  0  0  0  0  0  0  0  0  0  0
   61.0461   -0.6737   25.2728 C   0  0  0  0  0  0  0  0  0  0  0  0
   60.5769    0.2486   24.2436 C   0  0  0  0  0  0  0  0  0  0  0  0
   60.1708   -0.1941   23.0014 C   0  0  0  0  0  0  0  0  0  0  0  0
   60.5103    1.6127   24.4470 C   0  0  0  0  0  0  0  0  0  0  0  0
   60.0666    2.4834   23.4733 C   0  0  0  0  0  0  0  0  0  0  0  0
   59.6635    2.0281   22.2355 C   0  0  0  0  0  0  0  0  0  0  0  0
   59.7246    0.6675   22.0183 C   0  0  0  0  0  0  0  0  0  0  0  0
   59.2967    0.1647   20.6947 C   0  0  0  0  0  0  0  0  0  0  0  0
   57.8266    0.1821   20.4700 C   0  0  1  0  0  0  0  0  0  0  0  0
   57.0862    1.8091   20.7721 P   0  0  2  0  0  5  0  0  0  0  0  0
   55.5482    1.8707   20.0933 O   0  0  0  0  0  0  0  0  0  0  0  0
   57.9055    2.9044   20.1281 O   0  0  0  0  0  0  0  0  0  0  0  0
   57.0113    2.1567   22.4220 O   0  0  0  0  0  0  0  0  0  0  0  0
   57.5361   -0.2075   18.7110 P   0  0  1  0  0  5  0  0  0  0  0  0
   58.3085    0.7781   17.8363 O   0  0  0  0  0  0  0  0  0  0  0  0
   58.1844   -1.7377   18.3966 O   0  0  0  0  0  0  0  0  0  0  0  0
   55.9075   -0.1134   18.3226 O   0  0  0  0  0  0  0  0  0  0  0  0
   57.1433   -0.7693   21.2081 O   0  0  0  0  0  0  0  0  0  0  0  0
  1  2  2  0
  1  6  1  0
  1  9  1  0
  2  3  1  0
  3  4  2  0
  4  5  1  0
  5  6  2  0
  6  7  1  0
  7  8  1  0
  8  9  2  0
  8 13  1  0
  9 10  1  0
 10 11  2  0
 11 12  1  0
 12 13  2  0
 13 14  1  0
 14 15  2  0
 14 16  1  0
 15 19  1  0
 16 17  2  0
 17 18  1  0
 18 19  2  0
 19 20  1  0
 20 21  1  0
 21 22  1  0
 21 26  1  0
 21 30  1  1
 22 23  1  6
 22 24  2  0
 22 25  1  0
 26 27  2  0
 26 28  1  1
 26 29  1  0
M  END
$$$$
