
     RDKit          3D

 30 33  0  0  0  0  0  0  0  0999 V2000
   62.7564   -3.7505   24.4766 C   0  0  0  0  0  0  0  0  0  0  0  0
   63.4385   -4.9373   24.6065 C   0  0  0  0  0  0  0  0  0  0  0  0
   63.5483   -5.8294   23.5663 C   0  0  0  0  0  0  0  0  0  0  0  0
   62.9457   -5.4979   22.3663 C   0  0  0  0  0  0  0  0  0  0  0  0
   62.2630   -4.3074   22.2405 C   0  0  0  0  0  0  0  0  0  0  0  0
   62.1507   -3.4122   23.2780 C   0  0  0  0  0  0  0  0  0  0  0  0
   61.5745   -2.2425   23.4215 O   0  0  0  0  0  0  0  0  0  0  0  0
   61.7351   -1.7541   24.6141 C   0  0  0  0  0  0  0  0  0  0  0  0
   62.4834   -2.6873   25.3150 C   0  0  0  0  0  0  0  0  0  0  0  0
   62.8180   -2.4440   26.6281 C   0  0  0  0  0  0  0  0  0  0  0  0
   62.3944   -1.2641   27.2177 C   0  0  0  0  0  0  0  0  0  0  0  0
   61.6494   -0.3490   26.4989 C   0  0  0  0  0  0  0  0  0  0  0  0
   61.3053   -0.5772   25.1819 C   0  0  0  0  0  0  0  0  0  0  0  0
   60.5202    0.3648   24.3906 C   0  0  0  0  0  0  0  0  0  0  0  0
   59.7213   -0.0526   23.3459 C   0  0  0  0  0  0  0  0  0  0  0  0
   60.5276    1.7236   24.6360 C   0  0  0  0  0  0  0  0  0  0  0  0
   59.7850    2.6130   23.8872 C   0  0  0  0  0  0  0  0  0  0  0  0
   58.9903    2.1829   22.8454 C   0  0  0  0  0  0  0  0  0  0  0  0
   58.9732    0.8279   22.5889 C   0  0  0  0  0  0  0  0  0  0  0  0
   58.1263    0.3520   21.4735 C   0  0  0  0  0  0  0  0  0  0  0  0
   58.7321    0.5081   20.1241 C   0  0  1  0  0  0  0  0  0  0  0  0
   57.9099   -0.4994   18.8611 P   0  0  2  0  0  5  0  0  0  0  0  0
   58.6596   -0.2713   17.3725 O   0  0  0  0  0  0  0  0  0  0  0  0
   56.4625   -0.0925   18.7020 O   0  0  0  0  0  0  0  0  0  0  0  0
   57.9177   -2.1356   19.2749 O   0  0  0  0  0  0  0  0  0  0  0  0
   58.5187    2.2505   19.6255 P   0  0  1  0  0  5  0  0  0  0  0  0
   57.0371    2.6183   19.6791 O   0  0  0  0  0  0  0  0  0  0  0  0
   59.2962    3.2245   20.7689 O   0  0  0  0  0  0  0  0  0  0  0  0
   59.0858    2.5174   18.0701 O   0  0  0  0  0  0  0  0  0  0  0  0
   60.0916    0.2479   20.0951 O   0  0  0  0  0  0  0  0  0  0  0  0
  1  2  2  0
  1  6  1  0
  1  9  1  0
  2  3  1  0
  3  4  2  0
  4  5  1  0
  5  6  2  0
  6  7  1  0
  7  8  1  0
  8  9  2  0
  8 13  1  0
  9 10  1  0
 10 11  2  0
 11 12  1  0
 12 13  2  0
 13 14  1  0
 14 15  2  0
 14 16  1  0
 15 19  1  0
 16 17  2  0
 17 18  1  0
 18 19  2  0
 19 20  1  0
 20 21  1  0
 21 22  1  0
 21 26  1  0
 21 30  1  1
 22 23  1  6
 22 24  2  0
 22 25  1  0
 26 27  2  0
 26 28  1  1
 26 29  1  0
M  END
$$$$
