
     RDKit          3D

 30 33  0  0  0  0  0  0  0  0999 V2000
   63.2773   -2.2596   27.2847 C   0  0  0  0  0  0  0  0  0  0  0  0
   64.0432   -2.4239   28.4147 C   0  0  0  0  0  0  0  0  0  0  0  0
   64.8971   -3.4907   28.5644 C   0  0  0  0  0  0  0  0  0  0  0  0
   64.9678   -4.4098   27.5331 C   0  0  0  0  0  0  0  0  0  0  0  0
   64.1984   -4.2413   26.4023 C   0  0  0  0  0  0  0  0  0  0  0  0
   63.3430   -3.1759   26.2482 C   0  0  0  0  0  0  0  0  0  0  0  0
   62.5218   -2.7889   25.3014 O   0  0  0  0  0  0  0  0  0  0  0  0
   61.9018   -1.6882   25.6026 C   0  0  0  0  0  0  0  0  0  0  0  0
   62.3576   -1.3209   26.8594 C   0  0  0  0  0  0  0  0  0  0  0  0
   61.8729   -0.1765   27.4515 C   0  0  0  0  0  0  0  0  0  0  0  0
   60.9357    0.5828   26.7701 C   0  0  0  0  0  0  0  0  0  0  0  0
   60.4965    0.1964   25.5183 C   0  0  0  0  0  0  0  0  0  0  0  0
   60.9719   -0.9477   24.9103 C   0  0  0  0  0  0  0  0  0  0  0  0
   60.5323   -1.3880   23.5902 C   0  0  0  0  0  0  0  0  0  0  0  0
   60.3644   -0.5009   22.5468 C   0  0  0  0  0  0  0  0  0  0  0  0
   60.2588   -2.7109   23.3044 C   0  0  0  0  0  0  0  0  0  0  0  0
   59.8433   -3.1258   22.0560 C   0  0  0  0  0  0  0  0  0  0  0  0
   59.6793   -2.2288   21.0214 C   0  0  0  0  0  0  0  0  0  0  0  0
   59.9490   -0.9038   21.2925 C   0  0  0  0  0  0  0  0  0  0  0  0
   59.7761    0.0700   20.1927 C   0  0  0  0  0  0  0  0  0  0  0  0
   58.4318    0.7032   20.1301 C   0  0  1  0  0  0  0  0  0  0  0  0
   58.4555    2.3314   19.3336 P   0  0  2  0  0  5  0  0  0  0  0  0
   56.8842    2.9103   19.1722 O   0  0  0  0  0  0  0  0  0  0  0  0
   59.0475    2.2461   17.9451 O   0  0  0  0  0  0  0  0  0  0  0  0
   59.3968    3.4303   20.2025 O   0  0  0  0  0  0  0  0  0  0  0  0
   57.3688   -0.3672   19.1033 P   0  0  1  0  0  5  0  0  0  0  0  0
   56.0421    0.3401   18.8334 O   0  0  0  0  0  0  0  0  0  0  0  0
   58.1190   -0.5688   17.6009 O   0  0  0  0  0  0  0  0  0  0  0  0
   57.0568   -1.8302   19.8611 O   0  0  0  0  0  0  0  0  0  0  0  0
   57.8146    0.8130   21.3646 O   0  0  0  0  0  0  0  0  0  0  0  0
  1  2  2  0
  1  6  1  0
  1  9  1  0
  2  3  1  0
  3  4  2  0
  4  5  1  0
  5  6  2  0
  6  7  1  0
  7  8  1  0
  8  9  2  0
  8 13  1  0
  9 10  1  0
 10 11  2  0
 11 12  1  0
 12 13  2  0
 13 14  1  0
 14 15  2  0
 14 16  1  0
 15 19  1  0
 16 17  2  0
 17 18  1  0
 18 19  2  0
 19 20  1  0
 20 21  1  0
 21 22  1  0
 21 26  1  0
 21 30  1  1
 22 23  1  6
 22 24  2  0
 22 25  1  0
 26 27  2  0
 26 28  1  6
 26 29  1  0
M  END
$$$$
