
     RDKit          3D

 30 33  0  0  0  0  0  0  0  0999 V2000
   63.2921   -2.6685   26.8487 C   0  0  0  0  0  0  0  0  0  0  0  0
   64.0962   -2.9838   27.9185 C   0  0  0  0  0  0  0  0  0  0  0  0
   64.8877   -4.1077   27.9256 C   0  0  0  0  0  0  0  0  0  0  0  0
   64.8546   -4.9268   26.8115 C   0  0  0  0  0  0  0  0  0  0  0  0
   64.0472   -4.6070   25.7414 C   0  0  0  0  0  0  0  0  0  0  0  0
   63.2539   -3.4840   25.7299 C   0  0  0  0  0  0  0  0  0  0  0  0
   62.4168   -2.9616   24.8657 O   0  0  0  0  0  0  0  0  0  0  0  0
   61.8809   -1.8605   25.2983 C   0  0  0  0  0  0  0  0  0  0  0  0
   62.4146   -1.6417   26.5590 C   0  0  0  0  0  0  0  0  0  0  0  0
   62.0294   -0.5329   27.2782 C   0  0  0  0  0  0  0  0  0  0  0  0
   61.1118    0.3409   26.7181 C   0  0  0  0  0  0  0  0  0  0  0  0
   60.5936    0.1018   25.4598 C   0  0  0  0  0  0  0  0  0  0  0  0
   60.9689   -1.0048   24.7254 C   0  0  0  0  0  0  0  0  0  0  0  0
   60.4439   -1.2910   23.3941 C   0  0  0  0  0  0  0  0  0  0  0  0
   60.2686   -0.2974   22.4528 C   0  0  0  0  0  0  0  0  0  0  0  0
   60.0920   -2.5653   22.9956 C   0  0  0  0  0  0  0  0  0  0  0  0
   59.5958   -2.8346   21.7368 C   0  0  0  0  0  0  0  0  0  0  0  0
   59.4254   -1.8323   20.8051 C   0  0  0  0  0  0  0  0  0  0  0  0
   59.7728   -0.5542   21.1894 C   0  0  0  0  0  0  0  0  0  0  0  0
   59.5941    0.5314   20.2008 C   0  0  0  0  0  0  0  0  0  0  0  0
   58.2517    1.1716   20.2181 C   0  0  1  0  0  0  0  0  0  0  0  0
   58.2531    2.8326   19.4919 P   0  0  2  0  0  5  0  0  0  0  0  0
   59.0253    2.8010   17.9976 O   0  0  0  0  0  0  0  0  0  0  0  0
   59.0094    3.8055   20.3677 O   0  0  0  0  0  0  0  0  0  0  0  0
   56.6855    3.4358   19.3270 O   0  0  0  0  0  0  0  0  0  0  0  0
   57.1440    0.1503   19.1885 P   0  0  1  0  0  5  0  0  0  0  0  0
   55.8576    0.9227   18.9027 O   0  0  0  0  0  0  0  0  0  0  0  0
   57.8955   -0.0993   17.6940 O   0  0  0  0  0  0  0  0  0  0  0  0
   56.7511   -1.2899   19.9525 O   0  0  0  0  0  0  0  0  0  0  0  0
   57.6836    1.2303   21.4792 O   0  0  0  0  0  0  0  0  0  0  0  0
  1  2  2  0
  1  6  1  0
  1  9  1  0
  2  3  1  0
  3  4  2  0
  4  5  1  0
  5  6  2  0
  6  7  1  0
  7  8  1  0
  8  9  2  0
  8 13  1  0
  9 10  1  0
 10 11  2  0
 11 12  1  0
 12 13  2  0
 13 14  1  0
 14 15  2  0
 14 16  1  0
 15 19  1  0
 16 17  2  0
 17 18  1  0
 18 19  2  0
 19 20  1  0
 20 21  1  0
 21 22  1  0
 21 26  1  0
 21 30  1  1
 22 23  1  6
 22 24  2  0
 22 25  1  0
 26 27  2  0
 26 28  1  6
 26 29  1  0
M  END
$$$$
