
     RDKit          3D

 20 21  0  0  0  0  0  0  0  0999 V2000
  137.2881  116.8496   33.2478 C   0  0  0  0  0  0  0  0  0  0  0  0
  136.8515  115.9087   32.2084 O   0  0  0  0  0  0  0  0  0  0  0  0
  139.2806  115.3332   33.2087 C   0  0  0  0  0  0  0  0  0  0  0  0
  133.5889  118.7329   33.5964 C   0  0  0  0  0  0  0  0  0  0  0  0
  132.7568  116.8145   34.6782 C   0  0  0  0  0  0  0  0  0  0  0  0
  135.6607  118.8810   32.9290 C   0  0  0  0  0  0  0  0  0  0  0  0
  131.7721  117.8971   34.8043 C   0  0  0  0  0  0  0  0  0  0  0  0
  132.1931  118.9593   33.8373 C   0  0  0  0  0  0  0  0  0  0  0  0
  140.4958  116.0152   32.7060 C   0  0  0  0  0  0  0  0  0  0  0  0
  141.6967  115.0546   32.5523 C   0  0  0  0  0  0  0  0  0  0  0  0
  142.5108  115.3458   33.8044 C   0  0  0  0  0  0  0  0  0  0  0  0
  144.5299  114.6079   35.0700 C   0  0  0  0  0  0  0  0  0  0  0  0
  136.4662  117.8755   33.0868 C   0  0  0  0  0  0  0  0  0  0  0  0
  135.1790  117.0001   33.8170 C   0  0  0  0  0  0  0  0  0  0  0  0
  133.9807  117.4722   33.9878 C   0  0  0  0  0  0  0  0  0  0  0  0
  134.5702  119.4904   33.0100 N   0  0  0  0  0  0  0  0  0  0  0  0
  138.3187  116.1968   33.8465 N   0  0  0  0  0  0  0  0  0  0  0  0
  136.5849  119.7898   32.2982 O   0  0  0  0  0  0  0  0  0  0  0  0
  142.0118  115.9785   34.7438 O   0  0  0  0  0  0  0  0  0  0  0  0
  143.8194  114.9012   33.9028 O   0  0  0  0  0  0  0  0  0  0  0  0
  1  2  2  0
 13  1  1  0
  1 17  1  0
  3  9  1  0
 17  3  1  0
  4  8  1  0
  4 15  2  0
 16  4  1  0
  5  7  1  0
 15  5  1  0
  6 13  1  0
  6 16  1  0
  6 18  2  0
  7  8  1  0
  9 10  1  0
 10 11  1  0
 11 19  2  0
 11 20  1  0
 20 12  1  0
 13 14  2  0
 14 15  1  0
M  END
$$$$
