
     RDKit          3D

 20 21  0  0  0  0  0  0  0  0999 V2000
  137.6429  117.0611   33.5799 C   0  0  0  0  0  0  0  0  0  0  0  0
  137.0701  116.3020   32.4610 O   0  0  0  0  0  0  0  0  0  0  0  0
  139.9662  116.5825   32.7770 C   0  0  0  0  0  0  0  0  0  0  0  0
  133.6406  118.1809   33.8616 C   0  0  0  0  0  0  0  0  0  0  0  0
  133.0304  116.0747   33.0046 C   0  0  0  0  0  0  0  0  0  0  0  0
  135.7228  118.7340   34.2050 C   0  0  0  0  0  0  0  0  0  0  0  0
  131.8252  116.7569   33.4942 C   0  0  0  0  0  0  0  0  0  0  0  0
  132.2139  118.1857   33.7129 C   0  0  0  0  0  0  0  0  0  0  0  0
  140.6417  117.8979   32.6886 C   0  0  0  0  0  0  0  0  0  0  0  0
  141.8709  117.8739   31.7521 C   0  0  0  0  0  0  0  0  0  0  0  0
  142.9658  117.3385   32.6631 C   0  0  0  0  0  0  0  0  0  0  0  0
  145.1744  116.1923   32.4859 C   0  0  0  0  0  0  0  0  0  0  0  0
  136.6733  117.9060   33.8956 C   0  0  0  0  0  0  0  0  0  0  0  0
  135.4814  116.7878   33.3612 C   0  0  0  0  0  0  0  0  0  0  0  0
  134.2023  117.0126   33.3973 C   0  0  0  0  0  0  0  0  0  0  0  0
  134.5359  119.1178   34.3104 N   0  0  0  0  0  0  0  0  0  0  0  0
  138.8807  116.5188   33.7234 N   0  0  0  0  0  0  0  0  0  0  0  0
  136.5406  119.8095   34.7079 O   0  0  0  0  0  0  0  0  0  0  0  0
  143.1103  117.7943   33.8047 O   0  0  0  0  0  0  0  0  0  0  0  0
  143.8094  116.3324   32.2205 O   0  0  0  0  0  0  0  0  0  0  0  0
  1  2  2  0
 13  1  1  0
  1 17  1  0
  3  9  1  0
 17  3  1  0
  4  8  1  0
  4 15  2  0
 16  4  1  0
  5  7  1  0
 15  5  1  0
  6 13  1  0
  6 16  1  0
  6 18  2  0
  7  8  1  0
  9 10  1  0
 10 11  1  0
 11 19  2  0
 11 20  1  0
 20 12  1  0
 13 14  2  0
 14 15  1  0
M  END
$$$$
