
     RDKit          3D

 20 21  0  0  0  0  0  0  0  0999 V2000
  135.6001  116.7775   32.2359 C   0  0  0  0  0  0  0  0  0  0  0  0
  135.8879  117.2351   30.8706 O   0  0  0  0  0  0  0  0  0  0  0  0
  136.4200  114.7017   33.3718 C   0  0  0  0  0  0  0  0  0  0  0  0
  132.4744  119.4319   32.9684 C   0  0  0  0  0  0  0  0  0  0  0  0
  131.0835  118.1114   31.6030 C   0  0  0  0  0  0  0  0  0  0  0  0
  134.5533  118.9008   33.3637 C   0  0  0  0  0  0  0  0  0  0  0  0
  130.2584  119.1028   32.3057 C   0  0  0  0  0  0  0  0  0  0  0  0
  131.2097  120.1034   32.8840 C   0  0  0  0  0  0  0  0  0  0  0  0
  137.7974  114.9505   33.8569 C   0  0  0  0  0  0  0  0  0  0  0  0
  138.1301  114.1532   35.1384 C   0  0  0  0  0  0  0  0  0  0  0  0
  138.7059  112.8605   34.5791 C   0  0  0  0  0  0  0  0  0  0  0  0
  139.0581  110.4713   35.2042 C   0  0  0  0  0  0  0  0  0  0  0  0
  135.0714  117.8498   32.8055 C   0  0  0  0  0  0  0  0  0  0  0  0
  133.5614  117.5519   32.0390 C   0  0  0  0  0  0  0  0  0  0  0  0
  132.5091  118.2997   32.1855 C   0  0  0  0  0  0  0  0  0  0  0  0
  133.6469  119.7268   33.6158 N   0  0  0  0  0  0  0  0  0  0  0  0
  136.0268  115.4873   32.2289 N   0  0  0  0  0  0  0  0  0  0  0  0
  135.7119  119.3351   34.1034 O   0  0  0  0  0  0  0  0  0  0  0  0
  139.5426  112.8895   33.6674 O   0  0  0  0  0  0  0  0  0  0  0  0
  138.2982  111.6387   35.0896 O   0  0  0  0  0  0  0  0  0  0  0  0
  1  2  2  0
 13  1  1  0
  1 17  1  0
  3  9  1  0
 17  3  1  0
  4  8  1  0
  4 15  2  0
 16  4  1  0
  5  7  1  0
 15  5  1  0
  6 13  1  0
  6 16  1  0
  6 18  2  0
  7  8  1  0
  9 10  1  0
 10 11  1  0
 11 19  2  0
 11 20  1  0
 20 12  1  0
 13 14  2  0
 14 15  1  0
M  END
$$$$
