
     RDKit          3D

 20 21  0  0  0  0  0  0  0  0999 V2000
  136.7734  117.6252   33.1117 C   0  0  0  0  0  0  0  0  0  0  0  0
  138.0079  117.5934   33.9062 O   0  0  0  0  0  0  0  0  0  0  0  0
  136.5155  118.9555   31.0058 C   0  0  0  0  0  0  0  0  0  0  0  0
  133.7920  115.5826   35.1832 C   0  0  0  0  0  0  0  0  0  0  0  0
  132.9317  117.6507   35.9082 C   0  0  0  0  0  0  0  0  0  0  0  0
  135.5267  115.4455   33.8672 C   0  0  0  0  0  0  0  0  0  0  0  0
  131.9725  116.5910   36.2466 C   0  0  0  0  0  0  0  0  0  0  0  0
  132.7017  115.2958   36.0700 C   0  0  0  0  0  0  0  0  0  0  0  0
  137.6154  118.8194   30.0230 C   0  0  0  0  0  0  0  0  0  0  0  0
  137.2709  119.4474   28.6535 C   0  0  0  0  0  0  0  0  0  0  0  0
  138.5919  120.0811   28.2426 C   0  0  0  0  0  0  0  0  0  0  0  0
  139.7993  121.1724   26.3520 C   0  0  0  0  0  0  0  0  0  0  0  0
  136.1438  116.5244   33.4932 C   0  0  0  0  0  0  0  0  0  0  0  0
  135.0177  117.4471   34.4081 C   0  0  0  0  0  0  0  0  0  0  0  0
  134.0417  116.9339   35.0951 C   0  0  0  0  0  0  0  0  0  0  0  0
  134.6511  114.7853   34.4711 N   0  0  0  0  0  0  0  0  0  0  0  0
  136.9019  118.7639   32.3812 N   0  0  0  0  0  0  0  0  0  0  0  0
  136.3477  114.4857   33.1722 O   0  0  0  0  0  0  0  0  0  0  0  0
  139.6128  119.8964   28.9176 O   0  0  0  0  0  0  0  0  0  0  0  0
  138.6617  120.8695   27.1054 O   0  0  0  0  0  0  0  0  0  0  0  0
  1  2  2  0
 13  1  1  0
  1 17  1  0
  3  9  1  0
 17  3  1  0
  4  8  1  0
  4 15  2  0
 16  4  1  0
  5  7  1  0
 15  5  1  0
  6 13  1  0
  6 16  1  0
  6 18  2  0
  7  8  1  0
  9 10  1  0
 10 11  1  0
 11 19  2  0
 11 20  1  0
 20 12  1  0
 13 14  2  0
 14 15  1  0
M  END
$$$$
