
     RDKit          3D

 20 21  0  0  0  0  0  0  0  0999 V2000
  135.2566  114.4876   34.9051 C   0  0  0  0  0  0  0  0  0  0  0  0
  135.5338  113.4977   33.8566 O   0  0  0  0  0  0  0  0  0  0  0  0
  135.2559  116.0910   32.9815 C   0  0  0  0  0  0  0  0  0  0  0  0
  135.2657  111.0660   37.2809 C   0  0  0  0  0  0  0  0  0  0  0  0
  137.0736  110.2406   36.0190 C   0  0  0  0  0  0  0  0  0  0  0  0
  134.3728  113.0175   36.8885 C   0  0  0  0  0  0  0  0  0  0  0  0
  136.8876  109.3864   37.1994 C   0  0  0  0  0  0  0  0  0  0  0  0
  135.5522  109.7485   37.7705 C   0  0  0  0  0  0  0  0  0  0  0  0
  135.6475  117.4809   32.6509 C   0  0  0  0  0  0  0  0  0  0  0  0
  135.3695  117.8422   31.1742 C   0  0  0  0  0  0  0  0  0  0  0  0
  134.3938  119.0031   31.2995 C   0  0  0  0  0  0  0  0  0  0  0  0
  133.1440  120.8100   30.1180 C   0  0  0  0  0  0  0  0  0  0  0  0
  134.8102  113.7452   35.9068 C   0  0  0  0  0  0  0  0  0  0  0  0
  135.9506  112.5110   35.5425 C   0  0  0  0  0  0  0  0  0  0  0  0
  136.0588  111.3991   36.2058 C   0  0  0  0  0  0  0  0  0  0  0  0
  134.3349  112.0104   37.6311 N   0  0  0  0  0  0  0  0  0  0  0  0
  135.5915  115.6663   34.3176 N   0  0  0  0  0  0  0  0  0  0  0  0
  133.3503  113.9124   37.3701 O   0  0  0  0  0  0  0  0  0  0  0  0
  133.9271  119.3136   32.4030 O   0  0  0  0  0  0  0  0  0  0  0  0
  134.0219  119.7241   30.1763 O   0  0  0  0  0  0  0  0  0  0  0  0
  1  2  2  0
 13  1  1  0
  1 17  1  0
  3  9  1  0
 17  3  1  0
  4  8  1  0
  4 15  2  0
 16  4  1  0
  5  7  1  0
 15  5  1  0
  6 13  1  0
  6 16  1  0
  6 18  2  0
  7  8  1  0
  9 10  1  0
 10 11  1  0
 11 19  2  0
 11 20  1  0
 20 12  1  0
 13 14  2  0
 14 15  1  0
M  END
$$$$
