
     RDKit          3D

 20 21  0  0  0  0  0  0  0  0999 V2000
  137.7967  116.3614   33.7199 C   0  0  0  0  0  0  0  0  0  0  0  0
  137.0956  115.5864   32.6884 O   0  0  0  0  0  0  0  0  0  0  0  0
  139.7070  114.8707   33.0876 C   0  0  0  0  0  0  0  0  0  0  0  0
  134.1284  118.3264   33.9061 C   0  0  0  0  0  0  0  0  0  0  0  0
  133.0464  116.2468   33.6895 C   0  0  0  0  0  0  0  0  0  0  0  0
  136.3022  118.5014   33.9708 C   0  0  0  0  0  0  0  0  0  0  0  0
  132.0502  117.2676   34.0406 C   0  0  0  0  0  0  0  0  0  0  0  0
  132.7202  118.5910   33.8404 C   0  0  0  0  0  0  0  0  0  0  0  0
  141.0333  114.4750   33.6155 C   0  0  0  0  0  0  0  0  0  0  0  0
  142.2001  115.1505   32.8600 C   0  0  0  0  0  0  0  0  0  0  0  0
  142.6183  114.0715   31.8719 C   0  0  0  0  0  0  0  0  0  0  0  0
  143.7388  113.5546   29.7039 C   0  0  0  0  0  0  0  0  0  0  0  0
  137.0419  117.4421   33.8466 C   0  0  0  0  0  0  0  0  0  0  0  0
  135.6114  116.4991   33.7031 C   0  0  0  0  0  0  0  0  0  0  0  0
  134.4083  116.9876   33.7471 C   0  0  0  0  0  0  0  0  0  0  0  0
  135.2263  119.1385   34.0330 N   0  0  0  0  0  0  0  0  0  0  0  0
  138.8693  115.5827   34.0199 N   0  0  0  0  0  0  0  0  0  0  0  0
  137.3560  119.4742   34.1163 O   0  0  0  0  0  0  0  0  0  0  0  0
  142.3428  112.8840   32.0864 O   0  0  0  0  0  0  0  0  0  0  0  0
  143.3103  114.4122   30.7209 O   0  0  0  0  0  0  0  0  0  0  0  0
  1  2  2  0
 13  1  1  0
  1 17  1  0
  3  9  1  0
 17  3  1  0
  4  8  1  0
  4 15  2  0
 16  4  1  0
  5  7  1  0
 15  5  1  0
  6 13  1  0
  6 16  1  0
  6 18  2  0
  7  8  1  0
  9 10  1  0
 10 11  1  0
 11 19  2  0
 11 20  1  0
 20 12  1  0
 13 14  2  0
 14 15  1  0
M  END
$$$$
