
     RDKit          3D

 20 21  0  0  0  0  0  0  0  0999 V2000
  135.7203  116.3078   33.6395 C   0  0  0  0  0  0  0  0  0  0  0  0
  136.5088  115.0714   33.7157 O   0  0  0  0  0  0  0  0  0  0  0  0
  137.5636  116.7022   31.9908 C   0  0  0  0  0  0  0  0  0  0  0  0
  133.9446  114.1789   36.7486 C   0  0  0  0  0  0  0  0  0  0  0  0
  135.4807  112.4333   36.3799 C   0  0  0  0  0  0  0  0  0  0  0  0
  133.9806  116.0212   35.5804 C   0  0  0  0  0  0  0  0  0  0  0  0
  134.7596  112.1762   37.6336 C   0  0  0  0  0  0  0  0  0  0  0  0
  133.5942  113.1154   37.6451 C   0  0  0  0  0  0  0  0  0  0  0  0
  137.4978  116.0745   30.6507 C   0  0  0  0  0  0  0  0  0  0  0  0
  138.3818  114.8114   30.5411 C   0  0  0  0  0  0  0  0  0  0  0  0
  139.0123  114.9717   29.1656 C   0  0  0  0  0  0  0  0  0  0  0  0
  140.5644  114.0143   27.4635 C   0  0  0  0  0  0  0  0  0  0  0  0
  134.8417  116.1631   34.6197 C   0  0  0  0  0  0  0  0  0  0  0  0
  135.4503  114.5951   34.9768 C   0  0  0  0  0  0  0  0  0  0  0  0
  134.9881  113.8308   35.9203 C   0  0  0  0  0  0  0  0  0  0  0  0
  133.4135  115.4229   36.5226 N   0  0  0  0  0  0  0  0  0  0  0  0
  136.2849  116.9741   32.5983 N   0  0  0  0  0  0  0  0  0  0  0  0
  133.3231  117.2984   35.4596 O   0  0  0  0  0  0  0  0  0  0  0  0
  138.7773  115.9759   28.4812 O   0  0  0  0  0  0  0  0  0  0  0  0
  139.8581  113.9930   28.6693 O   0  0  0  0  0  0  0  0  0  0  0  0
  1  2  2  0
 13  1  1  0
  1 17  1  0
  3  9  1  0
 17  3  1  0
  4  8  1  0
  4 15  2  0
 16  4  1  0
  5  7  1  0
 15  5  1  0
  6 13  1  0
  6 16  1  0
  6 18  2  0
  7  8  1  0
  9 10  1  0
 10 11  1  0
 11 19  2  0
 11 20  1  0
 20 12  1  0
 13 14  2  0
 14 15  1  0
M  END
$$$$
