
     RDKit          3D

 20 21  0  0  0  0  0  0  0  0999 V2000
  137.6031  117.1002   33.0509 C   0  0  0  0  0  0  0  0  0  0  0  0
  137.5325  116.8934   31.5988 O   0  0  0  0  0  0  0  0  0  0  0  0
  139.9630  116.2646   33.1176 C   0  0  0  0  0  0  0  0  0  0  0  0
  133.7145  118.4540   33.6813 C   0  0  0  0  0  0  0  0  0  0  0  0
  132.9684  116.2218   33.6227 C   0  0  0  0  0  0  0  0  0  0  0  0
  135.8216  118.9783   33.4689 C   0  0  0  0  0  0  0  0  0  0  0  0
  131.8699  117.0790   34.0875 C   0  0  0  0  0  0  0  0  0  0  0  0
  132.2847  118.4865   33.7919 C   0  0  0  0  0  0  0  0  0  0  0  0
  140.8270  116.8759   34.1540 C   0  0  0  0  0  0  0  0  0  0  0  0
  141.4493  115.8275   35.1040 C   0  0  0  0  0  0  0  0  0  0  0  0
  142.9291  116.1783   35.0540 C   0  0  0  0  0  0  0  0  0  0  0  0
  145.0898  115.8118   36.2456 C   0  0  0  0  0  0  0  0  0  0  0  0
  136.7034  118.0487   33.2620 C   0  0  0  0  0  0  0  0  0  0  0  0
  135.4396  116.8838   33.3094 C   0  0  0  0  0  0  0  0  0  0  0  0
  134.1876  117.1735   33.5006 C   0  0  0  0  0  0  0  0  0  0  0  0
  134.6721  119.4355   33.6607 N   0  0  0  0  0  0  0  0  0  0  0  0
  138.5599  116.2193   33.4451 N   0  0  0  0  0  0  0  0  0  0  0  0
  136.7121  120.1119   33.4708 O   0  0  0  0  0  0  0  0  0  0  0  0
  143.3203  117.1553   34.4025 O   0  0  0  0  0  0  0  0  0  0  0  0
  143.8511  115.4057   35.7415 O   0  0  0  0  0  0  0  0  0  0  0  0
  1  2  2  0
 13  1  1  0
  1 17  1  0
  3  9  1  0
 17  3  1  0
  4  8  1  0
  4 15  2  0
 16  4  1  0
  5  7  1  0
 15  5  1  0
  6 13  1  0
  6 16  1  0
  6 18  2  0
  7  8  1  0
  9 10  1  0
 10 11  1  0
 11 19  2  0
 11 20  1  0
 20 12  1  0
 13 14  2  0
 14 15  1  0
M  END
$$$$
