
     RDKit          3D

 20 21  0  0  0  0  0  0  0  0999 V2000
  137.4740  117.0175   33.2803 C   0  0  0  0  0  0  0  0  0  0  0  0
  136.7805  115.8376   32.7482 O   0  0  0  0  0  0  0  0  0  0  0  0
  139.8178  117.2445   34.1327 C   0  0  0  0  0  0  0  0  0  0  0  0
  133.4698  118.1538   33.4455 C   0  0  0  0  0  0  0  0  0  0  0  0
  132.8597  115.8836   33.3160 C   0  0  0  0  0  0  0  0  0  0  0  0
  135.5553  118.7941   33.4756 C   0  0  0  0  0  0  0  0  0  0  0  0
  131.6690  116.6788   33.6442 C   0  0  0  0  0  0  0  0  0  0  0  0
  132.0373  118.1069   33.3890 C   0  0  0  0  0  0  0  0  0  0  0  0
  141.1396  116.5820   34.0415 C   0  0  0  0  0  0  0  0  0  0  0  0
  142.1562  117.3944   33.2079 C   0  0  0  0  0  0  0  0  0  0  0  0
  143.0281  116.3043   32.6024 C   0  0  0  0  0  0  0  0  0  0  0  0
  144.0262  115.5172   30.4558 C   0  0  0  0  0  0  0  0  0  0  0  0
  136.5051  117.9147   33.3789 C   0  0  0  0  0  0  0  0  0  0  0  0
  135.3103  116.6816   33.2872 C   0  0  0  0  0  0  0  0  0  0  0  0
  134.0305  116.9015   33.3298 C   0  0  0  0  0  0  0  0  0  0  0  0
  134.3678  119.1869   33.5295 N   0  0  0  0  0  0  0  0  0  0  0  0
  138.7608  116.5965   33.3972 N   0  0  0  0  0  0  0  0  0  0  0  0
  136.3757  119.9753   33.5731 O   0  0  0  0  0  0  0  0  0  0  0  0
  143.7564  115.6107   33.3239 O   0  0  0  0  0  0  0  0  0  0  0  0
  143.0109  116.0782   31.2355 O   0  0  0  0  0  0  0  0  0  0  0  0
  1  2  2  0
 13  1  1  0
  1 17  1  0
  3  9  1  0
 17  3  1  0
  4  8  1  0
  4 15  2  0
 16  4  1  0
  5  7  1  0
 15  5  1  0
  6 13  1  0
  6 16  1  0
  6 18  2  0
  7  8  1  0
  9 10  1  0
 10 11  1  0
 11 19  2  0
 11 20  1  0
 20 12  1  0
 13 14  2  0
 14 15  1  0
M  END
$$$$
