
     RDKit          3D

 20 21  0  0  0  0  0  0  0  0999 V2000
  136.8909  117.1694   33.0478 C   0  0  0  0  0  0  0  0  0  0  0  0
  136.3742  115.8761   32.5824 O   0  0  0  0  0  0  0  0  0  0  0  0
  139.2541  116.6112   33.6604 C   0  0  0  0  0  0  0  0  0  0  0  0
  132.8318  118.0968   32.9222 C   0  0  0  0  0  0  0  0  0  0  0  0
  132.6006  116.6637   31.0687 C   0  0  0  0  0  0  0  0  0  0  0  0
  134.7419  118.3801   33.9377 C   0  0  0  0  0  0  0  0  0  0  0  0
  131.2647  117.0538   31.5385 C   0  0  0  0  0  0  0  0  0  0  0  0
  131.4711  118.1990   32.4800 C   0  0  0  0  0  0  0  0  0  0  0  0
  140.6210  116.6287   33.0898 C   0  0  0  0  0  0  0  0  0  0  0  0
  141.3192  117.9971   33.2592 C   0  0  0  0  0  0  0  0  0  0  0  0
  142.7849  117.6441   33.0534 C   0  0  0  0  0  0  0  0  0  0  0  0
  145.1245  118.4833   33.2654 C   0  0  0  0  0  0  0  0  0  0  0  0
  135.8057  117.7809   33.4972 C   0  0  0  0  0  0  0  0  0  0  0  0
  134.8531  117.0745   32.2522 C   0  0  0  0  0  0  0  0  0  0  0  0
  133.5788  117.2793   32.1037 C   0  0  0  0  0  0  0  0  0  0  0  0
  133.5290  118.6902   33.9433 N   0  0  0  0  0  0  0  0  0  0  0  0
  138.2203  117.0898   32.7771 N   0  0  0  0  0  0  0  0  0  0  0  0
  135.3400  119.0711   35.0525 O   0  0  0  0  0  0  0  0  0  0  0  0
  143.1268  116.4691   32.8675 O   0  0  0  0  0  0  0  0  0  0  0  0
  143.7493  118.6387   33.0702 O   0  0  0  0  0  0  0  0  0  0  0  0
  1  2  2  0
 13  1  1  0
  1 17  1  0
  3  9  1  0
 17  3  1  0
  4  8  1  0
  4 15  2  0
 16  4  1  0
  5  7  1  0
 15  5  1  0
  6 13  1  0
  6 16  1  0
  6 18  2  0
  7  8  1  0
  9 10  1  0
 10 11  1  0
 11 19  2  0
 11 20  1  0
 20 12  1  0
 13 14  2  0
 14 15  1  0
M  END
$$$$
