
     RDKit          3D

 20 21  0  0  0  0  0  0  0  0999 V2000
  137.6601  117.2638   32.9603 C   0  0  0  0  0  0  0  0  0  0  0  0
  136.7436  116.4273   32.1750 O   0  0  0  0  0  0  0  0  0  0  0  0
  139.0625  116.4414   31.0556 C   0  0  0  0  0  0  0  0  0  0  0  0
  133.9953  117.9141   34.8306 C   0  0  0  0  0  0  0  0  0  0  0  0
  132.9158  116.9970   32.9501 C   0  0  0  0  0  0  0  0  0  0  0  0
  136.1682  118.0542   34.9667 C   0  0  0  0  0  0  0  0  0  0  0  0
  131.9338  117.1607   34.0301 C   0  0  0  0  0  0  0  0  0  0  0  0
  132.5839  118.0346   35.0567 C   0  0  0  0  0  0  0  0  0  0  0  0
  138.8881  117.1836   29.7855 C   0  0  0  0  0  0  0  0  0  0  0  0
  139.4811  116.4332   28.5715 C   0  0  0  0  0  0  0  0  0  0  0  0
  139.2438  117.4142   27.4328 C   0  0  0  0  0  0  0  0  0  0  0  0
  139.7260  117.9933   25.0547 C   0  0  0  0  0  0  0  0  0  0  0  0
  136.9067  117.6630   33.9736 C   0  0  0  0  0  0  0  0  0  0  0  0
  135.4763  117.2397   33.1185 C   0  0  0  0  0  0  0  0  0  0  0  0
  134.2744  117.3889   33.5887 C   0  0  0  0  0  0  0  0  0  0  0  0
  135.0934  118.2692   35.5715 N   0  0  0  0  0  0  0  0  0  0  0  0
  138.8167  117.2119   32.2488 N   0  0  0  0  0  0  0  0  0  0  0  0
  137.2224  118.4723   35.8567 O   0  0  0  0  0  0  0  0  0  0  0  0
  138.5960  118.4515   27.6235 O   0  0  0  0  0  0  0  0  0  0  0  0
  139.7549  117.1536   26.1716 O   0  0  0  0  0  0  0  0  0  0  0  0
  1  2  2  0
 13  1  1  0
  1 17  1  0
  3  9  1  0
 17  3  1  0
  4  8  1  0
  4 15  2  0
 16  4  1  0
  5  7  1  0
 15  5  1  0
  6 13  1  0
  6 16  1  0
  6 18  2  0
  7  8  1  0
  9 10  1  0
 10 11  1  0
 11 19  2  0
 11 20  1  0
 20 12  1  0
 13 14  2  0
 14 15  1  0
M  END
$$$$
