
     RDKit          3D

 20 21  0  0  0  0  0  0  0  0999 V2000
  136.1233  115.5861   32.6218 C   0  0  0  0  0  0  0  0  0  0  0  0
  137.1577  114.8037   33.3104 O   0  0  0  0  0  0  0  0  0  0  0  0
  137.9858  116.2264   31.0751 C   0  0  0  0  0  0  0  0  0  0  0  0
  133.8262  114.1819   35.8004 C   0  0  0  0  0  0  0  0  0  0  0  0
  135.0385  112.1647   35.7358 C   0  0  0  0  0  0  0  0  0  0  0  0
  134.2581  115.8382   34.4476 C   0  0  0  0  0  0  0  0  0  0  0  0
  134.2161  112.1873   36.9527 C   0  0  0  0  0  0  0  0  0  0  0  0
  133.2411  113.3093   36.7770 C   0  0  0  0  0  0  0  0  0  0  0  0
  138.8340  115.2285   30.3829 C   0  0  0  0  0  0  0  0  0  0  0  0
  140.3265  115.6293   30.3605 C   0  0  0  0  0  0  0  0  0  0  0  0
  141.0280  114.2864   30.5018 C   0  0  0  0  0  0  0  0  0  0  0  0
  143.3053  115.3010   30.5867 C   0  0  0  0  0  0  0  0  0  0  0  0
  135.1814  115.7134   33.5438 C   0  0  0  0  0  0  0  0  0  0  0  0
  135.4758  114.1171   34.1110 C   0  0  0  0  0  0  0  0  0  0  0  0
  134.8326  113.5621   35.0939 C   0  0  0  0  0  0  0  0  0  0  0  0
  133.5420  115.4635   35.4037 N   0  0  0  0  0  0  0  0  0  0  0  0
  136.6507  115.7796   31.3843 N   0  0  0  0  0  0  0  0  0  0  0  0
  133.8502  117.1867   34.1423 O   0  0  0  0  0  0  0  0  0  0  0  0
  140.3717  113.2379   30.5481 O   0  0  0  0  0  0  0  0  0  0  0  0
  142.4102  114.2277   30.5774 O   0  0  0  0  0  0  0  0  0  0  0  0
  1  2  2  0
 13  1  1  0
  1 17  1  0
  3  9  1  0
 17  3  1  0
  4  8  1  0
  4 15  2  0
 16  4  1  0
  5  7  1  0
 15  5  1  0
  6 13  1  0
  6 16  1  0
  6 18  2  0
  7  8  1  0
  9 10  1  0
 10 11  1  0
 11 19  2  0
 11 20  1  0
 20 12  1  0
 13 14  2  0
 14 15  1  0
M  END
$$$$
