
     RDKit          3D

 20 21  0  0  0  0  0  0  0  0999 V2000
  137.4472  117.0413   32.9949 C   0  0  0  0  0  0  0  0  0  0  0  0
  137.2283  117.7337   31.7186 O   0  0  0  0  0  0  0  0  0  0  0  0
  139.9132  116.9354   32.5721 C   0  0  0  0  0  0  0  0  0  0  0  0
  133.3078  117.0999   33.4575 C   0  0  0  0  0  0  0  0  0  0  0  0
  133.3255  119.4058   32.9828 C   0  0  0  0  0  0  0  0  0  0  0  0
  135.1308  115.9015   33.4549 C   0  0  0  0  0  0  0  0  0  0  0  0
  131.9356  118.9304   32.9834 C   0  0  0  0  0  0  0  0  0  0  0  0
  131.9602  117.5690   33.6049 C   0  0  0  0  0  0  0  0  0  0  0  0
  140.7570  115.9341   33.2648 C   0  0  0  0  0  0  0  0  0  0  0  0
  141.8942  116.5811   34.0874 C   0  0  0  0  0  0  0  0  0  0  0  0
  143.1228  116.2768   33.2427 C   0  0  0  0  0  0  0  0  0  0  0  0
  145.6078  116.0586   33.2598 C   0  0  0  0  0  0  0  0  0  0  0  0
  136.2774  116.4657   33.2272 C   0  0  0  0  0  0  0  0  0  0  0  0
  135.4658  117.9716   33.0541 C   0  0  0  0  0  0  0  0  0  0  0  0
  134.1810  118.1253   33.1711 C   0  0  0  0  0  0  0  0  0  0  0  0
  133.8883  115.8660   33.6033 N   0  0  0  0  0  0  0  0  0  0  0  0
  138.7367  117.3451   33.2974 N   0  0  0  0  0  0  0  0  0  0  0  0
  135.5974  114.5495   33.6356 O   0  0  0  0  0  0  0  0  0  0  0  0
  143.0014  115.7813   32.1150 O   0  0  0  0  0  0  0  0  0  0  0  0
  144.3893  116.5555   33.7307 O   0  0  0  0  0  0  0  0  0  0  0  0
  1  2  2  0
 13  1  1  0
  1 17  1  0
  3  9  1  0
 17  3  1  0
  4  8  1  0
  4 15  2  0
 16  4  1  0
  5  7  1  0
 15  5  1  0
  6 13  1  0
  6 16  1  0
  6 18  2  0
  7  8  1  0
  9 10  1  0
 10 11  1  0
 11 19  2  0
 11 20  1  0
 20 12  1  0
 13 14  2  0
 14 15  1  0
M  END
$$$$
