
     RDKit          3D

 20 21  0  0  0  0  0  0  0  0999 V2000
  137.9380  117.1183   33.2615 C   0  0  0  0  0  0  0  0  0  0  0  0
  137.8415  115.6754   33.0069 O   0  0  0  0  0  0  0  0  0  0  0  0
  140.3431  116.5299   33.6364 C   0  0  0  0  0  0  0  0  0  0  0  0
  133.7951  117.3879   32.9222 C   0  0  0  0  0  0  0  0  0  0  0  0
  133.5879  115.8837   34.7214 C   0  0  0  0  0  0  0  0  0  0  0  0
  135.7375  118.0575   32.1883 C   0  0  0  0  0  0  0  0  0  0  0  0
  132.2675  116.4538   34.4230 C   0  0  0  0  0  0  0  0  0  0  0  0
  132.3947  117.1279   33.0926 C   0  0  0  0  0  0  0  0  0  0  0  0
  141.5216  116.9803   34.4128 C   0  0  0  0  0  0  0  0  0  0  0  0
  142.2156  115.8230   35.1662 C   0  0  0  0  0  0  0  0  0  0  0  0
  143.4110  116.5171   35.8022 C   0  0  0  0  0  0  0  0  0  0  0  0
  145.0797  116.5074   37.6565 C   0  0  0  0  0  0  0  0  0  0  0  0
  136.8267  117.5926   32.7195 C   0  0  0  0  0  0  0  0  0  0  0  0
  135.8650  116.6454   33.7845 C   0  0  0  0  0  0  0  0  0  0  0  0
  134.5658  116.6400   33.7840 C   0  0  0  0  0  0  0  0  0  0  0  0
  134.4991  118.1738   32.0462 N   0  0  0  0  0  0  0  0  0  0  0  0
  139.1212  117.2406   33.9187 N   0  0  0  0  0  0  0  0  0  0  0  0
  136.3394  118.9302   31.2115 O   0  0  0  0  0  0  0  0  0  0  0  0
  143.8516  117.5705   35.3246 O   0  0  0  0  0  0  0  0  0  0  0  0
  144.0145  115.9745   36.9252 O   0  0  0  0  0  0  0  0  0  0  0  0
  1  2  2  0
 13  1  1  0
  1 17  1  0
  3  9  1  0
 17  3  1  0
  4  8  1  0
  4 15  2  0
 16  4  1  0
  5  7  1  0
 15  5  1  0
  6 13  1  0
  6 16  1  0
  6 18  2  0
  7  8  1  0
  9 10  1  0
 10 11  1  0
 11 19  2  0
 11 20  1  0
 20 12  1  0
 13 14  2  0
 14 15  1  0
M  END
$$$$
