
     RDKit          3D

 20 21  0  0  0  0  0  0  0  0999 V2000
  137.6532  117.6003   33.3748 C   0  0  0  0  0  0  0  0  0  0  0  0
  137.3594  116.1795   33.1486 O   0  0  0  0  0  0  0  0  0  0  0  0
  140.0894  117.1920   32.9634 C   0  0  0  0  0  0  0  0  0  0  0  0
  133.6130  117.8071   34.3677 C   0  0  0  0  0  0  0  0  0  0  0  0
  133.1292  116.4179   32.5296 C   0  0  0  0  0  0  0  0  0  0  0  0
  135.6535  118.3864   34.8780 C   0  0  0  0  0  0  0  0  0  0  0  0
  131.9219  116.5526   33.3555 C   0  0  0  0  0  0  0  0  0  0  0  0
  132.1855  117.6844   34.2988 C   0  0  0  0  0  0  0  0  0  0  0  0
  140.5801  116.2594   31.9223 C   0  0  0  0  0  0  0  0  0  0  0  0
  141.3141  116.9847   30.7718 C   0  0  0  0  0  0  0  0  0  0  0  0
  142.7460  116.4979   30.9390 C   0  0  0  0  0  0  0  0  0  0  0  0
  145.0601  117.1095   30.2362 C   0  0  0  0  0  0  0  0  0  0  0  0
  136.6434  117.9973   34.1339 C   0  0  0  0  0  0  0  0  0  0  0  0
  135.5196  117.1768   33.1238 C   0  0  0  0  0  0  0  0  0  0  0  0
  134.2359  117.1605   33.3238 C   0  0  0  0  0  0  0  0  0  0  0  0
  134.4525  118.4792   35.2188 N   0  0  0  0  0  0  0  0  0  0  0  0
  138.8089  117.7932   32.6864 N   0  0  0  0  0  0  0  0  0  0  0  0
  136.4083  119.1340   35.8524 O   0  0  0  0  0  0  0  0  0  0  0  0
  142.9777  115.3128   31.2111 O   0  0  0  0  0  0  0  0  0  0  0  0
  143.8035  117.3797   30.7851 O   0  0  0  0  0  0  0  0  0  0  0  0
  1  2  2  0
 13  1  1  0
  1 17  1  0
  3  9  1  0
 17  3  1  0
  4  8  1  0
  4 15  2  0
 16  4  1  0
  5  7  1  0
 15  5  1  0
  6 13  1  0
  6 16  1  0
  6 18  2  0
  7  8  1  0
  9 10  1  0
 10 11  1  0
 11 19  2  0
 11 20  1  0
 20 12  1  0
 13 14  2  0
 14 15  1  0
M  END
$$$$
