
     RDKit          3D

 20 21  0  0  0  0  0  0  0  0999 V2000
  128.5497  117.6304   30.7969 C   0  0  0  0  0  0  0  0  0  0  0  0
  128.3333  118.2063   29.4636 O   0  0  0  0  0  0  0  0  0  0  0  0
  130.5893  116.9309   29.5234 C   0  0  0  0  0  0  0  0  0  0  0  0
  124.4057  117.4498   31.1792 C   0  0  0  0  0  0  0  0  0  0  0  0
  124.3155  116.1892   29.1929 C   0  0  0  0  0  0  0  0  0  0  0  0
  126.2929  118.1346   32.0332 C   0  0  0  0  0  0  0  0  0  0  0  0
  122.9942  116.1628   29.8340 C   0  0  0  0  0  0  0  0  0  0  0  0
  123.0193  117.2271   30.8862 C   0  0  0  0  0  0  0  0  0  0  0  0
  131.8484  117.7085   29.4578 C   0  0  0  0  0  0  0  0  0  0  0  0
  133.1051  116.8089   29.4753 C   0  0  0  0  0  0  0  0  0  0  0  0
  134.0823  117.6282   30.3055 C   0  0  0  0  0  0  0  0  0  0  0  0
  136.3638  118.6357   30.3530 C   0  0  0  0  0  0  0  0  0  0  0  0
  127.4100  117.8851   31.4213 C   0  0  0  0  0  0  0  0  0  0  0  0
  126.5198  117.0715   30.1957 C   0  0  0  0  0  0  0  0  0  0  0  0
  125.2270  116.9424   30.1973 C   0  0  0  0  0  0  0  0  0  0  0  0
  125.0516  118.1082   32.1941 N   0  0  0  0  0  0  0  0  0  0  0  0
  129.8119  117.1325   30.7204 N   0  0  0  0  0  0  0  0  0  0  0  0
  126.8308  118.8513   33.1625 O   0  0  0  0  0  0  0  0  0  0  0  0
  133.8809  117.8090   31.5133 O   0  0  0  0  0  0  0  0  0  0  0  0
  135.2086  118.1769   29.7140 O   0  0  0  0  0  0  0  0  0  0  0  0
  1  2  2  0
 13  1  1  0
  1 17  1  0
  3  9  1  0
 17  3  1  0
  4  8  1  0
  4 15  2  0
 16  4  1  0
  5  7  1  0
 15  5  1  0
  6 13  1  0
  6 16  1  0
  6 18  2  0
  7  8  1  0
  9 10  1  0
 10 11  1  0
 11 19  2  0
 11 20  1  0
 20 12  1  0
 13 14  2  0
 14 15  1  0
M  END
$$$$
