
     RDKit          3D

 23 25  0  0  0  0  0  0  0  0999 V2000
   -6.0101  123.1719   48.4297 O   0  0  0  0  0  0  0  0  0  0  0  0
   -5.5041  123.6668   47.2509 C   0  0  0  0  0  0  0  0  0  0  0  0
   -4.8929  125.0376   47.3944 C   0  0  0  0  0  0  0  0  0  0  0  0
   -3.9872  125.1481   48.4860 N   0  0  0  0  0  0  0  0  0  0  0  0
   -2.5843  125.3244   48.3621 C   0  0  0  0  0  0  0  0  0  0  0  0
   -2.1477  125.8434   47.3111 O   0  0  0  0  0  0  0  0  0  0  0  0
   -1.6461  124.9228   49.4125 C   0  0  1  0  0  0  0  0  0  0  0  0
   -0.6195  124.1418   48.8857 O   0  0  0  0  0  0  0  0  0  0  0  0
   -0.9172  126.0842   50.0387 C   0  0  1  0  0  0  0  0  0  0  0  0
   -1.5133  126.4193   51.2469 O   0  0  0  0  0  0  0  0  0  0  0  0
    0.4410  125.4772   50.3615 C   0  0  1  0  0  0  0  0  0  0  0  0
    0.7212  125.5305   51.7245 O   0  0  0  0  0  0  0  0  0  0  0  0
    0.2699  124.0680   49.9447 C   0  0  2  0  0  0  0  0  0  0  0  0
    1.4672  123.3616   49.6440 N   0  0  0  0  0  0  0  0  0  0  0  0
    1.5650  122.4784   48.6336 C   0  0  0  0  0  0  0  0  0  0  0  0
    2.7950  121.9836   48.6005 N   0  0  0  0  0  0  0  0  0  0  0  0
    3.5297  122.5359   49.5931 C   0  0  0  0  0  0  0  0  0  0  0  0
    2.6751  123.3976   50.2347 C   0  0  0  0  0  0  0  0  0  0  0  0
    3.1362  124.1007   51.2834 N   0  0  0  0  0  0  0  0  0  0  0  0
    4.4217  123.9400   51.6743 C   0  0  0  0  0  0  0  0  0  0  0  0
    5.2619  123.0859   51.0353 N   0  0  0  0  0  0  0  0  0  0  0  0
    4.8491  122.3630   49.9849 C   0  0  0  0  0  0  0  0  0  0  0  0
    5.6616  121.4553   49.2694 N   0  0  0  0  0  0  0  0  0  0  0  0
  1  2  1  0
  2  3  1  0
  3  4  1  0
  4  5  1  0
  5  6  2  0
  7  5  1  6
  7  8  1  0
  7  9  1  0
  8 13  1  0
  9 10  1  1
  9 11  1  0
 11 12  1  1
 11 13  1  0
 13 14  1  6
 14 15  1  0
 14 18  1  0
 15 16  2  0
 16 17  1  0
 17 18  2  0
 17 22  1  0
 18 19  1  0
 19 20  2  0
 20 21  1  0
 21 22  2  0
 22 23  1  0
M  END
$$$$
