
     RDKit          3D

 23 25  0  0  0  0  0  0  0  0999 V2000
   -6.2839  125.7909   48.4663 O   0  0  0  0  0  0  0  0  0  0  0  0
   -6.3828  124.5999   47.7865 C   0  0  0  0  0  0  0  0  0  0  0  0
   -5.0503  124.0635   47.3284 C   0  0  0  0  0  0  0  0  0  0  0  0
   -4.0862  123.9629   48.3698 N   0  0  0  0  0  0  0  0  0  0  0  0
   -2.8353  124.6335   48.3856 C   0  0  0  0  0  0  0  0  0  0  0  0
   -2.5917  125.4448   47.4650 O   0  0  0  0  0  0  0  0  0  0  0  0
   -1.8358  124.4077   49.4318 C   0  0  1  0  0  0  0  0  0  0  0  0
   -0.7250  123.7413   48.9184 O   0  0  0  0  0  0  0  0  0  0  0  0
   -1.2540  125.6825   49.9875 C   0  0  1  0  0  0  0  0  0  0  0  0
   -1.8687  125.9958   51.1923 O   0  0  0  0  0  0  0  0  0  0  0  0
    0.1767  125.2723   50.3072 C   0  0  1  0  0  0  0  0  0  0  0  0
    0.4699  125.4271   51.6596 O   0  0  0  0  0  0  0  0  0  0  0  0
    0.1836  123.8343   49.9593 C   0  0  2  0  0  0  0  0  0  0  0  0
    1.4576  123.2748   49.6644 N   0  0  0  0  0  0  0  0  0  0  0  0
    1.6759  122.4551   48.6199 C   0  0  0  0  0  0  0  0  0  0  0  0
    2.9526  122.0968   48.6024 N   0  0  0  0  0  0  0  0  0  0  0  0
    3.5979  122.6776   49.6399 C   0  0  0  0  0  0  0  0  0  0  0  0
    2.6391  123.4122   50.2923 C   0  0  0  0  0  0  0  0  0  0  0  0
    2.9947  124.1109   51.3841 N   0  0  0  0  0  0  0  0  0  0  0  0
    4.2798  124.0705   51.8064 C   0  0  0  0  0  0  0  0  0  0  0  0
    5.2233  123.3419   51.1564 N   0  0  0  0  0  0  0  0  0  0  0  0
    4.9180  122.6288   50.0635 C   0  0  0  0  0  0  0  0  0  0  0  0
    5.8417  121.8475   49.3338 N   0  0  0  0  0  0  0  0  0  0  0  0
  1  2  1  0
  2  3  1  0
  3  4  1  0
  4  5  1  0
  5  6  2  0
  7  5  1  6
  7  8  1  0
  7  9  1  0
  8 13  1  0
  9 10  1  1
  9 11  1  0
 11 12  1  1
 11 13  1  0
 13 14  1  6
 14 15  1  0
 14 18  1  0
 15 16  2  0
 16 17  1  0
 17 18  2  0
 17 22  1  0
 18 19  1  0
 19 20  2  0
 20 21  1  0
 21 22  2  0
 22 23  1  0
M  END
$$$$
