
     RDKit          3D

 23 25  0  0  0  0  0  0  0  0999 V2000
   -6.5484  126.2787   47.8653 O   0  0  0  0  0  0  0  0  0  0  0  0
   -6.5792  124.9299   47.6003 C   0  0  0  0  0  0  0  0  0  0  0  0
   -5.2632  124.3915   47.0987 C   0  0  0  0  0  0  0  0  0  0  0  0
   -4.2494  124.3403   48.0955 N   0  0  0  0  0  0  0  0  0  0  0  0
   -2.9950  124.9992   48.0122 C   0  0  0  0  0  0  0  0  0  0  0  0
   -2.7878  125.7467   47.0309 O   0  0  0  0  0  0  0  0  0  0  0  0
   -1.9511  124.8326   49.0258 C   0  0  1  0  0  0  0  0  0  0  0  0
   -0.8596  124.1429   48.5020 O   0  0  0  0  0  0  0  0  0  0  0  0
   -1.3530  126.1370   49.4875 C   0  0  1  0  0  0  0  0  0  0  0  0
   -1.9180  126.5126   50.6987 O   0  0  0  0  0  0  0  0  0  0  0  0
    0.0920  125.7486   49.7677 C   0  0  1  0  0  0  0  0  0  0  0  0
    0.4412  125.9765   51.0962 O   0  0  0  0  0  0  0  0  0  0  0  0
    0.0916  124.2941   49.4971 C   0  0  2  0  0  0  0  0  0  0  0  0
    1.3549  123.7233   49.1788 N   0  0  0  0  0  0  0  0  0  0  0  0
    1.5607  122.9525   48.0952 C   0  0  0  0  0  0  0  0  0  0  0  0
    2.8297  122.5687   48.0640 N   0  0  0  0  0  0  0  0  0  0  0  0
    3.4823  123.0830   49.1315 C   0  0  0  0  0  0  0  0  0  0  0  0
    2.5363  123.8041   49.8167 C   0  0  0  0  0  0  0  0  0  0  0  0
    2.9016  124.4396   50.9434 N   0  0  0  0  0  0  0  0  0  0  0  0
    4.1837  124.3510   51.3674 C   0  0  0  0  0  0  0  0  0  0  0  0
    5.1147  123.6361   50.6848 N   0  0  0  0  0  0  0  0  0  0  0  0
    4.7992  122.9852   49.5565 C   0  0  0  0  0  0  0  0  0  0  0  0
    5.7097  122.2221   48.7917 N   0  0  0  0  0  0  0  0  0  0  0  0
  1  2  1  0
  2  3  1  0
  3  4  1  0
  4  5  1  0
  5  6  2  0
  7  5  1  6
  7  8  1  0
  7  9  1  0
  8 13  1  0
  9 10  1  1
  9 11  1  0
 11 12  1  1
 11 13  1  0
 13 14  1  6
 14 15  1  0
 14 18  1  0
 15 16  2  0
 16 17  1  0
 17 18  2  0
 17 22  1  0
 18 19  1  0
 19 20  2  0
 20 21  1  0
 21 22  2  0
 22 23  1  0
M  END
$$$$
