
     RDKit          3D

 23 25  0  0  0  0  0  0  0  0999 V2000
   -5.7593  126.5838   47.8673 O   0  0  0  0  0  0  0  0  0  0  0  0
   -6.1388  125.3103   47.5141 C   0  0  0  0  0  0  0  0  0  0  0  0
   -4.9725  124.4034   47.2134 C   0  0  0  0  0  0  0  0  0  0  0  0
   -4.0648  124.2605   48.2996 N   0  0  0  0  0  0  0  0  0  0  0  0
   -2.7767  124.8531   48.3644 C   0  0  0  0  0  0  0  0  0  0  0  0
   -2.4825  125.7151   47.5069 O   0  0  0  0  0  0  0  0  0  0  0  0
   -1.7959  124.4911   49.3899 C   0  0  1  0  0  0  0  0  0  0  0  0
   -0.7200  123.8088   48.8256 O   0  0  0  0  0  0  0  0  0  0  0  0
   -1.1492  125.6843   50.0459 C   0  0  1  0  0  0  0  0  0  0  0  0
   -1.7521  125.9334   51.2714 O   0  0  0  0  0  0  0  0  0  0  0  0
    0.2558  125.1734   50.3327 C   0  0  1  0  0  0  0  0  0  0  0  0
    0.5503  125.2040   51.6934 O   0  0  0  0  0  0  0  0  0  0  0  0
    0.1872  123.7694   49.8712 C   0  0  2  0  0  0  0  0  0  0  0  0
    1.4307  123.1673   49.5334 N   0  0  0  0  0  0  0  0  0  0  0  0
    1.5825  122.3307   48.4905 C   0  0  0  0  0  0  0  0  0  0  0  0
    2.8459  121.9324   48.4275 N   0  0  0  0  0  0  0  0  0  0  0  0
    3.5489  122.5030   49.4325 C   0  0  0  0  0  0  0  0  0  0  0  0
    2.6396  123.2738   50.1134 C   0  0  0  0  0  0  0  0  0  0  0  0
    3.0591  123.9720   51.1826 N   0  0  0  0  0  0  0  0  0  0  0  0
    4.3579  123.8956   51.5551 C   0  0  0  0  0  0  0  0  0  0  0  0
    5.2523  123.1312   50.8772 N   0  0  0  0  0  0  0  0  0  0  0  0
    4.8824  122.4171   49.8051 C   0  0  0  0  0  0  0  0  0  0  0  0
    5.7522  121.5999   49.0490 N   0  0  0  0  0  0  0  0  0  0  0  0
  1  2  1  0
  2  3  1  0
  3  4  1  0
  4  5  1  0
  5  6  2  0
  7  5  1  6
  7  8  1  0
  7  9  1  0
  8 13  1  0
  9 10  1  1
  9 11  1  0
 11 12  1  1
 11 13  1  0
 13 14  1  6
 14 15  1  0
 14 18  1  0
 15 16  2  0
 16 17  1  0
 17 18  2  0
 17 22  1  0
 18 19  1  0
 19 20  2  0
 20 21  1  0
 21 22  2  0
 22 23  1  0
M  END
$$$$
