
     RDKit          3D

 23 25  0  0  0  0  0  0  0  0999 V2000
   -5.6701  126.6493   48.0629 O   0  0  0  0  0  0  0  0  0  0  0  0
   -5.1118  125.8350   47.1060 C   0  0  0  0  0  0  0  0  0  0  0  0
   -4.8369  124.4373   47.6003 C   0  0  0  0  0  0  0  0  0  0  0  0
   -3.8524  124.3771   48.6257 N   0  0  0  0  0  0  0  0  0  0  0  0
   -2.5370  124.8996   48.5197 C   0  0  0  0  0  0  0  0  0  0  0  0
   -2.2594  125.5940   47.5170 O   0  0  0  0  0  0  0  0  0  0  0  0
   -1.5098  124.6537   49.5342 C   0  0  1  0  0  0  0  0  0  0  0  0
   -0.4509  123.9237   48.9982 O   0  0  0  0  0  0  0  0  0  0  0  0
   -0.8498  125.9135   50.0339 C   0  0  1  0  0  0  0  0  0  0  0  0
   -1.4035  126.2850   51.2516 O   0  0  0  0  0  0  0  0  0  0  0  0
    0.5718  125.4453   50.3116 C   0  0  1  0  0  0  0  0  0  0  0  0
    0.9229  125.6200   51.6477 O   0  0  0  0  0  0  0  0  0  0  0  0
    0.4999  124.0003   50.0021 C   0  0  2  0  0  0  0  0  0  0  0  0
    1.7350  123.3750   49.6757 N   0  0  0  0  0  0  0  0  0  0  0  0
    1.8706  122.5018   48.6608 C   0  0  0  0  0  0  0  0  0  0  0  0
    3.1296  122.0893   48.6018 N   0  0  0  0  0  0  0  0  0  0  0  0
    3.8460  122.6871   49.5813 C   0  0  0  0  0  0  0  0  0  0  0  0
    2.9495  123.4895   50.2424 C   0  0  0  0  0  0  0  0  0  0  0  0
    3.3840  124.2197   51.2838 N   0  0  0  0  0  0  0  0  0  0  0  0
    4.6850  124.1434   51.6487 C   0  0  0  0  0  0  0  0  0  0  0  0
    5.5667  123.3477   50.9906 N   0  0  0  0  0  0  0  0  0  0  0  0
    5.1815  122.6010   49.9464 C   0  0  0  0  0  0  0  0  0  0  0  0
    6.0376  121.7501   49.2121 N   0  0  0  0  0  0  0  0  0  0  0  0
  1  2  1  0
  2  3  1  0
  3  4  1  0
  4  5  1  0
  5  6  2  0
  7  5  1  6
  7  8  1  0
  7  9  1  0
  8 13  1  0
  9 10  1  1
  9 11  1  0
 11 12  1  1
 11 13  1  0
 13 14  1  6
 14 15  1  0
 14 18  1  0
 15 16  2  0
 16 17  1  0
 17 18  2  0
 17 22  1  0
 18 19  1  0
 19 20  2  0
 20 21  1  0
 21 22  2  0
 22 23  1  0
M  END
$$$$
