
     RDKit          3D

 23 25  0  0  0  0  0  0  0  0999 V2000
   -5.5678  127.9762   48.5519 O   0  0  0  0  0  0  0  0  0  0  0  0
   -4.8270  127.9436   47.3940 C   0  0  0  0  0  0  0  0  0  0  0  0
   -4.2693  126.5779   47.0823 C   0  0  0  0  0  0  0  0  0  0  0  0
   -3.5091  126.0150   48.1449 N   0  0  0  0  0  0  0  0  0  0  0  0
   -2.1372  126.2826   48.3921 C   0  0  0  0  0  0  0  0  0  0  0  0
   -1.5853  127.1860   47.7259 O   0  0  0  0  0  0  0  0  0  0  0  0
   -1.3597  125.5436   49.3892 C   0  0  1  0  0  0  0  0  0  0  0  0
   -0.3412  124.8138   48.7796 O   0  0  0  0  0  0  0  0  0  0  0  0
   -0.6222  126.4369   50.3538 C   0  0  1  0  0  0  0  0  0  0  0  0
   -1.3267  126.5267   51.5467 O   0  0  0  0  0  0  0  0  0  0  0  0
    0.6398  125.6340   50.6373 C   0  0  1  0  0  0  0  0  0  0  0  0
    0.7640  125.3248   51.9893 O   0  0  0  0  0  0  0  0  0  0  0  0
    0.4118  124.3939   49.8634 C   0  0  2  0  0  0  0  0  0  0  0  0
    1.5789  123.6636   49.5064 N   0  0  0  0  0  0  0  0  0  0  0  0
    1.5942  122.7319   48.5356 C   0  0  0  0  0  0  0  0  0  0  0  0
    2.8155  122.2256   48.4322 N   0  0  0  0  0  0  0  0  0  0  0  0
    3.6272  122.8185   49.3375 C   0  0  0  0  0  0  0  0  0  0  0  0
    2.8289  123.7174   50.0002 C   0  0  0  0  0  0  0  0  0  0  0  0
    3.3728  124.4661   50.9750 N   0  0  0  0  0  0  0  0  0  0  0  0
    4.6839  124.3132   51.2735 C   0  0  0  0  0  0  0  0  0  0  0  0
    5.4681  123.4221   50.6141 N   0  0  0  0  0  0  0  0  0  0  0  0
    4.9721  122.6532   49.6349 C   0  0  0  0  0  0  0  0  0  0  0  0
    5.7225  121.7052   48.9040 N   0  0  0  0  0  0  0  0  0  0  0  0
  1  2  1  0
  2  3  1  0
  3  4  1  0
  4  5  1  0
  5  6  2  0
  7  5  1  6
  7  8  1  0
  7  9  1  0
  8 13  1  0
  9 10  1  1
  9 11  1  0
 11 12  1  1
 11 13  1  0
 13 14  1  6
 14 15  1  0
 14 18  1  0
 15 16  2  0
 16 17  1  0
 17 18  2  0
 17 22  1  0
 18 19  1  0
 19 20  2  0
 20 21  1  0
 21 22  2  0
 22 23  1  0
M  END
$$$$
