
     RDKit          3D

 23 25  0  0  0  0  0  0  0  0999 V2000
   -5.1047  128.1292   48.0392 O   0  0  0  0  0  0  0  0  0  0  0  0
   -4.6078  127.3404   47.0285 C   0  0  0  0  0  0  0  0  0  0  0  0
   -4.5215  125.8816   47.3995 C   0  0  0  0  0  0  0  0  0  0  0  0
   -3.6063  125.6136   48.4553 N   0  0  0  0  0  0  0  0  0  0  0  0
   -2.1941  125.7091   48.3493 C   0  0  0  0  0  0  0  0  0  0  0  0
   -1.7161  126.2310   47.3178 O   0  0  0  0  0  0  0  0  0  0  0  0
   -1.2929  125.2222   49.3959 C   0  0  1  0  0  0  0  0  0  0  0  0
   -0.3031  124.4044   48.8544 O   0  0  0  0  0  0  0  0  0  0  0  0
   -0.5104  126.3207   50.0693 C   0  0  1  0  0  0  0  0  0  0  0  0
   -1.1032  126.6473   51.2814 O   0  0  0  0  0  0  0  0  0  0  0  0
    0.8086  125.6301   50.3866 C   0  0  1  0  0  0  0  0  0  0  0  0
    1.0735  125.6226   51.7536 O   0  0  0  0  0  0  0  0  0  0  0  0
    0.5670  124.2471   49.9202 C   0  0  2  0  0  0  0  0  0  0  0  0
    1.7283  123.4869   49.6091 N   0  0  0  0  0  0  0  0  0  0  0  0
    1.7623  122.5653   48.6293 C   0  0  0  0  0  0  0  0  0  0  0  0
    2.9721  122.0248   48.5767 N   0  0  0  0  0  0  0  0  0  0  0  0
    3.7573  122.5846   49.5255 C   0  0  0  0  0  0  0  0  0  0  0  0
    2.9549  123.4994   50.1609 C   0  0  0  0  0  0  0  0  0  0  0  0
    3.4739  124.2219   51.1685 N   0  0  0  0  0  0  0  0  0  0  0  0
    4.7647  124.0280   51.5256 C   0  0  0  0  0  0  0  0  0  0  0  0
    5.5531  123.1214   50.8929 N   0  0  0  0  0  0  0  0  0  0  0  0
    5.0816  122.3773   49.8829 C   0  0  0  0  0  0  0  0  0  0  0  0
    5.8379  121.4155   49.1765 N   0  0  0  0  0  0  0  0  0  0  0  0
  1  2  1  0
  2  3  1  0
  3  4  1  0
  4  5  1  0
  5  6  2  0
  7  5  1  6
  7  8  1  0
  7  9  1  0
  8 13  1  0
  9 10  1  1
  9 11  1  0
 11 12  1  1
 11 13  1  0
 13 14  1  6
 14 15  1  0
 14 18  1  0
 15 16  2  0
 16 17  1  0
 17 18  2  0
 17 22  1  0
 18 19  1  0
 19 20  2  0
 20 21  1  0
 21 22  2  0
 22 23  1  0
M  END
$$$$
