
     RDKit          3D

 23 25  0  0  0  0  0  0  0  0999 V2000
   -5.7074  126.8904   46.3124 O   0  0  0  0  0  0  0  0  0  0  0  0
   -5.4939  126.3990   47.5788 C   0  0  0  0  0  0  0  0  0  0  0  0
   -4.9382  124.9975   47.5876 C   0  0  0  0  0  0  0  0  0  0  0  0
   -3.8675  124.8130   48.5062 N   0  0  0  0  0  0  0  0  0  0  0  0
   -2.5837  125.4062   48.3861 C   0  0  0  0  0  0  0  0  0  0  0  0
   -2.3791  126.1744   47.4203 O   0  0  0  0  0  0  0  0  0  0  0  0
   -1.5068  125.1499   49.3450 C   0  0  1  0  0  0  0  0  0  0  0  0
   -0.3947  124.6065   48.7052 O   0  0  0  0  0  0  0  0  0  0  0  0
   -0.9658  126.4028   49.9851 C   0  0  1  0  0  0  0  0  0  0  0  0
   -1.5184  126.5636   51.2485 O   0  0  0  0  0  0  0  0  0  0  0  0
    0.5042  126.0579   50.1788 C   0  0  1  0  0  0  0  0  0  0  0  0
    0.8750  126.1061   51.5201 O   0  0  0  0  0  0  0  0  0  0  0  0
    0.5726  124.6616   49.6947 C   0  0  2  0  0  0  0  0  0  0  0  0
    1.8554  124.2148   49.2728 N   0  0  0  0  0  0  0  0  0  0  0  0
    2.2928  124.3292   48.0054 C   0  0  0  0  0  0  0  0  0  0  0  0
    3.5174  123.8281   47.9167 N   0  0  0  0  0  0  0  0  0  0  0  0
    3.9073  123.3738   49.1298 C   0  0  0  0  0  0  0  0  0  0  0  0
    2.8477  123.6273   49.9650 C   0  0  0  0  0  0  0  0  0  0  0  0
    2.9487  123.2770   51.2588 N   0  0  0  0  0  0  0  0  0  0  0  0
    4.0851  122.6881   51.6983 C   0  0  0  0  0  0  0  0  0  0  0  0
    5.1296  122.4402   50.8669 N   0  0  0  0  0  0  0  0  0  0  0  0
    5.0768  122.7708   49.5692 C   0  0  0  0  0  0  0  0  0  0  0  0
    6.1198  122.5460   48.6431 N   0  0  0  0  0  0  0  0  0  0  0  0
  1  2  1  0
  2  3  1  0
  3  4  1  0
  4  5  1  0
  5  6  2  0
  7  5  1  6
  7  8  1  0
  7  9  1  0
  8 13  1  0
  9 10  1  1
  9 11  1  0
 11 12  1  1
 11 13  1  0
 13 14  1  6
 14 15  1  0
 14 18  1  0
 15 16  2  0
 16 17  1  0
 17 18  2  0
 17 22  1  0
 18 19  1  0
 19 20  2  0
 20 21  1  0
 21 22  2  0
 22 23  1  0
M  END
$$$$
