
     RDKit          3D

 23 25  0  0  0  0  0  0  0  0999 V2000
   -3.5201  131.1430   46.7282 O   0  0  0  0  0  0  0  0  0  0  0  0
   -3.0132  130.2330   47.6256 C   0  0  0  0  0  0  0  0  0  0  0  0
   -3.3694  128.8064   47.2924 C   0  0  0  0  0  0  0  0  0  0  0  0
   -2.8651  127.8584   48.2257 N   0  0  0  0  0  0  0  0  0  0  0  0
   -1.6037  127.2149   48.1280 C   0  0  0  0  0  0  0  0  0  0  0  0
   -0.8172  127.5960   47.2330 O   0  0  0  0  0  0  0  0  0  0  0  0
   -1.2010  126.1340   49.0303 C   0  0  1  0  0  0  0  0  0  0  0  0
   -0.1994  125.3560   48.4531 O   0  0  0  0  0  0  0  0  0  0  0  0
   -0.5704  126.6259   50.3081 C   0  0  1  0  0  0  0  0  0  0  0  0
   -1.5047  126.6027   51.3347 O   0  0  0  0  0  0  0  0  0  0  0  0
    0.4501  125.5361   50.6052 C   0  0  1  0  0  0  0  0  0  0  0  0
    0.2124  124.9253   51.8338 O   0  0  0  0  0  0  0  0  0  0  0  0
    0.2106  124.5661   49.5141 C   0  0  2  0  0  0  0  0  0  0  0  0
    1.2973  123.7025   49.2039 N   0  0  0  0  0  0  0  0  0  0  0  0
    1.2116  122.7096   48.2998 C   0  0  0  0  0  0  0  0  0  0  0  0
    2.3768  122.0805   48.2269 N   0  0  0  0  0  0  0  0  0  0  0  0
    3.2519  122.6518   49.0858 C   0  0  0  0  0  0  0  0  0  0  0  0
    2.5518  123.6677   49.6878 C   0  0  0  0  0  0  0  0  0  0  0  0
    3.1763  124.4246   50.6064 N   0  0  0  0  0  0  0  0  0  0  0  0
    4.4694  124.1651   50.9096 C   0  0  0  0  0  0  0  0  0  0  0  0
    5.1563  123.1587   50.3104 N   0  0  0  0  0  0  0  0  0  0  0  0
    4.5774  122.3767   49.3886 C   0  0  0  0  0  0  0  0  0  0  0  0
    5.2243  121.3121   48.7221 N   0  0  0  0  0  0  0  0  0  0  0  0
  1  2  1  0
  2  3  1  0
  3  4  1  0
  4  5  1  0
  5  6  2  0
  7  5  1  6
  7  8  1  0
  7  9  1  0
  8 13  1  0
  9 10  1  1
  9 11  1  0
 11 12  1  1
 11 13  1  0
 13 14  1  6
 14 15  1  0
 14 18  1  0
 15 16  2  0
 16 17  1  0
 17 18  2  0
 17 22  1  0
 18 19  1  0
 19 20  2  0
 20 21  1  0
 21 22  2  0
 22 23  1  0
M  END
$$$$
