
     RDKit          3D

 23 25  0  0  0  0  0  0  0  0999 V2000
   -6.6072  124.0576   46.0288 O   0  0  0  0  0  0  0  0  0  0  0  0
   -5.5726  124.0897   46.9338 C   0  0  0  0  0  0  0  0  0  0  0  0
   -5.4768  125.3948   47.6826 C   0  0  0  0  0  0  0  0  0  0  0  0
   -4.3523  125.4745   48.5506 N   0  0  0  0  0  0  0  0  0  0  0  0
   -3.0280  125.1038   48.1995 C   0  0  0  0  0  0  0  0  0  0  0  0
   -2.7614  124.9546   46.9864 O   0  0  0  0  0  0  0  0  0  0  0  0
   -1.9794  124.8936   49.2000 C   0  0  1  0  0  0  0  0  0  0  0  0
   -0.9241  124.1592   48.6629 O   0  0  0  0  0  0  0  0  0  0  0  0
   -1.3219  126.1718   49.6541 C   0  0  1  0  0  0  0  0  0  0  0  0
   -1.8557  126.5702   50.8722 O   0  0  0  0  0  0  0  0  0  0  0  0
    0.1091  125.7236   49.9164 C   0  0  1  0  0  0  0  0  0  0  0  0
    0.4839  125.9363   51.2405 O   0  0  0  0  0  0  0  0  0  0  0  0
    0.0448  124.2704   49.6460 C   0  0  2  0  0  0  0  0  0  0  0  0
    1.2792  123.6477   49.3122 N   0  0  0  0  0  0  0  0  0  0  0  0
    1.4309  122.8430   48.2445 C   0  0  0  0  0  0  0  0  0  0  0  0
    2.6847  122.4141   48.1925 N   0  0  0  0  0  0  0  0  0  0  0  0
    3.3814  122.9320   49.2300 C   0  0  0  0  0  0  0  0  0  0  0  0
    2.4784  123.7030   49.9189 C   0  0  0  0  0  0  0  0  0  0  0  0
    2.8937  124.3536   51.0194 N   0  0  0  0  0  0  0  0  0  0  0  0
    4.1822  124.2307   51.4142 C   0  0  0  0  0  0  0  0  0  0  0  0
    5.0705  123.4664   50.7282 N   0  0  0  0  0  0  0  0  0  0  0  0
    4.7045  122.7987   49.6253 C   0  0  0  0  0  0  0  0  0  0  0  0
    5.5684  121.9850   48.8589 N   0  0  0  0  0  0  0  0  0  0  0  0
  1  2  1  0
  2  3  1  0
  3  4  1  0
  4  5  1  0
  5  6  2  0
  7  5  1  6
  7  8  1  0
  7  9  1  0
  8 13  1  0
  9 10  1  1
  9 11  1  0
 11 12  1  1
 11 13  1  0
 13 14  1  6
 14 15  1  0
 14 18  1  0
 15 16  2  0
 16 17  1  0
 17 18  2  0
 17 22  1  0
 18 19  1  0
 19 20  2  0
 20 21  1  0
 21 22  2  0
 22 23  1  0
M  END
$$$$
