
     RDKit          3D

 23 25  0  0  0  0  0  0  0  0999 V2000
   -6.8946  125.9581   48.0883 O   0  0  0  0  0  0  0  0  0  0  0  0
   -5.9308  125.5158   47.2131 C   0  0  0  0  0  0  0  0  0  0  0  0
   -5.3266  124.1932   47.6115 C   0  0  0  0  0  0  0  0  0  0  0  0
   -4.3170  124.3031   48.6079 N   0  0  0  0  0  0  0  0  0  0  0  0
   -3.0321  124.8700   48.4026 C   0  0  0  0  0  0  0  0  0  0  0  0
   -2.8148  125.4566   47.3193 O   0  0  0  0  0  0  0  0  0  0  0  0
   -1.9685  124.7901   49.4061 C   0  0  1  0  0  0  0  0  0  0  0  0
   -0.8770  124.0778   48.9135 O   0  0  0  0  0  0  0  0  0  0  0  0
   -1.3802  126.1318   49.7614 C   0  0  1  0  0  0  0  0  0  0  0  0
   -1.9290  126.5872   50.9526 O   0  0  0  0  0  0  0  0  0  0  0  0
    0.0747  125.7825   50.0422 C   0  0  1  0  0  0  0  0  0  0  0  0
    0.4438  126.1103   51.3442 O   0  0  0  0  0  0  0  0  0  0  0  0
    0.0893  124.3124   49.8774 C   0  0  2  0  0  0  0  0  0  0  0  0
    1.3545  123.7356   49.5779 N   0  0  0  0  0  0  0  0  0  0  0  0
    1.5604  122.9219   48.5262 C   0  0  0  0  0  0  0  0  0  0  0  0
    2.8314  122.5438   48.5059 N   0  0  0  0  0  0  0  0  0  0  0  0
    3.4852  123.1051   49.5487 C   0  0  0  0  0  0  0  0  0  0  0  0
    2.5378  123.8488   50.2074 C   0  0  0  0  0  0  0  0  0  0  0  0
    2.9037  124.5321   51.3055 N   0  0  0  0  0  0  0  0  0  0  0  0
    4.1879  124.4678   51.7277 C   0  0  0  0  0  0  0  0  0  0  0  0
    5.1202  123.7303   51.0716 N   0  0  0  0  0  0  0  0  0  0  0  0
    4.8041  123.0318   49.9723 C   0  0  0  0  0  0  0  0  0  0  0  0
    5.7158  122.2426   49.2360 N   0  0  0  0  0  0  0  0  0  0  0  0
  1  2  1  0
  2  3  1  0
  3  4  1  0
  4  5  1  0
  5  6  2  0
  7  5  1  6
  7  8  1  0
  7  9  1  0
  8 13  1  0
  9 10  1  1
  9 11  1  0
 11 12  1  1
 11 13  1  0
 13 14  1  6
 14 15  1  0
 14 18  1  0
 15 16  2  0
 16 17  1  0
 17 18  2  0
 17 22  1  0
 18 19  1  0
 19 20  2  0
 20 21  1  0
 21 22  2  0
 22 23  1  0
M  END
$$$$
