
     RDKit          3D

 23 25  0  0  0  0  0  0  0  0999 V2000
   -5.5093  127.6637   47.7779 O   0  0  0  0  0  0  0  0  0  0  0  0
   -5.9323  126.3812   47.5192 C   0  0  0  0  0  0  0  0  0  0  0  0
   -4.8016  125.4313   47.2151 C   0  0  0  0  0  0  0  0  0  0  0  0
   -3.9760  125.1473   48.3384 N   0  0  0  0  0  0  0  0  0  0  0  0
   -2.6376  125.5928   48.4954 C   0  0  0  0  0  0  0  0  0  0  0  0
   -2.2288  126.5030   47.7410 O   0  0  0  0  0  0  0  0  0  0  0  0
   -1.7339  125.0272   49.4995 C   0  0  1  0  0  0  0  0  0  0  0  0
   -0.7032  124.3141   48.8906 O   0  0  0  0  0  0  0  0  0  0  0  0
   -1.0076  126.0729   50.3065 C   0  0  1  0  0  0  0  0  0  0  0  0
   -1.6324  126.2387   51.5352 O   0  0  0  0  0  0  0  0  0  0  0  0
    0.3333  125.4029   50.5717 C   0  0  1  0  0  0  0  0  0  0  0  0
    0.5766  125.2527   51.9345 O   0  0  0  0  0  0  0  0  0  0  0  0
    0.1557  124.0723   49.9497 C   0  0  2  0  0  0  0  0  0  0  0  0
    1.3517  123.3973   49.5797 N   0  0  0  0  0  0  0  0  0  0  0  0
    1.4063  122.4900   48.5875 C   0  0  0  0  0  0  0  0  0  0  0  0
    2.6470  122.0349   48.4765 N   0  0  0  0  0  0  0  0  0  0  0  0
    3.4324  122.6382   49.3981 C   0  0  0  0  0  0  0  0  0  0  0  0
    2.5974  123.4890   50.0788 C   0  0  0  0  0  0  0  0  0  0  0  0
    3.1089  124.2356   51.0726 N   0  0  0  0  0  0  0  0  0  0  0  0
    4.4243  124.1278   51.3719 C   0  0  0  0  0  0  0  0  0  0  0  0
    5.2448  123.2842   50.6946 N   0  0  0  0  0  0  0  0  0  0  0  0
    4.7820  122.5194   49.6960 C   0  0  0  0  0  0  0  0  0  0  0  0
    5.5712  121.6192   48.9458 N   0  0  0  0  0  0  0  0  0  0  0  0
  1  2  1  0
  2  3  1  0
  3  4  1  0
  4  5  1  0
  5  6  2  0
  7  5  1  6
  7  8  1  0
  7  9  1  0
  8 13  1  0
  9 10  1  1
  9 11  1  0
 11 12  1  1
 11 13  1  0
 13 14  1  6
 14 15  1  0
 14 18  1  0
 15 16  2  0
 16 17  1  0
 17 18  2  0
 17 22  1  0
 18 19  1  0
 19 20  2  0
 20 21  1  0
 21 22  2  0
 22 23  1  0
M  END
$$$$
