
     RDKit          3D

 23 25  0  0  0  0  0  0  0  0999 V2000
   -6.5032  124.0346   46.1247 O   0  0  0  0  0  0  0  0  0  0  0  0
   -5.4538  124.0679   47.0124 C   0  0  0  0  0  0  0  0  0  0  0  0
   -5.3589  125.3659   47.7736 C   0  0  0  0  0  0  0  0  0  0  0  0
   -4.3055  125.3922   48.7295 N   0  0  0  0  0  0  0  0  0  0  0  0
   -2.9222  125.3481   48.4146 C   0  0  0  0  0  0  0  0  0  0  0  0
   -2.5833  125.5457   47.2268 O   0  0  0  0  0  0  0  0  0  0  0  0
   -1.8947  125.0820   49.4236 C   0  0  1  0  0  0  0  0  0  0  0  0
   -0.8514  124.3345   48.8811 O   0  0  0  0  0  0  0  0  0  0  0  0
   -1.2101  126.3289   49.9226 C   0  0  1  0  0  0  0  0  0  0  0  0
   -1.7513  126.7077   51.1437 O   0  0  0  0  0  0  0  0  0  0  0  0
    0.2043  125.8350   50.1925 C   0  0  1  0  0  0  0  0  0  0  0  0
    0.5648  126.0008   51.5272 O   0  0  0  0  0  0  0  0  0  0  0  0
    0.1054  124.3922   49.8806 C   0  0  2  0  0  0  0  0  0  0  0  0
    1.3276  123.7457   49.5470 N   0  0  0  0  0  0  0  0  0  0  0  0
    1.4639  122.9384   48.4791 C   0  0  0  0  0  0  0  0  0  0  0  0
    2.7092  122.4853   48.4274 N   0  0  0  0  0  0  0  0  0  0  0  0
    3.4155  122.9894   49.4652 C   0  0  0  0  0  0  0  0  0  0  0  0
    2.5274  123.7776   50.1540 C   0  0  0  0  0  0  0  0  0  0  0  0
    2.9549  124.4199   51.2547 N   0  0  0  0  0  0  0  0  0  0  0  0
    4.2407  124.2719   51.6499 C   0  0  0  0  0  0  0  0  0  0  0  0
    5.1142  123.4907   50.9640 N   0  0  0  0  0  0  0  0  0  0  0  0
    4.7356  122.8304   49.8609 C   0  0  0  0  0  0  0  0  0  0  0  0
    5.5839  122.0003   49.0945 N   0  0  0  0  0  0  0  0  0  0  0  0
  1  2  1  0
  2  3  1  0
  3  4  1  0
  4  5  1  0
  5  6  2  0
  7  5  1  6
  7  8  1  0
  7  9  1  0
  8 13  1  0
  9 10  1  1
  9 11  1  0
 11 12  1  1
 11 13  1  0
 13 14  1  6
 14 15  1  0
 14 18  1  0
 15 16  2  0
 16 17  1  0
 17 18  2  0
 17 22  1  0
 18 19  1  0
 19 20  2  0
 20 21  1  0
 21 22  2  0
 22 23  1  0
M  END
$$$$
