
     RDKit          3D

 23 25  0  0  0  0  0  0  0  0999 V2000
   -6.4099  123.6862   49.0329 O   0  0  0  0  0  0  0  0  0  0  0  0
   -6.2391  123.9320   47.6909 C   0  0  0  0  0  0  0  0  0  0  0  0
   -5.1636  124.9489   47.4041 C   0  0  0  0  0  0  0  0  0  0  0  0
   -4.1705  125.0323   48.4195 N   0  0  0  0  0  0  0  0  0  0  0  0
   -2.7836  125.2222   48.1849 C   0  0  0  0  0  0  0  0  0  0  0  0
   -2.4249  125.5848   47.0427 O   0  0  0  0  0  0  0  0  0  0  0  0
   -1.7745  125.0096   49.2247 C   0  0  1  0  0  0  0  0  0  0  0  0
   -0.7382  124.2077   48.7507 O   0  0  0  0  0  0  0  0  0  0  0  0
   -1.0736  126.2762   49.6451 C   0  0  1  0  0  0  0  0  0  0  0  0
   -1.6236  126.7491   50.8289 O   0  0  0  0  0  0  0  0  0  0  0  0
    0.3278  125.7778   49.9692 C   0  0  1  0  0  0  0  0  0  0  0  0
    0.6738  126.0304   51.2941 O   0  0  0  0  0  0  0  0  0  0  0  0
    0.2064  124.3186   49.7574 C   0  0  2  0  0  0  0  0  0  0  0  0
    1.4207  123.6291   49.4873 N   0  0  0  0  0  0  0  0  0  0  0  0
    1.5741  122.7925   48.4446 C   0  0  0  0  0  0  0  0  0  0  0  0
    2.8063  122.3023   48.4526 N   0  0  0  0  0  0  0  0  0  0  0  0
    3.4867  122.8108   49.5055 C   0  0  0  0  0  0  0  0  0  0  0  0
    2.5965  123.6409   50.1404 C   0  0  0  0  0  0  0  0  0  0  0  0
    3.0000  124.2970   51.2419 N   0  0  0  0  0  0  0  0  0  0  0  0
    4.2646  124.1215   51.6909 C   0  0  0  0  0  0  0  0  0  0  0  0
    5.1402  123.2989   51.0582 N   0  0  0  0  0  0  0  0  0  0  0  0
    4.7851  122.6232   49.9566 C   0  0  0  0  0  0  0  0  0  0  0  0
    5.6372  121.7504   49.2437 N   0  0  0  0  0  0  0  0  0  0  0  0
  1  2  1  0
  2  3  1  0
  3  4  1  0
  4  5  1  0
  5  6  2  0
  7  5  1  6
  7  8  1  0
  7  9  1  0
  8 13  1  0
  9 10  1  1
  9 11  1  0
 11 12  1  1
 11 13  1  0
 13 14  1  6
 14 15  1  0
 14 18  1  0
 15 16  2  0
 16 17  1  0
 17 18  2  0
 17 22  1  0
 18 19  1  0
 19 20  2  0
 20 21  1  0
 21 22  2  0
 22 23  1  0
M  END
$$$$
