
     RDKit          3D

 23 25  0  0  0  0  0  0  0  0999 V2000
   -5.3119  126.5132   46.9946 O   0  0  0  0  0  0  0  0  0  0  0  0
   -4.9465  125.2595   46.5642 C   0  0  0  0  0  0  0  0  0  0  0  0
   -5.1096  124.1964   47.6209 C   0  0  0  0  0  0  0  0  0  0  0  0
   -4.1527  124.2820   48.6702 N   0  0  0  0  0  0  0  0  0  0  0  0
   -2.8644  124.8653   48.5484 C   0  0  0  0  0  0  0  0  0  0  0  0
   -2.6366  125.5840   47.5503 O   0  0  0  0  0  0  0  0  0  0  0  0
   -1.8092  124.6541   49.5417 C   0  0  1  0  0  0  0  0  0  0  0  0
   -0.7493  123.9362   48.9914 O   0  0  0  0  0  0  0  0  0  0  0  0
   -1.1619  125.9335   50.0071 C   0  0  1  0  0  0  0  0  0  0  0  0
   -1.6938  126.3129   51.2320 O   0  0  0  0  0  0  0  0  0  0  0  0
    0.2746  125.4963   50.2577 C   0  0  1  0  0  0  0  0  0  0  0  0
    0.6535  125.6978   51.5824 O   0  0  0  0  0  0  0  0  0  0  0  0
    0.2232  124.0458   49.9713 C   0  0  2  0  0  0  0  0  0  0  0  0
    1.4619  123.4389   49.6248 N   0  0  0  0  0  0  0  0  0  0  0  0
    1.6014  122.5952   48.5858 C   0  0  0  0  0  0  0  0  0  0  0  0
    2.8633  122.1939   48.5125 N   0  0  0  0  0  0  0  0  0  0  0  0
    3.5777  122.7696   49.5066 C   0  0  0  0  0  0  0  0  0  0  0  0
    2.6770  123.5467   50.1916 C   0  0  0  0  0  0  0  0  0  0  0  0
    3.1087  124.2509   51.2520 N   0  0  0  0  0  0  0  0  0  0  0  0
    4.4111  124.1742   51.6116 C   0  0  0  0  0  0  0  0  0  0  0  0
    5.2970  123.4036   50.9296 N   0  0  0  0  0  0  0  0  0  0  0  0
    4.9147  122.6832   49.8660 C   0  0  0  0  0  0  0  0  0  0  0  0
    5.7752  121.8594   49.1065 N   0  0  0  0  0  0  0  0  0  0  0  0
  1  2  1  0
  2  3  1  0
  3  4  1  0
  4  5  1  0
  5  6  2  0
  7  5  1  6
  7  8  1  0
  7  9  1  0
  8 13  1  0
  9 10  1  1
  9 11  1  0
 11 12  1  1
 11 13  1  0
 13 14  1  6
 14 15  1  0
 14 18  1  0
 15 16  2  0
 16 17  1  0
 17 18  2  0
 17 22  1  0
 18 19  1  0
 19 20  2  0
 20 21  1  0
 21 22  2  0
 22 23  1  0
M  END
$$$$
