
     RDKit          3D

 23 25  0  0  0  0  0  0  0  0999 V2000
   -5.0941  129.1622   47.7391 O   0  0  0  0  0  0  0  0  0  0  0  0
   -4.0808  128.5058   47.0811 C   0  0  0  0  0  0  0  0  0  0  0  0
   -4.1415  127.0075   47.2382 C   0  0  0  0  0  0  0  0  0  0  0  0
   -3.3699  126.5155   48.3276 N   0  0  0  0  0  0  0  0  0  0  0  0
   -1.9562  126.3889   48.3293 C   0  0  0  0  0  0  0  0  0  0  0  0
   -1.3163  126.9328   47.4022 O   0  0  0  0  0  0  0  0  0  0  0  0
   -1.2346  125.6514   49.3686 C   0  0  1  0  0  0  0  0  0  0  0  0
   -0.2584  124.8320   48.8054 O   0  0  0  0  0  0  0  0  0  0  0  0
   -0.4510  126.5422   50.2986 C   0  0  1  0  0  0  0  0  0  0  0  0
   -1.1585  126.7318   51.4779 O   0  0  0  0  0  0  0  0  0  0  0  0
    0.7561  125.6773   50.6336 C   0  0  1  0  0  0  0  0  0  0  0  0
    0.8495  125.4254   51.9999 O   0  0  0  0  0  0  0  0  0  0  0  0
    0.4579  124.4183   49.9161 C   0  0  2  0  0  0  0  0  0  0  0  0
    1.5803  123.6011   49.6069 N   0  0  0  0  0  0  0  0  0  0  0  0
    1.5563  122.6494   48.6560 C   0  0  0  0  0  0  0  0  0  0  0  0
    2.7416  122.0575   48.5973 N   0  0  0  0  0  0  0  0  0  0  0  0
    3.5683  122.6128   49.5128 C   0  0  0  0  0  0  0  0  0  0  0  0
    2.8174  123.5793   50.1344 C   0  0  0  0  0  0  0  0  0  0  0  0
    3.3861  124.3099   51.1088 N   0  0  0  0  0  0  0  0  0  0  0  0
    4.6749  124.0732   51.4470 C   0  0  0  0  0  0  0  0  0  0  0  0
    5.4123  123.1156   50.8281 N   0  0  0  0  0  0  0  0  0  0  0  0
    4.8900  122.3614   49.8511 C   0  0  0  0  0  0  0  0  0  0  0  0
    5.5915  121.3477   49.1609 N   0  0  0  0  0  0  0  0  0  0  0  0
  1  2  1  0
  2  3  1  0
  3  4  1  0
  4  5  1  0
  5  6  2  0
  7  5  1  6
  7  8  1  0
  7  9  1  0
  8 13  1  0
  9 10  1  1
  9 11  1  0
 11 12  1  1
 11 13  1  0
 13 14  1  6
 14 15  1  0
 14 18  1  0
 15 16  2  0
 16 17  1  0
 17 18  2  0
 17 22  1  0
 18 19  1  0
 19 20  2  0
 20 21  1  0
 21 22  2  0
 22 23  1  0
M  END
$$$$
