
     RDKit          3D

 42 45  0  0  0  0  0  0  0  0999 V2000
   73.7761   54.1899   14.7961 C   0  0  0  0  0  0  0  0  0  0  0  0
   71.8732   56.2226   14.5784 C   0  0  0  0  0  0  0  0  0  0  0  0
   72.7302   58.5501   17.7656 C   0  0  0  0  0  0  0  0  0  0  0  0
   74.8130   61.5112   18.2155 C   0  0  0  0  0  0  0  0  0  0  0  0
   73.6834   60.8272   20.1303 C   0  0  1  0  0  0  0  0  0  0  0  0
   72.5606   61.8185   20.0575 C   0  0  0  0  0  0  0  0  0  0  0  0
   66.4641   52.0577   13.2133 C   0  0  0  0  0  0  0  0  0  0  0  0
   66.4674   52.4387   14.6752 C   0  0  0  0  0  0  0  0  0  0  0  0
   67.2771   53.6804   14.8423 C   0  0  0  0  0  0  0  0  0  0  0  0
   68.7528   53.3778   14.5292 C   0  0  0  0  0  0  0  0  0  0  0  0
   68.7971   52.9662   13.0774 C   0  0  0  0  0  0  0  0  0  0  0  0
   67.8711   51.8315   12.7702 C   0  0  0  0  0  0  0  0  0  0  0  0
   71.7591   54.1618   13.3650 C   0  0  0  0  0  0  0  0  0  0  0  0
   73.2310   53.9688   13.3874 C   0  0  1  0  0  0  0  0  0  0  0  0
   73.9414   54.8139   12.3875 C   0  0  0  0  0  0  0  0  0  0  0  0
   70.7448   57.1851   14.8754 C   0  0  2  0  0  0  0  0  0  0  0  0
   70.9411   57.8382   16.2330 C   0  0  2  0  0  0  0  0  0  0  0  0
   74.0841   60.2994   18.7660 C   0  0  1  0  0  0  0  0  0  0  0  0
   74.8793   61.7118   20.4456 C   0  0  1  0  0  0  0  0  0  0  0  0
   73.1758   63.1145   20.5656 C   0  0  0  0  0  0  0  0  0  0  0  0
   70.0860   59.0534   16.2917 C   0  0  0  0  0  0  0  0  0  0  0  0
   69.6683   59.4525   17.6782 C   0  0  0  0  0  0  0  0  0  0  0  0
   69.3738   58.3062   18.5796 C   0  0  0  0  0  0  0  0  0  0  0  0
   68.5312   58.8397   19.7448 C   0  0  0  0  0  0  0  0  0  0  0  0
   68.8351   60.3071   20.0028 C   0  0  0  0  0  0  0  0  0  0  0  0
   68.1878   61.0937   18.8777 C   0  0  0  0  0  0  0  0  0  0  0  0
   68.4404   60.3355   17.6024 C   0  0  0  0  0  0  0  0  0  0  0  0
   65.7245   54.3971   13.1427 C   0  0  0  0  0  0  0  0  0  0  0  0
   75.1865   55.4518   12.9063 C   0  0  0  0  0  0  0  0  0  0  0  0
   74.0482   52.8863   15.4835 C   0  0  0  0  0  0  0  0  0  0  0  0
   65.7925   53.1068   12.3533 C   0  0  1  0  0  0  0  0  0  0  0  0
   71.2607   54.8811   14.4667 N   0  0  0  0  0  0  0  0  0  0  0  0
   72.3247   58.0621   16.4946 N   0  0  0  0  0  0  0  0  0  0  0  0
   69.3143   55.3988   16.1500 O   0  0  0  0  0  0  0  0  0  0  0  0
   68.9785   55.8982   13.7905 O   0  0  0  0  0  0  0  0  0  0  0  0
   69.5631   56.4426   14.8037 O   0  0  0  0  0  0  0  0  0  0  0  0
   72.8695   57.7913   18.7689 O   0  0  0  0  0  0  0  0  0  0  0  0
   73.0006   59.9035   17.9847 O   0  0  0  0  0  0  0  0  0  0  0  0
   75.3827   62.1737   19.2653 O   0  0  0  0  0  0  0  0  0  0  0  0
   74.3374   62.7290   21.2473 O   0  0  0  0  0  0  0  0  0  0  0  0
   66.5305   53.2501   11.1982 O   0  0  0  0  0  0  0  0  0  0  0  0
   69.6139   54.8981   14.7756 S   0  0  2  0  0  6  0  0  0  0  0  0
 14  1  1  1
  1 30  1  0
  2 16  1  0
 32  2  1  0
 33  3  1  0
  3 37  2  0
  3 38  1  0
 18  4  1  0
  4 39  1  0
  5  6  1  6
 18  5  1  0
  5 19  1  0
  6 20  1  0
  8  7  1  0
 12  7  1  0
  7 31  1  0
  9  8  1  0
 10  9  1  0
 10 11  1  0
 42 10  1  0
 11 12  1  0
 13 14  1  0
 32 13  1  0
 14 15  1  0
 15 29  1  0
 16 17  1  0
 16 36  1  1
 17 21  1  6
 17 33  1  0
 18 38  1  6
 19 39  1  6
 19 40  1  0
 40 20  1  0
 21 22  1  0
 22 23  1  0
 22 27  1  0
 23 24  1  0
 24 25  1  0
 26 25  1  0
 27 26  1  0
 31 28  1  1
 31 41  1  0
 42 32  1  6
 42 34  2  0
 42 35  2  0
M  END
$$$$
