
     RDKit          3D

 42 45  0  0  0  0  0  0  0  0999 V2000
   73.6783   55.3455   12.2639 C   0  0  0  0  0  0  0  0  0  0  0  0
   70.1139   57.2774   13.9312 C   0  0  0  0  0  0  0  0  0  0  0  0
   72.6749   58.9599   17.7397 C   0  0  0  0  0  0  0  0  0  0  0  0
   75.1285   61.4855   18.8560 C   0  0  0  0  0  0  0  0  0  0  0  0
   73.0711   60.9061   19.7733 C   0  0  1  0  0  0  0  0  0  0  0  0
   72.2130   61.7312   18.8613 C   0  0  0  0  0  0  0  0  0  0  0  0
   67.1398   51.5666   12.6843 C   0  0  0  0  0  0  0  0  0  0  0  0
   67.5964   51.3842   14.1128 C   0  0  0  0  0  0  0  0  0  0  0  0
   67.8495   52.7286   14.7076 C   0  0  0  0  0  0  0  0  0  0  0  0
   69.0544   53.3816   14.0082 C   0  0  0  0  0  0  0  0  0  0  0  0
   68.6531   53.5621   12.5641 C   0  0  0  0  0  0  0  0  0  0  0  0
   68.2048   52.2852   11.9252 C   0  0  0  0  0  0  0  0  0  0  0  0
   71.4161   55.3828   13.2630 C   0  0  0  0  0  0  0  0  0  0  0  0
   72.8246   55.8185   13.4378 C   0  0  1  0  0  0  0  0  0  0  0  0
   73.4049   55.3932   14.7421 C   0  0  0  0  0  0  0  0  0  0  0  0
   71.2080   58.1825   14.4522 C   0  0  2  0  0  0  0  0  0  0  0  0
   71.0900   58.3542   15.9572 C   0  0  2  0  0  0  0  0  0  0  0  0
   74.2432   60.2687   19.0519 C   0  0  1  0  0  0  0  0  0  0  0  0
   73.7933   61.9666   20.5891 C   0  0  1  0  0  0  0  0  0  0  0  0
   72.3509   63.1471   19.4019 C   0  0  0  0  0  0  0  0  0  0  0  0
   70.4184   59.6537   16.2250 C   0  0  0  0  0  0  0  0  0  0  0  0
   69.8286   59.7760   17.6009 C   0  0  0  0  0  0  0  0  0  0  0  0
   69.0776   58.5732   18.0511 C   0  0  0  0  0  0  0  0  0  0  0  0
   68.1656   59.0041   19.2066 C   0  0  0  0  0  0  0  0  0  0  0  0
   68.7595   60.1907   19.9491 C   0  0  0  0  0  0  0  0  0  0  0  0
   68.5784   61.4034   19.0546 C   0  0  0  0  0  0  0  0  0  0  0  0
   68.9002   60.9714   17.6493 C   0  0  0  0  0  0  0  0  0  0  0  0
   66.0708   53.6358   11.9092 C   0  0  0  0  0  0  0  0  0  0  0  0
   74.8698   55.1136   14.6929 C   0  0  0  0  0  0  0  0  0  0  0  0
   73.8325   53.8548   12.2710 C   0  0  0  0  0  0  0  0  0  0  0  0
   65.8241   52.3100   12.5979 C   0  0  1  0  0  0  0  0  0  0  0  0
   70.5359   55.8929   14.2349 N   0  0  0  0  0  0  0  0  0  0  0  0
   72.3576   58.1899   16.5890 N   0  0  0  0  0  0  0  0  0  0  0  0
   69.3608   54.7265   16.2717 O   0  0  0  0  0  0  0  0  0  0  0  0
   67.9709   55.7251   14.5395 O   0  0  0  0  0  0  0  0  0  0  0  0
   71.0818   59.3918   13.7633 O   0  0  0  0  0  0  0  0  0  0  0  0
   71.8826   59.0693   18.7205 O   0  0  0  0  0  0  0  0  0  0  0  0
   73.8868   59.6459   17.8577 O   0  0  0  0  0  0  0  0  0  0  0  0
   74.9094   62.3391   19.8995 O   0  0  0  0  0  0  0  0  0  0  0  0
   72.8481   62.9984   20.7031 O   0  0  0  0  0  0  0  0  0  0  0  0
   64.9342   51.5253   11.8966 O   0  0  0  0  0  0  0  0  0  0  0  0
   69.2741   54.9445   14.7971 S   0  0  2  0  0  6  0  0  0  0  0  0
 14  1  1  6
  1 30  1  0
  2 16  1  0
 32  2  1  0
 33  3  1  0
  3 37  2  0
  3 38  1  0
 18  4  1  0
  4 39  1  0
  5  6  1  6
 18  5  1  0
  5 19  1  0
  6 20  1  0
  8  7  1  0
 12  7  1  0
  7 31  1  0
  9  8  1  0
 10  9  1  0
 10 11  1  0
 42 10  1  0
 11 12  1  0
 13 14  1  0
 32 13  1  0
 14 15  1  0
 15 29  1  0
 16 17  1  0
 16 36  1  6
 17 21  1  6
 17 33  1  0
 18 38  1  6
 19 39  1  6
 19 40  1  0
 40 20  1  0
 21 22  1  0
 22 23  1  0
 22 27  1  0
 23 24  1  0
 24 25  1  0
 26 25  1  0
 27 26  1  0
 31 28  1  6
 31 41  1  0
 42 32  1  6
 42 34  2  0
 42 35  2  0
M  END
$$$$
