
     RDKit          3D

 42 45  0  0  0  0  0  0  0  0999 V2000
   73.0244   53.9501   12.2459 C   0  0  0  0  0  0  0  0  0  0  0  0
   70.0218   56.9185   14.3109 C   0  0  0  0  0  0  0  0  0  0  0  0
   72.9410   59.7110   17.1564 C   0  0  0  0  0  0  0  0  0  0  0  0
   73.2156   62.1685   18.7862 C   0  0  0  0  0  0  0  0  0  0  0  0
   74.8014   60.5664   19.3593 C   0  0  1  0  0  0  0  0  0  0  0  0
   73.8479   59.4495   19.6625 C   0  0  0  0  0  0  0  0  0  0  0  0
   66.6559   51.8344   13.0811 C   0  0  0  0  0  0  0  0  0  0  0  0
   67.2920   53.0103   12.3772 C   0  0  0  0  0  0  0  0  0  0  0  0
   68.4520   53.4808   13.1886 C   0  0  0  0  0  0  0  0  0  0  0  0
   67.9455   54.0672   14.5178 C   0  0  0  0  0  0  0  0  0  0  0  0
   67.2764   52.9291   15.2499 C   0  0  0  0  0  0  0  0  0  0  0  0
   66.2079   52.2682   14.4368 C   0  0  0  0  0  0  0  0  0  0  0  0
   71.0707   54.9954   13.3449 C   0  0  0  0  0  0  0  0  0  0  0  0
   72.4992   54.6259   13.5100 C   0  0  1  0  0  0  0  0  0  0  0  0
   72.7456   53.7913   14.7189 C   0  0  0  0  0  0  0  0  0  0  0  0
   71.2456   57.7960   14.4528 C   0  0  2  0  0  0  0  0  0  0  0  0
   71.3709   58.3148   15.8752 C   0  0  2  0  0  0  0  0  0  0  0  0
   74.3661   61.3968   18.1670 C   0  0  1  0  0  0  0  0  0  0  0  0
   74.5281   61.5445   20.4909 C   0  0  1  0  0  0  0  0  0  0  0  0
   73.3067   59.7878   21.0441 C   0  0  0  0  0  0  0  0  0  0  0  0
   70.3249   59.3508   16.0855 C   0  0  0  0  0  0  0  0  0  0  0  0
   69.9882   59.6099   17.5261 C   0  0  0  0  0  0  0  0  0  0  0  0
   69.4814   58.4175   18.2574 C   0  0  0  0  0  0  0  0  0  0  0  0
   68.7530   58.9195   19.5103 C   0  0  0  0  0  0  0  0  0  0  0  0
   69.3279   60.2492   19.9723 C   0  0  0  0  0  0  0  0  0  0  0  0
   68.8422   61.3015   18.9924 C   0  0  0  0  0  0  0  0  0  0  0  0
   68.9490   60.7079   17.6135 C   0  0  0  0  0  0  0  0  0  0  0  0
   66.9825   49.4914   12.4266 C   0  0  0  0  0  0  0  0  0  0  0  0
   73.4866   54.4980   15.8042 C   0  0  0  0  0  0  0  0  0  0  0  0
   74.4514   53.5233   12.4117 C   0  0  0  0  0  0  0  0  0  0  0  0
   67.5969   50.6529   13.1791 C   0  0  1  0  0  0  0  0  0  0  0  0
   70.4802   55.5261   14.5064 N   0  0  0  0  0  0  0  0  0  0  0  0
   72.7042   58.7414   16.1457 N   0  0  0  0  0  0  0  0  0  0  0  0
   70.0403   53.4176   16.0066 O   0  0  0  0  0  0  0  0  0  0  0  0
   68.8729   55.4883   16.5350 O   0  0  0  0  0  0  0  0  0  0  0  0
   71.1044   58.8249   13.5176 O   0  0  0  0  0  0  0  0  0  0  0  0
   72.2199   59.7982   18.1929 O   0  0  0  0  0  0  0  0  0  0  0  0
   73.9893   60.6308   17.0660 O   0  0  0  0  0  0  0  0  0  0  0  0
   73.4916   62.3458   20.1120 O   0  0  0  0  0  0  0  0  0  0  0  0
   74.2118   60.7143   21.5780 O   0  0  0  0  0  0  0  0  0  0  0  0
   68.8107   51.0267   12.6437 O   0  0  0  0  0  0  0  0  0  0  0  0
   69.3870   54.6058   15.3813 S   0  0  2  0  0  6  0  0  0  0  0  0
 14  1  1  6
  1 30  1  0
  2 16  1  0
 32  2  1  0
 33  3  1  0
  3 37  2  0
  3 38  1  0
 18  4  1  0
  4 39  1  0
  5  6  1  1
 18  5  1  0
  5 19  1  0
  6 20  1  0
  8  7  1  0
 12  7  1  0
  7 31  1  0
  9  8  1  0
 10  9  1  0
 10 11  1  0
 42 10  1  0
 11 12  1  0
 13 14  1  0
 32 13  1  0
 14 15  1  0
 15 29  1  0
 16 17  1  0
 16 36  1  6
 17 21  1  6
 17 33  1  0
 18 38  1  6
 19 39  1  6
 19 40  1  0
 40 20  1  0
 21 22  1  0
 22 23  1  0
 22 27  1  0
 23 24  1  0
 24 25  1  0
 26 25  1  0
 27 26  1  0
 31 28  1  6
 31 41  1  0
 42 32  1  6
 42 34  2  0
 42 35  2  0
M  END
$$$$
