
     RDKit          3D

 42 45  0  0  0  0  0  0  0  0999 V2000
   68.6060   59.2010   17.3261 C   0  0  0  0  0  0  0  0  0  0  0  0
   70.0879   57.6813   15.4319 C   0  0  0  0  0  0  0  0  0  0  0  0
   73.3116   58.2611   17.1704 C   0  0  0  0  0  0  0  0  0  0  0  0
   74.8246   60.3297   18.1469 C   0  0  0  0  0  0  0  0  0  0  0  0
   73.3757   60.1167   19.9539 C   0  0  1  0  0  0  0  0  0  0  0  0
   72.1059   60.4364   19.2230 C   0  0  0  0  0  0  0  0  0  0  0  0
   67.4405   52.2005   12.7131 C   0  0  0  0  0  0  0  0  0  0  0  0
   68.3687   51.9559   13.8797 C   0  0  0  0  0  0  0  0  0  0  0  0
   68.1990   53.0637   14.8643 C   0  0  0  0  0  0  0  0  0  0  0  0
   68.7062   54.3799   14.2496 C   0  0  0  0  0  0  0  0  0  0  0  0
   67.8204   54.6548   13.0586 C   0  0  0  0  0  0  0  0  0  0  0  0
   67.7823   53.5134   12.0914 C   0  0  0  0  0  0  0  0  0  0  0  0
   67.7503   58.1654   15.2495 C   0  0  0  0  0  0  0  0  0  0  0  0
   67.4591   58.4267   16.6817 C   0  0  1  0  0  0  0  0  0  0  0  0
   67.1404   57.1869   17.4435 C   0  0  0  0  0  0  0  0  0  0  0  0
   71.0893   56.8232   14.6911 C   0  0  2  0  0  0  0  0  0  0  0  0
   72.5066   57.1614   15.1213 C   0  0  2  0  0  0  0  0  0  0  0  0
   74.3305   59.2795   19.1245 C   0  0  1  0  0  0  0  0  0  0  0  0
   74.1018   61.4526   19.9454 C   0  0  1  0  0  0  0  0  0  0  0  0
   72.1291   61.9518   19.0835 C   0  0  0  0  0  0  0  0  0  0  0  0
   73.4350   56.2169   14.4449 C   0  0  0  0  0  0  0  0  0  0  0  0
   74.6612   55.8738   15.2417 C   0  0  0  0  0  0  0  0  0  0  0  0
   75.6833   55.1017   14.4850 C   0  0  0  0  0  0  0  0  0  0  0  0
   76.6090   54.4337   15.5094 C   0  0  0  0  0  0  0  0  0  0  0  0
   76.6673   55.2454   16.7939 C   0  0  0  0  0  0  0  0  0  0  0  0
   75.3463   55.0299   17.5095 C   0  0  0  0  0  0  0  0  0  0  0  0
   74.2626   55.0770   16.4662 C   0  0  0  0  0  0  0  0  0  0  0  0
   65.1367   52.0696   11.8762 C   0  0  0  0  0  0  0  0  0  0  0  0
   67.6994   57.1635   18.8268 C   0  0  0  0  0  0  0  0  0  0  0  0
   68.1189   60.0441   18.4654 C   0  0  0  0  0  0  0  0  0  0  0  0
   65.9849   52.1651   13.1268 C   0  0  1  0  0  0  0  0  0  0  0  0
   68.7478   57.1960   15.0372 N   0  0  0  0  0  0  0  0  0  0  0  0
   72.6124   57.1958   16.5427 N   0  0  0  0  0  0  0  0  0  0  0  0
   69.2913   55.2313   16.6908 O   0  0  0  0  0  0  0  0  0  0  0  0
   66.9989   55.5019   15.9153 O   0  0  0  0  0  0  0  0  0  0  0  0
   70.8738   57.0510   13.3293 O   0  0  0  0  0  0  0  0  0  0  0  0
   73.6052   59.3304   16.5602 O   0  0  0  0  0  0  0  0  0  0  0  0
   73.7191   58.1915   18.5053 O   0  0  0  0  0  0  0  0  0  0  0  0
   74.8096   61.5384   18.7827 O   0  0  0  0  0  0  0  0  0  0  0  0
   73.0643   62.3948   20.0277 O   0  0  0  0  0  0  0  0  0  0  0  0
   65.8016   51.0790   13.9553 O   0  0  0  0  0  0  0  0  0  0  0  0
   68.4779   55.6074   15.4964 S   0  0  2  0  0  6  0  0  0  0  0  0
 14  1  1  1
  1 30  1  0
  2 16  1  0
 32  2  1  0
 33  3  1  0
  3 37  2  0
  3 38  1  0
 18  4  1  0
  4 39  1  0
  5  6  1  6
 18  5  1  0
  5 19  1  0
  6 20  1  0
  8  7  1  0
 12  7  1  0
  7 31  1  0
  9  8  1  0
 10  9  1  0
 10 11  1  0
 42 10  1  0
 11 12  1  0
 13 14  1  0
 32 13  1  0
 14 15  1  0
 15 29  1  0
 16 17  1  0
 16 36  1  6
 17 21  1  1
 17 33  1  0
 18 38  1  6
 19 39  1  6
 19 40  1  0
 40 20  1  0
 21 22  1  0
 22 23  1  0
 22 27  1  0
 23 24  1  0
 24 25  1  0
 26 25  1  0
 27 26  1  0
 31 28  1  6
 31 41  1  0
 42 32  1  6
 42 34  2  0
 42 35  2  0
M  END
$$$$
