
     RDKit          3D

 42 45  0  0  0  0  0  0  0  0999 V2000
   67.8589   55.4867   15.2601 C   0  0  0  0  0  0  0  0  0  0  0  0
   70.3788   57.2404   14.6926 C   0  0  0  0  0  0  0  0  0  0  0  0
   72.3056   58.9271   18.0476 C   0  0  0  0  0  0  0  0  0  0  0  0
   74.9391   60.6188   17.4073 C   0  0  0  0  0  0  0  0  0  0  0  0
   74.0997   60.4719   19.5715 C   0  0  1  0  0  0  0  0  0  0  0  0
   72.7346   61.0238   19.2879 C   0  0  0  0  0  0  0  0  0  0  0  0
   73.7180   51.3492   13.1115 C   0  0  0  0  0  0  0  0  0  0  0  0
   74.3447   52.0980   14.2644 C   0  0  0  0  0  0  0  0  0  0  0  0
   73.2875   52.9059   14.9390 C   0  0  0  0  0  0  0  0  0  0  0  0
   72.8037   54.0151   13.9888 C   0  0  0  0  0  0  0  0  0  0  0  0
   72.1887   53.3121   12.8029 C   0  0  0  0  0  0  0  0  0  0  0  0
   73.1236   52.3350   12.1619 C   0  0  0  0  0  0  0  0  0  0  0  0
   69.4543   55.4716   13.3703 C   0  0  0  0  0  0  0  0  0  0  0  0
   68.1964   56.0659   13.8886 C   0  0  1  0  0  0  0  0  0  0  0  0
   67.0561   55.9261   12.9404 C   0  0  0  0  0  0  0  0  0  0  0  0
   70.1404   56.9034   16.1478 C   0  0  2  0  0  0  0  0  0  0  0  0
   70.2139   58.1547   17.0064 C   0  0  2  0  0  0  0  0  0  0  0  0
   74.6087   59.5757   18.4587 C   0  0  1  0  0  0  0  0  0  0  0  0
   74.9904   61.6885   19.3748 C   0  0  1  0  0  0  0  0  0  0  0  0
   72.9537   62.5269   19.1938 C   0  0  0  0  0  0  0  0  0  0  0  0
   69.0597   59.0253   16.6580 C   0  0  0  0  0  0  0  0  0  0  0  0
   68.6201   59.9448   17.7614 C   0  0  0  0  0  0  0  0  0  0  0  0
   69.3264   61.2541   17.7812 C   0  0  0  0  0  0  0  0  0  0  0  0
   69.1377   61.8593   19.1777 C   0  0  0  0  0  0  0  0  0  0  0  0
   67.8404   61.3741   19.8053 C   0  0  0  0  0  0  0  0  0  0  0  0
   68.0640   59.9297   20.2139 C   0  0  0  0  0  0  0  0  0  0  0  0
   68.8254   59.2649   19.0988 C   0  0  0  0  0  0  0  0  0  0  0  0
   72.2112   49.5552   12.3794 C   0  0  0  0  0  0  0  0  0  0  0  0
   66.9159   54.5603   12.3562 C   0  0  0  0  0  0  0  0  0  0  0  0
   66.5395   54.7761   15.2393 C   0  0  0  0  0  0  0  0  0  0  0  0
   72.6747   50.3564   13.5777 C   0  0  1  0  0  0  0  0  0  0  0  0
   70.6161   55.9561   13.9989 N   0  0  0  0  0  0  0  0  0  0  0  0
   71.4924   58.7754   16.8929 N   0  0  0  0  0  0  0  0  0  0  0  0
   72.2429   55.6109   16.0297 O   0  0  0  0  0  0  0  0  0  0  0  0
   70.6500   53.8471   15.4993 O   0  0  0  0  0  0  0  0  0  0  0  0
   71.1066   55.9562   16.4972 O   0  0  0  0  0  0  0  0  0  0  0  0
   71.8420   59.3323   19.1534 O   0  0  0  0  0  0  0  0  0  0  0  0
   73.6725   58.6367   18.0313 O   0  0  0  0  0  0  0  0  0  0  0  0
   75.3116   61.7641   18.0515 O   0  0  0  0  0  0  0  0  0  0  0  0
   74.1913   62.7584   19.8081 O   0  0  0  0  0  0  0  0  0  0  0  0
   73.2474   49.5542   14.5410 O   0  0  0  0  0  0  0  0  0  0  0  0
   71.5798   54.9131   14.8882 S   0  0  2  0  0  6  0  0  0  0  0  0
 14  1  1  1
  1 30  1  0
  2 16  1  0
 32  2  1  0
 33  3  1  0
  3 37  2  0
  3 38  1  0
 18  4  1  0
  4 39  1  0
  5  6  1  6
 18  5  1  0
  5 19  1  0
  6 20  1  0
  8  7  1  0
 12  7  1  0
  7 31  1  0
  9  8  1  0
 10  9  1  0
 10 11  1  0
 42 10  1  0
 11 12  1  0
 13 14  1  0
 32 13  1  0
 14 15  1  0
 15 29  1  0
 16 17  1  0
 16 36  1  1
 17 21  1  6
 17 33  1  0
 18 38  1  6
 19 39  1  6
 19 40  1  0
 40 20  1  0
 21 22  1  0
 22 23  1  0
 22 27  1  0
 23 24  1  0
 24 25  1  0
 26 25  1  0
 27 26  1  0
 31 28  1  6
 31 41  1  0
 42 32  1  6
 42 34  2  0
 42 35  2  0
M  END
$$$$
