
     RDKit          3D

 42 45  0  0  0  0  0  0  0  0999 V2000
   73.3068   54.7263   15.7346 C   0  0  0  0  0  0  0  0  0  0  0  0
   70.3484   56.7370   14.0481 C   0  0  0  0  0  0  0  0  0  0  0  0
   72.6962   58.9549   17.4954 C   0  0  0  0  0  0  0  0  0  0  0  0
   75.2431   61.2940   18.7641 C   0  0  0  0  0  0  0  0  0  0  0  0
   73.2619   60.5709   19.7449 C   0  0  1  0  0  0  0  0  0  0  0  0
   72.3354   61.4988   19.0173 C   0  0  0  0  0  0  0  0  0  0  0  0
   67.1502   51.3083   12.4177 C   0  0  0  0  0  0  0  0  0  0  0  0
   68.2658   50.8477   13.3264 C   0  0  0  0  0  0  0  0  0  0  0  0
   68.5738   51.9401   14.2945 C   0  0  0  0  0  0  0  0  0  0  0  0
   69.1734   53.1404   13.5414 C   0  0  0  0  0  0  0  0  0  0  0  0
   68.0982   53.6226   12.5978 C   0  0  0  0  0  0  0  0  0  0  0  0
   67.5907   52.5394   11.6985 C   0  0  0  0  0  0  0  0  0  0  0  0
   71.8954   54.9404   13.7149 C   0  0  0  0  0  0  0  0  0  0  0  0
   72.8102   54.0421   14.4635 C   0  0  1  0  0  0  0  0  0  0  0  0
   73.9419   53.5447   13.6325 C   0  0  0  0  0  0  0  0  0  0  0  0
   71.3621   57.7154   14.5987 C   0  0  2  0  0  0  0  0  0  0  0  0
   70.9165   58.2441   15.9514 C   0  0  2  0  0  0  0  0  0  0  0  0
   74.3786   60.0505   18.8603 C   0  0  1  0  0  0  0  0  0  0  0  0
   74.0399   61.5228   20.6397 C   0  0  1  0  0  0  0  0  0  0  0  0
   72.5091   62.8320   19.7305 C   0  0  0  0  0  0  0  0  0  0  0  0
   69.4960   58.6695   15.8387 C   0  0  0  0  0  0  0  0  0  0  0  0
   68.8978   59.1819   17.1176 C   0  0  0  0  0  0  0  0  0  0  0  0
   69.1936   60.6126   17.3985 C   0  0  0  0  0  0  0  0  0  0  0  0
   68.9490   60.8497   18.8939 C   0  0  0  0  0  0  0  0  0  0  0  0
   67.9020   59.8855   19.4289 C   0  0  0  0  0  0  0  0  0  0  0  0
   68.5662   58.5240   19.5221 C   0  0  0  0  0  0  0  0  0  0  0  0
   69.3966   58.3483   18.2793 C   0  0  0  0  0  0  0  0  0  0  0  0
   64.7151   51.5202   12.1931 C   0  0  0  0  0  0  0  0  0  0  0  0
   73.7562   53.7523   12.1666 C   0  0  0  0  0  0  0  0  0  0  0  0
   74.7027   55.2439   15.5622 C   0  0  0  0  0  0  0  0  0  0  0  0
   65.8653   51.5608   13.1770 C   0  0  1  0  0  0  0  0  0  0  0  0
   70.7952   55.3910   14.4674 N   0  0  0  0  0  0  0  0  0  0  0  0
   71.8104   59.2491   16.4245 N   0  0  0  0  0  0  0  0  0  0  0  0
   69.6635   53.6681   16.0924 O   0  0  0  0  0  0  0  0  0  0  0  0
   68.2434   55.2207   14.8665 O   0  0  0  0  0  0  0  0  0  0  0  0
   71.4929   58.7277   13.6442 O   0  0  0  0  0  0  0  0  0  0  0  0
   72.4159   58.1068   18.3920 O   0  0  0  0  0  0  0  0  0  0  0  0
   73.9357   59.5876   17.6232 O   0  0  0  0  0  0  0  0  0  0  0  0
   75.1001   61.9982   19.9255 O   0  0  0  0  0  0  0  0  0  0  0  0
   73.1028   62.5179   20.9600 O   0  0  0  0  0  0  0  0  0  0  0  0
   65.7442   50.5904   14.1482 O   0  0  0  0  0  0  0  0  0  0  0  0
   69.5148   54.3549   14.7749 S   0  0  2  0  0  6  0  0  0  0  0  0
 14  1  1  1
  1 30  1  0
  2 16  1  0
 32  2  1  0
 33  3  1  0
  3 37  2  0
  3 38  1  0
 18  4  1  0
  4 39  1  0
  5  6  1  6
 18  5  1  0
  5 19  1  0
  6 20  1  0
  8  7  1  0
 12  7  1  0
  7 31  1  0
  9  8  1  0
 10  9  1  0
 10 11  1  0
 42 10  1  0
 11 12  1  0
 13 14  1  0
 32 13  1  0
 14 15  1  0
 15 29  1  0
 16 17  1  0
 16 36  1  6
 17 21  1  6
 17 33  1  0
 18 38  1  6
 19 39  1  6
 19 40  1  0
 40 20  1  0
 21 22  1  0
 22 23  1  0
 22 27  1  0
 23 24  1  0
 24 25  1  0
 26 25  1  0
 27 26  1  0
 31 28  1  6
 31 41  1  0
 42 32  1  6
 42 34  2  0
 42 35  2  0
M  END
$$$$
