
     RDKit          3D

 42 45  0  0  0  0  0  0  0  0999 V2000
   67.1857   52.8140   14.8616 C   0  0  0  0  0  0  0  0  0  0  0  0
   69.9164   56.1520   15.7265 C   0  0  0  0  0  0  0  0  0  0  0  0
   72.8936   58.7987   17.7459 C   0  0  0  0  0  0  0  0  0  0  0  0
   75.7028   60.5269   17.8014 C   0  0  0  0  0  0  0  0  0  0  0  0
   74.1804   60.4374   19.5577 C   0  0  1  0  0  0  0  0  0  0  0  0
   73.0041   61.0089   18.8239 C   0  0  0  0  0  0  0  0  0  0  0  0
   74.1297   51.4085   13.9849 C   0  0  0  0  0  0  0  0  0  0  0  0
   72.8145   51.4258   14.7282 C   0  0  0  0  0  0  0  0  0  0  0  0
   71.9948   52.5639   14.2200 C   0  0  0  0  0  0  0  0  0  0  0  0
   72.6641   53.8935   14.6091 C   0  0  0  0  0  0  0  0  0  0  0  0
   74.0001   53.9113   13.9063 C   0  0  0  0  0  0  0  0  0  0  0  0
   74.8311   52.7055   14.2147 C   0  0  0  0  0  0  0  0  0  0  0  0
   69.3510   54.0085   14.8221 C   0  0  0  0  0  0  0  0  0  0  0  0
   67.9457   54.0324   14.3437 C   0  0  1  0  0  0  0  0  0  0  0  0
   67.8400   54.1538   12.8628 C   0  0  0  0  0  0  0  0  0  0  0  0
   70.4640   57.4772   15.2450 C   0  0  2  0  0  0  0  0  0  0  0  0
   70.8687   58.3490   16.4216 C   0  0  2  0  0  0  0  0  0  0  0  0
   75.0128   59.5106   18.6924 C   0  0  1  0  0  0  0  0  0  0  0  0
   75.1141   61.6333   19.6581 C   0  0  1  0  0  0  0  0  0  0  0  0
   73.2780   62.5056   18.7912 C   0  0  0  0  0  0  0  0  0  0  0  0
   70.1393   59.6406   16.3150 C   0  0  0  0  0  0  0  0  0  0  0  0
   69.8092   60.2781   17.6344 C   0  0  0  0  0  0  0  0  0  0  0  0
   70.5834   59.7363   18.7835 C   0  0  0  0  0  0  0  0  0  0  0  0
   69.8309   60.1132   20.0658 C   0  0  0  0  0  0  0  0  0  0  0  0
   69.0331   61.3922   19.8670 C   0  0  0  0  0  0  0  0  0  0  0  0
   67.8387   61.0344   19.0016 C   0  0  0  0  0  0  0  0  0  0  0  0
   68.3325   60.1077   17.9234 C   0  0  0  0  0  0  0  0  0  0  0  0
   72.5144   50.7093   12.2741 C   0  0  0  0  0  0  0  0  0  0  0  0
   68.3198   52.9525   12.1191 C   0  0  0  0  0  0  0  0  0  0  0  0
   65.9082   52.6094   14.1051 C   0  0  0  0  0  0  0  0  0  0  0  0
   73.9434   51.1538   12.5045 C   0  0  1  0  0  0  0  0  0  0  0  0
   70.0515   55.2077   14.5964 N   0  0  0  0  0  0  0  0  0  0  0  0
   72.2874   58.4636   16.5057 N   0  0  0  0  0  0  0  0  0  0  0  0
   71.6116   55.0868   12.4889 O   0  0  0  0  0  0  0  0  0  0  0  0
   72.2872   56.4906   14.3605 O   0  0  0  0  0  0  0  0  0  0  0  0
   69.4603   58.0599   14.4664 O   0  0  0  0  0  0  0  0  0  0  0  0
   72.2412   59.3115   18.7014 O   0  0  0  0  0  0  0  0  0  0  0  0
   74.2531   58.5810   17.9858 O   0  0  0  0  0  0  0  0  0  0  0  0
   75.8639   61.6773   18.5198 O   0  0  0  0  0  0  0  0  0  0  0  0
   74.2416   62.7259   19.7839 O   0  0  0  0  0  0  0  0  0  0  0  0
   74.2331   52.3201   11.8296 O   0  0  0  0  0  0  0  0  0  0  0  0
   71.6090   55.1603   13.9803 S   0  0  2  0  0  6  0  0  0  0  0  0
 14  1  1  6
  1 30  1  0
  2 16  1  0
 32  2  1  0
 33  3  1  0
  3 37  2  0
  3 38  1  0
 18  4  1  0
  4 39  1  0
  5  6  1  6
 18  5  1  0
  5 19  1  0
  6 20  1  0
  8  7  1  0
 12  7  1  0
  7 31  1  0
  9  8  1  0
 10  9  1  0
 10 11  1  0
 42 10  1  0
 11 12  1  0
 13 14  1  0
 32 13  1  0
 14 15  1  0
 15 29  1  0
 16 17  1  0
 16 36  1  1
 17 21  1  6
 17 33  1  0
 18 38  1  6
 19 39  1  6
 19 40  1  0
 40 20  1  0
 21 22  1  0
 22 23  1  0
 22 27  1  0
 23 24  1  0
 24 25  1  0
 26 25  1  0
 27 26  1  0
 31 28  1  1
 31 41  1  0
 42 32  1  1
 42 34  2  0
 42 35  2  0
M  END
$$$$
