
     RDKit          3D

 42 45  0  0  0  0  0  0  0  0999 V2000
   75.0632   55.1362   13.9927 C   0  0  0  0  0  0  0  0  0  0  0  0
   71.8562   56.8811   14.4203 C   0  0  0  0  0  0  0  0  0  0  0  0
   73.1709   58.9443   17.5394 C   0  0  0  0  0  0  0  0  0  0  0  0
   74.4677   62.1571   18.2042 C   0  0  0  0  0  0  0  0  0  0  0  0
   74.2851   60.3167   19.6148 C   0  0  1  0  0  0  0  0  0  0  0  0
   72.7916   60.3228   19.7491 C   0  0  0  0  0  0  0  0  0  0  0  0
   66.3396   52.9725   14.3906 C   0  0  0  0  0  0  0  0  0  0  0  0
   66.2569   54.3652   13.8107 C   0  0  0  0  0  0  0  0  0  0  0  0
   67.5605   54.6894   13.1619 C   0  0  0  0  0  0  0  0  0  0  0  0
   68.6573   54.7937   14.2360 C   0  0  0  0  0  0  0  0  0  0  0  0
   68.7598   53.4249   14.8643 C   0  0  0  0  0  0  0  0  0  0  0  0
   67.4483   52.9302   15.3885 C   0  0  0  0  0  0  0  0  0  0  0  0
   72.6429   54.6410   14.1123 C   0  0  0  0  0  0  0  0  0  0  0  0
   73.8295   55.0787   14.8900 C   0  0  1  0  0  0  0  0  0  0  0  0
   74.0710   54.2419   16.0984 C   0  0  0  0  0  0  0  0  0  0  0  0
   70.6819   57.5537   15.0960 C   0  0  2  0  0  0  0  0  0  0  0  0
   71.1189   58.2237   16.3876 C   0  0  2  0  0  0  0  0  0  0  0  0
   74.7455   60.6653   18.2122 C   0  0  1  0  0  0  0  0  0  0  0  0
   74.6844   61.5816   20.3582 C   0  0  1  0  0  0  0  0  0  0  0  0
   72.5125   61.4421   20.7419 C   0  0  0  0  0  0  0  0  0  0  0  0
   70.5449   59.5953   16.4165 C   0  0  0  0  0  0  0  0  0  0  0  0
   69.9229   59.9808   17.7282 C   0  0  0  0  0  0  0  0  0  0  0  0
   69.9000   58.8870   18.7365 C   0  0  0  0  0  0  0  0  0  0  0  0
   68.8510   59.2551   19.7932 C   0  0  0  0  0  0  0  0  0  0  0  0
   68.6999   60.7644   19.9005 C   0  0  0  0  0  0  0  0  0  0  0  0
   67.9445   61.2187   18.6650 C   0  0  0  0  0  0  0  0  0  0  0  0
   68.5032   60.4534   17.4957 C   0  0  0  0  0  0  0  0  0  0  0  0
   66.4372   50.5566   13.9678 C   0  0  0  0  0  0  0  0  0  0  0  0
   73.6917   52.8086   15.9303 C   0  0  0  0  0  0  0  0  0  0  0  0
   75.1528   53.9245   13.1152 C   0  0  0  0  0  0  0  0  0  0  0  0
   66.5402   51.9213   13.3201 C   0  0  1  0  0  0  0  0  0  0  0  0
   71.5067   55.4491   14.3011 N   0  0  0  0  0  0  0  0  0  0  0  0
   72.5351   58.1602   16.5400 N   0  0  0  0  0  0  0  0  0  0  0  0
   69.8636   56.3543   12.4651 O   0  0  0  0  0  0  0  0  0  0  0  0
   70.4282   53.9856   12.4586 O   0  0  0  0  0  0  0  0  0  0  0  0
   69.7239   56.5582   15.3061 O   0  0  0  0  0  0  0  0  0  0  0  0
   72.9673   58.7606   18.7749 O   0  0  0  0  0  0  0  0  0  0  0  0
   74.0632   59.9702   17.2162 O   0  0  0  0  0  0  0  0  0  0  0  0
   74.6240   62.6223   19.4788 O   0  0  0  0  0  0  0  0  0  0  0  0
   73.7339   61.6758   21.3871 O   0  0  0  0  0  0  0  0  0  0  0  0
   65.5748   52.1048   12.3536 O   0  0  0  0  0  0  0  0  0  0  0  0
   70.1391   55.1963   13.3667 S   0  0  2  0  0  6  0  0  0  0  0  0
 14  1  1  6
  1 30  1  0
  2 16  1  0
 32  2  1  0
 33  3  1  0
  3 37  2  0
  3 38  1  0
 18  4  1  0
  4 39  1  0
  5  6  1  6
 18  5  1  0
  5 19  1  0
  6 20  1  0
  8  7  1  0
 12  7  1  0
  7 31  1  0
  9  8  1  0
 10  9  1  0
 10 11  1  0
 42 10  1  0
 11 12  1  0
 13 14  1  0
 32 13  1  0
 14 15  1  0
 15 29  1  0
 16 17  1  0
 16 36  1  1
 17 21  1  6
 17 33  1  0
 18 38  1  6
 19 39  1  6
 19 40  1  0
 40 20  1  0
 21 22  1  0
 22 23  1  0
 22 27  1  0
 23 24  1  0
 24 25  1  0
 26 25  1  0
 27 26  1  0
 31 28  1  1
 31 41  1  0
 42 32  1  1
 42 34  2  0
 42 35  2  0
M  END
$$$$
