
     RDKit          3D

 42 45  0  0  0  0  0  0  0  0999 V2000
   67.9690   53.4221   13.5171 C   0  0  0  0  0  0  0  0  0  0  0  0
   69.9648   56.8097   14.7967 C   0  0  0  0  0  0  0  0  0  0  0  0
   72.7227   59.6466   17.6242 C   0  0  0  0  0  0  0  0  0  0  0  0
   74.5786   62.6271   18.0620 C   0  0  0  0  0  0  0  0  0  0  0  0
   73.2731   61.4566   19.5904 C   0  0  1  0  0  0  0  0  0  0  0  0
   71.9372   61.7754   18.9883 C   0  0  0  0  0  0  0  0  0  0  0  0
   72.7027   58.3169   19.7538 C   0  0  0  0  0  0  0  0  0  0  0  0
   71.3279   57.6970   19.6614 C   0  0  0  0  0  0  0  0  0  0  0  0
   71.3936   56.5275   18.7376 C   0  0  0  0  0  0  0  0  0  0  0  0
   71.6822   57.0173   17.3079 C   0  0  0  0  0  0  0  0  0  0  0  0
   73.0426   57.6700   17.3552 C   0  0  0  0  0  0  0  0  0  0  0  0
   73.1307   58.7471   18.3905 C   0  0  0  0  0  0  0  0  0  0  0  0
   69.7256   54.4316   14.9357 C   0  0  0  0  0  0  0  0  0  0  0  0
   69.3369   54.0995   13.5419 C   0  0  1  0  0  0  0  0  0  0  0  0
   70.3630   53.2854   12.8327 C   0  0  0  0  0  0  0  0  0  0  0  0
   71.0245   57.8708   14.9943 C   0  0  2  0  0  0  0  0  0  0  0  0
   70.9634   58.4329   16.4044 C   0  0  2  0  0  0  0  0  0  0  0  0
   74.3403   61.2073   18.5418 C   0  0  1  0  0  0  0  0  0  0  0  0
   73.7211   62.8083   20.1236 C   0  0  1  0  0  0  0  0  0  0  0  0
   71.6560   63.2007   19.4417 C   0  0  0  0  0  0  0  0  0  0  0  0
   69.5363   58.6715   16.7478 C   0  0  0  0  0  0  0  0  0  0  0  0
   69.3151   59.2488   18.1167 C   0  0  0  0  0  0  0  0  0  0  0  0
   69.7066   60.6783   18.2457 C   0  0  0  0  0  0  0  0  0  0  0  0
   69.8781   60.9770   19.7402 C   0  0  0  0  0  0  0  0  0  0  0  0
   68.9926   60.0674   20.5773 C   0  0  0  0  0  0  0  0  0  0  0  0
   69.6276   58.6892   20.5484 C   0  0  0  0  0  0  0  0  0  0  0  0
   70.0895   58.4418   19.1376 C   0  0  0  0  0  0  0  0  0  0  0  0
   74.9305   57.3299   19.4583 C   0  0  0  0  0  0  0  0  0  0  0  0
   70.5224   53.6316   11.3901 C   0  0  0  0  0  0  0  0  0  0  0  0
   66.9280   54.3230   12.9249 C   0  0  0  0  0  0  0  0  0  0  0  0
   73.7148   57.3688   20.3602 C   0  0  1  0  0  0  0  0  0  0  0  0
   70.6255   55.5085   15.0364 N   0  0  0  0  0  0  0  0  0  0  0  0
   71.8129   59.5704   16.5360 N   0  0  0  0  0  0  0  0  0  0  0  0
   71.6001   54.3704   17.1916 O   0  0  0  0  0  0  0  0  0  0  0  0
   73.1303   55.5238   15.6890 O   0  0  0  0  0  0  0  0  0  0  0  0
   70.7949   58.8448   14.0187 O   0  0  0  0  0  0  0  0  0  0  0  0
   72.4935   59.0915   18.7382 O   0  0  0  0  0  0  0  0  0  0  0  0
   73.9309   60.3426   17.5290 O   0  0  0  0  0  0  0  0  0  0  0  0
   74.3513   63.4709   19.1117 O   0  0  0  0  0  0  0  0  0  0  0  0
   72.5226   63.4225   20.5198 O   0  0  0  0  0  0  0  0  0  0  0  0
   74.0268   57.8257   21.6225 O   0  0  0  0  0  0  0  0  0  0  0  0
   71.7186   55.5661   16.3050 S   0  0  2  0  0  6  0  0  0  0  0  0
 14  1  1  1
  1 30  1  0
  2 16  1  0
 32  2  1  0
 33  3  1  0
  3 37  2  0
  3 38  1  0
 18  4  1  0
  4 39  1  0
  5  6  1  6
 18  5  1  0
  5 19  1  0
  6 20  1  0
  8  7  1  0
 12  7  1  0
  7 31  1  0
  9  8  1  0
 10  9  1  0
 10 11  1  0
 42 10  1  0
 11 12  1  0
 13 14  1  0
 32 13  1  0
 14 15  1  0
 15 29  1  0
 16 17  1  0
 16 36  1  6
 17 21  1  6
 17 33  1  0
 18 38  1  6
 19 39  1  6
 19 40  1  0
 40 20  1  0
 21 22  1  0
 22 23  1  0
 22 27  1  0
 23 24  1  0
 24 25  1  0
 26 25  1  0
 27 26  1  0
 31 28  1  6
 31 41  1  0
 42 32  1  6
 42 34  2  0
 42 35  2  0
M  END
$$$$
