
     RDKit          3D

 42 45  0  0  0  0  0  0  0  0999 V2000
   73.6420   52.6972   14.1120 C   0  0  0  0  0  0  0  0  0  0  0  0
   71.3824   55.8971   15.2855 C   0  0  0  0  0  0  0  0  0  0  0  0
   72.5644   58.8364   17.6978 C   0  0  0  0  0  0  0  0  0  0  0  0
   74.9166   61.5968   18.6552 C   0  0  0  0  0  0  0  0  0  0  0  0
   73.2736   60.7351   20.0580 C   0  0  1  0  0  0  0  0  0  0  0  0
   72.1988   61.7282   19.7305 C   0  0  0  0  0  0  0  0  0  0  0  0
   66.7767   51.5741   12.3690 C   0  0  0  0  0  0  0  0  0  0  0  0
   68.0120   51.1754   13.1420 C   0  0  0  0  0  0  0  0  0  0  0  0
   68.3359   52.2589   14.1148 C   0  0  0  0  0  0  0  0  0  0  0  0
   68.7625   53.5247   13.3512 C   0  0  0  0  0  0  0  0  0  0  0  0
   67.5620   53.9492   12.5402 C   0  0  0  0  0  0  0  0  0  0  0  0
   67.0466   52.8571   11.6562 C   0  0  0  0  0  0  0  0  0  0  0  0
   71.4868   53.5221   15.0019 C   0  0  0  0  0  0  0  0  0  0  0  0
   72.6886   53.8855   14.2095 C   0  0  1  0  0  0  0  0  0  0  0  0
   73.3790   55.0992   14.7279 C   0  0  0  0  0  0  0  0  0  0  0  0
   70.3358   56.9875   15.3456 C   0  0  2  0  0  0  0  0  0  0  0  0
   70.6123   57.9321   16.5030 C   0  0  2  0  0  0  0  0  0  0  0  0
   74.0900   60.3381   18.8430 C   0  0  1  0  0  0  0  0  0  0  0  0
   74.2876   61.5869   20.8051 C   0  0  1  0  0  0  0  0  0  0  0  0
   72.5891   62.9711   20.5174 C   0  0  0  0  0  0  0  0  0  0  0  0
   69.6100   59.0298   16.4560 C   0  0  0  0  0  0  0  0  0  0  0  0
   69.2207   59.5732   17.8011 C   0  0  0  0  0  0  0  0  0  0  0  0
   68.7922   58.5351   18.7769 C   0  0  0  0  0  0  0  0  0  0  0  0
   67.9977   59.2410   19.8828 C   0  0  0  0  0  0  0  0  0  0  0  0
   68.4558   60.6824   20.0401 C   0  0  0  0  0  0  0  0  0  0  0  0
   67.9119   61.4482   18.8479 C   0  0  0  0  0  0  0  0  0  0  0  0
   68.0968   60.5747   17.6363 C   0  0  0  0  0  0  0  0  0  0  0  0
   65.4204   53.1538   13.6689 C   0  0  0  0  0  0  0  0  0  0  0  0
   74.6493   54.8111   15.4558 C   0  0  0  0  0  0  0  0  0  0  0  0
   73.9423   52.3583   12.6834 C   0  0  0  0  0  0  0  0  0  0  0  0
   65.5623   51.7019   13.2633 C   0  0  1  0  0  0  0  0  0  0  0  0
   70.6499   54.6125   15.3024 N   0  0  0  0  0  0  0  0  0  0  0  0
   71.9729   58.3583   16.4981 N   0  0  0  0  0  0  0  0  0  0  0  0
   68.0448   54.7185   15.6065 O   0  0  0  0  0  0  0  0  0  0  0  0
   69.0733   56.0891   13.8763 O   0  0  0  0  0  0  0  0  0  0  0  0
   69.1009   56.3438   15.4624 O   0  0  0  0  0  0  0  0  0  0  0  0
   72.4497   58.2243   18.7997 O   0  0  0  0  0  0  0  0  0  0  0  0
   73.3116   60.0169   17.7331 O   0  0  0  0  0  0  0  0  0  0  0  0
   75.1158   62.1580   19.8843 O   0  0  0  0  0  0  0  0  0  0  0  0
   73.4955   62.5239   21.4875 O   0  0  0  0  0  0  0  0  0  0  0  0
   64.4640   51.2559   12.5602 O   0  0  0  0  0  0  0  0  0  0  0  0
   69.1379   54.7246   14.5892 S   0  0  2  0  0  6  0  0  0  0  0  0
 14  1  1  1
  1 30  1  0
  2 16  1  0
 32  2  1  0
 33  3  1  0
  3 37  2  0
  3 38  1  0
 18  4  1  0
  4 39  1  0
  5  6  1  6
 18  5  1  0
  5 19  1  0
  6 20  1  0
  8  7  1  0
 12  7  1  0
  7 31  1  0
  9  8  1  0
 10  9  1  0
 10 11  1  0
 42 10  1  0
 11 12  1  0
 13 14  1  0
 32 13  1  0
 14 15  1  0
 15 29  1  0
 16 17  1  0
 16 36  1  1
 17 21  1  6
 17 33  1  0
 18 38  1  6
 19 39  1  6
 19 40  1  0
 40 20  1  0
 21 22  1  0
 22 23  1  0
 22 27  1  0
 23 24  1  0
 24 25  1  0
 26 25  1  0
 27 26  1  0
 31 28  1  6
 31 41  1  0
 42 32  1  1
 42 34  2  0
 42 35  2  0
M  END
$$$$
