
     RDKit          3D

 42 45  0  0  0  0  0  0  0  0999 V2000
   72.8942   54.2310   16.3643 C   0  0  0  0  0  0  0  0  0  0  0  0
   70.0800   57.0027   14.1364 C   0  0  0  0  0  0  0  0  0  0  0  0
   72.5582   59.5683   17.4670 C   0  0  0  0  0  0  0  0  0  0  0  0
   75.1582   61.5671   19.2906 C   0  0  0  0  0  0  0  0  0  0  0  0
   73.2324   60.6758   20.2431 C   0  0  1  0  0  0  0  0  0  0  0  0
   72.3511   61.8745   20.0563 C   0  0  0  0  0  0  0  0  0  0  0  0
   65.9224   52.3434   13.9371 C   0  0  0  0  0  0  0  0  0  0  0  0
   66.1600   53.4479   12.9340 C   0  0  0  0  0  0  0  0  0  0  0  0
   67.6308   53.6429   12.7793 C   0  0  0  0  0  0  0  0  0  0  0  0
   68.2172   54.1936   14.0909 C   0  0  0  0  0  0  0  0  0  0  0  0
   67.9802   53.1294   15.1350 C   0  0  0  0  0  0  0  0  0  0  0  0
   66.5411   52.7319   15.2384 C   0  0  0  0  0  0  0  0  0  0  0  0
   72.0805   55.7771   14.6136 C   0  0  0  0  0  0  0  0  0  0  0  0
   72.7331   54.4674   14.8647 C   0  0  1  0  0  0  0  0  0  0  0  0
   74.0291   54.3186   14.1455 C   0  0  0  0  0  0  0  0  0  0  0  0
   71.1219   58.0621   14.4190 C   0  0  2  0  0  0  0  0  0  0  0  0
   71.0002   58.5658   15.8472 C   0  0  2  0  0  0  0  0  0  0  0  0
   74.1607   60.4458   19.0658 C   0  0  1  0  0  0  0  0  0  0  0  0
   74.2260   61.1612   21.2867 C   0  0  1  0  0  0  0  0  0  0  0  0
   72.7762   62.8248   21.1664 C   0  0  0  0  0  0  0  0  0  0  0  0
   69.6177   59.0776   16.0428 C   0  0  0  0  0  0  0  0  0  0  0  0
   69.2937   59.4665   17.4570 C   0  0  0  0  0  0  0  0  0  0  0  0
   69.9732   60.7069   17.9188 C   0  0  0  0  0  0  0  0  0  0  0  0
   69.9385   60.7087   19.4521 C   0  0  0  0  0  0  0  0  0  0  0  0
   68.7330   59.9371   19.9655 C   0  0  0  0  0  0  0  0  0  0  0  0
   69.0297   58.4646   19.7485 C   0  0  0  0  0  0  0  0  0  0  0  0
   69.6671   58.3347   18.3913 C   0  0  0  0  0  0  0  0  0  0  0  0
   66.4886   50.0590   14.6341 C   0  0  0  0  0  0  0  0  0  0  0  0
   74.0666   54.9937   12.8154 C   0  0  0  0  0  0  0  0  0  0  0  0
   74.2681   53.7287   16.6899 C   0  0  0  0  0  0  0  0  0  0  0  0
   66.4667   51.0142   13.4595 C   0  0  1  0  0  0  0  0  0  0  0  0
   70.6772   55.7106   14.5380 N   0  0  0  0  0  0  0  0  0  0  0  0
   72.0359   59.4984   16.1479 N   0  0  0  0  0  0  0  0  0  0  0  0
   70.1737   54.4083   12.3153 O   0  0  0  0  0  0  0  0  0  0  0  0
   70.6163   53.1305   14.3404 O   0  0  0  0  0  0  0  0  0  0  0  0
   70.9230   59.0734   13.4753 O   0  0  0  0  0  0  0  0  0  0  0  0
   72.1865   58.7802   18.3848 O   0  0  0  0  0  0  0  0  0  0  0  0
   73.5183   60.5162   17.8315 O   0  0  0  0  0  0  0  0  0  0  0  0
   75.2452   61.7911   20.6351 O   0  0  0  0  0  0  0  0  0  0  0  0
   73.4675   62.0286   22.0888 O   0  0  0  0  0  0  0  0  0  0  0  0
   65.6543   50.5592   12.4432 O   0  0  0  0  0  0  0  0  0  0  0  0
   69.9433   54.4028   13.7906 S   0  0  2  0  0  6  0  0  0  0  0  0
 14  1  1  1
  1 30  1  0
  2 16  1  0
 32  2  1  0
 33  3  1  0
  3 37  2  0
  3 38  1  0
 18  4  1  0
  4 39  1  0
  5  6  1  6
 18  5  1  0
  5 19  1  0
  6 20  1  0
  8  7  1  0
 12  7  1  0
  7 31  1  0
  9  8  1  0
 10  9  1  0
 10 11  1  0
 42 10  1  0
 11 12  1  0
 13 14  1  0
 32 13  1  0
 14 15  1  0
 15 29  1  0
 16 17  1  0
 16 36  1  6
 17 21  1  6
 17 33  1  0
 18 38  1  6
 19 39  1  6
 19 40  1  0
 40 20  1  0
 21 22  1  0
 22 23  1  0
 22 27  1  0
 23 24  1  0
 24 25  1  0
 26 25  1  0
 27 26  1  0
 31 28  1  1
 31 41  1  0
 42 32  1  1
 42 34  2  0
 42 35  2  0
M  END
$$$$
