
     RDKit          3D

 42 45  0  0  0  0  0  0  0  0999 V2000
   73.8226   53.8273   13.4107 C   0  0  0  0  0  0  0  0  0  0  0  0
   71.0911   56.5914   14.2731 C   0  0  0  0  0  0  0  0  0  0  0  0
   73.1470   58.6545   17.7951 C   0  0  0  0  0  0  0  0  0  0  0  0
   75.5376   61.1364   19.1457 C   0  0  0  0  0  0  0  0  0  0  0  0
   73.5230   60.3859   20.0336 C   0  0  1  0  0  0  0  0  0  0  0  0
   72.6176   61.2883   19.2496 C   0  0  0  0  0  0  0  0  0  0  0  0
   65.5582   54.1345   14.7030 C   0  0  0  0  0  0  0  0  0  0  0  0
   66.2934   55.3174   14.1175 C   0  0  0  0  0  0  0  0  0  0  0  0
   67.7094   54.9212   13.8653 C   0  0  0  0  0  0  0  0  0  0  0  0
   68.4179   54.6644   15.2067 C   0  0  0  0  0  0  0  0  0  0  0  0
   67.6988   53.5001   15.8442 C   0  0  0  0  0  0  0  0  0  0  0  0
   66.2262   53.7326   15.9754 C   0  0  0  0  0  0  0  0  0  0  0  0
   72.5997   54.9907   15.2185 C   0  0  0  0  0  0  0  0  0  0  0  0
   73.3886   55.1778   13.9748 C   0  0  1  0  0  0  0  0  0  0  0  0
   74.5499   56.0926   14.1576 C   0  0  0  0  0  0  0  0  0  0  0  0
   71.9222   57.6721   14.9280 C   0  0  2  0  0  0  0  0  0  0  0  0
   71.3123   58.0858   16.2566 C   0  0  2  0  0  0  0  0  0  0  0  0
   74.6926   59.8777   19.2124 C   0  0  1  0  0  0  0  0  0  0  0  0
   74.2370   61.3618   20.9555 C   0  0  1  0  0  0  0  0  0  0  0  0
   72.7301   62.6319   19.9555 C   0  0  0  0  0  0  0  0  0  0  0  0
   69.9031   58.4939   16.0136 C   0  0  0  0  0  0  0  0  0  0  0  0
   69.1490   58.8899   17.2508 C   0  0  0  0  0  0  0  0  0  0  0  0
   68.1294   57.8980   17.6866 C   0  0  0  0  0  0  0  0  0  0  0  0
   67.1523   58.6209   18.6220 C   0  0  0  0  0  0  0  0  0  0  0  0
   67.8396   59.7774   19.3307 C   0  0  0  0  0  0  0  0  0  0  0  0
   68.0215   60.8773   18.3010 C   0  0  0  0  0  0  0  0  0  0  0  0
   68.4621   60.2197   17.0209 C   0  0  0  0  0  0  0  0  0  0  0  0
   65.7320   53.4969   12.3391 C   0  0  0  0  0  0  0  0  0  0  0  0
   75.4980   55.6643   15.2272 C   0  0  0  0  0  0  0  0  0  0  0  0
   72.7200   53.1893   12.6213 C   0  0  0  0  0  0  0  0  0  0  0  0
   65.4949   52.9696   13.7385 C   0  0  1  0  0  0  0  0  0  0  0  0
   71.2521   55.3784   15.1037 N   0  0  0  0  0  0  0  0  0  0  0  0
   72.1201   59.0662   16.9041 N   0  0  0  0  0  0  0  0  0  0  0  0
   70.1093   53.7709   13.3716 O   0  0  0  0  0  0  0  0  0  0  0  0
   70.4076   52.9958   15.6608 O   0  0  0  0  0  0  0  0  0  0  0  0
   71.9863   58.7287   14.0156 O   0  0  0  0  0  0  0  0  0  0  0  0
   73.0585   57.5995   18.4886 O   0  0  0  0  0  0  0  0  0  0  0  0
   74.3216   59.3936   17.9598 O   0  0  0  0  0  0  0  0  0  0  0  0
   75.3230   61.8499   20.2904 O   0  0  0  0  0  0  0  0  0  0  0  0
   73.2665   62.3420   21.2168 O   0  0  0  0  0  0  0  0  0  0  0  0
   66.4545   52.0529   14.1109 O   0  0  0  0  0  0  0  0  0  0  0  0
   70.0763   54.2256   14.7935 S   0  0  2  0  0  6  0  0  0  0  0  0
 14  1  1  1
  1 30  1  0
  2 16  1  0
 32  2  1  0
 33  3  1  0
  3 37  2  0
  3 38  1  0
 18  4  1  0
  4 39  1  0
  5  6  1  6
 18  5  1  0
  5 19  1  0
  6 20  1  0
  8  7  1  0
 12  7  1  0
  7 31  1  0
  9  8  1  0
 10  9  1  0
 10 11  1  0
 42 10  1  0
 11 12  1  0
 13 14  1  0
 32 13  1  0
 14 15  1  0
 15 29  1  0
 16 17  1  0
 16 36  1  6
 17 21  1  6
 17 33  1  0
 18 38  1  6
 19 39  1  6
 19 40  1  0
 40 20  1  0
 21 22  1  0
 22 23  1  0
 22 27  1  0
 23 24  1  0
 24 25  1  0
 26 25  1  0
 27 26  1  0
 31 28  1  6
 31 41  1  0
 42 32  1  6
 42 34  2  0
 42 35  2  0
M  END
$$$$
