
     RDKit          3D

 42 45  0  0  0  0  0  0  0  0999 V2000
   73.7020   54.3814   13.0587 C   0  0  0  0  0  0  0  0  0  0  0  0
   70.6904   56.7175   14.0398 C   0  0  0  0  0  0  0  0  0  0  0  0
   72.7840   58.5350   17.3046 C   0  0  0  0  0  0  0  0  0  0  0  0
   74.7588   61.2545   18.1082 C   0  0  0  0  0  0  0  0  0  0  0  0
   73.4375   60.8825   19.9859 C   0  0  1  0  0  0  0  0  0  0  0  0
   72.4247   61.9574   19.7263 C   0  0  0  0  0  0  0  0  0  0  0  0
   66.8600   51.7010   12.3527 C   0  0  0  0  0  0  0  0  0  0  0  0
   68.3319   51.5173   12.6400 C   0  0  0  0  0  0  0  0  0  0  0  0
   68.7052   52.3893   13.7914 C   0  0  0  0  0  0  0  0  0  0  0  0
   68.5843   53.8664   13.3779 C   0  0  0  0  0  0  0  0  0  0  0  0
   67.1271   54.0931   13.0553 C   0  0  0  0  0  0  0  0  0  0  0  0
   66.6068   53.1357   12.0295 C   0  0  0  0  0  0  0  0  0  0  0  0
   71.7124   54.6043   14.5110 C   0  0  0  0  0  0  0  0  0  0  0  0
   72.8866   55.3171   13.9476 C   0  0  1  0  0  0  0  0  0  0  0  0
   73.7343   55.9540   14.9937 C   0  0  0  0  0  0  0  0  0  0  0  0
   71.3665   57.7063   14.9634 C   0  0  2  0  0  0  0  0  0  0  0  0
   70.6776   57.7322   16.3173 C   0  0  2  0  0  0  0  0  0  0  0  0
   73.8786   60.1786   18.7169 C   0  0  1  0  0  0  0  0  0  0  0  0
   74.6891   61.6844   20.3055 C   0  0  1  0  0  0  0  0  0  0  0  0
   73.1266   63.2394   20.1502 C   0  0  0  0  0  0  0  0  0  0  0  0
   69.7457   58.8910   16.3420 C   0  0  0  0  0  0  0  0  0  0  0  0
   69.3399   59.3322   17.7192 C   0  0  0  0  0  0  0  0  0  0  0  0
   68.6518   58.2821   18.5175 C   0  0  0  0  0  0  0  0  0  0  0  0
   67.8983   58.9853   19.6534 C   0  0  0  0  0  0  0  0  0  0  0  0
   68.5856   60.2879   20.0314 C   0  0  0  0  0  0  0  0  0  0  0  0
   68.2918   61.2779   18.9192 C   0  0  0  0  0  0  0  0  0  0  0  0
   68.4276   60.5365   17.6165 C   0  0  0  0  0  0  0  0  0  0  0  0
   64.7363   52.0936   13.5192 C   0  0  0  0  0  0  0  0  0  0  0  0
   74.6970   55.0199   15.6472 C   0  0  0  0  0  0  0  0  0  0  0  0
   73.9952   53.0883   13.7572 C   0  0  0  0  0  0  0  0  0  0  0  0
   65.9939   51.2502   13.5093 C   0  0  1  0  0  0  0  0  0  0  0  0
   70.6124   55.4394   14.7798 N   0  0  0  0  0  0  0  0  0  0  0  0
   71.6332   57.7052   17.3750 N   0  0  0  0  0  0  0  0  0  0  0  0
   68.8208   53.9725   16.0160 O   0  0  0  0  0  0  0  0  0  0  0  0
   68.0838   55.9864   14.8624 O   0  0  0  0  0  0  0  0  0  0  0  0
   71.3234   58.9443   14.3164 O   0  0  0  0  0  0  0  0  0  0  0  0
   73.8402   58.1780   16.7055 O   0  0  0  0  0  0  0  0  0  0  0  0
   72.8185   59.8010   17.8954 O   0  0  0  0  0  0  0  0  0  0  0  0
   75.3161   61.9709   19.1287 O   0  0  0  0  0  0  0  0  0  0  0  0
   74.1948   62.8257   20.9567 O   0  0  0  0  0  0  0  0  0  0  0  0
   65.7129   49.9119   13.3374 O   0  0  0  0  0  0  0  0  0  0  0  0
   69.0640   54.7993   14.7966 S   0  0  2  0  0  6  0  0  0  0  0  0
 14  1  1  1
  1 30  1  0
  2 16  1  0
 32  2  1  0
 33  3  1  0
  3 37  2  0
  3 38  1  0
 18  4  1  0
  4 39  1  0
  5  6  1  6
 18  5  1  0
  5 19  1  0
  6 20  1  0
  8  7  1  0
 12  7  1  0
  7 31  1  0
  9  8  1  0
 10  9  1  0
 10 11  1  0
 42 10  1  0
 11 12  1  0
 13 14  1  0
 32 13  1  0
 14 15  1  0
 15 29  1  0
 16 17  1  0
 16 36  1  6
 17 21  1  6
 17 33  1  0
 18 38  1  6
 19 39  1  6
 19 40  1  0
 40 20  1  0
 21 22  1  0
 22 23  1  0
 22 27  1  0
 23 24  1  0
 24 25  1  0
 26 25  1  0
 27 26  1  0
 31 28  1  6
 31 41  1  0
 42 32  1  6
 42 34  2  0
 42 35  2  0
M  END
$$$$
