
     RDKit          3D

 42 45  0  0  0  0  0  0  0  0999 V2000
   73.8798   54.0476   13.4424 C   0  0  0  0  0  0  0  0  0  0  0  0
   70.4308   56.6628   14.2320 C   0  0  0  0  0  0  0  0  0  0  0  0
   72.4369   58.2066   18.3453 C   0  0  0  0  0  0  0  0  0  0  0  0
   74.2968   60.5603   18.1190 C   0  0  0  0  0  0  0  0  0  0  0  0
   73.8709   61.0257   20.3578 C   0  0  1  0  0  0  0  0  0  0  0  0
   72.6985   61.9365   20.1468 C   0  0  0  0  0  0  0  0  0  0  0  0
   66.8803   51.4528   13.0084 C   0  0  0  0  0  0  0  0  0  0  0  0
   66.9217   51.4033   14.5179 C   0  0  0  0  0  0  0  0  0  0  0  0
   67.3327   52.7436   15.0276 C   0  0  0  0  0  0  0  0  0  0  0  0
   68.7898   53.0237   14.6204 C   0  0  0  0  0  0  0  0  0  0  0  0
   68.8039   53.0578   13.1113 C   0  0  0  0  0  0  0  0  0  0  0  0
   68.2356   51.8156   12.5001 C   0  0  0  0  0  0  0  0  0  0  0  0
   71.5288   54.5452   14.0277 C   0  0  0  0  0  0  0  0  0  0  0  0
   72.9249   55.0464   14.0913 C   0  0  1  0  0  0  0  0  0  0  0  0
   73.3535   55.3927   15.4752 C   0  0  0  0  0  0  0  0  0  0  0  0
   71.4929   57.5308   14.8696 C   0  0  2  0  0  0  0  0  0  0  0  0
   71.1111   57.8826   16.2975 C   0  0  2  0  0  0  0  0  0  0  0  0
   73.8788   59.8536   19.3952 C   0  0  1  0  0  0  0  0  0  0  0  0
   75.0248   61.8458   19.8028 C   0  0  1  0  0  0  0  0  0  0  0  0
   73.3253   63.2561   19.7200 C   0  0  0  0  0  0  0  0  0  0  0  0
   69.8565   58.6802   16.2596 C   0  0  0  0  0  0  0  0  0  0  0  0
   69.3268   59.0690   17.6103 C   0  0  0  0  0  0  0  0  0  0  0  0
   68.8648   57.9217   18.4370 C   0  0  0  0  0  0  0  0  0  0  0  0
   67.9450   58.4808   19.5297 C   0  0  0  0  0  0  0  0  0  0  0  0
   68.3192   59.9153   19.8679 C   0  0  0  0  0  0  0  0  0  0  0  0
   67.8452   60.7767   18.7117 C   0  0  0  0  0  0  0  0  0  0  0  0
   68.1755   60.0383   17.4425 C   0  0  0  0  0  0  0  0  0  0  0  0
   66.4326   53.1969   11.3404 C   0  0  0  0  0  0  0  0  0  0  0  0
   73.7302   54.2129   16.3075 C   0  0  0  0  0  0  0  0  0  0  0  0
   73.6751   53.9863   11.9590 C   0  0  0  0  0  0  0  0  0  0  0  0
   65.8378   52.4250   12.4993 C   0  0  1  0  0  0  0  0  0  0  0  0
   70.6151   55.3029   14.7831 N   0  0  0  0  0  0  0  0  0  0  0  0
   72.1997   58.5042   16.9768 N   0  0  0  0  0  0  0  0  0  0  0  0
   69.0859   54.5390   16.7751 O   0  0  0  0  0  0  0  0  0  0  0  0
   68.0380   55.5424   14.8193 O   0  0  0  0  0  0  0  0  0  0  0  0
   71.6217   58.6595   14.0557 O   0  0  0  0  0  0  0  0  0  0  0  0
   72.4719   57.0198   18.7836 O   0  0  0  0  0  0  0  0  0  0  0  0
   72.6467   59.2114   19.2938 O   0  0  0  0  0  0  0  0  0  0  0  0
   75.1009   61.6097   18.4618 O   0  0  0  0  0  0  0  0  0  0  0  0
   74.6685   63.1690   20.1083 O   0  0  0  0  0  0  0  0  0  0  0  0
   64.7279   51.7021   12.1187 O   0  0  0  0  0  0  0  0  0  0  0  0
   69.1740   54.6119   15.2863 S   0  0  2  0  0  6  0  0  0  0  0  0
 14  1  1  1
  1 30  1  0
  2 16  1  0
 32  2  1  0
 33  3  1  0
  3 37  2  0
  3 38  1  0
 18  4  1  0
  4 39  1  0
  5  6  1  6
 18  5  1  0
  5 19  1  0
  6 20  1  0
  8  7  1  0
 12  7  1  0
  7 31  1  0
  9  8  1  0
 10  9  1  0
 10 11  1  0
 42 10  1  0
 11 12  1  0
 13 14  1  0
 32 13  1  0
 14 15  1  0
 15 29  1  0
 16 17  1  0
 16 36  1  6
 17 21  1  6
 17 33  1  0
 18 38  1  6
 19 39  1  6
 19 40  1  0
 40 20  1  0
 21 22  1  0
 22 23  1  0
 22 27  1  0
 23 24  1  0
 24 25  1  0
 26 25  1  0
 27 26  1  0
 31 28  1  6
 31 41  1  0
 42 32  1  1
 42 34  2  0
 42 35  2  0
M  END
$$$$
