
     RDKit          3D

 42 45  0  0  0  0  0  0  0  0999 V2000
   73.7635   55.3305   13.9511 C   0  0  0  0  0  0  0  0  0  0  0  0
   71.8965   57.7660   15.9447 C   0  0  0  0  0  0  0  0  0  0  0  0
   68.8621   55.7364   14.4050 C   0  0  0  0  0  0  0  0  0  0  0  0
   68.9137   52.5027   13.6361 C   0  0  0  0  0  0  0  0  0  0  0  0
   67.1838   53.9715   13.1259 C   0  0  1  0  0  0  0  0  0  0  0  0
   66.8277   54.3479   14.5331 C   0  0  0  0  0  0  0  0  0  0  0  0
   75.2735   62.0355   19.0205 C   0  0  0  0  0  0  0  0  0  0  0  0
   73.9305   61.9175   18.3386 C   0  0  0  0  0  0  0  0  0  0  0  0
   73.4609   60.5061   18.4518 C   0  0  0  0  0  0  0  0  0  0  0  0
   74.3827   59.5901   17.6280 C   0  0  0  0  0  0  0  0  0  0  0  0
   75.7499   59.6944   18.2596 C   0  0  0  0  0  0  0  0  0  0  0  0
   76.2349   61.1068   18.3571 C   0  0  0  0  0  0  0  0  0  0  0  0
   73.2252   55.8096   16.3171 C   0  0  0  0  0  0  0  0  0  0  0  0
   74.2703   55.3055   15.3909 C   0  0  1  0  0  0  0  0  0  0  0  0
   74.7774   53.9568   15.7686 C   0  0  0  0  0  0  0  0  0  0  0  0
   70.8542   57.3676   16.9659 C   0  0  2  0  0  0  0  0  0  0  0  0
   69.5025   57.1677   16.3018 C   0  0  2  0  0  0  0  0  0  0  0  0
   68.6795   53.8218   12.9235 C   0  0  1  0  0  0  0  0  0  0  0  0
   66.7496   52.5159   13.0581 C   0  0  1  0  0  0  0  0  0  0  0  0
   66.0219   53.1615   15.0424 C   0  0  0  0  0  0  0  0  0  0  0  0
   68.4444   57.4724   17.3014 C   0  0  0  0  0  0  0  0  0  0  0  0
   67.0449   57.4266   16.7579 C   0  0  0  0  0  0  0  0  0  0  0  0
   66.7524   58.4703   15.7389 C   0  0  0  0  0  0  0  0  0  0  0  0
   65.2278   58.6061   15.6415 C   0  0  0  0  0  0  0  0  0  0  0  0
   64.5452   57.2976   16.0076 C   0  0  0  0  0  0  0  0  0  0  0  0
   64.6625   57.1477   17.5133 C   0  0  0  0  0  0  0  0  0  0  0  0
   66.0554   57.5709   17.8951 C   0  0  0  0  0  0  0  0  0  0  0  0
   75.7515   60.3659   20.7551 C   0  0  0  0  0  0  0  0  0  0  0  0
   75.4919   53.2464   14.6680 C   0  0  0  0  0  0  0  0  0  0  0  0
   74.5837   56.2547   13.1031 C   0  0  0  0  0  0  0  0  0  0  0  0
   75.1857   61.7478   20.5040 C   0  0  1  0  0  0  0  0  0  0  0  0
   73.1824   57.2121   16.4209 N   0  0  0  0  0  0  0  0  0  0  0  0
   69.4143   55.8751   15.7064 N   0  0  0  0  0  0  0  0  0  0  0  0
   72.6779   57.9897   18.8766 O   0  0  0  0  0  0  0  0  0  0  0  0
   74.8899   57.1101   18.3635 O   0  0  0  0  0  0  0  0  0  0  0  0
   70.8345   58.3821   17.9267 O   0  0  0  0  0  0  0  0  0  0  0  0
   67.8384   56.3805   14.0319 O   0  0  0  0  0  0  0  0  0  0  0  0
   69.4190   54.8764   13.4546 O   0  0  0  0  0  0  0  0  0  0  0  0
   67.7824   51.7481   13.5096 O   0  0  0  0  0  0  0  0  0  0  0  0
   65.6223   52.4666   13.8935 O   0  0  0  0  0  0  0  0  0  0  0  0
   75.8958   62.7222   21.1718 O   0  0  0  0  0  0  0  0  0  0  0  0
   73.7286   57.9621   17.8160 S   0  0  2  0  0  6  0  0  0  0  0  0
 14  1  1  6
  1 30  1  0
  2 16  1  0
 32  2  1  0
 33  3  1  0
  3 37  2  0
  3 38  1  0
 18  4  1  0
  4 39  1  0
  5  6  1  1
 18  5  1  0
  5 19  1  0
  6 20  1  0
  8  7  1  0
 12  7  1  0
  7 31  1  0
  9  8  1  0
 10  9  1  0
 10 11  1  0
 42 10  1  0
 11 12  1  0
 13 14  1  0
 32 13  1  0
 14 15  1  0
 15 29  1  0
 16 17  1  0
 16 36  1  1
 17 21  1  1
 17 33  1  0
 18 38  1  1
 19 39  1  1
 19 40  1  0
 40 20  1  0
 21 22  1  0
 22 23  1  0
 22 27  1  0
 23 24  1  0
 24 25  1  0
 26 25  1  0
 27 26  1  0
 31 28  1  6
 31 41  1  0
 42 32  1  6
 42 34  2  0
 42 35  2  0
M  END
$$$$
