
     RDKit          3D

 20 22  0  0  0  0  0  0  0  0999 V2000
  -10.7536    1.1329  -17.9710 C   0  0  0  0  0  0  0  0  0  0  0  0
  -10.6087    2.3463  -18.6740 C   0  0  0  0  0  0  0  0  0  0  0  0
  -11.5329    2.8709  -19.5107 C   0  0  0  0  0  0  0  0  0  0  0  0
  -12.7067    2.1980  -19.7128 C   0  0  0  0  0  0  0  0  0  0  0  0
  -12.9057    1.0253  -19.0678 C   0  0  0  0  0  0  0  0  0  0  0  0
  -11.9290    0.4995  -18.2022 C   0  0  0  0  0  0  0  0  0  0  0  0
   -9.6817    0.7421  -17.1281 C   0  0  0  0  0  0  0  0  0  0  0  0
  -12.2502   -0.7911  -17.6021 C   0  0  0  0  0  0  0  0  0  0  0  0
   -8.4872    1.4868  -16.9539 N   0  0  0  0  0  0  0  0  0  0  0  0
   -6.9915    2.9377  -16.1071 C   0  0  0  0  0  0  0  0  0  0  0  0
   -6.5142    3.9387  -15.2448 C   0  0  0  0  0  0  0  0  0  0  0  0
   -7.3253    4.4542  -14.2645 C   0  0  0  0  0  0  0  0  0  0  0  0
   -8.6053    3.9691  -14.1507 C   0  0  0  0  0  0  0  0  0  0  0  0
   -9.0670    2.9651  -15.0244 C   0  0  0  0  0  0  0  0  0  0  0  0
   -6.7861   -0.7686  -18.4964 O   0  0  0  0  0  0  0  0  0  0  0  0
   -6.9784    0.5401  -18.8369 C   0  0  0  0  0  0  0  0  0  0  0  0
   -7.3605    1.3872  -17.6427 C   0  0  0  0  0  0  0  0  0  0  0  0
   -8.2641    2.4504  -15.9990 C   0  0  0  0  0  0  0  0  0  0  0  0
   -6.4464    2.2755  -17.1220 N   0  0  0  0  0  0  0  0  0  0  0  0
  -11.2876    4.1686  -20.2122 C   0  0  0  0  0  0  0  0  0  0  0  0
  1  2  2  0
  1  6  1  0
  7  1  1  0
  2  3  1  0
  3  4  2  0
  3 20  1  0
  5  4  1  0
  6  5  2  0
  6  8  1  0
  9  7  1  0
 17  9  1  0
  9 18  1  0
 10 11  2  0
 18 10  1  0
 10 19  1  0
 11 12  1  0
 13 12  2  0
 14 13  1  0
 18 14  2  0
 16 15  1  0
 16 17  1  0
 17 19  2  0
M  END
$$$$
