
     RDKit          3D

 20 22  0  0  0  0  0  0  0  0999 V2000
   -8.8915    2.3799  -17.5482 C   0  0  0  0  0  0  0  0  0  0  0  0
   -9.4383    1.3826  -18.3814 C   0  0  0  0  0  0  0  0  0  0  0  0
   -8.8239    0.8583  -19.4663 C   0  0  0  0  0  0  0  0  0  0  0  0
   -7.5783    1.3084  -19.8088 C   0  0  0  0  0  0  0  0  0  0  0  0
   -6.9994    2.2670  -19.0493 C   0  0  0  0  0  0  0  0  0  0  0  0
   -7.6587    2.7974  -17.9251 C   0  0  0  0  0  0  0  0  0  0  0  0
   -9.6776    2.8041  -16.4462 C   0  0  0  0  0  0  0  0  0  0  0  0
   -6.9431    3.8535  -17.2171 C   0  0  0  0  0  0  0  0  0  0  0  0
  -10.0386    1.9752  -15.3535 N   0  0  0  0  0  0  0  0  0  0  0  0
  -11.1328    0.4518  -14.1119 C   0  0  0  0  0  0  0  0  0  0  0  0
  -12.1320   -0.4898  -13.8150 C   0  0  0  0  0  0  0  0  0  0  0  0
  -13.1141   -0.7713  -14.7321 C   0  0  0  0  0  0  0  0  0  0  0  0
  -13.0936   -0.1128  -15.9373 C   0  0  0  0  0  0  0  0  0  0  0  0
  -12.0837    0.8285  -16.2178 C   0  0  0  0  0  0  0  0  0  0  0  0
   -8.4406    3.0151  -12.3491 O   0  0  0  0  0  0  0  0  0  0  0  0
   -8.2070    2.5468  -13.6107 C   0  0  0  0  0  0  0  0  0  0  0  0
   -9.4179    1.8488  -14.1904 C   0  0  0  0  0  0  0  0  0  0  0  0
  -11.1064    1.1104  -15.3096 C   0  0  0  0  0  0  0  0  0  0  0  0
  -10.0889    0.9152  -13.4327 N   0  0  0  0  0  0  0  0  0  0  0  0
   -9.4863   -0.2000  -20.2894 C   0  0  0  0  0  0  0  0  0  0  0  0
  1  2  2  0
  1  6  1  0
  7  1  1  0
  2  3  1  0
  3  4  2  0
  3 20  1  0
  5  4  1  0
  6  5  2  0
  6  8  1  0
  9  7  1  0
 17  9  1  0
  9 18  1  0
 10 11  2  0
 18 10  1  0
 10 19  1  0
 11 12  1  0
 13 12  2  0
 14 13  1  0
 18 14  2  0
 16 15  1  0
 16 17  1  0
 17 19  2  0
M  END
$$$$
