
     RDKit          3D

 20 22  0  0  0  0  0  0  0  0999 V2000
   -8.5398    0.7666  -17.2014 C   0  0  0  0  0  0  0  0  0  0  0  0
   -9.8146    0.7948  -16.6000 C   0  0  0  0  0  0  0  0  0  0  0  0
  -10.9843    0.6261  -17.2578 C   0  0  0  0  0  0  0  0  0  0  0  0
  -10.9639    0.4112  -18.6087 C   0  0  0  0  0  0  0  0  0  0  0  0
   -9.7705    0.3748  -19.2454 C   0  0  0  0  0  0  0  0  0  0  0  0
   -8.5667    0.5533  -18.5393 C   0  0  0  0  0  0  0  0  0  0  0  0
   -7.4197    0.9537  -16.3514 C   0  0  0  0  0  0  0  0  0  0  0  0
   -7.3536    0.5327  -19.3499 C   0  0  0  0  0  0  0  0  0  0  0  0
   -7.3625    1.9029  -15.2990 N   0  0  0  0  0  0  0  0  0  0  0  0
   -7.1134    3.8537  -14.2075 C   0  0  0  0  0  0  0  0  0  0  0  0
   -6.8262    5.2212  -14.0636 C   0  0  0  0  0  0  0  0  0  0  0  0
   -6.4604    5.9714  -15.1537 C   0  0  0  0  0  0  0  0  0  0  0  0
   -6.3834    5.3539  -16.3782 C   0  0  0  0  0  0  0  0  0  0  0  0
   -6.6751    3.9814  -16.5036 C   0  0  0  0  0  0  0  0  0  0  0  0
   -6.9755   -0.4206  -13.1576 O   0  0  0  0  0  0  0  0  0  0  0  0
   -8.0092    0.4684  -13.2392 C   0  0  0  0  0  0  0  0  0  0  0  0
   -7.6301    1.7101  -14.0163 C   0  0  0  0  0  0  0  0  0  0  0  0
   -7.0391    3.2332  -15.4233 C   0  0  0  0  0  0  0  0  0  0  0  0
   -7.4780    2.9058  -13.3506 N   0  0  0  0  0  0  0  0  0  0  0  0
  -12.2900    0.6717  -16.5303 C   0  0  0  0  0  0  0  0  0  0  0  0
  1  2  2  0
  1  6  1  0
  7  1  1  0
  2  3  1  0
  3  4  2  0
  3 20  1  0
  5  4  1  0
  6  5  2  0
  6  8  1  0
  9  7  1  0
 17  9  1  0
  9 18  1  0
 10 11  2  0
 18 10  1  0
 10 19  1  0
 11 12  1  0
 13 12  2  0
 14 13  1  0
 18 14  2  0
 16 15  1  0
 16 17  1  0
 17 19  2  0
M  END
$$$$
