
     RDKit          3D

 20 22  0  0  0  0  0  0  0  0999 V2000
  -11.8144    0.4602  -18.4287 C   0  0  0  0  0  0  0  0  0  0  0  0
  -12.8133    1.0978  -19.1925 C   0  0  0  0  0  0  0  0  0  0  0  0
  -14.0886    0.6640  -19.3149 C   0  0  0  0  0  0  0  0  0  0  0  0
  -14.4698   -0.4763  -18.6623 C   0  0  0  0  0  0  0  0  0  0  0  0
  -13.5559   -1.1360  -17.9137 C   0  0  0  0  0  0  0  0  0  0  0  0
  -12.2348   -0.6651  -17.8018 C   0  0  0  0  0  0  0  0  0  0  0  0
  -10.5315    1.0650  -18.4085 C   0  0  0  0  0  0  0  0  0  0  0  0
  -11.3392   -1.4908  -16.9985 C   0  0  0  0  0  0  0  0  0  0  0  0
  -10.2881    2.4156  -18.0500 N   0  0  0  0  0  0  0  0  0  0  0  0
  -10.0500    4.6467  -18.2078 C   0  0  0  0  0  0  0  0  0  0  0  0
  -10.0017    5.8942  -18.8517 C   0  0  0  0  0  0  0  0  0  0  0  0
  -10.2020    5.9833  -20.2070 C   0  0  0  0  0  0  0  0  0  0  0  0
  -10.4486    4.8294  -20.9103 C   0  0  0  0  0  0  0  0  0  0  0  0
  -10.4933    3.5870  -20.2478 C   0  0  0  0  0  0  0  0  0  0  0  0
  -10.9623    2.3949  -14.7013 O   0  0  0  0  0  0  0  0  0  0  0  0
   -9.8657    2.2321  -15.4993 C   0  0  0  0  0  0  0  0  0  0  0  0
  -10.0377    2.9032  -16.8445 C   0  0  0  0  0  0  0  0  0  0  0  0
  -10.2952    3.4947  -18.9018 C   0  0  0  0  0  0  0  0  0  0  0  0
   -9.8933    4.2689  -16.9435 N   0  0  0  0  0  0  0  0  0  0  0  0
  -15.0790    1.4115  -20.1495 C   0  0  0  0  0  0  0  0  0  0  0  0
  1  2  2  0
  1  6  1  0
  7  1  1  0
  2  3  1  0
  3  4  2  0
  3 20  1  0
  5  4  1  0
  6  5  2  0
  6  8  1  0
  9  7  1  0
 17  9  1  0
  9 18  1  0
 10 11  2  0
 18 10  1  0
 10 19  1  0
 11 12  1  0
 13 12  2  0
 14 13  1  0
 18 14  2  0
 16 15  1  0
 16 17  1  0
 17 19  2  0
M  END
$$$$
