
     RDKit          3D

 20 22  0  0  0  0  0  0  0  0999 V2000
  -11.1903    3.3204  -18.9037 C   0  0  0  0  0  0  0  0  0  0  0  0
  -11.5525    4.1800  -17.8465 C   0  0  0  0  0  0  0  0  0  0  0  0
  -11.7057    5.5194  -17.9562 C   0  0  0  0  0  0  0  0  0  0  0  0
  -11.5001    6.1161  -19.1699 C   0  0  0  0  0  0  0  0  0  0  0  0
  -11.1483    5.3451  -20.2247 C   0  0  0  0  0  0  0  0  0  0  0  0
  -10.9947    3.9534  -20.0857 C   0  0  0  0  0  0  0  0  0  0  0  0
  -11.0855    1.9376  -18.6054 C   0  0  0  0  0  0  0  0  0  0  0  0
  -10.5728    3.2444  -21.2892 C   0  0  0  0  0  0  0  0  0  0  0  0
   -9.8604    1.2534  -18.3982 N   0  0  0  0  0  0  0  0  0  0  0  0
   -7.9719    0.1036  -18.8113 C   0  0  0  0  0  0  0  0  0  0  0  0
   -7.0288   -0.5863  -19.5910 C   0  0  0  0  0  0  0  0  0  0  0  0
   -7.2262   -0.7431  -20.9405 C   0  0  0  0  0  0  0  0  0  0  0  0
   -8.3612   -0.2117  -21.5029 C   0  0  0  0  0  0  0  0  0  0  0  0
   -9.2961    0.4772  -20.7054 C   0  0  0  0  0  0  0  0  0  0  0  0
  -10.5958    0.8399  -15.3411 O   0  0  0  0  0  0  0  0  0  0  0  0
   -9.5190    1.5145  -15.8421 C   0  0  0  0  0  0  0  0  0  0  0  0
   -9.1988    1.0991  -17.2614 C   0  0  0  0  0  0  0  0  0  0  0  0
   -9.1032    0.6351  -19.3648 C   0  0  0  0  0  0  0  0  0  0  0  0
   -8.0429    0.3960  -17.5170 N   0  0  0  0  0  0  0  0  0  0  0  0
  -12.0945    6.3490  -16.7743 C   0  0  0  0  0  0  0  0  0  0  0  0
  1  2  2  0
  1  6  1  0
  7  1  1  0
  2  3  1  0
  3  4  2  0
  3 20  1  0
  5  4  1  0
  6  5  2  0
  6  8  1  0
  9  7  1  0
 17  9  1  0
  9 18  1  0
 10 11  2  0
 18 10  1  0
 10 19  1  0
 11 12  1  0
 13 12  2  0
 14 13  1  0
 18 14  2  0
 16 15  1  0
 16 17  1  0
 17 19  2  0
M  END
$$$$
