
     RDKit          3D

 20 22  0  0  0  0  0  0  0  0999 V2000
   -9.2362    2.4117  -14.4219 C   0  0  0  0  0  0  0  0  0  0  0  0
   -9.3027    1.0879  -14.9023 C   0  0  0  0  0  0  0  0  0  0  0  0
  -10.1730    0.6478  -15.8395 C   0  0  0  0  0  0  0  0  0  0  0  0
  -11.0697    1.5274  -16.3813 C   0  0  0  0  0  0  0  0  0  0  0  0
  -11.0578    2.8133  -15.9603 C   0  0  0  0  0  0  0  0  0  0  0  0
  -10.1428    3.2476  -14.9836 C   0  0  0  0  0  0  0  0  0  0  0  0
   -8.2505    2.6949  -13.4419 C   0  0  0  0  0  0  0  0  0  0  0  0
  -10.2623    4.6471  -14.5885 C   0  0  0  0  0  0  0  0  0  0  0  0
   -7.0014    2.0298  -13.3465 N   0  0  0  0  0  0  0  0  0  0  0  0
   -4.8542    1.4757  -13.7231 C   0  0  0  0  0  0  0  0  0  0  0  0
   -3.5986    1.5399  -14.3497 C   0  0  0  0  0  0  0  0  0  0  0  0
   -3.3787    2.4287  -15.3726 C   0  0  0  0  0  0  0  0  0  0  0  0
   -4.4109    3.2464  -15.7635 C   0  0  0  0  0  0  0  0  0  0  0  0
   -5.6634    3.1681  -15.1236 C   0  0  0  0  0  0  0  0  0  0  0  0
   -7.5871   -0.9999  -11.7510 O   0  0  0  0  0  0  0  0  0  0  0  0
   -7.4397    0.3232  -11.4455 C   0  0  0  0  0  0  0  0  0  0  0  0
   -6.6566    1.0667  -12.5053 C   0  0  0  0  0  0  0  0  0  0  0  0
   -5.8854    2.2868  -14.1070 C   0  0  0  0  0  0  0  0  0  0  0  0
   -5.3417    0.7301  -12.7371 N   0  0  0  0  0  0  0  0  0  0  0  0
  -10.1658   -0.7792  -16.2868 C   0  0  0  0  0  0  0  0  0  0  0  0
  1  2  2  0
  1  6  1  0
  7  1  1  0
  2  3  1  0
  3  4  2  0
  3 20  1  0
  5  4  1  0
  6  5  2  0
  6  8  1  0
  9  7  1  0
 17  9  1  0
  9 18  1  0
 10 11  2  0
 18 10  1  0
 10 19  1  0
 11 12  1  0
 13 12  2  0
 14 13  1  0
 18 14  2  0
 16 15  1  0
 16 17  1  0
 17 19  2  0
M  END
$$$$
