
     RDKit          3D

 20 22  0  0  0  0  0  0  0  0999 V2000
   -8.5293    0.6119  -16.8851 C   0  0  0  0  0  0  0  0  0  0  0  0
   -9.7489    0.3372  -16.2334 C   0  0  0  0  0  0  0  0  0  0  0  0
  -10.9231    0.0943  -16.8593 C   0  0  0  0  0  0  0  0  0  0  0  0
  -10.9647    0.1100  -18.2266 C   0  0  0  0  0  0  0  0  0  0  0  0
   -9.8267    0.3696  -18.9109 C   0  0  0  0  0  0  0  0  0  0  0  0
   -8.6170    0.6196  -18.2373 C   0  0  0  0  0  0  0  0  0  0  0  0
   -7.3935    0.8333  -16.0647 C   0  0  0  0  0  0  0  0  0  0  0  0
   -7.4741    0.9262  -19.0909 C   0  0  0  0  0  0  0  0  0  0  0  0
   -7.2769    1.8905  -15.1263 N   0  0  0  0  0  0  0  0  0  0  0  0
   -6.9715    3.9474  -14.2690 C   0  0  0  0  0  0  0  0  0  0  0  0
   -6.6829    5.3220  -14.2914 C   0  0  0  0  0  0  0  0  0  0  0  0
   -6.3882    5.9495  -15.4764 C   0  0  0  0  0  0  0  0  0  0  0  0
   -6.3830    5.2033  -16.6296 C   0  0  0  0  0  0  0  0  0  0  0  0
   -6.6748    3.8257  -16.5881 C   0  0  0  0  0  0  0  0  0  0  0  0
   -6.6845   -0.0578  -12.5900 O   0  0  0  0  0  0  0  0  0  0  0  0
   -7.7894    0.6879  -12.8881 C   0  0  0  0  0  0  0  0  0  0  0  0
   -7.4647    1.8378  -13.8164 C   0  0  0  0  0  0  0  0  0  0  0  0
   -6.9684    3.1991  -15.4131 C   0  0  0  0  0  0  0  0  0  0  0  0
   -7.2782    3.0981  -13.2942 N   0  0  0  0  0  0  0  0  0  0  0  0
  -12.1669   -0.1892  -16.0790 C   0  0  0  0  0  0  0  0  0  0  0  0
  1  2  2  0
  1  6  1  0
  7  1  1  0
  2  3  1  0
  3  4  2  0
  3 20  1  0
  5  4  1  0
  6  5  2  0
  6  8  1  0
  9  7  1  0
 17  9  1  0
  9 18  1  0
 10 11  2  0
 18 10  1  0
 10 19  1  0
 11 12  1  0
 13 12  2  0
 14 13  1  0
 18 14  2  0
 16 15  1  0
 16 17  1  0
 17 19  2  0
M  END
$$$$
