
     RDKit          3D

 20 22  0  0  0  0  0  0  0  0999 V2000
   -9.1821    1.6655  -18.5580 C   0  0  0  0  0  0  0  0  0  0  0  0
   -9.8949    2.8632  -18.3455 C   0  0  0  0  0  0  0  0  0  0  0  0
  -10.6711    3.4757  -19.2683 C   0  0  0  0  0  0  0  0  0  0  0  0
  -10.7941    2.9179  -20.5114 C   0  0  0  0  0  0  0  0  0  0  0  0
  -10.1326    1.7682  -20.7788 C   0  0  0  0  0  0  0  0  0  0  0  0
   -9.3307    1.1496  -19.8022 C   0  0  0  0  0  0  0  0  0  0  0  0
   -8.4247    1.1621  -17.4694 C   0  0  0  0  0  0  0  0  0  0  0  0
   -8.6396   -0.0616  -20.2315 C   0  0  0  0  0  0  0  0  0  0  0  0
   -8.3618    1.7688  -16.1889 N   0  0  0  0  0  0  0  0  0  0  0  0
   -7.7017    3.0921  -14.4941 C   0  0  0  0  0  0  0  0  0  0  0  0
   -6.9024    4.0441  -13.8397 C   0  0  0  0  0  0  0  0  0  0  0  0
   -5.8337    4.6142  -14.4858 C   0  0  0  0  0  0  0  0  0  0  0  0
   -5.5692    4.2317  -15.7783 C   0  0  0  0  0  0  0  0  0  0  0  0
   -6.3816    3.2755  -16.4188 C   0  0  0  0  0  0  0  0  0  0  0  0
  -10.1004   -0.6069  -15.4236 O   0  0  0  0  0  0  0  0  0  0  0  0
  -10.3538    0.6533  -14.9617 C   0  0  0  0  0  0  0  0  0  0  0  0
   -9.1731    1.5786  -15.1596 C   0  0  0  0  0  0  0  0  0  0  0  0
   -7.4442    2.7074  -15.7803 C   0  0  0  0  0  0  0  0  0  0  0  0
   -8.7676    2.3903  -14.1239 N   0  0  0  0  0  0  0  0  0  0  0  0
  -11.3910    4.7466  -18.9473 C   0  0  0  0  0  0  0  0  0  0  0  0
  1  2  2  0
  1  6  1  0
  7  1  1  0
  2  3  1  0
  3  4  2  0
  3 20  1  0
  5  4  1  0
  6  5  2  0
  6  8  1  0
  9  7  1  0
 17  9  1  0
  9 18  1  0
 10 11  2  0
 18 10  1  0
 10 19  1  0
 11 12  1  0
 13 12  2  0
 14 13  1  0
 18 14  2  0
 16 15  1  0
 16 17  1  0
 17 19  2  0
M  END
$$$$
