
     RDKit          3D

 20 22  0  0  0  0  0  0  0  0999 V2000
   -8.5809    2.5393  -17.3651 C   0  0  0  0  0  0  0  0  0  0  0  0
   -7.9150    1.5525  -18.1205 C   0  0  0  0  0  0  0  0  0  0  0  0
   -8.3765    1.0191  -19.2746 C   0  0  0  0  0  0  0  0  0  0  0  0
   -9.5768    1.4464  -19.7728 C   0  0  0  0  0  0  0  0  0  0  0  0
  -10.2662    2.3913  -19.0926 C   0  0  0  0  0  0  0  0  0  0  0  0
   -9.7655    2.9313  -17.8936 C   0  0  0  0  0  0  0  0  0  0  0  0
   -7.9405    2.9895  -16.1822 C   0  0  0  0  0  0  0  0  0  0  0  0
  -10.6252    3.9114  -17.2384 C   0  0  0  0  0  0  0  0  0  0  0  0
   -7.7356    2.1904  -15.0284 N   0  0  0  0  0  0  0  0  0  0  0  0
   -8.1532    0.9933  -13.1705 C   0  0  0  0  0  0  0  0  0  0  0  0
   -8.9365    0.4409  -12.1436 C   0  0  0  0  0  0  0  0  0  0  0  0
  -10.2887    0.6743  -12.1007 C   0  0  0  0  0  0  0  0  0  0  0  0
  -10.8502    1.4561  -13.0807 C   0  0  0  0  0  0  0  0  0  0  0  0
  -10.0491    2.0019  -14.1029 C   0  0  0  0  0  0  0  0  0  0  0  0
   -4.6028    2.9804  -14.7333 O   0  0  0  0  0  0  0  0  0  0  0  0
   -5.1750    1.7931  -15.0917 C   0  0  0  0  0  0  0  0  0  0  0  0
   -6.5976    1.6741  -14.5900 C   0  0  0  0  0  0  0  0  0  0  0  0
   -8.7058    1.7718  -14.1490 C   0  0  0  0  0  0  0  0  0  0  0  0
   -6.8559    0.9411  -13.4534 N   0  0  0  0  0  0  0  0  0  0  0  0
   -7.5951   -0.0250  -20.0065 C   0  0  0  0  0  0  0  0  0  0  0  0
  1  2  2  0
  1  6  1  0
  7  1  1  0
  2  3  1  0
  3  4  2  0
  3 20  1  0
  5  4  1  0
  6  5  2  0
  6  8  1  0
  9  7  1  0
 17  9  1  0
  9 18  1  0
 10 11  2  0
 18 10  1  0
 10 19  1  0
 11 12  1  0
 13 12  2  0
 14 13  1  0
 18 14  2  0
 16 15  1  0
 16 17  1  0
 17 19  2  0
M  END
$$$$
