
     RDKit          3D

 20 22  0  0  0  0  0  0  0  0999 V2000
   -9.9079    1.0721  -15.3717 C   0  0  0  0  0  0  0  0  0  0  0  0
   -9.2739    2.3053  -15.1170 C   0  0  0  0  0  0  0  0  0  0  0  0
   -9.7728    3.2831  -14.3267 C   0  0  0  0  0  0  0  0  0  0  0  0
  -10.9814    3.0931  -13.7147 C   0  0  0  0  0  0  0  0  0  0  0  0
  -11.6414    1.9300  -13.9208 C   0  0  0  0  0  0  0  0  0  0  0  0
  -11.1021    0.9276  -14.7478 C   0  0  0  0  0  0  0  0  0  0  0  0
   -9.2304    0.1602  -16.2212 C   0  0  0  0  0  0  0  0  0  0  0  0
  -11.9325   -0.2598  -14.9193 C   0  0  0  0  0  0  0  0  0  0  0  0
   -8.7404    0.4815  -17.5128 N   0  0  0  0  0  0  0  0  0  0  0  0
   -8.6549    0.7753  -19.7412 C   0  0  0  0  0  0  0  0  0  0  0  0
   -9.1244    0.7336  -21.0645 C   0  0  0  0  0  0  0  0  0  0  0  0
  -10.3788    0.2486  -21.3403 C   0  0  0  0  0  0  0  0  0  0  0  0
  -11.1556   -0.1913  -20.2963 C   0  0  0  0  0  0  0  0  0  0  0  0
  -10.6681   -0.1420  -18.9755 C   0  0  0  0  0  0  0  0  0  0  0  0
   -5.7684    0.2468  -16.4424 O   0  0  0  0  0  0  0  0  0  0  0  0
   -6.3564    1.3527  -16.9873 C   0  0  0  0  0  0  0  0  0  0  0  0
   -7.5626    0.9978  -17.8292 C   0  0  0  0  0  0  0  0  0  0  0  0
   -9.4229    0.3395  -18.6977 C   0  0  0  0  0  0  0  0  0  0  0  0
   -7.5131    1.1776  -19.1934 N   0  0  0  0  0  0  0  0  0  0  0  0
   -9.0234    4.5599  -14.1162 C   0  0  0  0  0  0  0  0  0  0  0  0
  1  2  2  0
  1  6  1  0
  7  1  1  0
  2  3  1  0
  3  4  2  0
  3 20  1  0
  5  4  1  0
  6  5  2  0
  6  8  1  0
  9  7  1  0
 17  9  1  0
  9 18  1  0
 10 11  2  0
 18 10  1  0
 10 19  1  0
 11 12  1  0
 13 12  2  0
 14 13  1  0
 18 14  2  0
 16 15  1  0
 16 17  1  0
 17 19  2  0
M  END
$$$$
