
     RDKit          3D

 20 22  0  0  0  0  0  0  0  0999 V2000
   -8.8207    0.5710  -16.9824 C   0  0  0  0  0  0  0  0  0  0  0  0
   -9.9363    0.4677  -16.1265 C   0  0  0  0  0  0  0  0  0  0  0  0
  -11.1871    0.1387  -16.5221 C   0  0  0  0  0  0  0  0  0  0  0  0
  -11.4214   -0.1182  -17.8452 C   0  0  0  0  0  0  0  0  0  0  0  0
  -10.3912   -0.0339  -18.7185 C   0  0  0  0  0  0  0  0  0  0  0  0
   -9.0984    0.3106  -18.2829 C   0  0  0  0  0  0  0  0  0  0  0  0
   -7.5804    0.9190  -16.3886 C   0  0  0  0  0  0  0  0  0  0  0  0
   -8.0872    0.4070  -19.3304 C   0  0  0  0  0  0  0  0  0  0  0  0
   -7.4292    1.8726  -15.3496 N   0  0  0  0  0  0  0  0  0  0  0  0
   -7.1662    3.8406  -14.2926 C   0  0  0  0  0  0  0  0  0  0  0  0
   -6.9738    5.2277  -14.1830 C   0  0  0  0  0  0  0  0  0  0  0  0
   -6.8566    6.0028  -15.3101 C   0  0  0  0  0  0  0  0  0  0  0  0
   -6.9319    5.3905  -16.5373 C   0  0  0  0  0  0  0  0  0  0  0  0
   -7.1252    3.9980  -16.6281 C   0  0  0  0  0  0  0  0  0  0  0  0
   -8.8634    0.2528  -12.7147 O   0  0  0  0  0  0  0  0  0  0  0  0
   -7.6054    0.3949  -13.2274 C   0  0  0  0  0  0  0  0  0  0  0  0
   -7.4644    1.6618  -14.0426 C   0  0  0  0  0  0  0  0  0  0  0  0
   -7.2424    3.2250  -15.5109 C   0  0  0  0  0  0  0  0  0  0  0  0
   -7.3042    2.8678  -13.3979 N   0  0  0  0  0  0  0  0  0  0  0  0
  -12.3086    0.0533  -15.5365 C   0  0  0  0  0  0  0  0  0  0  0  0
  1  2  2  0
  1  6  1  0
  7  1  1  0
  2  3  1  0
  3  4  2  0
  3 20  1  0
  5  4  1  0
  6  5  2  0
  6  8  1  0
  9  7  1  0
 17  9  1  0
  9 18  1  0
 10 11  2  0
 18 10  1  0
 10 19  1  0
 11 12  1  0
 13 12  2  0
 14 13  1  0
 18 14  2  0
 16 15  1  0
 16 17  1  0
 17 19  2  0
M  END
$$$$
