
     RDKit          3D

 20 22  0  0  0  0  0  0  0  0999 V2000
  -11.0592    0.4982  -19.8284 C   0  0  0  0  0  0  0  0  0  0  0  0
  -12.3178    0.1712  -19.2836 C   0  0  0  0  0  0  0  0  0  0  0  0
  -13.4777    0.1418  -19.9787 C   0  0  0  0  0  0  0  0  0  0  0  0
  -13.4633    0.4482  -21.3119 C   0  0  0  0  0  0  0  0  0  0  0  0
  -12.2857    0.7725  -21.8940 C   0  0  0  0  0  0  0  0  0  0  0  0
  -11.0918    0.7965  -21.1498 C   0  0  0  0  0  0  0  0  0  0  0  0
   -9.9466    0.4681  -18.9490 C   0  0  0  0  0  0  0  0  0  0  0  0
   -9.8998    1.2020  -21.8870 C   0  0  0  0  0  0  0  0  0  0  0  0
   -9.9244    1.0687  -17.6644 N   0  0  0  0  0  0  0  0  0  0  0  0
   -9.7938    2.6292  -16.0497 C   0  0  0  0  0  0  0  0  0  0  0  0
   -9.6165    3.9153  -15.5131 C   0  0  0  0  0  0  0  0  0  0  0  0
   -9.3620    4.9821  -16.3388 C   0  0  0  0  0  0  0  0  0  0  0  0
   -9.2858    4.7599  -17.6921 C   0  0  0  0  0  0  0  0  0  0  0  0
   -9.4662    3.4633  -18.2125 C   0  0  0  0  0  0  0  0  0  0  0  0
  -11.6907   -1.2621  -16.0609 O   0  0  0  0  0  0  0  0  0  0  0  0
  -10.3598   -0.9592  -16.1098 C   0  0  0  0  0  0  0  0  0  0  0  0
  -10.1199    0.4852  -16.4917 C   0  0  0  0  0  0  0  0  0  0  0  0
   -9.7196    2.4013  -17.3955 C   0  0  0  0  0  0  0  0  0  0  0  0
  -10.0404    1.4425  -15.5052 N   0  0  0  0  0  0  0  0  0  0  0  0
  -14.7662   -0.2192  -19.3109 C   0  0  0  0  0  0  0  0  0  0  0  0
  1  2  2  0
  1  6  1  0
  7  1  1  0
  2  3  1  0
  3  4  2  0
  3 20  1  0
  5  4  1  0
  6  5  2  0
  6  8  1  0
  9  7  1  0
 17  9  1  0
  9 18  1  0
 10 11  2  0
 18 10  1  0
 10 19  1  0
 11 12  1  0
 13 12  2  0
 14 13  1  0
 18 14  2  0
 16 15  1  0
 16 17  1  0
 17 19  2  0
M  END
$$$$
