
     RDKit          3D

 20 22  0  0  0  0  0  0  0  0999 V2000
  -10.7568    2.5704  -19.3552 C   0  0  0  0  0  0  0  0  0  0  0  0
  -10.1188    1.5294  -20.0603 C   0  0  0  0  0  0  0  0  0  0  0  0
   -9.4904    1.6720  -21.2494 C   0  0  0  0  0  0  0  0  0  0  0  0
   -9.4541    2.9055  -21.8399 C   0  0  0  0  0  0  0  0  0  0  0  0
  -10.0504    3.9463  -21.2137 C   0  0  0  0  0  0  0  0  0  0  0  0
  -10.6983    3.7730  -19.9768 C   0  0  0  0  0  0  0  0  0  0  0  0
  -11.3577    2.2371  -18.1143 C   0  0  0  0  0  0  0  0  0  0  0  0
  -11.3360    4.9655  -19.4289 C   0  0  0  0  0  0  0  0  0  0  0  0
  -10.6383    1.8603  -16.9514 N   0  0  0  0  0  0  0  0  0  0  0  0
   -9.2573    1.9660  -15.1791 C   0  0  0  0  0  0  0  0  0  0  0  0
   -8.3150    2.5460  -14.3137 C   0  0  0  0  0  0  0  0  0  0  0  0
   -7.8496    3.8165  -14.5462 C   0  0  0  0  0  0  0  0  0  0  0  0
   -8.3262    4.4993  -15.6386 C   0  0  0  0  0  0  0  0  0  0  0  0
   -9.2711    3.9018  -16.4958 C   0  0  0  0  0  0  0  0  0  0  0  0
  -12.8226   -0.3971  -16.3018 O   0  0  0  0  0  0  0  0  0  0  0  0
  -11.4881   -0.5547  -16.5466 C   0  0  0  0  0  0  0  0  0  0  0  0
  -10.7094    0.7166  -16.2877 C   0  0  0  0  0  0  0  0  0  0  0  0
   -9.7359    2.6402  -16.2678 C   0  0  0  0  0  0  0  0  0  0  0  0
   -9.8641    0.7841  -15.2029 N   0  0  0  0  0  0  0  0  0  0  0  0
   -8.8398    0.5050  -21.9210 C   0  0  0  0  0  0  0  0  0  0  0  0
  1  2  2  0
  1  6  1  0
  7  1  1  0
  2  3  1  0
  3  4  2  0
  3 20  1  0
  5  4  1  0
  6  5  2  0
  6  8  1  0
  9  7  1  0
 17  9  1  0
  9 18  1  0
 10 11  2  0
 18 10  1  0
 10 19  1  0
 11 12  1  0
 13 12  2  0
 14 13  1  0
 18 14  2  0
 16 15  1  0
 16 17  1  0
 17 19  2  0
M  END
$$$$
