
     RDKit          3D

 20 22  0  0  0  0  0  0  0  0999 V2000
   -8.3440    3.0942  -16.9238 C   0  0  0  0  0  0  0  0  0  0  0  0
   -9.4927    3.9114  -16.9447 C   0  0  0  0  0  0  0  0  0  0  0  0
   -9.4811    5.2599  -17.0485 C   0  0  0  0  0  0  0  0  0  0  0  0
   -8.2813    5.9106  -17.1410 C   0  0  0  0  0  0  0  0  0  0  0  0
   -7.1412    5.1821  -17.1248 C   0  0  0  0  0  0  0  0  0  0  0  0
   -7.1787    3.7798  -17.0156 C   0  0  0  0  0  0  0  0  0  0  0  0
   -8.5482    1.6944  -16.8187 C   0  0  0  0  0  0  0  0  0  0  0  0
   -5.8792    3.1181  -16.9681 C   0  0  0  0  0  0  0  0  0  0  0  0
   -9.8212    1.0748  -16.7340 N   0  0  0  0  0  0  0  0  0  0  0  0
  -11.7173    0.0233  -17.3328 C   0  0  0  0  0  0  0  0  0  0  0  0
  -12.6455   -0.5557  -18.2140 C   0  0  0  0  0  0  0  0  0  0  0  0
  -12.3987   -0.5787  -19.5643 C   0  0  0  0  0  0  0  0  0  0  0  0
  -11.2297   -0.0250  -20.0264 C   0  0  0  0  0  0  0  0  0  0  0  0
  -10.3103    0.5513  -19.1280 C   0  0  0  0  0  0  0  0  0  0  0  0
   -9.7342    0.1218  -13.5100 O   0  0  0  0  0  0  0  0  0  0  0  0
  -10.2996    1.1640  -14.1881 C   0  0  0  0  0  0  0  0  0  0  0  0
  -10.5353    0.8320  -15.6454 C   0  0  0  0  0  0  0  0  0  0  0  0
  -10.5519    0.5757  -17.7861 C   0  0  0  0  0  0  0  0  0  0  0  0
  -11.6948    0.1876  -16.0144 N   0  0  0  0  0  0  0  0  0  0  0  0
  -10.7559    6.0416  -17.0633 C   0  0  0  0  0  0  0  0  0  0  0  0
  1  2  2  0
  1  6  1  0
  7  1  1  0
  2  3  1  0
  3  4  2  0
  3 20  1  0
  5  4  1  0
  6  5  2  0
  6  8  1  0
  9  7  1  0
 17  9  1  0
  9 18  1  0
 10 11  2  0
 18 10  1  0
 10 19  1  0
 11 12  1  0
 13 12  2  0
 14 13  1  0
 18 14  2  0
 16 15  1  0
 16 17  1  0
 17 19  2  0
M  END
$$$$
