
     RDKit          3D

 20 22  0  0  0  0  0  0  0  0999 V2000
   -7.8686    2.7741  -17.4321 C   0  0  0  0  0  0  0  0  0  0  0  0
   -7.8501    1.5973  -18.2083 C   0  0  0  0  0  0  0  0  0  0  0  0
   -6.9059    1.2912  -19.1271 C   0  0  0  0  0  0  0  0  0  0  0  0
   -5.8789    2.1685  -19.3444 C   0  0  0  0  0  0  0  0  0  0  0  0
   -5.8409    3.3180  -18.6316 C   0  0  0  0  0  0  0  0  0  0  0  0
   -6.8352    3.6144  -17.6812 C   0  0  0  0  0  0  0  0  0  0  0  0
   -8.9349    2.9226  -16.5085 C   0  0  0  0  0  0  0  0  0  0  0  0
   -6.7000    4.9037  -17.0116 C   0  0  0  0  0  0  0  0  0  0  0  0
   -9.4873    1.8622  -15.7455 N   0  0  0  0  0  0  0  0  0  0  0  0
  -10.7517    0.0941  -15.1672 C   0  0  0  0  0  0  0  0  0  0  0  0
  -11.7431   -0.8879  -15.3287 C   0  0  0  0  0  0  0  0  0  0  0  0
  -12.4816   -0.9443  -16.4846 C   0  0  0  0  0  0  0  0  0  0  0  0
  -12.2271   -0.0223  -17.4705 C   0  0  0  0  0  0  0  0  0  0  0  0
  -11.2289    0.9555  -17.2911 C   0  0  0  0  0  0  0  0  0  0  0  0
   -8.4673    3.2397  -13.0785 O   0  0  0  0  0  0  0  0  0  0  0  0
   -8.1197    2.0051  -13.5483 C   0  0  0  0  0  0  0  0  0  0  0  0
   -9.1348    1.4655  -14.5321 C   0  0  0  0  0  0  0  0  0  0  0  0
  -10.4932    1.0143  -16.1445 C   0  0  0  0  0  0  0  0  0  0  0  0
   -9.9094    0.3827  -14.1808 N   0  0  0  0  0  0  0  0  0  0  0  0
   -6.9716    0.0141  -19.9022 C   0  0  0  0  0  0  0  0  0  0  0  0
  1  2  2  0
  1  6  1  0
  7  1  1  0
  2  3  1  0
  3  4  2  0
  3 20  1  0
  5  4  1  0
  6  5  2  0
  6  8  1  0
  9  7  1  0
 17  9  1  0
  9 18  1  0
 10 11  2  0
 18 10  1  0
 10 19  1  0
 11 12  1  0
 13 12  2  0
 14 13  1  0
 18 14  2  0
 16 15  1  0
 16 17  1  0
 17 19  2  0
M  END
$$$$
