
     RDKit          3D

 20 22  0  0  0  0  0  0  0  0999 V2000
   -9.1410    4.2361  -16.4940 C   0  0  0  0  0  0  0  0  0  0  0  0
   -8.0995    5.1050  -16.1090 C   0  0  0  0  0  0  0  0  0  0  0  0
   -8.1038    6.4454  -16.2894 C   0  0  0  0  0  0  0  0  0  0  0  0
   -9.1841    7.0335  -16.8882 C   0  0  0  0  0  0  0  0  0  0  0  0
  -10.2165    6.2529  -17.2827 C   0  0  0  0  0  0  0  0  0  0  0  0
  -10.1889    4.8602  -17.0844 C   0  0  0  0  0  0  0  0  0  0  0  0
   -8.9673    2.8559  -16.2162 C   0  0  0  0  0  0  0  0  0  0  0  0
  -11.3455    4.1300  -17.5924 C   0  0  0  0  0  0  0  0  0  0  0  0
   -8.2788    1.9490  -17.0618 N   0  0  0  0  0  0  0  0  0  0  0  0
   -7.8780    0.4321  -18.6736 C   0  0  0  0  0  0  0  0  0  0  0  0
   -8.1975   -0.4587  -19.7116 C   0  0  0  0  0  0  0  0  0  0  0  0
   -9.5012   -0.6199  -20.1105 C   0  0  0  0  0  0  0  0  0  0  0  0
  -10.4765    0.1070  -19.4724 C   0  0  0  0  0  0  0  0  0  0  0  0
  -10.1375    0.9958  -18.4332 C   0  0  0  0  0  0  0  0  0  0  0  0
   -5.9484    1.8823  -14.9548 O   0  0  0  0  0  0  0  0  0  0  0  0
   -5.8259    2.2258  -16.2711 C   0  0  0  0  0  0  0  0  0  0  0  0
   -6.9776    1.7057  -17.1032 C   0  0  0  0  0  0  0  0  0  0  0  0
   -8.8437    1.1589  -18.0347 C   0  0  0  0  0  0  0  0  0  0  0  0
   -6.7348    0.7777  -18.0911 N   0  0  0  0  0  0  0  0  0  0  0  0
   -6.9493    7.2855  -15.8448 C   0  0  0  0  0  0  0  0  0  0  0  0
  1  2  2  0
  1  6  1  0
  7  1  1  0
  2  3  1  0
  3  4  2  0
  3 20  1  0
  5  4  1  0
  6  5  2  0
  6  8  1  0
  9  7  1  0
 17  9  1  0
  9 18  1  0
 10 11  2  0
 18 10  1  0
 10 19  1  0
 11 12  1  0
 13 12  2  0
 14 13  1  0
 18 14  2  0
 16 15  1  0
 16 17  1  0
 17 19  2  0
M  END
$$$$
