
     RDKit          3D

 20 22  0  0  0  0  0  0  0  0999 V2000
   -9.9742    1.4840  -19.3306 C   0  0  0  0  0  0  0  0  0  0  0  0
  -11.1658    1.1332  -19.9976 C   0  0  0  0  0  0  0  0  0  0  0  0
  -11.2345    0.3512  -21.0990 C   0  0  0  0  0  0  0  0  0  0  0  0
  -10.0793   -0.1524  -21.6315 C   0  0  0  0  0  0  0  0  0  0  0  0
   -8.9015    0.1497  -21.0379 C   0  0  0  0  0  0  0  0  0  0  0  0
   -8.8554    0.9658  -19.8927 C   0  0  0  0  0  0  0  0  0  0  0  0
  -10.0947    2.3079  -18.1822 C   0  0  0  0  0  0  0  0  0  0  0  0
   -7.5206    1.2482  -19.3755 C   0  0  0  0  0  0  0  0  0  0  0  0
   -9.8941    1.8612  -16.8512 N   0  0  0  0  0  0  0  0  0  0  0  0
   -9.0990    1.7269  -14.7514 C   0  0  0  0  0  0  0  0  0  0  0  0
   -8.2884    2.0709  -13.6569 C   0  0  0  0  0  0  0  0  0  0  0  0
   -7.3704    3.0860  -13.7658 C   0  0  0  0  0  0  0  0  0  0  0  0
   -7.2668    3.7502  -14.9636 C   0  0  0  0  0  0  0  0  0  0  0  0
   -8.0881    3.3915  -16.0506 C   0  0  0  0  0  0  0  0  0  0  0  0
  -11.0606   -1.2063  -17.2328 O   0  0  0  0  0  0  0  0  0  0  0  0
  -11.5976   -0.0839  -16.6692 C   0  0  0  0  0  0  0  0  0  0  0  0
  -10.5316    0.8895  -16.2160 C   0  0  0  0  0  0  0  0  0  0  0  0
   -9.0012    2.3841  -15.9460 C   0  0  0  0  0  0  0  0  0  0  0  0
  -10.0439    0.8100  -14.9308 N   0  0  0  0  0  0  0  0  0  0  0  0
  -12.5494    0.0332  -21.7364 C   0  0  0  0  0  0  0  0  0  0  0  0
  1  2  2  0
  1  6  1  0
  7  1  1  0
  2  3  1  0
  3  4  2  0
  3 20  1  0
  5  4  1  0
  6  5  2  0
  6  8  1  0
  9  7  1  0
 17  9  1  0
  9 18  1  0
 10 11  2  0
 18 10  1  0
 10 19  1  0
 11 12  1  0
 13 12  2  0
 14 13  1  0
 18 14  2  0
 16 15  1  0
 16 17  1  0
 17 19  2  0
M  END
$$$$
