
     RDKit          3D

 20 22  0  0  0  0  0  0  0  0999 V2000
   -7.9030    2.6704  -16.6170 C   0  0  0  0  0  0  0  0  0  0  0  0
   -7.8270    1.5602  -17.4827 C   0  0  0  0  0  0  0  0  0  0  0  0
   -6.9369    1.4256  -18.4921 C   0  0  0  0  0  0  0  0  0  0  0  0
   -6.0295    2.4242  -18.7175 C   0  0  0  0  0  0  0  0  0  0  0  0
   -6.0520    3.5181  -17.9214 C   0  0  0  0  0  0  0  0  0  0  0  0
   -6.9880    3.6353  -16.8774 C   0  0  0  0  0  0  0  0  0  0  0  0
   -8.8971    2.6348  -15.6058 C   0  0  0  0  0  0  0  0  0  0  0  0
   -6.9324    4.8815  -16.1206 C   0  0  0  0  0  0  0  0  0  0  0  0
   -9.6744    1.4922  -15.2864 N   0  0  0  0  0  0  0  0  0  0  0  0
  -11.1932   -0.1587  -15.4503 C   0  0  0  0  0  0  0  0  0  0  0  0
  -12.2411   -0.8913  -16.0321 C   0  0  0  0  0  0  0  0  0  0  0  0
  -12.7815   -0.4962  -17.2307 C   0  0  0  0  0  0  0  0  0  0  0  0
  -12.2743    0.6253  -17.8403 C   0  0  0  0  0  0  0  0  0  0  0  0
  -11.2231    1.3477  -17.2421 C   0  0  0  0  0  0  0  0  0  0  0  0
   -9.0665    1.7677  -12.1411 O   0  0  0  0  0  0  0  0  0  0  0  0
   -8.6788    0.7803  -13.0016 C   0  0  0  0  0  0  0  0  0  0  0  0
   -9.5690    0.7099  -14.2231 C   0  0  0  0  0  0  0  0  0  0  0  0
  -10.6836    0.9580  -16.0520 C   0  0  0  0  0  0  0  0  0  0  0  0
  -10.4989   -0.3004  -14.3262 N   0  0  0  0  0  0  0  0  0  0  0  0
   -6.9339    0.2065  -19.3582 C   0  0  0  0  0  0  0  0  0  0  0  0
  1  2  2  0
  1  6  1  0
  7  1  1  0
  2  3  1  0
  3  4  2  0
  3 20  1  0
  5  4  1  0
  6  5  2  0
  6  8  1  0
  9  7  1  0
 17  9  1  0
  9 18  1  0
 10 11  2  0
 18 10  1  0
 10 19  1  0
 11 12  1  0
 13 12  2  0
 14 13  1  0
 18 14  2  0
 16 15  1  0
 16 17  1  0
 17 19  2  0
M  END
$$$$
