
     RDKit          3D

 20 22  0  0  0  0  0  0  0  0999 V2000
   -8.6953    1.6550  -18.0047 C   0  0  0  0  0  0  0  0  0  0  0  0
   -9.5251    2.7829  -17.8401 C   0  0  0  0  0  0  0  0  0  0  0  0
  -10.5235    3.1381  -18.6805 C   0  0  0  0  0  0  0  0  0  0  0  0
  -10.7722    2.3672  -19.7829 C   0  0  0  0  0  0  0  0  0  0  0  0
  -10.0086    1.2711  -19.9982 C   0  0  0  0  0  0  0  0  0  0  0  0
   -8.9752    0.9220  -19.1094 C   0  0  0  0  0  0  0  0  0  0  0  0
   -7.7031    1.4326  -17.0157 C   0  0  0  0  0  0  0  0  0  0  0  0
   -8.2010   -0.2585  -19.4784 C   0  0  0  0  0  0  0  0  0  0  0  0
   -7.5849    2.1814  -15.8169 N   0  0  0  0  0  0  0  0  0  0  0  0
   -6.9843    3.7944  -14.3689 C   0  0  0  0  0  0  0  0  0  0  0  0
   -6.3223    4.9555  -13.9367 C   0  0  0  0  0  0  0  0  0  0  0  0
   -5.5090    5.6510  -14.7968 C   0  0  0  0  0  0  0  0  0  0  0  0
   -5.3613    5.1846  -16.0803 C   0  0  0  0  0  0  0  0  0  0  0  0
   -6.0331    4.0184  -16.4963 C   0  0  0  0  0  0  0  0  0  0  0  0
   -8.4064   -0.3321  -13.9902 O   0  0  0  0  0  0  0  0  0  0  0  0
   -9.0859    0.8363  -14.1871 C   0  0  0  0  0  0  0  0  0  0  0  0
   -8.1753    1.9509  -14.6541 C   0  0  0  0  0  0  0  0  0  0  0  0
   -6.8420    3.3252  -15.6450 C   0  0  0  0  0  0  0  0  0  0  0  0
   -7.8070    2.9400  -13.7698 N   0  0  0  0  0  0  0  0  0  0  0  0
  -11.3524    4.3552  -18.4200 C   0  0  0  0  0  0  0  0  0  0  0  0
  1  2  2  0
  1  6  1  0
  7  1  1  0
  2  3  1  0
  3  4  2  0
  3 20  1  0
  5  4  1  0
  6  5  2  0
  6  8  1  0
  9  7  1  0
 17  9  1  0
  9 18  1  0
 10 11  2  0
 18 10  1  0
 10 19  1  0
 11 12  1  0
 13 12  2  0
 14 13  1  0
 18 14  2  0
 16 15  1  0
 16 17  1  0
 17 19  2  0
M  END
$$$$
