
     RDKit          3D

 20 22  0  0  0  0  0  0  0  0999 V2000
   -7.9496    3.7824  -14.7198 C   0  0  0  0  0  0  0  0  0  0  0  0
   -6.7367    4.4100  -14.3694 C   0  0  0  0  0  0  0  0  0  0  0  0
   -5.7912    4.8121  -15.2491 C   0  0  0  0  0  0  0  0  0  0  0  0
   -5.9958    4.6083  -16.5863 C   0  0  0  0  0  0  0  0  0  0  0  0
   -7.1406    4.0085  -16.9871 C   0  0  0  0  0  0  0  0  0  0  0  0
   -8.1096    3.5987  -16.0528 C   0  0  0  0  0  0  0  0  0  0  0  0
   -8.8285    3.4377  -13.6611 C   0  0  0  0  0  0  0  0  0  0  0  0
   -9.2783    2.9281  -16.6125 C   0  0  0  0  0  0  0  0  0  0  0  0
   -9.0736    2.1112  -13.2232 N   0  0  0  0  0  0  0  0  0  0  0  0
  -10.0686    0.1123  -12.9512 C   0  0  0  0  0  0  0  0  0  0  0  0
  -11.0755   -0.8558  -13.1002 C   0  0  0  0  0  0  0  0  0  0  0  0
  -12.2075   -0.5732  -13.8237 C   0  0  0  0  0  0  0  0  0  0  0  0
  -12.3280    0.6711  -14.3929 C   0  0  0  0  0  0  0  0  0  0  0  0
  -11.3081    1.6295  -14.2329 C   0  0  0  0  0  0  0  0  0  0  0  0
   -6.0328    0.6421  -12.1287 O   0  0  0  0  0  0  0  0  0  0  0  0
   -6.9538    1.6026  -11.8209 C   0  0  0  0  0  0  0  0  0  0  0  0
   -8.2889    1.3422  -12.4837 C   0  0  0  0  0  0  0  0  0  0  0  0
  -10.1821    1.3524  -13.5153 C   0  0  0  0  0  0  0  0  0  0  0  0
   -8.8996    0.1191  -12.3195 N   0  0  0  0  0  0  0  0  0  0  0  0
   -4.5341    5.4720  -14.7797 C   0  0  0  0  0  0  0  0  0  0  0  0
  1  2  2  0
  1  6  1  0
  7  1  1  0
  2  3  1  0
  3  4  2  0
  3 20  1  0
  5  4  1  0
  6  5  2  0
  6  8  1  0
  9  7  1  0
 17  9  1  0
  9 18  1  0
 10 11  2  0
 18 10  1  0
 10 19  1  0
 11 12  1  0
 13 12  2  0
 14 13  1  0
 18 14  2  0
 16 15  1  0
 16 17  1  0
 17 19  2  0
M  END
$$$$
