
     RDKit          3D

 20 22  0  0  0  0  0  0  0  0999 V2000
   -8.3518    3.4361  -15.2743 C   0  0  0  0  0  0  0  0  0  0  0  0
   -8.1202    2.5877  -14.1724 C   0  0  0  0  0  0  0  0  0  0  0  0
   -7.1352    2.7550  -13.2607 C   0  0  0  0  0  0  0  0  0  0  0  0
   -6.2818    3.8164  -13.3892 C   0  0  0  0  0  0  0  0  0  0  0  0
   -6.4506    4.6670  -14.4279 C   0  0  0  0  0  0  0  0  0  0  0  0
   -7.4828    4.4719  -15.3640 C   0  0  0  0  0  0  0  0  0  0  0  0
   -9.4403    3.1102  -16.1236 C   0  0  0  0  0  0  0  0  0  0  0  0
   -7.5296    5.4363  -16.4580 C   0  0  0  0  0  0  0  0  0  0  0  0
   -9.6292    1.8437  -16.7334 N   0  0  0  0  0  0  0  0  0  0  0  0
   -9.4120    0.1175  -18.1590 C   0  0  0  0  0  0  0  0  0  0  0  0
   -8.9289   -0.5698  -19.2849 C   0  0  0  0  0  0  0  0  0  0  0  0
   -8.0393    0.0352  -20.1378 C   0  0  0  0  0  0  0  0  0  0  0  0
   -7.6380    1.3198  -19.8629 C   0  0  0  0  0  0  0  0  0  0  0  0
   -8.1330    1.9937  -18.7291 C   0  0  0  0  0  0  0  0  0  0  0  0
  -10.8874   -0.1546  -14.2042 O   0  0  0  0  0  0  0  0  0  0  0  0
  -11.3440    0.7263  -15.1429 C   0  0  0  0  0  0  0  0  0  0  0  0
  -10.3962    0.8479  -16.3161 C   0  0  0  0  0  0  0  0  0  0  0  0
   -9.0163    1.3959  -17.8796 C   0  0  0  0  0  0  0  0  0  0  0  0
  -10.2607   -0.2077  -17.1897 N   0  0  0  0  0  0  0  0  0  0  0  0
   -6.9699    1.7996  -12.1222 C   0  0  0  0  0  0  0  0  0  0  0  0
  1  2  2  0
  1  6  1  0
  7  1  1  0
  2  3  1  0
  3  4  2  0
  3 20  1  0
  5  4  1  0
  6  5  2  0
  6  8  1  0
  9  7  1  0
 17  9  1  0
  9 18  1  0
 10 11  2  0
 18 10  1  0
 10 19  1  0
 11 12  1  0
 13 12  2  0
 14 13  1  0
 18 14  2  0
 16 15  1  0
 16 17  1  0
 17 19  2  0
M  END
$$$$
