
     RDKit          3D

 20 22  0  0  0  0  0  0  0  0999 V2000
   -8.8549    0.5507  -17.3469 C   0  0  0  0  0  0  0  0  0  0  0  0
  -10.0745    0.3176  -16.6791 C   0  0  0  0  0  0  0  0  0  0  0  0
  -11.2554    0.0679  -17.2894 C   0  0  0  0  0  0  0  0  0  0  0  0
  -11.3045    0.0330  -18.6561 C   0  0  0  0  0  0  0  0  0  0  0  0
  -10.1669    0.2508  -19.3556 C   0  0  0  0  0  0  0  0  0  0  0  0
   -8.9501    0.5089  -18.6979 C   0  0  0  0  0  0  0  0  0  0  0  0
   -7.7116    0.7867  -16.5411 C   0  0  0  0  0  0  0  0  0  0  0  0
   -7.8078    0.7673  -19.5682 C   0  0  0  0  0  0  0  0  0  0  0  0
   -7.6736    1.6919  -15.4499 N   0  0  0  0  0  0  0  0  0  0  0  0
   -7.3767    3.5800  -14.2640 C   0  0  0  0  0  0  0  0  0  0  0  0
   -7.0054    4.9165  -14.0424 C   0  0  0  0  0  0  0  0  0  0  0  0
   -6.4986    5.6747  -15.0686 C   0  0  0  0  0  0  0  0  0  0  0  0
   -6.3653    5.0959  -16.3072 C   0  0  0  0  0  0  0  0  0  0  0  0
   -6.7428    3.7541  -16.5109 C   0  0  0  0  0  0  0  0  0  0  0  0
   -9.9408    0.2937  -13.3249 O   0  0  0  0  0  0  0  0  0  0  0  0
   -8.5883    0.2392  -13.5079 C   0  0  0  0  0  0  0  0  0  0  0  0
   -8.0590    1.4754  -14.2015 C   0  0  0  0  0  0  0  0  0  0  0  0
   -7.2470    2.9981  -15.4941 C   0  0  0  0  0  0  0  0  0  0  0  0
   -7.8772    2.6327  -13.4779 N   0  0  0  0  0  0  0  0  0  0  0  0
  -12.4987   -0.1687  -16.4928 C   0  0  0  0  0  0  0  0  0  0  0  0
  1  2  2  0
  1  6  1  0
  7  1  1  0
  2  3  1  0
  3  4  2  0
  3 20  1  0
  5  4  1  0
  6  5  2  0
  6  8  1  0
  9  7  1  0
 17  9  1  0
  9 18  1  0
 10 11  2  0
 18 10  1  0
 10 19  1  0
 11 12  1  0
 13 12  2  0
 14 13  1  0
 18 14  2  0
 16 15  1  0
 16 17  1  0
 17 19  2  0
M  END
$$$$
