
     RDKit          3D

 20 22  0  0  0  0  0  0  0  0999 V2000
   -5.8605    2.0557  -14.3827 C   0  0  0  0  0  0  0  0  0  0  0  0
   -6.4845    2.8531  -13.4016 C   0  0  0  0  0  0  0  0  0  0  0  0
   -7.1363    4.0127  -13.6468 C   0  0  0  0  0  0  0  0  0  0  0  0
   -7.2130    4.4748  -14.9321 C   0  0  0  0  0  0  0  0  0  0  0  0
   -6.6320    3.7552  -15.9198 C   0  0  0  0  0  0  0  0  0  0  0  0
   -5.9592    2.5516  -15.6399 C   0  0  0  0  0  0  0  0  0  0  0  0
   -5.2307    0.8635  -13.9421 C   0  0  0  0  0  0  0  0  0  0  0  0
   -5.3420    1.8951  -16.7875 C   0  0  0  0  0  0  0  0  0  0  0  0
   -4.5383    0.7311  -12.7113 N   0  0  0  0  0  0  0  0  0  0  0  0
   -2.8721    0.7209  -11.2004 C   0  0  0  0  0  0  0  0  0  0  0  0
   -1.5492    0.8335  -10.7416 C   0  0  0  0  0  0  0  0  0  0  0  0
   -0.5334    1.1238  -11.6183 C   0  0  0  0  0  0  0  0  0  0  0  0
   -0.8430    1.2996  -12.9450 C   0  0  0  0  0  0  0  0  0  0  0  0
   -2.1754    1.1829  -13.3872 C   0  0  0  0  0  0  0  0  0  0  0  0
   -6.8386   -1.1208  -11.4383 O   0  0  0  0  0  0  0  0  0  0  0  0
   -6.4559    0.1380  -11.0714 C   0  0  0  0  0  0  0  0  0  0  0  0
   -5.0462    0.4561  -11.5195 C   0  0  0  0  0  0  0  0  0  0  0  0
   -3.1870    0.8950  -12.5192 C   0  0  0  0  0  0  0  0  0  0  0  0
   -4.0246    0.4514  -10.5964 N   0  0  0  0  0  0  0  0  0  0  0  0
   -7.7691    4.7894  -12.5366 C   0  0  0  0  0  0  0  0  0  0  0  0
  1  2  2  0
  1  6  1  0
  7  1  1  0
  2  3  1  0
  3  4  2  0
  3 20  1  0
  5  4  1  0
  6  5  2  0
  6  8  1  0
  9  7  1  0
 17  9  1  0
  9 18  1  0
 10 11  2  0
 18 10  1  0
 10 19  1  0
 11 12  1  0
 13 12  2  0
 14 13  1  0
 18 14  2  0
 16 15  1  0
 16 17  1  0
 17 19  2  0
M  END
$$$$
