
     RDKit          3D

 25 27  0  0  0  0  0  0  0  0999 V2000
   46.7974   26.1411   34.9464 C   0  0  0  0  0  0  0  0  0  0  0  0
   49.7712   27.1833   36.8987 C   0  0  0  0  0  0  0  0  0  0  0  0
   50.8142   30.0233   37.3733 C   0  0  0  0  0  0  0  0  0  0  0  0
   47.3713   23.1158   27.4324 C   0  0  2  0  0  0  0  0  0  0  0  0
   48.1055   26.4805   35.1850 C   0  0  0  0  0  0  0  0  0  0  0  0
   49.0503   26.1086   34.2089 C   0  0  0  0  0  0  0  0  0  0  0  0
   50.8660   27.9744   36.2452 C   0  0  0  0  0  0  0  0  0  0  0  0
   52.1499   29.6212   38.0340 C   0  0  0  0  0  0  0  0  0  0  0  0
   47.4565   22.3468   28.7118 C   0  0  0  0  0  0  0  0  0  0  0  0
   46.0743   22.9506   26.8548 N   0  0  0  0  0  4  0  0  0  0  0  0
   48.5441   23.6620   25.4800 O   0  0  0  0  0  0  0  0  0  0  0  0
   46.4072   25.4562   33.7914 C   0  0  0  0  0  0  0  0  0  0  0  0
   47.0030   23.1690   29.7996 N   0  0  0  0  0  0  0  0  0  0  0  0
   48.0983   21.1688   24.5083 O   0  0  0  0  0  0  0  0  0  0  0  0
   46.2313   22.2442   25.5864 C   0  0  0  0  0  0  0  0  0  0  0  0
   45.7807   23.6008   30.0225 N   0  0  0  0  0  0  0  0  0  0  0  0
   48.5525   27.1451   36.2924 O   0  0  0  0  0  0  0  0  0  0  0  0
   47.5878   21.5373   25.7284 C   0  0  2  0  0  0  0  0  0  0  0  0
   45.7223   24.3399   31.1240 N   0  0  0  0  0  0  0  0  0  0  0  0
   50.6793   29.3309   36.2024 O   0  0  0  0  0  0  0  0  0  0  0  0
   48.3723   22.6440   26.4016 C   0  0  2  0  0  0  0  0  0  0  0  0
   48.6446   25.4495   33.1059 C   0  0  0  0  0  0  0  0  0  0  0  0
   47.3343   25.0933   32.8384 C   0  0  0  0  0  0  0  0  0  0  0  0
   46.9657   24.3823   31.6284 C   0  0  0  0  0  0  0  0  0  0  0  0
   47.7632   23.6432   30.7886 C   0  0  0  0  0  0  0  0  0  0  0  0
  1  5  2  0
 12  1  1  0
  2  7  1  0
 17  2  1  0
  3  8  1  0
 20  3  1  0
  4  9  1  1
  4 10  1  0
  4 21  1  0
  6  5  1  0
  5 17  1  0
 22  6  2  0
  7 20  1  0
 13  9  1  0
 10 15  1  0
 21 11  1  6
 23 12  2  0
 16 13  1  0
 13 25  1  0
 18 14  1  6
 18 15  1  0
 19 16  2  0
 21 18  1  0
 24 19  1  0
 23 22  1  0
 23 24  1  0
 24 25  2  0
M  CHG  1  10   1
M  END
$$$$
