
     RDKit          3D

 25 27  0  0  0  0  0  0  0  0999 V2000
   48.3380   25.9164   34.4659 C   0  0  0  0  0  0  0  0  0  0  0  0
   48.2961   27.4029   37.1798 C   0  0  0  0  0  0  0  0  0  0  0  0
   46.9549   30.2163   38.3051 C   0  0  0  0  0  0  0  0  0  0  0  0
   47.6951   23.1587   27.4106 C   0  0  2  0  0  0  0  0  0  0  0  0
   47.3246   26.6669   35.0072 C   0  0  0  0  0  0  0  0  0  0  0  0
   46.0777   26.6227   34.3539 C   0  0  0  0  0  0  0  0  0  0  0  0
   48.6709   28.6934   37.8474 C   0  0  0  0  0  0  0  0  0  0  0  0
   47.5334   31.2802   39.2621 C   0  0  0  0  0  0  0  0  0  0  0  0
   47.5737   22.3068   28.6332 C   0  0  0  0  0  0  0  0  0  0  0  0
   46.4215   23.2712   26.7715 N   0  0  0  0  0  4  0  0  0  0  0  0
   49.0473   23.6049   25.5510 O   0  0  0  0  0  0  0  0  0  0  0  0
   48.1544   25.1397   33.3177 C   0  0  0  0  0  0  0  0  0  0  0  0
   46.9730   23.0681   29.6936 N   0  0  0  0  0  0  0  0  0  0  0  0
   48.2114   21.3029   24.3841 O   0  0  0  0  0  0  0  0  0  0  0  0
   46.5148   22.6308   25.4625 C   0  0  0  0  0  0  0  0  0  0  0  0
   45.6924   23.2921   29.8936 N   0  0  0  0  0  0  0  0  0  0  0  0
   47.4389   27.4483   36.1227 O   0  0  0  0  0  0  0  0  0  0  0  0
   47.7126   21.6798   25.6066 C   0  0  2  0  0  0  0  0  0  0  0  0
   45.4950   24.0390   30.9735 N   0  0  0  0  0  0  0  0  0  0  0  0
   47.9494   29.7943   37.4674 O   0  0  0  0  0  0  0  0  0  0  0  0
   48.6473   22.5786   26.3888 C   0  0  2  0  0  0  0  0  0  0  0  0
   45.9306   25.8650   33.2494 C   0  0  0  0  0  0  0  0  0  0  0  0
   46.9331   25.0990   32.6805 C   0  0  0  0  0  0  0  0  0  0  0  0
   46.7063   24.3046   31.4876 C   0  0  0  0  0  0  0  0  0  0  0  0
   47.6287   23.6899   30.6758 C   0  0  0  0  0  0  0  0  0  0  0  0
  1  5  2  0
 12  1  1  0
  2  7  1  0
 17  2  1  0
  3  8  1  0
 20  3  1  0
  4  9  1  1
  4 10  1  0
  4 21  1  0
  6  5  1  0
  5 17  1  0
 22  6  2  0
  7 20  1  0
 13  9  1  0
 10 15  1  0
 21 11  1  6
 23 12  2  0
 16 13  1  0
 13 25  1  0
 18 14  1  6
 18 15  1  0
 19 16  2  0
 21 18  1  0
 24 19  1  0
 23 22  1  0
 23 24  1  0
 24 25  2  0
M  CHG  1  10   1
M  END
$$$$
