
     RDKit          3D

 25 27  0  0  0  0  0  0  0  0999 V2000
   34.3784   -3.8264   56.3421 C   0  0  0  0  0  0  0  0  0  0  0  0
   33.5259   -4.2733   53.1014 C   0  0  0  0  0  0  0  0  0  0  0  0
   31.8873   -4.6934   50.1295 C   0  0  0  0  0  0  0  0  0  0  0  0
   38.1720   -1.2960   62.2226 C   0  0  2  0  0  0  0  0  0  0  0  0
   33.8998   -3.1114   55.2730 C   0  0  0  0  0  0  0  0  0  0  0  0
   34.1947   -1.7345   55.2417 C   0  0  0  0  0  0  0  0  0  0  0  0
   33.1581   -3.6440   51.7898 C   0  0  0  0  0  0  0  0  0  0  0  0
   31.4969   -3.4210   49.3478 C   0  0  0  0  0  0  0  0  0  0  0  0
   38.7163   -0.8913   60.8901 C   0  0  0  0  0  0  0  0  0  0  0  0
   37.5988   -0.1608   62.8753 N   0  0  0  0  0  4  0  0  0  0  0  0
   38.6106   -2.5932   64.1227 O   0  0  0  0  0  0  0  0  0  0  0  0
   35.1252   -3.2272   57.3611 C   0  0  0  0  0  0  0  0  0  0  0  0
   37.6398   -0.7712   59.9459 N   0  0  0  0  0  0  0  0  0  0  0  0
   40.4462   -0.7740   64.9476 O   0  0  0  0  0  0  0  0  0  0  0  0
   38.3812    0.1116   64.0778 C   0  0  0  0  0  0  0  0  0  0  0  0
   36.8685    0.2738   59.7384 N   0  0  0  0  0  0  0  0  0  0  0  0
   33.1626   -3.6346   54.2480 O   0  0  0  0  0  0  0  0  0  0  0  0
   39.7323   -0.5623   63.7940 C   0  0  2  0  0  0  0  0  0  0  0  0
   35.9738    0.0334   58.7873 N   0  0  0  0  0  0  0  0  0  0  0  0
   33.1061   -4.4910   50.7144 O   0  0  0  0  0  0  0  0  0  0  0  0
   39.2387   -1.8393   63.1467 C   0  0  2  0  0  0  0  0  0  0  0  0
   34.9168   -1.1849   56.2378 C   0  0  0  0  0  0  0  0  0  0  0  0
   35.4117   -1.8795   57.3278 C   0  0  0  0  0  0  0  0  0  0  0  0
   36.1835   -1.2243   58.3673 C   0  0  0  0  0  0  0  0  0  0  0  0
   37.2328   -1.7214   59.1018 C   0  0  0  0  0  0  0  0  0  0  0  0
  1  5  2  0
 12  1  1  0
  2  7  1  0
 17  2  1  0
  3  8  1  0
 20  3  1  0
  4  9  1  6
  4 10  1  0
  4 21  1  0
  6  5  1  0
  5 17  1  0
 22  6  2  0
  7 20  1  0
 13  9  1  0
 10 15  1  0
 21 11  1  1
 23 12  2  0
 16 13  1  0
 13 25  1  0
 18 14  1  1
 18 15  1  0
 19 16  2  0
 21 18  1  0
 24 19  1  0
 23 22  1  0
 23 24  1  0
 24 25  2  0
M  CHG  1  10   1
M  END
$$$$
