
     RDKit          3D

 25 27  0  0  0  0  0  0  0  0999 V2000
   36.0281   -1.7832   54.4108 C   0  0  0  0  0  0  0  0  0  0  0  0
   34.1808   -3.3560   52.4053 C   0  0  0  0  0  0  0  0  0  0  0  0
   31.1613   -1.6581   53.1273 C   0  0  0  0  0  0  0  0  0  0  0  0
   38.2980   -1.4718   62.1252 C   0  0  2  0  0  0  0  0  0  0  0  0
   35.6934   -3.1134   54.3697 C   0  0  0  0  0  0  0  0  0  0  0  0
   35.9530   -3.8736   55.5266 C   0  0  0  0  0  0  0  0  0  0  0  0
   32.7482   -3.3548   52.8517 C   0  0  0  0  0  0  0  0  0  0  0  0
   31.4838   -0.5296   52.1247 C   0  0  0  0  0  0  0  0  0  0  0  0
   39.2441   -1.3338   60.9757 C   0  0  0  0  0  0  0  0  0  0  0  0
   37.8029   -0.1845   62.5006 N   0  0  0  0  0  4  0  0  0  0  0  0
   37.9570   -2.5733   64.1638 O   0  0  0  0  0  0  0  0  0  0  0  0
   36.6024   -1.1971   55.5431 C   0  0  0  0  0  0  0  0  0  0  0  0
   38.5042   -1.0826   59.7697 N   0  0  0  0  0  0  0  0  0  0  0  0
   39.8235   -0.9921   65.3365 O   0  0  0  0  0  0  0  0  0  0  0  0
   38.2753    0.1047   63.8517 C   0  0  0  0  0  0  0  0  0  0  0  0
   38.0570    0.0735   59.3299 N   0  0  0  0  0  0  0  0  0  0  0  0
   35.1339   -3.7472   53.2959 O   0  0  0  0  0  0  0  0  0  0  0  0
   39.4964   -0.8130   64.0151 C   0  0  2  0  0  0  0  0  0  0  0  0
   37.4126   -0.0641   58.1772 N   0  0  0  0  0  0  0  0  0  0  0  0
   32.3336   -2.2370   53.5265 O   0  0  0  0  0  0  0  0  0  0  0  0
   38.9551   -2.0625   63.3525 C   0  0  2  0  0  0  0  0  0  0  0  0
   36.5069   -3.2814   56.6027 C   0  0  0  0  0  0  0  0  0  0  0  0
   36.8555   -1.9439   56.6734 C   0  0  0  0  0  0  0  0  0  0  0  0
   37.4500   -1.3694   57.8659 C   0  0  0  0  0  0  0  0  0  0  0  0
   38.1384   -2.0010   58.8733 C   0  0  0  0  0  0  0  0  0  0  0  0
  1  5  2  0
 12  1  1  0
  2  7  1  0
 17  2  1  0
  3  8  1  0
 20  3  1  0
  4  9  1  6
  4 10  1  0
  4 21  1  0
  6  5  1  0
  5 17  1  0
 22  6  2  0
  7 20  1  0
 13  9  1  0
 10 15  1  0
 21 11  1  1
 23 12  2  0
 16 13  1  0
 13 25  1  0
 18 14  1  1
 18 15  1  0
 19 16  2  0
 21 18  1  0
 24 19  1  0
 23 22  1  0
 23 24  1  0
 24 25  2  0
M  CHG  1  10   1
M  END
$$$$
