
     RDKit          3D

 25 27  0  0  0  0  0  0  0  0999 V2000
   45.0718   23.9931   34.6386 C   0  0  0  0  0  0  0  0  0  0  0  0
   44.8774   26.9390   36.8965 C   0  0  0  0  0  0  0  0  0  0  0  0
   43.4781   29.8742   37.4324 C   0  0  0  0  0  0  0  0  0  0  0  0
   47.1359   23.8127   26.6858 C   0  0  2  0  0  0  0  0  0  0  0  0
   45.3262   25.2535   35.1180 C   0  0  0  0  0  0  0  0  0  0  0  0
   45.9505   26.1581   34.2372 C   0  0  0  0  0  0  0  0  0  0  0  0
   43.6350   27.7097   36.5588 C   0  0  0  0  0  0  0  0  0  0  0  0
   43.3116   30.3065   35.9600 C   0  0  0  0  0  0  0  0  0  0  0  0
   47.7000   24.6170   27.8129 C   0  0  0  0  0  0  0  0  0  0  0  0
   46.6015   22.5857   27.1879 N   0  0  0  0  0  4  0  0  0  0  0  0
   47.5193   23.1360   24.4766 O   0  0  0  0  0  0  0  0  0  0  0  0
   45.4127   23.6111   33.3375 C   0  0  0  0  0  0  0  0  0  0  0  0
   47.1294   24.1730   29.0548 N   0  0  0  0  0  0  0  0  0  0  0  0
   49.4161   21.3961   25.3331 O   0  0  0  0  0  0  0  0  0  0  0  0
   47.3882   21.4889   26.6307 C   0  0  0  0  0  0  0  0  0  0  0  0
   46.6672   22.9754   29.3418 N   0  0  0  0  0  0  0  0  0  0  0  0
   45.0221   25.6884   36.3775 O   0  0  0  0  0  0  0  0  0  0  0  0
   48.7151   22.1555   26.2370 C   0  0  2  0  0  0  0  0  0  0  0  0
   46.2119   22.9185   30.5878 N   0  0  0  0  0  0  0  0  0  0  0  0
   43.1670   28.5472   37.5368 O   0  0  0  0  0  0  0  0  0  0  0  0
   48.1783   23.4457   25.6535 C   0  0  2  0  0  0  0  0  0  0  0  0
   46.2671   25.7616   32.9889 C   0  0  0  0  0  0  0  0  0  0  0  0
   46.0239   24.4985   32.4782 C   0  0  0  0  0  0  0  0  0  0  0  0
   46.3917   24.1369   31.1219 C   0  0  0  0  0  0  0  0  0  0  0  0
   46.9690   24.9181   30.1503 C   0  0  0  0  0  0  0  0  0  0  0  0
  1  5  2  0
 12  1  1  0
  2  7  1  0
 17  2  1  0
  3  8  1  0
 20  3  1  0
  4  9  1  1
  4 10  1  0
  4 21  1  0
  6  5  1  0
  5 17  1  0
 22  6  2  0
  7 20  1  0
 13  9  1  0
 10 15  1  0
 21 11  1  6
 23 12  2  0
 16 13  1  0
 13 25  1  0
 18 14  1  6
 18 15  1  0
 19 16  2  0
 21 18  1  0
 24 19  1  0
 23 22  1  0
 23 24  1  0
 24 25  2  0
M  CHG  1  10   1
M  END
$$$$
