
     RDKit          3D

 25 27  0  0  0  0  0  0  0  0999 V2000
   46.0437   25.3647   35.1084 C   0  0  0  0  0  0  0  0  0  0  0  0
   44.0772   27.1803   36.8791 C   0  0  0  0  0  0  0  0  0  0  0  0
   41.6151   28.1571   38.6228 C   0  0  0  0  0  0  0  0  0  0  0  0
   47.3392   23.3610   27.3704 C   0  0  2  0  0  0  0  0  0  0  0  0
   44.6903   25.5878   35.0643 C   0  0  0  0  0  0  0  0  0  0  0  0
   44.0337   25.2954   33.8531 C   0  0  0  0  0  0  0  0  0  0  0  0
   43.0381   28.2571   36.7686 C   0  0  0  0  0  0  0  0  0  0  0  0
   42.0267   26.8771   39.3808 C   0  0  0  0  0  0  0  0  0  0  0  0
   47.1952   22.4014   28.5079 C   0  0  0  0  0  0  0  0  0  0  0  0
   46.1105   24.0643   27.1731 N   0  0  0  0  0  4  0  0  0  0  0  0
   48.2219   23.6106   25.2153 O   0  0  0  0  0  0  0  0  0  0  0  0
   46.7506   24.8710   34.0076 C   0  0  0  0  0  0  0  0  0  0  0  0
   47.3053   23.1099   29.7532 N   0  0  0  0  0  0  0  0  0  0  0  0
   46.2327   22.0607   24.2153 O   0  0  0  0  0  0  0  0  0  0  0  0
   45.5862   23.6979   25.8604 C   0  0  0  0  0  0  0  0  0  0  0  0
   48.3932   23.6106   30.2971 N   0  0  0  0  0  0  0  0  0  0  0  0
   43.9422   26.0709   36.1011 O   0  0  0  0  0  0  0  0  0  0  0  0
   46.2715   22.3573   25.5554 C   0  0  2  0  0  0  0  0  0  0  0  0
   48.1266   24.2018   31.4557 N   0  0  0  0  0  0  0  0  0  0  0  0
   41.8058   27.9536   37.2846 O   0  0  0  0  0  0  0  0  0  0  0  0
   47.6628   22.6712   26.0640 C   0  0  2  0  0  0  0  0  0  0  0  0
   44.7412   24.8203   32.8094 C   0  0  0  0  0  0  0  0  0  0  0  0
   46.1052   24.5862   32.8237 C   0  0  0  0  0  0  0  0  0  0  0  0
   46.8063   24.0729   31.6616 C   0  0  0  0  0  0  0  0  0  0  0  0
   46.2992   23.3851   30.5858 C   0  0  0  0  0  0  0  0  0  0  0  0
  1  5  2  0
 12  1  1  0
  2  7  1  0
 17  2  1  0
  3  8  1  0
 20  3  1  0
  4  9  1  1
  4 10  1  0
  4 21  1  0
  6  5  1  0
  5 17  1  0
 22  6  2  0
  7 20  1  0
 13  9  1  0
 10 15  1  0
 21 11  1  6
 23 12  2  0
 16 13  1  0
 13 25  1  0
 18 14  1  6
 18 15  1  0
 19 16  2  0
 21 18  1  0
 24 19  1  0
 23 22  1  0
 23 24  1  0
 24 25  2  0
M  CHG  1  10   1
M  END
$$$$
