
     RDKit          3D

 25 27  0  0  0  0  0  0  0  0999 V2000
   47.3428   25.4033   34.7187 C   0  0  0  0  0  0  0  0  0  0  0  0
   46.8165   26.6665   37.4939 C   0  0  0  0  0  0  0  0  0  0  0  0
   47.4401   29.9152   38.5192 C   0  0  0  0  0  0  0  0  0  0  0  0
   47.6192   23.1752   27.1289 C   0  0  2  0  0  0  0  0  0  0  0  0
   46.4140   26.3558   35.0553 C   0  0  0  0  0  0  0  0  0  0  0  0
   45.4526   26.6836   34.0796 C   0  0  0  0  0  0  0  0  0  0  0  0
   47.7420   27.6184   38.1932 C   0  0  0  0  0  0  0  0  0  0  0  0
   48.5951   30.4282   39.4055 C   0  0  0  0  0  0  0  0  0  0  0  0
   47.5856   22.5002   28.4626 C   0  0  0  0  0  0  0  0  0  0  0  0
   46.6164   22.6147   26.2783 N   0  0  0  0  0  4  0  0  0  0  0  0
   49.0514   23.9966   25.4678 O   0  0  0  0  0  0  0  0  0  0  0  0
   47.3463   24.7798   33.4670 C   0  0  0  0  0  0  0  0  0  0  0  0
   46.8857   23.3291   29.4050 N   0  0  0  0  0  0  0  0  0  0  0  0
   49.5951   21.4600   24.6746 O   0  0  0  0  0  0  0  0  0  0  0  0
   47.2881   21.9551   25.1620 C   0  0  0  0  0  0  0  0  0  0  0  0
   45.7007   23.8816   29.2612 N   0  0  0  0  0  0  0  0  0  0  0  0
   46.3575   27.0041   36.2571 O   0  0  0  0  0  0  0  0  0  0  0  0
   48.7047   21.6903   25.6941 C   0  0  2  0  0  0  0  0  0  0  0  0
   45.3617   24.5852   30.3350 N   0  0  0  0  0  0  0  0  0  0  0  0
   47.1407   28.6337   38.8891 O   0  0  0  0  0  0  0  0  0  0  0  0
   48.9431   22.9980   26.4197 C   0  0  2  0  0  0  0  0  0  0  0  0
   45.4807   26.0659   32.8824 C   0  0  0  0  0  0  0  0  0  0  0  0
   46.4044   25.1032   32.5144 C   0  0  0  0  0  0  0  0  0  0  0  0
   46.3777   24.4770   31.2056 C   0  0  0  0  0  0  0  0  0  0  0  0
   47.3307   23.6855   30.6116 C   0  0  0  0  0  0  0  0  0  0  0  0
  1  5  2  0
 12  1  1  0
  2  7  1  0
 17  2  1  0
  3  8  1  0
 20  3  1  0
  4  9  1  1
  4 10  1  0
  4 21  1  0
  6  5  1  0
  5 17  1  0
 22  6  2  0
  7 20  1  0
 13  9  1  0
 10 15  1  0
 21 11  1  6
 23 12  2  0
 16 13  1  0
 13 25  1  0
 18 14  1  6
 18 15  1  0
 19 16  2  0
 21 18  1  0
 24 19  1  0
 23 22  1  0
 23 24  1  0
 24 25  2  0
M  CHG  1  10   1
M  END
$$$$
