
     RDKit          3D

 25 27  0  0  0  0  0  0  0  0999 V2000
   45.3086   26.4256   34.3695 C   0  0  0  0  0  0  0  0  0  0  0  0
   45.6878   28.4274   36.6657 C   0  0  0  0  0  0  0  0  0  0  0  0
   45.7437   29.6286   39.2020 C   0  0  0  0  0  0  0  0  0  0  0  0
   47.5879   23.2064   27.2825 C   0  0  2  0  0  0  0  0  0  0  0  0
   46.4579   27.0955   34.7066 C   0  0  0  0  0  0  0  0  0  0  0  0
   47.5721   26.9169   33.8636 C   0  0  0  0  0  0  0  0  0  0  0  0
   45.4281   27.6827   37.9423 C   0  0  0  0  0  0  0  0  0  0  0  0
   44.9785   29.9290   40.5085 C   0  0  0  0  0  0  0  0  0  0  0  0
   47.5891   22.5174   28.6094 C   0  0  0  0  0  0  0  0  0  0  0  0
   46.4381   22.8083   26.5324 N   0  0  0  0  0  4  0  0  0  0  0  0
   48.9535   23.8506   25.4921 O   0  0  0  0  0  0  0  0  0  0  0  0
   45.2342   25.5994   33.2438 C   0  0  0  0  0  0  0  0  0  0  0  0
   46.8280   23.2882   29.5536 N   0  0  0  0  0  0  0  0  0  0  0  0
   49.0534   21.2785   24.6357 O   0  0  0  0  0  0  0  0  0  0  0  0
   46.8980   22.0826   25.3517 C   0  0  0  0  0  0  0  0  0  0  0  0
   45.5239   23.4568   29.5845 N   0  0  0  0  0  0  0  0  0  0  0  0
   46.5976   27.9135   35.7925 O   0  0  0  0  0  0  0  0  0  0  0  0
   48.3080   21.6118   25.7395 C   0  0  2  0  0  0  0  0  0  0  0  0
   45.1606   24.2336   30.5983 N   0  0  0  0  0  0  0  0  0  0  0  0
   45.8960   28.2752   39.0855 O   0  0  0  0  0  0  0  0  0  0  0  0
   48.7982   22.8590   26.4448 C   0  0  2  0  0  0  0  0  0  0  0  0
   47.4704   26.1148   32.7857 C   0  0  0  0  0  0  0  0  0  0  0  0
   46.3263   25.4265   32.4212 C   0  0  0  0  0  0  0  0  0  0  0  0
   46.2854   24.5773   31.2453 C   0  0  0  0  0  0  0  0  0  0  0  0
   47.3279   23.9780   30.5808 C   0  0  0  0  0  0  0  0  0  0  0  0
  1  5  2  0
 12  1  1  0
  2  7  1  0
 17  2  1  0
  3  8  1  0
 20  3  1  0
  4  9  1  1
  4 10  1  0
  4 21  1  0
  6  5  1  0
  5 17  1  0
 22  6  2  0
  7 20  1  0
 13  9  1  0
 10 15  1  0
 21 11  1  6
 23 12  2  0
 16 13  1  0
 13 25  1  0
 18 14  1  6
 18 15  1  0
 19 16  2  0
 21 18  1  0
 24 19  1  0
 23 22  1  0
 23 24  1  0
 24 25  2  0
M  CHG  1  10   1
M  END
$$$$
