
     RDKit          3D

 25 27  0  0  0  0  0  0  0  0999 V2000
   46.1373   26.1350   34.6095 C   0  0  0  0  0  0  0  0  0  0  0  0
   45.2038   26.8246   37.4446 C   0  0  0  0  0  0  0  0  0  0  0  0
   46.9885   26.7522   39.9006 C   0  0  0  0  0  0  0  0  0  0  0  0
   47.0985   23.3042   27.0890 C   0  0  2  0  0  0  0  0  0  0  0  0
   44.8579   26.0579   35.0998 C   0  0  0  0  0  0  0  0  0  0  0  0
   43.8572   25.6242   34.2086 C   0  0  0  0  0  0  0  0  0  0  0  0
   45.0489   26.1155   38.7578 C   0  0  0  0  0  0  0  0  0  0  0  0
   46.8097   26.7713   41.4336 C   0  0  0  0  0  0  0  0  0  0  0  0
   47.7462   24.0235   28.2285 C   0  0  0  0  0  0  0  0  0  0  0  0
   46.6561   22.0152   27.5202 N   0  0  0  0  0  4  0  0  0  0  0  0
   47.2812   22.8506   24.7985 O   0  0  0  0  0  0  0  0  0  0  0  0
   46.4465   25.8023   33.2870 C   0  0  0  0  0  0  0  0  0  0  0  0
   46.7442   24.4265   29.1763 N   0  0  0  0  0  0  0  0  0  0  0  0
   49.3083   21.1184   25.2978 O   0  0  0  0  0  0  0  0  0  0  0  0
   47.4180   21.0077   26.7874 C   0  0  0  0  0  0  0  0  0  0  0  0
   45.4646   24.6319   28.9514 N   0  0  0  0  0  0  0  0  0  0  0  0
   44.4890   26.3711   36.3780 O   0  0  0  0  0  0  0  0  0  0  0  0
   48.6771   21.7618   26.3335 C   0  0  2  0  0  0  0  0  0  0  0  0
   44.8311   24.9965   30.0599 N   0  0  0  0  0  0  0  0  0  0  0  0
   46.2132   25.7528   39.3821 O   0  0  0  0  0  0  0  0  0  0  0  0
   48.0440   23.0771   25.9307 C   0  0  2  0  0  0  0  0  0  0  0  0
   44.1852   25.3101   32.9400 C   0  0  0  0  0  0  0  0  0  0  0  0
   45.4649   25.3787   32.4173 C   0  0  0  0  0  0  0  0  0  0  0  0
   45.7491   25.0253   31.0390 C   0  0  0  0  0  0  0  0  0  0  0  0
   46.9483   24.6655   30.4733 C   0  0  0  0  0  0  0  0  0  0  0  0
  1  5  2  0
 12  1  1  0
  2  7  1  0
 17  2  1  0
  3  8  1  0
 20  3  1  0
  4  9  1  1
  4 10  1  0
  4 21  1  0
  6  5  1  0
  5 17  1  0
 22  6  2  0
  7 20  1  0
 13  9  1  0
 10 15  1  0
 21 11  1  6
 23 12  2  0
 16 13  1  0
 13 25  1  0
 18 14  1  6
 18 15  1  0
 19 16  2  0
 21 18  1  0
 24 19  1  0
 23 22  1  0
 23 24  1  0
 24 25  2  0
M  CHG  1  10   1
M  END
$$$$
