
     RDKit          3D

 25 27  0  0  0  0  0  0  0  0999 V2000
   46.6571   26.8730   33.8052 C   0  0  0  0  0  0  0  0  0  0  0  0
   46.3892   27.7732   36.7290 C   0  0  0  0  0  0  0  0  0  0  0  0
   43.4480   27.4928   38.5316 C   0  0  0  0  0  0  0  0  0  0  0  0
   46.7309   23.1403   26.6746 C   0  0  2  0  0  0  0  0  0  0  0  0
   46.0289   26.2058   34.8267 C   0  0  0  0  0  0  0  0  0  0  0  0
   45.3456   25.0209   34.4907 C   0  0  0  0  0  0  0  0  0  0  0  0
   45.4724   28.3715   37.7552 C   0  0  0  0  0  0  0  0  0  0  0  0
   42.9439   28.6084   39.4718 C   0  0  0  0  0  0  0  0  0  0  0  0
   46.7862   24.4816   27.3329 C   0  0  0  0  0  0  0  0  0  0  0  0
   47.0425   22.1213   27.6274 N   0  0  0  0  0  4  0  0  0  0  0  0
   47.3054   21.9709   24.7283 O   0  0  0  0  0  0  0  0  0  0  0  0
   46.6270   26.4089   32.4865 C   0  0  0  0  0  0  0  0  0  0  0  0
   46.2601   24.3861   28.6667 N   0  0  0  0  0  0  0  0  0  0  0  0
   49.9074   21.9613   25.4956 O   0  0  0  0  0  0  0  0  0  0  0  0
   48.2863   21.4792   27.2116 C   0  0  0  0  0  0  0  0  0  0  0  0
   45.3275   23.5679   29.1037 N   0  0  0  0  0  0  0  0  0  0  0  0
   46.0171   26.6066   36.1332 O   0  0  0  0  0  0  0  0  0  0  0  0
   48.9501   22.5248   26.3027 C   0  0  2  0  0  0  0  0  0  0  0  0
   45.0873   23.7546   30.3962 N   0  0  0  0  0  0  0  0  0  0  0  0
   44.8146   27.4800   38.5611 O   0  0  0  0  0  0  0  0  0  0  0  0
   47.7287   23.0038   25.5464 C   0  0  2  0  0  0  0  0  0  0  0  0
   45.3342   24.5981   33.2113 C   0  0  0  0  0  0  0  0  0  0  0  0
   45.9572   25.2493   32.1610 C   0  0  0  0  0  0  0  0  0  0  0  0
   45.9049   24.7382   30.8040 C   0  0  0  0  0  0  0  0  0  0  0  0
   46.6379   25.1283   29.7094 C   0  0  0  0  0  0  0  0  0  0  0  0
  1  5  2  0
 12  1  1  0
  2  7  1  0
 17  2  1  0
  3  8  1  0
 20  3  1  0
  4  9  1  1
  4 10  1  0
  4 21  1  0
  6  5  1  0
  5 17  1  0
 22  6  2  0
  7 20  1  0
 13  9  1  0
 10 15  1  0
 21 11  1  6
 23 12  2  0
 16 13  1  0
 13 25  1  0
 18 14  1  6
 18 15  1  0
 19 16  2  0
 21 18  1  0
 24 19  1  0
 23 22  1  0
 23 24  1  0
 24 25  2  0
M  CHG  1  10   1
M  END
$$$$
