
     RDKit          3D

 25 27  0  0  0  0  0  0  0  0999 V2000
   36.6418   -2.8992   54.9575 C   0  0  0  0  0  0  0  0  0  0  0  0
   35.4520   -3.7040   52.2513 C   0  0  0  0  0  0  0  0  0  0  0  0
   33.2234   -6.6443   52.1737 C   0  0  0  0  0  0  0  0  0  0  0  0
   38.6912   -1.4726   62.2477 C   0  0  2  0  0  0  0  0  0  0  0  0
   35.3880   -2.6028   54.4848 C   0  0  0  0  0  0  0  0  0  0  0  0
   34.5574   -1.8290   55.3185 C   0  0  0  0  0  0  0  0  0  0  0  0
   34.7170   -4.9009   51.7234 C   0  0  0  0  0  0  0  0  0  0  0  0
   33.0166   -6.5230   50.6489 C   0  0  0  0  0  0  0  0  0  0  0  0
   38.9679   -0.6320   61.0427 C   0  0  0  0  0  0  0  0  0  0  0  0
   37.7386   -0.8155   63.0868 N   0  0  0  0  0  4  0  0  0  0  0  0
   39.6973   -2.8258   63.8732 O   0  0  0  0  0  0  0  0  0  0  0  0
   37.0863   -2.4602   56.2084 C   0  0  0  0  0  0  0  0  0  0  0  0
   37.8788   -0.7493   60.1125 N   0  0  0  0  0  0  0  0  0  0  0  0
   40.6794   -0.6200   65.1095 O   0  0  0  0  0  0  0  0  0  0  0  0
   38.3969   -0.4907   64.3492 C   0  0  0  0  0  0  0  0  0  0  0  0
   36.6418   -0.3308   60.2699 N   0  0  0  0  0  0  0  0  0  0  0  0
   34.8922   -3.0031   53.2758 O   0  0  0  0  0  0  0  0  0  0  0  0
   39.8911   -0.4937   63.9925 C   0  0  2  0  0  0  0  0  0  0  0  0
   35.8988   -0.6067   59.2046 N   0  0  0  0  0  0  0  0  0  0  0  0
   33.8927   -5.5367   52.6139 O   0  0  0  0  0  0  0  0  0  0  0  0
   39.9255   -1.7086   63.0890 C   0  0  2  0  0  0  0  0  0  0  0  0
   35.0133   -1.4199   56.5187 C   0  0  0  0  0  0  0  0  0  0  0  0
   36.2709   -1.7035   57.0220 C   0  0  0  0  0  0  0  0  0  0  0  0
   36.6986   -1.2308   58.3255 C   0  0  0  0  0  0  0  0  0  0  0  0
   37.9411   -1.3155   58.9057 C   0  0  0  0  0  0  0  0  0  0  0  0
  1  5  2  0
 12  1  1  0
  2  7  1  0
 17  2  1  0
  3  8  1  0
 20  3  1  0
  4  9  1  6
  4 10  1  0
  4 21  1  0
  6  5  1  0
  5 17  1  0
 22  6  2  0
  7 20  1  0
 13  9  1  0
 10 15  1  0
 21 11  1  1
 23 12  2  0
 16 13  1  0
 13 25  1  0
 18 14  1  1
 18 15  1  0
 19 16  2  0
 21 18  1  0
 24 19  1  0
 23 22  1  0
 23 24  1  0
 24 25  2  0
M  CHG  1  10   1
M  END
$$$$
