
     RDKit          3D

 30 32  0  0  0  0  0  0  0  0999 V2000
  -26.4027   47.1691    9.8636 C   0  0  0  0  0  0  0  0  0  0  0  0
  -27.4333   45.6420   11.6119 C   0  0  0  0  0  0  0  0  0  0  0  0
  -27.5958   44.2404   12.1033 C   0  0  0  0  0  0  0  0  0  0  0  0
  -28.9663   41.9326    8.0908 C   0  0  0  0  0  0  0  0  0  0  0  0
  -28.8134   40.4285   10.0199 C   0  0  0  0  0  0  0  0  0  0  0  0
  -26.3537   50.7874    7.5596 C   0  0  0  0  0  0  0  0  0  0  0  0
  -26.3392   49.5393    8.3270 C   0  0  0  0  0  0  0  0  0  0  0  0
  -25.4083   48.5486    8.1438 C   0  0  0  0  0  0  0  0  0  0  0  0
  -25.4405   47.3693    8.9089 C   0  0  0  0  0  0  0  0  0  0  0  0
  -26.4815   46.0115   10.6545 N   0  0  0  0  0  0  0  0  0  0  0  0
  -28.1823   46.5257   12.0776 O   0  0  0  0  0  0  0  0  0  0  0  0
  -27.5456   43.2943   10.9939 N   0  0  0  0  0  0  0  0  0  0  0  0
  -26.4024   42.6453   10.4544 C   0  0  0  0  0  0  0  0  0  0  0  0
  -25.2119   42.7884   10.8628 O   0  0  0  0  0  0  0  0  0  0  0  0
  -26.8915   41.8318    9.3926 N   0  0  0  0  0  0  0  0  0  0  0  0
  -28.3247   41.7229    9.4626 C   0  0  1  0  0  0  0  0  0  0  0  0
  -28.7091   42.8935   10.2856 C   0  0  0  0  0  0  0  0  0  0  0  0
  -29.8715   43.4118   10.3231 O   0  0  0  0  0  0  0  0  0  0  0  0
  -27.3510   48.1967   10.0387 C   0  0  0  0  0  0  0  0  0  0  0  0
  -27.3060   49.3371    9.2870 C   0  0  0  0  0  0  0  0  0  0  0  0
  -28.4921   50.5764    9.5345 S   0  0  2  0  0  6  0  0  0  0  0  0
  -27.8001   51.9006    9.6607 O   0  0  0  0  0  0  0  0  0  0  0  0
  -29.1875   50.3412   10.8675 O   0  0  0  0  0  0  0  0  0  0  0  0
  -29.6475   50.6757    8.3048 N   0  0  0  0  0  0  0  0  0  0  0  0
  -30.1311   51.9880    8.0615 C   0  0  0  0  0  0  0  0  0  0  0  0
  -31.3818   52.3513    8.8105 C   0  0  0  0  0  0  0  0  0  0  0  0
  -32.5567   51.5070    8.5150 C   0  0  0  0  0  0  0  0  0  0  0  0
  -32.5251   50.8074    7.1914 C   0  0  0  0  0  0  0  0  0  0  0  0
  -31.4981   49.7356    7.0737 C   0  0  0  0  0  0  0  0  0  0  0  0
  -30.6036   49.6258    8.2803 C   0  0  0  0  0  0  0  0  0  0  0  0
  1  9  2  0
 10  1  1  0
  1 19  1  0
  3  2  1  0
  2 10  1  0
  2 11  2  0
 12  3  1  0
 16  4  1  6
 16  5  1  0
  7  6  1  0
  8  7  2  0
  7 20  1  0
  9  8  1  0
 13 12  1  0
 12 17  1  0
 13 14  2  0
 15 13  1  0
 15 16  1  0
 16 17  1  0
 17 18  2  0
 19 20  2  0
 20 21  1  0
 21 22  2  0
 21 23  2  0
 21 24  1  6
 24 25  1  0
 24 30  1  0
 25 26  1  0
 26 27  1  0
 27 28  1  0
 28 29  1  0
 29 30  1  0
M  END
$$$$
