
     RDKit          3D

 30 32  0  0  0  0  0  0  0  0999 V2000
  -28.0141   48.0438    9.6784 C   0  0  0  0  0  0  0  0  0  0  0  0
  -26.4706   46.8480   11.3027 C   0  0  0  0  0  0  0  0  0  0  0  0
  -26.3181   45.6845   12.2275 C   0  0  0  0  0  0  0  0  0  0  0  0
  -29.7756   42.8221   10.4507 C   0  0  0  0  0  0  0  0  0  0  0  0
  -28.8115   41.9362   12.5227 C   0  0  0  0  0  0  0  0  0  0  0  0
  -28.7178   50.4355    6.1874 C   0  0  0  0  0  0  0  0  0  0  0  0
  -28.5149   49.6085    7.3797 C   0  0  0  0  0  0  0  0  0  0  0  0
  -29.5154   48.8872    7.9801 C   0  0  0  0  0  0  0  0  0  0  0  0
  -29.2655   48.1088    9.1240 C   0  0  0  0  0  0  0  0  0  0  0  0
  -27.7097   47.2836   10.8191 N   0  0  0  0  0  0  0  0  0  0  0  0
  -25.4436   47.4609   10.9442 O   0  0  0  0  0  0  0  0  0  0  0  0
  -26.9393   44.4909   11.6638 N   0  0  0  0  0  0  0  0  0  0  0  0
  -26.3062   43.4264   10.9673 C   0  0  0  0  0  0  0  0  0  0  0  0
  -25.0670   43.3418   10.7188 O   0  0  0  0  0  0  0  0  0  0  0  0
  -27.3497   42.5176   10.6302 N   0  0  0  0  0  0  0  0  0  0  0  0
  -28.5477   42.8347   11.3617 C   0  0  1  0  0  0  0  0  0  0  0  0
  -28.3352   44.2474   11.7549 C   0  0  0  0  0  0  0  0  0  0  0  0
  -29.2548   45.0568   12.1018 O   0  0  0  0  0  0  0  0  0  0  0  0
  -26.9982   48.7907    9.0492 C   0  0  0  0  0  0  0  0  0  0  0  0
  -27.2574   49.5425    7.9378 C   0  0  0  0  0  0  0  0  0  0  0  0
  -25.9787   50.4464    7.1948 S   0  0  2  0  0  6  0  0  0  0  0  0
  -25.5893   49.7807    5.9089 O   0  0  0  0  0  0  0  0  0  0  0  0
  -24.7454   50.3878    8.0842 O   0  0  0  0  0  0  0  0  0  0  0  0
  -26.3720   52.0600    6.8806 N   0  0  0  0  0  0  0  0  0  0  0  0
  -26.1763   52.9346    7.9815 C   0  0  0  0  0  0  0  0  0  0  0  0
  -27.3894   53.1533    8.8403 C   0  0  0  0  0  0  0  0  0  0  0  0
  -28.5485   53.7503    8.1471 C   0  0  0  0  0  0  0  0  0  0  0  0
  -28.2223   54.5324    6.9125 C   0  0  0  0  0  0  0  0  0  0  0  0
  -27.7268   53.7186    5.7681 C   0  0  0  0  0  0  0  0  0  0  0  0
  -27.5427   52.2617    6.1023 C   0  0  0  0  0  0  0  0  0  0  0  0
  1  9  2  0
 10  1  1  0
  1 19  1  0
  3  2  1  0
  2 10  1  0
  2 11  2  0
 12  3  1  0
 16  4  1  6
 16  5  1  0
  7  6  1  0
  8  7  2  0
  7 20  1  0
  9  8  1  0
 13 12  1  0
 12 17  1  0
 13 14  2  0
 15 13  1  0
 15 16  1  0
 16 17  1  0
 17 18  2  0
 19 20  2  0
 20 21  1  0
 21 22  2  0
 21 23  2  0
 21 24  1  6
 24 25  1  0
 24 30  1  0
 25 26  1  0
 26 27  1  0
 27 28  1  0
 28 29  1  0
 29 30  1  0
M  END
$$$$
