
     RDKit          3D

 30 32  0  0  0  0  0  0  0  0999 V2000
  -28.3629   47.1549    9.7272 C   0  0  0  0  0  0  0  0  0  0  0  0
  -27.7806   44.7143   10.1214 C   0  0  0  0  0  0  0  0  0  0  0  0
  -26.7138   43.6695   10.1706 C   0  0  0  0  0  0  0  0  0  0  0  0
  -22.8210   46.3194    9.1078 C   0  0  0  0  0  0  0  0  0  0  0  0
  -22.2854   43.9401    9.3519 C   0  0  0  0  0  0  0  0  0  0  0  0
  -31.1032   50.2802    8.6661 C   0  0  0  0  0  0  0  0  0  0  0  0
  -30.1476   49.2381    9.0505 C   0  0  0  0  0  0  0  0  0  0  0  0
  -29.0884   49.4560    9.8944 C   0  0  0  0  0  0  0  0  0  0  0  0
  -28.2005   48.4188   10.2307 C   0  0  0  0  0  0  0  0  0  0  0  0
  -27.5066   46.0838   10.0294 N   0  0  0  0  0  0  0  0  0  0  0  0
  -28.9735   44.3482   10.1643 O   0  0  0  0  0  0  0  0  0  0  0  0
  -25.3987   44.2804   10.3319 N   0  0  0  0  0  0  0  0  0  0  0  0
  -24.6915   44.5173   11.5414 C   0  0  0  0  0  0  0  0  0  0  0  0
  -25.1015   44.2273   12.7042 O   0  0  0  0  0  0  0  0  0  0  0  0
  -23.4666   45.1313   11.1526 N   0  0  0  0  0  0  0  0  0  0  0  0
  -23.2658   44.9974    9.7340 C   0  0  1  0  0  0  0  0  0  0  0  0
  -24.6328   44.7350    9.2261 C   0  0  0  0  0  0  0  0  0  0  0  0
  -25.0097   44.8983    8.0209 O   0  0  0  0  0  0  0  0  0  0  0  0
  -29.4559   46.9485    8.8620 C   0  0  0  0  0  0  0  0  0  0  0  0
  -30.3099   47.9672    8.5449 C   0  0  0  0  0  0  0  0  0  0  0  0
  -31.6419   47.6702    7.4765 S   0  0  2  0  0  6  0  0  0  0  0  0
  -31.3025   46.5205    6.5758 O   0  0  0  0  0  0  0  0  0  0  0  0
  -31.8264   48.8738    6.5638 O   0  0  0  0  0  0  0  0  0  0  0  0
  -33.0963   47.3353    8.2699 N   0  0  0  0  0  0  0  0  0  0  0  0
  -33.8829   46.3298    7.6492 C   0  0  0  0  0  0  0  0  0  0  0  0
  -34.9132   46.8388    6.6814 C   0  0  0  0  0  0  0  0  0  0  0  0
  -35.9286   47.7392    7.2633 C   0  0  0  0  0  0  0  0  0  0  0  0
  -36.1373   47.5990    8.7395 C   0  0  0  0  0  0  0  0  0  0  0  0
  -34.9934   48.0499    9.5794 C   0  0  0  0  0  0  0  0  0  0  0  0
  -33.7878   48.4666    8.7787 C   0  0  0  0  0  0  0  0  0  0  0  0
  1  9  2  0
 10  1  1  0
  1 19  1  0
  3  2  1  0
  2 10  1  0
  2 11  2  0
 12  3  1  0
 16  4  1  6
 16  5  1  0
  7  6  1  0
  8  7  2  0
  7 20  1  0
  9  8  1  0
 13 12  1  0
 12 17  1  0
 13 14  2  0
 15 13  1  0
 15 16  1  0
 16 17  1  0
 17 18  2  0
 19 20  2  0
 20 21  1  0
 21 22  2  0
 21 23  2  0
 21 24  1  1
 24 25  1  0
 24 30  1  0
 25 26  1  0
 26 27  1  0
 27 28  1  0
 28 29  1  0
 29 30  1  0
M  END
$$$$
