
     RDKit          3D

 30 32  0  0  0  0  0  0  0  0999 V2000
  -27.1282   48.4319    9.6701 C   0  0  0  0  0  0  0  0  0  0  0  0
  -26.5661   46.0113    9.1450 C   0  0  0  0  0  0  0  0  0  0  0  0
  -26.4312   44.6076    9.6385 C   0  0  0  0  0  0  0  0  0  0  0  0
  -28.9275   43.7985   13.6906 C   0  0  0  0  0  0  0  0  0  0  0  0
  -28.2924   46.1532   13.4465 C   0  0  0  0  0  0  0  0  0  0  0  0
  -27.1705   52.6054    8.6788 C   0  0  0  0  0  0  0  0  0  0  0  0
  -27.1767   51.1878    9.0493 C   0  0  0  0  0  0  0  0  0  0  0  0
  -27.7915   50.7022   10.1753 C   0  0  0  0  0  0  0  0  0  0  0  0
  -27.7670   49.3305   10.4836 C   0  0  0  0  0  0  0  0  0  0  0  0
  -27.0725   47.0532    9.9305 N   0  0  0  0  0  0  0  0  0  0  0  0
  -26.2101   46.2671    7.9759 O   0  0  0  0  0  0  0  0  0  0  0  0
  -26.7185   44.5318   11.0669 N   0  0  0  0  0  0  0  0  0  0  0  0
  -25.7894   44.4390   12.1380 C   0  0  0  0  0  0  0  0  0  0  0  0
  -24.5286   44.4072   12.0197 O   0  0  0  0  0  0  0  0  0  0  0  0
  -26.5775   44.3924   13.3233 N   0  0  0  0  0  0  0  0  0  0  0  0
  -27.9381   44.7635   13.0367 C   0  0  1  0  0  0  0  0  0  0  0  0
  -28.0442   44.5422   11.5755 C   0  0  0  0  0  0  0  0  0  0  0  0
  -29.1346   44.3941   10.9349 O   0  0  0  0  0  0  0  0  0  0  0  0
  -26.5019   48.9476    8.5178 C   0  0  0  0  0  0  0  0  0  0  0  0
  -26.5348   50.2837    8.2323 C   0  0  0  0  0  0  0  0  0  0  0  0
  -25.7513   50.8763    6.8043 S   0  0  2  0  0  6  0  0  0  0  0  0
  -25.0751   49.7350    6.1053 O   0  0  0  0  0  0  0  0  0  0  0  0
  -24.6402   51.8349    7.2072 O   0  0  0  0  0  0  0  0  0  0  0  0
  -26.7939   51.6450    5.7185 N   0  0  0  0  0  0  0  0  0  0  0  0
  -27.7983   52.4374    6.3337 C   0  0  0  0  0  0  0  0  0  0  0  0
  -29.1035   51.7328    6.5724 C   0  0  0  0  0  0  0  0  0  0  0  0
  -29.7768   51.2324    5.3571 C   0  0  0  0  0  0  0  0  0  0  0  0
  -29.3997   51.9266    4.0850 C   0  0  0  0  0  0  0  0  0  0  0  0
  -28.0026   51.6850    3.6300 C   0  0  0  0  0  0  0  0  0  0  0  0
  -27.1887   50.8670    4.5978 C   0  0  0  0  0  0  0  0  0  0  0  0
  1  9  2  0
 10  1  1  0
  1 19  1  0
  3  2  1  0
  2 10  1  0
  2 11  2  0
 12  3  1  0
 16  4  1  1
 16  5  1  0
  7  6  1  0
  8  7  2  0
  7 20  1  0
  9  8  1  0
 13 12  1  0
 12 17  1  0
 13 14  2  0
 15 13  1  0
 15 16  1  0
 16 17  1  0
 17 18  2  0
 19 20  2  0
 20 21  1  0
 21 22  2  0
 21 23  2  0
 21 24  1  6
 24 25  1  0
 24 30  1  0
 25 26  1  0
 26 27  1  0
 27 28  1  0
 28 29  1  0
 29 30  1  0
M  END
$$$$
