
     RDKit          3D

 30 32  0  0  0  0  0  0  0  0999 V2000
  -28.7896   46.7894    9.6807 C   0  0  0  0  0  0  0  0  0  0  0  0
  -27.8601   45.5407   11.6876 C   0  0  0  0  0  0  0  0  0  0  0  0
  -26.6633   45.1258   12.4799 C   0  0  0  0  0  0  0  0  0  0  0  0
  -22.6546   46.9497   10.5029 C   0  0  0  0  0  0  0  0  0  0  0  0
  -24.3516   46.4012    8.8216 C   0  0  0  0  0  0  0  0  0  0  0  0
  -32.0552   48.3403    7.3713 C   0  0  0  0  0  0  0  0  0  0  0  0
  -30.9151   47.8290    8.1366 C   0  0  0  0  0  0  0  0  0  0  0  0
  -29.6088   48.1166    7.8322 C   0  0  0  0  0  0  0  0  0  0  0  0
  -28.5515   47.5989    8.6011 C   0  0  0  0  0  0  0  0  0  0  0  0
  -27.7725   46.2455   10.4815 N   0  0  0  0  0  0  0  0  0  0  0  0
  -28.9925   45.2443   12.1222 O   0  0  0  0  0  0  0  0  0  0  0  0
  -25.4559   45.1870   11.6633 N   0  0  0  0  0  0  0  0  0  0  0  0
  -24.6822   44.1016   11.1708 C   0  0  0  0  0  0  0  0  0  0  0  0
  -24.9249   42.8741   11.3674 O   0  0  0  0  0  0  0  0  0  0  0  0
  -23.6164   44.6957   10.4363 N   0  0  0  0  0  0  0  0  0  0  0  0
  -23.8833   46.0905   10.2032 C   0  0  1  0  0  0  0  0  0  0  0  0
  -24.8846   46.4178   11.2451 C   0  0  0  0  0  0  0  0  0  0  0  0
  -25.1530   47.5915   11.6593 O   0  0  0  0  0  0  0  0  0  0  0  0
  -30.1370   46.5042    9.9793 C   0  0  0  0  0  0  0  0  0  0  0  0
  -31.1533   47.0153    9.2220 C   0  0  0  0  0  0  0  0  0  0  0  0
  -32.7968   46.6392    9.6239 S   0  0  2  0  0  6  0  0  0  0  0  0
  -33.6198   47.8904    9.5479 O   0  0  0  0  0  0  0  0  0  0  0  0
  -32.8634   46.1845   11.0745 O   0  0  0  0  0  0  0  0  0  0  0  0
  -33.4940   45.4625    8.6308 N   0  0  0  0  0  0  0  0  0  0  0  0
  -32.8228   44.2117    8.6466 C   0  0  0  0  0  0  0  0  0  0  0  0
  -31.7905   44.0330    7.5697 C   0  0  0  0  0  0  0  0  0  0  0  0
  -32.3059   44.1131    6.1882 C   0  0  0  0  0  0  0  0  0  0  0  0
  -33.7654   43.8167    6.0317 C   0  0  0  0  0  0  0  0  0  0  0  0
  -34.6780   44.8331    6.6242 C   0  0  0  0  0  0  0  0  0  0  0  0
  -33.9575   45.9249    7.3705 C   0  0  0  0  0  0  0  0  0  0  0  0
  1  9  2  0
 10  1  1  0
  1 19  1  0
  3  2  1  0
  2 10  1  0
  2 11  2  0
 12  3  1  0
 16  4  1  1
 16  5  1  0
  7  6  1  0
  8  7  2  0
  7 20  1  0
  9  8  1  0
 13 12  1  0
 12 17  1  0
 13 14  2  0
 15 13  1  0
 15 16  1  0
 16 17  1  0
 17 18  2  0
 19 20  2  0
 20 21  1  0
 21 22  2  0
 21 23  2  0
 21 24  1  6
 24 25  1  0
 24 30  1  0
 25 26  1  0
 26 27  1  0
 27 28  1  0
 28 29  1  0
 29 30  1  0
M  END
$$$$
