
     RDKit          3D

 30 32  0  0  0  0  0  0  0  0999 V2000
  -27.6470   47.4748    8.6863 C   0  0  0  0  0  0  0  0  0  0  0  0
  -25.8872   46.9003   10.4253 C   0  0  0  0  0  0  0  0  0  0  0  0
  -25.5215   46.1404   11.6586 C   0  0  0  0  0  0  0  0  0  0  0  0
  -29.7479   43.9351   12.4194 C   0  0  0  0  0  0  0  0  0  0  0  0
  -28.2041   43.6572   14.3027 C   0  0  0  0  0  0  0  0  0  0  0  0
  -29.3680   49.3818    5.2506 C   0  0  0  0  0  0  0  0  0  0  0  0
  -28.7538   48.7589    6.4260 C   0  0  0  0  0  0  0  0  0  0  0  0
  -27.6695   49.2843    7.0818 C   0  0  0  0  0  0  0  0  0  0  0  0
  -27.1192   48.6447    8.2066 C   0  0  0  0  0  0  0  0  0  0  0  0
  -27.1370   46.7948    9.8040 N   0  0  0  0  0  0  0  0  0  0  0  0
  -25.0373   47.6661    9.9252 O   0  0  0  0  0  0  0  0  0  0  0  0
  -26.4653   45.0533   11.8951 N   0  0  0  0  0  0  0  0  0  0  0  0
  -26.2923   43.6724   11.6081 C   0  0  0  0  0  0  0  0  0  0  0  0
  -25.2621   43.1510   11.0873 O   0  0  0  0  0  0  0  0  0  0  0  0
  -27.4989   43.0421   12.0266 N   0  0  0  0  0  0  0  0  0  0  0  0
  -28.2779   43.9381   12.8397 C   0  0  1  0  0  0  0  0  0  0  0  0
  -27.7431   45.2710   12.4748 C   0  0  0  0  0  0  0  0  0  0  0  0
  -28.3450   46.3773   12.6616 O   0  0  0  0  0  0  0  0  0  0  0  0
  -28.7604   46.9490    8.0010 C   0  0  0  0  0  0  0  0  0  0  0  0
  -29.2835   47.5829    6.9092 C   0  0  0  0  0  0  0  0  0  0  0  0
  -30.6539   46.9018    6.0953 S   0  0  2  0  0  6  0  0  0  0  0  0
  -30.3818   45.4570    5.8000 O   0  0  0  0  0  0  0  0  0  0  0  0
  -30.8175   47.5796    4.7428 O   0  0  0  0  0  0  0  0  0  0  0  0
  -32.0981   47.0218    6.9653 N   0  0  0  0  0  0  0  0  0  0  0  0
  -33.2292   46.4828    6.2981 C   0  0  0  0  0  0  0  0  0  0  0  0
  -34.0205   47.4732    5.4917 C   0  0  0  0  0  0  0  0  0  0  0  0
  -34.5958   48.5927    6.2638 C   0  0  0  0  0  0  0  0  0  0  0  0
  -34.7912   48.3284    7.7248 C   0  0  0  0  0  0  0  0  0  0  0  0
  -33.5337   48.1942    8.5108 C   0  0  0  0  0  0  0  0  0  0  0  0
  -32.2886   48.2429    7.6650 C   0  0  0  0  0  0  0  0  0  0  0  0
  1  9  2  0
 10  1  1  0
  1 19  1  0
  3  2  1  0
  2 10  1  0
  2 11  2  0
 12  3  1  0
 16  4  1  6
 16  5  1  0
  7  6  1  0
  8  7  2  0
  7 20  1  0
  9  8  1  0
 13 12  1  0
 12 17  1  0
 13 14  2  0
 15 13  1  0
 15 16  1  0
 16 17  1  0
 17 18  2  0
 19 20  2  0
 20 21  1  0
 21 22  2  0
 21 23  2  0
 21 24  1  1
 24 25  1  0
 24 30  1  0
 25 26  1  0
 26 27  1  0
 27 28  1  0
 28 29  1  0
 29 30  1  0
M  END
$$$$
