
     RDKit          3D

 30 32  0  0  0  0  0  0  0  0999 V2000
  -26.8004   45.9512   10.7498 C   0  0  0  0  0  0  0  0  0  0  0  0
  -28.5120   44.6791   12.1293 C   0  0  0  0  0  0  0  0  0  0  0  0
  -28.7957   43.5729   13.0927 C   0  0  0  0  0  0  0  0  0  0  0  0
  -29.6372   45.6249   17.3806 C   0  0  0  0  0  0  0  0  0  0  0  0
  -30.3157   43.2702   17.3297 C   0  0  0  0  0  0  0  0  0  0  0  0
  -25.7359   48.9106    7.8323 C   0  0  0  0  0  0  0  0  0  0  0  0
  -26.0635   47.8855    8.8267 C   0  0  0  0  0  0  0  0  0  0  0  0
  -25.1664   46.9478    9.2713 C   0  0  0  0  0  0  0  0  0  0  0  0
  -25.5338   45.9855   10.2283 C   0  0  0  0  0  0  0  0  0  0  0  0
  -27.2202   45.0127   11.7062 N   0  0  0  0  0  0  0  0  0  0  0  0
  -29.4733   45.3373   11.6802 O   0  0  0  0  0  0  0  0  0  0  0  0
  -29.5501   44.0668   14.2397 N   0  0  0  0  0  0  0  0  0  0  0  0
  -30.9266   44.4155   14.2914 C   0  0  0  0  0  0  0  0  0  0  0  0
  -31.7406   44.3505   13.3230 O   0  0  0  0  0  0  0  0  0  0  0  0
  -31.1630   44.8367   15.6312 N   0  0  0  0  0  0  0  0  0  0  0  0
  -30.0587   44.4663   16.4764 C   0  0  1  0  0  0  0  0  0  0  0  0
  -28.9518   44.2668   15.5118 C   0  0  0  0  0  0  0  0  0  0  0  0
  -27.7132   44.2792   15.8063 O   0  0  0  0  0  0  0  0  0  0  0  0
  -27.7092   46.9215   10.2822 C   0  0  0  0  0  0  0  0  0  0  0  0
  -27.3364   47.8501    9.3515 C   0  0  0  0  0  0  0  0  0  0  0  0
  -28.4857   49.0260    8.8033 S   0  0  2  0  0  6  0  0  0  0  0  0
  -27.8606   50.3878    8.8602 O   0  0  0  0  0  0  0  0  0  0  0  0
  -29.6586   49.0655    9.7721 O   0  0  0  0  0  0  0  0  0  0  0  0
  -29.0566   48.7489    7.2367 N   0  0  0  0  0  0  0  0  0  0  0  0
  -30.0477   49.6686    6.8044 C   0  0  0  0  0  0  0  0  0  0  0  0
  -31.4651   49.2302    7.0408 C   0  0  0  0  0  0  0  0  0  0  0  0
  -31.8562   47.9798    6.3596 C   0  0  0  0  0  0  0  0  0  0  0  0
  -31.0414   47.6264    5.1539 C   0  0  0  0  0  0  0  0  0  0  0  0
  -29.6317   47.2424    5.4411 C   0  0  0  0  0  0  0  0  0  0  0  0
  -29.2539   47.3854    6.8920 C   0  0  0  0  0  0  0  0  0  0  0  0
  1  9  2  0
 10  1  1  0
  1 19  1  0
  3  2  1  0
  2 10  1  0
  2 11  2  0
 12  3  1  0
 16  4  1  1
 16  5  1  0
  7  6  1  0
  8  7  2  0
  7 20  1  0
  9  8  1  0
 13 12  1  0
 12 17  1  0
 13 14  2  0
 15 13  1  0
 15 16  1  0
 16 17  1  0
 17 18  2  0
 19 20  2  0
 20 21  1  0
 21 22  2  0
 21 23  2  0
 21 24  1  6
 24 25  1  0
 24 30  1  0
 25 26  1  0
 26 27  1  0
 27 28  1  0
 28 29  1  0
 29 30  1  0
M  END
$$$$
