
     RDKit          3D

 30 32  0  0  0  0  0  0  0  0999 V2000
  -29.2332   46.7355   11.8330 C   0  0  0  0  0  0  0  0  0  0  0  0
  -27.4181   44.9759   11.5883 C   0  0  0  0  0  0  0  0  0  0  0  0
  -26.3877   44.3580   10.7001 C   0  0  0  0  0  0  0  0  0  0  0  0
  -24.1093   48.3400    9.1975 C   0  0  0  0  0  0  0  0  0  0  0  0
  -23.2999   46.3238    8.0629 C   0  0  0  0  0  0  0  0  0  0  0  0
  -32.8360   48.2297   13.6189 C   0  0  0  0  0  0  0  0  0  0  0  0
  -31.6017   47.7528   12.9897 C   0  0  0  0  0  0  0  0  0  0  0  0
  -30.8637   48.5006   12.1077 C   0  0  0  0  0  0  0  0  0  0  0  0
  -29.6851   47.9936   11.5324 C   0  0  0  0  0  0  0  0  0  0  0  0
  -28.0645   46.1803   11.2874 N   0  0  0  0  0  0  0  0  0  0  0  0
  -27.7167   44.3897   12.6494 O   0  0  0  0  0  0  0  0  0  0  0  0
  -25.2893   45.2872   10.4581 N   0  0  0  0  0  0  0  0  0  0  0  0
  -24.0407   45.3538   11.1332 C   0  0  0  0  0  0  0  0  0  0  0  0
  -23.6723   44.5955   12.0785 O   0  0  0  0  0  0  0  0  0  0  0  0
  -23.3336   46.4281   10.5215 N   0  0  0  0  0  0  0  0  0  0  0  0
  -23.9775   46.8199    9.2956 C   0  0  1  0  0  0  0  0  0  0  0  0
  -25.3526   46.2921    9.4569 C   0  0  0  0  0  0  0  0  0  0  0  0
  -26.3706   46.6899    8.8037 O   0  0  0  0  0  0  0  0  0  0  0  0
  -30.0032   45.9811   12.7407 C   0  0  0  0  0  0  0  0  0  0  0  0
  -31.1466   46.4883   13.2912 C   0  0  0  0  0  0  0  0  0  0  0  0
  -32.0642   45.5266   14.4034 S   0  0  2  0  0  6  0  0  0  0  0  0
  -32.3922   46.3516   15.6119 O   0  0  0  0  0  0  0  0  0  0  0  0
  -31.1971   44.3808   14.9043 O   0  0  0  0  0  0  0  0  0  0  0  0
  -33.4976   44.9083   13.7553 N   0  0  0  0  0  0  0  0  0  0  0  0
  -33.6280   43.4989   13.8634 C   0  0  0  0  0  0  0  0  0  0  0  0
  -33.1451   42.7246   12.6698 C   0  0  0  0  0  0  0  0  0  0  0  0
  -33.8440   43.0242   11.4040 C   0  0  0  0  0  0  0  0  0  0  0  0
  -35.2198   43.5966   11.5528 C   0  0  0  0  0  0  0  0  0  0  0  0
  -35.2675   44.9742   12.1160 C   0  0  0  0  0  0  0  0  0  0  0  0
  -33.9194   45.4990   12.5346 C   0  0  0  0  0  0  0  0  0  0  0  0
  1  9  2  0
 10  1  1  0
  1 19  1  0
  3  2  1  0
  2 10  1  0
  2 11  2  0
 12  3  1  0
 16  4  1  6
 16  5  1  0
  7  6  1  0
  8  7  2  0
  7 20  1  0
  9  8  1  0
 13 12  1  0
 12 17  1  0
 13 14  2  0
 15 13  1  0
 15 16  1  0
 16 17  1  0
 17 18  2  0
 19 20  2  0
 20 21  1  0
 21 22  2  0
 21 23  2  0
 21 24  1  6
 24 25  1  0
 24 30  1  0
 25 26  1  0
 26 27  1  0
 27 28  1  0
 28 29  1  0
 29 30  1  0
M  END
$$$$
