
     RDKit          3D

 30 32  0  0  0  0  0  0  0  0999 V2000
  -25.7109   47.3617    9.5366 C   0  0  0  0  0  0  0  0  0  0  0  0
  -26.8546   46.4757   11.6241 C   0  0  0  0  0  0  0  0  0  0  0  0
  -27.1431   45.3082   12.5106 C   0  0  0  0  0  0  0  0  0  0  0  0
  -29.5986   42.5841    9.3714 C   0  0  0  0  0  0  0  0  0  0  0  0
  -29.6837   41.6811   11.6484 C   0  0  0  0  0  0  0  0  0  0  0  0
  -25.0909   50.3822    6.5542 C   0  0  0  0  0  0  0  0  0  0  0  0
  -25.2709   49.3321    7.5600 C   0  0  0  0  0  0  0  0  0  0  0  0
  -24.4254   48.2605    7.6956 C   0  0  0  0  0  0  0  0  0  0  0  0
  -24.6450   47.2802    8.6795 C   0  0  0  0  0  0  0  0  0  0  0  0
  -25.9771   46.4115   10.5356 N   0  0  0  0  0  0  0  0  0  0  0  0
  -27.4236   47.5605   11.8660 O   0  0  0  0  0  0  0  0  0  0  0  0
  -27.5085   44.1371   11.7209 N   0  0  0  0  0  0  0  0  0  0  0  0
  -26.6840   43.0364   11.3636 C   0  0  0  0  0  0  0  0  0  0  0  0
  -25.4669   42.8924   11.6834 O   0  0  0  0  0  0  0  0  0  0  0  0
  -27.5145   42.1719   10.5946 N   0  0  0  0  0  0  0  0  0  0  0  0
  -28.8959   42.5521   10.7289 C   0  0  1  0  0  0  0  0  0  0  0  0
  -28.8124   43.9585   11.1879 C   0  0  0  0  0  0  0  0  0  0  0  0
  -29.7524   44.8131   11.1031 O   0  0  0  0  0  0  0  0  0  0  0  0
  -26.5693   48.4688    9.3835 C   0  0  0  0  0  0  0  0  0  0  0  0
  -26.3421   49.4130    8.4221 C   0  0  0  0  0  0  0  0  0  0  0  0
  -27.4229   50.7591    8.2679 S   0  0  2  0  0  6  0  0  0  0  0  0
  -26.6289   51.9948    7.9660 O   0  0  0  0  0  0  0  0  0  0  0  0
  -28.0958   51.0139    9.6088 O   0  0  0  0  0  0  0  0  0  0  0  0
  -28.6021   50.5589    7.0736 N   0  0  0  0  0  0  0  0  0  0  0  0
  -28.6801   51.6286    6.1437 C   0  0  0  0  0  0  0  0  0  0  0  0
  -29.6828   52.6939    6.4861 C   0  0  0  0  0  0  0  0  0  0  0  0
  -31.0824   52.2316    6.5749 C   0  0  0  0  0  0  0  0  0  0  0  0
  -31.3915   50.9781    5.8162 C   0  0  0  0  0  0  0  0  0  0  0  0
  -30.7591   49.7447    6.3601 C   0  0  0  0  0  0  0  0  0  0  0  0
  -29.8322   50.0054    7.5181 C   0  0  0  0  0  0  0  0  0  0  0  0
  1  9  2  0
 10  1  1  0
  1 19  1  0
  3  2  1  0
  2 10  1  0
  2 11  2  0
 12  3  1  0
 16  4  1  6
 16  5  1  0
  7  6  1  0
  8  7  2  0
  7 20  1  0
  9  8  1  0
 13 12  1  0
 12 17  1  0
 13 14  2  0
 15 13  1  0
 15 16  1  0
 16 17  1  0
 17 18  2  0
 19 20  2  0
 20 21  1  0
 21 22  2  0
 21 23  2  0
 21 24  1  6
 24 25  1  0
 24 30  1  0
 25 26  1  0
 26 27  1  0
 27 28  1  0
 28 29  1  0
 29 30  1  0
M  END
$$$$
