
     RDKit          3D

 30 32  0  0  0  0  0  0  0  0999 V2000
  -28.8851   45.5403   12.1546 C   0  0  0  0  0  0  0  0  0  0  0  0
  -27.5945   44.4356   10.2666 C   0  0  0  0  0  0  0  0  0  0  0  0
  -26.3268   43.7913    9.8081 C   0  0  0  0  0  0  0  0  0  0  0  0
  -23.3978   47.6164   10.1148 C   0  0  0  0  0  0  0  0  0  0  0  0
  -22.3224   45.7104    9.0110 C   0  0  0  0  0  0  0  0  0  0  0  0
  -32.1773   47.8557   13.6387 C   0  0  0  0  0  0  0  0  0  0  0  0
  -31.0432   47.0562   13.1684 C   0  0  0  0  0  0  0  0  0  0  0  0
  -30.1846   46.3927   14.0077 C   0  0  0  0  0  0  0  0  0  0  0  0
  -29.1109   45.6385   13.5025 C   0  0  0  0  0  0  0  0  0  0  0  0
  -27.8288   44.8021   11.5969 N   0  0  0  0  0  0  0  0  0  0  0  0
  -28.4873   44.6577    9.4225 O   0  0  0  0  0  0  0  0  0  0  0  0
  -25.1702   44.5911   10.1968 N   0  0  0  0  0  0  0  0  0  0  0  0
  -24.3004   44.3843   11.3013 C   0  0  0  0  0  0  0  0  0  0  0  0
  -24.3931   43.4462   12.1473 O   0  0  0  0  0  0  0  0  0  0  0  0
  -23.3423   45.4360   11.2339 N   0  0  0  0  0  0  0  0  0  0  0  0
  -23.4096   46.0957    9.9567 C   0  0  1  0  0  0  0  0  0  0  0  0
  -24.7616   45.7383    9.4668 C   0  0  0  0  0  0  0  0  0  0  0  0
  -25.4016   46.3653    8.5621 O   0  0  0  0  0  0  0  0  0  0  0  0
  -29.7764   46.2280   11.3068 C   0  0  0  0  0  0  0  0  0  0  0  0
  -30.8153   46.9569   11.8137 C   0  0  0  0  0  0  0  0  0  0  0  0
  -31.8882   47.7877   10.7354 S   0  0  2  0  0  6  0  0  0  0  0  0
  -31.1310   48.1971    9.5076 O   0  0  0  0  0  0  0  0  0  0  0  0
  -32.3498   49.0812   11.3907 O   0  0  0  0  0  0  0  0  0  0  0  0
  -33.2352   46.8778   10.2718 N   0  0  0  0  0  0  0  0  0  0  0  0
  -33.7224   47.1752    8.9721 C   0  0  0  0  0  0  0  0  0  0  0  0
  -34.8169   48.2034    8.9257 C   0  0  0  0  0  0  0  0  0  0  0  0
  -36.0445   47.8456    9.6640 C   0  0  0  0  0  0  0  0  0  0  0  0
  -36.2574   46.3789    9.8787 C   0  0  0  0  0  0  0  0  0  0  0  0
  -35.2915   45.7356   10.8116 C   0  0  0  0  0  0  0  0  0  0  0  0
  -34.2056   46.6648   11.2866 C   0  0  0  0  0  0  0  0  0  0  0  0
  1  9  2  0
 10  1  1  0
  1 19  1  0
  3  2  1  0
  2 10  1  0
  2 11  2  0
 12  3  1  0
 16  4  1  1
 16  5  1  0
  7  6  1  0
  8  7  2  0
  7 20  1  0
  9  8  1  0
 13 12  1  0
 12 17  1  0
 13 14  2  0
 15 13  1  0
 15 16  1  0
 16 17  1  0
 17 18  2  0
 19 20  2  0
 20 21  1  0
 21 22  2  0
 21 23  2  0
 21 24  1  6
 24 25  1  0
 24 30  1  0
 25 26  1  0
 26 27  1  0
 27 28  1  0
 28 29  1  0
 29 30  1  0
M  END
$$$$
