
     RDKit          3D

 30 32  0  0  0  0  0  0  0  0999 V2000
  -29.6786   44.0258    8.8385 C   0  0  0  0  0  0  0  0  0  0  0  0
  -28.5950   45.2680   10.7707 C   0  0  0  0  0  0  0  0  0  0  0  0
  -27.4094   45.4394   11.6636 C   0  0  0  0  0  0  0  0  0  0  0  0
  -23.2611   44.8635    9.2626 C   0  0  0  0  0  0  0  0  0  0  0  0
  -23.0009   46.2963   11.2340 C   0  0  0  0  0  0  0  0  0  0  0  0
  -32.8244   43.4981    5.9700 C   0  0  0  0  0  0  0  0  0  0  0  0
  -31.7353   43.6440    6.9391 C   0  0  0  0  0  0  0  0  0  0  0  0
  -30.7487   42.7074    7.1162 C   0  0  0  0  0  0  0  0  0  0  0  0
  -29.7255   42.8980    8.0616 C   0  0  0  0  0  0  0  0  0  0  0  0
  -28.6809   44.2663    9.7969 N   0  0  0  0  0  0  0  0  0  0  0  0
  -29.5549   46.0560   10.8995 O   0  0  0  0  0  0  0  0  0  0  0  0
  -26.2256   45.7953   10.8887 N   0  0  0  0  0  0  0  0  0  0  0  0
  -26.0279   46.9475   10.0811 C   0  0  0  0  0  0  0  0  0  0  0  0
  -26.8713   47.8752    9.9009 O   0  0  0  0  0  0  0  0  0  0  0  0
  -24.7144   46.8172    9.5461 N   0  0  0  0  0  0  0  0  0  0  0  0
  -23.9894   45.7861   10.2404 C   0  0  1  0  0  0  0  0  0  0  0  0
  -25.0669   44.9752   10.8543 C   0  0  0  0  0  0  0  0  0  0  0  0
  -24.9389   43.7754   11.2607 O   0  0  0  0  0  0  0  0  0  0  0  0
  -30.6995   44.9775    8.6437 C   0  0  0  0  0  0  0  0  0  0  0  0
  -31.6871   44.7772    7.7205 C   0  0  0  0  0  0  0  0  0  0  0  0
  -32.9241   45.9733    7.5129 S   0  0  2  0  0  6  0  0  0  0  0  0
  -32.5730   46.8457    6.3449 O   0  0  0  0  0  0  0  0  0  0  0  0
  -32.9395   46.8900    8.7275 O   0  0  0  0  0  0  0  0  0  0  0  0
  -34.4681   45.3290    7.2724 N   0  0  0  0  0  0  0  0  0  0  0  0
  -35.3703   46.2036    6.6119 C   0  0  0  0  0  0  0  0  0  0  0  0
  -36.2238   47.0395    7.5229 C   0  0  0  0  0  0  0  0  0  0  0  0
  -37.1069   46.2772    8.4282 C   0  0  0  0  0  0  0  0  0  0  0  0
  -37.4430   44.8898    7.9757 C   0  0  0  0  0  0  0  0  0  0  0  0
  -36.3020   43.9331    7.9885 C   0  0  0  0  0  0  0  0  0  0  0  0
  -34.9877   44.5707    8.3550 C   0  0  0  0  0  0  0  0  0  0  0  0
  1  9  2  0
 10  1  1  0
  1 19  1  0
  3  2  1  0
  2 10  1  0
  2 11  2  0
 12  3  1  0
 16  4  1  6
 16  5  1  0
  7  6  1  0
  8  7  2  0
  7 20  1  0
  9  8  1  0
 13 12  1  0
 12 17  1  0
 13 14  2  0
 15 13  1  0
 15 16  1  0
 16 17  1  0
 17 18  2  0
 19 20  2  0
 20 21  1  0
 21 22  2  0
 21 23  2  0
 21 24  1  6
 24 25  1  0
 24 30  1  0
 25 26  1  0
 26 27  1  0
 27 28  1  0
 28 29  1  0
 29 30  1  0
M  END
$$$$
