
     RDKit          3D

 30 32  0  0  0  0  0  0  0  0999 V2000
  -27.6758   47.7110   10.0125 C   0  0  0  0  0  0  0  0  0  0  0  0
  -27.4907   45.7012   11.5543 C   0  0  0  0  0  0  0  0  0  0  0  0
  -26.8553   44.3700   11.7920 C   0  0  0  0  0  0  0  0  0  0  0  0
  -24.4018   43.7872    7.6755 C   0  0  0  0  0  0  0  0  0  0  0  0
  -24.2006   41.8461    9.1584 C   0  0  0  0  0  0  0  0  0  0  0  0
  -29.8219   51.0566    8.3989 C   0  0  0  0  0  0  0  0  0  0  0  0
  -29.0621   49.9183    8.9223 C   0  0  0  0  0  0  0  0  0  0  0  0
  -27.8875   49.4740    8.3705 C   0  0  0  0  0  0  0  0  0  0  0  0
  -27.1980   48.3755    8.9136 C   0  0  0  0  0  0  0  0  0  0  0  0
  -27.0286   46.6091   10.5946 N   0  0  0  0  0  0  0  0  0  0  0  0
  -28.4812   46.0187   12.2450 O   0  0  0  0  0  0  0  0  0  0  0  0
  -25.7133   44.1763   10.9050 N   0  0  0  0  0  0  0  0  0  0  0  0
  -24.3470   44.4633   11.1696 C   0  0  0  0  0  0  0  0  0  0  0  0
  -23.8904   44.9458   12.2481 O   0  0  0  0  0  0  0  0  0  0  0  0
  -23.6443   44.0958    9.9865 N   0  0  0  0  0  0  0  0  0  0  0  0
  -24.4874   43.3094    9.1254 C   0  0  1  0  0  0  0  0  0  0  0  0
  -25.8518   43.6462    9.5950 C   0  0  0  0  0  0  0  0  0  0  0  0
  -26.9198   43.4776    8.9226 O   0  0  0  0  0  0  0  0  0  0  0  0
  -28.8834   48.1805   10.5667 C   0  0  0  0  0  0  0  0  0  0  0  0
  -29.5414   49.2497   10.0269 C   0  0  0  0  0  0  0  0  0  0  0  0
  -31.0243   49.7947   10.7397 S   0  0  2  0  0  6  0  0  0  0  0  0
  -31.2254   51.2433   10.4084 O   0  0  0  0  0  0  0  0  0  0  0  0
  -30.9030   49.7270   12.2551 O   0  0  0  0  0  0  0  0  0  0  0  0
  -32.3851   48.9239   10.2428 N   0  0  0  0  0  0  0  0  0  0  0  0
  -32.2462   47.5147   10.3431 C   0  0  0  0  0  0  0  0  0  0  0  0
  -31.7660   46.8348    9.0924 C   0  0  0  0  0  0  0  0  0  0  0  0
  -32.6426   46.9966    7.9152 C   0  0  0  0  0  0  0  0  0  0  0  0
  -34.0742   47.3112    8.2220 C   0  0  0  0  0  0  0  0  0  0  0  0
  -34.3075   48.6601    8.8078 C   0  0  0  0  0  0  0  0  0  0  0  0
  -33.0385   49.4224    9.0846 C   0  0  0  0  0  0  0  0  0  0  0  0
  1  9  2  0
 10  1  1  0
  1 19  1  0
  3  2  1  0
  2 10  1  0
  2 11  2  0
 12  3  1  0
 16  4  1  6
 16  5  1  0
  7  6  1  0
  8  7  2  0
  7 20  1  0
  9  8  1  0
 13 12  1  0
 12 17  1  0
 13 14  2  0
 15 13  1  0
 15 16  1  0
 16 17  1  0
 17 18  2  0
 19 20  2  0
 20 21  1  0
 21 22  2  0
 21 23  2  0
 21 24  1  6
 24 25  1  0
 24 30  1  0
 25 26  1  0
 26 27  1  0
 27 28  1  0
 28 29  1  0
 29 30  1  0
M  END
$$$$
