
     RDKit          3D

 30 32  0  0  0  0  0  0  0  0999 V2000
  -27.2628   48.7729    9.9666 C   0  0  0  0  0  0  0  0  0  0  0  0
  -26.4539   46.3742    9.7599 C   0  0  0  0  0  0  0  0  0  0  0  0
  -26.1637   45.0824   10.4520 C   0  0  0  0  0  0  0  0  0  0  0  0
  -29.0177   44.1316   14.2277 C   0  0  0  0  0  0  0  0  0  0  0  0
  -28.3603   42.0988   13.0264 C   0  0  0  0  0  0  0  0  0  0  0  0
  -27.5135   52.8148    8.5513 C   0  0  0  0  0  0  0  0  0  0  0  0
  -27.4525   51.4433    9.0632 C   0  0  0  0  0  0  0  0  0  0  0  0
  -28.1515   51.0137   10.1626 C   0  0  0  0  0  0  0  0  0  0  0  0
  -28.0566   49.6847   10.6117 C   0  0  0  0  0  0  0  0  0  0  0  0
  -27.1311   47.4351   10.3723 N   0  0  0  0  0  0  0  0  0  0  0  0
  -26.0741   46.5140    8.5787 O   0  0  0  0  0  0  0  0  0  0  0  0
  -27.3330   44.6171   11.1901 N   0  0  0  0  0  0  0  0  0  0  0  0
  -28.6528   44.4260   10.6994 C   0  0  0  0  0  0  0  0  0  0  0  0
  -29.0345   44.6344    9.5098 O   0  0  0  0  0  0  0  0  0  0  0  0
  -29.4106   43.9650   11.8137 N   0  0  0  0  0  0  0  0  0  0  0  0
  -28.5369   43.5734   12.8879 C   0  0  1  0  0  0  0  0  0  0  0  0
  -27.2762   44.2837   12.5692 C   0  0  0  0  0  0  0  0  0  0  0  0
  -26.3438   44.5289   13.4009 O   0  0  0  0  0  0  0  0  0  0  0  0
  -26.5518   49.2309    8.8393 C   0  0  0  0  0  0  0  0  0  0  0  0
  -26.6549   50.5260    8.4156 C   0  0  0  0  0  0  0  0  0  0  0  0
  -25.7630   51.0481    7.0242 S   0  0  2  0  0  6  0  0  0  0  0  0
  -24.4660   50.2981    6.9622 O   0  0  0  0  0  0  0  0  0  0  0  0
  -25.3890   52.5134    7.1932 O   0  0  0  0  0  0  0  0  0  0  0  0
  -26.5874   50.8407    5.5633 N   0  0  0  0  0  0  0  0  0  0  0  0
  -25.9950   51.5060    4.4581 C   0  0  0  0  0  0  0  0  0  0  0  0
  -26.5337   52.8814    4.1835 C   0  0  0  0  0  0  0  0  0  0  0  0
  -27.9752   52.9384    3.8684 C   0  0  0  0  0  0  0  0  0  0  0  0
  -28.5653   51.6675    3.3402 C   0  0  0  0  0  0  0  0  0  0  0  0
  -28.6397   50.5541    4.3262 C   0  0  0  0  0  0  0  0  0  0  0  0
  -28.0043   50.8822    5.6517 C   0  0  0  0  0  0  0  0  0  0  0  0
  1  9  2  0
 10  1  1  0
  1 19  1  0
  3  2  1  0
  2 10  1  0
  2 11  2  0
 12  3  1  0
 16  4  1  1
 16  5  1  0
  7  6  1  0
  8  7  2  0
  7 20  1  0
  9  8  1  0
 13 12  1  0
 12 17  1  0
 13 14  2  0
 15 13  1  0
 15 16  1  0
 16 17  1  0
 17 18  2  0
 19 20  2  0
 20 21  1  0
 21 22  2  0
 21 23  2  0
 21 24  1  6
 24 25  1  0
 24 30  1  0
 25 26  1  0
 26 27  1  0
 27 28  1  0
 28 29  1  0
 29 30  1  0
M  END
$$$$
