
     RDKit          3D

 30 32  0  0  0  0  0  0  0  0999 V2000
  -27.2101   48.4459    8.7764 C   0  0  0  0  0  0  0  0  0  0  0  0
  -27.5698   46.9180   10.7731 C   0  0  0  0  0  0  0  0  0  0  0  0
  -27.1761   45.6786   11.5088 C   0  0  0  0  0  0  0  0  0  0  0  0
  -23.2618   43.1056   10.3416 C   0  0  0  0  0  0  0  0  0  0  0  0
  -23.5288   45.0847    8.9207 C   0  0  0  0  0  0  0  0  0  0  0  0
  -28.3621   51.6519    6.1693 C   0  0  0  0  0  0  0  0  0  0  0  0
  -27.9324   50.5707    7.0598 C   0  0  0  0  0  0  0  0  0  0  0  0
  -26.6463   50.4317    7.5163 C   0  0  0  0  0  0  0  0  0  0  0  0
  -26.2875   49.3741    8.3705 C   0  0  0  0  0  0  0  0  0  0  0  0
  -26.9061   47.3709    9.6271 N   0  0  0  0  0  0  0  0  0  0  0  0
  -28.5370   47.5813   11.2013 O   0  0  0  0  0  0  0  0  0  0  0  0
  -26.2761   44.8619   10.7015 N   0  0  0  0  0  0  0  0  0  0  0  0
  -26.6025   44.0631    9.5727 C   0  0  0  0  0  0  0  0  0  0  0  0
  -27.7589   43.9298    9.0732 O   0  0  0  0  0  0  0  0  0  0  0  0
  -25.3749   43.4742    9.1548 N   0  0  0  0  0  0  0  0  0  0  0  0
  -24.2623   44.1244    9.7952 C   0  0  1  0  0  0  0  0  0  0  0  0
  -24.8857   44.7697   10.9743 C   0  0  0  0  0  0  0  0  0  0  0  0
  -24.2601   45.1539   12.0146 O   0  0  0  0  0  0  0  0  0  0  0  0
  -28.5264   48.6035    8.2982 C   0  0  0  0  0  0  0  0  0  0  0  0
  -28.8589   49.6371    7.4684 C   0  0  0  0  0  0  0  0  0  0  0  0
  -30.4899   49.7940    6.9032 S   0  0  2  0  0  6  0  0  0  0  0  0
  -31.0655   48.4279    6.6780 O   0  0  0  0  0  0  0  0  0  0  0  0
  -30.4819   50.4723    5.5409 O   0  0  0  0  0  0  0  0  0  0  0  0
  -31.5008   50.6493    7.9537 N   0  0  0  0  0  0  0  0  0  0  0  0
  -31.0231   51.9395    8.3037 C   0  0  0  0  0  0  0  0  0  0  0  0
  -30.2156   51.9942    9.5694 C   0  0  0  0  0  0  0  0  0  0  0  0
  -30.9309   51.5658   10.7881 C   0  0  0  0  0  0  0  0  0  0  0  0
  -32.4238   51.6628   10.7211 C   0  0  0  0  0  0  0  0  0  0  0  0
  -33.0724   50.7041    9.7843 C   0  0  0  0  0  0  0  0  0  0  0  0
  -32.0909   49.8811    8.9922 C   0  0  0  0  0  0  0  0  0  0  0  0
  1  9  2  0
 10  1  1  0
  1 19  1  0
  3  2  1  0
  2 10  1  0
  2 11  2  0
 12  3  1  0
 16  4  1  1
 16  5  1  0
  7  6  1  0
  8  7  2  0
  7 20  1  0
  9  8  1  0
 13 12  1  0
 12 17  1  0
 13 14  2  0
 15 13  1  0
 15 16  1  0
 16 17  1  0
 17 18  2  0
 19 20  2  0
 20 21  1  0
 21 22  2  0
 21 23  2  0
 21 24  1  1
 24 25  1  0
 24 30  1  0
 25 26  1  0
 26 27  1  0
 27 28  1  0
 28 29  1  0
 29 30  1  0
M  END
$$$$
