
     RDKit          3D

 30 32  0  0  0  0  0  0  0  0999 V2000
  -28.5941   46.6712   10.1578 C   0  0  0  0  0  0  0  0  0  0  0  0
  -27.3076   45.6115   12.0744 C   0  0  0  0  0  0  0  0  0  0  0  0
  -26.0617   44.9249   12.5309 C   0  0  0  0  0  0  0  0  0  0  0  0
  -22.1630   45.7344    9.8013 C   0  0  0  0  0  0  0  0  0  0  0  0
  -24.2489   46.1978    8.6005 C   0  0  0  0  0  0  0  0  0  0  0  0
  -32.1729   47.9755    8.1847 C   0  0  0  0  0  0  0  0  0  0  0  0
  -30.9383   47.5668    8.8596 C   0  0  0  0  0  0  0  0  0  0  0  0
  -29.9544   48.4456    9.2357 C   0  0  0  0  0  0  0  0  0  0  0  0
  -28.7880   47.9992    9.8817 C   0  0  0  0  0  0  0  0  0  0  0  0
  -27.4493   46.1716   10.7995 N   0  0  0  0  0  0  0  0  0  0  0  0
  -28.2682   45.6893   12.8681 O   0  0  0  0  0  0  0  0  0  0  0  0
  -25.1192   44.7760   11.4272 N   0  0  0  0  0  0  0  0  0  0  0  0
  -24.9375   43.6468   10.5840 C   0  0  0  0  0  0  0  0  0  0  0  0
  -25.5835   42.5597   10.6582 O   0  0  0  0  0  0  0  0  0  0  0  0
  -23.9025   44.0116    9.6762 N   0  0  0  0  0  0  0  0  0  0  0  0
  -23.6596   45.4288    9.7346 C   0  0  1  0  0  0  0  0  0  0  0  0
  -24.2218   45.8102   11.0514 C   0  0  0  0  0  0  0  0  0  0  0  0
  -23.9305   46.8714   11.6919 O   0  0  0  0  0  0  0  0  0  0  0  0
  -29.6145   45.7823    9.7648 C   0  0  0  0  0  0  0  0  0  0  0  0
  -30.7423   46.2322    9.1377 C   0  0  0  0  0  0  0  0  0  0  0  0
  -31.9732   45.1047    8.6709 S   0  0  2  0  0  6  0  0  0  0  0  0
  -33.3038   45.6040    9.1491 O   0  0  0  0  0  0  0  0  0  0  0  0
  -31.7397   43.7854    9.3923 O   0  0  0  0  0  0  0  0  0  0  0  0
  -32.0562   44.8303    7.0051 N   0  0  0  0  0  0  0  0  0  0  0  0
  -33.2361   45.3239    6.3893 C   0  0  0  0  0  0  0  0  0  0  0  0
  -34.3545   44.3274    6.2730 C   0  0  0  0  0  0  0  0  0  0  0  0
  -34.0427   43.1262    5.4726 C   0  0  0  0  0  0  0  0  0  0  0  0
  -32.9362   43.2904    4.4769 C   0  0  0  0  0  0  0  0  0  0  0  0
  -31.5819   43.4694    5.0693 C   0  0  0  0  0  0  0  0  0  0  0  0
  -31.5910   43.5601    6.5726 C   0  0  0  0  0  0  0  0  0  0  0  0
  1  9  2  0
 10  1  1  0
  1 19  1  0
  3  2  1  0
  2 10  1  0
  2 11  2  0
 12  3  1  0
 16  4  1  1
 16  5  1  0
  7  6  1  0
  8  7  2  0
  7 20  1  0
  9  8  1  0
 13 12  1  0
 12 17  1  0
 13 14  2  0
 15 13  1  0
 15 16  1  0
 16 17  1  0
 17 18  2  0
 19 20  2  0
 20 21  1  0
 21 22  2  0
 21 23  2  0
 21 24  1  6
 24 25  1  0
 24 30  1  0
 25 26  1  0
 26 27  1  0
 27 28  1  0
 28 29  1  0
 29 30  1  0
M  END
$$$$
