
     RDKit          3D

 30 32  0  0  0  0  0  0  0  0999 V2000
  -28.0198   48.6092   10.8059 C   0  0  0  0  0  0  0  0  0  0  0  0
  -27.7655   46.2730   11.7694 C   0  0  0  0  0  0  0  0  0  0  0  0
  -26.8451   45.2174   12.2897 C   0  0  0  0  0  0  0  0  0  0  0  0
  -22.6439   43.8863   10.3193 C   0  0  0  0  0  0  0  0  0  0  0  0
  -23.4683   46.0050    9.4035 C   0  0  0  0  0  0  0  0  0  0  0  0
  -30.2572   51.6157    8.7183 C   0  0  0  0  0  0  0  0  0  0  0  0
  -29.4631   50.6134    9.4336 C   0  0  0  0  0  0  0  0  0  0  0  0
  -28.1800   50.8322    9.8667 C   0  0  0  0  0  0  0  0  0  0  0  0
  -27.4623   49.8343   10.5495 C   0  0  0  0  0  0  0  0  0  0  0  0
  -27.3486   47.5779   11.4824 N   0  0  0  0  0  0  0  0  0  0  0  0
  -28.9639   45.9768   11.5817 O   0  0  0  0  0  0  0  0  0  0  0  0
  -25.8938   44.8084   11.2620 N   0  0  0  0  0  0  0  0  0  0  0  0
  -26.1747   44.2079   10.0052 C   0  0  0  0  0  0  0  0  0  0  0  0
  -27.3280   43.9248    9.5647 O   0  0  0  0  0  0  0  0  0  0  0  0
  -24.9075   44.0088    9.3863 N   0  0  0  0  0  0  0  0  0  0  0  0
  -23.8866   44.7452   10.0837 C   0  0  1  0  0  0  0  0  0  0  0  0
  -24.4922   44.9760   11.4161 C   0  0  0  0  0  0  0  0  0  0  0  0
  -23.8454   45.2672   12.4735 O   0  0  0  0  0  0  0  0  0  0  0  0
  -29.3384   48.4013   10.3541 C   0  0  0  0  0  0  0  0  0  0  0  0
  -30.0225   49.3815    9.6918 C   0  0  0  0  0  0  0  0  0  0  0  0
  -31.6428   49.0841    9.1531 S   0  0  2  0  0  6  0  0  0  0  0  0
  -32.5292   50.1986    9.6229 O   0  0  0  0  0  0  0  0  0  0  0  0
  -32.1675   47.8235    9.8247 O   0  0  0  0  0  0  0  0  0  0  0  0
  -31.7916   48.9342    7.4761 N   0  0  0  0  0  0  0  0  0  0  0  0
  -32.9899   49.4788    6.9444 C   0  0  0  0  0  0  0  0  0  0  0  0
  -34.1204   48.5001    6.7983 C   0  0  0  0  0  0  0  0  0  0  0  0
  -33.8498   47.3597    5.9001 C   0  0  0  0  0  0  0  0  0  0  0  0
  -32.7807   47.5906    4.8772 C   0  0  0  0  0  0  0  0  0  0  0  0
  -31.4033   47.7174    5.4284 C   0  0  0  0  0  0  0  0  0  0  0  0
  -31.3543   47.6967    6.9335 C   0  0  0  0  0  0  0  0  0  0  0  0
  1  9  2  0
 10  1  1  0
  1 19  1  0
  3  2  1  0
  2 10  1  0
  2 11  2  0
 12  3  1  0
 16  4  1  1
 16  5  1  0
  7  6  1  0
  8  7  2  0
  7 20  1  0
  9  8  1  0
 13 12  1  0
 12 17  1  0
 13 14  2  0
 15 13  1  0
 15 16  1  0
 16 17  1  0
 17 18  2  0
 19 20  2  0
 20 21  1  0
 21 22  2  0
 21 23  2  0
 21 24  1  6
 24 25  1  0
 24 30  1  0
 25 26  1  0
 26 27  1  0
 27 28  1  0
 28 29  1  0
 29 30  1  0
M  END
$$$$
