
     RDKit          3D

 30 32  0  0  0  0  0  0  0  0999 V2000
  -28.4689   47.5000   10.8127 C   0  0  0  0  0  0  0  0  0  0  0  0
  -27.5840   45.1394   11.1217 C   0  0  0  0  0  0  0  0  0  0  0  0
  -26.4408   44.2489   11.4856 C   0  0  0  0  0  0  0  0  0  0  0  0
  -23.3926   46.9513    8.8951 C   0  0  0  0  0  0  0  0  0  0  0  0
  -22.9673   44.5529    8.6227 C   0  0  0  0  0  0  0  0  0  0  0  0
  -31.5742   50.2725    9.7770 C   0  0  0  0  0  0  0  0  0  0  0  0
  -30.4878   49.3545   10.1290 C   0  0  0  0  0  0  0  0  0  0  0  0
  -29.1793   49.7448   10.2601 C   0  0  0  0  0  0  0  0  0  0  0  0
  -28.1750   48.8213   10.6004 C   0  0  0  0  0  0  0  0  0  0  0  0
  -27.5060   46.5364   11.1537 N   0  0  0  0  0  0  0  0  0  0  0  0
  -28.6604   44.6118   10.7723 O   0  0  0  0  0  0  0  0  0  0  0  0
  -25.1764   44.8203   11.0346 N   0  0  0  0  0  0  0  0  0  0  0  0
  -23.9551   44.9090   11.7554 C   0  0  0  0  0  0  0  0  0  0  0  0
  -23.7643   44.4941   12.9369 O   0  0  0  0  0  0  0  0  0  0  0  0
  -23.0372   45.5471   10.8729 N   0  0  0  0  0  0  0  0  0  0  0  0
  -23.5633   45.5726    9.5337 C   0  0  1  0  0  0  0  0  0  0  0  0
  -25.0185   45.3875    9.7426 C   0  0  0  0  0  0  0  0  0  0  0  0
  -25.9233   45.6916    8.9000 O   0  0  0  0  0  0  0  0  0  0  0  0
  -29.8177   47.1161   10.6740 C   0  0  0  0  0  0  0  0  0  0  0  0
  -30.7820   48.0260   10.3427 C   0  0  0  0  0  0  0  0  0  0  0  0
  -32.4293   47.5116   10.1820 S   0  0  2  0  0  6  0  0  0  0  0  0
  -33.2995   48.3719   11.0488 O   0  0  0  0  0  0  0  0  0  0  0  0
  -32.5653   46.0979   10.7284 O   0  0  0  0  0  0  0  0  0  0  0  0
  -33.0125   47.5625    8.5963 N   0  0  0  0  0  0  0  0  0  0  0  0
  -33.5407   46.3310    8.1278 C   0  0  0  0  0  0  0  0  0  0  0  0
  -32.5632   45.4631    7.3873 C   0  0  0  0  0  0  0  0  0  0  0  0
  -31.9932   46.0637    6.1646 C   0  0  0  0  0  0  0  0  0  0  0  0
  -32.8153   47.1496    5.5421 C   0  0  0  0  0  0  0  0  0  0  0  0
  -32.8999   48.4054    6.3378 C   0  0  0  0  0  0  0  0  0  0  0  0
  -32.2261   48.3118    7.6814 C   0  0  0  0  0  0  0  0  0  0  0  0
  1  9  2  0
 10  1  1  0
  1 19  1  0
  3  2  1  0
  2 10  1  0
  2 11  2  0
 12  3  1  0
 16  4  1  6
 16  5  1  0
  7  6  1  0
  8  7  2  0
  7 20  1  0
  9  8  1  0
 13 12  1  0
 12 17  1  0
 13 14  2  0
 15 13  1  0
 15 16  1  0
 16 17  1  0
 17 18  2  0
 19 20  2  0
 20 21  1  0
 21 22  2  0
 21 23  2  0
 21 24  1  6
 24 25  1  0
 24 30  1  0
 25 26  1  0
 26 27  1  0
 27 28  1  0
 28 29  1  0
 29 30  1  0
M  END
$$$$
