
     RDKit          3D

 30 32  0  0  0  0  0  0  0  0999 V2000
  -26.7745   48.8728    9.5955 C   0  0  0  0  0  0  0  0  0  0  0  0
  -26.6736   46.9634   11.2672 C   0  0  0  0  0  0  0  0  0  0  0  0
  -25.8389   45.9922   12.0369 C   0  0  0  0  0  0  0  0  0  0  0  0
  -24.1848   42.2913    9.4154 C   0  0  0  0  0  0  0  0  0  0  0  0
  -26.1792   43.3134    8.4228 C   0  0  0  0  0  0  0  0  0  0  0  0
  -28.9486   51.6566    7.1610 C   0  0  0  0  0  0  0  0  0  0  0  0
  -28.1729   50.7224    7.9810 C   0  0  0  0  0  0  0  0  0  0  0  0
  -26.8034   50.7398    8.0582 C   0  0  0  0  0  0  0  0  0  0  0  0
  -26.1081   49.8190    8.8619 C   0  0  0  0  0  0  0  0  0  0  0  0
  -26.1306   47.9301   10.4130 N   0  0  0  0  0  0  0  0  0  0  0  0
  -27.9147   46.9099   11.3920 O   0  0  0  0  0  0  0  0  0  0  0  0
  -25.8244   44.6892   11.3808 N   0  0  0  0  0  0  0  0  0  0  0  0
  -26.6166   43.5506   11.6890 C   0  0  0  0  0  0  0  0  0  0  0  0
  -27.4862   43.4841   12.6076 O   0  0  0  0  0  0  0  0  0  0  0  0
  -26.2181   42.5465   10.7609 N   0  0  0  0  0  0  0  0  0  0  0  0
  -25.4345   43.1245    9.7013 C   0  0  1  0  0  0  0  0  0  0  0  0
  -24.9601   44.3976   10.2926 C   0  0  0  0  0  0  0  0  0  0  0  0
  -23.9636   45.0716    9.8758 O   0  0  0  0  0  0  0  0  0  0  0  0
  -28.1808   48.8690    9.5046 C   0  0  0  0  0  0  0  0  0  0  0  0
  -28.8417   49.7708    8.7188 C   0  0  0  0  0  0  0  0  0  0  0  0
  -30.5725   49.7313    8.6354 S   0  0  2  0  0  6  0  0  0  0  0  0
  -31.1188   51.0313    9.1452 O   0  0  0  0  0  0  0  0  0  0  0  0
  -31.0925   48.6607    9.5836 O   0  0  0  0  0  0  0  0  0  0  0  0
  -31.1784   49.4525    7.0823 N   0  0  0  0  0  0  0  0  0  0  0  0
  -32.5436   49.8039    6.9155 C   0  0  0  0  0  0  0  0  0  0  0  0
  -33.5181   48.6820    7.1364 C   0  0  0  0  0  0  0  0  0  0  0  0
  -33.3615   47.5280    6.2284 C   0  0  0  0  0  0  0  0  0  0  0  0
  -32.6786   47.8244    4.9291 C   0  0  0  0  0  0  0  0  0  0  0  0
  -31.2328   48.1616    5.0439 C   0  0  0  0  0  0  0  0  0  0  0  0
  -30.7472   48.2473    6.4669 C   0  0  0  0  0  0  0  0  0  0  0  0
  1  9  2  0
 10  1  1  0
  1 19  1  0
  3  2  1  0
  2 10  1  0
  2 11  2  0
 12  3  1  0
 16  4  1  6
 16  5  1  0
  7  6  1  0
  8  7  2  0
  7 20  1  0
  9  8  1  0
 13 12  1  0
 12 17  1  0
 13 14  2  0
 15 13  1  0
 15 16  1  0
 16 17  1  0
 17 18  2  0
 19 20  2  0
 20 21  1  0
 21 22  2  0
 21 23  2  0
 21 24  1  6
 24 25  1  0
 24 30  1  0
 25 26  1  0
 26 27  1  0
 27 28  1  0
 28 29  1  0
 29 30  1  0
M  END
$$$$
