
     RDKit          3D

 30 32  0  0  0  0  0  0  0  0999 V2000
  -28.0360   47.5434   10.7120 C   0  0  0  0  0  0  0  0  0  0  0  0
  -27.4466   45.1366   11.2693 C   0  0  0  0  0  0  0  0  0  0  0  0
  -26.5011   44.0079   11.0159 C   0  0  0  0  0  0  0  0  0  0  0  0
  -22.9673   46.5258    8.9000 C   0  0  0  0  0  0  0  0  0  0  0  0
  -22.6337   44.1063    8.6948 C   0  0  0  0  0  0  0  0  0  0  0  0
  -30.8789   50.7023   10.1268 C   0  0  0  0  0  0  0  0  0  0  0  0
  -29.8796   49.6475   10.3157 C   0  0  0  0  0  0  0  0  0  0  0  0
  -28.5381   49.8266   10.0918 C   0  0  0  0  0  0  0  0  0  0  0  0
  -27.6212   48.7790   10.2892 C   0  0  0  0  0  0  0  0  0  0  0  0
  -27.1642   46.4633   10.9243 N   0  0  0  0  0  0  0  0  0  0  0  0
  -28.5409   44.8841   11.8149 O   0  0  0  0  0  0  0  0  0  0  0  0
  -25.1558   44.5087   10.7554 N   0  0  0  0  0  0  0  0  0  0  0  0
  -24.0505   44.5398   11.6479 C   0  0  0  0  0  0  0  0  0  0  0  0
  -24.0575   44.1254   12.8448 O   0  0  0  0  0  0  0  0  0  0  0  0
  -22.9807   45.1218   10.9095 N   0  0  0  0  0  0  0  0  0  0  0  0
  -23.3023   45.1633    9.5075 C   0  0  1  0  0  0  0  0  0  0  0  0
  -24.7801   45.0561    9.5002 C   0  0  0  0  0  0  0  0  0  0  0  0
  -25.5342   45.3998    8.5336 O   0  0  0  0  0  0  0  0  0  0  0  0
  -29.4171   47.3768   10.9373 C   0  0  0  0  0  0  0  0  0  0  0  0
  -30.2954   48.4052   10.7407 C   0  0  0  0  0  0  0  0  0  0  0  0
  -31.9864   48.1574   11.0295 S   0  0  2  0  0  6  0  0  0  0  0  0
  -32.4689   49.1716   12.0229 O   0  0  0  0  0  0  0  0  0  0  0  0
  -32.1855   46.8007   11.6893 O   0  0  0  0  0  0  0  0  0  0  0  0
  -32.9414   48.2542    9.6382 N   0  0  0  0  0  0  0  0  0  0  0  0
  -34.2491   48.7597    9.8606 C   0  0  0  0  0  0  0  0  0  0  0  0
  -35.2993   47.7139   10.1062 C   0  0  0  0  0  0  0  0  0  0  0  0
  -35.5000   46.7557    9.0007 C   0  0  0  0  0  0  0  0  0  0  0  0
  -35.0751   47.2403    7.6490 C   0  0  0  0  0  0  0  0  0  0  0  0
  -33.6056   47.4089    7.4775 C   0  0  0  0  0  0  0  0  0  0  0  0
  -32.8213   47.1614    8.7391 C   0  0  0  0  0  0  0  0  0  0  0  0
  1  9  2  0
 10  1  1  0
  1 19  1  0
  3  2  1  0
  2 10  1  0
  2 11  2  0
 12  3  1  0
 16  4  1  6
 16  5  1  0
  7  6  1  0
  8  7  2  0
  7 20  1  0
  9  8  1  0
 13 12  1  0
 12 17  1  0
 13 14  2  0
 15 13  1  0
 15 16  1  0
 16 17  1  0
 17 18  2  0
 19 20  2  0
 20 21  1  0
 21 22  2  0
 21 23  2  0
 21 24  1  6
 24 25  1  0
 24 30  1  0
 25 26  1  0
 26 27  1  0
 27 28  1  0
 28 29  1  0
 29 30  1  0
M  END
$$$$
