
     RDKit          3D

 29 31  0  0  0  0  0  0  0  0999 V2000
   90.5982  132.1928  119.9166 N   0  0  0  0  0  0  0  0  0  0  0  0
   89.7919  132.6251  121.0525 C   0  0  2  0  0  0  0  0  0  0  0  0
   90.6193  133.0070  122.2018 C   0  0  0  0  0  0  0  0  0  0  0  0
   91.6957  132.3991  122.4111 O   0  0  0  0  0  0  0  0  0  0  0  0
   88.7752  131.5569  121.3645 C   0  0  1  0  0  0  0  0  0  0  0  0
   89.5467  130.3385  121.8666 C   0  0  0  0  0  0  0  0  0  0  0  0
   87.7814  131.9402  122.4080 C   0  0  0  0  0  0  0  0  0  0  0  0
   91.2960  133.0538  119.0856 C   0  0  0  0  0  0  0  0  0  0  0  0
   91.0950  134.2776  124.1813 C   0  0  0  0  0  0  0  0  0  0  0  0
   88.0766  131.1018  120.0885 C   0  0  0  0  0  0  0  0  0  0  0  0
   92.0791  132.7742  117.9000 C   0  0  0  0  0  0  0  0  0  0  0  0
   93.1937  130.5551  115.2659 C   0  0  0  0  0  0  0  0  0  0  0  0
   94.4720  129.9165  115.5098 C   0  0  0  0  0  0  0  0  0  0  0  0
   94.8107  129.4342  116.7440 C   0  0  0  0  0  0  0  0  0  0  0  0
   96.0299  128.8167  116.9935 C   0  0  0  0  0  0  0  0  0  0  0  0
   96.9173  128.6917  115.9592 C   0  0  0  0  0  0  0  0  0  0  0  0
   96.6220  129.1573  114.7145 C   0  0  0  0  0  0  0  0  0  0  0  0
   95.3857  129.7762  114.4884 C   0  0  0  0  0  0  0  0  0  0  0  0
   93.3196  132.9058  116.0924 C   0  0  0  0  0  0  0  0  0  0  0  0
   92.8285  133.6642  117.1672 C   0  0  0  0  0  0  0  0  0  0  0  0
   93.1490  134.9994  117.2987 C   0  0  0  0  0  0  0  0  0  0  0  0
   93.9644  135.5782  116.3434 C   0  0  0  0  0  0  0  0  0  0  0  0
   94.4515  134.8500  115.2830 C   0  0  0  0  0  0  0  0  0  0  0  0
   94.1264  133.5169  115.1633 C   0  0  0  0  0  0  0  0  0  0  0  0
   98.1219  128.0820  116.2042 F   0  0  0  0  0  0  0  0  0  0  0  0
   92.1402  131.5630  117.2758 N   0  0  0  0  0  0  0  0  0  0  0  0
   92.8760  131.6312  116.1985 N   0  0  0  0  0  0  0  0  0  0  0  0
   91.2392  134.3027  119.4321 O   0  0  0  0  0  0  0  0  0  0  0  0
   90.2597  134.0172  123.0711 O   0  0  0  0  0  0  0  0  0  0  0  0
  2  1  1  6
  8  1  1  0
  2  3  1  0
  2  5  1  0
  3  4  2  0
  3 29  1  0
  5  6  1  1
  5  7  1  0
  5 10  1  0
 11  8  1  0
  8 28  2  0
 29  9  1  0
 20 11  1  0
 11 26  2  0
 12 13  1  0
 27 12  1  0
 13 14  2  0
 13 18  1  0
 14 15  1  0
 15 16  2  0
 17 16  1  0
 16 25  1  0
 18 17  2  0
 19 20  2  0
 19 24  1  0
 19 27  1  0
 20 21  1  0
 21 22  2  0
 22 23  1  0
 23 24  2  0
 26 27  1  0
M  END
$$$$
