
     RDKit          3D

 29 31  0  0  0  0  0  0  0  0999 V2000
   90.8042  133.0405  119.9510 N   0  0  0  0  0  0  0  0  0  0  0  0
   90.4118  133.3938  121.3105 C   0  0  2  0  0  0  0  0  0  0  0  0
   89.0354  133.8968  121.3734 C   0  0  0  0  0  0  0  0  0  0  0  0
   88.6095  134.6335  120.4526 O   0  0  0  0  0  0  0  0  0  0  0  0
   91.4325  134.3444  121.8821 C   0  0  1  0  0  0  0  0  0  0  0  0
   90.8204  134.9526  123.1420 C   0  0  0  0  0  0  0  0  0  0  0  0
   92.7265  133.7049  122.2562 C   0  0  0  0  0  0  0  0  0  0  0  0
   90.1447  132.1065  119.1690 C   0  0  0  0  0  0  0  0  0  0  0  0
   86.8353  134.0142  122.3246 C   0  0  0  0  0  0  0  0  0  0  0  0
   91.6580  135.5139  120.9309 C   0  0  0  0  0  0  0  0  0  0  0  0
   90.6756  131.0840  118.2916 C   0  0  0  0  0  0  0  0  0  0  0  0
   93.4127  129.0948  117.0044 C   0  0  0  0  0  0  0  0  0  0  0  0
   94.1543  129.7851  115.9677 C   0  0  0  0  0  0  0  0  0  0  0  0
   94.6622  131.0401  116.1617 C   0  0  0  0  0  0  0  0  0  0  0  0
   95.3780  131.7138  115.1800 C   0  0  0  0  0  0  0  0  0  0  0  0
   95.5761  131.0897  113.9783 C   0  0  0  0  0  0  0  0  0  0  0  0
   95.0884  129.8410  113.7416 C   0  0  0  0  0  0  0  0  0  0  0  0
   94.3698  129.1824  114.7479 C   0  0  0  0  0  0  0  0  0  0  0  0
   90.9403  129.4110  116.8935 C   0  0  0  0  0  0  0  0  0  0  0  0
   89.9670  130.2506  117.4586 C   0  0  0  0  0  0  0  0  0  0  0  0
   88.6363  130.1242  117.1178 C   0  0  0  0  0  0  0  0  0  0  0  0
   88.2796  129.1465  116.2071 C   0  0  0  0  0  0  0  0  0  0  0  0
   89.2204  128.3141  115.6466 C   0  0  0  0  0  0  0  0  0  0  0  0
   90.5464  128.4511  115.9930 C   0  0  0  0  0  0  0  0  0  0  0  0
   96.2829  131.7540  113.0077 F   0  0  0  0  0  0  0  0  0  0  0  0
   91.9925  130.7396  118.2058 N   0  0  0  0  0  0  0  0  0  0  0  0
   92.1603  129.7444  117.3763 N   0  0  0  0  0  0  0  0  0  0  0  0
   88.8503  132.1658  119.2335 O   0  0  0  0  0  0  0  0  0  0  0  0
   88.1810  133.5905  122.4134 O   0  0  0  0  0  0  0  0  0  0  0  0
  2  1  1  6
  8  1  1  0
  2  3  1  0
  2  5  1  0
  3  4  2  0
  3 29  1  0
  5  6  1  1
  5  7  1  0
  5 10  1  0
 11  8  1  0
  8 28  2  0
 29  9  1  0
 20 11  1  0
 11 26  2  0
 12 13  1  0
 27 12  1  0
 13 14  2  0
 13 18  1  0
 14 15  1  0
 15 16  2  0
 17 16  1  0
 16 25  1  0
 18 17  2  0
 19 20  2  0
 19 24  1  0
 19 27  1  0
 20 21  1  0
 21 22  2  0
 22 23  1  0
 23 24  2  0
 26 27  1  0
M  END
$$$$
