
     RDKit          3D

 29 31  0  0  0  0  0  0  0  0999 V2000
   90.4062  135.1952  120.3987 N   0  0  0  0  0  0  0  0  0  0  0  0
   89.6954  136.3899  120.8399 C   0  0  2  0  0  0  0  0  0  0  0  0
   88.9854  136.1729  122.1049 C   0  0  0  0  0  0  0  0  0  0  0  0
   88.4146  135.0749  122.3067 O   0  0  0  0  0  0  0  0  0  0  0  0
   88.8083  136.8718  119.7205 C   0  0  1  0  0  0  0  0  0  0  0  0
   88.1604  138.1718  120.1919 C   0  0  0  0  0  0  0  0  0  0  0  0
   89.5256  137.1467  118.4425 C   0  0  0  0  0  0  0  0  0  0  0  0
   90.1822  133.9255  120.9051 C   0  0  0  0  0  0  0  0  0  0  0  0
   88.2142  136.8322  124.2796 C   0  0  0  0  0  0  0  0  0  0  0  0
   87.6573  135.8972  119.5001 C   0  0  0  0  0  0  0  0  0  0  0  0
   90.3088  132.6318  120.2667 C   0  0  0  0  0  0  0  0  0  0  0  0
   91.1618  130.5444  117.4346 C   0  0  0  0  0  0  0  0  0  0  0  0
   92.5927  130.4499  117.2231 C   0  0  0  0  0  0  0  0  0  0  0  0
   93.3769  131.5640  117.1041 C   0  0  0  0  0  0  0  0  0  0  0  0
   94.7499  131.4906  116.9046 C   0  0  0  0  0  0  0  0  0  0  0  0
   95.3286  130.2530  116.8258 C   0  0  0  0  0  0  0  0  0  0  0  0
   94.5864  129.1173  116.9387 C   0  0  0  0  0  0  0  0  0  0  0  0
   93.2035  129.2180  117.1396 C   0  0  0  0  0  0  0  0  0  0  0  0
   90.4371  130.4850  119.8213 C   0  0  0  0  0  0  0  0  0  0  0  0
   90.1251  131.3969  120.8425 C   0  0  0  0  0  0  0  0  0  0  0  0
   89.7253  130.9583  122.0877 C   0  0  0  0  0  0  0  0  0  0  0  0
   89.6419  129.5960  122.3108 C   0  0  0  0  0  0  0  0  0  0  0  0
   89.9469  128.6897  121.3220 C   0  0  0  0  0  0  0  0  0  0  0  0
   90.3429  129.1394  120.0819 C   0  0  0  0  0  0  0  0  0  0  0  0
   96.6845  130.1790  116.6289 F   0  0  0  0  0  0  0  0  0  0  0  0
   90.7049  132.4366  118.9762 N   0  0  0  0  0  0  0  0  0  0  0  0
   90.7847  131.1619  118.7017 N   0  0  0  0  0  0  0  0  0  0  0  0
   89.7940  133.8986  122.1427 O   0  0  0  0  0  0  0  0  0  0  0  0
   88.9184  137.1354  123.0920 O   0  0  0  0  0  0  0  0  0  0  0  0
  2  1  1  6
  8  1  1  0
  2  3  1  0
  2  5  1  0
  3  4  2  0
  3 29  1  0
  5  6  1  1
  5  7  1  0
  5 10  1  0
 11  8  1  0
  8 28  2  0
 29  9  1  0
 20 11  1  0
 11 26  2  0
 12 13  1  0
 27 12  1  0
 13 14  2  0
 13 18  1  0
 14 15  1  0
 15 16  2  0
 17 16  1  0
 16 25  1  0
 18 17  2  0
 19 20  2  0
 19 24  1  0
 19 27  1  0
 20 21  1  0
 21 22  2  0
 22 23  1  0
 23 24  2  0
 26 27  1  0
M  END
$$$$
