
     RDKit          3D

 29 31  0  0  0  0  0  0  0  0999 V2000
   90.8475  134.0162  120.1058 N   0  0  0  0  0  0  0  0  0  0  0  0
   90.2193  135.1846  120.7117 C   0  0  2  0  0  0  0  0  0  0  0  0
   89.1333  135.7182  119.8826 C   0  0  0  0  0  0  0  0  0  0  0  0
   89.2538  135.7089  118.6346 O   0  0  0  0  0  0  0  0  0  0  0  0
   91.2861  136.1975  121.0405 C   0  0  1  0  0  0  0  0  0  0  0  0
   91.9713  136.5674  119.7269 C   0  0  0  0  0  0  0  0  0  0  0  0
   90.7728  137.4500  121.6658 C   0  0  0  0  0  0  0  0  0  0  0  0
   90.3983  132.7167  120.2739 C   0  0  0  0  0  0  0  0  0  0  0  0
   86.9764  136.7139  119.5427 C   0  0  0  0  0  0  0  0  0  0  0  0
   92.3706  135.5631  121.9035 C   0  0  0  0  0  0  0  0  0  0  0  0
   90.9549  131.4687  119.7942 C   0  0  0  0  0  0  0  0  0  0  0  0
   93.6983  129.4871  118.5088 C   0  0  0  0  0  0  0  0  0  0  0  0
   93.8721  129.6613  117.0802 C   0  0  0  0  0  0  0  0  0  0  0  0
   94.7110  128.8606  116.3553 C   0  0  0  0  0  0  0  0  0  0  0  0
   94.8861  129.0121  114.9854 C   0  0  0  0  0  0  0  0  0  0  0  0
   94.1888  130.0022  114.3480 C   0  0  0  0  0  0  0  0  0  0  0  0
   93.3430  130.8224  115.0300 C   0  0  0  0  0  0  0  0  0  0  0  0
   93.1837  130.6492  116.4111 C   0  0  0  0  0  0  0  0  0  0  0  0
   91.3300  129.3657  119.2842 C   0  0  0  0  0  0  0  0  0  0  0  0
   90.3428  130.2378  119.7706 C   0  0  0  0  0  0  0  0  0  0  0  0
   89.0827  129.7760  120.0898 C   0  0  0  0  0  0  0  0  0  0  0  0
   88.8129  128.4299  119.9235 C   0  0  0  0  0  0  0  0  0  0  0  0
   89.7696  127.5620  119.4509 C   0  0  0  0  0  0  0  0  0  0  0  0
   91.0236  128.0349  119.1335 C   0  0  0  0  0  0  0  0  0  0  0  0
   94.3607  130.1530  112.9951 F   0  0  0  0  0  0  0  0  0  0  0  0
   92.2313  131.3097  119.3405 N   0  0  0  0  0  0  0  0  0  0  0  0
   92.4643  130.0611  119.0348 N   0  0  0  0  0  0  0  0  0  0  0  0
   89.3059  132.6083  120.9653 O   0  0  0  0  0  0  0  0  0  0  0  0
   87.9733  136.2352  120.4233 O   0  0  0  0  0  0  0  0  0  0  0  0
  2  1  1  6
  8  1  1  0
  2  3  1  0
  2  5  1  0
  3  4  2  0
  3 29  1  0
  5  6  1  6
  5  7  1  0
  5 10  1  0
 11  8  1  0
  8 28  2  0
 29  9  1  0
 20 11  1  0
 11 26  2  0
 12 13  1  0
 27 12  1  0
 13 14  2  0
 13 18  1  0
 14 15  1  0
 15 16  2  0
 17 16  1  0
 16 25  1  0
 18 17  2  0
 19 20  2  0
 19 24  1  0
 19 27  1  0
 20 21  1  0
 21 22  2  0
 22 23  1  0
 23 24  2  0
 26 27  1  0
M  END
$$$$
