
     RDKit          3D

 29 31  0  0  0  0  0  0  0  0999 V2000
   90.7784  133.4408  120.3081 N   0  0  0  0  0  0  0  0  0  0  0  0
   89.7332  133.8292  121.2482 C   0  0  2  0  0  0  0  0  0  0  0  0
   89.9047  135.2058  121.7248 C   0  0  0  0  0  0  0  0  0  0  0  0
   91.0415  135.5921  122.0859 O   0  0  0  0  0  0  0  0  0  0  0  0
   89.6667  132.8074  122.3544 C   0  0  1  0  0  0  0  0  0  0  0  0
   88.9319  131.5910  121.7957 C   0  0  0  0  0  0  0  0  0  0  0  0
   90.9967  132.3570  122.8559 C   0  0  0  0  0  0  0  0  0  0  0  0
   90.5364  132.9089  119.0522 C   0  0  0  0  0  0  0  0  0  0  0  0
   89.1388  137.4781  121.6293 C   0  0  0  0  0  0  0  0  0  0  0  0
   88.7990  133.3205  123.4977 C   0  0  0  0  0  0  0  0  0  0  0  0
   91.3190  131.9756  118.2688 C   0  0  0  0  0  0  0  0  0  0  0  0
   94.0856  129.6729  117.8830 C   0  0  0  0  0  0  0  0  0  0  0  0
   95.3105  130.3254  117.4642 C   0  0  0  0  0  0  0  0  0  0  0  0
   95.7639  131.4625  118.0740 C   0  0  0  0  0  0  0  0  0  0  0  0
   96.9372  132.0979  117.6871 C   0  0  0  0  0  0  0  0  0  0  0  0
   97.6579  131.5578  116.6568 C   0  0  0  0  0  0  0  0  0  0  0  0
   97.2440  130.4274  116.0212 C   0  0  0  0  0  0  0  0  0  0  0  0
   96.0573  129.8052  116.4301 C   0  0  0  0  0  0  0  0  0  0  0  0
   92.0643  130.5857  116.7403 C   0  0  0  0  0  0  0  0  0  0  0  0
   91.0410  131.5100  117.0053 C   0  0  0  0  0  0  0  0  0  0  0  0
   90.0619  131.7724  116.0697 C   0  0  0  0  0  0  0  0  0  0  0  0
   90.1077  131.1001  114.8621 C   0  0  0  0  0  0  0  0  0  0  0  0
   91.1016  130.1895  114.5880 C   0  0  0  0  0  0  0  0  0  0  0  0
   92.0751  129.9373  115.5291 C   0  0  0  0  0  0  0  0  0  0  0  0
   98.8170  132.1844  116.2736 F   0  0  0  0  0  0  0  0  0  0  0  0
   92.4492  131.3495  118.7057 N   0  0  0  0  0  0  0  0  0  0  0  0
   92.9002  130.5198  117.8030 N   0  0  0  0  0  0  0  0  0  0  0  0
   89.4390  133.3185  118.4947 O   0  0  0  0  0  0  0  0  0  0  0  0
   88.8574  136.1025  121.7932 O   0  0  0  0  0  0  0  0  0  0  0  0
  2  1  1  6
  8  1  1  0
  2  3  1  0
  2  5  1  0
  3  4  2  0
  3 29  1  0
  5  6  1  6
  5  7  1  0
  5 10  1  0
 11  8  1  0
  8 28  2  0
 29  9  1  0
 20 11  1  0
 11 26  2  0
 12 13  1  0
 27 12  1  0
 13 14  2  0
 13 18  1  0
 14 15  1  0
 15 16  2  0
 17 16  1  0
 16 25  1  0
 18 17  2  0
 19 20  2  0
 19 24  1  0
 19 27  1  0
 20 21  1  0
 21 22  2  0
 22 23  1  0
 23 24  2  0
 26 27  1  0
M  END
$$$$
