
     RDKit          3D

 29 31  0  0  0  0  0  0  0  0999 V2000
   89.4534  133.1299  120.4680 N   0  0  0  0  0  0  0  0  0  0  0  0
   88.6388  134.1440  121.1276 C   0  0  2  0  0  0  0  0  0  0  0  0
   88.5515  133.9244  122.5752 C   0  0  0  0  0  0  0  0  0  0  0  0
   88.3442  132.7661  123.0080 O   0  0  0  0  0  0  0  0  0  0  0  0
   87.2981  134.2154  120.4423 C   0  0  1  0  0  0  0  0  0  0  0  0
   87.5470  134.0054  118.9504 C   0  0  0  0  0  0  0  0  0  0  0  0
   86.3187  133.1881  120.8992 C   0  0  0  0  0  0  0  0  0  0  0  0
   90.8345  133.0656  120.5526 C   0  0  0  0  0  0  0  0  0  0  0  0
   88.3436  134.6978  124.8375 C   0  0  0  0  0  0  0  0  0  0  0  0
   86.7140  135.6178  120.5665 C   0  0  0  0  0  0  0  0  0  0  0  0
   91.7630  132.1330  119.9482 C   0  0  0  0  0  0  0  0  0  0  0  0
   92.7998  129.9753  117.2325 C   0  0  0  0  0  0  0  0  0  0  0  0
   93.5123  130.6477  116.1641 C   0  0  0  0  0  0  0  0  0  0  0  0
   94.7708  130.2663  115.7882 C   0  0  0  0  0  0  0  0  0  0  0  0
   95.4657  130.8978  114.7643 C   0  0  0  0  0  0  0  0  0  0  0  0
   94.8594  131.9387  114.1147 C   0  0  0  0  0  0  0  0  0  0  0  0
   93.6080  132.3518  114.4559 C   0  0  0  0  0  0  0  0  0  0  0  0
   92.9279  131.6985  115.4920 C   0  0  0  0  0  0  0  0  0  0  0  0
   93.5060  130.8968  119.4410 C   0  0  0  0  0  0  0  0  0  0  0  0
   92.9922  131.7501  120.4307 C   0  0  0  0  0  0  0  0  0  0  0  0
   93.7082  132.0168  121.5792 C   0  0  0  0  0  0  0  0  0  0  0  0
   94.9492  131.4266  121.7337 C   0  0  0  0  0  0  0  0  0  0  0  0
   95.4680  130.5906  120.7724 C   0  0  0  0  0  0  0  0  0  0  0  0
   94.7430  130.3300  119.6307 C   0  0  0  0  0  0  0  0  0  0  0  0
   95.5446  132.5633  113.1032 F   0  0  0  0  0  0  0  0  0  0  0  0
   91.5803  131.5259  118.7406 N   0  0  0  0  0  0  0  0  0  0  0  0
   92.6126  130.7882  118.4297 N   0  0  0  0  0  0  0  0  0  0  0  0
   91.3731  133.9836  121.2945 O   0  0  0  0  0  0  0  0  0  0  0  0
   88.6893  134.9490  123.4900 O   0  0  0  0  0  0  0  0  0  0  0  0
  2  1  1  6
  8  1  1  0
  2  3  1  0
  2  5  1  0
  3  4  2  0
  3 29  1  0
  5  6  1  6
  5  7  1  0
  5 10  1  0
 11  8  1  0
  8 28  2  0
 29  9  1  0
 20 11  1  0
 11 26  2  0
 12 13  1  0
 27 12  1  0
 13 14  2  0
 13 18  1  0
 14 15  1  0
 15 16  2  0
 17 16  1  0
 16 25  1  0
 18 17  2  0
 19 20  2  0
 19 24  1  0
 19 27  1  0
 20 21  1  0
 21 22  2  0
 22 23  1  0
 23 24  2  0
 26 27  1  0
M  END
$$$$
