
     RDKit          3D

 29 31  0  0  0  0  0  0  0  0999 V2000
   91.2487  132.7933  119.6543 N   0  0  0  0  0  0  0  0  0  0  0  0
   90.4908  132.9527  120.8901 C   0  0  2  0  0  0  0  0  0  0  0  0
   89.5475  131.8500  121.1040 C   0  0  0  0  0  0  0  0  0  0  0  0
   88.8947  131.4046  120.1306 O   0  0  0  0  0  0  0  0  0  0  0  0
   89.8444  134.3143  120.8946 C   0  0  1  0  0  0  0  0  0  0  0  0
   88.8368  134.3269  122.0420 C   0  0  0  0  0  0  0  0  0  0  0  0
   90.7945  135.4453  121.0981 C   0  0  0  0  0  0  0  0  0  0  0  0
   92.4852  132.1740  119.5746 C   0  0  0  0  0  0  0  0  0  0  0  0
   88.4455  130.1915  122.4434 C   0  0  0  0  0  0  0  0  0  0  0  0
   89.0230  134.5147  119.6263 C   0  0  0  0  0  0  0  0  0  0  0  0
   93.3918  132.0437  118.4528 C   0  0  0  0  0  0  0  0  0  0  0  0
   94.4583  132.8974  115.1003 C   0  0  0  0  0  0  0  0  0  0  0  0
   93.8307  132.0799  114.0810 C   0  0  0  0  0  0  0  0  0  0  0  0
   92.4766  131.8913  114.0439 C   0  0  0  0  0  0  0  0  0  0  0  0
   91.8593  131.1139  113.0719 C   0  0  0  0  0  0  0  0  0  0  0  0
   92.6444  130.5195  112.1217 C   0  0  0  0  0  0  0  0  0  0  0  0
   93.9962  130.6799  112.1205 C   0  0  0  0  0  0  0  0  0  0  0  0
   94.5949  131.4689  113.1113 C   0  0  0  0  0  0  0  0  0  0  0  0
   95.0869  131.5919  117.1315 C   0  0  0  0  0  0  0  0  0  0  0  0
   94.5667  131.3308  118.4093 C   0  0  0  0  0  0  0  0  0  0  0  0
   95.2288  130.4997  119.2889 C   0  0  0  0  0  0  0  0  0  0  0  0
   96.4225  129.9302  118.8851 C   0  0  0  0  0  0  0  0  0  0  0  0
   96.9472  130.1780  117.6379 C   0  0  0  0  0  0  0  0  0  0  0  0
   96.2760  131.0079  116.7674 C   0  0  0  0  0  0  0  0  0  0  0  0
   92.0360  129.7514  111.1611 F   0  0  0  0  0  0  0  0  0  0  0  0
   93.2449  132.6809  117.2559 N   0  0  0  0  0  0  0  0  0  0  0  0
   94.2492  132.4186  116.4626 N   0  0  0  0  0  0  0  0  0  0  0  0
   92.8850  131.6225  120.6788 O   0  0  0  0  0  0  0  0  0  0  0  0
   89.3462  131.2764  122.3433 O   0  0  0  0  0  0  0  0  0  0  0  0
  2  1  1  6
  8  1  1  0
  2  3  1  0
  2  5  1  0
  3  4  2  0
  3 29  1  0
  5  6  1  1
  5  7  1  0
  5 10  1  0
 11  8  1  0
  8 28  2  0
 29  9  1  0
 20 11  1  0
 11 26  2  0
 12 13  1  0
 27 12  1  0
 13 14  2  0
 13 18  1  0
 14 15  1  0
 15 16  2  0
 17 16  1  0
 16 25  1  0
 18 17  2  0
 19 20  2  0
 19 24  1  0
 19 27  1  0
 20 21  1  0
 21 22  2  0
 22 23  1  0
 23 24  2  0
 26 27  1  0
M  END
$$$$
