
     RDKit          3D

 29 31  0  0  0  0  0  0  0  0999 V2000
   90.0267  134.3770  119.9601 N   0  0  0  0  0  0  0  0  0  0  0  0
   89.9111  135.5802  120.7763 C   0  0  2  0  0  0  0  0  0  0  0  0
   88.5135  135.9773  120.9775 C   0  0  0  0  0  0  0  0  0  0  0  0
   88.1869  137.1762  120.8104 O   0  0  0  0  0  0  0  0  0  0  0  0
   90.7695  136.6632  120.1742 C   0  0  1  0  0  0  0  0  0  0  0  0
   92.0581  135.9981  119.6960 C   0  0  0  0  0  0  0  0  0  0  0  0
   90.1499  137.3645  119.0133 C   0  0  0  0  0  0  0  0  0  0  0  0
   90.0174  133.0886  120.4684 C   0  0  0  0  0  0  0  0  0  0  0  0
   86.3830  135.5706  122.0044 C   0  0  0  0  0  0  0  0  0  0  0  0
   91.1962  137.6584  121.2470 C   0  0  0  0  0  0  0  0  0  0  0  0
   90.1098  131.8158  119.7838 C   0  0  0  0  0  0  0  0  0  0  0  0
   90.9110  129.8096  116.8788 C   0  0  0  0  0  0  0  0  0  0  0  0
   92.3372  129.6361  116.6863 C   0  0  0  0  0  0  0  0  0  0  0  0
   92.8826  128.4107  116.4191 C   0  0  0  0  0  0  0  0  0  0  0  0
   94.2467  128.2280  116.2287 C   0  0  0  0  0  0  0  0  0  0  0  0
   95.0655  129.3212  116.3139 C   0  0  0  0  0  0  0  0  0  0  0  0
   94.5658  130.5596  116.5780 C   0  0  0  0  0  0  0  0  0  0  0  0
   93.1866  130.7177  116.7661 C   0  0  0  0  0  0  0  0  0  0  0  0
   90.1804  129.6838  119.2611 C   0  0  0  0  0  0  0  0  0  0  0  0
   89.8913  130.5663  120.3143 C   0  0  0  0  0  0  0  0  0  0  0  0
   89.4773  130.0941  121.5425 C   0  0  0  0  0  0  0  0  0  0  0  0
   89.3563  128.7274  121.7160 C   0  0  0  0  0  0  0  0  0  0  0  0
   89.6383  127.8494  120.6954 C   0  0  0  0  0  0  0  0  0  0  0  0
   90.0489  128.3327  119.4727 C   0  0  0  0  0  0  0  0  0  0  0  0
   96.4129  129.1422  116.1260 F   0  0  0  0  0  0  0  0  0  0  0  0
   90.5030  131.6566  118.4875 N   0  0  0  0  0  0  0  0  0  0  0  0
   90.5485  130.3910  118.1670 N   0  0  0  0  0  0  0  0  0  0  0  0
   89.9026  133.0181  121.7588 O   0  0  0  0  0  0  0  0  0  0  0  0
   87.5332  135.0782  121.3465 O   0  0  0  0  0  0  0  0  0  0  0  0
  2  1  1  6
  8  1  1  0
  2  3  1  0
  2  5  1  0
  3  4  2  0
  3 29  1  0
  5  6  1  6
  5  7  1  0
  5 10  1  0
 11  8  1  0
  8 28  2  0
 29  9  1  0
 20 11  1  0
 11 26  2  0
 12 13  1  0
 27 12  1  0
 13 14  2  0
 13 18  1  0
 14 15  1  0
 15 16  2  0
 17 16  1  0
 16 25  1  0
 18 17  2  0
 19 20  2  0
 19 24  1  0
 19 27  1  0
 20 21  1  0
 21 22  2  0
 22 23  1  0
 23 24  2  0
 26 27  1  0
M  END
$$$$
