
     RDKit          3D

 29 31  0  0  0  0  0  0  0  0999 V2000
   91.4831  132.8541  119.7961 N   0  0  0  0  0  0  0  0  0  0  0  0
   91.2243  134.1626  120.3858 C   0  0  2  0  0  0  0  0  0  0  0  0
   92.0824  134.4232  121.5466 C   0  0  0  0  0  0  0  0  0  0  0  0
   92.3780  133.4774  122.3147 O   0  0  0  0  0  0  0  0  0  0  0  0
   89.7510  134.2829  120.6807 C   0  0  1  0  0  0  0  0  0  0  0  0
   89.2544  132.8876  121.0530 C   0  0  0  0  0  0  0  0  0  0  0  0
   89.4221  135.2080  121.8028 C   0  0  0  0  0  0  0  0  0  0  0  0
   92.4300  132.6176  118.8130 C   0  0  0  0  0  0  0  0  0  0  0  0
   93.6485  135.7820  122.7549 C   0  0  0  0  0  0  0  0  0  0  0  0
   88.9878  134.6656  119.4180 C   0  0  0  0  0  0  0  0  0  0  0  0
   92.6991  131.4181  118.0475 C   0  0  0  0  0  0  0  0  0  0  0  0
   91.7029  128.2154  116.6851 C   0  0  0  0  0  0  0  0  0  0  0  0
   90.3827  128.3646  116.1054 C   0  0  0  0  0  0  0  0  0  0  0  0
   89.2513  128.3161  116.8723 C   0  0  0  0  0  0  0  0  0  0  0  0
   87.9791  128.4606  116.3329 C   0  0  0  0  0  0  0  0  0  0  0  0
   87.8654  128.6583  114.9835 C   0  0  0  0  0  0  0  0  0  0  0  0
   88.9645  128.7133  114.1822 C   0  0  0  0  0  0  0  0  0  0  0  0
   90.2365  128.5648  114.7503 C   0  0  0  0  0  0  0  0  0  0  0  0
   93.5491  129.8934  116.7147 C   0  0  0  0  0  0  0  0  0  0  0  0
   93.8232  131.1363  117.3077 C   0  0  0  0  0  0  0  0  0  0  0  0
   95.0245  131.7779  117.0880 C   0  0  0  0  0  0  0  0  0  0  0  0
   95.9549  131.1703  116.2649 C   0  0  0  0  0  0  0  0  0  0  0  0
   95.7008  129.9543  115.6741 C   0  0  0  0  0  0  0  0  0  0  0  0
   94.4986  129.3221  115.9025 C   0  0  0  0  0  0  0  0  0  0  0  0
   86.6096  128.8013  114.4495 F   0  0  0  0  0  0  0  0  0  0  0  0
   91.8236  130.3845  117.8878 N   0  0  0  0  0  0  0  0  0  0  0  0
   92.3204  129.4720  117.0958 N   0  0  0  0  0  0  0  0  0  0  0  0
   93.1946  133.6308  118.5450 O   0  0  0  0  0  0  0  0  0  0  0  0
   92.5830  135.6776  121.8317 O   0  0  0  0  0  0  0  0  0  0  0  0
  2  1  1  1
  8  1  1  0
  2  3  1  0
  2  5  1  0
  3  4  2  0
  3 29  1  0
  5  6  1  1
  5  7  1  0
  5 10  1  0
 11  8  1  0
  8 28  2  0
 29  9  1  0
 20 11  1  0
 11 26  2  0
 12 13  1  0
 27 12  1  0
 13 14  2  0
 13 18  1  0
 14 15  1  0
 15 16  2  0
 17 16  1  0
 16 25  1  0
 18 17  2  0
 19 20  2  0
 19 24  1  0
 19 27  1  0
 20 21  1  0
 21 22  2  0
 22 23  1  0
 23 24  2  0
 26 27  1  0
M  END
$$$$
