
     RDKit          3D

 29 31  0  0  0  0  0  0  0  0999 V2000
   89.0828  133.1487  120.4413 N   0  0  0  0  0  0  0  0  0  0  0  0
   88.2711  134.2371  120.9738 C   0  0  2  0  0  0  0  0  0  0  0  0
   88.2661  134.2539  122.4405 C   0  0  0  0  0  0  0  0  0  0  0  0
   88.1674  133.1715  123.0654 O   0  0  0  0  0  0  0  0  0  0  0  0
   86.8951  134.1644  120.3627 C   0  0  1  0  0  0  0  0  0  0  0  0
   86.0883  135.3258  120.9389 C   0  0  0  0  0  0  0  0  0  0  0  0
   86.8759  134.2776  118.8760 C   0  0  0  0  0  0  0  0  0  0  0  0
   90.4530  133.0431  120.6155 C   0  0  0  0  0  0  0  0  0  0  0  0
   88.3920  135.3347  124.5794 C   0  0  0  0  0  0  0  0  0  0  0  0
   86.1779  132.9002  120.8217 C   0  0  0  0  0  0  0  0  0  0  0  0
   91.4008  132.1265  120.0167 C   0  0  0  0  0  0  0  0  0  0  0  0
   92.7073  130.2934  117.1815 C   0  0  0  0  0  0  0  0  0  0  0  0
   93.5770  131.0706  116.3208 C   0  0  0  0  0  0  0  0  0  0  0  0
   94.9348  130.9080  116.3354 C   0  0  0  0  0  0  0  0  0  0  0  0
   95.7818  131.6423  115.5146 C   0  0  0  0  0  0  0  0  0  0  0  0
   95.2264  132.5594  114.6641 C   0  0  0  0  0  0  0  0  0  0  0  0
   93.8800  132.7544  114.6164 C   0  0  0  0  0  0  0  0  0  0  0  0
   93.0471  132.0013  115.4543 C   0  0  0  0  0  0  0  0  0  0  0  0
   93.1153  130.8235  119.5851 C   0  0  0  0  0  0  0  0  0  0  0  0
   92.5097  131.5697  120.6089 C   0  0  0  0  0  0  0  0  0  0  0  0
   93.0512  131.6045  121.8771 C   0  0  0  0  0  0  0  0  0  0  0  0
   94.2098  130.8891  122.1185 C   0  0  0  0  0  0  0  0  0  0  0  0
   94.8170  130.1554  121.1259 C   0  0  0  0  0  0  0  0  0  0  0  0
   94.2660  130.1265  119.8640 C   0  0  0  0  0  0  0  0  0  0  0  0
   96.0618  133.2853  113.8529 F   0  0  0  0  0  0  0  0  0  0  0  0
   91.3712  131.7166  118.7162 N   0  0  0  0  0  0  0  0  0  0  0  0
   92.3879  130.9409  118.4494 N   0  0  0  0  0  0  0  0  0  0  0  0
   90.9584  133.8981  121.4502 O   0  0  0  0  0  0  0  0  0  0  0  0
   88.3664  135.4223  123.1687 O   0  0  0  0  0  0  0  0  0  0  0  0
  2  1  1  1
  8  1  1  0
  2  3  1  0
  2  5  1  0
  3  4  2  0
  3 29  1  0
  5  6  1  1
  5  7  1  0
  5 10  1  0
 11  8  1  0
  8 28  2  0
 29  9  1  0
 20 11  1  0
 11 26  2  0
 12 13  1  0
 27 12  1  0
 13 14  2  0
 13 18  1  0
 14 15  1  0
 15 16  2  0
 17 16  1  0
 16 25  1  0
 18 17  2  0
 19 20  2  0
 19 24  1  0
 19 27  1  0
 20 21  1  0
 21 22  2  0
 22 23  1  0
 23 24  2  0
 26 27  1  0
M  END
$$$$
