
     RDKit          3D

 29 31  0  0  0  0  0  0  0  0999 V2000
   89.6598  132.0102  118.7103 N   0  0  0  0  0  0  0  0  0  0  0  0
   88.3760  132.6155  119.0455 C   0  0  2  0  0  0  0  0  0  0  0  0
   88.4967  133.6010  120.1252 C   0  0  0  0  0  0  0  0  0  0  0  0
   89.0415  133.2651  121.2033 O   0  0  0  0  0  0  0  0  0  0  0  0
   87.3795  131.5211  119.3308 C   0  0  1  0  0  0  0  0  0  0  0  0
   87.9605  130.6704  120.4580 C   0  0  0  0  0  0  0  0  0  0  0  0
   86.0375  132.0085  119.7609 C   0  0  0  0  0  0  0  0  0  0  0  0
   90.8067  132.1451  119.4754 C   0  0  0  0  0  0  0  0  0  0  0  0
   88.0917  135.7400  121.1349 C   0  0  0  0  0  0  0  0  0  0  0  0
   87.2611  130.5870  118.1322 C   0  0  0  0  0  0  0  0  0  0  0  0
   92.1030  131.5159  119.3306 C   0  0  0  0  0  0  0  0  0  0  0  0
   94.4721  129.4811  117.4996 C   0  0  0  0  0  0  0  0  0  0  0  0
   95.0742  130.1757  116.3787 C   0  0  0  0  0  0  0  0  0  0  0  0
   96.3896  130.0010  116.0475 C   0  0  0  0  0  0  0  0  0  0  0  0
   96.9808  130.6563  114.9746 C   0  0  0  0  0  0  0  0  0  0  0  0
   96.2095  131.5056  114.2284 C   0  0  0  0  0  0  0  0  0  0  0  0
   94.8960  131.7096  114.5222 C   0  0  0  0  0  0  0  0  0  0  0  0
   94.3231  131.0368  115.6093 C   0  0  0  0  0  0  0  0  0  0  0  0
   94.2025  130.9034  119.5317 C   0  0  0  0  0  0  0  0  0  0  0  0
   93.1956  131.6596  120.1528 C   0  0  0  0  0  0  0  0  0  0  0  0
   93.4357  132.3238  121.3377 C   0  0  0  0  0  0  0  0  0  0  0  0
   94.6954  132.2316  121.9009 C   0  0  0  0  0  0  0  0  0  0  0  0
   95.6935  131.4973  121.3038 C   0  0  0  0  0  0  0  0  0  0  0  0
   95.4414  130.8367  120.1218 C   0  0  0  0  0  0  0  0  0  0  0  0
   96.7922  132.1534  113.1684 F   0  0  0  0  0  0  0  0  0  0  0  0
   92.4662  130.7135  118.2892 N   0  0  0  0  0  0  0  0  0  0  0  0
   93.7143  130.3439  118.3998 N   0  0  0  0  0  0  0  0  0  0  0  0
   90.6933  132.9591  120.4792 O   0  0  0  0  0  0  0  0  0  0  0  0
   88.0314  134.8949  120.0034 O   0  0  0  0  0  0  0  0  0  0  0  0
  2  1  1  1
  8  1  1  0
  2  3  1  0
  2  5  1  0
  3  4  2  0
  3 29  1  0
  5  6  1  1
  5  7  1  0
  5 10  1  0
 11  8  1  0
  8 28  2  0
 29  9  1  0
 20 11  1  0
 11 26  2  0
 12 13  1  0
 27 12  1  0
 13 14  2  0
 13 18  1  0
 14 15  1  0
 15 16  2  0
 17 16  1  0
 16 25  1  0
 18 17  2  0
 19 20  2  0
 19 24  1  0
 19 27  1  0
 20 21  1  0
 21 22  2  0
 22 23  1  0
 23 24  2  0
 26 27  1  0
M  END
$$$$
