
     RDKit          3D

 29 31  0  0  0  0  0  0  0  0999 V2000
   91.0437  130.2257  117.0999 N   0  0  0  0  0  0  0  0  0  0  0  0
   91.1928  128.9362  116.4350 C   0  0  2  0  0  0  0  0  0  0  0  0
   92.5707  128.7019  115.9902 C   0  0  0  0  0  0  0  0  0  0  0  0
   93.3203  129.6835  115.7742 O   0  0  0  0  0  0  0  0  0  0  0  0
   90.1725  128.8354  115.3300 C   0  0  1  0  0  0  0  0  0  0  0  0
   90.5435  127.6160  114.4891 C   0  0  0  0  0  0  0  0  0  0  0  0
   88.7689  128.6643  115.8030 C   0  0  0  0  0  0  0  0  0  0  0  0
   90.7789  130.3781  118.4509 C   0  0  0  0  0  0  0  0  0  0  0  0
   94.4535  127.3038  115.4805 C   0  0  0  0  0  0  0  0  0  0  0  0
   90.2888  130.0307  114.3913 C   0  0  0  0  0  0  0  0  0  0  0  0
   90.7195  131.5781  119.2595 C   0  0  0  0  0  0  0  0  0  0  0  0
   91.0349  135.1604  119.6756 C   0  0  0  0  0  0  0  0  0  0  0  0
   92.4302  135.5495  119.6206 C   0  0  0  0  0  0  0  0  0  0  0  0
   93.0675  136.0944  120.7010 C   0  0  0  0  0  0  0  0  0  0  0  0
   94.4049  136.4693  120.6658 C   0  0  0  0  0  0  0  0  0  0  0  0
   95.1005  136.2823  119.5023 C   0  0  0  0  0  0  0  0  0  0  0  0
   94.5062  135.7435  118.4024 C   0  0  0  0  0  0  0  0  0  0  0  0
   93.1563  135.3735  118.4633 C   0  0  0  0  0  0  0  0  0  0  0  0
   90.3664  133.0589  120.8425 C   0  0  0  0  0  0  0  0  0  0  0  0
   90.2921  131.6852  120.5619 C   0  0  0  0  0  0  0  0  0  0  0  0
   89.8698  130.7869  121.5199 C   0  0  0  0  0  0  0  0  0  0  0  0
   89.5161  131.2709  122.7661 C   0  0  0  0  0  0  0  0  0  0  0  0
   89.5805  132.6140  123.0562 C   0  0  0  0  0  0  0  0  0  0  0  0
   90.0057  133.5011  122.0923 C   0  0  0  0  0  0  0  0  0  0  0  0
   96.4214  136.6521  119.4661 F   0  0  0  0  0  0  0  0  0  0  0  0
   91.0265  132.8309  118.8160 N   0  0  0  0  0  0  0  0  0  0  0  0
   90.8191  133.7194  119.7510 N   0  0  0  0  0  0  0  0  0  0  0  0
   90.5554  129.2690  119.0857 O   0  0  0  0  0  0  0  0  0  0  0  0
   93.0820  127.4343  115.7974 O   0  0  0  0  0  0  0  0  0  0  0  0
  2  1  1  6
  8  1  1  0
  2  3  1  0
  2  5  1  0
  3  4  2  0
  3 29  1  0
  5  6  1  6
  5  7  1  0
  5 10  1  0
 11  8  1  0
  8 28  2  0
 29  9  1  0
 20 11  1  0
 11 26  2  0
 12 13  1  0
 27 12  1  0
 13 14  2  0
 13 18  1  0
 14 15  1  0
 15 16  2  0
 17 16  1  0
 16 25  1  0
 18 17  2  0
 19 20  2  0
 19 24  1  0
 19 27  1  0
 20 21  1  0
 21 22  2  0
 22 23  1  0
 23 24  2  0
 26 27  1  0
M  END
$$$$
