
     RDKit          3D

 29 31  0  0  0  0  0  0  0  0999 V2000
   91.9222  133.6213  120.5086 N   0  0  0  0  0  0  0  0  0  0  0  0
   91.6929  135.0272  120.8213 C   0  0  2  0  0  0  0  0  0  0  0  0
   91.2090  135.7784  119.6582 C   0  0  0  0  0  0  0  0  0  0  0  0
   91.5964  135.4498  118.5119 O   0  0  0  0  0  0  0  0  0  0  0  0
   92.9433  135.6009  121.4375 C   0  0  1  0  0  0  0  0  0  0  0  0
   93.6337  134.4642  122.1879 C   0  0  0  0  0  0  0  0  0  0  0  0
   93.9115  136.1633  120.4528 C   0  0  0  0  0  0  0  0  0  0  0  0
   90.9245  132.7336  120.1408 C   0  0  0  0  0  0  0  0  0  0  0  0
   89.9220  137.5017  118.5937 C   0  0  0  0  0  0  0  0  0  0  0  0
   92.5845  136.6339  122.4992 C   0  0  0  0  0  0  0  0  0  0  0  0
   91.0207  131.3747  119.6494 C   0  0  0  0  0  0  0  0  0  0  0  0
   92.9444  128.4963  118.5911 C   0  0  0  0  0  0  0  0  0  0  0  0
   93.5437  128.7384  117.2936 C   0  0  0  0  0  0  0  0  0  0  0  0
   93.4165  127.8457  116.2653 C   0  0  0  0  0  0  0  0  0  0  0  0
   93.9818  128.0642  115.0151 C   0  0  0  0  0  0  0  0  0  0  0  0
   94.6898  129.2183  114.8162 C   0  0  0  0  0  0  0  0  0  0  0  0
   94.8419  130.1345  115.8114 C   0  0  0  0  0  0  0  0  0  0  0  0
   94.2622  129.8910  117.0634 C   0  0  0  0  0  0  0  0  0  0  0  0
   90.6264  129.3007  119.0439 C   0  0  0  0  0  0  0  0  0  0  0  0
   89.9920  130.4824  119.4596 C   0  0  0  0  0  0  0  0  0  0  0  0
   88.6193  130.5464  119.5799 C   0  0  0  0  0  0  0  0  0  0  0  0
   87.8789  129.4163  119.2849 C   0  0  0  0  0  0  0  0  0  0  0  0
   88.4851  128.2501  118.8792 C   0  0  0  0  0  0  0  0  0  0  0  0
   89.8564  128.1987  118.7606 C   0  0  0  0  0  0  0  0  0  0  0  0
   95.2486  129.4354  113.5819 F   0  0  0  0  0  0  0  0  0  0  0  0
   92.1887  130.7352  119.3540 N   0  0  0  0  0  0  0  0  0  0  0  0
   91.9644  129.4999  118.9929 N   0  0  0  0  0  0  0  0  0  0  0  0
   89.7191  133.2002  120.2513 O   0  0  0  0  0  0  0  0  0  0  0  0
   90.3368  136.8422  119.7732 O   0  0  0  0  0  0  0  0  0  0  0  0
  2  1  1  6
  8  1  1  0
  2  3  1  0
  2  5  1  0
  3  4  2  0
  3 29  1  0
  5  6  1  1
  5  7  1  0
  5 10  1  0
 11  8  1  0
  8 28  2  0
 29  9  1  0
 20 11  1  0
 11 26  2  0
 12 13  1  0
 27 12  1  0
 13 14  2  0
 13 18  1  0
 14 15  1  0
 15 16  2  0
 17 16  1  0
 16 25  1  0
 18 17  2  0
 19 20  2  0
 19 24  1  0
 19 27  1  0
 20 21  1  0
 21 22  2  0
 22 23  1  0
 23 24  2  0
 26 27  1  0
M  END
$$$$
