
     RDKit          3D

 29 31  0  0  0  0  0  0  0  0999 V2000
   90.2264  133.4248  118.9820 N   0  0  0  0  0  0  0  0  0  0  0  0
   88.9315  133.7243  119.5824 C   0  0  2  0  0  0  0  0  0  0  0  0
   89.0398  133.9928  121.0203 C   0  0  0  0  0  0  0  0  0  0  0  0
   89.6252  133.1634  121.7561 O   0  0  0  0  0  0  0  0  0  0  0  0
   87.9674  132.6166  119.2424 C   0  0  1  0  0  0  0  0  0  0  0  0
   86.6170  132.9992  119.8439 C   0  0  0  0  0  0  0  0  0  0  0  0
   87.7784  132.3934  117.7803 C   0  0  0  0  0  0  0  0  0  0  0  0
   91.2728  132.8147  119.6540 C   0  0  0  0  0  0  0  0  0  0  0  0
   88.7167  135.3259  122.9895 C   0  0  0  0  0  0  0  0  0  0  0  0
   88.3762  131.3256  119.9419 C   0  0  0  0  0  0  0  0  0  0  0  0
   92.6062  132.4822  119.1970 C   0  0  0  0  0  0  0  0  0  0  0  0
   95.2664  132.6338  116.7463 C   0  0  0  0  0  0  0  0  0  0  0  0
   95.0235  131.7208  115.6468 C   0  0  0  0  0  0  0  0  0  0  0  0
   93.9663  131.8865  114.7951 C   0  0  0  0  0  0  0  0  0  0  0  0
   93.7217  131.0227  113.7348 C   0  0  0  0  0  0  0  0  0  0  0  0
   94.5760  129.9707  113.5449 C   0  0  0  0  0  0  0  0  0  0  0  0
   95.6409  129.7675  114.3683 C   0  0  0  0  0  0  0  0  0  0  0  0
   95.8662  130.6528  115.4305 C   0  0  0  0  0  0  0  0  0  0  0  0
   94.6957  131.8252  119.0366 C   0  0  0  0  0  0  0  0  0  0  0  0
   93.5885  131.8255  119.9001 C   0  0  0  0  0  0  0  0  0  0  0  0
   93.6580  131.2320  121.1434 C   0  0  0  0  0  0  0  0  0  0  0  0
   94.8473  130.6380  121.5242 C   0  0  0  0  0  0  0  0  0  0  0  0
   95.9420  130.6316  120.6913 C   0  0  0  0  0  0  0  0  0  0  0  0
   95.8602  131.2254  119.4513 C   0  0  0  0  0  0  0  0  0  0  0  0
   94.3356  129.1168  112.4980 F   0  0  0  0  0  0  0  0  0  0  0  0
   93.1254  132.8390  117.9873 N   0  0  0  0  0  0  0  0  0  0  0  0
   94.3690  132.4527  117.8825 N   0  0  0  0  0  0  0  0  0  0  0  0
   91.0089  132.4885  120.8816 O   0  0  0  0  0  0  0  0  0  0  0  0
   88.5196  135.1307  121.6033 O   0  0  0  0  0  0  0  0  0  0  0  0
  2  1  1  1
  8  1  1  0
  2  3  1  0
  2  5  1  0
  3  4  2  0
  3 29  1  0
  5  6  1  1
  5  7  1  0
  5 10  1  0
 11  8  1  0
  8 28  2  0
 29  9  1  0
 20 11  1  0
 11 26  2  0
 12 13  1  0
 27 12  1  0
 13 14  2  0
 13 18  1  0
 14 15  1  0
 15 16  2  0
 17 16  1  0
 16 25  1  0
 18 17  2  0
 19 20  2  0
 19 24  1  0
 19 27  1  0
 20 21  1  0
 21 22  2  0
 22 23  1  0
 23 24  2  0
 26 27  1  0
M  END
$$$$
