
     RDKit          3D

 29 31  0  0  0  0  0  0  0  0999 V2000
   91.4443  132.6098  120.1508 N   0  0  0  0  0  0  0  0  0  0  0  0
   90.8668  133.1003  121.3970 C   0  0  2  0  0  0  0  0  0  0  0  0
   90.3377  134.4615  121.2607 C   0  0  0  0  0  0  0  0  0  0  0  0
   90.8730  135.2482  120.4443 O   0  0  0  0  0  0  0  0  0  0  0  0
   91.8848  132.9519  122.4988 C   0  0  1  0  0  0  0  0  0  0  0  0
   93.0941  133.7979  122.1069 C   0  0  0  0  0  0  0  0  0  0  0  0
   91.4126  133.4082  123.8375 C   0  0  0  0  0  0  0  0  0  0  0  0
   90.7044  132.0811  119.1059 C   0  0  0  0  0  0  0  0  0  0  0  0
   88.7508  136.2031  121.7162 C   0  0  0  0  0  0  0  0  0  0  0  0
   92.3924  131.5160  122.5609 C   0  0  0  0  0  0  0  0  0  0  0  0
   91.0792  131.1159  118.0933 C   0  0  0  0  0  0  0  0  0  0  0  0
   93.5313  129.0564  116.4048 C   0  0  0  0  0  0  0  0  0  0  0  0
   94.2081  129.7526  115.3284 C   0  0  0  0  0  0  0  0  0  0  0  0
   93.9931  131.0810  115.0844 C   0  0  0  0  0  0  0  0  0  0  0  0
   94.6362  131.7636  114.0594 C   0  0  0  0  0  0  0  0  0  0  0  0
   95.5149  131.0716  113.2708 C   0  0  0  0  0  0  0  0  0  0  0  0
   95.7592  129.7485  113.4776 C   0  0  0  0  0  0  0  0  0  0  0  0
   95.0981  129.0827  114.5180 C   0  0  0  0  0  0  0  0  0  0  0  0
   91.0951  129.5817  116.5219 C   0  0  0  0  0  0  0  0  0  0  0  0
   90.2424  130.4340  117.2417 C   0  0  0  0  0  0  0  0  0  0  0  0
   88.8850  130.4519  116.9969 C   0  0  0  0  0  0  0  0  0  0  0  0
   88.3795  129.6065  116.0262 C   0  0  0  0  0  0  0  0  0  0  0  0
   89.2008  128.7635  115.3141 C   0  0  0  0  0  0  0  0  0  0  0  0
   90.5549  128.7559  115.5659 C   0  0  0  0  0  0  0  0  0  0  0  0
   96.1507  131.7446  112.2580 F   0  0  0  0  0  0  0  0  0  0  0  0
   92.3511  130.6768  117.8701 N   0  0  0  0  0  0  0  0  0  0  0  0
   92.3708  129.7631  116.9366 N   0  0  0  0  0  0  0  0  0  0  0  0
   89.4893  132.5282  119.0244 O   0  0  0  0  0  0  0  0  0  0  0  0
   89.2652  134.9174  122.0005 O   0  0  0  0  0  0  0  0  0  0  0  0
  2  1  1  6
  8  1  1  0
  2  3  1  0
  2  5  1  0
  3  4  2  0
  3 29  1  0
  5  6  1  6
  5  7  1  0
  5 10  1  0
 11  8  1  0
  8 28  2  0
 29  9  1  0
 20 11  1  0
 11 26  2  0
 12 13  1  0
 27 12  1  0
 13 14  2  0
 13 18  1  0
 14 15  1  0
 15 16  2  0
 17 16  1  0
 16 25  1  0
 18 17  2  0
 19 20  2  0
 19 24  1  0
 19 27  1  0
 20 21  1  0
 21 22  2  0
 22 23  1  0
 23 24  2  0
 26 27  1  0
M  END
$$$$
