
     RDKit          3D

 29 31  0  0  0  0  0  0  0  0999 V2000
   90.6439  132.3283  120.2909 N   0  0  0  0  0  0  0  0  0  0  0  0
   90.2445  133.0521  121.4925 C   0  0  2  0  0  0  0  0  0  0  0  0
   90.7493  134.4293  121.4993 C   0  0  0  0  0  0  0  0  0  0  0  0
   91.9714  134.6331  121.6917 O   0  0  0  0  0  0  0  0  0  0  0  0
   90.6500  132.2507  122.7030 C   0  0  1  0  0  0  0  0  0  0  0  0
   90.3153  133.0951  123.9306 C   0  0  0  0  0  0  0  0  0  0  0  0
   89.9506  130.9405  122.8354 C   0  0  0  0  0  0  0  0  0  0  0  0
   90.0730  132.5175  119.0432 C   0  0  0  0  0  0  0  0  0  0  0  0
   90.5017  136.7111  120.7985 C   0  0  0  0  0  0  0  0  0  0  0  0
   92.1627  132.0659  122.7334 C   0  0  0  0  0  0  0  0  0  0  0  0
   90.3703  131.8822  117.7762 C   0  0  0  0  0  0  0  0  0  0  0  0
   92.5171  131.3272  114.9145 C   0  0  0  0  0  0  0  0  0  0  0  0
   93.8008  130.8067  115.3417 C   0  0  0  0  0  0  0  0  0  0  0  0
   93.9528  129.5075  115.7410 C   0  0  0  0  0  0  0  0  0  0  0  0
   95.1765  128.9923  116.1498 C   0  0  0  0  0  0  0  0  0  0  0  0
   96.2633  129.8241  116.1492 C   0  0  0  0  0  0  0  0  0  0  0  0
   96.1578  131.1242  115.7598 C   0  0  0  0  0  0  0  0  0  0  0  0
   94.9126  131.6200  115.3517 C   0  0  0  0  0  0  0  0  0  0  0  0
   90.3974  130.5870  116.0026 C   0  0  0  0  0  0  0  0  0  0  0  0
   89.6468  130.8958  117.1485 C   0  0  0  0  0  0  0  0  0  0  0  0
   88.4563  130.2507  117.4121 C   0  0  0  0  0  0  0  0  0  0  0  0
   88.0183  129.2869  116.5224 C   0  0  0  0  0  0  0  0  0  0  0  0
   88.7431  128.9707  115.3968 C   0  0  0  0  0  0  0  0  0  0  0  0
   89.9293  129.6230  115.1429 C   0  0  0  0  0  0  0  0  0  0  0  0
   97.4725  129.3165  116.5527 F   0  0  0  0  0  0  0  0  0  0  0  0
   91.4813  132.1285  117.0243 N   0  0  0  0  0  0  0  0  0  0  0  0
   91.5067  131.3621  115.9666 N   0  0  0  0  0  0  0  0  0  0  0  0
   89.1294  133.4072  119.0105 O   0  0  0  0  0  0  0  0  0  0  0  0
   89.9280  135.5209  121.3011 O   0  0  0  0  0  0  0  0  0  0  0  0
  2  1  1  6
  8  1  1  0
  2  3  1  0
  2  5  1  0
  3  4  2  0
  3 29  1  0
  5  6  1  1
  5  7  1  0
  5 10  1  0
 11  8  1  0
  8 28  2  0
 29  9  1  0
 20 11  1  0
 11 26  2  0
 12 13  1  0
 27 12  1  0
 13 14  2  0
 13 18  1  0
 14 15  1  0
 15 16  2  0
 17 16  1  0
 16 25  1  0
 18 17  2  0
 19 20  2  0
 19 24  1  0
 19 27  1  0
 20 21  1  0
 21 22  2  0
 22 23  1  0
 23 24  2  0
 26 27  1  0
M  END
$$$$
