
     RDKit          3D

 29 31  0  0  0  0  0  0  0  0999 V2000
   91.9400  132.0312  119.0251 N   0  0  0  0  0  0  0  0  0  0  0  0
   92.9739  132.4865  119.9475 C   0  0  2  0  0  0  0  0  0  0  0  0
   92.7410  133.8619  120.4007 C   0  0  0  0  0  0  0  0  0  0  0  0
   92.3452  134.7199  119.5766 O   0  0  0  0  0  0  0  0  0  0  0  0
   94.3238  132.2775  119.3101 C   0  0  1  0  0  0  0  0  0  0  0  0
   95.3557  132.9367  120.2225 C   0  0  0  0  0  0  0  0  0  0  0  0
   94.7056  130.8470  119.1340 C   0  0  0  0  0  0  0  0  0  0  0  0
   90.6295  131.7726  119.3919 C   0  0  0  0  0  0  0  0  0  0  0  0
   92.5783  135.5710  122.0775 C   0  0  0  0  0  0  0  0  0  0  0  0
   94.4069  133.0301  117.9872 C   0  0  0  0  0  0  0  0  0  0  0  0
   89.5324  131.2362  118.6136 C   0  0  0  0  0  0  0  0  0  0  0  0
   88.2336  129.4326  115.7561 C   0  0  0  0  0  0  0  0  0  0  0  0
   88.5811  128.0262  115.8065 C   0  0  0  0  0  0  0  0  0  0  0  0
   87.6239  127.0494  115.8220 C   0  0  0  0  0  0  0  0  0  0  0  0
   87.9403  125.6973  115.8667 C   0  0  0  0  0  0  0  0  0  0  0  0
   89.2612  125.3408  115.8962 C   0  0  0  0  0  0  0  0  0  0  0  0
   90.2470  126.2796  115.8824 C   0  0  0  0  0  0  0  0  0  0  0  0
   89.9021  127.6367  115.8371 C   0  0  0  0  0  0  0  0  0  0  0  0
   87.5790  130.5326  117.8976 C   0  0  0  0  0  0  0  0  0  0  0  0
   88.1993  131.2245  118.9502 C   0  0  0  0  0  0  0  0  0  0  0  0
   87.4616  131.7238  120.0035 C   0  0  0  0  0  0  0  0  0  0  0  0
   86.0932  131.5241  120.0023 C   0  0  0  0  0  0  0  0  0  0  0  0
   85.4705  130.8460  118.9803 C   0  0  0  0  0  0  0  0  0  0  0  0
   86.2172  130.3538  117.9329 C   0  0  0  0  0  0  0  0  0  0  0  0
   89.5750  124.0058  115.9404 F   0  0  0  0  0  0  0  0  0  0  0  0
   89.6687  130.5841  117.4235 N   0  0  0  0  0  0  0  0  0  0  0  0
   88.5114  130.1611  116.9893 N   0  0  0  0  0  0  0  0  0  0  0  0
   90.3465  132.0633  120.6242 O   0  0  0  0  0  0  0  0  0  0  0  0
   92.9409  134.2554  121.7086 O   0  0  0  0  0  0  0  0  0  0  0  0
  2  1  1  6
  8  1  1  0
  2  3  1  0
  2  5  1  0
  3  4  2  0
  3 29  1  0
  5  6  1  1
  5  7  1  0
  5 10  1  0
 11  8  1  0
  8 28  2  0
 29  9  1  0
 20 11  1  0
 11 26  2  0
 12 13  1  0
 27 12  1  0
 13 14  2  0
 13 18  1  0
 14 15  1  0
 15 16  2  0
 17 16  1  0
 16 25  1  0
 18 17  2  0
 19 20  2  0
 19 24  1  0
 19 27  1  0
 20 21  1  0
 21 22  2  0
 22 23  1  0
 23 24  2  0
 26 27  1  0
M  END
$$$$
