
     RDKit          3D

 29 31  0  0  0  0  0  0  0  0999 V2000
   89.7099  134.9093  120.0264 N   0  0  0  0  0  0  0  0  0  0  0  0
   89.6557  136.1839  120.7332 C   0  0  2  0  0  0  0  0  0  0  0  0
   88.4258  136.3256  121.5198 C   0  0  0  0  0  0  0  0  0  0  0  0
   87.3364  135.9476  121.0274 O   0  0  0  0  0  0  0  0  0  0  0  0
   89.8764  137.3004  119.7449 C   0  0  1  0  0  0  0  0  0  0  0  0
   89.9125  138.6023  120.5421 C   0  0  0  0  0  0  0  0  0  0  0  0
   91.1464  137.1941  118.9708 C   0  0  0  0  0  0  0  0  0  0  0  0
   89.7917  133.6760  120.6517 C   0  0  0  0  0  0  0  0  0  0  0  0
   87.1894  136.9132  123.4909 C   0  0  0  0  0  0  0  0  0  0  0  0
   88.6784  137.4254  118.8109 C   0  0  0  0  0  0  0  0  0  0  0  0
   89.9930  132.3571  120.0886 C   0  0  0  0  0  0  0  0  0  0  0  0
   90.9373  130.1621  117.3690 C   0  0  0  0  0  0  0  0  0  0  0  0
   92.3693  130.1299  117.1460 C   0  0  0  0  0  0  0  0  0  0  0  0
   93.1038  131.2771  117.0245 C   0  0  0  0  0  0  0  0  0  0  0  0
   94.4770  131.2635  116.8139 C   0  0  0  0  0  0  0  0  0  0  0  0
   95.1078  130.0522  116.7264 C   0  0  0  0  0  0  0  0  0  0  0  0
   94.4161  128.8853  116.8413 C   0  0  0  0  0  0  0  0  0  0  0  0
   93.0319  128.9257  117.0534 C   0  0  0  0  0  0  0  0  0  0  0  0
   90.2549  130.2001  119.7686 C   0  0  0  0  0  0  0  0  0  0  0  0
   89.8995  131.1497  120.7399 C   0  0  0  0  0  0  0  0  0  0  0  0
   89.5484  130.7621  122.0164 C   0  0  0  0  0  0  0  0  0  0  0  0
   89.5579  129.4133  122.3212 C   0  0  0  0  0  0  0  0  0  0  0  0
   89.9064  128.4705  121.3821 C   0  0  0  0  0  0  0  0  0  0  0  0
   90.2530  128.8693  120.1102 C   0  0  0  0  0  0  0  0  0  0  0  0
   96.4640  130.0373  116.5185 F   0  0  0  0  0  0  0  0  0  0  0  0
   90.3812  132.1104  118.8046 N   0  0  0  0  0  0  0  0  0  0  0  0
   90.5401  130.8292  118.6044 N   0  0  0  0  0  0  0  0  0  0  0  0
   89.6619  133.7153  121.9419 O   0  0  0  0  0  0  0  0  0  0  0  0
   88.4168  136.8627  122.7914 O   0  0  0  0  0  0  0  0  0  0  0  0
  2  1  1  6
  8  1  1  0
  2  3  1  0
  2  5  1  0
  3  4  2  0
  3 29  1  0
  5  6  1  1
  5  7  1  0
  5 10  1  0
 11  8  1  0
  8 28  2  0
 29  9  1  0
 20 11  1  0
 11 26  2  0
 12 13  1  0
 27 12  1  0
 13 14  2  0
 13 18  1  0
 14 15  1  0
 15 16  2  0
 17 16  1  0
 16 25  1  0
 18 17  2  0
 19 20  2  0
 19 24  1  0
 19 27  1  0
 20 21  1  0
 21 22  2  0
 22 23  1  0
 23 24  2  0
 26 27  1  0
M  END
$$$$
