
     RDKit          3D

 16 17  0  0  0  0  0  0  0  0999 V2000
   50.5774  -29.2302  -97.0168 C   0  0  0  0  0  0  0  0  0  0  0  0
   48.6434  -25.9456  -95.2260 C   0  0  0  0  0  0  0  0  0  0  0  0
   46.8150  -26.1275  -96.7555 C   0  0  0  0  0  0  0  0  0  0  0  0
   46.8002  -31.8825  -97.8378 C   0  0  0  0  0  0  0  0  0  0  0  0
   47.5041  -31.8001  -95.5656 C   0  0  0  0  0  0  0  0  0  0  0  0
   49.2002  -27.0883  -95.7609 C   0  0  0  0  0  0  0  0  0  0  0  0
   47.3815  -27.2626  -97.2770 C   0  0  0  0  0  0  0  0  0  0  0  0
   47.5703  -30.7608  -98.1330 C   0  0  0  0  0  0  0  0  0  0  0  0
   48.2746  -30.6896  -95.8289 C   0  0  0  0  0  0  0  0  0  0  0  0
   47.4428  -25.4600  -95.7250 C   0  0  0  0  0  0  0  0  0  0  0  0
   46.7677  -32.3974  -96.5647 C   0  0  0  0  0  0  0  0  0  0  0  0
   48.5770  -27.7590  -96.7908 C   0  0  0  0  0  0  0  0  0  0  0  0
   48.3004  -30.1817  -97.1070 C   0  0  0  0  0  0  0  0  0  0  0  0
   49.1354  -28.9804  -97.3898 C   0  0  2  0  0  0  0  0  0  0  0  0
   46.9170  -24.3018  -95.1538 O   0  0  0  0  0  0  0  0  0  0  0  0
   45.9931  -33.5292  -96.2580 O   0  0  0  0  0  0  0  0  0  0  0  0
 14  1  1  1
  6  2  2  0
  2 10  1  0
  7  3  1  0
  3 10  2  0
  8  4  2  0
  4 11  1  0
  9  5  1  0
  5 11  2  0
 12  6  1  0
 12  7  2  0
 13  8  1  0
 13  9  2  0
 10 15  1  0
 11 16  1  0
 14 12  1  0
 13 14  1  0
M  END
$$$$
