
     RDKit          3D

 16 17  0  0  0  0  0  0  0  0999 V2000
   49.7101  -29.4283  -95.3878 C   0  0  0  0  0  0  0  0  0  0  0  0
   47.3355  -30.5173  -99.3188 C   0  0  0  0  0  0  0  0  0  0  0  0
   49.3418  -29.2723  -99.6932 C   0  0  0  0  0  0  0  0  0  0  0  0
   48.9041  -25.4278  -94.9130 C   0  0  0  0  0  0  0  0  0  0  0  0
   47.0519  -25.5179  -96.4051 C   0  0  0  0  0  0  0  0  0  0  0  0
   47.3680  -30.1626  -97.9865 C   0  0  0  0  0  0  0  0  0  0  0  0
   49.3602  -28.9282  -98.3656 C   0  0  0  0  0  0  0  0  0  0  0  0
   49.1106  -26.7966  -95.0622 C   0  0  0  0  0  0  0  0  0  0  0  0
   47.2327  -26.8728  -96.5715 C   0  0  0  0  0  0  0  0  0  0  0  0
   48.3279  -30.0704 -100.1799 C   0  0  0  0  0  0  0  0  0  0  0  0
   47.8833  -24.7944  -95.5790 C   0  0  0  0  0  0  0  0  0  0  0  0
   48.3788  -29.3654  -97.4951 C   0  0  0  0  0  0  0  0  0  0  0  0
   48.2578  -27.4978  -95.9002 C   0  0  0  0  0  0  0  0  0  0  0  0
   48.4519  -28.9639  -96.0823 C   0  0  2  0  0  0  0  0  0  0  0  0
   48.2548  -30.4538 -101.5185 O   0  0  0  0  0  0  0  0  0  0  0  0
   47.6679  -23.4132  -95.4340 O   0  0  0  0  0  0  0  0  0  0  0  0
 14  1  1  6
  6  2  2  0
  2 10  1  0
  7  3  1  0
  3 10  2  0
  8  4  2  0
  4 11  1  0
  9  5  1  0
  5 11  2  0
 12  6  1  0
 12  7  2  0
 13  8  1  0
 13  9  2  0
 10 15  1  0
 11 16  1  0
 14 12  1  0
 13 14  1  0
M  END
$$$$
