
     RDKit          3D

 16 17  0  0  0  0  0  0  0  0999 V2000
   48.1521  -29.7773  -95.7766 C   0  0  0  0  0  0  0  0  0  0  0  0
   47.0075  -25.4977  -96.4266 C   0  0  0  0  0  0  0  0  0  0  0  0
   49.0385  -25.2947  -95.1819 C   0  0  0  0  0  0  0  0  0  0  0  0
   47.4968  -29.6993  -99.9432 C   0  0  0  0  0  0  0  0  0  0  0  0
   49.8182  -29.2293 -100.1787 C   0  0  0  0  0  0  0  0  0  0  0  0
   47.3339  -26.8003  -96.7404 C   0  0  0  0  0  0  0  0  0  0  0  0
   49.3491  -26.5917  -95.5027 C   0  0  0  0  0  0  0  0  0  0  0  0
   47.5634  -29.4228  -98.5803 C   0  0  0  0  0  0  0  0  0  0  0  0
   49.9134  -28.9500  -98.8337 C   0  0  0  0  0  0  0  0  0  0  0  0
   47.8639  -24.7378  -95.6422 C   0  0  0  0  0  0  0  0  0  0  0  0
   48.6150  -29.6032 -100.7353 C   0  0  0  0  0  0  0  0  0  0  0  0
   48.5063  -27.3617  -96.2831 C   0  0  0  0  0  0  0  0  0  0  0  0
   48.7879  -29.0492  -98.0491 C   0  0  0  0  0  0  0  0  0  0  0  0
   48.8932  -28.7459  -96.5941 C   0  0  2  0  0  0  0  0  0  0  0  0
   47.4933  -23.4258  -95.3501 O   0  0  0  0  0  0  0  0  0  0  0  0
   48.5566  -29.8804 -102.1118 O   0  0  0  0  0  0  0  0  0  0  0  0
 14  1  1  1
  6  2  2  0
  2 10  1  0
  7  3  1  0
  3 10  2  0
  8  4  2  0
  4 11  1  0
  9  5  1  0
  5 11  2  0
 12  6  1  0
 12  7  2  0
 13  8  1  0
 13  9  2  0
 10 15  1  0
 11 16  1  0
 14 12  1  0
 13 14  1  0
M  END
$$$$
