
     RDKit          3D

 16 17  0  0  0  0  0  0  0  0999 V2000
   46.8471  -29.8218  -96.2011 C   0  0  0  0  0  0  0  0  0  0  0  0
   46.9221  -25.5178  -96.3100 C   0  0  0  0  0  0  0  0  0  0  0  0
   49.0394  -25.6800  -95.2117 C   0  0  0  0  0  0  0  0  0  0  0  0
   48.3537  -29.2463 -100.2106 C   0  0  0  0  0  0  0  0  0  0  0  0
   50.3013  -30.2434  -99.2738 C   0  0  0  0  0  0  0  0  0  0  0  0
   46.9686  -26.8671  -96.5915 C   0  0  0  0  0  0  0  0  0  0  0  0
   49.0709  -27.0208  -95.4993 C   0  0  0  0  0  0  0  0  0  0  0  0
   47.8626  -28.9722  -98.9370 C   0  0  0  0  0  0  0  0  0  0  0  0
   49.8402  -29.9849  -98.0022 C   0  0  0  0  0  0  0  0  0  0  0  0
   47.9634  -24.9180  -95.6156 C   0  0  0  0  0  0  0  0  0  0  0  0
   49.5628  -29.8766 -100.3770 C   0  0  0  0  0  0  0  0  0  0  0  0
   48.0415  -27.6331  -96.1902 C   0  0  0  0  0  0  0  0  0  0  0  0
   48.6282  -29.3533  -97.8462 C   0  0  0  0  0  0  0  0  0  0  0  0
   48.1316  -29.0740  -96.4695 C   0  0  2  0  0  0  0  0  0  0  0  0
   47.8739  -23.5515  -95.3533 O   0  0  0  0  0  0  0  0  0  0  0  0
   50.0658  -30.1571 -101.6590 O   0  0  0  0  0  0  0  0  0  0  0  0
 14  1  1  6
  6  2  2  0
  2 10  1  0
  7  3  1  0
  3 10  2  0
  8  4  2  0
  4 11  1  0
  9  5  1  0
  5 11  2  0
 12  6  1  0
 12  7  2  0
 13  8  1  0
 13  9  2  0
 10 15  1  0
 11 16  1  0
 14 12  1  0
 13 14  1  0
M  END
$$$$
