
     RDKit          3D

 16 17  0  0  0  0  0  0  0  0999 V2000
   48.3571  -29.6465  -95.7940 C   0  0  0  0  0  0  0  0  0  0  0  0
   47.0048  -25.4183  -96.6576 C   0  0  0  0  0  0  0  0  0  0  0  0
   48.9883  -25.1546  -95.3493 C   0  0  0  0  0  0  0  0  0  0  0  0
   47.3748  -29.9415  -99.8539 C   0  0  0  0  0  0  0  0  0  0  0  0
   49.5421  -29.1102 -100.3800 C   0  0  0  0  0  0  0  0  0  0  0  0
   47.3708  -26.7167  -96.9445 C   0  0  0  0  0  0  0  0  0  0  0  0
   49.3385  -26.4477  -95.6438 C   0  0  0  0  0  0  0  0  0  0  0  0
   47.5505  -29.5972  -98.5164 C   0  0  0  0  0  0  0  0  0  0  0  0
   49.7433  -28.7592  -99.0637 C   0  0  0  0  0  0  0  0  0  0  0  0
   47.8174  -24.6300  -95.8548 C   0  0  0  0  0  0  0  0  0  0  0  0
   48.3625  -29.6999 -100.7775 C   0  0  0  0  0  0  0  0  0  0  0  0
   48.5397  -27.2457  -96.4419 C   0  0  0  0  0  0  0  0  0  0  0  0
   48.7480  -29.0054  -98.1466 C   0  0  0  0  0  0  0  0  0  0  0  0
   48.9677  -28.6242  -96.7230 C   0  0  2  0  0  0  0  0  0  0  0  0
   47.4078  -23.3236  -95.5912 O   0  0  0  0  0  0  0  0  0  0  0  0
   48.1933  -30.0442 -102.1294 O   0  0  0  0  0  0  0  0  0  0  0  0
 14  1  1  1
  6  2  2  0
  2 10  1  0
  7  3  1  0
  3 10  2  0
  8  4  2  0
  4 11  1  0
  9  5  1  0
  5 11  2  0
 12  6  1  0
 12  7  2  0
 13  8  1  0
 13  9  2  0
 10 15  1  0
 11 16  1  0
 14 12  1  0
 13 14  1  0
M  END
$$$$
