
     RDKit          3D

 16 17  0  0  0  0  0  0  0  0999 V2000
   49.5242  -29.0465  -98.6420 C   0  0  0  0  0  0  0  0  0  0  0  0
   48.8783  -25.9273  -95.5808 C   0  0  0  0  0  0  0  0  0  0  0  0
   46.8024  -25.7513  -96.7535 C   0  0  0  0  0  0  0  0  0  0  0  0
   49.8077  -31.4832  -95.2401 C   0  0  0  0  0  0  0  0  0  0  0  0
   47.4499  -31.7898  -95.3502 C   0  0  0  0  0  0  0  0  0  0  0  0
   49.0958  -27.1609  -96.1577 C   0  0  0  0  0  0  0  0  0  0  0  0
   47.0331  -26.9794  -97.3192 C   0  0  0  0  0  0  0  0  0  0  0  0
   49.7323  -30.4502  -96.1705 C   0  0  0  0  0  0  0  0  0  0  0  0
   47.3456  -30.7719  -96.2718 C   0  0  0  0  0  0  0  0  0  0  0  0
   47.7246  -25.2158  -95.8791 C   0  0  0  0  0  0  0  0  0  0  0  0
   48.6758  -32.1470  -94.8338 C   0  0  0  0  0  0  0  0  0  0  0  0
   48.1776  -27.7005  -97.0321 C   0  0  0  0  0  0  0  0  0  0  0  0
   48.4850  -30.1134  -96.6722 C   0  0  0  0  0  0  0  0  0  0  0  0
   48.3696  -29.0119  -97.6691 C   0  0  2  0  0  0  0  0  0  0  0  0
   47.5465  -23.9730  -95.2726 O   0  0  0  0  0  0  0  0  0  0  0  0
   48.7430  -33.1909  -93.8951 O   0  0  0  0  0  0  0  0  0  0  0  0
 14  1  1  1
  6  2  2  0
  2 10  1  0
  7  3  1  0
  3 10  2  0
  8  4  2  0
  4 11  1  0
  9  5  1  0
  5 11  2  0
 12  6  1  0
 12  7  2  0
 13  8  1  0
 13  9  2  0
 10 15  1  0
 11 16  1  0
 14 12  1  0
 13 14  1  0
M  END
$$$$
