
     RDKit          3D

 16 17  0  0  0  0  0  0  0  0999 V2000
   48.5305  -29.1583  -98.8103 C   0  0  0  0  0  0  0  0  0  0  0  0
   49.8140  -31.7630  -95.0441 C   0  0  0  0  0  0  0  0  0  0  0  0
   47.4726  -31.6827  -95.5206 C   0  0  0  0  0  0  0  0  0  0  0  0
   48.9206  -25.8587  -95.3234 C   0  0  0  0  0  0  0  0  0  0  0  0
   46.9827  -25.9877  -96.6993 C   0  0  0  0  0  0  0  0  0  0  0  0
   50.0177  -30.6853  -95.8802 C   0  0  0  0  0  0  0  0  0  0  0  0
   47.6914  -30.6115  -96.3488 C   0  0  0  0  0  0  0  0  0  0  0  0
   49.4057  -27.0443  -95.8690 C   0  0  0  0  0  0  0  0  0  0  0  0
   47.4380  -27.1619  -97.2563 C   0  0  0  0  0  0  0  0  0  0  0  0
   48.5338  -32.2669  -94.8615 C   0  0  0  0  0  0  0  0  0  0  0  0
   47.7193  -25.3353  -95.7354 C   0  0  0  0  0  0  0  0  0  0  0  0
   48.9608  -30.0979  -96.5411 C   0  0  0  0  0  0  0  0  0  0  0  0
   48.6422  -27.6778  -96.8369 C   0  0  0  0  0  0  0  0  0  0  0  0
   49.1332  -28.9481  -97.4415 C   0  0  2  0  0  0  0  0  0  0  0  0
   48.3751  -33.3574  -94.0072 O   0  0  0  0  0  0  0  0  0  0  0  0
   47.2223  -24.1393  -95.1900 O   0  0  0  0  0  0  0  0  0  0  0  0
 14  1  1  6
  6  2  2  0
  2 10  1  0
  7  3  1  0
  3 10  2  0
  8  4  2  0
  4 11  1  0
  9  5  1  0
  5 11  2  0
 12  6  1  0
 12  7  2  0
 13  8  1  0
 13  9  2  0
 10 15  1  0
 11 16  1  0
 14 12  1  0
 13 14  1  0
M  END
$$$$
