
     RDKit          3D

 16 17  0  0  0  0  0  0  0  0999 V2000
   49.9929  -29.5169  -98.4576 C   0  0  0  0  0  0  0  0  0  0  0  0
   48.7596  -26.2121  -95.7655 C   0  0  0  0  0  0  0  0  0  0  0  0
   46.9054  -26.2450  -97.2742 C   0  0  0  0  0  0  0  0  0  0  0  0
   50.0583  -31.6822  -94.8925 C   0  0  0  0  0  0  0  0  0  0  0  0
   47.7077  -32.0079  -95.0767 C   0  0  0  0  0  0  0  0  0  0  0  0
   49.1202  -27.4750  -96.1864 C   0  0  0  0  0  0  0  0  0  0  0  0
   47.2769  -27.5007  -97.6824 C   0  0  0  0  0  0  0  0  0  0  0  0
   50.0257  -30.7506  -95.9267 C   0  0  0  0  0  0  0  0  0  0  0  0
   47.6459  -31.0906  -96.1019 C   0  0  0  0  0  0  0  0  0  0  0  0
   47.6451  -25.5910  -96.3116 C   0  0  0  0  0  0  0  0  0  0  0  0
   48.9087  -32.3053  -94.4715 C   0  0  0  0  0  0  0  0  0  0  0  0
   48.3845  -28.1329  -97.1481 C   0  0  0  0  0  0  0  0  0  0  0  0
   48.8026  -30.4721  -96.5162 C   0  0  0  0  0  0  0  0  0  0  0  0
   48.7332  -29.4795  -97.6252 C   0  0  2  0  0  0  0  0  0  0  0  0
   47.3180  -24.3144  -95.8559 O   0  0  0  0  0  0  0  0  0  0  0  0
   48.9326  -33.2468  -93.4284 O   0  0  0  0  0  0  0  0  0  0  0  0
 14  1  1  1
  6  2  2  0
  2 10  1  0
  7  3  1  0
  3 10  2  0
  8  4  2  0
  4 11  1  0
  9  5  1  0
  5 11  2  0
 12  6  1  0
 12  7  2  0
 13  8  1  0
 13  9  2  0
 10 15  1  0
 11 16  1  0
 14 12  1  0
 13 14  1  0
M  END
$$$$
