
     RDKit          3D

 16 17  0  0  0  0  0  0  0  0999 V2000
   49.4262  -29.0444  -98.9176 C   0  0  0  0  0  0  0  0  0  0  0  0
   46.8993  -25.6917  -96.9125 C   0  0  0  0  0  0  0  0  0  0  0  0
   48.9738  -25.9999  -95.7649 C   0  0  0  0  0  0  0  0  0  0  0  0
   50.0916  -31.3580  -95.4834 C   0  0  0  0  0  0  0  0  0  0  0  0
   47.7487  -31.7667  -95.3903 C   0  0  0  0  0  0  0  0  0  0  0  0
   47.0492  -26.9265  -97.5081 C   0  0  0  0  0  0  0  0  0  0  0  0
   49.1085  -27.2258  -96.3653 C   0  0  0  0  0  0  0  0  0  0  0  0
   49.8952  -30.3593  -96.4334 C   0  0  0  0  0  0  0  0  0  0  0  0
   47.5248  -30.7842  -96.3288 C   0  0  0  0  0  0  0  0  0  0  0  0
   47.8668  -25.2231  -96.0347 C   0  0  0  0  0  0  0  0  0  0  0  0
   49.0270  -32.0554  -94.9665 C   0  0  0  0  0  0  0  0  0  0  0  0
   48.1535  -27.7067  -97.2420 C   0  0  0  0  0  0  0  0  0  0  0  0
   48.5976  -30.0915  -96.8402 C   0  0  0  0  0  0  0  0  0  0  0  0
   48.3529  -29.0283  -97.8551 C   0  0  2  0  0  0  0  0  0  0  0  0
   47.6737  -23.9693  -95.4560 O   0  0  0  0  0  0  0  0  0  0  0  0
   49.2164  -33.0649  -94.0073 O   0  0  0  0  0  0  0  0  0  0  0  0
 14  1  1  6
  6  2  2  0
  2 10  1  0
  7  3  1  0
  3 10  2  0
  8  4  2  0
  4 11  1  0
  9  5  1  0
  5 11  2  0
 12  6  1  0
 12  7  2  0
 13  8  1  0
 13  9  2  0
 10 15  1  0
 11 16  1  0
 14 12  1  0
 13 14  1  0
M  END
$$$$
