
     RDKit          3D

 16 17  0  0  0  0  0  0  0  0999 V2000
   48.2371  -29.6689  -95.3612 C   0  0  0  0  0  0  0  0  0  0  0  0
   47.0177  -25.4130  -96.2890 C   0  0  0  0  0  0  0  0  0  0  0  0
   48.9066  -25.1919  -94.8403 C   0  0  0  0  0  0  0  0  0  0  0  0
   49.7822  -29.4114  -99.8119 C   0  0  0  0  0  0  0  0  0  0  0  0
   47.4339  -29.6557  -99.5105 C   0  0  0  0  0  0  0  0  0  0  0  0
   47.3816  -26.7155  -96.5592 C   0  0  0  0  0  0  0  0  0  0  0  0
   49.2554  -26.4889  -95.1190 C   0  0  0  0  0  0  0  0  0  0  0  0
   49.9334  -29.0624  -98.4726 C   0  0  0  0  0  0  0  0  0  0  0  0
   47.5538  -29.3136  -98.1820 C   0  0  0  0  0  0  0  0  0  0  0  0
   47.7838  -24.6440  -95.4241 C   0  0  0  0  0  0  0  0  0  0  0  0
   48.5428  -29.7055 -100.3260 C   0  0  0  0  0  0  0  0  0  0  0  0
   48.5026  -27.2678  -95.9785 C   0  0  0  0  0  0  0  0  0  0  0  0
   48.7993  -29.0209  -97.6769 C   0  0  0  0  0  0  0  0  0  0  0  0
   48.9266  -28.6516  -96.2390 C   0  0  2  0  0  0  0  0  0  0  0  0
   47.3782  -23.3325  -95.1803 O   0  0  0  0  0  0  0  0  0  0  0  0
   48.3814  -30.0587 -101.6767 O   0  0  0  0  0  0  0  0  0  0  0  0
 14  1  1  1
  6  2  2  0
  2 10  1  0
  7  3  1  0
  3 10  2  0
  8  4  2  0
  4 11  1  0
  9  5  1  0
  5 11  2  0
 12  6  1  0
 12  7  2  0
 13  8  1  0
 13  9  2  0
 10 15  1  0
 11 16  1  0
 14 12  1  0
 13 14  1  0
M  END
$$$$
