
     RDKit          3D

 16 17  0  0  0  0  0  0  0  0999 V2000
   49.1406  -29.6346  -95.6031 C   0  0  0  0  0  0  0  0  0  0  0  0
   49.7044  -30.0368  -99.7709 C   0  0  0  0  0  0  0  0  0  0  0  0
   47.4019  -29.5180 -100.1511 C   0  0  0  0  0  0  0  0  0  0  0  0
   48.9003  -25.5129  -95.4511 C   0  0  0  0  0  0  0  0  0  0  0  0
   46.7504  -25.5442  -96.4721 C   0  0  0  0  0  0  0  0  0  0  0  0
   49.5454  -29.7460  -98.4322 C   0  0  0  0  0  0  0  0  0  0  0  0
   47.2597  -29.2323  -98.8171 C   0  0  0  0  0  0  0  0  0  0  0  0
   49.0359  -26.8829  -95.6590 C   0  0  0  0  0  0  0  0  0  0  0  0
   46.8575  -26.8996  -96.6906 C   0  0  0  0  0  0  0  0  0  0  0  0
   48.6269  -29.9228 -100.6382 C   0  0  0  0  0  0  0  0  0  0  0  0
   47.7669  -24.8497  -95.8544 C   0  0  0  0  0  0  0  0  0  0  0  0
   48.3235  -29.3411  -97.9404 C   0  0  0  0  0  0  0  0  0  0  0  0
   47.9964  -27.5545  -96.2830 C   0  0  0  0  0  0  0  0  0  0  0  0
   48.1102  -29.0210  -96.5211 C   0  0  2  0  0  0  0  0  0  0  0  0
   48.8338  -30.2270 -101.9830 O   0  0  0  0  0  0  0  0  0  0  0  0
   47.6219  -23.4671  -95.6484 O   0  0  0  0  0  0  0  0  0  0  0  0
 14  1  1  1
  6  2  2  0
  2 10  1  0
  7  3  1  0
  3 10  2  0
  8  4  2  0
  4 11  1  0
  9  5  1  0
  5 11  2  0
 12  6  1  0
 12  7  2  0
 13  8  1  0
 13  9  2  0
 10 15  1  0
 11 16  1  0
 14 12  1  0
 13 14  1  0
M  END
$$$$
