
     RDKit          3D

 16 17  0  0  0  0  0  0  0  0999 V2000
   47.4669  -29.0416  -98.9433 C   0  0  0  0  0  0  0  0  0  0  0  0
   48.7809  -31.2976  -95.3139 C   0  0  0  0  0  0  0  0  0  0  0  0
   50.6442  -31.5969  -96.7815 C   0  0  0  0  0  0  0  0  0  0  0  0
   49.1360  -25.5213  -96.1415 C   0  0  0  0  0  0  0  0  0  0  0  0
   46.8154  -26.0498  -96.1680 C   0  0  0  0  0  0  0  0  0  0  0  0
   48.3517  -30.2349  -96.0810 C   0  0  0  0  0  0  0  0  0  0  0  0
   50.2044  -30.5379  -97.5342 C   0  0  0  0  0  0  0  0  0  0  0  0
   49.4208  -26.6655  -96.8820 C   0  0  0  0  0  0  0  0  0  0  0  0
   47.0678  -27.1881  -96.9008 C   0  0  0  0  0  0  0  0  0  0  0  0
   49.9346  -31.9847  -95.6645 C   0  0  0  0  0  0  0  0  0  0  0  0
   47.8442  -25.2166  -95.7877 C   0  0  0  0  0  0  0  0  0  0  0  0
   49.0571  -29.8432  -97.1981 C   0  0  0  0  0  0  0  0  0  0  0  0
   48.3648  -27.4844  -97.2500 C   0  0  0  0  0  0  0  0  0  0  0  0
   48.6354  -28.7163  -98.0434 C   0  0  2  0  0  0  0  0  0  0  0  0
   50.3308  -33.0524  -94.8599 O   0  0  0  0  0  0  0  0  0  0  0  0
   47.5480  -24.0638  -95.0404 O   0  0  0  0  0  0  0  0  0  0  0  0
 14  1  1  1
  6  2  2  0
  2 10  1  0
  7  3  1  0
  3 10  2  0
  8  4  2  0
  4 11  1  0
  9  5  1  0
  5 11  2  0
 12  6  1  0
 12  7  2  0
 13  8  1  0
 13  9  2  0
 10 15  1  0
 11 16  1  0
 14 12  1  0
 13 14  1  0
M  END
$$$$
