
     RDKit          3D

 16 17  0  0  0  0  0  0  0  0999 V2000
   48.8932  -29.0988  -99.0038 C   0  0  0  0  0  0  0  0  0  0  0  0
   49.6232  -31.7948  -95.1675 C   0  0  0  0  0  0  0  0  0  0  0  0
   47.3474  -31.5934  -95.8714 C   0  0  0  0  0  0  0  0  0  0  0  0
   47.0492  -26.0129  -96.8596 C   0  0  0  0  0  0  0  0  0  0  0  0
   49.0682  -25.7330  -95.6306 C   0  0  0  0  0  0  0  0  0  0  0  0
   49.9598  -30.7165  -95.9585 C   0  0  0  0  0  0  0  0  0  0  0  0
   47.6979  -30.5223  -96.6533 C   0  0  0  0  0  0  0  0  0  0  0  0
   47.5210  -27.2098  -97.3918 C   0  0  0  0  0  0  0  0  0  0  0  0
   49.5603  -26.9133  -96.1414 C   0  0  0  0  0  0  0  0  0  0  0  0
   48.3088  -32.2381  -95.1220 C   0  0  0  0  0  0  0  0  0  0  0  0
   47.8167  -25.2811  -95.9864 C   0  0  0  0  0  0  0  0  0  0  0  0
   49.0030  -30.0687  -96.7094 C   0  0  0  0  0  0  0  0  0  0  0  0
   48.7840  -27.6388  -97.0151 C   0  0  0  0  0  0  0  0  0  0  0  0
   49.3183  -28.9159  -97.5661 C   0  0  2  0  0  0  0  0  0  0  0  0
   48.0144  -33.3316  -94.3086 O   0  0  0  0  0  0  0  0  0  0  0  0
   47.3482  -24.0720  -95.4446 O   0  0  0  0  0  0  0  0  0  0  0  0
 14  1  1  6
  6  2  2  0
  2 10  1  0
  7  3  1  0
  3 10  2  0
  8  4  2  0
  4 11  1  0
  9  5  1  0
  5 11  2  0
 12  6  1  0
 12  7  2  0
 13  8  1  0
 13  9  2  0
 10 15  1  0
 11 16  1  0
 14 12  1  0
 13 14  1  0
M  END
$$$$
