
     RDKit          3D

 16 17  0  0  0  0  0  0  0  0999 V2000
   48.3259  -29.8531  -95.7364 C   0  0  0  0  0  0  0  0  0  0  0  0
   48.8285  -25.3034  -95.3295 C   0  0  0  0  0  0  0  0  0  0  0  0
   46.8632  -25.7200  -96.6255 C   0  0  0  0  0  0  0  0  0  0  0  0
   49.4592  -29.2238 -100.3461 C   0  0  0  0  0  0  0  0  0  0  0  0
   47.3564  -30.1684  -99.7538 C   0  0  0  0  0  0  0  0  0  0  0  0
   49.2646  -26.5867  -95.5845 C   0  0  0  0  0  0  0  0  0  0  0  0
   47.3106  -26.9934  -96.8701 C   0  0  0  0  0  0  0  0  0  0  0  0
   49.6911  -28.8697  -99.0197 C   0  0  0  0  0  0  0  0  0  0  0  0
   47.5592  -29.8301  -98.4344 C   0  0  0  0  0  0  0  0  0  0  0  0
   47.6200  -24.8649  -95.8524 C   0  0  0  0  0  0  0  0  0  0  0  0
   48.3015  -29.8677 -100.7095 C   0  0  0  0  0  0  0  0  0  0  0  0
   48.5122  -27.4452  -96.3563 C   0  0  0  0  0  0  0  0  0  0  0  0
   48.7217  -29.1855  -98.0808 C   0  0  0  0  0  0  0  0  0  0  0  0
   48.9393  -28.8209  -96.6525 C   0  0  2  0  0  0  0  0  0  0  0  0
   47.2189  -23.5600  -95.5688 O   0  0  0  0  0  0  0  0  0  0  0  0
   48.0595  -30.2288 -102.0460 O   0  0  0  0  0  0  0  0  0  0  0  0
 14  1  1  1
  6  2  2  0
  2 10  1  0
  7  3  1  0
  3 10  2  0
  8  4  2  0
  4 11  1  0
  9  5  1  0
  5 11  2  0
 12  6  1  0
 12  7  2  0
 13  8  1  0
 13  9  2  0
 10 15  1  0
 11 16  1  0
 14 12  1  0
 13 14  1  0
M  END
$$$$
