
     RDKit          3D

 16 17  0  0  0  0  0  0  0  0999 V2000
   49.5698  -29.0976  -98.6810 C   0  0  0  0  0  0  0  0  0  0  0  0
   49.0391  -26.0128  -95.5801 C   0  0  0  0  0  0  0  0  0  0  0  0
   46.9094  -25.8197  -96.6490 C   0  0  0  0  0  0  0  0  0  0  0  0
   49.8368  -31.5044  -95.2114 C   0  0  0  0  0  0  0  0  0  0  0  0
   47.5278  -31.9797  -95.5394 C   0  0  0  0  0  0  0  0  0  0  0  0
   49.2286  -27.2370  -96.1863 C   0  0  0  0  0  0  0  0  0  0  0  0
   47.1126  -27.0386  -97.2444 C   0  0  0  0  0  0  0  0  0  0  0  0
   49.7638  -30.4487  -96.1161 C   0  0  0  0  0  0  0  0  0  0  0  0
   47.4264  -30.9415  -96.4384 C   0  0  0  0  0  0  0  0  0  0  0  0
   47.8725  -25.2975  -95.8115 C   0  0  0  0  0  0  0  0  0  0  0  0
   48.7279  -32.2632  -94.9258 C   0  0  0  0  0  0  0  0  0  0  0  0
   48.2694  -27.7633  -97.0240 C   0  0  0  0  0  0  0  0  0  0  0  0
   48.5427  -30.1877  -96.7175 C   0  0  0  0  0  0  0  0  0  0  0  0
   48.4305  -29.0644  -97.6901 C   0  0  2  0  0  0  0  0  0  0  0  0
   47.7239  -24.0646  -95.1776 O   0  0  0  0  0  0  0  0  0  0  0  0
   48.7929  -33.3306  -94.0139 O   0  0  0  0  0  0  0  0  0  0  0  0
 14  1  1  1
  6  2  2  0
  2 10  1  0
  7  3  1  0
  3 10  2  0
  8  4  2  0
  4 11  1  0
  9  5  1  0
  5 11  2  0
 12  6  1  0
 12  7  2  0
 13  8  1  0
 13  9  2  0
 10 15  1  0
 11 16  1  0
 14 12  1  0
 13 14  1  0
M  END
$$$$
