
     RDKit          3D

 16 17  0  0  0  0  0  0  0  0999 V2000
   49.5993  -29.7998  -95.4142 C   0  0  0  0  0  0  0  0  0  0  0  0
   47.7818  -29.8609  -99.9460 C   0  0  0  0  0  0  0  0  0  0  0  0
   49.7844  -31.0171  -99.3394 C   0  0  0  0  0  0  0  0  0  0  0  0
   49.1858  -25.6381  -96.3961 C   0  0  0  0  0  0  0  0  0  0  0  0
   46.9477  -25.9671  -95.6563 C   0  0  0  0  0  0  0  0  0  0  0  0
   47.6473  -29.4189  -98.6466 C   0  0  0  0  0  0  0  0  0  0  0  0
   49.6368  -30.5695  -98.0512 C   0  0  0  0  0  0  0  0  0  0  0  0
   49.3676  -27.0140  -96.5074 C   0  0  0  0  0  0  0  0  0  0  0  0
   47.0992  -27.3321  -95.7570 C   0  0  0  0  0  0  0  0  0  0  0  0
   48.8567  -30.6655 -100.2972 C   0  0  0  0  0  0  0  0  0  0  0  0
   47.9858  -25.1196  -95.9741 C   0  0  0  0  0  0  0  0  0  0  0  0
   48.5715  -29.7673  -97.6857 C   0  0  0  0  0  0  0  0  0  0  0  0
   48.3048  -27.8414  -96.1805 C   0  0  0  0  0  0  0  0  0  0  0  0
   48.4662  -29.3186  -96.2892 C   0  0  2  0  0  0  0  0  0  0  0  0
   48.9523  -31.0888 -101.6222 O   0  0  0  0  0  0  0  0  0  0  0  0
   47.7939  -23.7322  -95.8591 O   0  0  0  0  0  0  0  0  0  0  0  0
 14  1  1  1
  6  2  2  0
  2 10  1  0
  7  3  1  0
  3 10  2  0
  8  4  2  0
  4 11  1  0
  9  5  1  0
  5 11  2  0
 12  6  1  0
 12  7  2  0
 13  8  1  0
 13  9  2  0
 10 15  1  0
 11 16  1  0
 14 12  1  0
 13 14  1  0
M  END
$$$$
