
     RDKit          3D

 16 17  0  0  0  0  0  0  0  0999 V2000
   49.5861  -29.2923  -95.6678 C   0  0  0  0  0  0  0  0  0  0  0  0
   49.2223  -29.1889 -100.0188 C   0  0  0  0  0  0  0  0  0  0  0  0
   47.1495  -30.3001  -99.5898 C   0  0  0  0  0  0  0  0  0  0  0  0
   48.8240  -25.2843  -95.2035 C   0  0  0  0  0  0  0  0  0  0  0  0
   46.8896  -25.3813  -96.5869 C   0  0  0  0  0  0  0  0  0  0  0  0
   49.2959  -28.8210  -98.6917 C   0  0  0  0  0  0  0  0  0  0  0  0
   47.2371  -29.9265  -98.2729 C   0  0  0  0  0  0  0  0  0  0  0  0
   49.0368  -26.6490  -95.3790 C   0  0  0  0  0  0  0  0  0  0  0  0
   47.0757  -26.7323  -96.7780 C   0  0  0  0  0  0  0  0  0  0  0  0
   48.1429  -29.9335 -100.4733 C   0  0  0  0  0  0  0  0  0  0  0  0
   47.7592  -24.6563  -95.8026 C   0  0  0  0  0  0  0  0  0  0  0  0
   48.3060  -29.1847  -97.8048 C   0  0  0  0  0  0  0  0  0  0  0  0
   48.1449  -27.3518  -96.1737 C   0  0  0  0  0  0  0  0  0  0  0  0
   48.3447  -28.8136  -96.3824 C   0  0  2  0  0  0  0  0  0  0  0  0
   48.1102  -30.2829 -101.8227 O   0  0  0  0  0  0  0  0  0  0  0  0
   47.5371  -23.2793  -95.6306 O   0  0  0  0  0  0  0  0  0  0  0  0
 14  1  1  6
  6  2  2  0
  2 10  1  0
  7  3  1  0
  3 10  2  0
  8  4  2  0
  4 11  1  0
  9  5  1  0
  5 11  2  0
 12  6  1  0
 12  7  2  0
 13  8  1  0
 13  9  2  0
 10 15  1  0
 11 16  1  0
 14 12  1  0
 13 14  1  0
M  END
$$$$
