
     RDKit          3D

 16 17  0  0  0  0  0  0  0  0999 V2000
   49.3909  -29.5222  -95.6233 C   0  0  0  0  0  0  0  0  0  0  0  0
   50.0833  -29.3900  -99.8640 C   0  0  0  0  0  0  0  0  0  0  0  0
   47.7528  -29.8580 -100.1191 C   0  0  0  0  0  0  0  0  0  0  0  0
   46.9199  -25.4682  -96.5340 C   0  0  0  0  0  0  0  0  0  0  0  0
   48.9526  -25.4689  -95.2958 C   0  0  0  0  0  0  0  0  0  0  0  0
   49.8791  -29.1190  -98.5273 C   0  0  0  0  0  0  0  0  0  0  0  0
   47.5659  -29.5853  -98.7879 C   0  0  0  0  0  0  0  0  0  0  0  0
   47.0629  -26.8275  -96.7991 C   0  0  0  0  0  0  0  0  0  0  0  0
   49.1198  -26.8134  -95.5424 C   0  0  0  0  0  0  0  0  0  0  0  0
   49.0145  -29.7622 -100.6673 C   0  0  0  0  0  0  0  0  0  0  0  0
   47.8571  -24.7951  -95.7886 C   0  0  0  0  0  0  0  0  0  0  0  0
   48.6204  -29.2133  -97.9745 C   0  0  0  0  0  0  0  0  0  0  0  0
   48.1757  -27.4783  -96.2899 C   0  0  0  0  0  0  0  0  0  0  0  0
   48.3583  -28.9332  -96.5549 C   0  0  2  0  0  0  0  0  0  0  0  0
   49.2676  -30.0265 -102.0127 O   0  0  0  0  0  0  0  0  0  0  0  0
   47.7204  -23.4232  -95.5164 O   0  0  0  0  0  0  0  0  0  0  0  0
 14  1  1  1
  6  2  2  0
  2 10  1  0
  7  3  1  0
  3 10  2  0
  8  4  2  0
  4 11  1  0
  9  5  1  0
  5 11  2  0
 12  6  1  0
 12  7  2  0
 13  8  1  0
 13  9  2  0
 10 15  1  0
 11 16  1  0
 14 12  1  0
 13 14  1  0
M  END
$$$$
