
     RDKit          3D

 16 17  0  0  0  0  0  0  0  0999 V2000
   47.0562  -30.1136  -95.9219 C   0  0  0  0  0  0  0  0  0  0  0  0
   47.0369  -25.8602  -96.6480 C   0  0  0  0  0  0  0  0  0  0  0  0
   49.1695  -25.8405  -95.5676 C   0  0  0  0  0  0  0  0  0  0  0  0
   48.3958  -29.9957 -100.0519 C   0  0  0  0  0  0  0  0  0  0  0  0
   50.3395  -30.9509  -99.0647 C   0  0  0  0  0  0  0  0  0  0  0  0
   47.1043  -27.2340  -96.7486 C   0  0  0  0  0  0  0  0  0  0  0  0
   49.2217  -27.2069  -95.6751 C   0  0  0  0  0  0  0  0  0  0  0  0
   47.9582  -29.5586  -98.8046 C   0  0  0  0  0  0  0  0  0  0  0  0
   49.9313  -30.5307  -97.8185 C   0  0  0  0  0  0  0  0  0  0  0  0
   48.0752  -25.1565  -96.0540 C   0  0  0  0  0  0  0  0  0  0  0  0
   49.5764  -30.6860 -100.1804 C   0  0  0  0  0  0  0  0  0  0  0  0
   48.1954  -27.9223  -96.2643 C   0  0  0  0  0  0  0  0  0  0  0  0
   48.7475  -29.8402  -97.7005 C   0  0  0  0  0  0  0  0  0  0  0  0
   48.3081  -29.3859  -96.3512 C   0  0  2  0  0  0  0  0  0  0  0  0
   47.9643  -23.7689  -95.9741 O   0  0  0  0  0  0  0  0  0  0  0  0
   50.0254  -31.1308 -101.4356 O   0  0  0  0  0  0  0  0  0  0  0  0
 14  1  1  6
  6  2  2  0
  2 10  1  0
  7  3  1  0
  3 10  2  0
  8  4  2  0
  4 11  1  0
  9  5  1  0
  5 11  2  0
 12  6  1  0
 12  7  2  0
 13  8  1  0
 13  9  2  0
 10 15  1  0
 11 16  1  0
 14 12  1  0
 13 14  1  0
M  END
$$$$
