
     RDKit          3D

 16 17  0  0  0  0  0  0  0  0999 V2000
   49.4205  -29.4994  -95.7630 C   0  0  0  0  0  0  0  0  0  0  0  0
   47.6448  -30.3217 -100.0422 C   0  0  0  0  0  0  0  0  0  0  0  0
   49.6442  -29.0114 -100.0717 C   0  0  0  0  0  0  0  0  0  0  0  0
   48.8106  -25.4544  -95.3643 C   0  0  0  0  0  0  0  0  0  0  0  0
   46.8177  -25.5253  -96.6636 C   0  0  0  0  0  0  0  0  0  0  0  0
   47.4932  -30.0539  -98.6979 C   0  0  0  0  0  0  0  0  0  0  0  0
   49.4795  -28.7541  -98.7345 C   0  0  0  0  0  0  0  0  0  0  0  0
   49.0170  -26.8146  -95.5785 C   0  0  0  0  0  0  0  0  0  0  0  0
   46.9966  -26.8715  -96.8918 C   0  0  0  0  0  0  0  0  0  0  0  0
   48.7268  -29.7981 -100.7360 C   0  0  0  0  0  0  0  0  0  0  0  0
   47.7201  -24.8157  -95.9025 C   0  0  0  0  0  0  0  0  0  0  0  0
   48.4070  -29.2684  -98.0294 C   0  0  0  0  0  0  0  0  0  0  0  0
   48.0918  -27.5018  -96.3485 C   0  0  0  0  0  0  0  0  0  0  0  0
   48.2837  -28.9583  -96.5973 C   0  0  2  0  0  0  0  0  0  0  0  0
   48.8399  -30.0950 -102.0936 O   0  0  0  0  0  0  0  0  0  0  0  0
   47.5043  -23.4432  -95.6912 O   0  0  0  0  0  0  0  0  0  0  0  0
 14  1  1  1
  6  2  2  0
  2 10  1  0
  7  3  1  0
  3 10  2  0
  8  4  2  0
  4 11  1  0
  9  5  1  0
  5 11  2  0
 12  6  1  0
 12  7  2  0
 13  8  1  0
 13  9  2  0
 10 15  1  0
 11 16  1  0
 14 12  1  0
 13 14  1  0
M  END
$$$$
