
     RDKit          3D

 16 17  0  0  0  0  0  0  0  0999 V2000
   48.7069  -28.8726  -98.9829 C   0  0  0  0  0  0  0  0  0  0  0  0
   47.1727  -31.7574  -96.2186 C   0  0  0  0  0  0  0  0  0  0  0  0
   49.2214  -31.5394  -95.0058 C   0  0  0  0  0  0  0  0  0  0  0  0
   48.8393  -25.6397  -95.4899 C   0  0  0  0  0  0  0  0  0  0  0  0
   46.8133  -25.9278  -96.7053 C   0  0  0  0  0  0  0  0  0  0  0  0
   47.5015  -30.6465  -96.9669 C   0  0  0  0  0  0  0  0  0  0  0  0
   49.5341  -30.4361  -95.7584 C   0  0  0  0  0  0  0  0  0  0  0  0
   49.3510  -26.8145  -96.0343 C   0  0  0  0  0  0  0  0  0  0  0  0
   47.2938  -27.0934  -97.2591 C   0  0  0  0  0  0  0  0  0  0  0  0
   48.0369  -32.2087  -95.2308 C   0  0  0  0  0  0  0  0  0  0  0  0
   47.5811  -25.2005  -95.8229 C   0  0  0  0  0  0  0  0  0  0  0  0
   48.6838  -29.9741  -96.7461 C   0  0  0  0  0  0  0  0  0  0  0  0
   48.5550  -27.5247  -96.9192 C   0  0  0  0  0  0  0  0  0  0  0  0
   49.0730  -28.7859  -97.5202 C   0  0  2  0  0  0  0  0  0  0  0  0
   47.6636  -33.3354  -94.4992 O   0  0  0  0  0  0  0  0  0  0  0  0
   47.0570  -24.0158  -95.2780 O   0  0  0  0  0  0  0  0  0  0  0  0
 14  1  1  6
  6  2  2  0
  2 10  1  0
  7  3  1  0
  3 10  2  0
  8  4  2  0
  4 11  1  0
  9  5  1  0
  5 11  2  0
 12  6  1  0
 12  7  2  0
 13  8  1  0
 13  9  2  0
 10 15  1  0
 11 16  1  0
 14 12  1  0
 13 14  1  0
M  END
$$$$
