
     RDKit          3D

 24 27  0  0  0  0  0  0  0  0999 V2000
  -23.8845   20.1858  -10.1086 C   0  0  0  0  0  0  0  0  0  0  0  0
  -21.8454   19.3660  -12.6544 C   0  0  0  0  0  0  0  0  0  0  0  0
  -20.9558   17.7513  -14.1899 C   0  0  0  0  0  0  0  0  0  0  0  0
  -20.9244   18.9272  -11.7333 C   0  0  0  0  0  0  0  0  0  0  0  0
  -24.7357   19.0199  -11.7946 C   0  0  0  0  0  0  0  0  0  0  0  0
  -25.4669   18.7368  -10.6782 C   0  0  0  0  0  0  0  0  0  0  0  0
  -22.9534   22.0828   -5.6411 C   0  0  0  0  0  0  0  0  0  0  0  0
  -21.7573   23.5156   -3.9434 N   0  0  0  0  0  0  0  0  0  0  0  0
  -22.0134   23.0168   -5.2460 C   0  0  0  0  0  0  0  0  0  0  0  0
  -21.3207   23.4235   -6.3314 N   0  0  0  0  0  0  0  0  0  0  0  0
  -21.8115   22.7708   -7.3448 N   0  0  0  0  0  0  0  0  0  0  0  0
  -22.7979   21.9457   -7.0016 C   0  0  0  0  0  0  0  0  0  0  0  0
  -23.5517   21.0765   -7.9067 C   0  0  0  0  0  0  0  0  0  0  0  0
  -24.6078   20.3470   -7.4381 C   0  0  0  0  0  0  0  0  0  0  0  0
  -25.3243   19.5247   -8.2851 C   0  0  0  0  0  0  0  0  0  0  0  0
  -24.9432   19.4595   -9.6218 C   0  0  0  0  0  0  0  0  0  0  0  0
  -23.7800   19.9058  -11.4114 N   0  0  0  0  0  0  0  0  0  0  0  0
  -22.7968   20.4381  -12.3426 C   0  0  0  0  0  0  0  0  0  0  0  0
  -21.8461   18.7596  -13.8908 C   0  0  0  0  0  0  0  0  0  0  0  0
  -20.0219   17.2950  -13.2785 C   0  0  0  0  0  0  0  0  0  0  0  0
  -19.1182   16.2815  -13.5618 O   0  0  0  0  0  0  0  0  0  0  0  0
  -18.0982   15.9977  -12.6375 C   0  0  0  0  0  0  0  0  0  0  0  0
  -20.0327   17.9110  -12.0454 C   0  0  0  0  0  0  0  0  0  0  0  0
  -23.1782   21.0039   -9.2481 C   0  0  0  0  0  0  0  0  0  0  0  0
  1 16  2  0
 17  1  1  0
  1 24  1  0
  2  4  2  0
 18  2  1  0
  2 19  1  0
 19  3  2  0
  3 20  1  0
  4 23  1  0
  5  6  2  0
 17  5  1  0
  6 16  1  0
  7  9  2  0
 12  7  1  0
  9  8  1  0
 10  9  1  0
 11 10  1  0
 12 11  2  0
 13 12  1  0
 13 14  1  0
 24 13  2  0
 15 14  2  0
 16 15  1  0
 17 18  1  0
 20 21  1  0
 20 23  2  0
 21 22  1  0
M  END
$$$$
