
     RDKit          3D

 24 27  0  0  0  0  0  0  0  0999 V2000
  -23.7993   21.7037   -9.0085 C   0  0  0  0  0  0  0  0  0  0  0  0
  -24.3898   19.7368  -11.6104 C   0  0  0  0  0  0  0  0  0  0  0  0
  -24.2214   18.5214  -13.6722 C   0  0  0  0  0  0  0  0  0  0  0  0
  -23.0205   19.8540  -11.6228 C   0  0  0  0  0  0  0  0  0  0  0  0
  -24.6937   22.7045  -10.7762 C   0  0  0  0  0  0  0  0  0  0  0  0
  -23.9771   23.6370  -10.0849 C   0  0  0  0  0  0  0  0  0  0  0  0
  -22.5896   19.2002   -5.6236 C   0  0  0  0  0  0  0  0  0  0  0  0
  -21.9379   17.5230   -3.8550 N   0  0  0  0  0  0  0  0  0  0  0  0
  -21.8382   18.7540   -4.5520 C   0  0  0  0  0  0  0  0  0  0  0  0
  -20.9338   19.7032   -4.2289 N   0  0  0  0  0  0  0  0  0  0  0  0
  -21.1204   20.6856   -5.0620 N   0  0  0  0  0  0  0  0  0  0  0  0
  -22.1019   20.4502   -5.9296 C   0  0  0  0  0  0  0  0  0  0  0  0
  -22.5546   21.3542   -6.9883 C   0  0  0  0  0  0  0  0  0  0  0  0
  -22.1819   22.6689   -6.9754 C   0  0  0  0  0  0  0  0  0  0  0  0
  -22.6044   23.5284   -7.9703 C   0  0  0  0  0  0  0  0  0  0  0  0
  -23.4157   23.0218   -8.9809 C   0  0  0  0  0  0  0  0  0  0  0  0
  -24.5637   21.5380  -10.0924 N   0  0  0  0  0  0  0  0  0  0  0  0
  -25.2025   20.3062  -10.5301 C   0  0  0  0  0  0  0  0  0  0  0  0
  -24.9791   19.0597  -12.6548 C   0  0  0  0  0  0  0  0  0  0  0  0
  -22.8435   18.6279  -13.7040 C   0  0  0  0  0  0  0  0  0  0  0  0
  -22.0649   18.0925  -14.7194 O   0  0  0  0  0  0  0  0  0  0  0  0
  -22.5785   17.0342  -15.4884 C   0  0  0  0  0  0  0  0  0  0  0  0
  -22.2676   19.3079  -12.6524 C   0  0  0  0  0  0  0  0  0  0  0  0
  -23.3679   20.8569   -8.0058 C   0  0  0  0  0  0  0  0  0  0  0  0
  1 16  2  0
 17  1  1  0
  1 24  1  0
  2  4  2  0
 18  2  1  0
  2 19  1  0
 19  3  2  0
  3 20  1  0
  4 23  1  0
  5  6  2  0
 17  5  1  0
  6 16  1  0
  7  9  2  0
 12  7  1  0
  9  8  1  0
 10  9  1  0
 11 10  1  0
 12 11  2  0
 13 12  1  0
 13 14  1  0
 24 13  2  0
 15 14  2  0
 16 15  1  0
 17 18  1  0
 20 21  1  0
 20 23  2  0
 21 22  1  0
M  END
$$$$
