
     RDKit          3D

 24 27  0  0  0  0  0  0  0  0999 V2000
  -22.8741   19.4392  -11.3683 C   0  0  0  0  0  0  0  0  0  0  0  0
  -23.3552   22.4818  -10.1313 C   0  0  0  0  0  0  0  0  0  0  0  0
  -24.0301   24.7760   -9.9374 C   0  0  0  0  0  0  0  0  0  0  0  0
  -22.8662   22.7808  -11.3806 C   0  0  0  0  0  0  0  0  0  0  0  0
  -24.9790   19.9760  -10.9127 C   0  0  0  0  0  0  0  0  0  0  0  0
  -24.9902   19.0506  -11.9151 C   0  0  0  0  0  0  0  0  0  0  0  0
  -18.8062   17.3819  -13.2790 C   0  0  0  0  0  0  0  0  0  0  0  0
  -16.3300   16.9811  -13.5510 N   0  0  0  0  0  0  0  0  0  0  0  0
  -17.4727   17.6051  -12.9889 C   0  0  0  0  0  0  0  0  0  0  0  0
  -17.3880   18.5586  -12.0364 N   0  0  0  0  0  0  0  0  0  0  0  0
  -18.6107   18.9046  -11.7548 N   0  0  0  0  0  0  0  0  0  0  0  0
  -19.5155   18.2360  -12.4659 C   0  0  0  0  0  0  0  0  0  0  0  0
  -20.9685   18.3942  -12.3830 C   0  0  0  0  0  0  0  0  0  0  0  0
  -21.7863   17.6760  -13.2093 C   0  0  0  0  0  0  0  0  0  0  0  0
  -23.1580   17.8192  -13.1375 C   0  0  0  0  0  0  0  0  0  0  0  0
  -23.6818   18.7100  -12.2057 C   0  0  0  0  0  0  0  0  0  0  0  0
  -23.6735   20.1895  -10.6039 N   0  0  0  0  0  0  0  0  0  0  0  0
  -23.2639   21.1291   -9.5712 C   0  0  0  0  0  0  0  0  0  0  0  0
  -23.9402   23.5034   -9.4167 C   0  0  0  0  0  0  0  0  0  0  0  0
  -23.5450   25.0980  -11.1912 C   0  0  0  0  0  0  0  0  0  0  0  0
  -23.6268   26.3730  -11.7314 O   0  0  0  0  0  0  0  0  0  0  0  0
  -24.0250   26.5231  -13.0708 C   0  0  0  0  0  0  0  0  0  0  0  0
  -22.9623   24.0659  -11.8948 C   0  0  0  0  0  0  0  0  0  0  0  0
  -21.5038   19.2842  -11.4527 C   0  0  0  0  0  0  0  0  0  0  0  0
  1 16  2  0
 17  1  1  0
  1 24  1  0
  2  4  2  0
 18  2  1  0
  2 19  1  0
 19  3  2  0
  3 20  1  0
  4 23  1  0
  5  6  2  0
 17  5  1  0
  6 16  1  0
  7  9  2  0
 12  7  1  0
  9  8  1  0
 10  9  1  0
 11 10  1  0
 12 11  2  0
 13 12  1  0
 13 14  1  0
 24 13  2  0
 15 14  2  0
 16 15  1  0
 17 18  1  0
 20 21  1  0
 20 23  2  0
 21 22  1  0
M  END
$$$$
