
     RDKit          3D

 24 27  0  0  0  0  0  0  0  0999 V2000
  -23.4201   20.1765  -11.6040 C   0  0  0  0  0  0  0  0  0  0  0  0
  -24.0671   20.3914   -8.4550 C   0  0  0  0  0  0  0  0  0  0  0  0
  -22.8648   22.2563   -7.5421 C   0  0  0  0  0  0  0  0  0  0  0  0
  -23.8659   19.7387   -7.2622 C   0  0  0  0  0  0  0  0  0  0  0  0
  -25.1342   21.5387  -11.2400 C   0  0  0  0  0  0  0  0  0  0  0  0
  -24.5205   21.9361  -12.3918 C   0  0  0  0  0  0  0  0  0  0  0  0
  -19.2323   18.1753  -13.2437 C   0  0  0  0  0  0  0  0  0  0  0  0
  -17.3397   16.5089  -13.3287 N   0  0  0  0  0  0  0  0  0  0  0  0
  -18.6177   16.9769  -12.9302 C   0  0  0  0  0  0  0  0  0  0  0  0
  -19.4442   16.2568  -12.1416 N   0  0  0  0  0  0  0  0  0  0  0  0
  -20.5152   16.9781  -11.9784 N   0  0  0  0  0  0  0  0  0  0  0  0
  -20.4557   18.1458  -12.6143 C   0  0  0  0  0  0  0  0  0  0  0  0
  -21.4953   19.1764  -12.6275 C   0  0  0  0  0  0  0  0  0  0  0  0
  -21.5392   20.0953  -13.6379 C   0  0  0  0  0  0  0  0  0  0  0  0
  -22.5166   21.0708  -13.6580 C   0  0  0  0  0  0  0  0  0  0  0  0
  -23.4504   21.0923  -12.6266 C   0  0  0  0  0  0  0  0  0  0  0  0
  -24.4377   20.4642  -10.7866 N   0  0  0  0  0  0  0  0  0  0  0  0
  -24.7984   19.7659   -9.5621 C   0  0  0  0  0  0  0  0  0  0  0  0
  -23.5537   21.6633   -8.5778 C   0  0  0  0  0  0  0  0  0  0  0  0
  -22.6513   21.6178   -6.3347 C   0  0  0  0  0  0  0  0  0  0  0  0
  -21.9605   22.1988   -5.2815 O   0  0  0  0  0  0  0  0  0  0  0  0
  -20.7242   22.8176   -5.5342 C   0  0  0  0  0  0  0  0  0  0  0  0
  -23.1706   20.3456   -6.2261 C   0  0  0  0  0  0  0  0  0  0  0  0
  -22.4359   19.2069  -11.5988 C   0  0  0  0  0  0  0  0  0  0  0  0
  1 16  2  0
 17  1  1  0
  1 24  1  0
  2  4  2  0
 18  2  1  0
  2 19  1  0
 19  3  2  0
  3 20  1  0
  4 23  1  0
  5  6  2  0
 17  5  1  0
  6 16  1  0
  7  9  2  0
 12  7  1  0
  9  8  1  0
 10  9  1  0
 11 10  1  0
 12 11  2  0
 13 12  1  0
 13 14  1  0
 24 13  2  0
 15 14  2  0
 16 15  1  0
 17 18  1  0
 20 21  1  0
 20 23  2  0
 21 22  1  0
M  END
$$$$
