
     RDKit          3D

 24 27  0  0  0  0  0  0  0  0999 V2000
  -22.9956   19.4112  -11.1850 C   0  0  0  0  0  0  0  0  0  0  0  0
  -22.8637   21.9509   -9.0963 C   0  0  0  0  0  0  0  0  0  0  0  0
  -23.2369   24.2913   -8.7222 C   0  0  0  0  0  0  0  0  0  0  0  0
  -21.6601   22.2832   -9.6707 C   0  0  0  0  0  0  0  0  0  0  0  0
  -24.9499   20.3972  -10.8175 C   0  0  0  0  0  0  0  0  0  0  0  0
  -24.9885   19.8418  -12.0630 C   0  0  0  0  0  0  0  0  0  0  0  0
  -19.1248   17.2057  -13.2971 C   0  0  0  0  0  0  0  0  0  0  0  0
  -16.7981   16.2380  -13.4231 N   0  0  0  0  0  0  0  0  0  0  0  0
  -17.9297   16.7704  -12.7544 C   0  0  0  0  0  0  0  0  0  0  0  0
  -17.9778   16.9262  -11.4140 N   0  0  0  0  0  0  0  0  0  0  0  0
  -19.1463   17.4330  -11.1458 N   0  0  0  0  0  0  0  0  0  0  0  0
  -19.8889   17.6274  -12.2331 C   0  0  0  0  0  0  0  0  0  0  0  0
  -21.2441   18.1802  -12.2663 C   0  0  0  0  0  0  0  0  0  0  0  0
  -22.0315   18.0036  -13.3691 C   0  0  0  0  0  0  0  0  0  0  0  0
  -23.3110   18.5217  -13.4086 C   0  0  0  0  0  0  0  0  0  0  0  0
  -23.7740   19.2247  -12.3007 C   0  0  0  0  0  0  0  0  0  0  0  0
  -23.7212   20.1158  -10.3112 N   0  0  0  0  0  0  0  0  0  0  0  0
  -23.3074   20.5569   -8.9879 C   0  0  0  0  0  0  0  0  0  0  0  0
  -23.6472   22.9796   -8.6225 C   0  0  0  0  0  0  0  0  0  0  0  0
  -22.0307   24.6472   -9.2961 C   0  0  0  0  0  0  0  0  0  0  0  0
  -21.6014   25.9617   -9.4050 O   0  0  0  0  0  0  0  0  0  0  0  0
  -20.3422   26.3140   -8.8898 C   0  0  0  0  0  0  0  0  0  0  0  0
  -21.2571   23.6075   -9.7658 C   0  0  0  0  0  0  0  0  0  0  0  0
  -21.7179   18.8863  -11.1614 C   0  0  0  0  0  0  0  0  0  0  0  0
  1 16  2  0
 17  1  1  0
  1 24  1  0
  2  4  2  0
 18  2  1  0
  2 19  1  0
 19  3  2  0
  3 20  1  0
  4 23  1  0
  5  6  2  0
 17  5  1  0
  6 16  1  0
  7  9  2  0
 12  7  1  0
  9  8  1  0
 10  9  1  0
 11 10  1  0
 12 11  2  0
 13 12  1  0
 13 14  1  0
 24 13  2  0
 15 14  2  0
 16 15  1  0
 17 18  1  0
 20 21  1  0
 20 23  2  0
 21 22  1  0
M  END
$$$$
