
     RDKit          3D

 24 27  0  0  0  0  0  0  0  0999 V2000
  -12.8314    9.5986  -27.9686 C   0  0  0  0  0  0  0  0  0  0  0  0
  -10.9909    7.2351  -29.1533 C   0  0  0  0  0  0  0  0  0  0  0  0
  -11.0247    5.3191  -27.7097 C   0  0  0  0  0  0  0  0  0  0  0  0
  -11.0293    6.3715  -30.2219 C   0  0  0  0  0  0  0  0  0  0  0  0
  -13.1904    9.3324  -30.1427 C   0  0  0  0  0  0  0  0  0  0  0  0
  -14.3326    9.8308  -29.5875 C   0  0  0  0  0  0  0  0  0  0  0  0
  -13.4010   10.1502  -23.1187 C   0  0  0  0  0  0  0  0  0  0  0  0
  -12.6956   10.2532  -20.6985 N   0  0  0  0  0  0  0  0  0  0  0  0
  -12.4733   10.2597  -22.0991 C   0  0  0  0  0  0  0  0  0  0  0  0
  -11.2427   10.3822  -22.6412 N   0  0  0  0  0  0  0  0  0  0  0  0
  -11.4062   10.3495  -23.9320 N   0  0  0  0  0  0  0  0  0  0  0  0
  -12.6808   10.2116  -24.2898 C   0  0  0  0  0  0  0  0  0  0  0  0
  -13.1908   10.1416  -25.6602 C   0  0  0  0  0  0  0  0  0  0  0  0
  -14.4688   10.5370  -25.9389 C   0  0  0  0  0  0  0  0  0  0  0  0
  -14.9577   10.4743  -27.2289 C   0  0  0  0  0  0  0  0  0  0  0  0
  -14.1179    9.9999  -28.2318 C   0  0  0  0  0  0  0  0  0  0  0  0
  -12.2966    9.2032  -29.1280 N   0  0  0  0  0  0  0  0  0  0  0  0
  -10.9517    8.6897  -29.3389 C   0  0  0  0  0  0  0  0  0  0  0  0
  -10.9892    6.6846  -27.8910 C   0  0  0  0  0  0  0  0  0  0  0  0
  -11.0637    4.4330  -28.7701 C   0  0  0  0  0  0  0  0  0  0  0  0
  -11.0998    3.0561  -28.6067 O   0  0  0  0  0  0  0  0  0  0  0  0
  -10.5328    2.4901  -27.4519 C   0  0  0  0  0  0  0  0  0  0  0  0
  -11.0649    4.9981  -30.0274 C   0  0  0  0  0  0  0  0  0  0  0  0
  -12.3575    9.6678  -26.6727 C   0  0  0  0  0  0  0  0  0  0  0  0
  1 16  2  0
 17  1  1  0
  1 24  1  0
  2  4  2  0
 18  2  1  0
  2 19  1  0
 19  3  2  0
  3 20  1  0
  4 23  1  0
  5  6  2  0
 17  5  1  0
  6 16  1  0
  7  9  2  0
 12  7  1  0
  9  8  1  0
 10  9  1  0
 11 10  1  0
 12 11  2  0
 13 12  1  0
 13 14  1  0
 24 13  2  0
 15 14  2  0
 16 15  1  0
 17 18  1  0
 20 21  1  0
 20 23  2  0
 21 22  1  0
M  END
$$$$
