
     RDKit          3D

 24 27  0  0  0  0  0  0  0  0999 V2000
  -12.9055    9.0480  -28.5047 C   0  0  0  0  0  0  0  0  0  0  0  0
   -9.9629    8.8888  -29.8006 C   0  0  0  0  0  0  0  0  0  0  0  0
   -9.1272    6.7143  -29.2268 C   0  0  0  0  0  0  0  0  0  0  0  0
   -8.6588    9.3115  -29.9002 C   0  0  0  0  0  0  0  0  0  0  0  0
  -13.0116    8.3658  -30.6141 C   0  0  0  0  0  0  0  0  0  0  0  0
  -14.0853    7.8468  -29.9515 C   0  0  0  0  0  0  0  0  0  0  0  0
  -13.7490    9.7053  -23.6815 C   0  0  0  0  0  0  0  0  0  0  0  0
  -13.3350   10.6214  -21.3673 N   0  0  0  0  0  0  0  0  0  0  0  0
  -13.0916   10.4984  -22.7589 C   0  0  0  0  0  0  0  0  0  0  0  0
  -12.1205   11.1901  -23.3929 N   0  0  0  0  0  0  0  0  0  0  0  0
  -12.1783   10.8389  -24.6448 N   0  0  0  0  0  0  0  0  0  0  0  0
  -13.1360    9.9476  -24.8895 C   0  0  0  0  0  0  0  0  0  0  0  0
  -13.4551    9.3575  -26.1907 C   0  0  0  0  0  0  0  0  0  0  0  0
  -14.5677    8.5778  -26.3373 C   0  0  0  0  0  0  0  0  0  0  0  0
  -14.8760    8.0173  -27.5612 C   0  0  0  0  0  0  0  0  0  0  0  0
  -14.0273    8.2670  -28.6353 C   0  0  0  0  0  0  0  0  0  0  0  0
  -12.3141    9.0921  -29.7025 N   0  0  0  0  0  0  0  0  0  0  0  0
  -11.0884    9.7972  -30.0455 C   0  0  0  0  0  0  0  0  0  0  0  0
  -10.1800    7.5725  -29.4592 C   0  0  0  0  0  0  0  0  0  0  0  0
   -7.8087    7.1187  -29.3215 C   0  0  0  0  0  0  0  0  0  0  0  0
   -6.7366    6.2691  -29.0912 O   0  0  0  0  0  0  0  0  0  0  0  0
   -6.9671    4.8851  -29.0097 C   0  0  0  0  0  0  0  0  0  0  0  0
   -7.6066    8.4384  -29.6639 C   0  0  0  0  0  0  0  0  0  0  0  0
  -12.6113    9.6013  -27.2735 C   0  0  0  0  0  0  0  0  0  0  0  0
  1 16  2  0
 17  1  1  0
  1 24  1  0
  2  4  2  0
 18  2  1  0
  2 19  1  0
 19  3  2  0
  3 20  1  0
  4 23  1  0
  5  6  2  0
 17  5  1  0
  6 16  1  0
  7  9  2  0
 12  7  1  0
  9  8  1  0
 10  9  1  0
 11 10  1  0
 12 11  2  0
 13 12  1  0
 13 14  1  0
 24 13  2  0
 15 14  2  0
 16 15  1  0
 17 18  1  0
 20 21  1  0
 20 23  2  0
 21 22  1  0
M  END
$$$$
