
     RDKit          3D

 24 27  0  0  0  0  0  0  0  0999 V2000
  -22.4482   19.2138  -12.7914 C   0  0  0  0  0  0  0  0  0  0  0  0
  -24.6433   19.3161  -10.2377 C   0  0  0  0  0  0  0  0  0  0  0  0
  -26.1241   17.4430  -10.4718 C   0  0  0  0  0  0  0  0  0  0  0  0
  -25.2666   19.5994   -9.0460 C   0  0  0  0  0  0  0  0  0  0  0  0
  -24.3323   20.3530  -13.0721 C   0  0  0  0  0  0  0  0  0  0  0  0
  -23.9040   19.9425  -14.3006 C   0  0  0  0  0  0  0  0  0  0  0  0
  -18.9589   16.9055  -11.5027 C   0  0  0  0  0  0  0  0  0  0  0  0
  -16.9595   15.7275  -10.5124 N   0  0  0  0  0  0  0  0  0  0  0  0
  -17.7332   16.2687  -11.5704 C   0  0  0  0  0  0  0  0  0  0  0  0
  -17.3369   16.2232  -12.8605 N   0  0  0  0  0  0  0  0  0  0  0  0
  -18.2739   16.8040  -13.5523 N   0  0  0  0  0  0  0  0  0  0  0  0
  -19.2809   17.2389  -12.7985 C   0  0  0  0  0  0  0  0  0  0  0  0
  -20.4803   17.9306  -13.2741 C   0  0  0  0  0  0  0  0  0  0  0  0
  -20.7745   17.9574  -14.6083 C   0  0  0  0  0  0  0  0  0  0  0  0
  -21.9039   18.6075  -15.0654 C   0  0  0  0  0  0  0  0  0  0  0  0
  -22.7296   19.2313  -14.1352 C   0  0  0  0  0  0  0  0  0  0  0  0
  -23.4218   19.8918  -12.1758 N   0  0  0  0  0  0  0  0  0  0  0  0
  -23.5432   20.1418  -10.7476 C   0  0  0  0  0  0  0  0  0  0  0  0
  -25.0904   18.2221  -10.9445 C   0  0  0  0  0  0  0  0  0  0  0  0
  -26.7645   17.7101   -9.2762 C   0  0  0  0  0  0  0  0  0  0  0  0
  -27.8063   16.9373   -8.7849 O   0  0  0  0  0  0  0  0  0  0  0  0
  -28.3442   17.2391   -7.5220 C   0  0  0  0  0  0  0  0  0  0  0  0
  -26.3065   18.8079   -8.5798 C   0  0  0  0  0  0  0  0  0  0  0  0
  -21.3145   18.5589  -12.3504 C   0  0  0  0  0  0  0  0  0  0  0  0
  1 16  2  0
 17  1  1  0
  1 24  1  0
  2  4  2  0
 18  2  1  0
  2 19  1  0
 19  3  2  0
  3 20  1  0
  4 23  1  0
  5  6  2  0
 17  5  1  0
  6 16  1  0
  7  9  2  0
 12  7  1  0
  9  8  1  0
 10  9  1  0
 11 10  1  0
 12 11  2  0
 13 12  1  0
 13 14  1  0
 24 13  2  0
 15 14  2  0
 16 15  1  0
 17 18  1  0
 20 21  1  0
 20 23  2  0
 21 22  1  0
M  END
$$$$
