
     RDKit          3D

 24 27  0  0  0  0  0  0  0  0999 V2000
  -12.3948    9.4242  -27.9179 C   0  0  0  0  0  0  0  0  0  0  0  0
  -11.9266    6.4429  -28.9861 C   0  0  0  0  0  0  0  0  0  0  0  0
  -13.7641    5.1580  -29.8400 C   0  0  0  0  0  0  0  0  0  0  0  0
  -11.7425    5.4627  -28.0404 C   0  0  0  0  0  0  0  0  0  0  0  0
  -12.3680    9.4150  -30.1373 C   0  0  0  0  0  0  0  0  0  0  0  0
  -13.1441   10.4613  -29.7320 C   0  0  0  0  0  0  0  0  0  0  0  0
  -12.2903    8.6812  -23.5981 C   0  0  0  0  0  0  0  0  0  0  0  0
  -11.9567    8.1089  -21.1635 N   0  0  0  0  0  0  0  0  0  0  0  0
  -12.3109    8.9573  -22.2433 C   0  0  0  0  0  0  0  0  0  0  0  0
  -12.7406   10.2248  -22.0637 N   0  0  0  0  0  0  0  0  0  0  0  0
  -12.9729   10.7045  -23.2511 N   0  0  0  0  0  0  0  0  0  0  0  0
  -12.7231    9.8290  -24.2219 C   0  0  0  0  0  0  0  0  0  0  0  0
  -12.8837   10.0623  -25.6582 C   0  0  0  0  0  0  0  0  0  0  0  0
  -13.6485   11.1032  -26.1040 C   0  0  0  0  0  0  0  0  0  0  0  0
  -13.8052   11.3304  -27.4571 C   0  0  0  0  0  0  0  0  0  0  0  0
  -13.1665   10.4748  -28.3494 C   0  0  0  0  0  0  0  0  0  0  0  0
  -11.9277    8.8048  -29.0064 N   0  0  0  0  0  0  0  0  0  0  0  0
  -11.0684    7.6312  -29.0418 C   0  0  0  0  0  0  0  0  0  0  0  0
  -12.9536    6.2714  -29.8874 C   0  0  0  0  0  0  0  0  0  0  0  0
  -13.5964    4.1608  -28.8974 C   0  0  0  0  0  0  0  0  0  0  0  0
  -14.4022    3.0336  -28.8345 O   0  0  0  0  0  0  0  0  0  0  0  0
  -13.7994    1.7667  -28.7519 C   0  0  0  0  0  0  0  0  0  0  0  0
  -12.5648    4.3458  -28.0020 C   0  0  0  0  0  0  0  0  0  0  0  0
  -12.2480    9.2108  -26.5609 C   0  0  0  0  0  0  0  0  0  0  0  0
  1 16  2  0
 17  1  1  0
  1 24  1  0
  2  4  2  0
 18  2  1  0
  2 19  1  0
 19  3  2  0
  3 20  1  0
  4 23  1  0
  5  6  2  0
 17  5  1  0
  6 16  1  0
  7  9  2  0
 12  7  1  0
  9  8  1  0
 10  9  1  0
 11 10  1  0
 12 11  2  0
 13 12  1  0
 13 14  1  0
 24 13  2  0
 15 14  2  0
 16 15  1  0
 17 18  1  0
 20 21  1  0
 20 23  2  0
 21 22  1  0
M  END
$$$$
