
     RDKit          3D

 24 27  0  0  0  0  0  0  0  0999 V2000
  -11.8945    7.9297  -28.3668 C   0  0  0  0  0  0  0  0  0  0  0  0
   -9.7915    5.4252  -28.5627 C   0  0  0  0  0  0  0  0  0  0  0  0
  -10.8566    3.6688  -27.3230 C   0  0  0  0  0  0  0  0  0  0  0  0
   -8.7110    4.5914  -28.7243 C   0  0  0  0  0  0  0  0  0  0  0  0
  -11.9663    6.8582  -30.3093 C   0  0  0  0  0  0  0  0  0  0  0  0
  -13.1961    7.4054  -30.0870 C   0  0  0  0  0  0  0  0  0  0  0  0
  -13.0281   10.6632  -24.4087 C   0  0  0  0  0  0  0  0  0  0  0  0
  -12.6232   11.7961  -22.1909 N   0  0  0  0  0  0  0  0  0  0  0  0
  -12.2703   10.9813  -23.2966 C   0  0  0  0  0  0  0  0  0  0  0  0
  -11.0674   10.3768  -23.4019 N   0  0  0  0  0  0  0  0  0  0  0  0
  -11.0852    9.7188  -24.5247 N   0  0  0  0  0  0  0  0  0  0  0  0
  -12.2351    9.8469  -25.1825 C   0  0  0  0  0  0  0  0  0  0  0  0
  -12.5674    9.2334  -26.4695 C   0  0  0  0  0  0  0  0  0  0  0  0
  -13.8228    9.3690  -26.9917 C   0  0  0  0  0  0  0  0  0  0  0  0
  -14.1446    8.7934  -28.2051 C   0  0  0  0  0  0  0  0  0  0  0  0
  -13.1606    8.0755  -28.8778 C   0  0  0  0  0  0  0  0  0  0  0  0
  -11.1981    7.1972  -29.2416 N   0  0  0  0  0  0  0  0  0  0  0  0
   -9.8090    6.7814  -29.1215 C   0  0  0  0  0  0  0  0  0  0  0  0
  -10.8669    4.9414  -27.8514 C   0  0  0  0  0  0  0  0  0  0  0  0
   -9.7805    2.8142  -27.4736 C   0  0  0  0  0  0  0  0  0  0  0  0
   -9.7524    1.5305  -26.9489 O   0  0  0  0  0  0  0  0  0  0  0  0
  -10.2678    1.3078  -25.6604 C   0  0  0  0  0  0  0  0  0  0  0  0
   -8.7116    3.3118  -28.1877 C   0  0  0  0  0  0  0  0  0  0  0  0
  -11.5888    8.5118  -27.1518 C   0  0  0  0  0  0  0  0  0  0  0  0
  1 16  2  0
 17  1  1  0
  1 24  1  0
  2  4  2  0
 18  2  1  0
  2 19  1  0
 19  3  2  0
  3 20  1  0
  4 23  1  0
  5  6  2  0
 17  5  1  0
  6 16  1  0
  7  9  2  0
 12  7  1  0
  9  8  1  0
 10  9  1  0
 11 10  1  0
 12 11  2  0
 13 12  1  0
 13 14  1  0
 24 13  2  0
 15 14  2  0
 16 15  1  0
 17 18  1  0
 20 21  1  0
 20 23  2  0
 21 22  1  0
M  END
$$$$
