
     RDKit          3D

 24 27  0  0  0  0  0  0  0  0999 V2000
  -22.5109   22.3129   -9.9385 C   0  0  0  0  0  0  0  0  0  0  0  0
  -22.6597   25.8449   -9.7217 C   0  0  0  0  0  0  0  0  0  0  0  0
  -23.5564   27.8944  -10.5888 C   0  0  0  0  0  0  0  0  0  0  0  0
  -21.4534   26.1911  -10.2822 C   0  0  0  0  0  0  0  0  0  0  0  0
  -23.9163   23.6740  -10.9867 C   0  0  0  0  0  0  0  0  0  0  0  0
  -23.8855   22.4948  -11.6721 C   0  0  0  0  0  0  0  0  0  0  0  0
  -19.8251   18.3945   -8.5762 C   0  0  0  0  0  0  0  0  0  0  0  0
  -18.1945   17.0914   -7.1587 N   0  0  0  0  0  0  0  0  0  0  0  0
  -18.9258   18.2463   -7.5362 C   0  0  0  0  0  0  0  0  0  0  0  0
  -18.8236   19.4211   -6.8783 N   0  0  0  0  0  0  0  0  0  0  0  0
  -19.6216   20.2513   -7.4849 N   0  0  0  0  0  0  0  0  0  0  0  0
  -20.2566   19.6998   -8.5165 C   0  0  0  0  0  0  0  0  0  0  0  0
  -21.2172   20.3673   -9.3968 C   0  0  0  0  0  0  0  0  0  0  0  0
  -21.7249   19.7115  -10.4828 C   0  0  0  0  0  0  0  0  0  0  0  0
  -22.6314   20.3338  -11.3183 C   0  0  0  0  0  0  0  0  0  0  0  0
  -23.0117   21.6399  -11.0256 C   0  0  0  0  0  0  0  0  0  0  0  0
  -23.0671   23.5282   -9.9365 N   0  0  0  0  0  0  0  0  0  0  0  0
  -22.8321   24.5944   -8.9747 C   0  0  0  0  0  0  0  0  0  0  0  0
  -23.7113   26.7186   -9.8872 C   0  0  0  0  0  0  0  0  0  0  0  0
  -22.3524   28.2616  -11.1602 C   0  0  0  0  0  0  0  0  0  0  0  0
  -22.1780   29.4407  -11.8696 O   0  0  0  0  0  0  0  0  0  0  0  0
  -20.9157   29.7287  -12.4163 C   0  0  0  0  0  0  0  0  0  0  0  0
  -21.3090   27.3777  -10.9865 C   0  0  0  0  0  0  0  0  0  0  0  0
  -21.6049   21.6760   -9.1125 C   0  0  0  0  0  0  0  0  0  0  0  0
  1 16  2  0
 17  1  1  0
  1 24  1  0
  2  4  2  0
 18  2  1  0
  2 19  1  0
 19  3  2  0
  3 20  1  0
  4 23  1  0
  5  6  2  0
 17  5  1  0
  6 16  1  0
  7  9  2  0
 12  7  1  0
  9  8  1  0
 10  9  1  0
 11 10  1  0
 12 11  2  0
 13 12  1  0
 13 14  1  0
 24 13  2  0
 15 14  2  0
 16 15  1  0
 17 18  1  0
 20 21  1  0
 20 23  2  0
 21 22  1  0
M  END
$$$$
