
     RDKit          3D

 24 27  0  0  0  0  0  0  0  0999 V2000
  -11.0240    6.4589  -29.4502 C   0  0  0  0  0  0  0  0  0  0  0  0
   -9.6259    3.7650  -27.9318 C   0  0  0  0  0  0  0  0  0  0  0  0
   -9.6608    1.9395  -26.3753 C   0  0  0  0  0  0  0  0  0  0  0  0
   -9.2487    4.5817  -26.8926 C   0  0  0  0  0  0  0  0  0  0  0  0
  -12.2409    4.6332  -29.1148 C   0  0  0  0  0  0  0  0  0  0  0  0
  -13.0905    5.6994  -29.1657 C   0  0  0  0  0  0  0  0  0  0  0  0
   -9.4736   11.1220  -29.7592 C   0  0  0  0  0  0  0  0  0  0  0  0
   -7.8107   12.9932  -30.0747 N   0  0  0  0  0  0  0  0  0  0  0  0
   -8.2488   11.6456  -30.1305 C   0  0  0  0  0  0  0  0  0  0  0  0
   -7.4665   10.6431  -30.5850 N   0  0  0  0  0  0  0  0  0  0  0  0
   -8.1765    9.5558  -30.4972 N   0  0  0  0  0  0  0  0  0  0  0  0
   -9.3955    9.7708  -30.0079 C   0  0  0  0  0  0  0  0  0  0  0  0
  -10.4290    8.7578  -29.7874 C   0  0  0  0  0  0  0  0  0  0  0  0
  -11.7435    9.1228  -29.7096 C   0  0  0  0  0  0  0  0  0  0  0  0
  -12.7248    8.1735  -29.5018 C   0  0  0  0  0  0  0  0  0  0  0  0
  -12.3404    6.8423  -29.3746 C   0  0  0  0  0  0  0  0  0  0  0  0
  -10.9900    5.1322  -29.2917 N   0  0  0  0  0  0  0  0  0  0  0  0
   -9.8085    4.2830  -29.2920 C   0  0  0  0  0  0  0  0  0  0  0  0
   -9.8296    2.4323  -27.6510 C   0  0  0  0  0  0  0  0  0  0  0  0
   -9.2822    2.7432  -25.3162 C   0  0  0  0  0  0  0  0  0  0  0  0
   -9.1076    2.2648  -24.0259 O   0  0  0  0  0  0  0  0  0  0  0  0
   -8.4667    1.0284  -23.8367 C   0  0  0  0  0  0  0  0  0  0  0  0
   -9.0818    4.0745  -25.6119 C   0  0  0  0  0  0  0  0  0  0  0  0
  -10.0546    7.4209  -29.6586 C   0  0  0  0  0  0  0  0  0  0  0  0
  1 16  2  0
 17  1  1  0
  1 24  1  0
  2  4  2  0
 18  2  1  0
  2 19  1  0
 19  3  2  0
  3 20  1  0
  4 23  1  0
  5  6  2  0
 17  5  1  0
  6 16  1  0
  7  9  2  0
 12  7  1  0
  9  8  1  0
 10  9  1  0
 11 10  1  0
 12 11  2  0
 13 12  1  0
 13 14  1  0
 24 13  2  0
 15 14  2  0
 16 15  1  0
 17 18  1  0
 20 21  1  0
 20 23  2  0
 21 22  1  0
M  END
$$$$
