
     RDKit          3D

 24 27  0  0  0  0  0  0  0  0999 V2000
  -12.5806    9.3237  -28.0285 C   0  0  0  0  0  0  0  0  0  0  0  0
  -11.8099    6.3723  -28.9382 C   0  0  0  0  0  0  0  0  0  0  0  0
  -13.5034    4.7587  -29.4718 C   0  0  0  0  0  0  0  0  0  0  0  0
  -11.4084    5.5432  -27.9182 C   0  0  0  0  0  0  0  0  0  0  0  0
  -12.7778    9.1764  -30.2344 C   0  0  0  0  0  0  0  0  0  0  0  0
  -13.6448   10.1357  -29.7994 C   0  0  0  0  0  0  0  0  0  0  0  0
  -13.3401   10.3139  -23.2634 C   0  0  0  0  0  0  0  0  0  0  0  0
  -12.9232   10.1895  -20.7781 N   0  0  0  0  0  0  0  0  0  0  0  0
  -12.5963    9.9900  -22.1436 C   0  0  0  0  0  0  0  0  0  0  0  0
  -11.4382    9.4199  -22.5400 N   0  0  0  0  0  0  0  0  0  0  0  0
  -11.4689    9.3946  -23.8409 N   0  0  0  0  0  0  0  0  0  0  0  0
  -12.5852    9.9170  -24.3434 C   0  0  0  0  0  0  0  0  0  0  0  0
  -12.9209   10.0351  -25.7634 C   0  0  0  0  0  0  0  0  0  0  0  0
  -13.8623   10.9363  -26.1744 C   0  0  0  0  0  0  0  0  0  0  0  0
  -14.1849   11.0541  -27.5120 C   0  0  0  0  0  0  0  0  0  0  0  0
  -13.5287   10.2344  -28.4249 C   0  0  0  0  0  0  0  0  0  0  0  0
  -12.1458    8.7025  -29.1293 N   0  0  0  0  0  0  0  0  0  0  0  0
  -11.1418    7.6518  -29.1999 C   0  0  0  0  0  0  0  0  0  0  0  0
  -12.8707    5.9589  -29.7130 C   0  0  0  0  0  0  0  0  0  0  0  0
  -13.1158    3.9103  -28.4516 C   0  0  0  0  0  0  0  0  0  0  0  0
  -13.7406    2.6989  -28.1942 O   0  0  0  0  0  0  0  0  0  0  0  0
  -13.9364    2.3011  -26.8605 C   0  0  0  0  0  0  0  0  0  0  0  0
  -12.0530    4.3369  -27.6846 C   0  0  0  0  0  0  0  0  0  0  0  0
  -12.2693    9.2183  -26.6866 C   0  0  0  0  0  0  0  0  0  0  0  0
  1 16  2  0
 17  1  1  0
  1 24  1  0
  2  4  2  0
 18  2  1  0
  2 19  1  0
 19  3  2  0
  3 20  1  0
  4 23  1  0
  5  6  2  0
 17  5  1  0
  6 16  1  0
  7  9  2  0
 12  7  1  0
  9  8  1  0
 10  9  1  0
 11 10  1  0
 12 11  2  0
 13 12  1  0
 13 14  1  0
 24 13  2  0
 15 14  2  0
 16 15  1  0
 17 18  1  0
 20 21  1  0
 20 23  2  0
 21 22  1  0
M  END
$$$$
