
     RDKit          3D

 24 27  0  0  0  0  0  0  0  0999 V2000
  -12.2336    9.0124  -28.0757 C   0  0  0  0  0  0  0  0  0  0  0  0
  -10.4090    6.4260  -28.6989 C   0  0  0  0  0  0  0  0  0  0  0  0
   -9.4496    4.2716  -28.2581 C   0  0  0  0  0  0  0  0  0  0  0  0
  -11.6450    5.8692  -28.4725 C   0  0  0  0  0  0  0  0  0  0  0  0
  -12.3256    8.4701  -30.2261 C   0  0  0  0  0  0  0  0  0  0  0  0
  -13.4962    9.0903  -29.9000 C   0  0  0  0  0  0  0  0  0  0  0  0
  -13.3788   10.1427  -23.4454 C   0  0  0  0  0  0  0  0  0  0  0  0
  -12.9845   10.5244  -20.9828 N   0  0  0  0  0  0  0  0  0  0  0  0
  -12.5892   10.3947  -22.3385 C   0  0  0  0  0  0  0  0  0  0  0  0
  -11.3043   10.5100  -22.7373 N   0  0  0  0  0  0  0  0  0  0  0  0
  -11.3042   10.3371  -24.0273 N   0  0  0  0  0  0  0  0  0  0  0  0
  -12.5198   10.1114  -24.5202 C   0  0  0  0  0  0  0  0  0  0  0  0
  -12.8525    9.8793  -25.9268 C   0  0  0  0  0  0  0  0  0  0  0  0
  -14.0565   10.2905  -26.4251 C   0  0  0  0  0  0  0  0  0  0  0  0
  -14.3782   10.0755  -27.7508 C   0  0  0  0  0  0  0  0  0  0  0  0
  -13.4477    9.4320  -28.5609 C   0  0  0  0  0  0  0  0  0  0  0  0
  -11.5798    8.4396  -29.0911 N   0  0  0  0  0  0  0  0  0  0  0  0
  -10.2539    7.8420  -29.0495 C   0  0  0  0  0  0  0  0  0  0  0  0
   -9.3108    5.6028  -28.5859 C   0  0  0  0  0  0  0  0  0  0  0  0
  -10.6829    3.6917  -28.0264 C   0  0  0  0  0  0  0  0  0  0  0  0
  -10.8417    2.3541  -27.6954 O   0  0  0  0  0  0  0  0  0  0  0  0
   -9.7008    1.5461  -27.5509 C   0  0  0  0  0  0  0  0  0  0  0  0
  -11.7728    4.5275  -28.1429 C   0  0  0  0  0  0  0  0  0  0  0  0
  -11.9272    9.2353  -26.7472 C   0  0  0  0  0  0  0  0  0  0  0  0
  1 16  2  0
 17  1  1  0
  1 24  1  0
  2  4  2  0
 18  2  1  0
  2 19  1  0
 19  3  2  0
  3 20  1  0
  4 23  1  0
  5  6  2  0
 17  5  1  0
  6 16  1  0
  7  9  2  0
 12  7  1  0
  9  8  1  0
 10  9  1  0
 11 10  1  0
 12 11  2  0
 13 12  1  0
 13 14  1  0
 24 13  2  0
 15 14  2  0
 16 15  1  0
 17 18  1  0
 20 21  1  0
 20 23  2  0
 21 22  1  0
M  END
$$$$
