
     RDKit          3D

  7  6  0  0  0  0  0  0  0  0999 V2000
   99.7421  -40.4548  123.9974 O   0  0  0  0  0  0  0  0  0  0  0  0
  100.2370  -40.1378  122.7549 C   0  0  0  0  0  0  0  0  0  0  0  0
  100.9098  -38.7804  122.7569 C   0  0  0  0  0  0  0  0  0  0  0  0
  100.0467  -37.7384  122.3012 N   0  0  2  0  0  4  0  0  0  0  0  0
   98.8765  -37.5541  123.1496 C   0  0  0  0  0  0  0  0  0  0  0  0
   99.5511  -37.9953  120.9633 C   0  0  0  0  0  0  0  0  0  0  0  0
  100.7403  -36.4614  122.2775 C   0  0  0  0  0  0  0  0  0  0  0  0
  1  2  1  0
  2  3  1  0
  3  4  1  0
  4  5  1  1
  4  6  1  0
  4  7  1  0
M  CHG  1   4   1
M  END
$$$$
