
     RDKit          3D

  7  6  0  0  0  0  0  0  0  0999 V2000
  100.2960  -40.7502  124.2241 O   0  0  0  0  0  0  0  0  0  0  0  0
   99.4339  -39.8796  123.6011 C   0  0  0  0  0  0  0  0  0  0  0  0
   99.9770  -38.4653  123.6046 C   0  0  0  0  0  0  0  0  0  0  0  0
  100.5616  -38.0979  122.3550 N   0  0  2  0  0  4  0  0  0  0  0  0
  100.9907  -36.7060  122.3123 C   0  0  0  0  0  0  0  0  0  0  0  0
   99.6374  -38.2797  121.2530 C   0  0  0  0  0  0  0  0  0  0  0  0
  101.7424  -38.8987  122.0777 C   0  0  0  0  0  0  0  0  0  0  0  0
  1  2  1  0
  2  3  1  0
  3  4  1  0
  4  5  1  1
  4  6  1  0
  4  7  1  0
M  CHG  1   4   1
M  END
$$$$
