
     RDKit          3D

  7  6  0  0  0  0  0  0  0  0999 V2000
   99.3017  -39.5255  124.5535 O   0  0  0  0  0  0  0  0  0  0  0  0
   99.3567  -39.6101  123.1826 C   0  0  0  0  0  0  0  0  0  0  0  0
  100.6675  -39.0713  122.6470 C   0  0  0  0  0  0  0  0  0  0  0  0
  100.6404  -37.6578  122.4478 N   0  0  2  0  0  4  0  0  0  0  0  0
  100.3220  -36.9161  123.6610 C   0  0  0  0  0  0  0  0  0  0  0  0
   99.6556  -37.2717  121.4566 C   0  0  0  0  0  0  0  0  0  0  0  0
  101.9339  -37.1709  121.9982 C   0  0  0  0  0  0  0  0  0  0  0  0
  1  2  1  0
  2  3  1  0
  3  4  1  0
  4  5  1  1
  4  6  1  0
  4  7  1  0
M  CHG  1   4   1
M  END
$$$$
