
     RDKit          3D

  7  6  0  0  0  0  0  0  0  0999 V2000
   98.4880  -37.1220  124.4480 O   0  0  0  0  0  0  0  0  0  0  0  0
   98.6696  -36.8978  123.1040 C   0  0  0  0  0  0  0  0  0  0  0  0
  100.1328  -36.9857  122.7210 C   0  0  0  0  0  0  0  0  0  0  0  0
  100.5465  -38.3217  122.4342 N   0  0  2  0  0  4  0  0  0  0  0  0
  100.3830  -39.2256  123.5654 C   0  0  0  0  0  0  0  0  0  0  0  0
  101.9441  -38.3836  122.0542 C   0  0  0  0  0  0  0  0  0  0  0  0
   99.7672  -38.8851  121.3444 C   0  0  0  0  0  0  0  0  0  0  0  0
  1  2  1  0
  2  3  1  0
  3  4  1  0
  4  5  1  1
  4  6  1  0
  4  7  1  0
M  CHG  1   4   1
M  END
$$$$
