
     RDKit          3D

  7  6  0  0  0  0  0  0  0  0999 V2000
   98.4541  -39.7268  124.1078 O   0  0  0  0  0  0  0  0  0  0  0  0
   99.1198  -39.7788  122.9063 C   0  0  0  0  0  0  0  0  0  0  0  0
  100.3793  -38.9373  122.9344 C   0  0  0  0  0  0  0  0  0  0  0  0
  100.1735  -37.6224  122.4177 N   0  0  2  0  0  4  0  0  0  0  0  0
  101.3811  -36.8070  122.4331 C   0  0  0  0  0  0  0  0  0  0  0  0
   99.1741  -36.8955  123.1757 C   0  0  0  0  0  0  0  0  0  0  0  0
   99.7299  -37.6705  121.0345 C   0  0  0  0  0  0  0  0  0  0  0  0
  1  2  1  0
  2  3  1  0
  3  4  1  0
  4  5  1  6
  4  6  1  0
  4  7  1  0
M  CHG  1   4   1
M  END
$$$$
