
     RDKit          3D

  7  6  0  0  0  0  0  0  0  0999 V2000
  101.0577  -39.9607  123.7315 O   0  0  0  0  0  0  0  0  0  0  0  0
  100.1866  -39.8664  122.6724 C   0  0  0  0  0  0  0  0  0  0  0  0
  100.4717  -38.6408  121.8286 C   0  0  0  0  0  0  0  0  0  0  0  0
  100.0884  -37.4271  122.4753 N   0  0  2  0  0  4  0  0  0  0  0  0
   98.7039  -37.4345  122.9297 C   0  0  0  0  0  0  0  0  0  0  0  0
  100.2297  -36.2811  121.5987 C   0  0  0  0  0  0  0  0  0  0  0  0
  100.9044  -37.1851  123.6534 C   0  0  0  0  0  0  0  0  0  0  0  0
  1  2  1  0
  2  3  1  0
  3  4  1  0
  4  5  1  1
  4  6  1  0
  4  7  1  0
M  CHG  1   4   1
M  END
$$$$
