
     RDKit          3D

  7  6  0  0  0  0  0  0  0  0999 V2000
   99.2470  -40.3695  122.6109 O   0  0  0  0  0  0  0  0  0  0  0  0
   98.7617  -39.3010  121.8952 C   0  0  0  0  0  0  0  0  0  0  0  0
   99.8846  -38.4260  121.3769 C   0  0  0  0  0  0  0  0  0  0  0  0
  100.4554  -37.6039  122.3951 N   0  0  2  0  0  4  0  0  0  0  0  0
  101.3871  -36.6125  121.8732 C   0  0  0  0  0  0  0  0  0  0  0  0
  101.1877  -38.3857  123.3719 C   0  0  0  0  0  0  0  0  0  0  0  0
   99.4252  -36.8637  123.1045 C   0  0  0  0  0  0  0  0  0  0  0  0
  1  2  1  0
  2  3  1  0
  3  4  1  0
  4  5  1  6
  4  6  1  0
  4  7  1  0
M  CHG  1   4   1
M  END
$$$$
