
     RDKit          3D

  7  6  0  0  0  0  0  0  0  0999 V2000
  100.0436  -40.3814  123.3736 O   0  0  0  0  0  0  0  0  0  0  0  0
   99.6083  -39.6312  122.3073 C   0  0  0  0  0  0  0  0  0  0  0  0
   99.3471  -38.1945  122.7113 C   0  0  0  0  0  0  0  0  0  0  0  0
  100.5307  -37.3963  122.6989 N   0  0  2  0  0  4  0  0  0  0  0  0
  101.5636  -37.8922  123.5992 C   0  0  0  0  0  0  0  0  0  0  0  0
  100.2619  -36.0271  123.0923 C   0  0  0  0  0  0  0  0  0  0  0  0
  101.1241  -37.3662  121.3725 C   0  0  0  0  0  0  0  0  0  0  0  0
  1  2  1  0
  2  3  1  0
  3  4  1  0
  4  5  1  1
  4  6  1  0
  4  7  1  0
M  CHG  1   4   1
M  END
$$$$
