
     RDKit          3D

  7  6  0  0  0  0  0  0  0  0999 V2000
   99.1936  -40.1424  124.5110 O   0  0  0  0  0  0  0  0  0  0  0  0
   99.6698  -40.1485  123.2216 C   0  0  0  0  0  0  0  0  0  0  0  0
  100.6102  -38.9868  122.9733 C   0  0  0  0  0  0  0  0  0  0  0  0
   99.9470  -37.8524  122.4153 N   0  0  2  0  0  4  0  0  0  0  0  0
   98.9067  -37.3150  123.2827 C   0  0  0  0  0  0  0  0  0  0  0  0
   99.3098  -38.1676  121.1518 C   0  0  0  0  0  0  0  0  0  0  0  0
  100.8836  -36.7665  122.1786 C   0  0  0  0  0  0  0  0  0  0  0  0
  1  2  1  0
  2  3  1  0
  3  4  1  0
  4  5  1  1
  4  6  1  0
  4  7  1  0
M  CHG  1   4   1
M  END
$$$$
