
     RDKit          3D

  7  6  0  0  0  0  0  0  0  0999 V2000
   98.7592  -39.9627  123.0015 O   0  0  0  0  0  0  0  0  0  0  0  0
   99.4304  -39.5094  121.8909 C   0  0  0  0  0  0  0  0  0  0  0  0
   99.4738  -37.9955  121.8500 C   0  0  0  0  0  0  0  0  0  0  0  0
  100.5619  -37.4563  122.6007 N   0  0  2  0  0  4  0  0  0  0  0  0
  100.4677  -37.7394  124.0270 C   0  0  0  0  0  0  0  0  0  0  0  0
  100.6456  -36.0150  122.4698 C   0  0  0  0  0  0  0  0  0  0  0  0
  101.8280  -38.0143  122.1556 C   0  0  0  0  0  0  0  0  0  0  0  0
  1  2  1  0
  2  3  1  0
  3  4  1  0
  4  5  1  1
  4  6  1  0
  4  7  1  0
M  CHG  1   4   1
M  END
$$$$
