
     RDKit          3D

  7  6  0  0  0  0  0  0  0  0999 V2000
   96.7269  -33.4187  114.5429 O   0  0  0  0  0  0  0  0  0  0  0  0
   97.7437  -32.6454  114.0356 C   0  0  0  0  0  0  0  0  0  0  0  0
   97.6057  -31.1988  114.4643 C   0  0  0  0  0  0  0  0  0  0  0  0
   96.4345  -30.5778  113.9342 N   0  0  2  0  0  4  0  0  0  0  0  0
   96.2158  -30.8797  112.5255 C   0  0  0  0  0  0  0  0  0  0  0  0
   96.4936  -29.1335  114.0432 C   0  0  0  0  0  0  0  0  0  0  0  0
   95.2444  -31.0255  114.6381 C   0  0  0  0  0  0  0  0  0  0  0  0
  1  2  1  0
  2  3  1  0
  3  4  1  0
  4  5  1  6
  4  6  1  0
  4  7  1  0
M  CHG  1   4   1
M  END
$$$$
