
     RDKit          3D

  7  6  0  0  0  0  0  0  0  0999 V2000
   98.0451  -37.6935  123.7405 O   0  0  0  0  0  0  0  0  0  0  0  0
   98.7592  -38.8374  123.4742 C   0  0  0  0  0  0  0  0  0  0  0  0
  100.2517  -38.5880  123.5486 C   0  0  0  0  0  0  0  0  0  0  0  0
  100.7558  -37.9208  122.3914 N   0  0  2  0  0  4  0  0  0  0  0  0
  100.4299  -38.6080  121.1485 C   0  0  0  0  0  0  0  0  0  0  0  0
  102.1996  -37.7946  122.4278 C   0  0  0  0  0  0  0  0  0  0  0  0
  100.1983  -36.5834  122.2779 C   0  0  0  0  0  0  0  0  0  0  0  0
  1  2  1  0
  2  3  1  0
  3  4  1  0
  4  5  1  6
  4  6  1  0
  4  7  1  0
M  CHG  1   4   1
M  END
$$$$
