
     RDKit          3D

  7  6  0  0  0  0  0  0  0  0999 V2000
   98.9297  -40.1464  124.6315 O   0  0  0  0  0  0  0  0  0  0  0  0
   98.9681  -39.5496  123.3939 C   0  0  0  0  0  0  0  0  0  0  0  0
   99.7045  -38.2264  123.4400 C   0  0  0  0  0  0  0  0  0  0  0  0
  100.5539  -38.0303  122.3093 N   0  0  2  0  0  4  0  0  0  0  0  0
  101.5589  -39.0751  122.1618 C   0  0  0  0  0  0  0  0  0  0  0  0
  101.2722  -36.7735  122.3859 C   0  0  0  0  0  0  0  0  0  0  0  0
   99.7850  -38.0251  121.0759 C   0  0  0  0  0  0  0  0  0  0  0  0
  1  2  1  0
  2  3  1  0
  3  4  1  0
  4  5  1  6
  4  6  1  0
  4  7  1  0
M  CHG  1   4   1
M  END
$$$$
