
     RDKit          3D

  7  6  0  0  0  0  0  0  0  0999 V2000
  100.1773  -40.4808  124.3610 O   0  0  0  0  0  0  0  0  0  0  0  0
   99.2975  -39.5955  123.7853 C   0  0  0  0  0  0  0  0  0  0  0  0
   99.8540  -38.1863  123.7803 C   0  0  0  0  0  0  0  0  0  0  0  0
  100.5999  -37.8942  122.5985 N   0  0  2  0  0  4  0  0  0  0  0  0
  101.7667  -38.7512  122.4329 C   0  0  0  0  0  0  0  0  0  0  0  0
  101.0857  -36.5284  122.5913 C   0  0  0  0  0  0  0  0  0  0  0  0
   99.7844  -38.0790  121.4097 C   0  0  0  0  0  0  0  0  0  0  0  0
  1  2  1  0
  2  3  1  0
  3  4  1  0
  4  5  1  6
  4  6  1  0
  4  7  1  0
M  CHG  1   4   1
M  END
$$$$
