
     RDKit          3D

  7  6  0  0  0  0  0  0  0  0999 V2000
   99.8363  -40.7947  122.1469 O   0  0  0  0  0  0  0  0  0  0  0  0
   99.8012  -39.4987  121.6901 C   0  0  0  0  0  0  0  0  0  0  0  0
  100.4836  -38.5525  122.6567 C   0  0  0  0  0  0  0  0  0  0  0  0
  100.1057  -37.1910  122.4522 N   0  0  2  0  0  4  0  0  0  0  0  0
  100.7519  -36.2730  123.3812 C   0  0  0  0  0  0  0  0  0  0  0  0
   98.6772  -36.9987  122.6072 C   0  0  0  0  0  0  0  0  0  0  0  0
  100.4689  -36.7453  121.1173 C   0  0  0  0  0  0  0  0  0  0  0  0
  1  2  1  0
  2  3  1  0
  3  4  1  0
  4  5  1  1
  4  6  1  0
  4  7  1  0
M  CHG  1   4   1
M  END
$$$$
