
     RDKit          3D

 32 34  0  0  0  0  0  0  0  0999 V2000
   12.9279   -8.9400   22.6030 C   0  0  0  0  0  0  0  0  0  0  0  0
   11.3395  -10.0049   24.0075 C   0  0  0  0  0  0  0  0  0  0  0  0
   11.4320  -11.1478   23.2133 C   0  0  0  0  0  0  0  0  0  0  0  0
   19.3552  -16.4550   26.4550 C   0  0  0  0  0  0  0  0  0  0  0  0
   17.5579  -11.4022   20.8285 C   0  0  2  0  0  0  0  0  0  0  0  0
   18.6233  -10.9773   19.8865 C   0  0  0  0  0  0  0  0  0  0  0  0
   18.5632  -12.0726   18.8373 C   0  0  0  0  0  0  0  0  0  0  0  0
   12.3572  -12.3676   21.2915 C   0  0  0  0  0  0  0  0  0  0  0  0
   13.0206  -10.0681   21.8178 C   0  0  0  0  0  0  0  0  0  0  0  0
   12.2747  -11.1736   22.1189 C   0  0  0  0  0  0  0  0  0  0  0  0
   19.8996  -15.7159   25.4262 C   0  0  0  0  0  0  0  0  0  0  0  0
   19.1314  -15.4470   24.1909 C   0  0  0  0  0  0  0  0  0  0  0  0
   17.1162  -13.6345   21.8954 C   0  0  0  0  0  0  0  0  0  0  0  0
   18.5615  -13.2947   19.7969 C   0  0  0  0  0  0  0  0  0  0  0  0
   17.7331  -12.8752   20.8845 N   0  0  0  0  0  0  0  0  0  0  0  0
   20.0812  -16.7048   27.6104 C   0  0  0  0  0  0  0  0  0  0  0  0
   21.3719  -16.2253   27.7752 C   0  0  0  0  0  0  0  0  0  0  0  0
   21.9050  -15.4883   26.7401 C   0  0  0  0  0  0  0  0  0  0  0  0
   21.1820  -15.2402   25.5909 C   0  0  0  0  0  0  0  0  0  0  0  0
   17.6517  -17.6446   24.3132 O   0  0  0  0  0  0  0  0  0  0  0  0
   17.5155  -16.1559   24.3927 S   0  0  1  0  0  6  0  0  0  0  0  0
   16.9211  -15.7683   25.7145 O   0  0  0  0  0  0  0  0  0  0  0  0
   16.4603  -15.5773   23.1355 N   0  0  0  0  0  0  0  0  0  0  0  0
   17.3071  -15.0740   22.0847 C   0  0  0  0  0  0  0  0  0  0  0  0
   16.3148  -13.0786   22.7434 O   0  0  0  0  0  0  0  0  0  0  0  0
   16.1872  -11.1541   20.3791 C   0  0  0  0  0  0  0  0  0  0  0  0
   15.7196  -11.6876   19.3368 O   0  0  0  0  0  0  0  0  0  0  0  0
   15.2867  -10.2976   21.0811 N   0  0  0  0  0  0  0  0  0  0  0  0
   13.9256  -10.0967   20.6590 C   0  0  0  0  0  0  0  0  0  0  0  0
   13.1772  -13.3712   21.7327 O   0  0  0  0  0  0  0  0  0  0  0  0
   12.0904   -8.8898   23.7051 C   0  0  0  0  0  0  0  0  0  0  0  0
   12.0387   -7.4155   24.6421 Cl  0  0  0  0  0  0  0  0  0  0  0  0
  9  1  2  0
  1 31  1  0
  3  2  1  0
 31  2  2  0
 10  3  2  0
 11  4  2  0
  4 16  1  0
  5  6  1  0
  5 15  1  0
  5 26  1  6
  6  7  1  0
 14  7  1  0
 10  8  1  0
  8 30  1  0
  9 10  1  0
 29  9  1  0
 12 11  1  0
 11 19  1  0
 21 12  1  6
 15 13  1  0
 13 24  1  0
 13 25  2  0
 15 14  1  0
 16 17  2  0
 18 17  1  0
 19 18  2  0
 21 20  2  0
 21 22  2  0
 23 21  1  0
 24 23  1  0
 26 27  2  0
 28 26  1  0
 28 29  1  0
 31 32  1  0
M  END
$$$$
