
     RDKit          3D

 32 34  0  0  0  0  0  0  0  0999 V2000
   12.2243  -11.1475   22.8169 C   0  0  0  0  0  0  0  0  0  0  0  0
   12.0129   -8.8525   23.3810 C   0  0  0  0  0  0  0  0  0  0  0  0
   12.6629   -8.5203   22.1924 C   0  0  0  0  0  0  0  0  0  0  0  0
   20.6702  -13.2641   26.5037 C   0  0  0  0  0  0  0  0  0  0  0  0
   17.0265  -11.7274   21.1909 C   0  0  2  0  0  0  0  0  0  0  0  0
   18.0786  -11.0584   20.3856 C   0  0  0  0  0  0  0  0  0  0  0  0
   18.6418  -12.2199   19.5867 C   0  0  0  0  0  0  0  0  0  0  0  0
   13.7727   -9.1526   20.0935 C   0  0  0  0  0  0  0  0  0  0  0  0
   12.8662  -10.8210   21.6426 C   0  0  0  0  0  0  0  0  0  0  0  0
   13.0877   -9.5094   21.3265 C   0  0  0  0  0  0  0  0  0  0  0  0
   20.0197  -14.3222   25.9052 C   0  0  0  0  0  0  0  0  0  0  0  0
   18.6780  -14.7482   26.3600 C   0  0  0  0  0  0  0  0  0  0  0  0
   17.1206  -13.8109   22.5933 C   0  0  0  0  0  0  0  0  0  0  0  0
   18.8227  -13.2240   20.7586 C   0  0  0  0  0  0  0  0  0  0  0  0
   17.6680  -13.0099   21.5746 N   0  0  0  0  0  0  0  0  0  0  0  0
   21.9289  -12.8702   26.0734 C   0  0  0  0  0  0  0  0  0  0  0  0
   22.5771  -13.5192   25.0334 C   0  0  0  0  0  0  0  0  0  0  0  0
   21.9168  -14.5751   24.4435 C   0  0  0  0  0  0  0  0  0  0  0  0
   20.6647  -14.9663   24.8722 C   0  0  0  0  0  0  0  0  0  0  0  0
   19.3841  -16.6403   24.6408 O   0  0  0  0  0  0  0  0  0  0  0  0
   18.1727  -16.1178   25.3483 S   0  0  1  0  0  6  0  0  0  0  0  0
   17.5615  -17.2043   26.1829 O   0  0  0  0  0  0  0  0  0  0  0  0
   16.9814  -15.5871   24.1959 N   0  0  0  0  0  0  0  0  0  0  0  0
   17.7046  -15.0689   23.0632 C   0  0  0  0  0  0  0  0  0  0  0  0
   16.0281  -13.4647   23.1909 O   0  0  0  0  0  0  0  0  0  0  0  0
   15.8009  -12.0657   20.4656 C   0  0  0  0  0  0  0  0  0  0  0  0
   15.7517  -12.0741   19.2057 O   0  0  0  0  0  0  0  0  0  0  0  0
   14.5821  -12.4079   21.1248 N   0  0  0  0  0  0  0  0  0  0  0  0
   13.3087  -11.8752   20.7176 C   0  0  0  0  0  0  0  0  0  0  0  0
   13.0548   -9.2603   18.9328 O   0  0  0  0  0  0  0  0  0  0  0  0
   11.7892  -10.1740   23.7010 C   0  0  0  0  0  0  0  0  0  0  0  0
   10.9845  -10.6832   25.1664 Cl  0  0  0  0  0  0  0  0  0  0  0  0
  9  1  2  0
  1 31  1  0
  3  2  1  0
 31  2  2  0
 10  3  2  0
 11  4  2  0
  4 16  1  0
  5  6  1  0
  5 15  1  0
  5 26  1  6
  6  7  1  0
 14  7  1  0
 10  8  1  0
  8 30  1  0
  9 10  1  0
 29  9  1  0
 12 11  1  0
 11 19  1  0
 21 12  1  1
 15 13  1  0
 13 24  1  0
 13 25  2  0
 15 14  1  0
 16 17  2  0
 18 17  1  0
 19 18  2  0
 21 20  2  0
 21 22  2  0
 23 21  1  0
 24 23  1  0
 26 27  2  0
 28 26  1  0
 28 29  1  0
 31 32  1  0
M  END
$$$$
