
     RDKit          3D

 32 34  0  0  0  0  0  0  0  0999 V2000
   12.9807   -8.9631   22.6729 C   0  0  0  0  0  0  0  0  0  0  0  0
   11.0821   -9.9456   23.7023 C   0  0  0  0  0  0  0  0  0  0  0  0
   11.2619  -11.0785   22.9087 C   0  0  0  0  0  0  0  0  0  0  0  0
   17.8035  -16.5031   26.9804 C   0  0  0  0  0  0  0  0  0  0  0  0
   17.0685  -11.4730   20.1454 C   0  0  2  0  0  0  0  0  0  0  0  0
   17.8924  -10.9951   19.0071 C   0  0  0  0  0  0  0  0  0  0  0  0
   18.2477  -12.2980   18.3140 C   0  0  0  0  0  0  0  0  0  0  0  0
   12.4767  -12.3234   21.1733 C   0  0  0  0  0  0  0  0  0  0  0  0
   13.1598  -10.0814   21.8886 C   0  0  0  0  0  0  0  0  0  0  0  0
   12.3031  -11.1408   22.0029 C   0  0  0  0  0  0  0  0  0  0  0  0
   17.3686  -17.2610   25.9139 C   0  0  0  0  0  0  0  0  0  0  0  0
   17.5966  -16.8186   24.5208 C   0  0  0  0  0  0  0  0  0  0  0  0
   17.5048  -13.2875   21.8288 C   0  0  0  0  0  0  0  0  0  0  0  0
   18.7098  -13.0930   19.5665 C   0  0  0  0  0  0  0  0  0  0  0  0
   17.7870  -12.6958   20.5842 N   0  0  0  0  0  0  0  0  0  0  0  0
   17.5855  -16.9228   28.2845 C   0  0  0  0  0  0  0  0  0  0  0  0
   16.9274  -18.1108   28.5650 C   0  0  0  0  0  0  0  0  0  0  0  0
   16.4975  -18.8592   27.4907 C   0  0  0  0  0  0  0  0  0  0  0  0
   16.7148  -18.4409   26.1936 C   0  0  0  0  0  0  0  0  0  0  0  0
   17.4241  -14.2332   25.0862 O   0  0  0  0  0  0  0  0  0  0  0  0
   18.4090  -15.2403   24.5797 S   0  0  1  0  0  6  0  0  0  0  0  0
   19.6036  -15.2855   25.4861 O   0  0  0  0  0  0  0  0  0  0  0  0
   18.9561  -14.8028   22.9865 N   0  0  0  0  0  0  0  0  0  0  0  0
   17.7799  -14.6864   22.1634 C   0  0  0  0  0  0  0  0  0  0  0  0
   16.9645  -12.5995   22.7803 O   0  0  0  0  0  0  0  0  0  0  0  0
   15.7045  -11.8808   19.8054 C   0  0  0  0  0  0  0  0  0  0  0  0
   15.4515  -12.5836   18.7897 O   0  0  0  0  0  0  0  0  0  0  0  0
   14.5702  -11.5160   20.5912 N   0  0  0  0  0  0  0  0  0  0  0  0
   14.2747  -10.1495   20.9321 C   0  0  0  0  0  0  0  0  0  0  0  0
   13.0877  -13.4024   21.7535 O   0  0  0  0  0  0  0  0  0  0  0  0
   11.9444   -8.8769   23.5880 C   0  0  0  0  0  0  0  0  0  0  0  0
   11.7961   -7.4185   24.5394 Cl  0  0  0  0  0  0  0  0  0  0  0  0
  9  1  2  0
  1 31  1  0
  3  2  1  0
 31  2  2  0
 10  3  2  0
 11  4  2  0
  4 16  1  0
  5  6  1  0
  5 15  1  0
  5 26  1  6
  6  7  1  0
 14  7  1  0
 10  8  1  0
  8 30  1  0
  9 10  1  0
 29  9  1  0
 12 11  1  0
 11 19  1  0
 21 12  1  6
 15 13  1  0
 13 24  1  0
 13 25  2  0
 15 14  1  0
 16 17  2  0
 18 17  1  0
 19 18  2  0
 21 20  2  0
 21 22  2  0
 23 21  1  0
 24 23  1  0
 26 27  2  0
 28 26  1  0
 28 29  1  0
 31 32  1  0
M  END
$$$$
