
     RDKit          3D

 32 34  0  0  0  0  0  0  0  0999 V2000
   13.1911   -8.3972   22.5495 C   0  0  0  0  0  0  0  0  0  0  0  0
   11.7114   -9.5358   24.0138 C   0  0  0  0  0  0  0  0  0  0  0  0
   11.7063  -10.6191   23.1352 C   0  0  0  0  0  0  0  0  0  0  0  0
   20.8167  -14.2225   26.5838 C   0  0  0  0  0  0  0  0  0  0  0  0
   17.4284  -11.1380   20.7780 C   0  0  2  0  0  0  0  0  0  0  0  0
   18.4638  -10.8366   19.7582 C   0  0  0  0  0  0  0  0  0  0  0  0
   18.2978  -11.9991   18.7962 C   0  0  0  0  0  0  0  0  0  0  0  0
   12.4272  -11.7104   21.0553 C   0  0  0  0  0  0  0  0  0  0  0  0
   13.1872   -9.4664   21.6810 C   0  0  0  0  0  0  0  0  0  0  0  0
   12.4464  -10.5787   21.9695 C   0  0  0  0  0  0  0  0  0  0  0  0
   19.9610  -15.2730   26.3283 C   0  0  0  0  0  0  0  0  0  0  0  0
   18.5638  -15.0329   25.9055 C   0  0  0  0  0  0  0  0  0  0  0  0
   16.9344  -13.2632   22.0254 C   0  0  0  0  0  0  0  0  0  0  0  0
   18.2860  -13.1483   19.8419 C   0  0  0  0  0  0  0  0  0  0  0  0
   17.5350  -12.6105   20.9336 N   0  0  0  0  0  0  0  0  0  0  0  0
   22.1254  -14.4543   26.9813 C   0  0  0  0  0  0  0  0  0  0  0  0
   22.6207  -15.7403   27.1359 C   0  0  0  0  0  0  0  0  0  0  0  0
   21.7559  -16.7816   26.8776 C   0  0  0  0  0  0  0  0  0  0  0  0
   20.4541  -16.5502   26.4823 C   0  0  0  0  0  0  0  0  0  0  0  0
   19.3090  -14.0544   23.5557 O   0  0  0  0  0  0  0  0  0  0  0  0
   18.5016  -15.1734   24.1360 S   0  0  1  0  0  6  0  0  0  0  0  0
   19.0573  -16.4912   23.6829 O   0  0  0  0  0  0  0  0  0  0  0  0
   16.8499  -15.0699   23.5975 N   0  0  0  0  0  0  0  0  0  0  0  0
   16.8920  -14.7163   22.2018 C   0  0  0  0  0  0  0  0  0  0  0  0
   16.3640  -12.5867   22.9675 O   0  0  0  0  0  0  0  0  0  0  0  0
   16.0502  -10.8519   20.3768 C   0  0  0  0  0  0  0  0  0  0  0  0
   15.3730  -11.6634   19.6895 O   0  0  0  0  0  0  0  0  0  0  0  0
   15.3771   -9.6440   20.7305 N   0  0  0  0  0  0  0  0  0  0  0  0
   13.9836   -9.4251   20.4454 C   0  0  0  0  0  0  0  0  0  0  0  0
   13.3219  -12.7177   21.2979 O   0  0  0  0  0  0  0  0  0  0  0  0
   12.4572   -8.4138   23.7242 C   0  0  0  0  0  0  0  0  0  0  0  0
   12.5234   -7.0111   24.7645 Cl  0  0  0  0  0  0  0  0  0  0  0  0
  9  1  2  0
  1 31  1  0
  3  2  1  0
 31  2  2  0
 10  3  2  0
 11  4  2  0
  4 16  1  0
  5  6  1  0
  5 15  1  0
  5 26  1  6
  6  7  1  0
 14  7  1  0
 10  8  1  0
  8 30  1  0
  9 10  1  0
 29  9  1  0
 12 11  1  0
 11 19  1  0
 21 12  1  1
 15 13  1  0
 13 24  1  0
 13 25  2  0
 15 14  1  0
 16 17  2  0
 18 17  1  0
 19 18  2  0
 21 20  2  0
 21 22  2  0
 23 21  1  0
 24 23  1  0
 26 27  2  0
 28 26  1  0
 28 29  1  0
 31 32  1  0
M  END
$$$$
