
     RDKit          3D

 32 34  0  0  0  0  0  0  0  0999 V2000
   12.9078   -8.7533   22.5046 C   0  0  0  0  0  0  0  0  0  0  0  0
   11.1933   -9.4906   23.9697 C   0  0  0  0  0  0  0  0  0  0  0  0
   11.2766  -10.7599   23.3976 C   0  0  0  0  0  0  0  0  0  0  0  0
   20.4562  -16.0163   25.2997 C   0  0  0  0  0  0  0  0  0  0  0  0
   17.7086  -11.0928   21.0477 C   0  0  2  0  0  0  0  0  0  0  0  0
   18.7201  -10.8101   19.9988 C   0  0  0  0  0  0  0  0  0  0  0  0
   18.7656  -12.1295   19.2496 C   0  0  0  0  0  0  0  0  0  0  0  0
   12.2509  -12.3373   21.7853 C   0  0  0  0  0  0  0  0  0  0  0  0
   12.9914  -10.0065   21.9387 C   0  0  0  0  0  0  0  0  0  0  0  0
   12.1781  -11.0122   22.3816 C   0  0  0  0  0  0  0  0  0  0  0  0
   19.7213  -15.0225   25.9107 C   0  0  0  0  0  0  0  0  0  0  0  0
   18.2959  -15.2270   26.2496 C   0  0  0  0  0  0  0  0  0  0  0  0
   17.5018  -13.0280   22.6379 C   0  0  0  0  0  0  0  0  0  0  0  0
   18.8934  -13.0737   20.4770 C   0  0  0  0  0  0  0  0  0  0  0  0
   18.0328  -12.4831   21.4546 N   0  0  0  0  0  0  0  0  0  0  0  0
   21.7922  -15.8179   24.9834 C   0  0  0  0  0  0  0  0  0  0  0  0
   22.4361  -14.6229   25.2666 C   0  0  0  0  0  0  0  0  0  0  0  0
   21.6911  -13.6375   25.8772 C   0  0  0  0  0  0  0  0  0  0  0  0
   20.3619  -13.8356   26.1916 C   0  0  0  0  0  0  0  0  0  0  0  0
   17.7120  -17.3905   24.8311 O   0  0  0  0  0  0  0  0  0  0  0  0
   17.4919  -15.9099   24.8207 S   0  0  1  0  0  6  0  0  0  0  0  0
   16.0215  -15.6130   24.8396 O   0  0  0  0  0  0  0  0  0  0  0  0
   18.1659  -15.2084   23.3776 N   0  0  0  0  0  0  0  0  0  0  0  0
   18.2751  -13.7926   23.6187 C   0  0  0  0  0  0  0  0  0  0  0  0
   16.2524  -12.8773   22.9323 O   0  0  0  0  0  0  0  0  0  0  0  0
   16.3173  -11.0966   20.5931 C   0  0  0  0  0  0  0  0  0  0  0  0
   15.9920  -11.4975   19.4428 O   0  0  0  0  0  0  0  0  0  0  0  0
   15.2358  -10.6507   21.4109 N   0  0  0  0  0  0  0  0  0  0  0  0
   13.9586  -10.2754   20.8640 C   0  0  0  0  0  0  0  0  0  0  0  0
   13.1293  -13.2229   22.3497 O   0  0  0  0  0  0  0  0  0  0  0  0
   12.0121   -8.4758   23.5241 C   0  0  0  0  0  0  0  0  0  0  0  0
   11.9771   -6.8566   24.1806 Cl  0  0  0  0  0  0  0  0  0  0  0  0
  9  1  2  0
  1 31  1  0
  3  2  1  0
 31  2  2  0
 10  3  2  0
 11  4  2  0
  4 16  1  0
  5  6  1  0
  5 15  1  0
  5 26  1  6
  6  7  1  0
 14  7  1  0
 10  8  1  0
  8 30  1  0
  9 10  1  0
 29  9  1  0
 12 11  1  0
 11 19  1  0
 21 12  1  1
 15 13  1  0
 13 24  1  0
 13 25  2  0
 15 14  1  0
 16 17  2  0
 18 17  1  0
 19 18  2  0
 21 20  2  0
 21 22  2  0
 23 21  1  0
 24 23  1  0
 26 27  2  0
 28 26  1  0
 28 29  1  0
 31 32  1  0
M  END
$$$$
