
     RDKit          3D

 32 34  0  0  0  0  0  0  0  0999 V2000
   13.2439  -10.8144   23.0189 C   0  0  0  0  0  0  0  0  0  0  0  0
   11.6487   -9.1209   23.4852 C   0  0  0  0  0  0  0  0  0  0  0  0
   11.5231   -8.8890   22.1155 C   0  0  0  0  0  0  0  0  0  0  0  0
   21.0931  -15.1334   26.0175 C   0  0  0  0  0  0  0  0  0  0  0  0
   17.5833  -11.2525   21.5094 C   0  0  2  0  0  0  0  0  0  0  0  0
   18.6351  -10.6262   20.6702 C   0  0  0  0  0  0  0  0  0  0  0  0
   19.2591  -11.8376   20.0013 C   0  0  0  0  0  0  0  0  0  0  0  0
   12.1304   -9.3694   19.7837 C   0  0  0  0  0  0  0  0  0  0  0  0
   13.1207  -10.5867   21.6659 C   0  0  0  0  0  0  0  0  0  0  0  0
   12.2621   -9.6253   21.2099 C   0  0  0  0  0  0  0  0  0  0  0  0
   20.6646  -15.7479   24.8600 C   0  0  0  0  0  0  0  0  0  0  0  0
   19.6764  -16.8479   24.9015 C   0  0  0  0  0  0  0  0  0  0  0  0
   17.7065  -13.1882   23.1077 C   0  0  0  0  0  0  0  0  0  0  0  0
   19.4398  -12.7184   21.2685 C   0  0  0  0  0  0  0  0  0  0  0  0
   18.2558  -12.4689   22.0308 N   0  0  0  0  0  0  0  0  0  0  0  0
   22.0210  -14.1032   25.9719 C   0  0  0  0  0  0  0  0  0  0  0  0
   22.5498  -13.6543   24.7711 C   0  0  0  0  0  0  0  0  0  0  0  0
   22.1139  -14.2764   23.6214 C   0  0  0  0  0  0  0  0  0  0  0  0
   21.1907  -15.3013   23.6676 C   0  0  0  0  0  0  0  0  0  0  0  0
   17.2817  -17.3250   25.9370 O   0  0  0  0  0  0  0  0  0  0  0  0
   18.1481  -16.1804   25.5125 S   0  0  1  0  0  6  0  0  0  0  0  0
   18.3899  -15.2651   26.6763 O   0  0  0  0  0  0  0  0  0  0  0  0
   17.3658  -15.2630   24.2574 N   0  0  0  0  0  0  0  0  0  0  0  0
   18.3465  -14.3386   23.7491 C   0  0  0  0  0  0  0  0  0  0  0  0
   16.5606  -12.8585   23.6066 O   0  0  0  0  0  0  0  0  0  0  0  0
   16.3908  -11.7020   20.7894 C   0  0  0  0  0  0  0  0  0  0  0  0
   16.3076  -12.8574   20.2915 O   0  0  0  0  0  0  0  0  0  0  0  0
   15.2445  -10.8732   20.5991 N   0  0  0  0  0  0  0  0  0  0  0  0
   13.9011  -11.3785   20.7032 C   0  0  0  0  0  0  0  0  0  0  0  0
   11.4516  -10.3028   19.0473 O   0  0  0  0  0  0  0  0  0  0  0  0
   12.5139  -10.0892   23.9463 C   0  0  0  0  0  0  0  0  0  0  0  0
   12.7363  -10.4480   25.6421 Cl  0  0  0  0  0  0  0  0  0  0  0  0
  9  1  2  0
  1 31  1  0
  3  2  1  0
 31  2  2  0
 10  3  2  0
 11  4  2  0
  4 16  1  0
  5  6  1  0
  5 15  1  0
  5 26  1  6
  6  7  1  0
 14  7  1  0
 10  8  1  0
  8 30  1  0
  9 10  1  0
 29  9  1  0
 12 11  1  0
 11 19  1  0
 21 12  1  6
 15 13  1  0
 13 24  1  0
 13 25  2  0
 15 14  1  0
 16 17  2  0
 18 17  1  0
 19 18  2  0
 21 20  2  0
 21 22  2  0
 23 21  1  0
 24 23  1  0
 26 27  2  0
 28 26  1  0
 28 29  1  0
 31 32  1  0
M  END
$$$$
