
     RDKit          3D

 32 34  0  0  0  0  0  0  0  0999 V2000
   12.8457   -8.7307   22.3769 C   0  0  0  0  0  0  0  0  0  0  0  0
   11.0617   -9.6895   23.6129 C   0  0  0  0  0  0  0  0  0  0  0  0
   11.2424  -10.8819   22.9121 C   0  0  0  0  0  0  0  0  0  0  0  0
   20.4109  -15.1600   26.2989 C   0  0  0  0  0  0  0  0  0  0  0  0
   17.3397  -11.4564   20.8849 C   0  0  2  0  0  0  0  0  0  0  0  0
   18.5149  -11.0637   20.0678 C   0  0  0  0  0  0  0  0  0  0  0  0
   18.7682  -12.3260   19.2637 C   0  0  0  0  0  0  0  0  0  0  0  0
   12.4010  -12.2306   21.2163 C   0  0  0  0  0  0  0  0  0  0  0  0
   13.0255   -9.9076   21.6840 C   0  0  0  0  0  0  0  0  0  0  0  0
   12.2265  -10.9852   21.9480 C   0  0  0  0  0  0  0  0  0  0  0  0
   19.7964  -14.1701   25.5619 C   0  0  0  0  0  0  0  0  0  0  0  0
   18.3647  -14.2650   25.2017 C   0  0  0  0  0  0  0  0  0  0  0  0
   16.9360  -13.5023   22.2877 C   0  0  0  0  0  0  0  0  0  0  0  0
   18.7104  -13.3462   20.4342 C   0  0  0  0  0  0  0  0  0  0  0  0
   17.6519  -12.8577   21.2625 N   0  0  0  0  0  0  0  0  0  0  0  0
   21.7542  -15.0658   26.6324 C   0  0  0  0  0  0  0  0  0  0  0  0
   22.5254  -13.9817   26.2413 C   0  0  0  0  0  0  0  0  0  0  0  0
   21.8999  -12.9990   25.5051 C   0  0  0  0  0  0  0  0  0  0  0  0
   20.5635  -13.0936   25.1737 C   0  0  0  0  0  0  0  0  0  0  0  0
   19.2591  -16.7211   24.7526 O   0  0  0  0  0  0  0  0  0  0  0  0
   18.1106  -15.8286   24.3984 S   0  0  1  0  0  6  0  0  0  0  0  0
   16.8220  -16.4560   24.8415 O   0  0  0  0  0  0  0  0  0  0  0  0
   18.0341  -15.5967   22.6753 N   0  0  0  0  0  0  0  0  0  0  0  0
   16.7750  -14.9535   22.4007 C   0  0  0  0  0  0  0  0  0  0  0  0
   16.3581  -12.8193   23.2204 O   0  0  0  0  0  0  0  0  0  0  0  0
   16.0610  -11.4831   20.1731 C   0  0  0  0  0  0  0  0  0  0  0  0
   15.9904  -11.7169   18.9361 O   0  0  0  0  0  0  0  0  0  0  0  0
   14.8109  -11.2485   20.8206 N   0  0  0  0  0  0  0  0  0  0  0  0
   14.0802  -10.0185   20.6652 C   0  0  0  0  0  0  0  0  0  0  0  0
   11.6738  -13.3081   21.6457 O   0  0  0  0  0  0  0  0  0  0  0  0
   11.8660   -8.6025   23.3477 C   0  0  0  0  0  0  0  0  0  0  0  0
   11.7118   -7.0707   24.1746 Cl  0  0  0  0  0  0  0  0  0  0  0  0
  9  1  2  0
  1 31  1  0
  3  2  1  0
 31  2  2  0
 10  3  2  0
 11  4  2  0
  4 16  1  0
  5  6  1  0
  5 15  1  0
  5 26  1  6
  6  7  1  0
 14  7  1  0
 10  8  1  0
  8 30  1  0
  9 10  1  0
 29  9  1  0
 12 11  1  0
 11 19  1  0
 21 12  1  1
 15 13  1  0
 13 24  1  0
 13 25  2  0
 15 14  1  0
 16 17  2  0
 18 17  1  0
 19 18  2  0
 21 20  2  0
 21 22  2  0
 23 21  1  0
 24 23  1  0
 26 27  2  0
 28 26  1  0
 28 29  1  0
 31 32  1  0
M  END
$$$$
