
     RDKit          3D

 32 34  0  0  0  0  0  0  0  0999 V2000
   12.5963   -8.3887   22.0976 C   0  0  0  0  0  0  0  0  0  0  0  0
   10.6017   -9.0057   23.2247 C   0  0  0  0  0  0  0  0  0  0  0  0
   10.7394  -10.2988   22.7203 C   0  0  0  0  0  0  0  0  0  0  0  0
   21.8086  -16.0069   25.1224 C   0  0  0  0  0  0  0  0  0  0  0  0
   17.1514  -11.6454   21.5355 C   0  0  2  0  0  0  0  0  0  0  0  0
   18.3552  -11.0389   20.9143 C   0  0  0  0  0  0  0  0  0  0  0  0
   18.6722  -12.0369   19.8153 C   0  0  0  0  0  0  0  0  0  0  0  0
   11.9378  -11.9725   21.3789 C   0  0  0  0  0  0  0  0  0  0  0  0
   12.7338   -9.6654   21.5988 C   0  0  0  0  0  0  0  0  0  0  0  0
   11.8081  -10.6231   21.9072 C   0  0  0  0  0  0  0  0  0  0  0  0
   20.7165  -15.4939   25.7895 C   0  0  0  0  0  0  0  0  0  0  0  0
   19.5311  -16.3332   26.0704 C   0  0  0  0  0  0  0  0  0  0  0  0
   16.7249  -13.9959   22.3164 C   0  0  0  0  0  0  0  0  0  0  0  0
   18.5807  -13.3344   20.6652 C   0  0  0  0  0  0  0  0  0  0  0  0
   17.4746  -13.0942   21.5392 N   0  0  0  0  0  0  0  0  0  0  0  0
   22.9167  -15.2143   24.8610 C   0  0  0  0  0  0  0  0  0  0  0  0
   22.9696  -13.8863   25.2567 C   0  0  0  0  0  0  0  0  0  0  0  0
   21.8721  -13.3852   25.9224 C   0  0  0  0  0  0  0  0  0  0  0  0
   20.7701  -14.1744   26.1821 C   0  0  0  0  0  0  0  0  0  0  0  0
   19.5460  -17.3211   23.6092 O   0  0  0  0  0  0  0  0  0  0  0  0
   18.6550  -16.5621   24.5424 S   0  0  1  0  0  6  0  0  0  0  0  0
   17.3814  -17.3234   24.7634 O   0  0  0  0  0  0  0  0  0  0  0  0
   18.2472  -15.0127   23.8628 N   0  0  0  0  0  0  0  0  0  0  0  0
   17.2434  -15.2537   22.8584 C   0  0  0  0  0  0  0  0  0  0  0  0
   15.4885  -13.7518   22.6030 O   0  0  0  0  0  0  0  0  0  0  0  0
   15.9083  -11.4894   20.7785 C   0  0  0  0  0  0  0  0  0  0  0  0
   15.8344  -11.7695   19.5514 O   0  0  0  0  0  0  0  0  0  0  0  0
   14.6990  -11.0128   21.3681 N   0  0  0  0  0  0  0  0  0  0  0  0
   13.8776  -10.0109   20.7415 C   0  0  0  0  0  0  0  0  0  0  0  0
   11.3153  -12.2336   20.1879 O   0  0  0  0  0  0  0  0  0  0  0  0
   11.5336   -8.0393   22.9145 C   0  0  0  0  0  0  0  0  0  0  0  0
   11.4419   -6.3952   23.4998 Cl  0  0  0  0  0  0  0  0  0  0  0  0
  9  1  2  0
  1 31  1  0
  3  2  1  0
 31  2  2  0
 10  3  2  0
 11  4  2  0
  4 16  1  0
  5  6  1  0
  5 15  1  0
  5 26  1  6
  6  7  1  0
 14  7  1  0
 10  8  1  0
  8 30  1  0
  9 10  1  0
 29  9  1  0
 12 11  1  0
 11 19  1  0
 21 12  1  1
 15 13  1  0
 13 24  1  0
 13 25  2  0
 15 14  1  0
 16 17  2  0
 18 17  1  0
 19 18  2  0
 21 20  2  0
 21 22  2  0
 23 21  1  0
 24 23  1  0
 26 27  2  0
 28 26  1  0
 28 29  1  0
 31 32  1  0
M  END
$$$$
