
     RDKit          3D

 32 34  0  0  0  0  0  0  0  0999 V2000
   13.1767   -9.1574   22.2705 C   0  0  0  0  0  0  0  0  0  0  0  0
   12.0885  -10.5175   23.8816 C   0  0  0  0  0  0  0  0  0  0  0  0
   12.4114  -11.6421   23.1222 C   0  0  0  0  0  0  0  0  0  0  0  0
   16.6825  -16.6810   26.2894 C   0  0  0  0  0  0  0  0  0  0  0  0
   17.8891  -11.4062   19.9833 C   0  0  2  0  0  0  0  0  0  0  0  0
   18.7354  -10.8740   18.8863 C   0  0  0  0  0  0  0  0  0  0  0  0
   18.5732  -11.9454   17.8232 C   0  0  0  0  0  0  0  0  0  0  0  0
   13.4398  -12.6891   21.1517 C   0  0  0  0  0  0  0  0  0  0  0  0
   13.4965  -10.2671   21.5195 C   0  0  0  0  0  0  0  0  0  0  0  0
   13.1159  -11.5107   21.9411 C   0  0  0  0  0  0  0  0  0  0  0  0
   16.2540  -16.1013   25.1141 C   0  0  0  0  0  0  0  0  0  0  0  0
   17.1922  -15.3598   24.2432 C   0  0  0  0  0  0  0  0  0  0  0  0
   17.8134  -13.6917   21.0260 C   0  0  0  0  0  0  0  0  0  0  0  0
   18.8339  -13.1861   18.7215 C   0  0  0  0  0  0  0  0  0  0  0  0
   18.1821  -12.8611   19.9522 N   0  0  0  0  0  0  0  0  0  0  0  0
   15.7975  -17.3739   27.1024 C   0  0  0  0  0  0  0  0  0  0  0  0
   14.4585  -17.5101   26.7683 C   0  0  0  0  0  0  0  0  0  0  0  0
   14.0424  -16.9263   25.5914 C   0  0  0  0  0  0  0  0  0  0  0  0
   14.9236  -16.2370   24.7832 C   0  0  0  0  0  0  0  0  0  0  0  0
   18.8828  -17.3814   23.9447 O   0  0  0  0  0  0  0  0  0  0  0  0
   17.9491  -16.5299   23.1421 S   0  0  1  0  0  6  0  0  0  0  0  0
   16.9139  -17.3917   22.4815 O   0  0  0  0  0  0  0  0  0  0  0  0
   18.8218  -15.6835   21.8968 N   0  0  0  0  0  0  0  0  0  0  0  0
   17.8368  -15.1554   20.9883 C   0  0  0  0  0  0  0  0  0  0  0  0
   17.4169  -13.1854   22.1471 O   0  0  0  0  0  0  0  0  0  0  0  0
   16.4457  -11.2593   19.7902 C   0  0  0  0  0  0  0  0  0  0  0  0
   15.8048  -11.9768   18.9752 O   0  0  0  0  0  0  0  0  0  0  0  0
   15.6639  -10.3016   20.5035 N   0  0  0  0  0  0  0  0  0  0  0  0
   14.2551  -10.1258   20.2676 C   0  0  0  0  0  0  0  0  0  0  0  0
   12.5142  -13.0873   20.2250 O   0  0  0  0  0  0  0  0  0  0  0  0
   12.4711   -9.2635   23.4578 C   0  0  0  0  0  0  0  0  0  0  0  0
   12.1107   -7.8003   24.3429 Cl  0  0  0  0  0  0  0  0  0  0  0  0
  9  1  2  0
  1 31  1  0
  3  2  1  0
 31  2  2  0
 10  3  2  0
 11  4  2  0
  4 16  1  0
  5  6  1  0
  5 15  1  0
  5 26  1  6
  6  7  1  0
 14  7  1  0
 10  8  1  0
  8 30  1  0
  9 10  1  0
 29  9  1  0
 12 11  1  0
 11 19  1  0
 21 12  1  1
 15 13  1  0
 13 24  1  0
 13 25  2  0
 15 14  1  0
 16 17  2  0
 18 17  1  0
 19 18  2  0
 21 20  2  0
 21 22  2  0
 23 21  1  0
 24 23  1  0
 26 27  2  0
 28 26  1  0
 28 29  1  0
 31 32  1  0
M  END
$$$$
