
     RDKit          3D

 32 34  0  0  0  0  0  0  0  0999 V2000
   13.0255   -8.9696   22.3613 C   0  0  0  0  0  0  0  0  0  0  0  0
   11.1385   -9.6510   23.6281 C   0  0  0  0  0  0  0  0  0  0  0  0
   11.0776  -10.8215   22.8720 C   0  0  0  0  0  0  0  0  0  0  0  0
   20.2822  -15.1557   26.1102 C   0  0  0  0  0  0  0  0  0  0  0  0
   17.5082  -11.5247   20.5848 C   0  0  2  0  0  0  0  0  0  0  0  0
   18.4415  -11.1312   19.4998 C   0  0  0  0  0  0  0  0  0  0  0  0
   18.5518  -12.4195   18.7045 C   0  0  0  0  0  0  0  0  0  0  0  0
   11.9171  -12.2733   21.0764 C   0  0  0  0  0  0  0  0  0  0  0  0
   12.9667  -10.1252   21.6138 C   0  0  0  0  0  0  0  0  0  0  0  0
   11.9948  -11.0534   21.8653 C   0  0  0  0  0  0  0  0  0  0  0  0
   20.2919  -15.3886   24.7513 C   0  0  0  0  0  0  0  0  0  0  0  0
   19.8470  -16.6860   24.1968 C   0  0  0  0  0  0  0  0  0  0  0  0
   17.5310  -13.5176   22.1159 C   0  0  0  0  0  0  0  0  0  0  0  0
   18.8130  -13.3876   19.8915 C   0  0  0  0  0  0  0  0  0  0  0  0
   17.9588  -12.8968   20.9282 N   0  0  0  0  0  0  0  0  0  0  0  0
   20.7018  -13.9374   26.6241 C   0  0  0  0  0  0  0  0  0  0  0  0
   21.1436  -12.9143   25.7988 C   0  0  0  0  0  0  0  0  0  0  0  0
   21.1487  -13.1592   24.4427 C   0  0  0  0  0  0  0  0  0  0  0  0
   20.7311  -14.3716   23.9323 C   0  0  0  0  0  0  0  0  0  0  0  0
   17.5941  -17.7682   23.3097 O   0  0  0  0  0  0  0  0  0  0  0  0
   18.0731  -16.7286   24.2745 S   0  0  1  0  0  6  0  0  0  0  0  0
   17.6049  -17.0643   25.6596 O   0  0  0  0  0  0  0  0  0  0  0  0
   17.4301  -15.1680   23.8504 N   0  0  0  0  0  0  0  0  0  0  0  0
   17.8958  -14.8774   22.5187 C   0  0  0  0  0  0  0  0  0  0  0  0
   16.7609  -12.8952   22.9465 O   0  0  0  0  0  0  0  0  0  0  0  0
   16.1005  -11.6246   20.1964 C   0  0  0  0  0  0  0  0  0  0  0  0
   15.7469  -12.1077   19.0868 O   0  0  0  0  0  0  0  0  0  0  0  0
   15.0338  -11.1862   21.0372 N   0  0  0  0  0  0  0  0  0  0  0  0
   13.9502  -10.3745   20.5493 C   0  0  0  0  0  0  0  0  0  0  0  0
   12.7248  -13.3105   21.4587 O   0  0  0  0  0  0  0  0  0  0  0  0
   12.1172   -8.7145   23.3756 C   0  0  0  0  0  0  0  0  0  0  0  0
   12.2699   -7.2212   24.2705 Cl  0  0  0  0  0  0  0  0  0  0  0  0
  9  1  2  0
  1 31  1  0
  3  2  1  0
 31  2  2  0
 10  3  2  0
 11  4  2  0
  4 16  1  0
  5  6  1  0
  5 15  1  0
  5 26  1  6
  6  7  1  0
 14  7  1  0
 10  8  1  0
  8 30  1  0
  9 10  1  0
 29  9  1  0
 12 11  1  0
 11 19  1  0
 21 12  1  1
 15 13  1  0
 13 24  1  0
 13 25  2  0
 15 14  1  0
 16 17  2  0
 18 17  1  0
 19 18  2  0
 21 20  2  0
 21 22  2  0
 23 21  1  0
 24 23  1  0
 26 27  2  0
 28 26  1  0
 28 29  1  0
 31 32  1  0
M  END
$$$$
