
     RDKit          3D

 32 34  0  0  0  0  0  0  0  0999 V2000
   13.5523   -9.3054   22.7074 C   0  0  0  0  0  0  0  0  0  0  0  0
   11.2175   -8.9291   22.8991 C   0  0  0  0  0  0  0  0  0  0  0  0
   10.9886  -10.1931   22.3554 C   0  0  0  0  0  0  0  0  0  0  0  0
   19.9691  -14.6691   25.5295 C   0  0  0  0  0  0  0  0  0  0  0  0
   17.6989  -11.2266   20.8851 C   0  0  2  0  0  0  0  0  0  0  0  0
   18.7779  -10.6513   20.0438 C   0  0  0  0  0  0  0  0  0  0  0  0
   19.1735  -11.8429   19.1907 C   0  0  0  0  0  0  0  0  0  0  0  0
   11.7989  -12.3148   21.4180 C   0  0  0  0  0  0  0  0  0  0  0  0
   13.3279  -10.5540   22.1706 C   0  0  0  0  0  0  0  0  0  0  0  0
   12.0484  -11.0017   21.9926 C   0  0  0  0  0  0  0  0  0  0  0  0
   20.6290  -15.3708   24.5431 C   0  0  0  0  0  0  0  0  0  0  0  0
   19.9630  -16.4738   23.8163 C   0  0  0  0  0  0  0  0  0  0  0  0
   17.6332  -13.3476   22.2318 C   0  0  0  0  0  0  0  0  0  0  0  0
   19.2999  -12.8939   20.3282 C   0  0  0  0  0  0  0  0  0  0  0  0
   18.2152  -12.5809   21.2059 N   0  0  0  0  0  0  0  0  0  0  0  0
   20.5997  -13.6366   26.2083 C   0  0  0  0  0  0  0  0  0  0  0  0
   21.9073  -13.2723   25.9242 C   0  0  0  0  0  0  0  0  0  0  0  0
   22.5561  -13.9811   24.9365 C   0  0  0  0  0  0  0  0  0  0  0  0
   21.9280  -15.0082   24.2617 C   0  0  0  0  0  0  0  0  0  0  0  0
   17.6530  -17.7766   23.7890 O   0  0  0  0  0  0  0  0  0  0  0  0
   18.2755  -16.5435   24.3660 S   0  0  1  0  0  6  0  0  0  0  0  0
   18.2007  -16.5878   25.8637 O   0  0  0  0  0  0  0  0  0  0  0  0
   17.4235  -15.1259   23.8243 N   0  0  0  0  0  0  0  0  0  0  0  0
   18.0727  -14.6911   22.6143 C   0  0  0  0  0  0  0  0  0  0  0  0
   16.6385  -12.8878   22.9172 O   0  0  0  0  0  0  0  0  0  0  0  0
   16.4110  -11.4108   20.2145 C   0  0  0  0  0  0  0  0  0  0  0  0
   16.2996  -12.0898   19.1580 O   0  0  0  0  0  0  0  0  0  0  0  0
   15.1969  -10.8405   20.7024 N   0  0  0  0  0  0  0  0  0  0  0  0
   14.4577  -11.4170   21.7943 C   0  0  0  0  0  0  0  0  0  0  0  0
   11.6658  -12.3801   20.0570 O   0  0  0  0  0  0  0  0  0  0  0  0
   12.5065   -8.4764   23.0787 C   0  0  0  0  0  0  0  0  0  0  0  0
   12.8878   -6.9091   23.7511 Cl  0  0  0  0  0  0  0  0  0  0  0  0
  9  1  2  0
  1 31  1  0
  3  2  1  0
 31  2  2  0
 10  3  2  0
 11  4  2  0
  4 16  1  0
  5  6  1  0
  5 15  1  0
  5 26  1  6
  6  7  1  0
 14  7  1  0
 10  8  1  0
  8 30  1  0
  9 10  1  0
 29  9  1  0
 12 11  1  0
 11 19  1  0
 21 12  1  1
 15 13  1  0
 13 24  1  0
 13 25  2  0
 15 14  1  0
 16 17  2  0
 18 17  1  0
 19 18  2  0
 21 20  2  0
 21 22  2  0
 23 21  1  0
 24 23  1  0
 26 27  2  0
 28 26  1  0
 28 29  1  0
 31 32  1  0
M  END
$$$$
