
     RDKit          3D

 32 34  0  0  0  0  0  0  0  0999 V2000
   13.0755   -8.6051   22.4473 C   0  0  0  0  0  0  0  0  0  0  0  0
   10.9504   -9.5594   22.8979 C   0  0  0  0  0  0  0  0  0  0  0  0
   11.3630  -10.7307   22.2627 C   0  0  0  0  0  0  0  0  0  0  0  0
   21.0156  -17.0984   25.8846 C   0  0  0  0  0  0  0  0  0  0  0  0
   17.5028  -11.2588   20.6703 C   0  0  2  0  0  0  0  0  0  0  0  0
   18.6449  -10.8959   19.7946 C   0  0  0  0  0  0  0  0  0  0  0  0
   19.0181  -12.2416   19.1997 C   0  0  0  0  0  0  0  0  0  0  0  0
   13.0496  -12.0489   21.0566 C   0  0  0  0  0  0  0  0  0  0  0  0
   13.4845   -9.7613   21.8198 C   0  0  0  0  0  0  0  0  0  0  0  0
   12.6320  -10.8259   21.7250 C   0  0  0  0  0  0  0  0  0  0  0  0
   20.6925  -15.8083   25.5210 C   0  0  0  0  0  0  0  0  0  0  0  0
   19.3596  -15.2421   25.8227 C   0  0  0  0  0  0  0  0  0  0  0  0
   17.2731  -13.0844   22.3824 C   0  0  0  0  0  0  0  0  0  0  0  0
   19.0424  -13.0642   20.5176 C   0  0  0  0  0  0  0  0  0  0  0  0
   17.9369  -12.5484   21.2638 N   0  0  0  0  0  0  0  0  0  0  0  0
   22.2669  -17.6240   25.5977 C   0  0  0  0  0  0  0  0  0  0  0  0
   23.2342  -16.8794   24.9397 C   0  0  0  0  0  0  0  0  0  0  0  0
   22.8994  -15.5915   24.5815 C   0  0  0  0  0  0  0  0  0  0  0  0
   21.6542  -15.0694   24.8673 C   0  0  0  0  0  0  0  0  0  0  0  0
   18.9607  -16.6035   23.5818 O   0  0  0  0  0  0  0  0  0  0  0  0
   18.1926  -15.9781   24.7043 S   0  0  1  0  0  6  0  0  0  0  0  0
   17.3671  -17.0201   25.3997 O   0  0  0  0  0  0  0  0  0  0  0  0
   17.1155  -14.7556   24.0925 N   0  0  0  0  0  0  0  0  0  0  0  0
   17.9429  -13.7281   23.5144 C   0  0  0  0  0  0  0  0  0  0  0  0
   15.9846  -13.0360   22.4720 O   0  0  0  0  0  0  0  0  0  0  0  0
   16.2380  -11.5137   19.9791 C   0  0  0  0  0  0  0  0  0  0  0  0
   16.1885  -12.1462   18.8895 O   0  0  0  0  0  0  0  0  0  0  0  0
   14.9787  -11.0689   20.4825 N   0  0  0  0  0  0  0  0  0  0  0  0
   14.8393   -9.8639   21.2569 C   0  0  0  0  0  0  0  0  0  0  0  0
   12.0596  -12.8429   20.5430 O   0  0  0  0  0  0  0  0  0  0  0  0
   11.8084   -8.4855   22.9939 C   0  0  0  0  0  0  0  0  0  0  0  0
   11.3779   -6.9802   23.7704 Cl  0  0  0  0  0  0  0  0  0  0  0  0
  9  1  2  0
  1 31  1  0
  3  2  1  0
 31  2  2  0
 10  3  2  0
 11  4  2  0
  4 16  1  0
  5  6  1  0
  5 15  1  0
  5 26  1  6
  6  7  1  0
 14  7  1  0
 10  8  1  0
  8 30  1  0
  9 10  1  0
 29  9  1  0
 12 11  1  0
 11 19  1  0
 21 12  1  1
 15 13  1  0
 13 24  1  0
 13 25  2  0
 15 14  1  0
 16 17  2  0
 18 17  1  0
 19 18  2  0
 21 20  2  0
 21 22  2  0
 23 21  1  0
 24 23  1  0
 26 27  2  0
 28 26  1  0
 28 29  1  0
 31 32  1  0
M  END
$$$$
