
     RDKit          3D

 32 34  0  0  0  0  0  0  0  0999 V2000
   11.7628  -11.4468   22.4204 C   0  0  0  0  0  0  0  0  0  0  0  0
   11.6099   -9.4337   23.6669 C   0  0  0  0  0  0  0  0  0  0  0  0
   12.6446   -8.9013   22.8977 C   0  0  0  0  0  0  0  0  0  0  0  0
   22.3536  -14.4666   25.1317 C   0  0  0  0  0  0  0  0  0  0  0  0
   17.0949  -12.0272   21.0178 C   0  0  2  0  0  0  0  0  0  0  0  0
   18.1087  -11.3552   20.1672 C   0  0  0  0  0  0  0  0  0  0  0  0
   18.6059  -12.5059   19.3111 C   0  0  0  0  0  0  0  0  0  0  0  0
   14.3134   -9.0896   21.1043 C   0  0  0  0  0  0  0  0  0  0  0  0
   12.7847  -10.9224   21.6598 C   0  0  0  0  0  0  0  0  0  0  0  0
   13.2287   -9.6509   21.8949 C   0  0  0  0  0  0  0  0  0  0  0  0
   21.0118  -14.6080   25.4156 C   0  0  0  0  0  0  0  0  0  0  0  0
   20.1076  -15.3240   24.4890 C   0  0  0  0  0  0  0  0  0  0  0  0
   17.2377  -14.1436   22.3657 C   0  0  0  0  0  0  0  0  0  0  0  0
   18.8390  -13.5393   20.4478 C   0  0  0  0  0  0  0  0  0  0  0  0
   17.7374  -13.3274   21.3347 N   0  0  0  0  0  0  0  0  0  0  0  0
   23.1960  -13.7930   26.0040 C   0  0  0  0  0  0  0  0  0  0  0  0
   22.7263  -13.2401   27.1859 C   0  0  0  0  0  0  0  0  0  0  0  0
   21.3837  -13.3880   27.4584 C   0  0  0  0  0  0  0  0  0  0  0  0
   20.5462  -14.0583   26.5899 C   0  0  0  0  0  0  0  0  0  0  0  0
   18.4039  -15.9003   26.4381 O   0  0  0  0  0  0  0  0  0  0  0  0
   18.4558  -15.1815   25.1261 S   0  0  1  0  0  6  0  0  0  0  0  0
   18.0773  -13.7426   25.3178 O   0  0  0  0  0  0  0  0  0  0  0  0
   17.3313  -15.8908   24.0031 N   0  0  0  0  0  0  0  0  0  0  0  0
   17.7465  -15.4787   22.6869 C   0  0  0  0  0  0  0  0  0  0  0  0
   16.2625  -13.7418   23.1128 O   0  0  0  0  0  0  0  0  0  0  0  0
   15.8240  -12.3309   20.3582 C   0  0  0  0  0  0  0  0  0  0  0  0
   15.7529  -12.5639   19.1212 O   0  0  0  0  0  0  0  0  0  0  0  0
   14.5824  -12.3850   21.0602 N   0  0  0  0  0  0  0  0  0  0  0  0
   13.3983  -11.7185   20.5863 C   0  0  0  0  0  0  0  0  0  0  0  0
   14.0071   -8.6827   19.8335 O   0  0  0  0  0  0  0  0  0  0  0  0
   11.1615  -10.7152   23.4312 C   0  0  0  0  0  0  0  0  0  0  0  0
    9.8726  -11.4635   24.3439 Cl  0  0  0  0  0  0  0  0  0  0  0  0
  9  1  2  0
  1 31  1  0
  3  2  1  0
 31  2  2  0
 10  3  2  0
 11  4  2  0
  4 16  1  0
  5  6  1  0
  5 15  1  0
  5 26  1  6
  6  7  1  0
 14  7  1  0
 10  8  1  0
  8 30  1  0
  9 10  1  0
 29  9  1  0
 12 11  1  0
 11 19  1  0
 21 12  1  6
 15 13  1  0
 13 24  1  0
 13 25  2  0
 15 14  1  0
 16 17  2  0
 18 17  1  0
 19 18  2  0
 21 20  2  0
 21 22  2  0
 23 21  1  0
 24 23  1  0
 26 27  2  0
 28 26  1  0
 28 29  1  0
 31 32  1  0
M  END
$$$$
