
     RDKit          3D

 32 34  0  0  0  0  0  0  0  0999 V2000
   12.2846  -10.7900   22.9617 C   0  0  0  0  0  0  0  0  0  0  0  0
   10.8597   -8.8958   22.8542 C   0  0  0  0  0  0  0  0  0  0  0  0
   11.3669   -8.6102   21.5866 C   0  0  0  0  0  0  0  0  0  0  0  0
   20.4290  -17.2190   26.1083 C   0  0  0  0  0  0  0  0  0  0  0  0
   17.5733  -11.4615   21.8243 C   0  0  2  0  0  0  0  0  0  0  0  0
   18.6034  -10.7308   21.0445 C   0  0  0  0  0  0  0  0  0  0  0  0
   19.0820  -11.8036   20.0831 C   0  0  0  0  0  0  0  0  0  0  0  0
   12.8599   -9.1092   19.7002 C   0  0  0  0  0  0  0  0  0  0  0  0
   12.7863  -10.5094   21.7098 C   0  0  0  0  0  0  0  0  0  0  0  0
   12.3308   -9.4209   21.0191 C   0  0  0  0  0  0  0  0  0  0  0  0
   20.7546  -15.8871   25.9635 C   0  0  0  0  0  0  0  0  0  0  0  0
   19.7037  -14.8580   25.8053 C   0  0  0  0  0  0  0  0  0  0  0  0
   17.6699  -13.6998   22.9632 C   0  0  0  0  0  0  0  0  0  0  0  0
   19.2905  -12.9456   21.1159 C   0  0  0  0  0  0  0  0  0  0  0  0
   18.1894  -12.7983   22.0164 N   0  0  0  0  0  0  0  0  0  0  0  0
   21.4192  -18.1793   26.2550 C   0  0  0  0  0  0  0  0  0  0  0  0
   22.7641  -17.8411   26.2618 C   0  0  0  0  0  0  0  0  0  0  0  0
   23.0767  -16.5069   26.1162 C   0  0  0  0  0  0  0  0  0  0  0  0
   22.0910  -15.5521   25.9703 C   0  0  0  0  0  0  0  0  0  0  0  0
   18.3443  -17.0702   26.3453 O   0  0  0  0  0  0  0  0  0  0  0  0
   18.1306  -15.6823   25.8267 S   0  0  1  0  0  6  0  0  0  0  0  0
   17.1558  -14.9546   26.7046 O   0  0  0  0  0  0  0  0  0  0  0  0
   17.4734  -15.7331   24.2161 N   0  0  0  0  0  0  0  0  0  0  0  0
   18.3391  -14.9300   23.3913 C   0  0  0  0  0  0  0  0  0  0  0  0
   16.5274  -13.4810   23.5265 O   0  0  0  0  0  0  0  0  0  0  0  0
   16.2996  -11.6757   21.1357 C   0  0  0  0  0  0  0  0  0  0  0  0
   16.1632  -12.5555   20.2430 O   0  0  0  0  0  0  0  0  0  0  0  0
   15.1285  -10.9114   21.4212 N   0  0  0  0  0  0  0  0  0  0  0  0
   13.8052  -11.3794   21.1035 C   0  0  0  0  0  0  0  0  0  0  0  0
   14.0215   -8.3861   19.6540 O   0  0  0  0  0  0  0  0  0  0  0  0
   11.3180   -9.9923   23.5517 C   0  0  0  0  0  0  0  0  0  0  0  0
   10.7412  -10.4265   25.1432 Cl  0  0  0  0  0  0  0  0  0  0  0  0
  9  1  2  0
  1 31  1  0
  3  2  1  0
 31  2  2  0
 10  3  2  0
 11  4  2  0
  4 16  1  0
  5  6  1  0
  5 15  1  0
  5 26  1  6
  6  7  1  0
 14  7  1  0
 10  8  1  0
  8 30  1  0
  9 10  1  0
 29  9  1  0
 12 11  1  0
 11 19  1  0
 21 12  1  6
 15 13  1  0
 13 24  1  0
 13 25  2  0
 15 14  1  0
 16 17  2  0
 18 17  1  0
 19 18  2  0
 21 20  2  0
 21 22  2  0
 23 21  1  0
 24 23  1  0
 26 27  2  0
 28 26  1  0
 28 29  1  0
 31 32  1  0
M  END
$$$$
