
     RDKit          3D

 32 34  0  0  0  0  0  0  0  0999 V2000
   12.5190  -10.1602   23.2474 C   0  0  0  0  0  0  0  0  0  0  0  0
   11.8860   -7.9207   22.7848 C   0  0  0  0  0  0  0  0  0  0  0  0
   12.3978   -8.0627   21.4950 C   0  0  0  0  0  0  0  0  0  0  0  0
   14.1596  -18.2190   20.7185 C   0  0  0  0  0  0  0  0  0  0  0  0
   17.4499  -12.0132   21.7370 C   0  0  2  0  0  0  0  0  0  0  0  0
   18.4163  -11.3401   20.8337 C   0  0  0  0  0  0  0  0  0  0  0  0
   18.6224  -12.3940   19.7608 C   0  0  0  0  0  0  0  0  0  0  0  0
   13.5057   -9.3914   19.7503 C   0  0  0  0  0  0  0  0  0  0  0  0
   13.0247  -10.3020   21.9739 C   0  0  0  0  0  0  0  0  0  0  0  0
   12.9665   -9.2564   21.0949 C   0  0  0  0  0  0  0  0  0  0  0  0
   15.1514  -18.8137   21.4692 C   0  0  0  0  0  0  0  0  0  0  0  0
   16.3468  -18.0524   21.8936 C   0  0  0  0  0  0  0  0  0  0  0  0
   17.4871  -14.3152   22.7449 C   0  0  0  0  0  0  0  0  0  0  0  0
   18.8685  -13.6114   20.6945 C   0  0  0  0  0  0  0  0  0  0  0  0
   17.9440  -13.4127   21.7673 N   0  0  0  0  0  0  0  0  0  0  0  0
   13.0417  -18.9386   20.3226 C   0  0  0  0  0  0  0  0  0  0  0  0
   12.8786  -20.2730   20.6632 C   0  0  0  0  0  0  0  0  0  0  0  0
   13.8766  -20.8561   21.4135 C   0  0  0  0  0  0  0  0  0  0  0  0
   14.9885  -20.1394   21.8069 C   0  0  0  0  0  0  0  0  0  0  0  0
   14.7513  -16.5700   23.4071 O   0  0  0  0  0  0  0  0  0  0  0  0
   16.0129  -17.3704   23.4992 S   0  0  1  0  0  6  0  0  0  0  0  0
   15.8534  -18.4574   24.5209 O   0  0  0  0  0  0  0  0  0  0  0  0
   17.3381  -16.3559   23.9924 N   0  0  0  0  0  0  0  0  0  0  0  0
   17.8484  -15.7334   22.7979 C   0  0  0  0  0  0  0  0  0  0  0  0
   16.6907  -13.9240   23.6848 O   0  0  0  0  0  0  0  0  0  0  0  0
   16.0686  -12.0607   21.2552 C   0  0  0  0  0  0  0  0  0  0  0  0
   15.7841  -12.4092   20.0774 O   0  0  0  0  0  0  0  0  0  0  0  0
   14.9517  -11.7188   22.0755 N   0  0  0  0  0  0  0  0  0  0  0  0
   13.6208  -11.5768   21.5469 C   0  0  0  0  0  0  0  0  0  0  0  0
   12.7050   -9.9980   18.8201 O   0  0  0  0  0  0  0  0  0  0  0  0
   11.9443   -8.9735   23.6719 C   0  0  0  0  0  0  0  0  0  0  0  0
   11.3296   -8.8865   25.3056 Cl  0  0  0  0  0  0  0  0  0  0  0  0
  9  1  2  0
  1 31  1  0
  3  2  1  0
 31  2  2  0
 10  3  2  0
 11  4  2  0
  4 16  1  0
  5  6  1  0
  5 15  1  0
  5 26  1  6
  6  7  1  0
 14  7  1  0
 10  8  1  0
  8 30  1  0
  9 10  1  0
 29  9  1  0
 12 11  1  0
 11 19  1  0
 21 12  1  6
 15 13  1  0
 13 24  1  0
 13 25  2  0
 15 14  1  0
 16 17  2  0
 18 17  1  0
 19 18  2  0
 21 20  2  0
 21 22  2  0
 23 21  1  0
 24 23  1  0
 26 27  2  0
 28 26  1  0
 28 29  1  0
 31 32  1  0
M  END
$$$$
