
     RDKit          3D

 29 33  0  0  0  0  0  0  0  0999 V2000
  -12.6650  -10.6875   27.7636 C   0  0  0  0  0  0  0  0  0  0  0  0
  -12.9229   -8.0841   30.2314 C   0  0  0  0  0  0  0  0  0  0  0  0
  -12.8887   -5.9633   28.8793 C   0  0  0  0  0  0  0  0  0  0  0  0
  -15.1754   -4.8816   28.9002 C   0  0  0  0  0  0  0  0  0  0  0  0
  -17.3598   -3.5006   31.6632 C   0  0  0  0  0  0  0  0  0  0  0  0
  -18.7814   -3.9952   33.5446 C   0  0  0  0  0  0  0  0  0  0  0  0
  -18.7910   -1.6059   34.1290 C   0  0  0  0  0  0  0  0  0  0  0  0
  -16.6847   -2.9211   33.8167 C   0  0  0  0  0  0  0  0  0  0  0  0
  -14.0429   -5.1584   30.9573 C   0  0  0  0  0  0  0  0  0  0  0  0
  -12.0098  -10.0718   20.9490 N   0  0  0  0  0  0  0  0  0  0  0  0
  -12.2258   -9.4409   22.1980 C   0  0  0  0  0  0  0  0  0  0  0  0
  -12.4657   -8.1295   22.4117 N   0  0  0  0  0  0  0  0  0  0  0  0
  -12.6189   -7.8977   23.7121 N   0  0  0  0  0  0  0  0  0  0  0  0
  -12.4866   -9.0411   24.4020 C   0  0  0  0  0  0  0  0  0  0  0  0
  -12.5801   -9.2412   25.8529 C   0  0  0  0  0  0  0  0  0  0  0  0
  -12.6731   -8.1520   26.6897 C   0  0  0  0  0  0  0  0  0  0  0  0
  -12.7636   -8.3111   28.0801 C   0  0  0  0  0  0  0  0  0  0  0  0
  -12.7590   -9.5745   28.6047 C   0  0  0  0  0  0  0  0  0  0  0  0
  -12.5769  -10.5035   26.4005 C   0  0  0  0  0  0  0  0  0  0  0  0
  -12.8599   -9.4272   29.9640 C   0  0  0  0  0  0  0  0  0  0  0  0
  -12.8633   -7.4081   29.0758 N   0  0  0  0  0  0  0  0  0  0  0  0
  -14.0561   -5.3270   29.5678 C   0  0  0  0  0  0  0  0  0  0  0  0
  -16.2327   -4.2969   29.5722 C   0  0  0  0  0  0  0  0  0  0  0  0
  -16.2186   -4.1313   30.9413 C   0  0  0  0  0  0  0  0  0  0  0  0
  -17.4495   -3.9013   33.0334 N   0  0  2  0  0  4  0  0  0  0  0  0
  -19.0732   -2.9935   34.6429 C   0  0  0  0  0  0  0  0  0  0  0  0
  -17.3287   -1.5602   33.7220 C   0  0  0  0  0  0  0  0  0  0  0  0
  -15.1002   -4.5748   31.6212 C   0  0  0  0  0  0  0  0  0  0  0  0
  -12.2406  -10.0156   23.4719 C   0  0  0  0  0  0  0  0  0  0  0  0
 18  1  2  0
  1 19  1  0
  2 20  2  0
 21  2  1  0
  3 21  1  0
 22  3  1  0
  4 22  2  0
 23  4  1  0
 24  5  1  0
 25  5  1  6
 25  6  1  0
  6 26  1  0
 26  7  1  0
 27  7  1  0
 25  8  1  0
  8 27  1  0
 22  9  1  0
  9 28  2  0
 11 10  1  0
 11 12  1  0
 29 11  2  0
 13 12  1  0
 14 13  2  0
 15 14  1  0
 14 29  1  0
 16 15  1  0
 15 19  2  0
 17 16  2  0
 17 18  1  0
 21 17  1  0
 18 20  1  0
 23 24  2  0
 24 28  1  0
M  CHG  1  25   1
M  END
$$$$
