
     RDKit          3D

 29 33  0  0  0  0  0  0  0  0999 V2000
  -22.7369  -20.6582   13.7152 C   0  0  0  0  0  0  0  0  0  0  0  0
  -24.3071  -22.2267   10.8853 C   0  0  0  0  0  0  0  0  0  0  0  0
  -22.9683  -21.4077    8.9196 C   0  0  0  0  0  0  0  0  0  0  0  0
  -22.5386  -23.1403    7.1271 C   0  0  0  0  0  0  0  0  0  0  0  0
  -20.4510  -26.2937    7.0231 C   0  0  0  0  0  0  0  0  0  0  0  0
  -19.6476  -25.7138    4.8268 C   0  0  0  0  0  0  0  0  0  0  0  0
  -19.7655  -28.0864    4.1884 C   0  0  0  0  0  0  0  0  0  0  0  0
  -18.5082  -27.2790    6.1962 C   0  0  0  0  0  0  0  0  0  0  0  0
  -21.4855  -23.4090    9.2270 C   0  0  0  0  0  0  0  0  0  0  0  0
  -16.9130  -16.9630   13.7273 N   0  0  0  0  0  0  0  0  0  0  0  0
  -18.0261  -17.4664   13.0114 C   0  0  0  0  0  0  0  0  0  0  0  0
  -18.3881  -17.1489   11.7500 N   0  0  0  0  0  0  0  0  0  0  0  0
  -19.4864  -17.8156   11.4071 N   0  0  0  0  0  0  0  0  0  0  0  0
  -19.8884  -18.5940   12.4236 C   0  0  0  0  0  0  0  0  0  0  0  0
  -21.0484  -19.4916   12.4751 C   0  0  0  0  0  0  0  0  0  0  0  0
  -21.5534  -20.0253   11.3108 C   0  0  0  0  0  0  0  0  0  0  0  0
  -22.6605  -20.8858   11.3277 C   0  0  0  0  0  0  0  0  0  0  0  0
  -23.2421  -21.1948   12.5269 C   0  0  0  0  0  0  0  0  0  0  0  0
  -21.6477  -19.8148   13.6708 C   0  0  0  0  0  0  0  0  0  0  0  0
  -24.2818  -22.0422   12.2435 C   0  0  0  0  0  0  0  0  0  0  0  0
  -23.3139  -21.5171   10.3321 N   0  0  0  0  0  0  0  0  0  0  0  0
  -22.3335  -22.6610    8.4018 C   0  0  0  0  0  0  0  0  0  0  0  0
  -21.9353  -24.3037    6.6867 C   0  0  0  0  0  0  0  0  0  0  0  0
  -21.1001  -25.0399    7.5004 C   0  0  0  0  0  0  0  0  0  0  0  0
  -19.3228  -26.0563    6.1764 N   0  0  2  0  0  4  0  0  0  0  0  0
  -19.1853  -26.7462    3.8192 C   0  0  0  0  0  0  0  0  0  0  0  0
  -19.2733  -28.4262    5.5843 C   0  0  0  0  0  0  0  0  0  0  0  0
  -20.8871  -24.5679    8.7818 C   0  0  0  0  0  0  0  0  0  0  0  0
  -18.9876  -18.3884   13.4342 C   0  0  0  0  0  0  0  0  0  0  0  0
 18  1  2  0
  1 19  1  0
  2 20  2  0
 21  2  1  0
  3 21  1  0
 22  3  1  0
  4 22  2  0
 23  4  1  0
 24  5  1  0
 25  5  1  1
 25  6  1  0
  6 26  1  0
 26  7  1  0
 27  7  1  0
 25  8  1  0
  8 27  1  0
 22  9  1  0
  9 28  2  0
 11 10  1  0
 11 12  1  0
 29 11  2  0
 13 12  1  0
 14 13  2  0
 15 14  1  0
 14 29  1  0
 16 15  1  0
 15 19  2  0
 17 16  2  0
 17 18  1  0
 21 17  1  0
 18 20  1  0
 23 24  2  0
 24 28  1  0
M  CHG  1  25   1
M  END
$$$$
