
     RDKit          3D

 29 33  0  0  0  0  0  0  0  0999 V2000
  -22.6961  -20.4155   13.5220 C   0  0  0  0  0  0  0  0  0  0  0  0
  -24.3967  -21.9243   10.7354 C   0  0  0  0  0  0  0  0  0  0  0  0
  -23.2376  -20.9570    8.7235 C   0  0  0  0  0  0  0  0  0  0  0  0
  -21.9045  -22.0204    6.8549 C   0  0  0  0  0  0  0  0  0  0  0  0
  -19.5995  -25.0164    6.7006 C   0  0  0  0  0  0  0  0  0  0  0  0
  -18.8928  -27.2842    7.1041 C   0  0  0  0  0  0  0  0  0  0  0  0
  -19.2363  -27.7852    4.7205 C   0  0  0  0  0  0  0  0  0  0  0  0
  -21.0160  -26.7891    6.1711 C   0  0  0  0  0  0  0  0  0  0  0  0
  -21.7859  -22.9839    9.0109 C   0  0  0  0  0  0  0  0  0  0  0  0
  -17.1788  -16.3019   13.3879 N   0  0  0  0  0  0  0  0  0  0  0  0
  -18.2480  -16.9084   12.6852 C   0  0  0  0  0  0  0  0  0  0  0  0
  -18.5957  -16.6943   11.3983 N   0  0  0  0  0  0  0  0  0  0  0  0
  -19.6507  -17.4381   11.0789 N   0  0  0  0  0  0  0  0  0  0  0  0
  -20.0370  -18.1672   12.1372 C   0  0  0  0  0  0  0  0  0  0  0  0
  -21.1513  -19.1182   12.2256 C   0  0  0  0  0  0  0  0  0  0  0  0
  -21.7152  -19.6212   11.0748 C   0  0  0  0  0  0  0  0  0  0  0  0
  -22.7809  -20.5311   11.1269 C   0  0  0  0  0  0  0  0  0  0  0  0
  -23.2616  -20.9202   12.3471 C   0  0  0  0  0  0  0  0  0  0  0  0
  -21.6495  -19.5221   13.4430 C   0  0  0  0  0  0  0  0  0  0  0  0
  -24.2822  -21.8004   12.0960 C   0  0  0  0  0  0  0  0  0  0  0  0
  -23.4765  -21.1459   10.1496 N   0  0  0  0  0  0  0  0  0  0  0  0
  -22.3013  -21.9878    8.1733 C   0  0  0  0  0  0  0  0  0  0  0  0
  -21.0392  -22.9907    6.3844 C   0  0  0  0  0  0  0  0  0  0  0  0
  -20.5321  -23.9716    7.2104 C   0  0  0  0  0  0  0  0  0  0  0  0
  -19.9670  -26.3407    7.0972 N   0  0  2  0  0  4  0  0  0  0  0  0
  -19.0642  -28.3942    6.0875 C   0  0  0  0  0  0  0  0  0  0  0  0
  -20.4657  -26.8952    4.7706 C   0  0  0  0  0  0  0  0  0  0  0  0
  -20.9237  -23.9484    8.5356 C   0  0  0  0  0  0  0  0  0  0  0  0
  -19.1717  -17.8488   13.1497 C   0  0  0  0  0  0  0  0  0  0  0  0
 18  1  2  0
  1 19  1  0
  2 20  2  0
 21  2  1  0
  3 21  1  0
 22  3  1  0
  4 22  2  0
 23  4  1  0
 24  5  1  0
 25  5  1  6
 25  6  1  0
  6 26  1  0
 26  7  1  0
 27  7  1  0
 25  8  1  0
  8 27  1  0
 22  9  1  0
  9 28  2  0
 11 10  1  0
 11 12  1  0
 29 11  2  0
 13 12  1  0
 14 13  2  0
 15 14  1  0
 14 29  1  0
 16 15  1  0
 15 19  2  0
 17 16  2  0
 17 18  1  0
 21 17  1  0
 18 20  1  0
 23 24  2  0
 24 28  1  0
M  CHG  1  25   1
M  END
$$$$
