
     RDKit          3D

 29 33  0  0  0  0  0  0  0  0999 V2000
  -11.7922  -10.1173   28.2122 C   0  0  0  0  0  0  0  0  0  0  0  0
  -12.8391   -7.0055   29.6800 C   0  0  0  0  0  0  0  0  0  0  0  0
  -13.6651   -5.6604   27.7215 C   0  0  0  0  0  0  0  0  0  0  0  0
  -11.5591   -4.3569   28.2362 C   0  0  0  0  0  0  0  0  0  0  0  0
  -10.9094   -0.7416   29.1419 C   0  0  0  0  0  0  0  0  0  0  0  0
   -8.6709    0.1214   29.3640 C   0  0  0  0  0  0  0  0  0  0  0  0
   -9.4001    2.2103   28.2891 C   0  0  0  0  0  0  0  0  0  0  0  0
   -9.7382   -0.0425   27.2528 C   0  0  0  0  0  0  0  0  0  0  0  0
  -13.6296   -3.2163   28.2904 C   0  0  0  0  0  0  0  0  0  0  0  0
  -12.0701  -12.0584   21.6263 N   0  0  0  0  0  0  0  0  0  0  0  0
  -12.2916  -11.0460   22.5909 C   0  0  0  0  0  0  0  0  0  0  0  0
  -12.7552   -9.7985   22.3633 N   0  0  0  0  0  0  0  0  0  0  0  0
  -12.8354   -9.1239   23.5064 N   0  0  0  0  0  0  0  0  0  0  0  0
  -12.4300   -9.8964   24.5260 C   0  0  0  0  0  0  0  0  0  0  0  0
  -12.3572   -9.5531   25.9510 C   0  0  0  0  0  0  0  0  0  0  0  0
  -12.7930   -8.3202   26.3815 C   0  0  0  0  0  0  0  0  0  0  0  0
  -12.7360   -7.9632   27.7365 C   0  0  0  0  0  0  0  0  0  0  0  0
  -12.2375   -8.8624   28.6389 C   0  0  0  0  0  0  0  0  0  0  0  0
  -11.8590  -10.4432   26.8746 C   0  0  0  0  0  0  0  0  0  0  0  0
  -12.3042   -8.2540   29.8656 C   0  0  0  0  0  0  0  0  0  0  0  0
  -13.1004   -6.8344   28.3767 N   0  0  0  0  0  0  0  0  0  0  0  0
  -12.9270   -4.4094   28.0848 C   0  0  0  0  0  0  0  0  0  0  0  0
  -10.9141   -3.1818   28.5747 C   0  0  0  0  0  0  0  0  0  0  0  0
  -11.6072   -2.0069   28.7770 C   0  0  0  0  0  0  0  0  0  0  0  0
   -9.5951   -0.6433   28.5861 N   0  0  2  0  0  4  0  0  0  0  0  0
   -8.2004    1.3814   28.6670 C   0  0  0  0  0  0  0  0  0  0  0  0
  -10.2643    1.3665   27.3686 C   0  0  0  0  0  0  0  0  0  0  0  0
  -12.9805   -2.0483   28.6277 C   0  0  0  0  0  0  0  0  0  0  0  0
  -12.0865  -11.1008   23.9723 C   0  0  0  0  0  0  0  0  0  0  0  0
 18  1  2  0
  1 19  1  0
  2 20  2  0
 21  2  1  0
  3 21  1  0
 22  3  1  0
  4 22  2  0
 23  4  1  0
 24  5  1  0
 25  5  1  1
 25  6  1  0
  6 26  1  0
 26  7  1  0
 27  7  1  0
 25  8  1  0
  8 27  1  0
 22  9  1  0
  9 28  2  0
 11 10  1  0
 11 12  1  0
 29 11  2  0
 13 12  1  0
 14 13  2  0
 15 14  1  0
 14 29  1  0
 16 15  1  0
 15 19  2  0
 17 16  2  0
 17 18  1  0
 21 17  1  0
 18 20  1  0
 23 24  2  0
 24 28  1  0
M  CHG  1  25   1
M  END
$$$$
