
     RDKit          3D

 29 33  0  0  0  0  0  0  0  0999 V2000
  -19.9286  -18.1066   16.9959 C   0  0  0  0  0  0  0  0  0  0  0  0
  -22.4452  -19.0937   14.6240 C   0  0  0  0  0  0  0  0  0  0  0  0
  -21.4176  -18.5550   12.3922 C   0  0  0  0  0  0  0  0  0  0  0  0
  -21.5000  -20.9408   11.5551 C   0  0  0  0  0  0  0  0  0  0  0  0
  -24.1941  -23.0056    9.8842 C   0  0  0  0  0  0  0  0  0  0  0  0
  -26.0690  -23.6162    8.4997 C   0  0  0  0  0  0  0  0  0  0  0  0
  -24.5045  -24.2592    6.7139 C   0  0  0  0  0  0  0  0  0  0  0  0
  -24.4770  -22.0043    7.7994 C   0  0  0  0  0  0  0  0  0  0  0  0
  -23.4310  -19.5973   11.3160 C   0  0  0  0  0  0  0  0  0  0  0  0
  -13.5941  -15.7387   15.7374 N   0  0  0  0  0  0  0  0  0  0  0  0
  -14.8803  -16.0599   15.2404 C   0  0  0  0  0  0  0  0  0  0  0  0
  -15.3378  -15.8561   13.9865 N   0  0  0  0  0  0  0  0  0  0  0  0
  -16.5932  -16.2820   13.8819 N   0  0  0  0  0  0  0  0  0  0  0  0
  -17.0094  -16.7803   15.0563 C   0  0  0  0  0  0  0  0  0  0  0  0
  -18.3195  -17.3540   15.3852 C   0  0  0  0  0  0  0  0  0  0  0  0
  -19.1936  -17.6883   14.3754 C   0  0  0  0  0  0  0  0  0  0  0  0
  -20.4523  -18.2381   14.6580 C   0  0  0  0  0  0  0  0  0  0  0  0
  -20.8089  -18.4425   15.9628 C   0  0  0  0  0  0  0  0  0  0  0  0
  -18.6973  -17.5674   16.6910 C   0  0  0  0  0  0  0  0  0  0  0  0
  -22.0685  -18.9832   15.9375 C   0  0  0  0  0  0  0  0  0  0  0  0
  -21.4531  -18.6364   13.8477 N   0  0  0  0  0  0  0  0  0  0  0  0
  -22.1063  -19.7198   11.7513 C   0  0  0  0  0  0  0  0  0  0  0  0
  -22.1696  -21.9923   10.9571 C   0  0  0  0  0  0  0  0  0  0  0  0
  -23.4747  -21.8705   10.5285 C   0  0  0  0  0  0  0  0  0  0  0  0
  -25.1888  -22.5824    8.9475 N   0  0  2  0  0  4  0  0  0  0  0  0
  -25.9385  -23.9146    7.0203 C   0  0  0  0  0  0  0  0  0  0  0  0
  -23.6553  -23.0633    7.1073 C   0  0  0  0  0  0  0  0  0  0  0  0
  -24.0928  -20.6494   10.7206 C   0  0  0  0  0  0  0  0  0  0  0  0
  -15.9520  -16.6495   15.9166 C   0  0  0  0  0  0  0  0  0  0  0  0
 18  1  2  0
  1 19  1  0
  2 20  2  0
 21  2  1  0
  3 21  1  0
 22  3  1  0
  4 22  2  0
 23  4  1  0
 24  5  1  0
 25  5  1  1
 25  6  1  0
  6 26  1  0
 26  7  1  0
 27  7  1  0
 25  8  1  0
  8 27  1  0
 22  9  1  0
  9 28  2  0
 11 10  1  0
 11 12  1  0
 29 11  2  0
 13 12  1  0
 14 13  2  0
 15 14  1  0
 14 29  1  0
 16 15  1  0
 15 19  2  0
 17 16  2  0
 17 18  1  0
 21 17  1  0
 18 20  1  0
 23 24  2  0
 24 28  1  0
M  CHG  1  25   1
M  END
$$$$
