
     RDKit          3D

 29 33  0  0  0  0  0  0  0  0999 V2000
  -12.1272  -12.5601   24.2946 C   0  0  0  0  0  0  0  0  0  0  0  0
  -12.8479  -11.2660   27.5717 C   0  0  0  0  0  0  0  0  0  0  0  0
  -13.7010   -8.9413   27.1301 C   0  0  0  0  0  0  0  0  0  0  0  0
  -13.2776   -8.1524   29.4961 C   0  0  0  0  0  0  0  0  0  0  0  0
  -10.3749   -6.3792   31.1524 C   0  0  0  0  0  0  0  0  0  0  0  0
  -10.3429   -5.4061   33.3563 C   0  0  0  0  0  0  0  0  0  0  0  0
   -8.8786   -7.2328   34.1106 C   0  0  0  0  0  0  0  0  0  0  0  0
  -11.0798   -7.6297   32.9877 C   0  0  0  0  0  0  0  0  0  0  0  0
  -11.6037   -7.7776   27.8686 C   0  0  0  0  0  0  0  0  0  0  0  0
  -13.3867   -9.5902   18.2119 N   0  0  0  0  0  0  0  0  0  0  0  0
  -13.2517   -9.4562   19.6149 C   0  0  0  0  0  0  0  0  0  0  0  0
  -13.2721   -8.3075   20.3241 N   0  0  0  0  0  0  0  0  0  0  0  0
  -13.1161   -8.5658   21.6192 N   0  0  0  0  0  0  0  0  0  0  0  0
  -12.9875   -9.8875   21.8126 C   0  0  0  0  0  0  0  0  0  0  0  0
  -12.7969  -10.6048   23.0787 C   0  0  0  0  0  0  0  0  0  0  0  0
  -13.1132   -9.9892   24.2688 C   0  0  0  0  0  0  0  0  0  0  0  0
  -12.9419  -10.6486   25.4945 C   0  0  0  0  0  0  0  0  0  0  0  0
  -12.4516  -11.9257   25.4977 C   0  0  0  0  0  0  0  0  0  0  0  0
  -12.3049  -11.8896   23.1035 C   0  0  0  0  0  0  0  0  0  0  0  0
  -12.3937  -12.3126   26.8116 C   0  0  0  0  0  0  0  0  0  0  0  0
  -13.1809  -10.2525   26.7606 N   0  0  0  0  0  0  0  0  0  0  0  0
  -12.8672   -8.2883   28.1884 C   0  0  0  0  0  0  0  0  0  0  0  0
  -12.4787   -7.5408   30.4444 C   0  0  0  0  0  0  0  0  0  0  0  0
  -11.2341   -7.0380   30.1282 C   0  0  0  0  0  0  0  0  0  0  0  0
  -11.0060   -6.2716   32.4315 N   0  0  2  0  0  4  0  0  0  0  0  0
   -9.7975   -6.1309   34.5695 C   0  0  0  0  0  0  0  0  0  0  0  0
   -9.6927   -8.1689   33.2348 C   0  0  0  0  0  0  0  0  0  0  0  0
  -10.8122   -7.1691   28.8187 C   0  0  0  0  0  0  0  0  0  0  0  0
  -13.0698  -10.4593   20.5710 C   0  0  0  0  0  0  0  0  0  0  0  0
 18  1  2  0
  1 19  1  0
  2 20  2  0
 21  2  1  0
  3 21  1  0
 22  3  1  0
  4 22  2  0
 23  4  1  0
 24  5  1  0
 25  5  1  6
 25  6  1  0
  6 26  1  0
 26  7  1  0
 27  7  1  0
 25  8  1  0
  8 27  1  0
 22  9  1  0
  9 28  2  0
 11 10  1  0
 11 12  1  0
 29 11  2  0
 13 12  1  0
 14 13  2  0
 15 14  1  0
 14 29  1  0
 16 15  1  0
 15 19  2  0
 17 16  2  0
 17 18  1  0
 21 17  1  0
 18 20  1  0
 23 24  2  0
 24 28  1  0
M  CHG  1  25   1
M  END
$$$$
