
     RDKit          3D

 29 33  0  0  0  0  0  0  0  0999 V2000
  -22.1580  -17.0185   12.4809 C   0  0  0  0  0  0  0  0  0  0  0  0
  -23.6183  -20.1164   11.3834 C   0  0  0  0  0  0  0  0  0  0  0  0
  -21.8247  -21.8224   11.8299 C   0  0  0  0  0  0  0  0  0  0  0  0
  -21.2094  -22.5331    9.4813 C   0  0  0  0  0  0  0  0  0  0  0  0
  -22.9297  -24.6959    6.8975 C   0  0  0  0  0  0  0  0  0  0  0  0
  -22.2544  -24.9753    4.6016 C   0  0  0  0  0  0  0  0  0  0  0  0
  -21.7241  -27.3303    5.0740 C   0  0  0  0  0  0  0  0  0  0  0  0
  -20.7755  -25.4305    6.3987 C   0  0  0  0  0  0  0  0  0  0  0  0
  -23.2526  -23.3013   10.3903 C   0  0  0  0  0  0  0  0  0  0  0  0
  -16.0261  -15.9859   15.4116 N   0  0  0  0  0  0  0  0  0  0  0  0
  -16.9159  -16.8791   14.7675 C   0  0  0  0  0  0  0  0  0  0  0  0
  -16.6719  -18.1644   14.4335 N   0  0  0  0  0  0  0  0  0  0  0  0
  -17.7384  -18.6944   13.8419 N   0  0  0  0  0  0  0  0  0  0  0  0
  -18.7211  -17.7839   13.7634 C   0  0  0  0  0  0  0  0  0  0  0  0
  -20.0619  -17.9435   13.1886 C   0  0  0  0  0  0  0  0  0  0  0  0
  -20.4991  -19.1920   12.8068 C   0  0  0  0  0  0  0  0  0  0  0  0
  -21.7748  -19.3763   12.2544 C   0  0  0  0  0  0  0  0  0  0  0  0
  -22.5922  -18.2908   12.0964 C   0  0  0  0  0  0  0  0  0  0  0  0
  -20.8993  -16.8646   13.0211 C   0  0  0  0  0  0  0  0  0  0  0  0
  -23.7560  -18.7621   11.5460 C   0  0  0  0  0  0  0  0  0  0  0  0
  -22.4054  -20.4848   11.8181 N   0  0  0  0  0  0  0  0  0  0  0  0
  -22.0802  -22.5529   10.5481 C   0  0  0  0  0  0  0  0  0  0  0  0
  -21.4825  -23.2197    8.3127 C   0  0  0  0  0  0  0  0  0  0  0  0
  -22.6379  -23.9567    8.1583 C   0  0  0  0  0  0  0  0  0  0  0  0
  -21.8841  -24.5889    5.9274 N   0  0  2  0  0  4  0  0  0  0  0  0
  -21.5105  -26.1975    4.1043 C   0  0  0  0  0  0  0  0  0  0  0  0
  -21.1942  -26.8795    6.4239 C   0  0  0  0  0  0  0  0  0  0  0  0
  -23.5188  -23.9835    9.2228 C   0  0  0  0  0  0  0  0  0  0  0  0
  -18.2246  -16.6439   14.3369 C   0  0  0  0  0  0  0  0  0  0  0  0
 18  1  2  0
  1 19  1  0
  2 20  2  0
 21  2  1  0
  3 21  1  0
 22  3  1  0
  4 22  2  0
 23  4  1  0
 24  5  1  0
 25  5  1  1
 25  6  1  0
  6 26  1  0
 26  7  1  0
 27  7  1  0
 25  8  1  0
  8 27  1  0
 22  9  1  0
  9 28  2  0
 11 10  1  0
 11 12  1  0
 29 11  2  0
 13 12  1  0
 14 13  2  0
 15 14  1  0
 14 29  1  0
 16 15  1  0
 15 19  2  0
 17 16  2  0
 17 18  1  0
 21 17  1  0
 18 20  1  0
 23 24  2  0
 24 28  1  0
M  CHG  1  25   1
M  END
$$$$
