
     RDKit          3D

 29 33  0  0  0  0  0  0  0  0999 V2000
  -12.3756   -9.5253   28.7682 C   0  0  0  0  0  0  0  0  0  0  0  0
  -11.5742   -6.1403   29.6813 C   0  0  0  0  0  0  0  0  0  0  0  0
  -11.2540   -4.9779   27.4737 C   0  0  0  0  0  0  0  0  0  0  0  0
  -10.7618   -2.6635   28.3687 C   0  0  0  0  0  0  0  0  0  0  0  0
   -7.7665   -1.1457   30.1115 C   0  0  0  0  0  0  0  0  0  0  0  0
   -5.5102   -0.3039   30.1876 C   0  0  0  0  0  0  0  0  0  0  0  0
   -6.3481    1.9186   29.5481 C   0  0  0  0  0  0  0  0  0  0  0  0
   -6.8310   -0.1497   28.2242 C   0  0  0  0  0  0  0  0  0  0  0  0
   -9.1038   -4.3339   28.5965 C   0  0  0  0  0  0  0  0  0  0  0  0
  -12.9781  -12.2441   22.4865 N   0  0  0  0  0  0  0  0  0  0  0  0
  -12.6978  -11.1065   23.2815 C   0  0  0  0  0  0  0  0  0  0  0  0
  -12.3668   -9.8735   22.8421 N   0  0  0  0  0  0  0  0  0  0  0  0
  -12.1750   -9.0560   23.8731 N   0  0  0  0  0  0  0  0  0  0  0  0
  -12.3710   -9.7149   25.0256 C   0  0  0  0  0  0  0  0  0  0  0  0
  -12.2647   -9.1986   26.3952 C   0  0  0  0  0  0  0  0  0  0  0  0
  -11.9481   -7.8753   26.6055 C   0  0  0  0  0  0  0  0  0  0  0  0
  -11.8393   -7.3528   27.9023 C   0  0  0  0  0  0  0  0  0  0  0  0
  -12.0535   -8.1798   28.9708 C   0  0  0  0  0  0  0  0  0  0  0  0
  -12.4762  -10.0139   27.4833 C   0  0  0  0  0  0  0  0  0  0  0  0
  -11.8853   -7.4105   30.0929 C   0  0  0  0  0  0  0  0  0  0  0  0
  -11.5476   -6.1123   28.3417 N   0  0  0  0  0  0  0  0  0  0  0  0
  -10.3797   -3.9687   28.1511 C   0  0  0  0  0  0  0  0  0  0  0  0
   -9.9242   -1.7604   28.9966 C   0  0  0  0  0  0  0  0  0  0  0  0
   -8.6674   -2.1213   29.4350 C   0  0  0  0  0  0  0  0  0  0  0  0
   -6.5299   -0.9484   29.4202 N   0  0  2  0  0  4  0  0  0  0  0  0
   -5.1182    1.0538   29.6421 C   0  0  0  0  0  0  0  0  0  0  0  0
   -7.3264    1.2187   28.6212 C   0  0  0  0  0  0  0  0  0  0  0  0
   -8.2737   -3.4287   29.2217 C   0  0  0  0  0  0  0  0  0  0  0  0
  -12.6984  -10.9975   24.6748 C   0  0  0  0  0  0  0  0  0  0  0  0
 18  1  2  0
  1 19  1  0
  2 20  2  0
 21  2  1  0
  3 21  1  0
 22  3  1  0
  4 22  2  0
 23  4  1  0
 24  5  1  0
 25  5  1  1
 25  6  1  0
  6 26  1  0
 26  7  1  0
 27  7  1  0
 25  8  1  0
  8 27  1  0
 22  9  1  0
  9 28  2  0
 11 10  1  0
 11 12  1  0
 29 11  2  0
 13 12  1  0
 14 13  2  0
 15 14  1  0
 14 29  1  0
 16 15  1  0
 15 19  2  0
 17 16  2  0
 17 18  1  0
 21 17  1  0
 18 20  1  0
 23 24  2  0
 24 28  1  0
M  CHG  1  25   1
M  END
$$$$
