
     RDKit          3D

 29 33  0  0  0  0  0  0  0  0999 V2000
  -14.7795   -9.0486   24.2738 C   0  0  0  0  0  0  0  0  0  0  0  0
  -13.9013  -10.6980   27.3466 C   0  0  0  0  0  0  0  0  0  0  0  0
  -11.7429  -11.8718   26.8077 C   0  0  0  0  0  0  0  0  0  0  0  0
  -10.4686  -10.5326   28.5347 C   0  0  0  0  0  0  0  0  0  0  0  0
   -9.7329  -11.0777   32.2055 C   0  0  0  0  0  0  0  0  0  0  0  0
   -8.6899  -12.1767   34.0788 C   0  0  0  0  0  0  0  0  0  0  0  0
   -6.7257  -10.7222   33.8020 C   0  0  0  0  0  0  0  0  0  0  0  0
   -7.6617  -12.1120   31.9429 C   0  0  0  0  0  0  0  0  0  0  0  0
  -11.4657  -12.5701   29.2023 C   0  0  0  0  0  0  0  0  0  0  0  0
   -9.0789  -10.0501   19.7656 N   0  0  0  0  0  0  0  0  0  0  0  0
  -10.3753   -9.9491   20.3258 C   0  0  0  0  0  0  0  0  0  0  0  0
  -11.5405   -9.8313   19.6539 N   0  0  0  0  0  0  0  0  0  0  0  0
  -12.5570   -9.7617   20.5084 N   0  0  0  0  0  0  0  0  0  0  0  0
  -12.1036   -9.8305   21.7695 C   0  0  0  0  0  0  0  0  0  0  0  0
  -12.8781   -9.7912   23.0155 C   0  0  0  0  0  0  0  0  0  0  0  0
  -12.4271  -10.4719   24.1239 C   0  0  0  0  0  0  0  0  0  0  0  0
  -13.1450  -10.4534   25.3284 C   0  0  0  0  0  0  0  0  0  0  0  0
  -14.3126   -9.7435   25.3937 C   0  0  0  0  0  0  0  0  0  0  0  0
  -14.0549   -9.0833   23.1018 C   0  0  0  0  0  0  0  0  0  0  0  0
  -14.7876   -9.9002   26.6701 C   0  0  0  0  0  0  0  0  0  0  0  0
  -12.9003  -11.0324   26.5207 N   0  0  0  0  0  0  0  0  0  0  0  0
  -11.2130  -11.6384   28.1885 C   0  0  0  0  0  0  0  0  0  0  0  0
   -9.9952  -10.3541   29.8213 C   0  0  0  0  0  0  0  0  0  0  0  0
  -10.2446  -11.2726   30.8193 C   0  0  0  0  0  0  0  0  0  0  0  0
   -8.9369  -12.1713   32.6706 N   0  0  2  0  0  4  0  0  0  0  0  0
   -7.2278  -11.9955   34.4310 C   0  0  0  0  0  0  0  0  0  0  0  0
   -6.9143  -10.8514   32.3007 C   0  0  0  0  0  0  0  0  0  0  0  0
  -10.9908  -12.3862   30.4829 C   0  0  0  0  0  0  0  0  0  0  0  0
  -10.7426   -9.9479   21.6743 C   0  0  0  0  0  0  0  0  0  0  0  0
 18  1  2  0
  1 19  1  0
  2 20  2  0
 21  2  1  0
  3 21  1  0
 22  3  1  0
  4 22  2  0
 23  4  1  0
 24  5  1  0
 25  5  1  1
 25  6  1  0
  6 26  1  0
 26  7  1  0
 27  7  1  0
 25  8  1  0
  8 27  1  0
 22  9  1  0
  9 28  2  0
 11 10  1  0
 11 12  1  0
 29 11  2  0
 13 12  1  0
 14 13  2  0
 15 14  1  0
 14 29  1  0
 16 15  1  0
 15 19  2  0
 17 16  2  0
 17 18  1  0
 21 17  1  0
 18 20  1  0
 23 24  2  0
 24 28  1  0
M  CHG  1  25   1
M  END
$$$$
