
     RDKit          3D

 29 33  0  0  0  0  0  0  0  0999 V2000
   -9.2827   -9.6662   29.9657 C   0  0  0  0  0  0  0  0  0  0  0  0
  -12.5524   -8.9623   31.2874 C   0  0  0  0  0  0  0  0  0  0  0  0
  -12.7714   -6.4666   31.0626 C   0  0  0  0  0  0  0  0  0  0  0  0
  -15.0180   -6.5115   32.2247 C   0  0  0  0  0  0  0  0  0  0  0  0
  -18.5535   -7.0744   31.0017 C   0  0  0  0  0  0  0  0  0  0  0  0
  -20.0144   -8.4579   29.6762 C   0  0  0  0  0  0  0  0  0  0  0  0
  -21.7420   -8.2500   31.4147 C   0  0  0  0  0  0  0  0  0  0  0  0
  -19.4180   -9.0452   31.8949 C   0  0  0  0  0  0  0  0  0  0  0  0
  -14.9516   -6.8784   29.8897 C   0  0  0  0  0  0  0  0  0  0  0  0
   -4.6496   -5.2755   27.4215 N   0  0  0  0  0  0  0  0  0  0  0  0
   -5.9350   -5.4757   27.9805 C   0  0  0  0  0  0  0  0  0  0  0  0
   -6.8699   -4.5312   28.2191 N   0  0  0  0  0  0  0  0  0  0  0  0
   -7.9556   -5.0854   28.7506 N   0  0  0  0  0  0  0  0  0  0  0  0
   -7.7792   -6.4091   28.8822 C   0  0  0  0  0  0  0  0  0  0  0  0
   -8.7179   -7.4004   29.4207 C   0  0  0  0  0  0  0  0  0  0  0  0
   -9.9434   -6.9939   29.8986 C   0  0  0  0  0  0  0  0  0  0  0  0
  -10.8615   -7.9172   30.4193 C   0  0  0  0  0  0  0  0  0  0  0  0
  -10.5247   -9.2429   30.4485 C   0  0  0  0  0  0  0  0  0  0  0  0
   -8.3984   -8.7382   29.4592 C   0  0  0  0  0  0  0  0  0  0  0  0
  -11.5953   -9.9000   30.9974 C   0  0  0  0  0  0  0  0  0  0  0  0
  -12.0973   -7.7530   30.9317 N   0  0  0  0  0  0  0  0  0  0  0  0
  -14.2611   -6.6164   31.0789 C   0  0  0  0  0  0  0  0  0  0  0  0
  -16.3925   -6.6584   32.1988 C   0  0  0  0  0  0  0  0  0  0  0  0
  -17.0718   -6.9165   31.0267 C   0  0  0  0  0  0  0  0  0  0  0  0
  -18.9728   -8.3969   30.6537 N   0  0  2  0  0  4  0  0  0  0  0  0
  -21.3046   -9.0440   30.2116 C   0  0  0  0  0  0  0  0  0  0  0  0
  -20.6315   -8.3389   32.4467 C   0  0  0  0  0  0  0  0  0  0  0  0
  -16.3220   -7.0237   29.8708 C   0  0  0  0  0  0  0  0  0  0  0  0
   -6.5222   -6.6705   28.4059 C   0  0  0  0  0  0  0  0  0  0  0  0
 18  1  2  0
  1 19  1  0
  2 20  2  0
 21  2  1  0
  3 21  1  0
 22  3  1  0
  4 22  2  0
 23  4  1  0
 24  5  1  0
 25  5  1  1
 25  6  1  0
  6 26  1  0
 26  7  1  0
 27  7  1  0
 25  8  1  0
  8 27  1  0
 22  9  1  0
  9 28  2  0
 11 10  1  0
 11 12  1  0
 29 11  2  0
 13 12  1  0
 14 13  2  0
 15 14  1  0
 14 29  1  0
 16 15  1  0
 15 19  2  0
 17 16  2  0
 17 18  1  0
 21 17  1  0
 18 20  1  0
 23 24  2  0
 24 28  1  0
M  CHG  1  25   1
M  END
$$$$
