
     RDKit          3D

 29 33  0  0  0  0  0  0  0  0999 V2000
  -22.1418  -17.2556   13.9781 C   0  0  0  0  0  0  0  0  0  0  0  0
  -24.0575  -20.0488   12.7691 C   0  0  0  0  0  0  0  0  0  0  0  0
  -22.3754  -21.4408   11.5200 C   0  0  0  0  0  0  0  0  0  0  0  0
  -22.6240  -22.3126    9.1583 C   0  0  0  0  0  0  0  0  0  0  0  0
  -23.9122  -20.7707    5.9527 C   0  0  0  0  0  0  0  0  0  0  0  0
  -25.9401  -19.4712    6.0178 C   0  0  0  0  0  0  0  0  0  0  0  0
  -26.5360  -20.3424    3.7960 C   0  0  0  0  0  0  0  0  0  0  0  0
  -24.3530  -19.2156    4.2744 C   0  0  0  0  0  0  0  0  0  0  0  0
  -23.2952  -20.0916    9.6142 C   0  0  0  0  0  0  0  0  0  0  0  0
  -15.2767  -18.6046   11.6613 N   0  0  0  0  0  0  0  0  0  0  0  0
  -16.4649  -18.0556   12.2012 C   0  0  0  0  0  0  0  0  0  0  0  0
  -16.5966  -16.8641   12.8224 N   0  0  0  0  0  0  0  0  0  0  0  0
  -17.8591  -16.6802   13.1976 N   0  0  0  0  0  0  0  0  0  0  0  0
  -18.6040  -17.7375   12.8401 C   0  0  0  0  0  0  0  0  0  0  0  0
  -20.0398  -17.9507   13.0571 C   0  0  0  0  0  0  0  0  0  0  0  0
  -20.6527  -19.0676   12.5353 C   0  0  0  0  0  0  0  0  0  0  0  0
  -22.0227  -19.2987   12.7256 C   0  0  0  0  0  0  0  0  0  0  0  0
  -22.7546  -18.3932   13.4438 C   0  0  0  0  0  0  0  0  0  0  0  0
  -20.7936  -17.0520   13.7764 C   0  0  0  0  0  0  0  0  0  0  0  0
  -24.0395  -18.8704   13.4693 C   0  0  0  0  0  0  0  0  0  0  0  0
  -22.8220  -20.3044   12.3173 N   0  0  0  0  0  0  0  0  0  0  0  0
  -22.7633  -21.2995   10.0808 C   0  0  0  0  0  0  0  0  0  0  0  0
  -22.9922  -22.1421    7.8366 C   0  0  0  0  0  0  0  0  0  0  0  0
  -23.5161  -20.9517    7.3780 C   0  0  0  0  0  0  0  0  0  0  0  0
  -24.5467  -19.5139    5.7001 N   0  0  2  0  0  4  0  0  0  0  0  0
  -26.8245  -19.2624    4.8058 C   0  0  0  0  0  0  0  0  0  0  0  0
  -25.0671  -20.2378    3.4254 C   0  0  0  0  0  0  0  0  0  0  0  0
  -23.6604  -19.9282    8.2953 C   0  0  0  0  0  0  0  0  0  0  0  0
  -17.7492  -18.6066   12.2163 C   0  0  0  0  0  0  0  0  0  0  0  0
 18  1  2  0
  1 19  1  0
  2 20  2  0
 21  2  1  0
  3 21  1  0
 22  3  1  0
  4 22  2  0
 23  4  1  0
 24  5  1  0
 25  5  1  6
 25  6  1  0
  6 26  1  0
 26  7  1  0
 27  7  1  0
 25  8  1  0
  8 27  1  0
 22  9  1  0
  9 28  2  0
 11 10  1  0
 11 12  1  0
 29 11  2  0
 13 12  1  0
 14 13  2  0
 15 14  1  0
 14 29  1  0
 16 15  1  0
 15 19  2  0
 17 16  2  0
 17 18  1  0
 21 17  1  0
 18 20  1  0
 23 24  2  0
 24 28  1  0
M  CHG  1  25   1
M  END
$$$$
