
     RDKit          3D

 29 33  0  0  0  0  0  0  0  0999 V2000
  -12.1224  -10.6659   27.3785 C   0  0  0  0  0  0  0  0  0  0  0  0
  -12.9926   -7.6679   29.1642 C   0  0  0  0  0  0  0  0  0  0  0  0
  -13.4762   -5.9991   27.3453 C   0  0  0  0  0  0  0  0  0  0  0  0
  -12.6738   -4.4907   29.2108 C   0  0  0  0  0  0  0  0  0  0  0  0
  -14.4431   -2.0957   31.5446 C   0  0  0  0  0  0  0  0  0  0  0  0
  -14.7116    0.2627   31.9584 C   0  0  0  0  0  0  0  0  0  0  0  0
  -16.9147   -0.1917   32.9533 C   0  0  0  0  0  0  0  0  0  0  0  0
  -16.2742   -0.9592   30.6589 C   0  0  0  0  0  0  0  0  0  0  0  0
  -14.9823   -4.5176   28.6999 C   0  0  0  0  0  0  0  0  0  0  0  0
  -12.4028  -11.7434   20.5805 N   0  0  0  0  0  0  0  0  0  0  0  0
  -12.3639  -10.8245   21.6570 C   0  0  0  0  0  0  0  0  0  0  0  0
  -12.2506   -9.4818   21.5715 N   0  0  0  0  0  0  0  0  0  0  0  0
  -12.2478   -8.9439   22.7876 N   0  0  0  0  0  0  0  0  0  0  0  0
  -12.3584   -9.9060   23.7166 C   0  0  0  0  0  0  0  0  0  0  0  0
  -12.3958   -9.7577   25.1762 C   0  0  0  0  0  0  0  0  0  0  0  0
  -12.7461   -8.5482   25.7328 C   0  0  0  0  0  0  0  0  0  0  0  0
  -12.7908   -8.3756   27.1237 C   0  0  0  0  0  0  0  0  0  0  0  0
  -12.4794   -9.4332   27.9336 C   0  0  0  0  0  0  0  0  0  0  0  0
  -12.0861  -10.8090   26.0081 C   0  0  0  0  0  0  0  0  0  0  0  0
  -12.6081   -8.9826   29.2219 C   0  0  0  0  0  0  0  0  0  0  0  0
  -13.1021   -7.3036   27.8792 N   0  0  0  0  0  0  0  0  0  0  0  0
  -13.6930   -4.9926   28.4324 C   0  0  0  0  0  0  0  0  0  0  0  0
  -12.9152   -3.5630   30.2072 C   0  0  0  0  0  0  0  0  0  0  0  0
  -14.1857   -3.0957   30.4699 C   0  0  0  0  0  0  0  0  0  0  0  0
  -14.8619   -0.8240   31.0414 N   0  0  2  0  0  4  0  0  0  0  0  0
  -16.0300    0.8815   32.3749 C   0  0  0  0  0  0  0  0  0  0  0  0
  -17.1200   -1.2417   31.8756 C   0  0  0  0  0  0  0  0  0  0  0  0
  -15.2161   -3.5928   29.6946 C   0  0  0  0  0  0  0  0  0  0  0  0
  -12.4321  -11.0873   23.0280 C   0  0  0  0  0  0  0  0  0  0  0  0
 18  1  2  0
  1 19  1  0
  2 20  2  0
 21  2  1  0
  3 21  1  0
 22  3  1  0
  4 22  2  0
 23  4  1  0
 24  5  1  0
 25  5  1  1
 25  6  1  0
  6 26  1  0
 26  7  1  0
 27  7  1  0
 25  8  1  0
  8 27  1  0
 22  9  1  0
  9 28  2  0
 11 10  1  0
 11 12  1  0
 29 11  2  0
 13 12  1  0
 14 13  2  0
 15 14  1  0
 14 29  1  0
 16 15  1  0
 15 19  2  0
 17 16  2  0
 17 18  1  0
 21 17  1  0
 18 20  1  0
 23 24  2  0
 24 28  1  0
M  CHG  1  25   1
M  END
$$$$
