
     RDKit          3D

 29 33  0  0  0  0  0  0  0  0999 V2000
  -23.4168  -20.2965   11.2494 C   0  0  0  0  0  0  0  0  0  0  0  0
  -22.7831  -23.7968   10.7199 C   0  0  0  0  0  0  0  0  0  0  0  0
  -20.4002  -24.0999   11.4664 C   0  0  0  0  0  0  0  0  0  0  0  0
  -20.4494  -26.6183   11.2331 C   0  0  0  0  0  0  0  0  0  0  0  0
  -20.1939  -28.9478    8.2631 C   0  0  0  0  0  0  0  0  0  0  0  0
  -20.5688  -31.3246    8.3875 C   0  0  0  0  0  0  0  0  0  0  0  0
  -21.9413  -31.1860    6.3510 C   0  0  0  0  0  0  0  0  0  0  0  0
  -22.3676  -29.7793    8.3766 C   0  0  0  0  0  0  0  0  0  0  0  0
  -20.1999  -25.3120    9.2781 C   0  0  0  0  0  0  0  0  0  0  0  0
  -19.1782  -15.5014   13.7506 N   0  0  0  0  0  0  0  0  0  0  0  0
  -19.3799  -16.8545   13.3856 C   0  0  0  0  0  0  0  0  0  0  0  0
  -18.4815  -17.8587   13.4720 N   0  0  0  0  0  0  0  0  0  0  0  0
  -19.0210  -18.9945   13.0394 N   0  0  0  0  0  0  0  0  0  0  0  0
  -20.2889  -18.7840   12.6534 C   0  0  0  0  0  0  0  0  0  0  0  0
  -21.2464  -19.7567   12.1141 C   0  0  0  0  0  0  0  0  0  0  0  0
  -20.8724  -21.0727   11.9605 C   0  0  0  0  0  0  0  0  0  0  0  0
  -21.7648  -22.0253   11.4478 C   0  0  0  0  0  0  0  0  0  0  0  0
  -23.0269  -21.6307   11.0973 C   0  0  0  0  0  0  0  0  0  0  0  0
  -22.5203  -19.3801   11.7555 C   0  0  0  0  0  0  0  0  0  0  0  0
  -23.6674  -22.7523   10.6380 C   0  0  0  0  0  0  0  0  0  0  0  0
  -21.6226  -23.3454   11.2153 N   0  0  0  0  0  0  0  0  0  0  0  0
  -20.3522  -25.3659   10.6685 C   0  0  0  0  0  0  0  0  0  0  0  0
  -20.3986  -27.7647   10.4619 C   0  0  0  0  0  0  0  0  0  0  0  0
  -20.2484  -27.7105    9.0921 C   0  0  0  0  0  0  0  0  0  0  0  0
  -20.9796  -30.0175    8.7962 N   0  0  2  0  0  4  0  0  0  0  0  0
  -21.6033  -32.0410    7.5442 C   0  0  0  0  0  0  0  0  0  0  0  0
  -22.4815  -29.8670    6.8750 C   0  0  0  0  0  0  0  0  0  0  0  0
  -20.1500  -26.4586    8.5149 C   0  0  0  0  0  0  0  0  0  0  0  0
  -20.5299  -17.4524   12.8628 C   0  0  0  0  0  0  0  0  0  0  0  0
 18  1  2  0
  1 19  1  0
  2 20  2  0
 21  2  1  0
  3 21  1  0
 22  3  1  0
  4 22  2  0
 23  4  1  0
 24  5  1  0
 25  5  1  6
 25  6  1  0
  6 26  1  0
 26  7  1  0
 27  7  1  0
 25  8  1  0
  8 27  1  0
 22  9  1  0
  9 28  2  0
 11 10  1  0
 11 12  1  0
 29 11  2  0
 13 12  1  0
 14 13  2  0
 15 14  1  0
 14 29  1  0
 16 15  1  0
 15 19  2  0
 17 16  2  0
 17 18  1  0
 21 17  1  0
 18 20  1  0
 23 24  2  0
 24 28  1  0
M  CHG  1  25   1
M  END
$$$$
