
     RDKit          3D

 29 33  0  0  0  0  0  0  0  0999 V2000
  -11.9116   -6.4413   28.7283 C   0  0  0  0  0  0  0  0  0  0  0  0
  -12.6856   -2.9299   28.6577 C   0  0  0  0  0  0  0  0  0  0  0  0
  -10.5617   -1.8585   27.8403 C   0  0  0  0  0  0  0  0  0  0  0  0
  -11.6224    0.2797   27.0021 C   0  0  0  0  0  0  0  0  0  0  0  0
  -13.1855    3.2503   28.7470 C   0  0  0  0  0  0  0  0  0  0  0  0
  -12.6087    5.5788   28.5218 C   0  0  0  0  0  0  0  0  0  0  0  0
  -14.9573    6.0797   27.9892 C   0  0  0  0  0  0  0  0  0  0  0  0
  -13.6166    4.3686   26.7489 C   0  0  0  0  0  0  0  0  0  0  0  0
  -11.5134   -0.0822   29.3362 C   0  0  0  0  0  0  0  0  0  0  0  0
   -6.1503   -9.5600   26.6249 N   0  0  0  0  0  0  0  0  0  0  0  0
   -6.8131   -8.3561   26.9658 C   0  0  0  0  0  0  0  0  0  0  0  0
   -6.2655   -7.1244   27.0426 N   0  0  0  0  0  0  0  0  0  0  0  0
   -7.1891   -6.2333   27.3909 N   0  0  0  0  0  0  0  0  0  0  0  0
   -8.3746   -6.8400   27.5563 C   0  0  0  0  0  0  0  0  0  0  0  0
   -9.6569   -6.2369   27.9379 C   0  0  0  0  0  0  0  0  0  0  0  0
   -9.8203   -4.8719   27.8648 C   0  0  0  0  0  0  0  0  0  0  0  0
  -11.0334   -4.2663   28.2227 C   0  0  0  0  0  0  0  0  0  0  0  0
  -12.0670   -5.0539   28.6504 C   0  0  0  0  0  0  0  0  0  0  0  0
  -10.7087   -7.0113   28.3708 C   0  0  0  0  0  0  0  0  0  0  0  0
  -13.1091   -4.2063   28.9242 C   0  0  0  0  0  0  0  0  0  0  0  0
  -11.4165   -2.9740   28.2297 N   0  0  0  0  0  0  0  0  0  0  0  0
  -11.2402   -0.5390   28.0415 C   0  0  0  0  0  0  0  0  0  0  0  0
  -12.2452    1.4929   27.2292 C   0  0  0  0  0  0  0  0  0  0  0  0
  -12.5139    1.9420   28.5051 C   0  0  0  0  0  0  0  0  0  0  0  0
  -12.7037    4.2957   27.8980 N   0  0  2  0  0  4  0  0  0  0  0  0
  -13.5475    6.6063   27.9238 C   0  0  0  0  0  0  0  0  0  0  0  0
  -14.9948    4.7815   27.2022 C   0  0  0  0  0  0  0  0  0  0  0  0
  -12.1347    1.1282   29.5557 C   0  0  0  0  0  0  0  0  0  0  0  0
   -8.1582   -8.1667   27.2947 C   0  0  0  0  0  0  0  0  0  0  0  0
 18  1  2  0
  1 19  1  0
  2 20  2  0
 21  2  1  0
  3 21  1  0
 22  3  1  0
  4 22  2  0
 23  4  1  0
 24  5  1  0
 25  5  1  1
 25  6  1  0
  6 26  1  0
 26  7  1  0
 27  7  1  0
 25  8  1  0
  8 27  1  0
 22  9  1  0
  9 28  2  0
 11 10  1  0
 11 12  1  0
 29 11  2  0
 13 12  1  0
 14 13  2  0
 15 14  1  0
 14 29  1  0
 16 15  1  0
 15 19  2  0
 17 16  2  0
 17 18  1  0
 21 17  1  0
 18 20  1  0
 23 24  2  0
 24 28  1  0
M  CHG  1  25   1
M  END
$$$$
