
     RDKit          3D

 27 29  0  0  0  0  0  0  0  0999 V2000
   28.1777    7.3504   19.8864 P   0  0  1  0  0  5  0  0  0  0  0  0
   28.1486    5.8321   20.6313 O   0  0  0  0  0  0  0  0  0  0  0  0
   27.0447    7.4693   18.8895 O   0  0  0  0  0  0  0  0  0  0  0  0
   27.9972    8.5153   21.1056 O   0  0  0  0  0  0  0  0  0  0  0  0
   29.5620    6.9800   17.5491 P   0  0  1  0  0  5  0  0  0  0  0  0
   27.9559    6.8235   17.0731 O   0  0  0  0  0  0  0  0  0  0  0  0
   30.2622    7.9492   16.6243 O   0  0  0  0  0  0  0  0  0  0  0  0
   29.6875    7.5291   19.1451 O   0  0  0  0  0  0  0  0  0  0  0  0
   30.3527    5.4855   17.4681 O   0  0  0  0  0  0  0  0  0  0  0  0
   31.5422    5.6739   16.7702 C   0  0  0  0  0  0  0  0  0  0  0  0
   31.8556    4.4912   15.9133 C   0  0  1  0  0  0  0  0  0  0  0  0
   31.4620    3.3218   16.5263 O   0  0  0  0  0  0  0  0  0  0  0  0
   30.9682    4.5620   14.6642 C   0  0  1  0  0  0  0  0  0  0  0  0
   31.5125    5.4056   13.7130 O   0  0  0  0  0  0  0  0  0  0  0  0
   31.0752    3.0977   14.2366 C   0  0  1  0  0  0  0  0  0  0  0  0
   32.2973    2.9414   13.6316 O   0  0  0  0  0  0  0  0  0  0  0  0
   31.0909    2.4172   15.5716 C   0  0  2  0  0  0  0  0  0  0  0  0
   29.7967    1.8151   15.8841 N   0  0  0  0  0  0  0  0  0  0  0  0
   28.8763    2.2834   16.7476 C   0  0  0  0  0  0  0  0  0  0  0  0
   27.8067    1.4515   16.7667 N   0  0  0  0  0  0  0  0  0  0  0  0
   28.0345    0.4379   15.9108 C   0  0  0  0  0  0  0  0  0  0  0  0
   27.2796   -0.6630   15.5567 C   0  0  0  0  0  0  0  0  0  0  0  0
   26.0067   -0.9259   16.0995 N   0  0  0  0  0  0  0  0  0  0  0  0
   27.8178   -1.5000   14.6489 N   0  0  0  0  0  0  0  0  0  0  0  0
   29.0319   -1.3005   14.0945 C   0  0  0  0  0  0  0  0  0  0  0  0
   29.7362   -0.2172   14.4650 N   0  0  0  0  0  0  0  0  0  0  0  0
   29.2877    0.6826   15.3662 C   0  0  0  0  0  0  0  0  0  0  0  0
  1  2  1  1
  1  3  2  0
  1  4  1  0
  8  1  1  0
  5  6  1  6
  5  7  2  0
  5  8  1  0
  5  9  1  0
  9 10  1  0
 11 10  1  1
 11 12  1  0
 11 13  1  0
 12 17  1  0
 13 14  1  6
 13 15  1  0
 15 16  1  1
 15 17  1  0
 17 18  1  1
 18 19  1  0
 18 27  1  0
 19 20  2  0
 20 21  1  0
 21 22  1  0
 21 27  2  0
 22 23  1  0
 22 24  2  0
 24 25  1  0
 25 26  2  0
 26 27  1  0
M  END
$$$$
