
     RDKit          3D

 27 29  0  0  0  0  0  0  0  0999 V2000
   26.5836    5.4562   18.8926 P   0  0  1  0  0  5  0  0  0  0  0  0
   25.5273    5.6703   20.1961 O   0  0  0  0  0  0  0  0  0  0  0  0
   26.3121    4.1341   18.2068 O   0  0  0  0  0  0  0  0  0  0  0  0
   26.3151    6.7331   17.8093 O   0  0  0  0  0  0  0  0  0  0  0  0
   29.0679    6.5346   18.4660 P   0  0  1  0  0  5  0  0  0  0  0  0
   28.0837    7.5913   17.6028 O   0  0  0  0  0  0  0  0  0  0  0  0
   30.0600    7.3328   19.2805 O   0  0  0  0  0  0  0  0  0  0  0  0
   28.1627    5.5393   19.4930 O   0  0  0  0  0  0  0  0  0  0  0  0
   29.9215    5.5235   17.4103 O   0  0  0  0  0  0  0  0  0  0  0  0
   29.2439    5.5131   16.1945 C   0  0  0  0  0  0  0  0  0  0  0  0
   29.6905    4.3720   15.3402 C   0  0  1  0  0  0  0  0  0  0  0  0
   31.0457    4.4376   15.1014 O   0  0  0  0  0  0  0  0  0  0  0  0
   29.5276    3.0802   16.1512 C   0  0  1  0  0  0  0  0  0  0  0  0
   28.2245    2.6198   16.0992 O   0  0  0  0  0  0  0  0  0  0  0  0
   30.4658    2.1901   15.3353 C   0  0  1  0  0  0  0  0  0  0  0  0
   29.7895    1.8246   14.1982 O   0  0  0  0  0  0  0  0  0  0  0  0
   31.5422    3.1702   14.9798 C   0  0  2  0  0  0  0  0  0  0  0  0
   32.7334    2.9844   15.8054 N   0  0  0  0  0  0  0  0  0  0  0  0
   32.8365    3.1918   17.1315 C   0  0  0  0  0  0  0  0  0  0  0  0
   34.0984    2.9115   17.5382 N   0  0  0  0  0  0  0  0  0  0  0  0
   34.8180    2.5202   16.4701 C   0  0  0  0  0  0  0  0  0  0  0  0
   36.1351    2.1278   16.3337 C   0  0  0  0  0  0  0  0  0  0  0  0
   37.0334    2.0697   17.4170 N   0  0  0  0  0  0  0  0  0  0  0  0
   36.5422    1.7933   15.0940 N   0  0  0  0  0  0  0  0  0  0  0  0
   35.7279    1.8293   14.0184 C   0  0  0  0  0  0  0  0  0  0  0  0
   34.4525    2.2166   14.1921 N   0  0  0  0  0  0  0  0  0  0  0  0
   33.9453    2.5721   15.3918 C   0  0  0  0  0  0  0  0  0  0  0  0
  1  2  1  1
  1  3  2  0
  1  4  1  0
  8  1  1  0
  5  6  1  6
  5  7  2  0
  5  8  1  0
  5  9  1  0
  9 10  1  0
 11 10  1  1
 11 12  1  0
 11 13  1  0
 12 17  1  0
 13 14  1  6
 13 15  1  0
 15 16  1  6
 15 17  1  0
 17 18  1  1
 18 19  1  0
 18 27  1  0
 19 20  2  0
 20 21  1  0
 21 22  1  0
 21 27  2  0
 22 23  1  0
 22 24  2  0
 24 25  1  0
 25 26  2  0
 26 27  1  0
M  END
$$$$
