
     RDKit          3D

 27 29  0  0  0  0  0  0  0  0999 V2000
   26.2271    6.3339   20.0737 P   0  0  1  0  0  5  0  0  0  0  0  0
   26.8989    7.5371   21.0544 O   0  0  0  0  0  0  0  0  0  0  0  0
   26.6438    4.9630   20.5625 O   0  0  0  0  0  0  0  0  0  0  0  0
   24.5409    6.4903   20.1649 O   0  0  0  0  0  0  0  0  0  0  0  0
   28.4329    6.5526   18.4602 P   0  0  1  0  0  5  0  0  0  0  0  0
   29.1102    8.0892   18.3582 O   0  0  0  0  0  0  0  0  0  0  0  0
   28.9330    5.8713   19.7136 O   0  0  0  0  0  0  0  0  0  0  0  0
   26.7419    6.6181   18.4877 O   0  0  0  0  0  0  0  0  0  0  0  0
   28.8779    5.6184   17.1207 O   0  0  0  0  0  0  0  0  0  0  0  0
   27.8694    4.6840   16.9032 C   0  0  0  0  0  0  0  0  0  0  0  0
   28.4242    3.4152   16.3429 C   0  0  1  0  0  0  0  0  0  0  0  0
   29.1310    3.6565   15.1852 O   0  0  0  0  0  0  0  0  0  0  0  0
   29.4892    2.8930   17.3155 C   0  0  1  0  0  0  0  0  0  0  0  0
   28.9116    2.1901   18.3571 O   0  0  0  0  0  0  0  0  0  0  0  0
   30.2247    1.9591   16.3536 C   0  0  1  0  0  0  0  0  0  0  0  0
   29.4625    0.8244   16.2296 O   0  0  0  0  0  0  0  0  0  0  0  0
   30.1486    2.7501   15.0831 C   0  0  2  0  0  0  0  0  0  0  0  0
   31.4182    3.4078   14.7816 N   0  0  0  0  0  0  0  0  0  0  0  0
   31.9338    4.4877   15.3981 C   0  0  0  0  0  0  0  0  0  0  0  0
   33.1274    4.8030   14.8392 N   0  0  0  0  0  0  0  0  0  0  0  0
   33.3875    3.9226   13.8546 C   0  0  0  0  0  0  0  0  0  0  0  0
   34.4518    3.7943   12.9840 C   0  0  0  0  0  0  0  0  0  0  0  0
   35.5582    4.6659   12.9926 N   0  0  0  0  0  0  0  0  0  0  0  0
   34.3934    2.7782   12.1016 N   0  0  0  0  0  0  0  0  0  0  0  0
   33.3602    1.9117   12.0459 C   0  0  0  0  0  0  0  0  0  0  0  0
   32.3430    2.0700   12.9102 N   0  0  0  0  0  0  0  0  0  0  0  0
   32.3043    3.0548   13.8330 C   0  0  0  0  0  0  0  0  0  0  0  0
  1  2  1  1
  1  3  2  0
  1  4  1  0
  8  1  1  0
  5  6  1  6
  5  7  2  0
  5  8  1  0
  5  9  1  0
  9 10  1  0
 11 10  1  1
 11 12  1  0
 11 13  1  0
 12 17  1  0
 13 14  1  1
 13 15  1  0
 15 16  1  6
 15 17  1  0
 17 18  1  1
 18 19  1  0
 18 27  1  0
 19 20  2  0
 20 21  1  0
 21 22  1  0
 21 27  2  0
 22 23  1  0
 22 24  2  0
 24 25  1  0
 25 26  2  0
 26 27  1  0
M  END
$$$$
