
     RDKit          3D

 27 29  0  0  0  0  0  0  0  0999 V2000
   26.3855    6.7486   20.0977 P   0  0  1  0  0  5  0  0  0  0  0  0
   26.3653    5.1639   20.6887 O   0  0  0  0  0  0  0  0  0  0  0  0
   25.0327    7.1140   19.5248 O   0  0  0  0  0  0  0  0  0  0  0  0
   26.7542    7.7694   21.4008 O   0  0  0  0  0  0  0  0  0  0  0  0
   28.8911    5.8600   19.4279 P   0  0  1  0  0  5  0  0  0  0  0  0
   30.0360    6.7279   20.3035 O   0  0  0  0  0  0  0  0  0  0  0  0
   28.3613    4.7323   20.2838 O   0  0  0  0  0  0  0  0  0  0  0  0
   27.6077    6.8460   18.9326 O   0  0  0  0  0  0  0  0  0  0  0  0
   29.5865    5.2013   18.0323 O   0  0  0  0  0  0  0  0  0  0  0  0
   28.7774    5.5465   16.9536 C   0  0  0  0  0  0  0  0  0  0  0  0
   28.7098    4.4367   15.9559 C   0  0  1  0  0  0  0  0  0  0  0  0
   29.5319    4.6918   14.8802 O   0  0  0  0  0  0  0  0  0  0  0  0
   29.3267    3.1861   16.5949 C   0  0  1  0  0  0  0  0  0  0  0  0
   28.4094    2.5319   17.3970 O   0  0  0  0  0  0  0  0  0  0  0  0
   29.6058    2.4006   15.3130 C   0  0  1  0  0  0  0  0  0  0  0  0
   28.4109    1.8697   14.8957 O   0  0  0  0  0  0  0  0  0  0  0  0
   30.0072    3.5090   14.3878 C   0  0  2  0  0  0  0  0  0  0  0  0
   31.4556    3.5551   14.1995 N   0  0  0  0  0  0  0  0  0  0  0  0
   32.3373    4.2919   14.9006 C   0  0  0  0  0  0  0  0  0  0  0  0
   33.5895    4.0675   14.4337 N   0  0  0  0  0  0  0  0  0  0  0  0
   33.5196    3.1800   13.4240 C   0  0  0  0  0  0  0  0  0  0  0  0
   34.4883    2.6180   12.6159 C   0  0  0  0  0  0  0  0  0  0  0  0
   35.8584    2.9219   12.7373 N   0  0  0  0  0  0  0  0  0  0  0  0
   34.0658    1.7448   11.6813 N   0  0  0  0  0  0  0  0  0  0  0  0
   32.7675    1.4147   11.5177 C   0  0  0  0  0  0  0  0  0  0  0  0
   31.8545    1.9832   12.3240 N   0  0  0  0  0  0  0  0  0  0  0  0
   32.1732    2.8697   13.2912 C   0  0  0  0  0  0  0  0  0  0  0  0
  1  2  1  1
  1  3  2  0
  1  4  1  0
  8  1  1  0
  5  6  1  1
  5  7  2  0
  5  8  1  0
  5  9  1  0
  9 10  1  0
 11 10  1  1
 11 12  1  0
 11 13  1  0
 12 17  1  0
 13 14  1  1
 13 15  1  0
 15 16  1  6
 15 17  1  0
 17 18  1  1
 18 19  1  0
 18 27  1  0
 19 20  2  0
 20 21  1  0
 21 22  1  0
 21 27  2  0
 22 23  1  0
 22 24  2  0
 24 25  1  0
 25 26  2  0
 26 27  1  0
M  END
$$$$
