
     RDKit          3D

 27 29  0  0  0  0  0  0  0  0999 V2000
   28.0624    5.8013   20.0779 P   0  0  1  0  0  5  0  0  0  0  0  0
   28.3757    6.0738   21.7175 O   0  0  0  0  0  0  0  0  0  0  0  0
   28.5628    4.4329   19.6668 O   0  0  0  0  0  0  0  0  0  0  0  0
   26.3825    5.8891   19.8627 O   0  0  0  0  0  0  0  0  0  0  0  0
   29.1707    6.4441   17.6540 P   0  0  1  0  0  5  0  0  0  0  0  0
   27.9312    5.4715   17.0637 O   0  0  0  0  0  0  0  0  0  0  0  0
   29.3873    7.6023   16.7072 O   0  0  0  0  0  0  0  0  0  0  0  0
   28.8157    7.0351   19.1997 O   0  0  0  0  0  0  0  0  0  0  0  0
   30.6110    5.5627   17.7715 O   0  0  0  0  0  0  0  0  0  0  0  0
   30.2837    4.2104   17.7297 C   0  0  0  0  0  0  0  0  0  0  0  0
   31.2693    3.4442   16.9094 C   0  0  1  0  0  0  0  0  0  0  0  0
   30.6293    2.6851   15.9542 O   0  0  0  0  0  0  0  0  0  0  0  0
   32.0850    4.4494   16.0866 C   0  0  1  0  0  0  0  0  0  0  0  0
   33.1151    4.9878   16.8361 O   0  0  0  0  0  0  0  0  0  0  0  0
   32.6141    3.4847   15.0248 C   0  0  1  0  0  0  0  0  0  0  0  0
   33.6434    2.7791   15.5962 O   0  0  0  0  0  0  0  0  0  0  0  0
   31.4297    2.5831   14.8513 C   0  0  2  0  0  0  0  0  0  0  0  0
   30.6920    2.8927   13.6285 N   0  0  0  0  0  0  0  0  0  0  0  0
   29.4791    3.4700   13.5423 C   0  0  0  0  0  0  0  0  0  0  0  0
   29.1261    3.5928   12.2396 N   0  0  0  0  0  0  0  0  0  0  0  0
   30.1157    3.0922   11.4767 C   0  0  0  0  0  0  0  0  0  0  0  0
   30.2611    2.9742   10.1084 C   0  0  0  0  0  0  0  0  0  0  0  0
   29.2828    3.4099    9.1934 N   0  0  0  0  0  0  0  0  0  0  0  0
   31.4028    2.4122    9.6668 N   0  0  0  0  0  0  0  0  0  0  0  0
   32.3753    1.9762   10.4947 C   0  0  0  0  0  0  0  0  0  0  0  0
   32.1964    2.1087   11.8203 N   0  0  0  0  0  0  0  0  0  0  0  0
   31.0897    2.6576   12.3651 C   0  0  0  0  0  0  0  0  0  0  0  0
  1  2  1  1
  1  3  2  0
  1  4  1  0
  8  1  1  0
  5  6  1  6
  5  7  2  0
  5  8  1  0
  5  9  1  0
  9 10  1  0
 11 10  1  1
 11 12  1  0
 11 13  1  0
 12 17  1  0
 13 14  1  1
 13 15  1  0
 15 16  1  1
 15 17  1  0
 17 18  1  6
 18 19  1  0
 18 27  1  0
 19 20  2  0
 20 21  1  0
 21 22  1  0
 21 27  2  0
 22 23  1  0
 22 24  2  0
 24 25  1  0
 25 26  2  0
 26 27  1  0
M  END
$$$$
