
     RDKit          3D

 27 29  0  0  0  0  0  0  0  0999 V2000
   27.4180    6.0781   20.8966 P   0  0  1  0  0  5  0  0  0  0  0  0
   27.6172    6.3032   22.5611 O   0  0  0  0  0  0  0  0  0  0  0  0
   26.9279    4.6747   20.6103 O   0  0  0  0  0  0  0  0  0  0  0  0
   26.2701    7.2087   20.3673 O   0  0  0  0  0  0  0  0  0  0  0  0
   28.7378    6.1133   18.4938 P   0  0  1  0  0  5  0  0  0  0  0  0
   27.3889    6.9027   17.8710 O   0  0  0  0  0  0  0  0  0  0  0  0
   29.9745    6.5990   17.7731 O   0  0  0  0  0  0  0  0  0  0  0  0
   28.9069    6.3865   20.1555 O   0  0  0  0  0  0  0  0  0  0  0  0
   28.6015    4.4410   18.2707 O   0  0  0  0  0  0  0  0  0  0  0  0
   28.2672    4.2181   16.9380 C   0  0  0  0  0  0  0  0  0  0  0  0
   29.1626    3.1923   16.3237 C   0  0  1  0  0  0  0  0  0  0  0  0
   29.2317    3.3548   14.9574 O   0  0  0  0  0  0  0  0  0  0  0  0
   30.5958    3.4705   16.7946 C   0  0  1  0  0  0  0  0  0  0  0  0
   30.8227    2.9303   18.0474 O   0  0  0  0  0  0  0  0  0  0  0  0
   31.3380    2.6904   15.7089 C   0  0  1  0  0  0  0  0  0  0  0  0
   31.2516    1.3602   16.0359 O   0  0  0  0  0  0  0  0  0  0  0  0
   30.4676    2.9676   14.5210 C   0  0  2  0  0  0  0  0  0  0  0  0
   31.0604    3.9735   13.6423 N   0  0  0  0  0  0  0  0  0  0  0  0
   30.8339    5.3002   13.6664 C   0  0  0  0  0  0  0  0  0  0  0  0
   31.5654    5.9034   12.6982 N   0  0  0  0  0  0  0  0  0  0  0  0
   32.2704    4.9627   12.0424 C   0  0  0  0  0  0  0  0  0  0  0  0
   33.1581    5.0381   10.9871 C   0  0  0  0  0  0  0  0  0  0  0  0
   33.5032    6.2518   10.3612 N   0  0  0  0  0  0  0  0  0  0  0  0
   33.6976    3.8781   10.5654 N   0  0  0  0  0  0  0  0  0  0  0  0
   33.4055    2.6854   11.1252 C   0  0  0  0  0  0  0  0  0  0  0  0
   32.5367    2.6535   12.1504 N   0  0  0  0  0  0  0  0  0  0  0  0
   31.9409    3.7581   12.6483 C   0  0  0  0  0  0  0  0  0  0  0  0
  1  2  1  1
  1  3  2  0
  1  4  1  0
  8  1  1  0
  5  6  1  6
  5  7  2  0
  5  8  1  0
  5  9  1  0
  9 10  1  0
 11 10  1  1
 11 12  1  0
 11 13  1  0
 12 17  1  0
 13 14  1  1
 13 15  1  0
 15 16  1  1
 15 17  1  0
 17 18  1  1
 18 19  1  0
 18 27  1  0
 19 20  2  0
 20 21  1  0
 21 22  1  0
 21 27  2  0
 22 23  1  0
 22 24  2  0
 24 25  1  0
 25 26  2  0
 26 27  1  0
M  END
$$$$
