
     RDKit          3D

 27 29  0  0  0  0  0  0  0  0999 V2000
   27.6964    5.8763   20.1744 P   0  0  1  0  0  5  0  0  0  0  0  0
   27.8472    5.5599   21.8291 O   0  0  0  0  0  0  0  0  0  0  0  0
   26.5057    5.1361   19.6034 O   0  0  0  0  0  0  0  0  0  0  0  0
   27.4745    7.5483   19.9976 O   0  0  0  0  0  0  0  0  0  0  0  0
   29.1692    6.0678   17.8699 P   0  0  1  0  0  5  0  0  0  0  0  0
   28.0380    7.3012   17.6983 O   0  0  0  0  0  0  0  0  0  0  0  0
   30.5478    6.6134   17.5756 O   0  0  0  0  0  0  0  0  0  0  0  0
   29.1416    5.4103   19.4293 O   0  0  0  0  0  0  0  0  0  0  0  0
   28.8419    4.8082   16.7876 O   0  0  0  0  0  0  0  0  0  0  0  0
   29.0973    3.6085   17.4455 C   0  0  0  0  0  0  0  0  0  0  0  0
   30.0347    2.7527   16.6578 C   0  0  1  0  0  0  0  0  0  0  0  0
   29.7665    2.8418   15.3094 O   0  0  0  0  0  0  0  0  0  0  0  0
   31.4426    3.3477   16.7873 C   0  0  1  0  0  0  0  0  0  0  0  0
   32.0485    2.9435   17.9630 O   0  0  0  0  0  0  0  0  0  0  0  0
   32.0783    2.6716   15.5720 C   0  0  1  0  0  0  0  0  0  0  0  0
   32.3523    1.3746   15.9280 O   0  0  0  0  0  0  0  0  0  0  0  0
   30.9302    2.6906   14.6091 C   0  0  2  0  0  0  0  0  0  0  0  0
   31.0870    3.7410   13.6053 N   0  0  0  0  0  0  0  0  0  0  0  0
   30.6459    5.0100   13.6897 C   0  0  0  0  0  0  0  0  0  0  0  0
   30.9815    5.6833   12.5626 N   0  0  0  0  0  0  0  0  0  0  0  0
   31.6439    4.8463   11.7424 C   0  0  0  0  0  0  0  0  0  0  0  0
   32.1974    5.0223   10.4894 C   0  0  0  0  0  0  0  0  0  0  0  0
   32.1487    6.2470    9.7953 N   0  0  0  0  0  0  0  0  0  0  0  0
   32.8023    3.9521    9.9387 N   0  0  0  0  0  0  0  0  0  0  0  0
   32.8804    2.7541   10.5551 C   0  0  0  0  0  0  0  0  0  0  0  0
   32.3294    2.6228   11.7741 N   0  0  0  0  0  0  0  0  0  0  0  0
   31.7006    3.6323   12.4132 C   0  0  0  0  0  0  0  0  0  0  0  0
  1  2  1  1
  1  3  2  0
  1  4  1  0
  8  1  1  0
  5  6  1  1
  5  7  2  0
  5  8  1  0
  5  9  1  0
  9 10  1  0
 11 10  1  1
 11 12  1  0
 11 13  1  0
 12 17  1  0
 13 14  1  1
 13 15  1  0
 15 16  1  1
 15 17  1  0
 17 18  1  6
 18 19  1  0
 18 27  1  0
 19 20  2  0
 20 21  1  0
 21 22  1  0
 21 27  2  0
 22 23  1  0
 22 24  2  0
 24 25  1  0
 25 26  2  0
 26 27  1  0
M  END
$$$$
