
     RDKit          3D

 27 29  0  0  0  0  0  0  0  0999 V2000
   26.3850    6.3014   19.5335 P   0  0  1  0  0  5  0  0  0  0  0  0
   25.1684    5.1286   19.6061 O   0  0  0  0  0  0  0  0  0  0  0  0
   25.7993    7.6812   19.7454 O   0  0  0  0  0  0  0  0  0  0  0  0
   27.4977    5.9525   20.7649 O   0  0  0  0  0  0  0  0  0  0  0  0
   28.8015    6.4042   18.2426 P   0  0  1  0  0  5  0  0  0  0  0  0
   29.2756    7.9392   17.7431 O   0  0  0  0  0  0  0  0  0  0  0  0
   29.1522    6.2261   19.7021 O   0  0  0  0  0  0  0  0  0  0  0  0
   27.1401    6.1646   18.0262 O   0  0  0  0  0  0  0  0  0  0  0  0
   29.6022    5.2145   17.3433 O   0  0  0  0  0  0  0  0  0  0  0  0
   29.2026    5.3471   16.0165 C   0  0  0  0  0  0  0  0  0  0  0  0
   29.6460    4.1759   15.2022 C   0  0  1  0  0  0  0  0  0  0  0  0
   30.9021    4.3887   14.6780 O   0  0  0  0  0  0  0  0  0  0  0  0
   29.8459    2.9871   16.1508 C   0  0  1  0  0  0  0  0  0  0  0  0
   28.6449    2.3561   16.4195 O   0  0  0  0  0  0  0  0  0  0  0  0
   30.7340    2.1323   15.2459 C   0  0  1  0  0  0  0  0  0  0  0  0
   29.9145    1.5398   14.3179 O   0  0  0  0  0  0  0  0  0  0  0  0
   31.5557    3.1927   14.5782 C   0  0  2  0  0  0  0  0  0  0  0  0
   32.8988    3.2716   15.1484 N   0  0  0  0  0  0  0  0  0  0  0  0
   33.3273    4.1357   16.0874 C   0  0  0  0  0  0  0  0  0  0  0  0
   34.6336    3.8996   16.3597 N   0  0  0  0  0  0  0  0  0  0  0  0
   35.0549    2.8766   15.5929 C   0  0  0  0  0  0  0  0  0  0  0  0
   36.2788    2.2469   15.4793 C   0  0  0  0  0  0  0  0  0  0  0  0
   37.4063    2.6211   16.2360 N   0  0  0  0  0  0  0  0  0  0  0  0
   36.3590    1.2340   14.5949 N   0  0  0  0  0  0  0  0  0  0  0  0
   35.3137    0.8307   13.8426 C   0  0  0  0  0  0  0  0  0  0  0  0
   34.1389    1.4689   13.9822 N   0  0  0  0  0  0  0  0  0  0  0  0
   33.9532    2.4953   14.8395 C   0  0  0  0  0  0  0  0  0  0  0  0
  1  2  1  6
  1  3  2  0
  1  4  1  0
  8  1  1  0
  5  6  1  6
  5  7  2  0
  5  8  1  0
  5  9  1  0
  9 10  1  0
 11 10  1  1
 11 12  1  0
 11 13  1  0
 12 17  1  0
 13 14  1  6
 13 15  1  0
 15 16  1  6
 15 17  1  0
 17 18  1  1
 18 19  1  0
 18 27  1  0
 19 20  2  0
 20 21  1  0
 21 22  1  0
 21 27  2  0
 22 23  1  0
 22 24  2  0
 24 25  1  0
 25 26  2  0
 26 27  1  0
M  END
$$$$
