
     RDKit          3D

 27 29  0  0  0  0  0  0  0  0999 V2000
   26.9092    6.3854   20.0331 P   0  0  1  0  0  5  0  0  0  0  0  0
   27.4312    7.9940   20.0037 O   0  0  0  0  0  0  0  0  0  0  0  0
   26.9956    5.8296   21.4387 O   0  0  0  0  0  0  0  0  0  0  0  0
   25.2981    6.3669   19.5041 O   0  0  0  0  0  0  0  0  0  0  0  0
   28.4897    6.5916   17.8024 P   0  0  1  0  0  5  0  0  0  0  0  0
   27.5200    7.9587   17.6556 O   0  0  0  0  0  0  0  0  0  0  0  0
   29.8859    7.0131   18.1998 O   0  0  0  0  0  0  0  0  0  0  0  0
   27.8749    5.5130   18.9527 O   0  0  0  0  0  0  0  0  0  0  0  0
   28.5721    5.7622   16.3291 O   0  0  0  0  0  0  0  0  0  0  0  0
   29.9064    5.7347   15.9336 C   0  0  0  0  0  0  0  0  0  0  0  0
   30.2358    4.4515   15.2434 C   0  0  1  0  0  0  0  0  0  0  0  0
   31.4953    4.5017   14.6872 O   0  0  0  0  0  0  0  0  0  0  0  0
   30.3543    3.3558   16.3104 C   0  0  1  0  0  0  0  0  0  0  0  0
   29.1104    2.8600   16.6561 O   0  0  0  0  0  0  0  0  0  0  0  0
   31.1514    2.3392   15.4922 C   0  0  1  0  0  0  0  0  0  0  0  0
   30.2684    1.7242   14.6402 O   0  0  0  0  0  0  0  0  0  0  0  0
   32.0455    3.2509   14.7080 C   0  0  2  0  0  0  0  0  0  0  0  0
   33.4010    3.2754   15.2534 N   0  0  0  0  0  0  0  0  0  0  0  0
   34.2394    4.3281   15.2842 C   0  0  0  0  0  0  0  0  0  0  0  0
   35.4064    3.9623   15.8680 N   0  0  0  0  0  0  0  0  0  0  0  0
   35.3245    2.6651   16.2178 C   0  0  0  0  0  0  0  0  0  0  0  0
   36.2200    1.8136   16.8344 C   0  0  0  0  0  0  0  0  0  0  0  0
   37.5070    2.2178   17.2397 N   0  0  0  0  0  0  0  0  0  0  0  0
   35.8086    0.5476   17.0406 N   0  0  0  0  0  0  0  0  0  0  0  0
   34.5882    0.1027   16.6744 C   0  0  0  0  0  0  0  0  0  0  0  0
   33.7449    0.9621   16.0768 N   0  0  0  0  0  0  0  0  0  0  0  0
   34.0594    2.2507   15.8244 C   0  0  0  0  0  0  0  0  0  0  0  0
  1  2  1  1
  1  3  2  0
  1  4  1  0
  8  1  1  0
  5  6  1  6
  5  7  2  0
  5  8  1  0
  5  9  1  0
  9 10  1  0
 11 10  1  1
 11 12  1  0
 11 13  1  0
 12 17  1  0
 13 14  1  6
 13 15  1  0
 15 16  1  6
 15 17  1  0
 17 18  1  1
 18 19  1  0
 18 27  1  0
 19 20  2  0
 20 21  1  0
 21 22  1  0
 21 27  2  0
 22 23  1  0
 22 24  2  0
 24 25  1  0
 25 26  2  0
 26 27  1  0
M  END
$$$$
