
     RDKit          3D

 27 29  0  0  0  0  0  0  0  0999 V2000
   12.9654    3.3063   35.4362 P   0  0  1  0  0  5  0  0  0  0  0  0
   11.8596    4.5396   35.0944 O   0  0  0  0  0  0  0  0  0  0  0  0
   12.7826    2.1535   34.4720 O   0  0  0  0  0  0  0  0  0  0  0  0
   14.5208    3.9600   35.2645 O   0  0  0  0  0  0  0  0  0  0  0  0
   11.3374    1.8547   37.0972 P   0  0  1  0  0  5  0  0  0  0  0  0
    9.9444    2.7718   37.3188 O   0  0  0  0  0  0  0  0  0  0  0  0
   11.2169    1.0711   35.8102 O   0  0  0  0  0  0  0  0  0  0  0  0
   12.7209    2.8280   37.0400 O   0  0  0  0  0  0  0  0  0  0  0  0
   11.5409    0.7667   38.3778 O   0  0  0  0  0  0  0  0  0  0  0  0
   12.7733    0.1419   38.2098 C   0  0  0  0  0  0  0  0  0  0  0  0
   13.1611   -0.6196   39.4350 C   0  0  1  0  0  0  0  0  0  0  0  0
   13.2718    0.2203   40.5215 O   0  0  0  0  0  0  0  0  0  0  0  0
   11.9947   -1.5433   39.8084 C   0  0  1  0  0  0  0  0  0  0  0  0
   12.0240   -2.7089   39.0648 O   0  0  0  0  0  0  0  0  0  0  0  0
   12.3790   -1.8024   41.2657 C   0  0  1  0  0  0  0  0  0  0  0  0
   13.3969   -2.7231   41.2579 O   0  0  0  0  0  0  0  0  0  0  0  0
   12.9245   -0.4617   41.6536 C   0  0  2  0  0  0  0  0  0  0  0  0
   11.9688    0.2959   42.4586 N   0  0  0  0  0  0  0  0  0  0  0  0
   11.2787    1.3868   42.0772 C   0  0  0  0  0  0  0  0  0  0  0  0
   10.4927    1.8070   43.0981 N   0  0  0  0  0  0  0  0  0  0  0  0
   10.6740    0.9839   44.1476 C   0  0  0  0  0  0  0  0  0  0  0  0
   10.1254    0.9639   45.4148 C   0  0  0  0  0  0  0  0  0  0  0  0
    9.1816    1.9117   45.8563 N   0  0  0  0  0  0  0  0  0  0  0  0
   10.5356   -0.0211   46.2371 N   0  0  0  0  0  0  0  0  0  0  0  0
   11.4364   -0.9568   45.8706 C   0  0  0  0  0  0  0  0  0  0  0  0
   11.9476   -0.9034   44.6286 N   0  0  0  0  0  0  0  0  0  0  0  0
   11.6034    0.0420   43.7281 C   0  0  0  0  0  0  0  0  0  0  0  0
  1  2  1  6
  1  3  2  0
  1  4  1  0
  8  1  1  0
  5  6  1  1
  5  7  2  0
  5  8  1  0
  5  9  1  0
  9 10  1  0
 11 10  1  6
 11 12  1  0
 11 13  1  0
 12 17  1  0
 13 14  1  6
 13 15  1  0
 15 16  1  6
 15 17  1  0
 17 18  1  6
 18 19  1  0
 18 27  1  0
 19 20  2  0
 20 21  1  0
 21 22  1  0
 21 27  2  0
 22 23  1  0
 22 24  2  0
 24 25  1  0
 25 26  2  0
 26 27  1  0
M  END
$$$$
