
     RDKit          3D

 27 29  0  0  0  0  0  0  0  0999 V2000
   12.7833    3.7548   35.3586 P   0  0  1  0  0  5  0  0  0  0  0  0
   14.1365    4.7260   35.0645 O   0  0  0  0  0  0  0  0  0  0  0  0
   11.5250    4.4463   34.8788 O   0  0  0  0  0  0  0  0  0  0  0  0
   13.0058    2.3061   34.5055 O   0  0  0  0  0  0  0  0  0  0  0  0
   11.3620    2.4934   37.3347 P   0  0  1  0  0  5  0  0  0  0  0  0
    9.9742    3.4368   37.4552 O   0  0  0  0  0  0  0  0  0  0  0  0
   11.1798    1.4807   36.2273 O   0  0  0  0  0  0  0  0  0  0  0  0
   12.7310    3.4372   37.0191 O   0  0  0  0  0  0  0  0  0  0  0  0
   11.6448    1.6668   38.7845 O   0  0  0  0  0  0  0  0  0  0  0  0
   12.9283    1.1319   38.7227 C   0  0  0  0  0  0  0  0  0  0  0  0
   13.1048    0.0409   39.7277 C   0  0  1  0  0  0  0  0  0  0  0  0
   13.1839    0.5555   41.0033 O   0  0  0  0  0  0  0  0  0  0  0  0
   11.8179   -0.7935   39.7528 C   0  0  1  0  0  0  0  0  0  0  0  0
   11.8079   -1.7254   38.7310 O   0  0  0  0  0  0  0  0  0  0  0  0
   12.0170   -1.4615   41.1139 C   0  0  1  0  0  0  0  0  0  0  0  0
   12.9316   -2.4700   40.9395 O   0  0  0  0  0  0  0  0  0  0  0  0
   12.6511   -0.3433   41.8840 C   0  0  2  0  0  0  0  0  0  0  0  0
   11.6968    0.2978   42.7861 N   0  0  0  0  0  0  0  0  0  0  0  0
   10.8977    1.3437   42.5043 C   0  0  0  0  0  0  0  0  0  0  0  0
   10.1540    1.6536   43.5941 N   0  0  0  0  0  0  0  0  0  0  0  0
   10.4727    0.8039   44.5883 C   0  0  0  0  0  0  0  0  0  0  0  0
   10.0170    0.6845   45.8865 C   0  0  0  0  0  0  0  0  0  0  0  0
    9.0342    1.5316   46.4346 N   0  0  0  0  0  0  0  0  0  0  0  0
   10.5602   -0.2978   46.6311 N   0  0  0  0  0  0  0  0  0  0  0  0
   11.5045   -1.1397   46.1611 C   0  0  0  0  0  0  0  0  0  0  0  0
   11.9220   -0.9912   44.8921 N   0  0  0  0  0  0  0  0  0  0  0  0
   11.4421   -0.0395   44.0632 C   0  0  0  0  0  0  0  0  0  0  0  0
  1  2  1  1
  1  3  2  0
  1  4  1  0
  8  1  1  0
  5  6  1  1
  5  7  2  0
  5  8  1  0
  5  9  1  0
  9 10  1  0
 11 10  1  6
 11 12  1  0
 11 13  1  0
 12 17  1  0
 13 14  1  6
 13 15  1  0
 15 16  1  6
 15 17  1  0
 17 18  1  6
 18 19  1  0
 18 27  1  0
 19 20  2  0
 20 21  1  0
 21 22  1  0
 21 27  2  0
 22 23  1  0
 22 24  2  0
 24 25  1  0
 25 26  2  0
 26 27  1  0
M  END
$$$$
