
     RDKit          3D

 27 29  0  0  0  0  0  0  0  0999 V2000
   13.0085    3.3075   34.8855 P   0  0  1  0  0  5  0  0  0  0  0  0
   11.6322    3.3368   33.9029 O   0  0  0  0  0  0  0  0  0  0  0  0
   13.6967    1.9626   34.7875 O   0  0  0  0  0  0  0  0  0  0  0  0
   14.0488    4.5286   34.3351 O   0  0  0  0  0  0  0  0  0  0  0  0
   11.4622    2.4214   36.9688 P   0  0  1  0  0  5  0  0  0  0  0  0
    9.8985    3.0019   37.1890 O   0  0  0  0  0  0  0  0  0  0  0  0
   11.4418    1.3183   35.9355 O   0  0  0  0  0  0  0  0  0  0  0  0
   12.5164    3.6470   36.4678 O   0  0  0  0  0  0  0  0  0  0  0  0
   12.0719    1.7955   38.4185 O   0  0  0  0  0  0  0  0  0  0  0  0
   13.3153    1.2322   38.1460 C   0  0  0  0  0  0  0  0  0  0  0  0
   13.5759    0.0538   39.0261 C   0  0  1  0  0  0  0  0  0  0  0  0
   13.5283    0.4129   40.3554 O   0  0  0  0  0  0  0  0  0  0  0  0
   12.4024   -0.9220   38.8722 C   0  0  1  0  0  0  0  0  0  0  0  0
   12.5576   -1.7154   37.7501 O   0  0  0  0  0  0  0  0  0  0  0  0
   12.6157   -1.7249   40.1560 C   0  0  1  0  0  0  0  0  0  0  0  0
   13.6554   -2.5903   39.9236 O   0  0  0  0  0  0  0  0  0  0  0  0
   13.0683   -0.6439   41.0898 C   0  0  2  0  0  0  0  0  0  0  0  0
   11.9992   -0.2348   41.9981 N   0  0  0  0  0  0  0  0  0  0  0  0
   11.2487    0.8794   41.9111 C   0  0  0  0  0  0  0  0  0  0  0  0
   10.3615    0.9105   42.9349 N   0  0  0  0  0  0  0  0  0  0  0  0
   10.5375   -0.1897   43.6904 C   0  0  0  0  0  0  0  0  0  0  0  0
    9.9056   -0.6395   44.8330 C   0  0  0  0  0  0  0  0  0  0  0  0
    8.8578    0.0651   45.4572 N   0  0  0  0  0  0  0  0  0  0  0  0
   10.3384   -1.8082   45.3443 N   0  0  0  0  0  0  0  0  0  0  0  0
   11.3373   -2.5274   44.7909 C   0  0  0  0  0  0  0  0  0  0  0  0
   11.9273   -2.0560   43.6789 N   0  0  0  0  0  0  0  0  0  0  0  0
   11.5689   -0.8964   43.0875 C   0  0  0  0  0  0  0  0  0  0  0  0
  1  2  1  6
  1  3  2  0
  1  4  1  0
  8  1  1  0
  5  6  1  1
  5  7  2  0
  5  8  1  0
  5  9  1  0
  9 10  1  0
 11 10  1  6
 11 12  1  0
 11 13  1  0
 12 17  1  0
 13 14  1  6
 13 15  1  0
 15 16  1  6
 15 17  1  0
 17 18  1  6
 18 19  1  0
 18 27  1  0
 19 20  2  0
 20 21  1  0
 21 22  1  0
 21 27  2  0
 22 23  1  0
 22 24  2  0
 24 25  1  0
 25 26  2  0
 26 27  1  0
M  END
$$$$
