
     RDKit          3D

 27 29  0  0  0  0  0  0  0  0999 V2000
   27.0375    5.3781   19.2858 P   0  0  1  0  0  5  0  0  0  0  0  0
   26.4054    5.2968   20.8526 O   0  0  0  0  0  0  0  0  0  0  0  0
   26.4767    4.2597   18.4334 O   0  0  0  0  0  0  0  0  0  0  0  0
   26.5877    6.8787   18.6364 O   0  0  0  0  0  0  0  0  0  0  0  0
   29.3888    5.9048   17.9779 P   0  0  1  0  0  5  0  0  0  0  0  0
   28.4602    7.1603   17.3518 O   0  0  0  0  0  0  0  0  0  0  0  0
   30.7881    6.4086   18.2482 O   0  0  0  0  0  0  0  0  0  0  0  0
   28.7223    5.2905   19.4072 O   0  0  0  0  0  0  0  0  0  0  0  0
   29.4769    4.6249   16.8737 O   0  0  0  0  0  0  0  0  0  0  0  0
   29.4625    5.1699   15.5929 C   0  0  0  0  0  0  0  0  0  0  0  0
   30.3221    4.3781   14.6625 C   0  0  1  0  0  0  0  0  0  0  0  0
   31.6567    4.5567   14.9541 O   0  0  0  0  0  0  0  0  0  0  0  0
   30.0848    2.8898   14.9482 C   0  0  1  0  0  0  0  0  0  0  0  0
   28.9505    2.4328   14.3022 O   0  0  0  0  0  0  0  0  0  0  0  0
   31.3553    2.3376   14.3006 C   0  0  1  0  0  0  0  0  0  0  0  0
   31.1504    2.3381   12.9434 O   0  0  0  0  0  0  0  0  0  0  0  0
   32.3390    3.4110   14.6550 C   0  0  2  0  0  0  0  0  0  0  0  0
   33.2049    3.0042   15.7596 N   0  0  0  0  0  0  0  0  0  0  0  0
   33.1001    3.3804   17.0478 C   0  0  0  0  0  0  0  0  0  0  0  0
   34.0844    2.7960   17.7731 N   0  0  0  0  0  0  0  0  0  0  0  0
   34.8318    2.0363   16.9508 C   0  0  0  0  0  0  0  0  0  0  0  0
   35.9394    1.2424   17.1746 C   0  0  0  0  0  0  0  0  0  0  0  0
   36.5264    1.0866   18.4455 N   0  0  0  0  0  0  0  0  0  0  0  0
   36.4533    0.6042   16.1054 N   0  0  0  0  0  0  0  0  0  0  0  0
   35.9346    0.7147   14.8644 C   0  0  0  0  0  0  0  0  0  0  0  0
   34.8561    1.4972   14.6872 N   0  0  0  0  0  0  0  0  0  0  0  0
   34.2653    2.1791   15.6916 C   0  0  0  0  0  0  0  0  0  0  0  0
  1  2  1  1
  1  3  2  0
  1  4  1  0
  8  1  1  0
  5  6  1  6
  5  7  2  0
  5  8  1  0
  5  9  1  0
  9 10  1  0
 11 10  1  1
 11 12  1  0
 11 13  1  0
 12 17  1  0
 13 14  1  6
 13 15  1  0
 15 16  1  6
 15 17  1  0
 17 18  1  1
 18 19  1  0
 18 27  1  0
 19 20  2  0
 20 21  1  0
 21 22  1  0
 21 27  2  0
 22 23  1  0
 22 24  2  0
 24 25  1  0
 25 26  2  0
 26 27  1  0
M  END
$$$$
