
     RDKit          3D

 27 29  0  0  0  0  0  0  0  0999 V2000
   11.2507    2.6685   36.2302 P   0  0  1  0  0  5  0  0  0  0  0  0
   10.9029    1.4114   37.3070 O   0  0  0  0  0  0  0  0  0  0  0  0
   11.9813    2.1349   35.0164 O   0  0  0  0  0  0  0  0  0  0  0  0
    9.7727    3.3533   35.7582 O   0  0  0  0  0  0  0  0  0  0  0  0
   13.6780    3.1311   37.4179 P   0  0  1  0  0  5  0  0  0  0  0  0
   14.5250    2.7391   36.0180 O   0  0  0  0  0  0  0  0  0  0  0  0
   14.4956    4.1030   38.2376 O   0  0  0  0  0  0  0  0  0  0  0  0
   12.1720    3.8170   37.0628 O   0  0  0  0  0  0  0  0  0  0  0  0
   13.3926    1.7447   38.3460 O   0  0  0  0  0  0  0  0  0  0  0  0
   14.2223    0.7358   37.8650 C   0  0  0  0  0  0  0  0  0  0  0  0
   14.0549   -0.5203   38.6558 C   0  0  1  0  0  0  0  0  0  0  0  0
   14.2588   -0.2871   39.9982 O   0  0  0  0  0  0  0  0  0  0  0  0
   12.5801   -0.9355   38.5801 C   0  0  1  0  0  0  0  0  0  0  0  0
   12.3159   -1.6263   37.4115 O   0  0  0  0  0  0  0  0  0  0  0  0
   12.5518   -1.8641   39.7947 C   0  0  1  0  0  0  0  0  0  0  0  0
   13.1347   -3.0467   39.4133 O   0  0  0  0  0  0  0  0  0  0  0  0
   13.4714   -1.1345   40.7260 C   0  0  2  0  0  0  0  0  0  0  0  0
   12.7308   -0.4154   41.7602 N   0  0  0  0  0  0  0  0  0  0  0  0
   12.3158    0.8643   41.7133 C   0  0  0  0  0  0  0  0  0  0  0  0
   11.6619    1.1720   42.8598 N   0  0  0  0  0  0  0  0  0  0  0  0
   11.6528    0.0858   43.6548 C   0  0  0  0  0  0  0  0  0  0  0  0
   11.1273   -0.1374   44.9122 C   0  0  0  0  0  0  0  0  0  0  0  0
   10.4398    0.8518   45.6421 N   0  0  0  0  0  0  0  0  0  0  0  0
   11.2998   -1.3685   45.4311 N   0  0  0  0  0  0  0  0  0  0  0  0
   11.9491   -2.3561   44.7797 C   0  0  0  0  0  0  0  0  0  0  0  0
   12.4463   -2.0996   43.5575 N   0  0  0  0  0  0  0  0  0  0  0  0
   12.3278   -0.9004   42.9485 C   0  0  0  0  0  0  0  0  0  0  0  0
  1  2  1  1
  1  3  2  0
  1  4  1  0
  8  1  1  0
  5  6  1  6
  5  7  2  0
  5  8  1  0
  5  9  1  0
  9 10  1  0
 11 10  1  6
 11 12  1  0
 11 13  1  0
 12 17  1  0
 13 14  1  6
 13 15  1  0
 15 16  1  6
 15 17  1  0
 17 18  1  1
 18 19  1  0
 18 27  1  0
 19 20  2  0
 20 21  1  0
 21 22  1  0
 21 27  2  0
 22 23  1  0
 22 24  2  0
 24 25  1  0
 25 26  2  0
 26 27  1  0
M  END
$$$$
