
     RDKit          3D

 27 29  0  0  0  0  0  0  0  0999 V2000
   12.7844    3.4379   35.7327 P   0  0  1  0  0  5  0  0  0  0  0  0
   11.4498    4.0232   34.8741 O   0  0  0  0  0  0  0  0  0  0  0  0
   13.3777    2.2365   35.0282 O   0  0  0  0  0  0  0  0  0  0  0  0
   13.9283    4.6879   35.8029 O   0  0  0  0  0  0  0  0  0  0  0  0
   11.1784    1.7580   37.1873 P   0  0  1  0  0  5  0  0  0  0  0  0
    9.5829    2.2880   37.1251 O   0  0  0  0  0  0  0  0  0  0  0  0
   11.4815    0.9477   35.9478 O   0  0  0  0  0  0  0  0  0  0  0  0
   12.2612    3.0544   37.2949 O   0  0  0  0  0  0  0  0  0  0  0  0
   11.4264    0.7819   38.5477 O   0  0  0  0  0  0  0  0  0  0  0  0
   12.7932    0.5394   38.6505 C   0  0  0  0  0  0  0  0  0  0  0  0
   13.0925   -0.3722   39.7954 C   0  0  1  0  0  0  0  0  0  0  0  0
   13.2411    0.3401   40.9653 O   0  0  0  0  0  0  0  0  0  0  0  0
   11.8506   -1.2352   40.0518 C   0  0  1  0  0  0  0  0  0  0  0  0
   11.8086   -2.3168   39.1910 O   0  0  0  0  0  0  0  0  0  0  0  0
   12.1792   -1.6723   41.4799 C   0  0  1  0  0  0  0  0  0  0  0  0
   13.1239   -2.6642   41.3920 O   0  0  0  0  0  0  0  0  0  0  0  0
   12.8159   -0.4256   42.0143 C   0  0  2  0  0  0  0  0  0  0  0  0
   11.9019    0.3176   42.8789 N   0  0  0  0  0  0  0  0  0  0  0  0
   11.2146    1.4302   42.5597 C   0  0  0  0  0  0  0  0  0  0  0  0
   10.4731    1.8265   43.6225 N   0  0  0  0  0  0  0  0  0  0  0  0
   10.6805    0.9662   44.6368 C   0  0  0  0  0  0  0  0  0  0  0  0
   10.1785    0.9112   45.9221 C   0  0  0  0  0  0  0  0  0  0  0  0
    9.2658    1.8565   46.4295 N   0  0  0  0  0  0  0  0  0  0  0  0
   10.6038   -0.1064   46.6955 N   0  0  0  0  0  0  0  0  0  0  0  0
   11.4764   -1.0416   46.2651 C   0  0  0  0  0  0  0  0  0  0  0  0
   11.9424   -0.9535   45.0073 N   0  0  0  0  0  0  0  0  0  0  0  0
   11.5796    0.0262   44.1521 C   0  0  0  0  0  0  0  0  0  0  0  0
  1  2  1  6
  1  3  2  0
  1  4  1  0
  8  1  1  0
  5  6  1  6
  5  7  2  0
  5  8  1  0
  5  9  1  0
  9 10  1  0
 11 10  1  6
 11 12  1  0
 11 13  1  0
 12 17  1  0
 13 14  1  6
 13 15  1  0
 15 16  1  6
 15 17  1  0
 17 18  1  6
 18 19  1  0
 18 27  1  0
 19 20  2  0
 20 21  1  0
 21 22  1  0
 21 27  2  0
 22 23  1  0
 22 24  2  0
 24 25  1  0
 25 26  2  0
 26 27  1  0
M  END
$$$$
