
     RDKit          3D

 27 29  0  0  0  0  0  0  0  0999 V2000
   27.0584    5.1492   20.9317 P   0  0  1  0  0  5  0  0  0  0  0  0
   26.5296    5.3106   22.5302 O   0  0  0  0  0  0  0  0  0  0  0  0
   27.6327    3.7671   20.7043 O   0  0  0  0  0  0  0  0  0  0  0  0
   25.7124    5.3863   19.9276 O   0  0  0  0  0  0  0  0  0  0  0  0
   28.2559    6.6575   18.9804 P   0  0  1  0  0  5  0  0  0  0  0  0
   26.7370    7.0545   18.3753 O   0  0  0  0  0  0  0  0  0  0  0  0
   29.2149    7.7915   18.6988 O   0  0  0  0  0  0  0  0  0  0  0  0
   28.2043    6.3601   20.6458 O   0  0  0  0  0  0  0  0  0  0  0  0
   28.8419    5.2542   18.2372 O   0  0  0  0  0  0  0  0  0  0  0  0
   27.8257    4.7457   17.4333 C   0  0  0  0  0  0  0  0  0  0  0  0
   28.2923    3.5498   16.6694 C   0  0  1  0  0  0  0  0  0  0  0  0
   28.9684    3.9274   15.5299 O   0  0  0  0  0  0  0  0  0  0  0  0
   29.3630    2.8398   17.5075 C   0  0  1  0  0  0  0  0  0  0  0  0
   28.7874    2.0177   18.4590 O   0  0  0  0  0  0  0  0  0  0  0  0
   30.0130    2.0260   16.3879 C   0  0  1  0  0  0  0  0  0  0  0  0
   29.1883    0.9591   16.1322 O   0  0  0  0  0  0  0  0  0  0  0  0
   29.9326    2.9997   15.2517 C   0  0  2  0  0  0  0  0  0  0  0  0
   31.2233    3.6350   14.9948 N   0  0  0  0  0  0  0  0  0  0  0  0
   31.8177    4.5848   15.7408 C   0  0  0  0  0  0  0  0  0  0  0  0
   33.0049    4.9241   15.1823 N   0  0  0  0  0  0  0  0  0  0  0  0
   33.1815    4.1903   14.0677 C   0  0  0  0  0  0  0  0  0  0  0  0
   34.2047    4.1443   13.1413 C   0  0  0  0  0  0  0  0  0  0  0  0
   35.3553    4.9520   13.2297 N   0  0  0  0  0  0  0  0  0  0  0  0
   34.0601    3.2760   12.1217 N   0  0  0  0  0  0  0  0  0  0  0  0
   32.9811    2.4772   11.9842 C   0  0  0  0  0  0  0  0  0  0  0  0
   32.0063    2.5514   12.9068 N   0  0  0  0  0  0  0  0  0  0  0  0
   32.0538    3.3873   13.9660 C   0  0  0  0  0  0  0  0  0  0  0  0
  1  2  1  1
  1  3  2  0
  1  4  1  0
  8  1  1  0
  5  6  1  6
  5  7  2  0
  5  8  1  0
  5  9  1  0
  9 10  1  0
 11 10  1  1
 11 12  1  0
 11 13  1  0
 12 17  1  0
 13 14  1  1
 13 15  1  0
 15 16  1  6
 15 17  1  0
 17 18  1  1
 18 19  1  0
 18 27  1  0
 19 20  2  0
 20 21  1  0
 21 22  1  0
 21 27  2  0
 22 23  1  0
 22 24  2  0
 24 25  1  0
 25 26  2  0
 26 27  1  0
M  END
$$$$
