
     RDKit          3D

 39 43  0  0  0  0  0  0  0  0999 V2000
    5.6491    2.9020   -8.4612 C   0  0  0  0  0  0  0  0  0  0  0  0
    4.5781    2.4992   -9.4540 C   0  0  2  0  0  0  0  0  0  0  0  0
    5.0464    2.7290  -10.8833 C   0  0  0  0  0  0  0  0  0  0  0  0
    3.3146    3.1920   -9.1656 C   0  0  0  0  0  0  0  0  0  0  0  0
    3.3269    4.5917   -9.2016 C   0  0  0  0  0  0  0  0  0  0  0  0
    2.1848    5.3405   -8.9447 C   0  0  0  0  0  0  0  0  0  0  0  0
    1.0123    4.6821   -8.6471 C   0  0  0  0  0  0  0  0  0  0  0  0
    1.0046    3.2907   -8.6124 C   0  0  0  0  0  0  0  0  0  0  0  0
    2.1365    2.5588   -8.8673 C   0  0  0  0  0  0  0  0  0  0  0  0
    2.0881    1.1546   -8.8217 N   0  0  0  0  0  0  0  0  0  0  0  0
    2.4569    0.4306   -7.7442 C   0  0  0  0  0  0  0  0  0  0  0  0
    2.9137    1.0901   -6.6128 C   0  0  0  0  0  0  0  0  0  0  0  0
    1.6483    0.5049   -9.9152 C   0  0  0  0  0  0  0  0  0  0  0  0
    1.2837    1.1309  -10.9695 O   0  0  0  0  0  0  0  0  0  0  0  0
    1.5755   -0.8360   -9.9389 N   0  0  0  0  0  0  0  0  0  0  0  0
    1.9309   -1.6180   -8.8894 C   0  0  0  0  0  0  0  0  0  0  0  0
    1.8354   -3.0255   -8.9430 N   0  0  0  0  0  0  0  0  0  0  0  0
    1.2749   -3.8070  -10.0110 C   0  0  0  0  0  0  0  0  0  0  0  0
    0.5381   -5.0172   -9.5701 C   0  0  0  0  0  0  0  0  0  0  0  0
    2.3509   -3.7897   -7.8112 C   0  0  0  0  0  0  0  0  0  0  0  0
    1.1239   -4.3986   -7.1683 C   0  0  0  0  0  0  0  0  0  0  0  0
    0.4418   -5.2182   -8.1443 N   0  0  0  0  0  0  0  0  0  0  0  0
   -0.3628   -6.2762   -7.6793 C   0  0  0  0  0  0  0  0  0  0  0  0
   -0.2322   -6.7045   -6.5166 O   0  0  0  0  0  0  0  0  0  0  0  0
   -1.3707   -6.8917   -8.5637 C   0  0  0  0  0  0  0  0  0  0  0  0
   -2.7114   -6.8399   -7.8287 C   0  0  0  0  0  0  0  0  0  0  0  0
    2.3842   -0.9673   -7.7613 C   0  0  0  0  0  0  0  0  0  0  0  0
    2.7771   -1.6578   -6.6301 C   0  0  0  0  0  0  0  0  0  0  0  0
    3.2307   -0.9593   -5.5121 C   0  0  0  0  0  0  0  0  0  0  0  0
    3.7050   -1.9409   -4.1256 Cl  0  0  0  0  0  0  0  0  0  0  0  0
    3.3078    0.4161   -5.4801 C   0  0  0  0  0  0  0  0  0  0  0  0
    3.7846    1.1112   -4.2953 C   0  0  0  0  0  0  0  0  0  0  0  0
    5.0535    0.9331   -3.7872 C   0  0  0  0  0  0  0  0  0  0  0  0
    5.9041    0.0741   -4.4109 F   0  0  0  0  0  0  0  0  0  0  0  0
    5.4640    1.6210   -2.6510 C   0  0  0  0  0  0  0  0  0  0  0  0
    4.6125    2.4952   -2.0086 C   0  0  0  0  0  0  0  0  0  0  0  0
    3.3285    2.6864   -2.5085 C   0  0  0  0  0  0  0  0  0  0  0  0
    2.9494    1.9913   -3.6356 C   0  0  0  0  0  0  0  0  0  0  0  0
    1.6587    2.1861   -4.1347 O   0  0  0  0  0  0  0  0  0  0  0  0
  2  1  1  1
  2  3  1  0
  2  4  1  0
  4  5  2  0
  4  9  1  0
  5  6  1  0
  6  7  2  0
  7  8  1  0
  8  9  2  0
  9 10  1  0
 10 11  1  0
 10 13  1  0
 11 12  2  0
 11 27  1  0
 12 31  1  0
 13 14  2  0
 13 15  1  0
 15 16  2  0
 16 17  1  0
 16 27  1  0
 17 18  1  0
 17 20  1  0
 18 19  1  0
 19 22  1  0
 20 21  1  0
 21 22  1  0
 22 23  1  0
 23 24  2  0
 23 25  1  0
 25 26  1  0
 27 28  2  0
 28 29  1  0
 29 30  1  0
 29 31  2  0
 31 32  1  0
 32 33  2  0
 32 38  1  0
 33 34  1  0
 33 35  1  0
 35 36  2  0
 36 37  1  0
 37 38  2  0
 38 39  1  0
M  END
$$$$
