
     RDKit          3D

 39 43  0  0  0  0  0  0  0  0999 V2000
    5.0268   -0.8838   -4.6846 C   0  0  0  0  0  0  0  0  0  0  0  0
    4.4851    0.0218   -5.7716 C   0  0  2  0  0  0  0  0  0  0  0  0
    5.4630    1.1455   -6.0816 C   0  0  0  0  0  0  0  0  0  0  0  0
    3.1535    0.5282   -5.4111 C   0  0  0  0  0  0  0  0  0  0  0  0
    3.0564    1.3143   -4.2566 C   0  0  0  0  0  0  0  0  0  0  0  0
    1.8435    1.8417   -3.8301 C   0  0  0  0  0  0  0  0  0  0  0  0
    0.7100    1.5803   -4.5675 C   0  0  0  0  0  0  0  0  0  0  0  0
    0.8112    0.7984   -5.7145 C   0  0  0  0  0  0  0  0  0  0  0  0
    2.0124    0.2815   -6.1286 C   0  0  0  0  0  0  0  0  0  0  0  0
    2.0732   -0.5046   -7.2926 N   0  0  0  0  0  0  0  0  0  0  0  0
    2.3515   -0.0059   -8.5152 C   0  0  0  0  0  0  0  0  0  0  0  0
    2.5903    1.3537   -8.6506 C   0  0  0  0  0  0  0  0  0  0  0  0
    1.8411   -1.8248   -7.1723 C   0  0  0  0  0  0  0  0  0  0  0  0
    1.5715   -2.3612   -6.0427 O   0  0  0  0  0  0  0  0  0  0  0  0
    1.8846   -2.6337   -8.2436 N   0  0  0  0  0  0  0  0  0  0  0  0
    2.1586   -2.1932   -9.4966 C   0  0  0  0  0  0  0  0  0  0  0  0
    2.2046   -3.0707  -10.6015 N   0  0  0  0  0  0  0  0  0  0  0  0
    2.0578   -2.7146  -11.9861 C   0  0  0  0  0  0  0  0  0  0  0  0
    1.3297   -3.7134  -12.8071 C   0  0  0  0  0  0  0  0  0  0  0  0
    2.4220   -4.4901  -10.3393 C   0  0  0  0  0  0  0  0  0  0  0  0
    1.1159   -5.1547  -10.7164 C   0  0  0  0  0  0  0  0  0  0  0  0
    0.8295   -4.8703  -12.1043 N   0  0  0  0  0  0  0  0  0  0  0  0
    0.0166   -5.7744  -12.8149 C   0  0  0  0  0  0  0  0  0  0  0  0
   -0.5806   -5.4101  -13.8459 O   0  0  0  0  0  0  0  0  0  0  0  0
   -0.1386   -7.1650  -12.3469 C   0  0  0  0  0  0  0  0  0  0  0  0
    0.3151   -8.0802  -13.4857 C   0  0  0  0  0  0  0  0  0  0  0  0
    2.3984   -0.8425   -9.6366 C   0  0  0  0  0  0  0  0  0  0  0  0
    2.6860   -0.2768  -10.8646 C   0  0  0  0  0  0  0  0  0  0  0  0
    2.9202    1.0941  -10.9605 C   0  0  0  0  0  0  0  0  0  0  0  0
    3.2784    1.7075  -12.5750 Cl  0  0  0  0  0  0  0  0  0  0  0  0
    2.8778    1.9303   -9.8662 C   0  0  0  0  0  0  0  0  0  0  0  0
    3.1290    3.3558  -10.0037 C   0  0  0  0  0  0  0  0  0  0  0  0
    2.1215    4.2961   -9.9743 C   0  0  0  0  0  0  0  0  0  0  0  0
    0.8349    3.8860   -9.8104 F   0  0  0  0  0  0  0  0  0  0  0  0
    2.4117    5.6489  -10.1099 C   0  0  0  0  0  0  0  0  0  0  0  0
    3.7114    6.0792  -10.2764 C   0  0  0  0  0  0  0  0  0  0  0  0
    4.7399    5.1431  -10.3083 C   0  0  0  0  0  0  0  0  0  0  0  0
    4.4225    3.8097  -10.1715 C   0  0  0  0  0  0  0  0  0  0  0  0
    5.4586    2.8724  -10.2041 O   0  0  0  0  0  0  0  0  0  0  0  0
  2  1  1  1
  2  3  1  0
  2  4  1  0
  4  5  2  0
  4  9  1  0
  5  6  1  0
  6  7  2  0
  7  8  1  0
  8  9  2  0
  9 10  1  0
 10 11  1  0
 10 13  1  0
 11 12  2  0
 11 27  1  0
 12 31  1  0
 13 14  2  0
 13 15  1  0
 15 16  2  0
 16 17  1  0
 16 27  1  0
 17 18  1  0
 17 20  1  0
 18 19  1  0
 19 22  1  0
 20 21  1  0
 21 22  1  0
 22 23  1  0
 23 24  2  0
 23 25  1  0
 25 26  1  0
 27 28  2  0
 28 29  1  0
 29 30  1  0
 29 31  2  0
 31 32  1  0
 32 33  2  0
 32 38  1  0
 33 34  1  0
 33 35  1  0
 35 36  2  0
 36 37  1  0
 37 38  2  0
 38 39  1  0
M  END
$$$$
