
     RDKit          3D

 39 43  0  0  0  0  0  0  0  0999 V2000
   -0.0930    1.0548   -3.3463 C   0  0  0  0  0  0  0  0  0  0  0  0
    0.9680    1.5742   -4.2948 C   0  0  2  0  0  0  0  0  0  0  0  0
    2.1686    2.1094   -3.5285 C   0  0  0  0  0  0  0  0  0  0  0  0
    0.4023    2.5752   -5.2101 C   0  0  0  0  0  0  0  0  0  0  0  0
    0.0907    3.8310   -4.6751 C   0  0  0  0  0  0  0  0  0  0  0  0
   -0.4475    4.8464   -5.4565 C   0  0  0  0  0  0  0  0  0  0  0  0
   -0.6781    4.6045   -6.7926 C   0  0  0  0  0  0  0  0  0  0  0  0
   -0.3667    3.3547   -7.3202 C   0  0  0  0  0  0  0  0  0  0  0  0
    0.1642    2.3576   -6.5419 C   0  0  0  0  0  0  0  0  0  0  0  0
    0.4645    1.1082   -7.1121 N   0  0  0  0  0  0  0  0  0  0  0  0
    1.6495    0.8172   -7.6884 C   0  0  0  0  0  0  0  0  0  0  0  0
    2.6353    1.7919   -7.7324 C   0  0  0  0  0  0  0  0  0  0  0  0
   -0.4860    0.1562   -7.0764 C   0  0  0  0  0  0  0  0  0  0  0  0
   -1.6307    0.3667   -6.5454 O   0  0  0  0  0  0  0  0  0  0  0  0
   -0.2651   -1.0601   -7.6015 N   0  0  0  0  0  0  0  0  0  0  0  0
    0.9032   -1.4128   -8.1931 C   0  0  0  0  0  0  0  0  0  0  0  0
    1.1073   -2.7028   -8.7291 N   0  0  0  0  0  0  0  0  0  0  0  0
    0.0990   -3.6946   -8.9846 C   0  0  0  0  0  0  0  0  0  0  0  0
    0.5268   -5.0915   -8.7250 C   0  0  0  0  0  0  0  0  0  0  0  0
    2.4720   -3.0951   -9.0671 C   0  0  0  0  0  0  0  0  0  0  0  0
    2.8164   -4.1824   -8.0727 C   0  0  0  0  0  0  0  0  0  0  0  0
    1.8641   -5.2612   -8.2099 N   0  0  0  0  0  0  0  0  0  0  0  0
    2.2629   -6.5544   -7.8208 C   0  0  0  0  0  0  0  0  0  0  0  0
    3.3511   -6.7314   -7.2404 O   0  0  0  0  0  0  0  0  0  0  0  0
    1.3970   -7.7169   -8.0961 C   0  0  0  0  0  0  0  0  0  0  0  0
    2.0278   -8.4875   -9.2574 C   0  0  0  0  0  0  0  0  0  0  0  0
    1.8874   -0.4480   -8.2382 C   0  0  0  0  0  0  0  0  0  0  0  0
    3.1189   -0.6896   -8.8177 C   0  0  0  0  0  0  0  0  0  0  0  0
    4.0844    0.3156   -8.8427 C   0  0  0  0  0  0  0  0  0  0  0  0
    5.6184   -0.1030   -9.6060 Cl  0  0  0  0  0  0  0  0  0  0  0  0
    3.8653    1.5655   -8.3058 C   0  0  0  0  0  0  0  0  0  0  0  0
    4.8968    2.5894   -8.3486 C   0  0  0  0  0  0  0  0  0  0  0  0
    6.1040    2.4585   -7.6962 C   0  0  0  0  0  0  0  0  0  0  0  0
    6.3526    1.3293   -6.9796 F   0  0  0  0  0  0  0  0  0  0  0  0
    7.0597    3.4656   -7.7670 C   0  0  0  0  0  0  0  0  0  0  0  0
    6.8215    4.6156   -8.4901 C   0  0  0  0  0  0  0  0  0  0  0  0
    5.6082    4.7635   -9.1543 C   0  0  0  0  0  0  0  0  0  0  0  0
    4.6803    3.7493   -9.0662 C   0  0  0  0  0  0  0  0  0  0  0  0
    3.4626    3.9017   -9.7349 O   0  0  0  0  0  0  0  0  0  0  0  0
  2  1  1  1
  2  3  1  0
  2  4  1  0
  4  5  2  0
  4  9  1  0
  5  6  1  0
  6  7  2  0
  7  8  1  0
  8  9  2  0
  9 10  1  0
 10 11  1  0
 10 13  1  0
 11 12  2  0
 11 27  1  0
 12 31  1  0
 13 14  2  0
 13 15  1  0
 15 16  2  0
 16 17  1  0
 16 27  1  0
 17 18  1  0
 17 20  1  0
 18 19  1  0
 19 22  1  0
 20 21  1  0
 21 22  1  0
 22 23  1  0
 23 24  2  0
 23 25  1  0
 25 26  1  0
 27 28  2  0
 28 29  1  0
 29 30  1  0
 29 31  2  0
 31 32  1  0
 32 33  2  0
 32 38  1  0
 33 34  1  0
 33 35  1  0
 35 36  2  0
 36 37  1  0
 37 38  2  0
 38 39  1  0
M  END
$$$$
