
     RDKit          3D

 39 43  0  0  0  0  0  0  0  0999 V2000
   -1.0645    1.2186   -4.3756 C   0  0  0  0  0  0  0  0  0  0  0  0
    0.1918    1.3884   -5.2051 C   0  0  2  0  0  0  0  0  0  0  0  0
    1.3351    1.9268   -4.3578 C   0  0  0  0  0  0  0  0  0  0  0  0
   -0.0714    2.2292   -6.3813 C   0  0  0  0  0  0  0  0  0  0  0  0
   -0.4553    3.5556   -6.1496 C   0  0  0  0  0  0  0  0  0  0  0  0
   -0.7261    4.4321   -7.1934 C   0  0  0  0  0  0  0  0  0  0  0  0
   -0.6119    3.9777   -8.4885 C   0  0  0  0  0  0  0  0  0  0  0  0
   -0.2300    2.6584   -8.7142 C   0  0  0  0  0  0  0  0  0  0  0  0
    0.0355    1.7995   -7.6781 C   0  0  0  0  0  0  0  0  0  0  0  0
    0.4179    0.4737   -7.9473 N   0  0  0  0  0  0  0  0  0  0  0  0
    1.6989    0.0891   -8.1265 C   0  0  0  0  0  0  0  0  0  0  0  0
    2.7057    1.0397   -8.0473 C   0  0  0  0  0  0  0  0  0  0  0  0
   -0.5518   -0.4561   -8.0282 C   0  0  0  0  0  0  0  0  0  0  0  0
   -1.7856   -0.1582   -7.8687 O   0  0  0  0  0  0  0  0  0  0  0  0
   -0.2562   -1.7416   -8.2813 N   0  0  0  0  0  0  0  0  0  0  0  0
    1.0098   -2.1895   -8.4702 C   0  0  0  0  0  0  0  0  0  0  0  0
    1.2885   -3.5494   -8.7271 N   0  0  0  0  0  0  0  0  0  0  0  0
    0.3694   -4.5328   -9.2308 C   0  0  0  0  0  0  0  0  0  0  0  0
    0.5447   -5.8915   -8.6607 C   0  0  0  0  0  0  0  0  0  0  0  0
    2.6403   -4.0325   -8.4627 C   0  0  0  0  0  0  0  0  0  0  0  0
    2.4882   -4.9763   -7.2898 C   0  0  0  0  0  0  0  0  0  0  0  0
    1.5686   -6.0306   -7.6533 N   0  0  0  0  0  0  0  0  0  0  0  0
    1.6773   -7.2672   -6.9884 C   0  0  0  0  0  0  0  0  0  0  0  0
    0.7901   -8.1326   -7.1161 O   0  0  0  0  0  0  0  0  0  0  0  0
    2.8435   -7.5536   -6.1312 C   0  0  0  0  0  0  0  0  0  0  0  0
    3.3723   -8.9324   -6.5304 C   0  0  0  0  0  0  0  0  0  0  0  0
    2.0149   -1.2488   -8.3910 C   0  0  0  0  0  0  0  0  0  0  0  0
    3.3439   -1.5855   -8.5681 C   0  0  0  0  0  0  0  0  0  0  0  0
    4.3276   -0.6016   -8.4810 C   0  0  0  0  0  0  0  0  0  0  0  0
    5.9885   -1.1436   -8.7230 Cl  0  0  0  0  0  0  0  0  0  0  0  0
    4.0323    0.7190   -8.2213 C   0  0  0  0  0  0  0  0  0  0  0  0
    5.0851    1.7183   -8.1359 C   0  0  0  0  0  0  0  0  0  0  0  0
    6.0078    1.7427   -7.1122 C   0  0  0  0  0  0  0  0  0  0  0  0
    5.9412    0.7984   -6.1354 F   0  0  0  0  0  0  0  0  0  0  0  0
    6.9970    2.7188   -7.0740 C   0  0  0  0  0  0  0  0  0  0  0  0
    7.0768    3.6822   -8.0576 C   0  0  0  0  0  0  0  0  0  0  0  0
    6.1533    3.6717   -9.0978 C   0  0  0  0  0  0  0  0  0  0  0  0
    5.1844    2.6927   -9.1096 C   0  0  0  0  0  0  0  0  0  0  0  0
    4.2583    2.6855  -10.1562 O   0  0  0  0  0  0  0  0  0  0  0  0
  2  1  1  1
  2  3  1  0
  2  4  1  0
  4  5  2  0
  4  9  1  0
  5  6  1  0
  6  7  2  0
  7  8  1  0
  8  9  2  0
  9 10  1  0
 10 11  1  0
 10 13  1  0
 11 12  2  0
 11 27  1  0
 12 31  1  0
 13 14  2  0
 13 15  1  0
 15 16  2  0
 16 17  1  0
 16 27  1  0
 17 18  1  0
 17 20  1  0
 18 19  1  0
 19 22  1  0
 20 21  1  0
 21 22  1  0
 22 23  1  0
 23 24  2  0
 23 25  1  0
 25 26  1  0
 27 28  2  0
 28 29  1  0
 29 30  1  0
 29 31  2  0
 31 32  1  0
 32 33  2  0
 32 38  1  0
 33 34  1  0
 33 35  1  0
 35 36  2  0
 36 37  1  0
 37 38  2  0
 38 39  1  0
M  END
$$$$
