
     RDKit          3D

 39 43  0  0  0  0  0  0  0  0999 V2000
    5.9582    2.8547   -8.3843 C   0  0  0  0  0  0  0  0  0  0  0  0
    4.8575    2.5042   -9.3646 C   0  0  2  0  0  0  0  0  0  0  0  0
    5.3250    2.6966  -10.7997 C   0  0  0  0  0  0  0  0  0  0  0  0
    3.6370    3.2681   -9.0710 C   0  0  0  0  0  0  0  0  0  0  0  0
    3.7445    4.6638   -9.0412 C   0  0  0  0  0  0  0  0  0  0  0  0
    2.6496    5.4767   -8.7738 C   0  0  0  0  0  0  0  0  0  0  0  0
    1.4284    4.8873   -8.5324 C   0  0  0  0  0  0  0  0  0  0  0  0
    1.3261    3.4996   -8.5631 C   0  0  0  0  0  0  0  0  0  0  0  0
    2.4119    2.7042   -8.8278 C   0  0  0  0  0  0  0  0  0  0  0  0
    2.2679    1.3060   -8.8490 N   0  0  0  0  0  0  0  0  0  0  0  0
    2.5253    0.5139   -7.7873 C   0  0  0  0  0  0  0  0  0  0  0  0
    2.9591    1.0924   -6.6038 C   0  0  0  0  0  0  0  0  0  0  0  0
    1.8494    0.7345   -9.9934 C   0  0  0  0  0  0  0  0  0  0  0  0
    1.5883    1.4277  -11.0363 O   0  0  0  0  0  0  0  0  0  0  0  0
    1.6892   -0.5961  -10.0822 N   0  0  0  0  0  0  0  0  0  0  0  0
    1.9310   -1.4439   -9.0517 C   0  0  0  0  0  0  0  0  0  0  0  0
    1.7455   -2.8380   -9.1746 N   0  0  0  0  0  0  0  0  0  0  0  0
    0.9855   -3.5159  -10.1887 C   0  0  0  0  0  0  0  0  0  0  0  0
    0.2532   -4.7157   -9.7134 C   0  0  0  0  0  0  0  0  0  0  0  0
    2.3791   -3.7024   -8.1837 C   0  0  0  0  0  0  0  0  0  0  0  0
    1.2289   -4.2928   -7.3976 C   0  0  0  0  0  0  0  0  0  0  0  0
    0.3606   -5.0089   -8.3045 N   0  0  0  0  0  0  0  0  0  0  0  0
   -0.4260   -6.0554   -7.7858 C   0  0  0  0  0  0  0  0  0  0  0  0
   -0.1796   -6.5327   -6.6616 O   0  0  0  0  0  0  0  0  0  0  0  0
   -1.5523   -6.6006   -8.5676 C   0  0  0  0  0  0  0  0  0  0  0  0
   -2.8367   -6.2661   -7.8069 C   0  0  0  0  0  0  0  0  0  0  0  0
    2.3610   -0.8738   -7.8721 C   0  0  0  0  0  0  0  0  0  0  0  0
    2.6416   -1.6364   -6.7538 C   0  0  0  0  0  0  0  0  0  0  0  0
    3.0756   -1.0182   -5.5821 C   0  0  0  0  0  0  0  0  0  0  0  0
    3.4032   -2.0874   -4.2181 Cl  0  0  0  0  0  0  0  0  0  0  0  0
    3.2419    0.3460   -5.4832 C   0  0  0  0  0  0  0  0  0  0  0  0
    3.6950    0.9565   -4.2437 C   0  0  0  0  0  0  0  0  0  0  0  0
    4.9947    0.8563   -3.7956 C   0  0  0  0  0  0  0  0  0  0  0  0
    5.9001    0.1602   -4.5344 F   0  0  0  0  0  0  0  0  0  0  0  0
    5.3806    1.4580   -2.6032 C   0  0  0  0  0  0  0  0  0  0  0  0
    4.4735    2.1671   -1.8440 C   0  0  0  0  0  0  0  0  0  0  0  0
    3.1579    2.2778   -2.2822 C   0  0  0  0  0  0  0  0  0  0  0  0
    2.8042    1.6712   -3.4672 C   0  0  0  0  0  0  0  0  0  0  0  0
    1.4816    1.7847   -3.9040 O   0  0  0  0  0  0  0  0  0  0  0  0
  2  1  1  1
  2  3  1  0
  2  4  1  0
  4  5  2  0
  4  9  1  0
  5  6  1  0
  6  7  2  0
  7  8  1  0
  8  9  2  0
  9 10  1  0
 10 11  1  0
 10 13  1  0
 11 12  2  0
 11 27  1  0
 12 31  1  0
 13 14  2  0
 13 15  1  0
 15 16  2  0
 16 17  1  0
 16 27  1  0
 17 18  1  0
 17 20  1  0
 18 19  1  0
 19 22  1  0
 20 21  1  0
 21 22  1  0
 22 23  1  0
 23 24  2  0
 23 25  1  0
 25 26  1  0
 27 28  2  0
 28 29  1  0
 29 30  1  0
 29 31  2  0
 31 32  1  0
 32 33  2  0
 32 38  1  0
 33 34  1  0
 33 35  1  0
 35 36  2  0
 36 37  1  0
 37 38  2  0
 38 39  1  0
M  END
$$$$
