
     RDKit          3D

 39 43  0  0  0  0  0  0  0  0999 V2000
    2.7775    4.1975   -9.5157 C   0  0  0  0  0  0  0  0  0  0  0  0
    2.8852    3.6715   -8.0991 C   0  0  2  0  0  0  0  0  0  0  0  0
    2.3879    4.7022   -7.0963 C   0  0  0  0  0  0  0  0  0  0  0  0
    4.2578    3.2330   -7.8102 C   0  0  0  0  0  0  0  0  0  0  0  0
    5.2375    4.2261   -7.6907 C   0  0  0  0  0  0  0  0  0  0  0  0
    6.5644    3.9162   -7.4182 C   0  0  0  0  0  0  0  0  0  0  0  0
    6.9189    2.5945   -7.2623 C   0  0  0  0  0  0  0  0  0  0  0  0
    5.9417    1.6105   -7.3818 C   0  0  0  0  0  0  0  0  0  0  0  0
    4.6339    1.9250   -7.6511 C   0  0  0  0  0  0  0  0  0  0  0  0
    3.6764    0.9020   -7.7651 N   0  0  0  0  0  0  0  0  0  0  0  0
    3.3346    0.3281   -8.9376 C   0  0  0  0  0  0  0  0  0  0  0  0
    3.9485    0.7599  -10.1040 C   0  0  0  0  0  0  0  0  0  0  0  0
    3.0733    0.4772   -6.6394 C   0  0  0  0  0  0  0  0  0  0  0  0
    3.3511    0.9790   -5.4959 O   0  0  0  0  0  0  0  0  0  0  0  0
    2.1501   -0.4976   -6.6764 N   0  0  0  0  0  0  0  0  0  0  0  0
    1.7647   -1.1126   -7.8220 C   0  0  0  0  0  0  0  0  0  0  0  0
    0.7965   -2.1401   -7.8267 N   0  0  0  0  0  0  0  0  0  0  0  0
   -0.1118   -2.4673   -6.7621 C   0  0  0  0  0  0  0  0  0  0  0  0
   -0.3807   -3.9180   -6.6036 C   0  0  0  0  0  0  0  0  0  0  0  0
    0.6855   -2.9700   -9.0224 C   0  0  0  0  0  0  0  0  0  0  0  0
    1.1641   -4.3376   -8.5863 C   0  0  0  0  0  0  0  0  0  0  0  0
    0.3348   -4.7981   -7.4956 N   0  0  0  0  0  0  0  0  0  0  0  0
    0.2151   -6.1862   -7.2907 C   0  0  0  0  0  0  0  0  0  0  0  0
   -0.1808   -6.6307   -6.1962 O   0  0  0  0  0  0  0  0  0  0  0  0
    0.5577   -7.1322   -8.3699 C   0  0  0  0  0  0  0  0  0  0  0  0
   -0.7500   -7.7618   -8.8533 C   0  0  0  0  0  0  0  0  0  0  0  0
    2.3731   -0.6883   -8.9844 C   0  0  0  0  0  0  0  0  0  0  0  0
    2.0607   -1.2386  -10.2134 C   0  0  0  0  0  0  0  0  0  0  0  0
    2.6994   -0.7779  -11.3637 C   0  0  0  0  0  0  0  0  0  0  0  0
    2.2240   -1.5514  -12.8759 Cl  0  0  0  0  0  0  0  0  0  0  0  0
    3.6476    0.2213  -11.3337 C   0  0  0  0  0  0  0  0  0  0  0  0
    4.2946    0.6757  -12.5540 C   0  0  0  0  0  0  0  0  0  0  0  0
    4.0558    1.9157  -13.1067 C   0  0  0  0  0  0  0  0  0  0  0  0
    3.1808    2.7582  -12.4944 F   0  0  0  0  0  0  0  0  0  0  0  0
    4.6992    2.3055  -14.2757 C   0  0  0  0  0  0  0  0  0  0  0  0
    5.5890    1.4618  -14.9070 C   0  0  0  0  0  0  0  0  0  0  0  0
    5.8412    0.2069  -14.3624 C   0  0  0  0  0  0  0  0  0  0  0  0
    5.1892   -0.1522  -13.2035 C   0  0  0  0  0  0  0  0  0  0  0  0
    5.4452   -1.4137  -12.6595 O   0  0  0  0  0  0  0  0  0  0  0  0
  2  1  1  6
  2  3  1  0
  2  4  1  0
  4  5  2  0
  4  9  1  0
  5  6  1  0
  6  7  2  0
  7  8  1  0
  8  9  2  0
  9 10  1  0
 10 11  1  0
 10 13  1  0
 11 12  2  0
 11 27  1  0
 12 31  1  0
 13 14  2  0
 13 15  1  0
 15 16  2  0
 16 17  1  0
 16 27  1  0
 17 18  1  0
 17 20  1  0
 18 19  1  0
 19 22  1  0
 20 21  1  0
 21 22  1  0
 22 23  1  0
 23 24  2  0
 23 25  1  0
 25 26  1  0
 27 28  2  0
 28 29  1  0
 29 30  1  0
 29 31  2  0
 31 32  1  0
 32 33  2  0
 32 38  1  0
 33 34  1  0
 33 35  1  0
 35 36  2  0
 36 37  1  0
 37 38  2  0
 38 39  1  0
M  END
$$$$
