
     RDKit          3D

 39 43  0  0  0  0  0  0  0  0999 V2000
   -1.3865    1.5204   -4.3892 C   0  0  0  0  0  0  0  0  0  0  0  0
   -0.0459    1.6770   -5.0773 C   0  0  2  0  0  0  0  0  0  0  0  0
    0.9891    2.2603   -4.1268 C   0  0  0  0  0  0  0  0  0  0  0  0
   -0.1817    2.4717   -6.3060 C   0  0  0  0  0  0  0  0  0  0  0  0
   -0.5789    3.8070   -6.1665 C   0  0  0  0  0  0  0  0  0  0  0  0
   -0.7357    4.6427   -7.2657 C   0  0  0  0  0  0  0  0  0  0  0  0
   -0.4920    4.1376   -8.5236 C   0  0  0  0  0  0  0  0  0  0  0  0
   -0.0973    2.8096   -8.6576 C   0  0  0  0  0  0  0  0  0  0  0  0
    0.0550    1.9913   -7.5673 C   0  0  0  0  0  0  0  0  0  0  0  0
    0.4546    0.6551   -7.7443 N   0  0  0  0  0  0  0  0  0  0  0  0
    1.7449    0.2648   -7.8055 C   0  0  0  0  0  0  0  0  0  0  0  0
    2.7444    1.2198   -7.6927 C   0  0  0  0  0  0  0  0  0  0  0  0
   -0.5076   -0.2791   -7.8569 C   0  0  0  0  0  0  0  0  0  0  0  0
   -1.7495    0.0237   -7.8076 O   0  0  0  0  0  0  0  0  0  0  0  0
   -0.1957   -1.5744   -8.0265 N   0  0  0  0  0  0  0  0  0  0  0  0
    1.0803   -2.0285   -8.0956 C   0  0  0  0  0  0  0  0  0  0  0  0
    1.3755   -3.3984   -8.2667 N   0  0  0  0  0  0  0  0  0  0  0  0
    0.4319   -4.4554   -8.5071 C   0  0  0  0  0  0  0  0  0  0  0  0
    0.7660   -5.7431   -7.8497 C   0  0  0  0  0  0  0  0  0  0  0  0
    2.7740   -3.8107   -8.1971 C   0  0  0  0  0  0  0  0  0  0  0  0
    2.8688   -4.6344   -6.9314 C   0  0  0  0  0  0  0  0  0  0  0  0
    1.9519   -5.7478   -7.0274 N   0  0  0  0  0  0  0  0  0  0  0  0
    2.2309   -6.9063   -6.2772 C   0  0  0  0  0  0  0  0  0  0  0  0
    3.2946   -7.0018   -5.6355 O   0  0  0  0  0  0  0  0  0  0  0  0
    1.2668   -8.0227   -6.2419 C   0  0  0  0  0  0  0  0  0  0  0  0
    2.0484   -9.3064   -6.5274 C   0  0  0  0  0  0  0  0  0  0  0  0
    2.0780   -1.0834   -7.9823 C   0  0  0  0  0  0  0  0  0  0  0  0
    3.4161   -1.4256   -8.0401 C   0  0  0  0  0  0  0  0  0  0  0  0
    4.3919   -0.4370   -7.9227 C   0  0  0  0  0  0  0  0  0  0  0  0
    6.0656   -0.9868   -8.0097 Cl  0  0  0  0  0  0  0  0  0  0  0  0
    4.0798    0.8937   -7.7482 C   0  0  0  0  0  0  0  0  0  0  0  0
    5.1248    1.8976   -7.6279 C   0  0  0  0  0  0  0  0  0  0  0  0
    5.5621    2.3756   -6.4112 C   0  0  0  0  0  0  0  0  0  0  0  0
    5.0009    1.8961   -5.2687 F   0  0  0  0  0  0  0  0  0  0  0  0
    6.5650    3.3362   -6.3472 C   0  0  0  0  0  0  0  0  0  0  0  0
    7.1433    3.8312   -7.4973 C   0  0  0  0  0  0  0  0  0  0  0  0
    6.7133    3.3594   -8.7332 C   0  0  0  0  0  0  0  0  0  0  0  0
    5.7181    2.4076   -8.7659 C   0  0  0  0  0  0  0  0  0  0  0  0
    5.2889    1.9362  -10.0095 O   0  0  0  0  0  0  0  0  0  0  0  0
  2  1  1  1
  2  3  1  0
  2  4  1  0
  4  5  2  0
  4  9  1  0
  5  6  1  0
  6  7  2  0
  7  8  1  0
  8  9  2  0
  9 10  1  0
 10 11  1  0
 10 13  1  0
 11 12  2  0
 11 27  1  0
 12 31  1  0
 13 14  2  0
 13 15  1  0
 15 16  2  0
 16 17  1  0
 16 27  1  0
 17 18  1  0
 17 20  1  0
 18 19  1  0
 19 22  1  0
 20 21  1  0
 21 22  1  0
 22 23  1  0
 23 24  2  0
 23 25  1  0
 25 26  1  0
 27 28  2  0
 28 29  1  0
 29 30  1  0
 29 31  2  0
 31 32  1  0
 32 33  2  0
 32 38  1  0
 33 34  1  0
 33 35  1  0
 35 36  2  0
 36 37  1  0
 37 38  2  0
 38 39  1  0
M  END
$$$$
