
     RDKit          3D

 39 43  0  0  0  0  0  0  0  0999 V2000
    6.1723   -1.2066  -11.6165 C   0  0  0  0  0  0  0  0  0  0  0  0
    4.7700   -1.6664  -11.9590 C   0  0  2  0  0  0  0  0  0  0  0  0
    4.8013   -2.8025  -12.9705 C   0  0  0  0  0  0  0  0  0  0  0  0
    3.9499   -0.5366  -12.4180 C   0  0  0  0  0  0  0  0  0  0  0  0
    4.3946    0.1629  -13.5465 C   0  0  0  0  0  0  0  0  0  0  0  0
    3.6911    1.2454  -14.0607 C   0  0  0  0  0  0  0  0  0  0  0  0
    2.5258    1.6357  -13.4390 C   0  0  0  0  0  0  0  0  0  0  0  0
    2.0875    0.9375  -12.3177 C   0  0  0  0  0  0  0  0  0  0  0  0
    2.7879   -0.1302  -11.8162 C   0  0  0  0  0  0  0  0  0  0  0  0
    2.3125   -0.8093  -10.6808 N   0  0  0  0  0  0  0  0  0  0  0  0
    2.5690   -0.4165   -9.4155 C   0  0  0  0  0  0  0  0  0  0  0  0
    3.3442    0.7141   -9.2045 C   0  0  0  0  0  0  0  0  0  0  0  0
    1.5610   -1.9087  -10.8747 C   0  0  0  0  0  0  0  0  0  0  0  0
    1.2809   -2.3349  -12.0480 O   0  0  0  0  0  0  0  0  0  0  0  0
    1.0736   -2.6042   -9.8342 N   0  0  0  0  0  0  0  0  0  0  0  0
    1.2961   -2.2605   -8.5413 C   0  0  0  0  0  0  0  0  0  0  0  0
    0.7630   -3.0084   -7.4692 N   0  0  0  0  0  0  0  0  0  0  0  0
    1.4796   -3.4923   -6.3212 C   0  0  0  0  0  0  0  0  0  0  0  0
    1.0416   -4.8243   -5.8359 C   0  0  0  0  0  0  0  0  0  0  0  0
   -0.6586   -3.3378   -7.5050 C   0  0  0  0  0  0  0  0  0  0  0  0
   -0.7003   -4.8383   -7.6959 C   0  0  0  0  0  0  0  0  0  0  0  0
    0.0021   -5.4692   -6.6014 N   0  0  0  0  0  0  0  0  0  0  0  0
   -0.3478   -6.7896   -6.2590 C   0  0  0  0  0  0  0  0  0  0  0  0
   -1.3403   -7.3345   -6.7790 O   0  0  0  0  0  0  0  0  0  0  0  0
    0.4564   -7.5446   -5.2792 C   0  0  0  0  0  0  0  0  0  0  0  0
    0.6927   -8.9384   -5.8640 C   0  0  0  0  0  0  0  0  0  0  0  0
    2.0649   -1.1363   -8.3258 C   0  0  0  0  0  0  0  0  0  0  0  0
    2.3613   -0.6893   -7.0517 C   0  0  0  0  0  0  0  0  0  0  0  0
    3.1439    0.4516   -6.8800 C   0  0  0  0  0  0  0  0  0  0  0  0
    3.4583    0.9311   -5.2120 Cl  0  0  0  0  0  0  0  0  0  0  0  0
    3.6470    1.1704   -7.9424 C   0  0  0  0  0  0  0  0  0  0  0  0
    4.4588    2.3571   -7.7252 C   0  0  0  0  0  0  0  0  0  0  0  0
    4.0018    3.6307   -7.9882 C   0  0  0  0  0  0  0  0  0  0  0  0
    2.7410    3.7974   -8.4709 F   0  0  0  0  0  0  0  0  0  0  0  0
    4.8157    4.7352   -7.7640 C   0  0  0  0  0  0  0  0  0  0  0  0
    6.0959    4.5812   -7.2745 C   0  0  0  0  0  0  0  0  0  0  0  0
    6.5725    3.3027   -7.0040 C   0  0  0  0  0  0  0  0  0  0  0  0
    5.7437    2.2272   -7.2359 C   0  0  0  0  0  0  0  0  0  0  0  0
    6.2262    0.9443   -6.9629 O   0  0  0  0  0  0  0  0  0  0  0  0
  2  1  1  6
  2  3  1  0
  2  4  1  0
  4  5  2  0
  4  9  1  0
  5  6  1  0
  6  7  2  0
  7  8  1  0
  8  9  2  0
  9 10  1  0
 10 11  1  0
 10 13  1  0
 11 12  2  0
 11 27  1  0
 12 31  1  0
 13 14  2  0
 13 15  1  0
 15 16  2  0
 16 17  1  0
 16 27  1  0
 17 18  1  0
 17 20  1  0
 18 19  1  0
 19 22  1  0
 20 21  1  0
 21 22  1  0
 22 23  1  0
 23 24  2  0
 23 25  1  0
 25 26  1  0
 27 28  2  0
 28 29  1  0
 29 30  1  0
 29 31  2  0
 31 32  1  0
 32 33  2  0
 32 38  1  0
 33 34  1  0
 33 35  1  0
 35 36  2  0
 36 37  1  0
 37 38  2  0
 38 39  1  0
M  END
$$$$
