
     RDKit          3D

 39 43  0  0  0  0  0  0  0  0999 V2000
    4.5578   -0.8562  -12.6724 C   0  0  0  0  0  0  0  0  0  0  0  0
    4.1874    0.0484  -11.5150 C   0  0  2  0  0  0  0  0  0  0  0  0
    3.9808    1.4800  -11.9873 C   0  0  0  0  0  0  0  0  0  0  0  0
    5.1877   -0.0436  -10.4423 C   0  0  0  0  0  0  0  0  0  0  0  0
    6.3952    0.6399  -10.6299 C   0  0  0  0  0  0  0  0  0  0  0  0
    7.4051    0.6170   -9.6756 C   0  0  0  0  0  0  0  0  0  0  0  0
    7.2066   -0.0991   -8.5161 C   0  0  0  0  0  0  0  0  0  0  0  0
    6.0047   -0.7769   -8.3337 C   0  0  0  0  0  0  0  0  0  0  0  0
    5.0128   -0.7493   -9.2808 C   0  0  0  0  0  0  0  0  0  0  0  0
    3.8130   -1.4479   -9.0596 N   0  0  0  0  0  0  0  0  0  0  0  0
    2.7227   -0.8947   -8.4885 C   0  0  0  0  0  0  0  0  0  0  0  0
    2.7709    0.4326   -8.0889 C   0  0  0  0  0  0  0  0  0  0  0  0
    3.7566   -2.7370   -9.4419 C   0  0  0  0  0  0  0  0  0  0  0  0
    4.7543   -3.3217   -9.9889 O   0  0  0  0  0  0  0  0  0  0  0  0
    2.6408   -3.4625   -9.2614 N   0  0  0  0  0  0  0  0  0  0  0  0
    1.5142   -2.9640   -8.6943 C   0  0  0  0  0  0  0  0  0  0  0  0
    0.3542   -3.7507   -8.5254 N   0  0  0  0  0  0  0  0  0  0  0  0
   -0.5528   -3.7130   -7.4112 C   0  0  0  0  0  0  0  0  0  0  0  0
   -1.1103   -5.0324   -7.0237 C   0  0  0  0  0  0  0  0  0  0  0  0
    0.0183   -4.7083   -9.5746 C   0  0  0  0  0  0  0  0  0  0  0  0
    0.2210   -6.0648   -8.9356 C   0  0  0  0  0  0  0  0  0  0  0  0
   -0.6352   -6.1687   -7.7757 N   0  0  0  0  0  0  0  0  0  0  0  0
   -1.0318   -7.4524   -7.3541 C   0  0  0  0  0  0  0  0  0  0  0  0
   -0.6252   -8.4668   -7.9523 O   0  0  0  0  0  0  0  0  0  0  0  0
   -1.9349   -7.6124   -6.1983 C   0  0  0  0  0  0  0  0  0  0  0  0
   -1.0714   -8.0095   -4.9995 C   0  0  0  0  0  0  0  0  0  0  0  0
    1.5561   -1.6443   -8.2967 C   0  0  0  0  0  0  0  0  0  0  0  0
    0.4704   -1.0267   -7.7045 C   0  0  0  0  0  0  0  0  0  0  0  0
    0.5572    0.3094   -7.3164 C   0  0  0  0  0  0  0  0  0  0  0  0
   -0.8874    0.9951   -6.5721 Cl  0  0  0  0  0  0  0  0  0  0  0  0
    1.6982    1.0601   -7.4986 C   0  0  0  0  0  0  0  0  0  0  0  0
    1.7521    2.4523   -7.0825 C   0  0  0  0  0  0  0  0  0  0  0  0
    0.9510    3.4272   -7.6374 C   0  0  0  0  0  0  0  0  0  0  0  0
    0.0697    3.0853   -8.6155 F   0  0  0  0  0  0  0  0  0  0  0  0
    1.0389    4.7458   -7.2059 C   0  0  0  0  0  0  0  0  0  0  0  0
    1.9276    5.1068   -6.2150 C   0  0  0  0  0  0  0  0  0  0  0  0
    2.7433    4.1351   -5.6445 C   0  0  0  0  0  0  0  0  0  0  0  0
    2.6344    2.8369   -6.0921 C   0  0  0  0  0  0  0  0  0  0  0  0
    3.4556    1.8636   -5.5166 O   0  0  0  0  0  0  0  0  0  0  0  0
  2  1  1  6
  2  3  1  0
  2  4  1  0
  4  5  2  0
  4  9  1  0
  5  6  1  0
  6  7  2  0
  7  8  1  0
  8  9  2  0
  9 10  1  0
 10 11  1  0
 10 13  1  0
 11 12  2  0
 11 27  1  0
 12 31  1  0
 13 14  2  0
 13 15  1  0
 15 16  2  0
 16 17  1  0
 16 27  1  0
 17 18  1  0
 17 20  1  0
 18 19  1  0
 19 22  1  0
 20 21  1  0
 21 22  1  0
 22 23  1  0
 23 24  2  0
 23 25  1  0
 25 26  1  0
 27 28  2  0
 28 29  1  0
 29 30  1  0
 29 31  2  0
 31 32  1  0
 32 33  2  0
 32 38  1  0
 33 34  1  0
 33 35  1  0
 35 36  2  0
 36 37  1  0
 37 38  2  0
 38 39  1  0
M  END
$$$$
