
     RDKit          3D

 39 43  0  0  0  0  0  0  0  0999 V2000
    5.8537    2.1721   -7.8808 C   0  0  0  0  0  0  0  0  0  0  0  0
    5.4029    2.2954   -9.3219 C   0  0  2  0  0  0  0  0  0  0  0  0
    6.4866    2.9327  -10.1788 C   0  0  0  0  0  0  0  0  0  0  0  0
    4.1283    3.0218   -9.4077 C   0  0  0  0  0  0  0  0  0  0  0  0
    4.1441    4.3860   -9.0926 C   0  0  0  0  0  0  0  0  0  0  0  0
    2.9927    5.1623   -9.1435 C   0  0  0  0  0  0  0  0  0  0  0  0
    1.8071    4.5678   -9.5147 C   0  0  0  0  0  0  0  0  0  0  0  0
    1.7960    3.2116   -9.8271 C   0  0  0  0  0  0  0  0  0  0  0  0
    2.9371    2.4521   -9.7743 C   0  0  0  0  0  0  0  0  0  0  0  0
    2.8846    1.0848  -10.0967 N   0  0  0  0  0  0  0  0  0  0  0  0
    2.6090    0.1170   -9.1976 C   0  0  0  0  0  0  0  0  0  0  0  0
    2.3647    0.4713   -7.8790 C   0  0  0  0  0  0  0  0  0  0  0  0
    3.1221    0.7303  -11.3730 C   0  0  0  0  0  0  0  0  0  0  0  0
    3.3895    1.5977  -12.2745 O   0  0  0  0  0  0  0  0  0  0  0  0
    3.0866   -0.5584  -11.7497 N   0  0  0  0  0  0  0  0  0  0  0  0
    2.8157   -1.5752  -10.8941 C   0  0  0  0  0  0  0  0  0  0  0  0
    2.7781   -2.9198  -11.3229 N   0  0  0  0  0  0  0  0  0  0  0  0
    2.8146   -3.3881  -12.6812 C   0  0  0  0  0  0  0  0  0  0  0  0
    1.9740   -4.5818  -12.9459 C   0  0  0  0  0  0  0  0  0  0  0  0
    2.6933   -3.9609  -10.3033 C   0  0  0  0  0  0  0  0  0  0  0  0
    1.3173   -4.5638  -10.4837 C   0  0  0  0  0  0  0  0  0  0  0  0
    1.2036   -5.0765  -11.8304 N   0  0  0  0  0  0  0  0  0  0  0  0
    0.2897   -6.1207  -12.0701 C   0  0  0  0  0  0  0  0  0  0  0  0
    0.0496   -6.9647  -11.1856 O   0  0  0  0  0  0  0  0  0  0  0  0
   -0.3950   -6.2289  -13.3726 C   0  0  0  0  0  0  0  0  0  0  0  0
   -1.8462   -6.6228  -13.0909 C   0  0  0  0  0  0  0  0  0  0  0  0
    2.5704   -1.2284   -9.5823 C   0  0  0  0  0  0  0  0  0  0  0  0
    2.2852   -2.1776   -8.6186 C   0  0  0  0  0  0  0  0  0  0  0  0
    2.0452   -1.7824   -7.3035 C   0  0  0  0  0  0  0  0  0  0  0  0
    1.6909   -3.0763   -6.1584 Cl  0  0  0  0  0  0  0  0  0  0  0  0
    2.0796   -0.4624   -6.9096 C   0  0  0  0  0  0  0  0  0  0  0  0
    1.8225   -0.0868   -5.5286 C   0  0  0  0  0  0  0  0  0  0  0  0
    2.8118   -0.0524   -4.5694 C   0  0  0  0  0  0  0  0  0  0  0  0
    4.0852   -0.3812   -4.9167 F   0  0  0  0  0  0  0  0  0  0  0  0
    2.5169    0.3136   -3.2611 C   0  0  0  0  0  0  0  0  0  0  0  0
    1.2304    0.6498   -2.8948 C   0  0  0  0  0  0  0  0  0  0  0  0
    0.2203    0.6202   -3.8508 C   0  0  0  0  0  0  0  0  0  0  0  0
    0.5420    0.2537   -5.1390 C   0  0  0  0  0  0  0  0  0  0  0  0
   -0.4756    0.2251   -6.0965 O   0  0  0  0  0  0  0  0  0  0  0  0
  2  1  1  1
  2  3  1  0
  2  4  1  0
  4  5  2  0
  4  9  1  0
  5  6  1  0
  6  7  2  0
  7  8  1  0
  8  9  2  0
  9 10  1  0
 10 11  1  0
 10 13  1  0
 11 12  2  0
 11 27  1  0
 12 31  1  0
 13 14  2  0
 13 15  1  0
 15 16  2  0
 16 17  1  0
 16 27  1  0
 17 18  1  0
 17 20  1  0
 18 19  1  0
 19 22  1  0
 20 21  1  0
 21 22  1  0
 22 23  1  0
 23 24  2  0
 23 25  1  0
 25 26  1  0
 27 28  2  0
 28 29  1  0
 29 30  1  0
 29 31  2  0
 31 32  1  0
 32 33  2  0
 32 38  1  0
 33 34  1  0
 33 35  1  0
 35 36  2  0
 36 37  1  0
 37 38  2  0
 38 39  1  0
M  END
$$$$
