
     RDKit          3D

 39 43  0  0  0  0  0  0  0  0999 V2000
   -0.9004    1.7254   -4.7096 C   0  0  0  0  0  0  0  0  0  0  0  0
    0.4166    1.7400   -5.4583 C   0  0  2  0  0  0  0  0  0  0  0  0
    1.5507    2.2034   -4.5560 C   0  0  0  0  0  0  0  0  0  0  0  0
    0.3116    2.5510   -6.6793 C   0  0  0  0  0  0  0  0  0  0  0  0
    0.1050    3.9267   -6.5207 C   0  0  0  0  0  0  0  0  0  0  0  0
   -0.0072    4.7806   -7.6113 C   0  0  0  0  0  0  0  0  0  0  0  0
    0.0885    4.2530   -8.8799 C   0  0  0  0  0  0  0  0  0  0  0  0
    0.2940    2.8850   -9.0330 C   0  0  0  0  0  0  0  0  0  0  0  0
    0.4036    2.0489   -7.9510 C   0  0  0  0  0  0  0  0  0  0  0  0
    0.6101    0.6722   -8.1471 N   0  0  0  0  0  0  0  0  0  0  0  0
    1.8300    0.0954   -8.1568 C   0  0  0  0  0  0  0  0  0  0  0  0
    2.9523    0.8881   -7.9677 C   0  0  0  0  0  0  0  0  0  0  0  0
   -0.4723   -0.1055   -8.3336 C   0  0  0  0  0  0  0  0  0  0  0  0
   -1.6567    0.3779   -8.3360 O   0  0  0  0  0  0  0  0  0  0  0  0
   -0.3468   -1.4289   -8.5254 N   0  0  0  0  0  0  0  0  0  0  0  0
    0.8500   -2.0664   -8.5456 C   0  0  0  0  0  0  0  0  0  0  0  0
    0.9481   -3.4610   -8.7420 N   0  0  0  0  0  0  0  0  0  0  0  0
   -0.1258   -4.3588   -9.0674 C   0  0  0  0  0  0  0  0  0  0  0  0
   -0.0269   -5.6962   -8.4324 C   0  0  0  0  0  0  0  0  0  0  0  0
    2.2631   -4.0800   -8.6066 C   0  0  0  0  0  0  0  0  0  0  0  0
    2.1581   -4.9364   -7.3635 C   0  0  0  0  0  0  0  0  0  0  0  0
    1.0934   -5.8970   -7.5452 N   0  0  0  0  0  0  0  0  0  0  0  0
    1.1515   -7.1006   -6.8165 C   0  0  0  0  0  0  0  0  0  0  0  0
    2.1229   -7.3433   -6.0751 O   0  0  0  0  0  0  0  0  0  0  0  0
    0.0624   -8.0904   -6.9224 C   0  0  0  0  0  0  0  0  0  0  0  0
   -0.8733   -7.8642   -5.7335 C   0  0  0  0  0  0  0  0  0  0  0  0
    1.9690   -1.2832   -8.3564 C   0  0  0  0  0  0  0  0  0  0  0  0
    3.2430   -1.8197   -8.3589 C   0  0  0  0  0  0  0  0  0  0  0  0
    4.3467   -0.9904   -8.1654 C   0  0  0  0  0  0  0  0  0  0  0  0
    5.9230   -1.7814   -8.1869 Cl  0  0  0  0  0  0  0  0  0  0  0  0
    4.2259    0.3679   -7.9676 C   0  0  0  0  0  0  0  0  0  0  0  0
    5.3999    1.2021   -7.7674 C   0  0  0  0  0  0  0  0  0  0  0  0
    6.2535    1.5458   -8.7938 C   0  0  0  0  0  0  0  0  0  0  0  0
    5.9976    1.0920  -10.0504 F   0  0  0  0  0  0  0  0  0  0  0  0
    7.3639    2.3467   -8.5528 C   0  0  0  0  0  0  0  0  0  0  0  0
    7.6355    2.8142   -7.2841 C   0  0  0  0  0  0  0  0  0  0  0  0
    6.7841    2.4765   -6.2371 C   0  0  0  0  0  0  0  0  0  0  0  0
    5.6918    1.6815   -6.5055 C   0  0  0  0  0  0  0  0  0  0  0  0
    4.8388    1.3445   -5.4510 O   0  0  0  0  0  0  0  0  0  0  0  0
  2  1  1  1
  2  3  1  0
  2  4  1  0
  4  5  2  0
  4  9  1  0
  5  6  1  0
  6  7  2  0
  7  8  1  0
  8  9  2  0
  9 10  1  0
 10 11  1  0
 10 13  1  0
 11 12  2  0
 11 27  1  0
 12 31  1  0
 13 14  2  0
 13 15  1  0
 15 16  2  0
 16 17  1  0
 16 27  1  0
 17 18  1  0
 17 20  1  0
 18 19  1  0
 19 22  1  0
 20 21  1  0
 21 22  1  0
 22 23  1  0
 23 24  2  0
 23 25  1  0
 25 26  1  0
 27 28  2  0
 28 29  1  0
 29 30  1  0
 29 31  2  0
 31 32  1  0
 32 33  2  0
 32 38  1  0
 33 34  1  0
 33 35  1  0
 35 36  2  0
 36 37  1  0
 37 38  2  0
 38 39  1  0
M  END
$$$$
