
     RDKit          3D

 39 43  0  0  0  0  0  0  0  0999 V2000
    3.5264    3.7217  -11.3501 C   0  0  0  0  0  0  0  0  0  0  0  0
    3.1354    3.1822   -9.9896 C   0  0  2  0  0  0  0  0  0  0  0  0
    2.2901    4.1911   -9.2261 C   0  0  0  0  0  0  0  0  0  0  0  0
    4.3252    2.7687   -9.2326 C   0  0  0  0  0  0  0  0  0  0  0  0
    5.1919    3.7783   -8.7969 C   0  0  0  0  0  0  0  0  0  0  0  0
    6.3434    3.4925   -8.0734 C   0  0  0  0  0  0  0  0  0  0  0  0
    6.6342    2.1786   -7.7802 C   0  0  0  0  0  0  0  0  0  0  0  0
    5.7698    1.1783   -8.2152 C   0  0  0  0  0  0  0  0  0  0  0  0
    4.6350    1.4689   -8.9290 C   0  0  0  0  0  0  0  0  0  0  0  0
    3.7874    0.4299   -9.3514 N   0  0  0  0  0  0  0  0  0  0  0  0
    2.7914   -0.0743   -8.5933 C   0  0  0  0  0  0  0  0  0  0  0  0
    2.5795    0.4460   -7.3252 C   0  0  0  0  0  0  0  0  0  0  0  0
    3.9860   -0.0834  -10.5796 C   0  0  0  0  0  0  0  0  0  0  0  0
    4.9124    0.3489  -11.3486 O   0  0  0  0  0  0  0  0  0  0  0  0
    3.2116   -1.0767  -11.0461 N   0  0  0  0  0  0  0  0  0  0  0  0
    2.1963   -1.6246  -10.3333 C   0  0  0  0  0  0  0  0  0  0  0  0
    1.3950   -2.6631  -10.8553 N   0  0  0  0  0  0  0  0  0  0  0  0
    0.6234   -3.6125  -10.1011 C   0  0  0  0  0  0  0  0  0  0  0  0
    0.5865   -4.9780  -10.6807 C   0  0  0  0  0  0  0  0  0  0  0  0
    1.3254   -2.8102  -12.3058 C   0  0  0  0  0  0  0  0  0  0  0  0
    2.0329   -4.1164  -12.5937 C   0  0  0  0  0  0  0  0  0  0  0  0
    1.3610   -5.1797  -11.8815 N   0  0  0  0  0  0  0  0  0  0  0  0
    1.4652   -6.4895  -12.3880 C   0  0  0  0  0  0  0  0  0  0  0  0
    1.0718   -7.4602  -11.7133 O   0  0  0  0  0  0  0  0  0  0  0  0
    2.0424   -6.7291  -13.7246 C   0  0  0  0  0  0  0  0  0  0  0  0
    3.3519   -7.4938  -13.5228 C   0  0  0  0  0  0  0  0  0  0  0  0
    1.9802   -1.1098   -9.0725 C   0  0  0  0  0  0  0  0  0  0  0  0
    0.9764   -1.5891   -8.2517 C   0  0  0  0  0  0  0  0  0  0  0  0
    0.7945   -1.0403   -6.9832 C   0  0  0  0  0  0  0  0  0  0  0  0
   -0.5156   -1.7274   -6.0228 Cl  0  0  0  0  0  0  0  0  0  0  0  0
    1.5845   -0.0210   -6.4978 C   0  0  0  0  0  0  0  0  0  0  0  0
    1.3645    0.5283   -5.1696 C   0  0  0  0  0  0  0  0  0  0  0  0
    0.3076    1.3622   -4.8739 C   0  0  0  0  0  0  0  0  0  0  0  0
   -0.5729    1.6924   -5.8568 F   0  0  0  0  0  0  0  0  0  0  0  0
    0.1389    1.8624   -3.5879 C   0  0  0  0  0  0  0  0  0  0  0  0
    1.0236    1.5359   -2.5814 C   0  0  0  0  0  0  0  0  0  0  0  0
    2.0956    0.6955   -2.8631 C   0  0  0  0  0  0  0  0  0  0  0  0
    2.2375    0.2151   -4.1463 C   0  0  0  0  0  0  0  0  0  0  0  0
    3.3159   -0.6290   -4.4253 O   0  0  0  0  0  0  0  0  0  0  0  0
  2  1  1  6
  2  3  1  0
  2  4  1  0
  4  5  2  0
  4  9  1  0
  5  6  1  0
  6  7  2  0
  7  8  1  0
  8  9  2  0
  9 10  1  0
 10 11  1  0
 10 13  1  0
 11 12  2  0
 11 27  1  0
 12 31  1  0
 13 14  2  0
 13 15  1  0
 15 16  2  0
 16 17  1  0
 16 27  1  0
 17 18  1  0
 17 20  1  0
 18 19  1  0
 19 22  1  0
 20 21  1  0
 21 22  1  0
 22 23  1  0
 23 24  2  0
 23 25  1  0
 25 26  1  0
 27 28  2  0
 28 29  1  0
 29 30  1  0
 29 31  2  0
 31 32  1  0
 32 33  2  0
 32 38  1  0
 33 34  1  0
 33 35  1  0
 35 36  2  0
 36 37  1  0
 37 38  2  0
 38 39  1  0
M  END
$$$$
