
     RDKit          3D

 39 43  0  0  0  0  0  0  0  0999 V2000
    6.2884   -1.4081  -10.8364 C   0  0  0  0  0  0  0  0  0  0  0  0
    5.0821   -1.8986  -11.6106 C   0  0  2  0  0  0  0  0  0  0  0  0
    5.4916   -2.9026  -12.6780 C   0  0  0  0  0  0  0  0  0  0  0  0
    4.3292   -0.7680  -12.1714 C   0  0  0  0  0  0  0  0  0  0  0  0
    4.8933   -0.1000  -13.2650 C   0  0  0  0  0  0  0  0  0  0  0  0
    4.2611    0.9805  -13.8682 C   0  0  0  0  0  0  0  0  0  0  0  0
    3.0470    1.4008  -13.3722 C   0  0  0  0  0  0  0  0  0  0  0  0
    2.4898    0.7338  -12.2850 C   0  0  0  0  0  0  0  0  0  0  0  0
    3.1205   -0.3320  -11.6952 C   0  0  0  0  0  0  0  0  0  0  0  0
    2.5254   -0.9790  -10.5980 N   0  0  0  0  0  0  0  0  0  0  0  0
    2.6561   -0.5568   -9.3230 C   0  0  0  0  0  0  0  0  0  0  0  0
    3.4174    0.5727   -9.0614 C   0  0  0  0  0  0  0  0  0  0  0  0
    1.7863   -2.0771  -10.8410 C   0  0  0  0  0  0  0  0  0  0  0  0
    1.6225   -2.5302  -12.0260 O   0  0  0  0  0  0  0  0  0  0  0  0
    1.1888   -2.7427   -9.8390 N   0  0  0  0  0  0  0  0  0  0  0  0
    1.2823   -2.3686   -8.5389 C   0  0  0  0  0  0  0  0  0  0  0  0
    0.6355   -3.0854   -7.5089 N   0  0  0  0  0  0  0  0  0  0  0  0
    1.1796   -3.4126   -6.2195 C   0  0  0  0  0  0  0  0  0  0  0  0
    0.7772   -4.7424   -5.6986 C   0  0  0  0  0  0  0  0  0  0  0  0
   -0.7254   -3.5539   -7.7519 C   0  0  0  0  0  0  0  0  0  0  0  0
   -0.6072   -5.0611   -7.8142 C   0  0  0  0  0  0  0  0  0  0  0  0
   -0.0555   -5.5396   -6.5668 N   0  0  0  0  0  0  0  0  0  0  0  0
   -0.3476   -6.8595   -6.1726 C   0  0  0  0  0  0  0  0  0  0  0  0
    0.4274   -7.4793   -5.4193 O   0  0  0  0  0  0  0  0  0  0  0  0
   -1.5754   -7.5258   -6.6474 C   0  0  0  0  0  0  0  0  0  0  0  0
   -2.4101   -7.8719   -5.4130 C   0  0  0  0  0  0  0  0  0  0  0  0
    2.0367   -1.2453   -8.2733 C   0  0  0  0  0  0  0  0  0  0  0  0
    2.2067   -0.7690   -6.9867 C   0  0  0  0  0  0  0  0  0  0  0  0
    2.9793    0.3697   -6.7637 C   0  0  0  0  0  0  0  0  0  0  0  0
    3.1276    0.8882   -5.0844 Cl  0  0  0  0  0  0  0  0  0  0  0  0
    3.5951    1.0580   -7.7863 C   0  0  0  0  0  0  0  0  0  0  0  0
    4.3926    2.2435   -7.5163 C   0  0  0  0  0  0  0  0  0  0  0  0
    3.9622    3.5166   -7.8227 C   0  0  0  0  0  0  0  0  0  0  0  0
    2.7428    3.6841   -8.4017 F   0  0  0  0  0  0  0  0  0  0  0  0
    4.7611    4.6199   -7.5448 C   0  0  0  0  0  0  0  0  0  0  0  0
    5.9994    4.4652   -6.9576 C   0  0  0  0  0  0  0  0  0  0  0  0
    6.4487    3.1871   -6.6421 C   0  0  0  0  0  0  0  0  0  0  0  0
    5.6357    2.1128   -6.9290 C   0  0  0  0  0  0  0  0  0  0  0  0
    6.0907    0.8304   -6.6105 O   0  0  0  0  0  0  0  0  0  0  0  0
  2  1  1  6
  2  3  1  0
  2  4  1  0
  4  5  2  0
  4  9  1  0
  5  6  1  0
  6  7  2  0
  7  8  1  0
  8  9  2  0
  9 10  1  0
 10 11  1  0
 10 13  1  0
 11 12  2  0
 11 27  1  0
 12 31  1  0
 13 14  2  0
 13 15  1  0
 15 16  2  0
 16 17  1  0
 16 27  1  0
 17 18  1  0
 17 20  1  0
 18 19  1  0
 19 22  1  0
 20 21  1  0
 21 22  1  0
 22 23  1  0
 23 24  2  0
 23 25  1  0
 25 26  1  0
 27 28  2  0
 28 29  1  0
 29 30  1  0
 29 31  2  0
 31 32  1  0
 32 33  2  0
 32 38  1  0
 33 34  1  0
 33 35  1  0
 35 36  2  0
 36 37  1  0
 37 38  2  0
 38 39  1  0
M  END
$$$$
