
     RDKit          3D

 39 43  0  0  0  0  0  0  0  0999 V2000
   -0.7502    3.3819   -7.1532 C   0  0  0  0  0  0  0  0  0  0  0  0
   -0.7348    2.0135   -6.5033 C   0  0  2  0  0  0  0  0  0  0  0  0
   -2.1393    1.5833   -6.1066 C   0  0  0  0  0  0  0  0  0  0  0  0
    0.1956    1.9884   -5.3660 C   0  0  0  0  0  0  0  0  0  0  0  0
    0.0016    2.9390   -4.3565 C   0  0  0  0  0  0  0  0  0  0  0  0
    0.8259    2.9987   -3.2393 C   0  0  0  0  0  0  0  0  0  0  0  0
    1.8597    2.0955   -3.1280 C   0  0  0  0  0  0  0  0  0  0  0  0
    2.0488    1.1523   -4.1338 C   0  0  0  0  0  0  0  0  0  0  0  0
    1.2306    1.1001   -5.2337 C   0  0  0  0  0  0  0  0  0  0  0  0
    1.4549    0.1327   -6.2287 N   0  0  0  0  0  0  0  0  0  0  0  0
    2.2996    0.3119   -7.2657 C   0  0  0  0  0  0  0  0  0  0  0  0
    2.9901    1.5099   -7.3737 C   0  0  0  0  0  0  0  0  0  0  0  0
    0.7881   -1.0326   -6.1342 C   0  0  0  0  0  0  0  0  0  0  0  0
   -0.0272   -1.2664   -5.1766 O   0  0  0  0  0  0  0  0  0  0  0  0
    0.9565   -2.0005   -7.0500 N   0  0  0  0  0  0  0  0  0  0  0  0
    1.7899   -1.8806   -8.1131 C   0  0  0  0  0  0  0  0  0  0  0  0
    1.9508   -2.9201   -9.0547 N   0  0  0  0  0  0  0  0  0  0  0  0
    2.0461   -2.7774  -10.4816 C   0  0  0  0  0  0  0  0  0  0  0  0
    1.3917   -3.8610  -11.2558 C   0  0  0  0  0  0  0  0  0  0  0  0
    2.0313   -4.2893   -8.5552 C   0  0  0  0  0  0  0  0  0  0  0  0
    0.7598   -4.9505   -9.0405 C   0  0  0  0  0  0  0  0  0  0  0  0
    0.7132   -4.8735  -10.4832 N   0  0  0  0  0  0  0  0  0  0  0  0
   -0.0357   -5.8430  -11.1776 C   0  0  0  0  0  0  0  0  0  0  0  0
   -0.1832   -5.7616  -12.4120 O   0  0  0  0  0  0  0  0  0  0  0  0
   -0.6561   -6.9677  -10.4516 C   0  0  0  0  0  0  0  0  0  0  0  0
   -2.1170   -7.0457  -10.8988 C   0  0  0  0  0  0  0  0  0  0  0  0
    2.4802   -0.6921   -8.2244 C   0  0  0  0  0  0  0  0  0  0  0  0
    3.3563   -0.4530   -9.2666 C   0  0  0  0  0  0  0  0  0  0  0  0
    4.0322    0.7640   -9.3409 C   0  0  0  0  0  0  0  0  0  0  0  0
    5.1250    0.9604  -10.7114 Cl  0  0  0  0  0  0  0  0  0  0  0  0
    3.8650    1.7615   -8.4052 C   0  0  0  0  0  0  0  0  0  0  0  0
    4.5883    3.0182   -8.5141 C   0  0  0  0  0  0  0  0  0  0  0  0
    5.5096    3.4313   -7.5756 C   0  0  0  0  0  0  0  0  0  0  0  0
    5.7612    2.6394   -6.4987 F   0  0  0  0  0  0  0  0  0  0  0  0
    6.1765    4.6421   -7.7235 C   0  0  0  0  0  0  0  0  0  0  0  0
    5.9316    5.4550   -8.8104 C   0  0  0  0  0  0  0  0  0  0  0  0
    5.0048    5.0528   -9.7666 C   0  0  0  0  0  0  0  0  0  0  0  0
    4.3593    3.8484   -9.5938 C   0  0  0  0  0  0  0  0  0  0  0  0
    3.4289    3.4479  -10.5566 O   0  0  0  0  0  0  0  0  0  0  0  0
  2  1  1  1
  2  3  1  0
  2  4  1  0
  4  5  2  0
  4  9  1  0
  5  6  1  0
  6  7  2  0
  7  8  1  0
  8  9  2  0
  9 10  1  0
 10 11  1  0
 10 13  1  0
 11 12  2  0
 11 27  1  0
 12 31  1  0
 13 14  2  0
 13 15  1  0
 15 16  2  0
 16 17  1  0
 16 27  1  0
 17 18  1  0
 17 20  1  0
 18 19  1  0
 19 22  1  0
 20 21  1  0
 21 22  1  0
 22 23  1  0
 23 24  2  0
 23 25  1  0
 25 26  1  0
 27 28  2  0
 28 29  1  0
 29 30  1  0
 29 31  2  0
 31 32  1  0
 32 33  2  0
 32 38  1  0
 33 34  1  0
 33 35  1  0
 35 36  2  0
 36 37  1  0
 37 38  2  0
 38 39  1  0
M  END
$$$$
