
     RDKit          3D

 39 43  0  0  0  0  0  0  0  0999 V2000
    6.4053   -1.7717  -11.1367 C   0  0  0  0  0  0  0  0  0  0  0  0
    5.0374   -2.1745  -11.6483 C   0  0  2  0  0  0  0  0  0  0  0  0
    5.1412   -3.3409  -12.6198 C   0  0  0  0  0  0  0  0  0  0  0  0
    4.3422   -1.0215  -12.2372 C   0  0  0  0  0  0  0  0  0  0  0  0
    4.9453   -0.4019  -13.3385 C   0  0  0  0  0  0  0  0  0  0  0  0
    4.3686    0.6947  -13.9679 C   0  0  0  0  0  0  0  0  0  0  0  0
    3.1714    1.1803  -13.4906 C   0  0  0  0  0  0  0  0  0  0  0  0
    2.5755    0.5613  -12.3957 C   0  0  0  0  0  0  0  0  0  0  0  0
    3.1514   -0.5209  -11.7800 C   0  0  0  0  0  0  0  0  0  0  0  0
    2.5183   -1.1179  -10.6758 N   0  0  0  0  0  0  0  0  0  0  0  0
    2.6730   -0.6886   -9.4059 C   0  0  0  0  0  0  0  0  0  0  0  0
    3.4996    0.3970   -9.1570 C   0  0  0  0  0  0  0  0  0  0  0  0
    1.7157   -2.1734  -10.9064 C   0  0  0  0  0  0  0  0  0  0  0  0
    1.5261   -2.6304  -12.0860 O   0  0  0  0  0  0  0  0  0  0  0  0
    1.0792   -2.7901   -9.8972 N   0  0  0  0  0  0  0  0  0  0  0  0
    1.1939   -2.4062   -8.6016 C   0  0  0  0  0  0  0  0  0  0  0  0
    0.5052   -3.0708   -7.5638 N   0  0  0  0  0  0  0  0  0  0  0  0
    0.9623   -3.2590   -6.2143 C   0  0  0  0  0  0  0  0  0  0  0  0
    0.5874   -4.5618   -5.6111 C   0  0  0  0  0  0  0  0  0  0  0  0
   -0.8074   -3.6340   -7.8649 C   0  0  0  0  0  0  0  0  0  0  0  0
   -0.6095   -5.1321   -7.7874 C   0  0  0  0  0  0  0  0  0  0  0  0
   -0.1338   -5.4738   -6.4659 N   0  0  0  0  0  0  0  0  0  0  0  0
   -0.3894   -6.7710   -5.9813 C   0  0  0  0  0  0  0  0  0  0  0  0
    0.4238   -7.3331   -5.2230 O   0  0  0  0  0  0  0  0  0  0  0  0
   -1.6239   -7.4816   -6.3661 C   0  0  0  0  0  0  0  0  0  0  0  0
   -1.2034   -8.7637   -7.0870 C   0  0  0  0  0  0  0  0  0  0  0  0
    2.0132   -1.3263   -8.3487 C   0  0  0  0  0  0  0  0  0  0  0  0
    2.2103   -0.8451   -7.0678 C   0  0  0  0  0  0  0  0  0  0  0  0
    3.0488    0.2485   -6.8577 C   0  0  0  0  0  0  0  0  0  0  0  0
    3.2265    0.7779   -5.1846 Cl  0  0  0  0  0  0  0  0  0  0  0  0
    3.7049    0.8866   -7.8878 C   0  0  0  0  0  0  0  0  0  0  0  0
    4.5710    2.0260   -7.6311 C   0  0  0  0  0  0  0  0  0  0  0  0
    5.8070    1.9025   -7.0336 C   0  0  0  0  0  0  0  0  0  0  0  0
    6.2458    0.6691   -6.6642 F   0  0  0  0  0  0  0  0  0  0  0  0
    6.5997    3.0223   -6.8092 C   0  0  0  0  0  0  0  0  0  0  0  0
    6.1678    4.2788   -7.1787 C   0  0  0  0  0  0  0  0  0  0  0  0
    4.9229    4.4208   -7.7829 C   0  0  0  0  0  0  0  0  0  0  0  0
    4.1593    3.2937   -7.9926 C   0  0  0  0  0  0  0  0  0  0  0  0
    2.9092    3.4405   -8.5998 O   0  0  0  0  0  0  0  0  0  0  0  0
  2  1  1  6
  2  3  1  0
  2  4  1  0
  4  5  2  0
  4  9  1  0
  5  6  1  0
  6  7  2  0
  7  8  1  0
  8  9  2  0
  9 10  1  0
 10 11  1  0
 10 13  1  0
 11 12  2  0
 11 27  1  0
 12 31  1  0
 13 14  2  0
 13 15  1  0
 15 16  2  0
 16 17  1  0
 16 27  1  0
 17 18  1  0
 17 20  1  0
 18 19  1  0
 19 22  1  0
 20 21  1  0
 21 22  1  0
 22 23  1  0
 23 24  2  0
 23 25  1  0
 25 26  1  0
 27 28  2  0
 28 29  1  0
 29 30  1  0
 29 31  2  0
 31 32  1  0
 32 33  2  0
 32 38  1  0
 33 34  1  0
 33 35  1  0
 35 36  2  0
 36 37  1  0
 37 38  2  0
 38 39  1  0
M  END
$$$$
