
     RDKit          3D

 40 44  0  0  0  0  0  0  0  0999 V2000
   30.9032  -10.3142   13.0606 C   0  0  0  0  0  0  0  0  0  0  0  0
   31.0205   -9.4252   14.0733 C   0  0  0  0  0  0  0  0  0  0  0  0
   30.3889   -9.5205   15.3124 C   0  0  0  0  0  0  0  0  0  0  0  0
   31.9326  -10.2810   10.5372 C   0  0  1  0  0  0  0  0  0  0  0  0
   32.8223   -9.1177   10.1728 C   0  0  0  0  0  0  0  0  0  0  0  0
   32.6124   -8.3623    9.0422 C   0  0  0  0  0  0  0  0  0  0  0  0
   33.4563   -7.2860    8.7384 C   0  0  0  0  0  0  0  0  0  0  0  0
   34.4975   -6.9799    9.5675 C   0  0  0  0  0  0  0  0  0  0  0  0
   34.7204   -7.7138   10.6876 C   0  0  0  0  0  0  0  0  0  0  0  0
   33.8754   -8.7744   10.9717 C   0  0  0  0  0  0  0  0  0  0  0  0
   32.7219  -11.4744   10.0849 C   0  0  0  0  0  0  0  0  0  0  0  0
   32.3534  -12.3122    9.0899 C   0  0  0  0  0  0  0  0  0  0  0  0
   33.1316  -13.4081    8.7254 C   0  0  0  0  0  0  0  0  0  0  0  0
   34.2974  -13.6432    9.3885 C   0  0  0  0  0  0  0  0  0  0  0  0
   34.6686  -12.7969   10.3922 C   0  0  0  0  0  0  0  0  0  0  0  0
   31.8388   -7.2830    7.1704 C   0  0  1  0  0  0  0  0  0  0  0  0
   29.5819  -10.5954   15.5361 C   0  0  0  0  0  0  0  0  0  0  0  0
   29.4264  -11.5263   14.5490 C   0  0  0  0  0  0  0  0  0  0  0  0
   30.0446  -11.4297   13.3422 C   0  0  0  0  0  0  0  0  0  0  0  0
   29.8759  -12.4249   12.3409 N   0  0  0  0  0  0  0  0  0  0  0  0
   28.7679  -10.7346   17.0818 S   0  0  1  0  0  6  0  0  0  0  0  0
   28.6068  -12.1675   17.4877 O   0  0  0  0  0  0  0  0  0  0  0  0
   29.5746  -10.0133   18.1154 O   0  0  0  0  0  0  0  0  0  0  0  0
   27.1873  -10.0270   17.0387 N   0  0  0  0  0  0  0  0  0  0  0  0
   33.8995  -11.7552   10.7192 N   0  0  0  0  0  0  0  0  0  0  0  0
   30.8678  -12.0102    8.2181 Cl  0  0  0  0  0  0  0  0  0  0  0  0
   31.4265  -10.2973   11.7778 N   0  0  0  0  0  0  0  0  0  0  0  0
   31.6869   -8.3921    8.0205 O   0  0  0  0  0  0  0  0  0  0  0  0
   33.0475   -6.6841    7.5634 O   0  0  0  0  0  0  0  0  0  0  0  0
   31.9755   -7.6215    5.8449 F   0  0  0  0  0  0  0  0  0  0  0  0
   30.7938   -6.3913    7.3630 F   0  0  0  0  0  0  0  0  0  0  0  0
   28.7972  -13.3528   12.4901 C   0  0  0  0  0  0  0  0  0  0  0  0
   27.9002  -13.2685   13.4628 N   0  0  0  0  0  0  0  0  0  0  0  0
   26.9021  -14.1734   13.5491 C   0  0  0  0  0  0  0  0  0  0  0  0
   26.8084  -15.1826   12.6352 N   0  0  0  0  0  0  0  0  0  0  0  0
   27.7161  -15.2605   11.6570 C   0  0  0  0  0  0  0  0  0  0  0  0
   28.7034  -14.3581   11.5786 N   0  0  0  0  0  0  0  0  0  0  0  0
   27.5802  -16.3135   10.7392 O   0  0  0  0  0  0  0  0  0  0  0  0
   26.4074  -16.4277    9.9642 C   0  0  0  0  0  0  0  0  0  0  0  0
   25.9184  -14.1421   14.5549 N   0  0  0  0  0  0  0  0  0  0  0  0
  1  2  2  0
  1 19  1  0
 27  1  1  0
  2  3  1  0
  3 17  2  0
  4  5  1  0
  4 11  1  0
  4 27  1  1
  5  6  2  0
  5 10  1  0
  6  7  1  0
  6 28  1  0
  7  8  2  0
  7 29  1  0
  8  9  1  0
  9 10  2  0
 11 12  2  0
 11 25  1  0
 12 13  1  0
 12 26  1  0
 13 14  2  0
 14 15  1  0
 15 25  2  0
 28 16  1  0
 16 29  1  0
 16 30  1  6
 16 31  1  0
 17 18  1  0
 17 21  1  0
 18 19  2  0
 19 20  1  0
 20 32  1  0
 21 22  2  0
 21 23  2  0
 21 24  1  6
 32 33  2  0
 32 37  1  0
 33 34  1  0
 34 35  2  0
 34 40  1  0
 35 36  1  0
 36 37  2  0
 36 38  1  0
 38 39  1  0
M  END
$$$$
