
     RDKit          3D

 40 44  0  0  0  0  0  0  0  0999 V2000
   36.0148   -4.9817   13.3709 C   0  0  0  0  0  0  0  0  0  0  0  0
   35.5047   -3.7963   13.7761 C   0  0  0  0  0  0  0  0  0  0  0  0
   35.7336   -3.1960   15.0134 C   0  0  0  0  0  0  0  0  0  0  0  0
   35.6196   -6.3959   11.0748 C   0  0  1  0  0  0  0  0  0  0  0  0
   36.5184   -7.5845   10.8361 C   0  0  0  0  0  0  0  0  0  0  0  0
   36.4716   -8.3144    9.6707 C   0  0  0  0  0  0  0  0  0  0  0  0
   37.3253   -9.4093    9.4819 C   0  0  0  0  0  0  0  0  0  0  0  0
   38.2126   -9.7594   10.4592 C   0  0  0  0  0  0  0  0  0  0  0  0
   38.2733   -9.0511   11.6156 C   0  0  0  0  0  0  0  0  0  0  0  0
   37.4214   -7.9716   11.7845 C   0  0  0  0  0  0  0  0  0  0  0  0
   34.2468   -6.9432   10.8146 C   0  0  0  0  0  0  0  0  0  0  0  0
   33.4201   -6.5203    9.8320 C   0  0  0  0  0  0  0  0  0  0  0  0
   32.1527   -7.0681    9.6508 C   0  0  0  0  0  0  0  0  0  0  0  0
   31.7331   -8.0586   10.4856 C   0  0  0  0  0  0  0  0  0  0  0  0
   32.5682   -8.4850   11.4767 C   0  0  0  0  0  0  0  0  0  0  0  0
   36.1815   -9.1603    7.5571 C   0  0  1  0  0  0  0  0  0  0  0  0
   36.5376   -3.8478   15.8996 C   0  0  0  0  0  0  0  0  0  0  0  0
   37.0816   -5.0490   15.5441 C   0  0  0  0  0  0  0  0  0  0  0  0
   36.8562   -5.6305   14.3363 C   0  0  0  0  0  0  0  0  0  0  0  0
   37.4514   -6.8743   13.9895 N   0  0  0  0  0  0  0  0  0  0  0  0
   36.8340   -3.1201   17.4661 S   0  0  1  0  0  6  0  0  0  0  0  0
   35.5699   -2.5915   18.0713 O   0  0  0  0  0  0  0  0  0  0  0  0
   37.4236   -4.1550   18.3720 O   0  0  0  0  0  0  0  0  0  0  0  0
   37.9489   -1.7986   17.3571 N   0  0  0  0  0  0  0  0  0  0  0  0
   33.7776   -7.9383   11.6255 N   0  0  0  0  0  0  0  0  0  0  0  0
   33.9548   -5.2620    8.7415 Cl  0  0  0  0  0  0  0  0  0  0  0  0
   35.8139   -5.7006   12.2037 N   0  0  0  0  0  0  0  0  0  0  0  0
   35.7226   -8.2400    8.5154 O   0  0  0  0  0  0  0  0  0  0  0  0
   37.0947   -9.9781    8.2436 O   0  0  0  0  0  0  0  0  0  0  0  0
   35.1952   -9.9860    7.0720 F   0  0  0  0  0  0  0  0  0  0  0  0
   36.8352   -8.4915    6.5325 F   0  0  0  0  0  0  0  0  0  0  0  0
   37.5626   -7.8735   15.0074 C   0  0  0  0  0  0  0  0  0  0  0  0
   37.1823   -7.6734   16.2617 N   0  0  0  0  0  0  0  0  0  0  0  0
   37.3095   -8.6575   17.1771 C   0  0  0  0  0  0  0  0  0  0  0  0
   37.8308   -9.8667   16.8184 N   0  0  0  0  0  0  0  0  0  0  0  0
   38.2113  -10.0610   15.5518 C   0  0  0  0  0  0  0  0  0  0  0  0
   38.0814   -9.0790   14.6496 N   0  0  0  0  0  0  0  0  0  0  0  0
   38.7407  -11.3197   15.2278 O   0  0  0  0  0  0  0  0  0  0  0  0
   39.0242  -11.6417   13.8842 C   0  0  0  0  0  0  0  0  0  0  0  0
   36.9261   -8.5120   18.5232 N   0  0  0  0  0  0  0  0  0  0  0  0
  1  2  2  0
  1 19  1  0
 27  1  1  0
  2  3  1  0
  3 17  2  0
  4  5  1  0
  4 11  1  0
  4 27  1  1
  5  6  2  0
  5 10  1  0
  6  7  1  0
  6 28  1  0
  7  8  2  0
  7 29  1  0
  8  9  1  0
  9 10  2  0
 11 12  2  0
 11 25  1  0
 12 13  1  0
 12 26  1  0
 13 14  2  0
 14 15  1  0
 15 25  2  0
 28 16  1  0
 16 29  1  0
 16 30  1  6
 16 31  1  0
 17 18  1  0
 17 21  1  0
 18 19  2  0
 19 20  1  0
 20 32  1  0
 21 22  2  0
 21 23  2  0
 21 24  1  6
 32 33  2  0
 32 37  1  0
 33 34  1  0
 34 35  2  0
 34 40  1  0
 35 36  1  0
 36 37  2  0
 36 38  1  0
 38 39  1  0
M  END
$$$$
