
     RDKit          3D

 40 44  0  0  0  0  0  0  0  0999 V2000
   34.9336   -9.0716   13.7591 C   0  0  0  0  0  0  0  0  0  0  0  0
   33.8731   -9.3608   14.5474 C   0  0  0  0  0  0  0  0  0  0  0  0
   33.8605   -9.3078   15.9404 C   0  0  0  0  0  0  0  0  0  0  0  0
   35.2298   -9.2158   11.0536 C   0  0  1  0  0  0  0  0  0  0  0  0
   34.5239   -8.1682   10.2279 C   0  0  0  0  0  0  0  0  0  0  0  0
   33.5740   -8.4955    9.2879 C   0  0  0  0  0  0  0  0  0  0  0  0
   32.9354   -7.4952    8.5431 C   0  0  0  0  0  0  0  0  0  0  0  0
   33.2548   -6.1832    8.7474 C   0  0  0  0  0  0  0  0  0  0  0  0
   34.1894   -5.8409    9.6705 C   0  0  0  0  0  0  0  0  0  0  0  0
   34.8103   -6.8437   10.3975 C   0  0  0  0  0  0  0  0  0  0  0  0
   36.6239   -9.2114   10.4985 C   0  0  0  0  0  0  0  0  0  0  0  0
   37.2036  -10.2513    9.8580 C   0  0  0  0  0  0  0  0  0  0  0  0
   38.5073  -10.1821    9.3733 C   0  0  0  0  0  0  0  0  0  0  0  0
   39.2194   -9.0347    9.5479 C   0  0  0  0  0  0  0  0  0  0  0  0
   38.6335   -7.9856   10.1940 C   0  0  0  0  0  0  0  0  0  0  0  0
   31.9686   -9.4410    7.9479 C   0  0  1  0  0  0  0  0  0  0  0  0
   35.0072   -8.9345   16.5749 C   0  0  0  0  0  0  0  0  0  0  0  0
   36.1101   -8.6299   15.8294 C   0  0  0  0  0  0  0  0  0  0  0  0
   36.1178   -8.6823   14.4711 C   0  0  0  0  0  0  0  0  0  0  0  0
   37.2777   -8.3423   13.7225 N   0  0  0  0  0  0  0  0  0  0  0  0
   35.0217   -8.8691   18.3261 S   0  0  1  0  0  6  0  0  0  0  0  0
   33.8137   -9.5368   18.9082 O   0  0  0  0  0  0  0  0  0  0  0  0
   36.2557   -9.5554   18.8216 O   0  0  0  0  0  0  0  0  0  0  0  0
   35.0414   -7.2366   18.9054 N   0  0  0  0  0  0  0  0  0  0  0  0
   37.3815   -8.0837   10.6487 N   0  0  0  0  0  0  0  0  0  0  0  0
   36.2930  -11.7237    9.6109 Cl  0  0  0  0  0  0  0  0  0  0  0  0
   35.0842   -9.1449   12.3837 N   0  0  0  0  0  0  0  0  0  0  0  0
   33.0277   -9.6799    8.8406 O   0  0  0  0  0  0  0  0  0  0  0  0
   32.0279   -8.0649    7.6702 O   0  0  0  0  0  0  0  0  0  0  0  0
   32.1047  -10.0951    6.7464 F   0  0  0  0  0  0  0  0  0  0  0  0
   30.7587   -9.7408    8.5566 F   0  0  0  0  0  0  0  0  0  0  0  0
   37.7677   -7.0012   13.8137 C   0  0  0  0  0  0  0  0  0  0  0  0
   38.8124   -6.5645   13.1239 N   0  0  0  0  0  0  0  0  0  0  0  0
   39.2256   -5.2855   13.2503 C   0  0  0  0  0  0  0  0  0  0  0  0
   38.5707   -4.4314   14.0895 N   0  0  0  0  0  0  0  0  0  0  0  0
   37.5179   -4.8789   14.7810 C   0  0  0  0  0  0  0  0  0  0  0  0
   37.1144   -6.1497   14.6495 N   0  0  0  0  0  0  0  0  0  0  0  0
   36.8745   -3.9658   15.6307 O   0  0  0  0  0  0  0  0  0  0  0  0
   35.6448   -4.3064   16.2315 C   0  0  0  0  0  0  0  0  0  0  0  0
   40.3254   -4.7582   12.5486 N   0  0  0  0  0  0  0  0  0  0  0  0
  1  2  2  0
  1 19  1  0
 27  1  1  0
  2  3  1  0
  3 17  2  0
  4  5  1  0
  4 11  1  0
  4 27  1  1
  5  6  2  0
  5 10  1  0
  6  7  1  0
  6 28  1  0
  7  8  2  0
  7 29  1  0
  8  9  1  0
  9 10  2  0
 11 12  2  0
 11 25  1  0
 12 13  1  0
 12 26  1  0
 13 14  2  0
 14 15  1  0
 15 25  2  0
 28 16  1  0
 16 29  1  0
 16 30  1  6
 16 31  1  0
 17 18  1  0
 17 21  1  0
 18 19  2  0
 19 20  1  0
 20 32  1  0
 21 22  2  0
 21 23  2  0
 21 24  1  6
 32 33  2  0
 32 37  1  0
 33 34  1  0
 34 35  2  0
 34 40  1  0
 35 36  1  0
 36 37  2  0
 36 38  1  0
 38 39  1  0
M  END
$$$$
