
     RDKit          3D

 40 44  0  0  0  0  0  0  0  0999 V2000
   34.2788   -8.2653   13.7907 C   0  0  0  0  0  0  0  0  0  0  0  0
   33.1902   -8.7742   14.4117 C   0  0  0  0  0  0  0  0  0  0  0  0
   32.9112   -8.6695   15.7735 C   0  0  0  0  0  0  0  0  0  0  0  0
   35.0898   -8.4418   11.1946 C   0  0  1  0  0  0  0  0  0  0  0  0
   34.4515   -7.4938   10.2090 C   0  0  0  0  0  0  0  0  0  0  0  0
   33.7595   -7.9409    9.1071 C   0  0  0  0  0  0  0  0  0  0  0  0
   33.1754   -7.0311    8.2159 C   0  0  0  0  0  0  0  0  0  0  0  0
   33.2912   -5.6885    8.4377 C   0  0  0  0  0  0  0  0  0  0  0  0
   33.9701   -5.2285    9.5195 C   0  0  0  0  0  0  0  0  0  0  0  0
   34.5408   -6.1431   10.3898 C   0  0  0  0  0  0  0  0  0  0  0  0
   36.5559   -8.3045   10.9059 C   0  0  0  0  0  0  0  0  0  0  0  0
   37.3550   -9.3055   10.4731 C   0  0  0  0  0  0  0  0  0  0  0  0
   38.7125   -9.1104   10.2313 C   0  0  0  0  0  0  0  0  0  0  0  0
   39.2516   -7.8768   10.4352 C   0  0  0  0  0  0  0  0  0  0  0  0
   38.4443   -6.8672   10.8716 C   0  0  0  0  0  0  0  0  0  0  0  0
   32.5845   -9.0841    7.5009 C   0  0  1  0  0  0  0  0  0  0  0  0
   33.8023   -8.0001   16.5575 C   0  0  0  0  0  0  0  0  0  0  0  0
   34.9199   -7.4640   15.9843 C   0  0  0  0  0  0  0  0  0  0  0  0
   35.1878   -7.5681   14.6557 C   0  0  0  0  0  0  0  0  0  0  0  0
   36.3521   -6.9838   14.0861 N   0  0  0  0  0  0  0  0  0  0  0  0
   33.4807   -7.8620   18.2747 S   0  0  1  0  0  6  0  0  0  0  0  0
   32.8295   -6.5543   18.6056 O   0  0  0  0  0  0  0  0  0  0  0  0
   32.5795   -8.9838   18.6857 O   0  0  0  0  0  0  0  0  0  0  0  0
   34.9360   -7.9676   19.2087 N   0  0  0  0  0  0  0  0  0  0  0  0
   37.1462   -7.0865   11.0959 N   0  0  0  0  0  0  0  0  0  0  0  0
   36.6707  -10.8897   10.1893 Cl  0  0  0  0  0  0  0  0  0  0  0  0
   34.6911   -8.3551   12.4709 N   0  0  0  0  0  0  0  0  0  0  0  0
   33.4582   -9.1862    8.5973 O   0  0  0  0  0  0  0  0  0  0  0  0
   32.5390   -7.7133    7.1962 O   0  0  0  0  0  0  0  0  0  0  0  0
   33.0396   -9.7268    6.3741 F   0  0  0  0  0  0  0  0  0  0  0  0
   31.3187   -9.5226    7.8610 F   0  0  0  0  0  0  0  0  0  0  0  0
   37.5846   -7.1052   14.8024 C   0  0  0  0  0  0  0  0  0  0  0  0
   37.6562   -7.5563   16.0470 N   0  0  0  0  0  0  0  0  0  0  0  0
   38.8504   -7.6511   16.6695 C   0  0  0  0  0  0  0  0  0  0  0  0
   39.9940   -7.2832   16.0220 N   0  0  0  0  0  0  0  0  0  0  0  0
   39.9139   -6.8300   14.7671 C   0  0  0  0  0  0  0  0  0  0  0  0
   38.7246   -6.7393   14.1567 N   0  0  0  0  0  0  0  0  0  0  0  0
   41.1150   -6.4642   14.1400 O   0  0  0  0  0  0  0  0  0  0  0  0
   42.3096   -7.1468   14.4501 C   0  0  0  0  0  0  0  0  0  0  0  0
   38.9970   -8.1210   17.9878 N   0  0  0  0  0  0  0  0  0  0  0  0
  1  2  2  0
  1 19  1  0
 27  1  1  0
  2  3  1  0
  3 17  2  0
  4  5  1  0
  4 11  1  0
  4 27  1  1
  5  6  2  0
  5 10  1  0
  6  7  1  0
  6 28  1  0
  7  8  2  0
  7 29  1  0
  8  9  1  0
  9 10  2  0
 11 12  2  0
 11 25  1  0
 12 13  1  0
 12 26  1  0
 13 14  2  0
 14 15  1  0
 15 25  2  0
 28 16  1  0
 16 29  1  0
 16 30  1  6
 16 31  1  0
 17 18  1  0
 17 21  1  0
 18 19  2  0
 19 20  1  0
 20 32  1  0
 21 22  2  0
 21 23  2  0
 21 24  1  1
 32 33  2  0
 32 37  1  0
 33 34  1  0
 34 35  2  0
 34 40  1  0
 35 36  1  0
 36 37  2  0
 36 38  1  0
 38 39  1  0
M  END
$$$$
