
     RDKit          3D

 40 44  0  0  0  0  0  0  0  0999 V2000
   34.1580   -8.6148   13.5253 C   0  0  0  0  0  0  0  0  0  0  0  0
   33.1613   -9.0944   14.3038 C   0  0  0  0  0  0  0  0  0  0  0  0
   33.0906   -8.9806   15.6914 C   0  0  0  0  0  0  0  0  0  0  0  0
   34.5692   -8.8158   10.8385 C   0  0  1  0  0  0  0  0  0  0  0  0
   33.9618   -7.7431    9.9679 C   0  0  0  0  0  0  0  0  0  0  0  0
   33.1237   -8.0406    8.9181 C   0  0  0  0  0  0  0  0  0  0  0  0
   32.5739   -7.0178    8.1341 C   0  0  0  0  0  0  0  0  0  0  0  0
   32.8693   -5.7131    8.4095 C   0  0  0  0  0  0  0  0  0  0  0  0
   33.6941   -5.4001    9.4412 C   0  0  0  0  0  0  0  0  0  0  0  0
   34.2283   -6.4249   10.2054 C   0  0  0  0  0  0  0  0  0  0  0  0
   35.9853   -8.8971   10.3489 C   0  0  0  0  0  0  0  0  0  0  0  0
   36.5152   -9.9516    9.6892 C   0  0  0  0  0  0  0  0  0  0  0  0
   37.8427   -9.9642    9.2687 C   0  0  0  0  0  0  0  0  0  0  0  0
   38.6304   -8.8842    9.5275 C   0  0  0  0  0  0  0  0  0  0  0  0
   38.0947   -7.8203   10.1928 C   0  0  0  0  0  0  0  0  0  0  0  0
   31.6789   -8.9426    7.3799 C   0  0  1  0  0  0  0  0  0  0  0  0
   34.1051   -8.3336   16.3308 C   0  0  0  0  0  0  0  0  0  0  0  0
   35.1384   -7.8275   15.5952 C   0  0  0  0  0  0  0  0  0  0  0  0
   35.2030   -7.9402   14.2420 C   0  0  0  0  0  0  0  0  0  0  0  0
   36.2842   -7.3872   13.5027 N   0  0  0  0  0  0  0  0  0  0  0  0
   34.0461   -8.1850   18.0760 S   0  0  1  0  0  6  0  0  0  0  0  0
   33.6297   -6.8081   18.4937 O   0  0  0  0  0  0  0  0  0  0  0  0
   33.0672   -9.1832   18.6096 O   0  0  0  0  0  0  0  0  0  0  0  0
   35.5888   -8.5015   18.7977 N   0  0  0  0  0  0  0  0  0  0  0  0
   36.8181   -7.8392   10.5845 N   0  0  0  0  0  0  0  0  0  0  0  0
   35.5086  -11.3369    9.3341 Cl  0  0  0  0  0  0  0  0  0  0  0  0
   34.3671   -8.7169   12.1594 N   0  0  0  0  0  0  0  0  0  0  0  0
   32.6304   -9.2101    8.3794 O   0  0  0  0  0  0  0  0  0  0  0  0
   31.7702   -7.5597    7.1491 O   0  0  0  0  0  0  0  0  0  0  0  0
   31.9491   -9.5639    6.1837 F   0  0  0  0  0  0  0  0  0  0  0  0
   30.4078   -9.2543    7.8399 F   0  0  0  0  0  0  0  0  0  0  0  0
   37.3316   -6.7364   14.2281 C   0  0  0  0  0  0  0  0  0  0  0  0
   38.5128   -6.4545   13.6959 N   0  0  0  0  0  0  0  0  0  0  0  0
   39.4608   -5.8354   14.4311 C   0  0  0  0  0  0  0  0  0  0  0  0
   39.2106   -5.4944   15.7287 N   0  0  0  0  0  0  0  0  0  0  0  0
   38.0171   -5.7813   16.2580 C   0  0  0  0  0  0  0  0  0  0  0  0
   37.0818   -6.3958   15.5212 N   0  0  0  0  0  0  0  0  0  0  0  0
   37.8035   -5.4115   17.5949 O   0  0  0  0  0  0  0  0  0  0  0  0
   36.7084   -5.9423   18.3078 C   0  0  0  0  0  0  0  0  0  0  0  0
   40.7337   -5.5075   13.9287 N   0  0  0  0  0  0  0  0  0  0  0  0
  1  2  2  0
  1 19  1  0
 27  1  1  0
  2  3  1  0
  3 17  2  0
  4  5  1  0
  4 11  1  0
  4 27  1  1
  5  6  2  0
  5 10  1  0
  6  7  1  0
  6 28  1  0
  7  8  2  0
  7 29  1  0
  8  9  1  0
  9 10  2  0
 11 12  2  0
 11 25  1  0
 12 13  1  0
 12 26  1  0
 13 14  2  0
 14 15  1  0
 15 25  2  0
 28 16  1  0
 16 29  1  0
 16 30  1  6
 16 31  1  0
 17 18  1  0
 17 21  1  0
 18 19  2  0
 19 20  1  0
 20 32  1  0
 21 22  2  0
 21 23  2  0
 21 24  1  1
 32 33  2  0
 32 37  1  0
 33 34  1  0
 34 35  2  0
 34 40  1  0
 35 36  1  0
 36 37  2  0
 36 38  1  0
 38 39  1  0
M  END
$$$$
