
     RDKit          3D

 40 44  0  0  0  0  0  0  0  0999 V2000
   35.2503   -7.9378   13.5043 C   0  0  0  0  0  0  0  0  0  0  0  0
   34.4739   -8.2251   14.5740 C   0  0  0  0  0  0  0  0  0  0  0  0
   34.7324   -7.8420   15.8892 C   0  0  0  0  0  0  0  0  0  0  0  0
   35.0161   -8.6693   10.8893 C   0  0  1  0  0  0  0  0  0  0  0  0
   33.8705   -8.0730   10.1085 C   0  0  0  0  0  0  0  0  0  0  0  0
   32.7801   -8.8191    9.7248 C   0  0  0  0  0  0  0  0  0  0  0  0
   31.7323   -8.2302    9.0048 C   0  0  0  0  0  0  0  0  0  0  0  0
   31.7888   -6.9052    8.6782 C   0  0  0  0  0  0  0  0  0  0  0  0
   32.8565   -6.1530    9.0481 C   0  0  0  0  0  0  0  0  0  0  0  0
   33.8830   -6.7527    9.7597 C   0  0  0  0  0  0  0  0  0  0  0  0
   36.1975   -8.4505    9.9903 C   0  0  0  0  0  0  0  0  0  0  0  0
   36.7316   -9.3873    9.1749 C   0  0  0  0  0  0  0  0  0  0  0  0
   37.8361   -9.1185    8.3704 C   0  0  0  0  0  0  0  0  0  0  0  0
   38.3944   -7.8771    8.4041 C   0  0  0  0  0  0  0  0  0  0  0  0
   37.8545   -6.9322    9.2269 C   0  0  0  0  0  0  0  0  0  0  0  0
   31.1033  -10.3546    9.4122 C   0  0  1  0  0  0  0  0  0  0  0  0
   35.8596   -7.1160   16.1323 C   0  0  0  0  0  0  0  0  0  0  0  0
   36.6813   -6.7956   15.0895 C   0  0  0  0  0  0  0  0  0  0  0  0
   36.4251   -7.1708   13.8084 C   0  0  0  0  0  0  0  0  0  0  0  0
   37.2916   -6.8065   12.7417 N   0  0  0  0  0  0  0  0  0  0  0  0
   36.2137   -6.6298   17.7783 S   0  0  1  0  0  6  0  0  0  0  0  0
   35.2680   -7.2644   18.7513 O   0  0  0  0  0  0  0  0  0  0  0  0
   37.6147   -7.0389   18.1085 O   0  0  0  0  0  0  0  0  0  0  0  0
   36.0899   -4.9136   17.9792 N   0  0  0  0  0  0  0  0  0  0  0  0
   36.7956   -7.2215    9.9877 N   0  0  0  0  0  0  0  0  0  0  0  0
   36.0121  -10.9798    9.1085 Cl  0  0  0  0  0  0  0  0  0  0  0  0
   35.1312   -8.3097   12.1749 N   0  0  0  0  0  0  0  0  0  0  0  0
   32.4101  -10.1380    9.8824 O   0  0  0  0  0  0  0  0  0  0  0  0
   30.7572   -9.1722    8.7369 O   0  0  0  0  0  0  0  0  0  0  0  0
   31.0110  -11.3765    8.4972 F   0  0  0  0  0  0  0  0  0  0  0  0
   30.2410  -10.5490   10.4812 F   0  0  0  0  0  0  0  0  0  0  0  0
   38.6912   -6.6999   13.0188 C   0  0  0  0  0  0  0  0  0  0  0  0
   39.4952   -5.8681   12.3712 N   0  0  0  0  0  0  0  0  0  0  0  0
   40.8080   -5.8106   12.6806 C   0  0  0  0  0  0  0  0  0  0  0  0
   41.3181   -6.6087   13.6631 N   0  0  0  0  0  0  0  0  0  0  0  0
   40.5011   -7.4444   14.3120 C   0  0  0  0  0  0  0  0  0  0  0  0
   39.1994   -7.4949   13.9986 N   0  0  0  0  0  0  0  0  0  0  0  0
   41.0686   -8.2453   15.3150 O   0  0  0  0  0  0  0  0  0  0  0  0
   40.2373   -8.9559   16.2056 C   0  0  0  0  0  0  0  0  0  0  0  0
   41.7153   -4.9514   12.0336 N   0  0  0  0  0  0  0  0  0  0  0  0
  1  2  2  0
  1 19  1  0
 27  1  1  0
  2  3  1  0
  3 17  2  0
  4  5  1  0
  4 11  1  0
  4 27  1  1
  5  6  2  0
  5 10  1  0
  6  7  1  0
  6 28  1  0
  7  8  2  0
  7 29  1  0
  8  9  1  0
  9 10  2  0
 11 12  2  0
 11 25  1  0
 12 13  1  0
 12 26  1  0
 13 14  2  0
 14 15  1  0
 15 25  2  0
 28 16  1  0
 16 29  1  0
 16 30  1  6
 16 31  1  0
 17 18  1  0
 17 21  1  0
 18 19  2  0
 19 20  1  0
 20 32  1  0
 21 22  2  0
 21 23  2  0
 21 24  1  6
 32 33  2  0
 32 37  1  0
 33 34  1  0
 34 35  2  0
 34 40  1  0
 35 36  1  0
 36 37  2  0
 36 38  1  0
 38 39  1  0
M  END
$$$$
