
     RDKit          3D

 40 44  0  0  0  0  0  0  0  0999 V2000
   34.5078   -9.2925   13.2584 C   0  0  0  0  0  0  0  0  0  0  0  0
   33.9996   -9.8043   14.4027 C   0  0  0  0  0  0  0  0  0  0  0  0
   34.3491   -9.4084   15.6929 C   0  0  0  0  0  0  0  0  0  0  0  0
   34.0727   -9.9780   10.6567 C   0  0  1  0  0  0  0  0  0  0  0  0
   32.7159  -10.5418   10.3118 C   0  0  0  0  0  0  0  0  0  0  0  0
   32.5462  -11.8477    9.9135 C   0  0  0  0  0  0  0  0  0  0  0  0
   31.2702  -12.3380    9.6060 C   0  0  0  0  0  0  0  0  0  0  0  0
   30.1827  -11.5173    9.7004 C   0  0  0  0  0  0  0  0  0  0  0  0
   30.3304  -10.2259   10.0918 C   0  0  0  0  0  0  0  0  0  0  0  0
   31.5999   -9.7588   10.3918 C   0  0  0  0  0  0  0  0  0  0  0  0
   34.2862   -8.9261    9.6081 C   0  0  0  0  0  0  0  0  0  0  0  0
   35.3158   -8.9066    8.7320 C   0  0  0  0  0  0  0  0  0  0  0  0
   35.4580   -7.8935    7.7870 C   0  0  0  0  0  0  0  0  0  0  0  0
   34.5342   -6.8942    7.7423 C   0  0  0  0  0  0  0  0  0  0  0  0
   33.4954   -6.9150    8.6265 C   0  0  0  0  0  0  0  0  0  0  0  0
   32.6772  -14.0896    9.4400 C   0  0  1  0  0  0  0  0  0  0  0  0
   35.2807   -8.4231   15.8274 C   0  0  0  0  0  0  0  0  0  0  0  0
   35.8279   -7.8685   14.7057 C   0  0  0  0  0  0  0  0  0  0  0  0
   35.4837   -8.2572   13.4494 C   0  0  0  0  0  0  0  0  0  0  0  0
   36.0592   -7.6479   12.3009 N   0  0  0  0  0  0  0  0  0  0  0  0
   35.7456   -7.9132   17.4383 S   0  0  1  0  0  6  0  0  0  0  0  0
   35.6474   -6.4263   17.5907 O   0  0  0  0  0  0  0  0  0  0  0  0
   34.8418   -8.5750   18.4305 O   0  0  0  0  0  0  0  0  0  0  0  0
   37.3767   -8.3656   17.8069 N   0  0  0  0  0  0  0  0  0  0  0  0
   33.3877   -7.8998    9.5221 N   0  0  0  0  0  0  0  0  0  0  0  0
   36.4983  -10.1944    8.7668 Cl  0  0  0  0  0  0  0  0  0  0  0  0
   34.2866   -9.6410   11.9358 N   0  0  0  0  0  0  0  0  0  0  0  0
   33.3973  -12.9147    9.7177 O   0  0  0  0  0  0  0  0  0  0  0  0
   31.3531  -13.6668    9.2350 O   0  0  0  0  0  0  0  0  0  0  0  0
   33.0769  -14.7189    8.2850 F   0  0  0  0  0  0  0  0  0  0  0  0
   32.7284  -14.9458   10.5302 F   0  0  0  0  0  0  0  0  0  0  0  0
   37.1238   -6.7127   12.4981 C   0  0  0  0  0  0  0  0  0  0  0  0
   37.7192   -6.0739   11.5004 N   0  0  0  0  0  0  0  0  0  0  0  0
   38.7170   -5.1996   11.7505 C   0  0  0  0  0  0  0  0  0  0  0  0
   39.1209   -4.9663   13.0331 N   0  0  0  0  0  0  0  0  0  0  0  0
   38.5154   -5.6136   14.0337 C   0  0  0  0  0  0  0  0  0  0  0  0
   37.5257   -6.4795   13.7765 N   0  0  0  0  0  0  0  0  0  0  0  0
   38.9624   -5.3420   15.3360 O   0  0  0  0  0  0  0  0  0  0  0  0
   38.2278   -5.8078   16.4461 C   0  0  0  0  0  0  0  0  0  0  0  0
   39.3903   -4.4891   10.7397 N   0  0  0  0  0  0  0  0  0  0  0  0
  1  2  2  0
  1 19  1  0
 27  1  1  0
  2  3  1  0
  3 17  2  0
  4  5  1  0
  4 11  1  0
  4 27  1  1
  5  6  2  0
  5 10  1  0
  6  7  1  0
  6 28  1  0
  7  8  2  0
  7 29  1  0
  8  9  1  0
  9 10  2  0
 11 12  2  0
 11 25  1  0
 12 13  1  0
 12 26  1  0
 13 14  2  0
 14 15  1  0
 15 25  2  0
 28 16  1  0
 16 29  1  0
 16 30  1  6
 16 31  1  0
 17 18  1  0
 17 21  1  0
 18 19  2  0
 19 20  1  0
 20 32  1  0
 21 22  2  0
 21 23  2  0
 21 24  1  1
 32 33  2  0
 32 37  1  0
 33 34  1  0
 34 35  2  0
 34 40  1  0
 35 36  1  0
 36 37  2  0
 36 38  1  0
 38 39  1  0
M  END
$$$$
