
     RDKit          3D

 40 44  0  0  0  0  0  0  0  0999 V2000
   36.1394   -9.2049   12.4347 C   0  0  0  0  0  0  0  0  0  0  0  0
   36.6084   -9.7530   13.5789 C   0  0  0  0  0  0  0  0  0  0  0  0
   37.5567   -9.1781   14.4236 C   0  0  0  0  0  0  0  0  0  0  0  0
   34.3959  -10.1797   10.5804 C   0  0  1  0  0  0  0  0  0  0  0  0
   33.1803  -10.9100   11.0967 C   0  0  0  0  0  0  0  0  0  0  0  0
   32.7866  -12.1261   10.5876 C   0  0  0  0  0  0  0  0  0  0  0  0
   31.6550  -12.7777   11.0954 C   0  0  0  0  0  0  0  0  0  0  0  0
   30.9330  -12.2055   12.1037 C   0  0  0  0  0  0  0  0  0  0  0  0
   31.3061  -11.0063   12.6188 C   0  0  0  0  0  0  0  0  0  0  0  0
   32.4279  -10.3769   12.1039 C   0  0  0  0  0  0  0  0  0  0  0  0
   33.8224   -9.2177    9.5816 C   0  0  0  0  0  0  0  0  0  0  0  0
   34.2324   -9.1005    8.2986 C   0  0  0  0  0  0  0  0  0  0  0  0
   33.6601   -8.1791    7.4251 C   0  0  0  0  0  0  0  0  0  0  0  0
   32.6586   -7.3734    7.8743 C   0  0  0  0  0  0  0  0  0  0  0  0
   32.2452   -7.4927    9.1690 C   0  0  0  0  0  0  0  0  0  0  0  0
   32.5612  -14.1749    9.5783 C   0  0  1  0  0  0  0  0  0  0  0  0
   38.0627   -7.9606   14.0795 C   0  0  0  0  0  0  0  0  0  0  0  0
   37.6250   -7.3587   12.9344 C   0  0  0  0  0  0  0  0  0  0  0  0
   36.6996   -7.9227   12.1138 C   0  0  0  0  0  0  0  0  0  0  0  0
   36.2515   -7.2626   10.9371 N   0  0  0  0  0  0  0  0  0  0  0  0
   39.2637   -7.2197   15.1187 S   0  0  1  0  0  6  0  0  0  0  0  0
   38.7391   -5.9696   15.7556 O   0  0  0  0  0  0  0  0  0  0  0  0
   39.6448   -8.1982   16.1848 O   0  0  0  0  0  0  0  0  0  0  0  0
   40.6944   -6.7929   14.2400 N   0  0  0  0  0  0  0  0  0  0  0  0
   32.8153   -8.3853    9.9826 N   0  0  0  0  0  0  0  0  0  0  0  0
   35.5049  -10.1425    7.7045 Cl  0  0  0  0  0  0  0  0  0  0  0  0
   35.2531   -9.7004   11.4920 N   0  0  0  0  0  0  0  0  0  0  0  0
   33.2688  -12.9606    9.6014 O   0  0  0  0  0  0  0  0  0  0  0  0
   31.4626  -13.9740   10.4308 O   0  0  0  0  0  0  0  0  0  0  0  0
   32.0518  -14.4904    8.3410 F   0  0  0  0  0  0  0  0  0  0  0  0
   33.3562  -15.1964   10.0771 F   0  0  0  0  0  0  0  0  0  0  0  0
   36.4399   -5.8472   10.8470 C   0  0  0  0  0  0  0  0  0  0  0  0
   37.0183   -5.1325   11.8022 N   0  0  0  0  0  0  0  0  0  0  0  0
   37.1707   -3.7989   11.6574 C   0  0  0  0  0  0  0  0  0  0  0  0
   36.7303   -3.1756   10.5260 N   0  0  0  0  0  0  0  0  0  0  0  0
   36.1488   -3.9031    9.5671 C   0  0  0  0  0  0  0  0  0  0  0  0
   36.0017   -5.2262    9.7188 N   0  0  0  0  0  0  0  0  0  0  0  0
   35.7124   -3.2208    8.4209 O   0  0  0  0  0  0  0  0  0  0  0  0
   34.9730   -3.9026    7.4322 C   0  0  0  0  0  0  0  0  0  0  0  0
   37.7750   -2.9822   12.6310 N   0  0  0  0  0  0  0  0  0  0  0  0
  1  2  2  0
  1 19  1  0
 27  1  1  0
  2  3  1  0
  3 17  2  0
  4  5  1  0
  4 11  1  0
  4 27  1  1
  5  6  2  0
  5 10  1  0
  6  7  1  0
  6 28  1  0
  7  8  2  0
  7 29  1  0
  8  9  1  0
  9 10  2  0
 11 12  2  0
 11 25  1  0
 12 13  1  0
 12 26  1  0
 13 14  2  0
 14 15  1  0
 15 25  2  0
 28 16  1  0
 16 29  1  0
 16 30  1  6
 16 31  1  0
 17 18  1  0
 17 21  1  0
 18 19  2  0
 19 20  1  0
 20 32  1  0
 21 22  2  0
 21 23  2  0
 21 24  1  6
 32 33  2  0
 32 37  1  0
 33 34  1  0
 34 35  2  0
 34 40  1  0
 35 36  1  0
 36 37  2  0
 36 38  1  0
 38 39  1  0
M  END
$$$$
