
     RDKit          3D

 40 44  0  0  0  0  0  0  0  0999 V2000
   34.7782   -6.5249   15.9786 C   0  0  0  0  0  0  0  0  0  0  0  0
   33.5042   -6.9415   16.1602 C   0  0  0  0  0  0  0  0  0  0  0  0
   32.7337   -6.7192   17.3005 C   0  0  0  0  0  0  0  0  0  0  0  0
   36.5059   -6.9362   13.9112 C   0  0  1  0  0  0  0  0  0  0  0  0
   35.9813   -6.6907   12.5176 C   0  0  0  0  0  0  0  0  0  0  0  0
   35.9514   -7.6804   11.5624 C   0  0  0  0  0  0  0  0  0  0  0  0
   35.4524   -7.4171   10.2799 C   0  0  0  0  0  0  0  0  0  0  0  0
   34.9911   -6.1696    9.9699 C   0  0  0  0  0  0  0  0  0  0  0  0
   35.0126   -5.1804   10.8993 C   0  0  0  0  0  0  0  0  0  0  0  0
   35.5096   -5.4594   12.1621 C   0  0  0  0  0  0  0  0  0  0  0  0
   37.8087   -6.1918   13.9259 C   0  0  0  0  0  0  0  0  0  0  0  0
   39.0298   -6.7721   13.9388 C   0  0  0  0  0  0  0  0  0  0  0  0
   40.2014   -6.0195   13.9598 C   0  0  0  0  0  0  0  0  0  0  0  0
   40.1163   -4.6605   13.9666 C   0  0  0  0  0  0  0  0  0  0  0  0
   38.8836   -4.0758   13.9532 C   0  0  0  0  0  0  0  0  0  0  0  0
   35.9404   -9.6159   10.3291 C   0  0  1  0  0  0  0  0  0  0  0  0
   33.2995   -6.0245   18.3272 C   0  0  0  0  0  0  0  0  0  0  0  0
   34.5838   -5.5782   18.1993 C   0  0  0  0  0  0  0  0  0  0  0  0
   35.3315   -5.7968   17.0853 C   0  0  0  0  0  0  0  0  0  0  0  0
   36.6606   -5.3040   16.9758 N   0  0  0  0  0  0  0  0  0  0  0  0
   32.3562   -5.7395   19.7765 S   0  0  1  0  0  6  0  0  0  0  0  0
   31.5324   -6.9375   20.1370 O   0  0  0  0  0  0  0  0  0  0  0  0
   33.2900   -5.4219   20.9019 O   0  0  0  0  0  0  0  0  0  0  0  0
   31.2709   -4.4035   19.5811 N   0  0  0  0  0  0  0  0  0  0  0  0
   37.7784   -4.8254   13.9347 N   0  0  0  0  0  0  0  0  0  0  0  0
   39.1526   -8.5163   13.9110 Cl  0  0  0  0  0  0  0  0  0  0  0  0
   35.6565   -6.7340   14.9276 N   0  0  0  0  0  0  0  0  0  0  0  0
   36.3245   -9.0076   11.5367 O   0  0  0  0  0  0  0  0  0  0  0  0
   35.5239   -8.5581    9.5034 O   0  0  0  0  0  0  0  0  0  0  0  0
   36.9746  -10.2452    9.6776 F   0  0  0  0  0  0  0  0  0  0  0  0
   34.8775  -10.4794   10.5502 F   0  0  0  0  0  0  0  0  0  0  0  0
   37.1070   -4.3523   17.9464 C   0  0  0  0  0  0  0  0  0  0  0  0
   36.2843   -3.5356   18.5898 N   0  0  0  0  0  0  0  0  0  0  0  0
   36.7658   -2.6605   19.4981 C   0  0  0  0  0  0  0  0  0  0  0  0
   38.1039   -2.6097   19.7613 N   0  0  0  0  0  0  0  0  0  0  0  0
   38.9269   -3.4368   19.1091 C   0  0  0  0  0  0  0  0  0  0  0  0
   38.4406   -4.3024   18.2093 N   0  0  0  0  0  0  0  0  0  0  0  0
   40.2945   -3.3505   19.4122 O   0  0  0  0  0  0  0  0  0  0  0  0
   41.0444   -2.2367   18.9805 C   0  0  0  0  0  0  0  0  0  0  0  0
   35.9490   -1.7670   20.2154 N   0  0  0  0  0  0  0  0  0  0  0  0
  1  2  2  0
  1 19  1  0
 27  1  1  0
  2  3  1  0
  3 17  2  0
  4  5  1  0
  4 11  1  0
  4 27  1  1
  5  6  2  0
  5 10  1  0
  6  7  1  0
  6 28  1  0
  7  8  2  0
  7 29  1  0
  8  9  1  0
  9 10  2  0
 11 12  2  0
 11 25  1  0
 12 13  1  0
 12 26  1  0
 13 14  2  0
 14 15  1  0
 15 25  2  0
 28 16  1  0
 16 29  1  0
 16 30  1  6
 16 31  1  0
 17 18  1  0
 17 21  1  0
 18 19  2  0
 19 20  1  0
 20 32  1  0
 21 22  2  0
 21 23  2  0
 21 24  1  6
 32 33  2  0
 32 37  1  0
 33 34  1  0
 34 35  2  0
 34 40  1  0
 35 36  1  0
 36 37  2  0
 36 38  1  0
 38 39  1  0
M  END
$$$$
