
     RDKit          3D

 40 44  0  0  0  0  0  0  0  0999 V2000
   34.7047   -8.9209   13.7951 C   0  0  0  0  0  0  0  0  0  0  0  0
   33.7698   -9.4371   14.6253 C   0  0  0  0  0  0  0  0  0  0  0  0
   33.7960   -9.3691   16.0174 C   0  0  0  0  0  0  0  0  0  0  0  0
   34.9275   -9.0300   11.0809 C   0  0  1  0  0  0  0  0  0  0  0  0
   34.1571   -8.0043   10.2860 C   0  0  0  0  0  0  0  0  0  0  0  0
   33.1480   -8.3572    9.4200 C   0  0  0  0  0  0  0  0  0  0  0  0
   32.4507   -7.3766    8.7020 C   0  0  0  0  0  0  0  0  0  0  0  0
   32.7714   -6.0584    8.8591 C   0  0  0  0  0  0  0  0  0  0  0  0
   33.7639   -5.6910    9.7091 C   0  0  0  0  0  0  0  0  0  0  0  0
   34.4423   -6.6746   10.4105 C   0  0  0  0  0  0  0  0  0  0  0  0
   36.3035   -8.9656   10.4860 C   0  0  0  0  0  0  0  0  0  0  0  0
   36.8109   -9.8653    9.6137 C   0  0  0  0  0  0  0  0  0  0  0  0
   38.1021   -9.7490    9.1051 C   0  0  0  0  0  0  0  0  0  0  0  0
   38.8764   -8.6994    9.4957 C   0  0  0  0  0  0  0  0  0  0  0  0
   38.3635   -7.7917   10.3757 C   0  0  0  0  0  0  0  0  0  0  0  0
   31.4631   -9.3411    8.2115 C   0  0  1  0  0  0  0  0  0  0  0  0
   34.8469   -8.7313   16.6052 C   0  0  0  0  0  0  0  0  0  0  0  0
   35.8210   -8.1895   15.8161 C   0  0  0  0  0  0  0  0  0  0  0  0
   35.7912   -8.2576   14.4587 C   0  0  0  0  0  0  0  0  0  0  0  0
   36.8123   -7.6683   13.6641 N   0  0  0  0  0  0  0  0  0  0  0  0
   34.9096   -8.6399   18.3542 S   0  0  1  0  0  6  0  0  0  0  0  0
   34.3317   -9.8685   18.9869 O   0  0  0  0  0  0  0  0  0  0  0  0
   36.3375   -8.4888   18.7758 O   0  0  0  0  0  0  0  0  0  0  0  0
   34.0213   -7.2799   18.9562 N   0  0  0  0  0  0  0  0  0  0  0  0
   37.1216   -7.9318   10.8468 N   0  0  0  0  0  0  0  0  0  0  0  0
   35.8196  -11.2074    9.0897 Cl  0  0  0  0  0  0  0  0  0  0  0  0
   34.8179   -8.9763   12.4153 N   0  0  0  0  0  0  0  0  0  0  0  0
   32.5831   -9.5543    9.0337 O   0  0  0  0  0  0  0  0  0  0  0  0
   31.4906   -7.9703    7.9046 O   0  0  0  0  0  0  0  0  0  0  0  0
   31.5224  -10.0174    7.0161 F   0  0  0  0  0  0  0  0  0  0  0  0
   30.3005   -9.6384    8.9076 F   0  0  0  0  0  0  0  0  0  0  0  0
   37.2487   -6.3481   14.0010 C   0  0  0  0  0  0  0  0  0  0  0  0
   38.0896   -5.6508   13.2497 N   0  0  0  0  0  0  0  0  0  0  0  0
   38.4622   -4.4069   13.6192 C   0  0  0  0  0  0  0  0  0  0  0  0
   37.9756   -3.8570   14.7697 N   0  0  0  0  0  0  0  0  0  0  0  0
   37.1276   -4.5660   15.5215 C   0  0  0  0  0  0  0  0  0  0  0  0
   36.7630   -5.7998   15.1472 N   0  0  0  0  0  0  0  0  0  0  0  0
   36.6520   -3.9607   16.6949 O   0  0  0  0  0  0  0  0  0  0  0  0
   35.6237   -4.5752   17.4394 C   0  0  0  0  0  0  0  0  0  0  0  0
   39.3498   -3.6136   12.8691 N   0  0  0  0  0  0  0  0  0  0  0  0
  1  2  2  0
  1 19  1  0
 27  1  1  0
  2  3  1  0
  3 17  2  0
  4  5  1  0
  4 11  1  0
  4 27  1  1
  5  6  2  0
  5 10  1  0
  6  7  1  0
  6 28  1  0
  7  8  2  0
  7 29  1  0
  8  9  1  0
  9 10  2  0
 11 12  2  0
 11 25  1  0
 12 13  1  0
 12 26  1  0
 13 14  2  0
 14 15  1  0
 15 25  2  0
 28 16  1  0
 16 29  1  0
 16 30  1  6
 16 31  1  0
 17 18  1  0
 17 21  1  0
 18 19  2  0
 19 20  1  0
 20 32  1  0
 21 22  2  0
 21 23  2  0
 21 24  1  1
 32 33  2  0
 32 37  1  0
 33 34  1  0
 34 35  2  0
 34 40  1  0
 35 36  1  0
 36 37  2  0
 36 38  1  0
 38 39  1  0
M  END
$$$$
