
     RDKit          3D

 40 44  0  0  0  0  0  0  0  0999 V2000
   34.6011   -7.2849   13.6002 C   0  0  0  0  0  0  0  0  0  0  0  0
   33.8589   -6.9037   14.6649 C   0  0  0  0  0  0  0  0  0  0  0  0
   34.3604   -6.3950   15.8620 C   0  0  0  0  0  0  0  0  0  0  0  0
   33.8630   -8.4050   11.2277 C   0  0  1  0  0  0  0  0  0  0  0  0
   34.5049   -7.8538    9.9780 C   0  0  0  0  0  0  0  0  0  0  0  0
   33.7871   -7.1572    9.0333 C   0  0  0  0  0  0  0  0  0  0  0  0
   34.4179   -6.6555    7.8872 C   0  0  0  0  0  0  0  0  0  0  0  0
   35.7559   -6.8570    7.7011 C   0  0  0  0  0  0  0  0  0  0  0  0
   36.4806   -7.5417    8.6222 C   0  0  0  0  0  0  0  0  0  0  0  0
   35.8396   -8.0303    9.7492 C   0  0  0  0  0  0  0  0  0  0  0  0
   34.0223   -9.8889   11.0719 C   0  0  0  0  0  0  0  0  0  0  0  0
   33.0012  -10.7670   10.9520 C   0  0  0  0  0  0  0  0  0  0  0  0
   33.2203  -12.1357   10.8179 C   0  0  0  0  0  0  0  0  0  0  0  0
   34.4987  -12.6044   10.8061 C   0  0  0  0  0  0  0  0  0  0  0  0
   35.5285  -11.7175   10.9267 C   0  0  0  0  0  0  0  0  0  0  0  0
   32.2828   -5.9428    7.7966 C   0  0  1  0  0  0  0  0  0  0  0  0
   35.7114   -6.2654   15.9837 C   0  0  0  0  0  0  0  0  0  0  0  0
   36.5110   -6.6340   14.9396 C   0  0  0  0  0  0  0  0  0  0  0  0
   36.0176   -7.1291   13.7738 C   0  0  0  0  0  0  0  0  0  0  0  0
   36.8757   -7.4879   12.6984 N   0  0  0  0  0  0  0  0  0  0  0  0
   36.3692   -5.6377   17.4819 S   0  0  1  0  0  6  0  0  0  0  0  0
   37.6403   -4.8811   17.2463 O   0  0  0  0  0  0  0  0  0  0  0  0
   35.3579   -4.7281   18.1058 O   0  0  0  0  0  0  0  0  0  0  0  0
   36.7220   -6.9067   18.6071 N   0  0  0  0  0  0  0  0  0  0  0  0
   35.2855  -10.4106   11.0554 N   0  0  0  0  0  0  0  0  0  0  0  0
   31.3555  -10.1756   10.9468 Cl  0  0  0  0  0  0  0  0  0  0  0  0
   34.2259   -7.8543   12.3941 N   0  0  0  0  0  0  0  0  0  0  0  0
   32.4657   -6.7836    8.9081 O   0  0  0  0  0  0  0  0  0  0  0  0
   33.4981   -5.9967    7.0935 O   0  0  0  0  0  0  0  0  0  0  0  0
   31.3049   -6.3777    6.9338 F   0  0  0  0  0  0  0  0  0  0  0  0
   32.0475   -4.6427    8.2193 F   0  0  0  0  0  0  0  0  0  0  0  0
   38.2878   -7.4578   12.9262 C   0  0  0  0  0  0  0  0  0  0  0  0
   39.1604   -7.0696   12.0066 N   0  0  0  0  0  0  0  0  0  0  0  0
   40.4819   -7.0599   12.2828 C   0  0  0  0  0  0  0  0  0  0  0  0
   40.9301   -7.4497   13.5115 N   0  0  0  0  0  0  0  0  0  0  0  0
   40.0442   -7.8391   14.4336 C   0  0  0  0  0  0  0  0  0  0  0  0
   38.7344   -7.8455   14.1512 N   0  0  0  0  0  0  0  0  0  0  0  0
   40.5497   -8.2303   15.6829 O   0  0  0  0  0  0  0  0  0  0  0  0
   39.6659   -8.5137   16.7449 C   0  0  0  0  0  0  0  0  0  0  0  0
   41.4603   -6.6600   11.3539 N   0  0  0  0  0  0  0  0  0  0  0  0
  1  2  2  0
  1 19  1  0
 27  1  1  0
  2  3  1  0
  3 17  2  0
  4  5  1  0
  4 11  1  0
  4 27  1  1
  5  6  2  0
  5 10  1  0
  6  7  1  0
  6 28  1  0
  7  8  2  0
  7 29  1  0
  8  9  1  0
  9 10  2  0
 11 12  2  0
 11 25  1  0
 12 13  1  0
 12 26  1  0
 13 14  2  0
 14 15  1  0
 15 25  2  0
 28 16  1  0
 16 29  1  0
 16 30  1  6
 16 31  1  0
 17 18  1  0
 17 21  1  0
 18 19  2  0
 19 20  1  0
 20 32  1  0
 21 22  2  0
 21 23  2  0
 21 24  1  1
 32 33  2  0
 32 37  1  0
 33 34  1  0
 34 35  2  0
 34 40  1  0
 35 36  1  0
 36 37  2  0
 36 38  1  0
 38 39  1  0
M  END
$$$$
