
     RDKit          3D

 40 44  0  0  0  0  0  0  0  0999 V2000
   35.5905   -0.3961   19.4053 C   0  0  0  0  0  0  0  0  0  0  0  0
   36.1444    0.5896   18.6628 C   0  0  0  0  0  0  0  0  0  0  0  0
   35.7886    1.9367   18.7093 C   0  0  0  0  0  0  0  0  0  0  0  0
   36.0321   -3.0855   19.4037 C   0  0  1  0  0  0  0  0  0  0  0  0
   35.8087   -3.8197   20.7032 C   0  0  0  0  0  0  0  0  0  0  0  0
   36.8115   -4.5266   21.3257 C   0  0  0  0  0  0  0  0  0  0  0  0
   36.5687   -5.1921   22.5345 C   0  0  0  0  0  0  0  0  0  0  0  0
   35.3283   -5.1422   23.1039 C   0  0  0  0  0  0  0  0  0  0  0  0
   34.3264   -4.4497   22.5045 C   0  0  0  0  0  0  0  0  0  0  0  0
   34.5852   -3.7979   21.3096 C   0  0  0  0  0  0  0  0  0  0  0  0
   35.2861   -3.9192   18.4035 C   0  0  0  0  0  0  0  0  0  0  0  0
   35.8470   -4.8591   17.6099 C   0  0  0  0  0  0  0  0  0  0  0  0
   35.0955   -5.5932   16.6956 C   0  0  0  0  0  0  0  0  0  0  0  0
   33.7576   -5.3594   16.5978 C   0  0  0  0  0  0  0  0  0  0  0  0
   33.1925   -4.4111   17.3995 C   0  0  0  0  0  0  0  0  0  0  0  0
   38.7636   -5.4528   22.0994 C   0  0  1  0  0  0  0  0  0  0  0  0
   34.8002    2.3059   19.5716 C   0  0  0  0  0  0  0  0  0  0  0  0
   34.2051    1.3526   20.3476 C   0  0  0  0  0  0  0  0  0  0  0  0
   34.5556    0.0401   20.2994 C   0  0  0  0  0  0  0  0  0  0  0  0
   33.9285   -0.9259   21.1330 N   0  0  0  0  0  0  0  0  0  0  0  0
   34.3265    3.9917   19.6430 S   0  0  1  0  0  6  0  0  0  0  0  0
   33.9654    4.3994   21.0384 O   0  0  0  0  0  0  0  0  0  0  0  0
   35.4669    4.8313   19.1595 O   0  0  0  0  0  0  0  0  0  0  0  0
   32.9535    4.3137   18.6369 N   0  0  0  0  0  0  0  0  0  0  0  0
   33.9407   -3.7226   18.2654 N   0  0  0  0  0  0  0  0  0  0  0  0
   37.5608   -5.1818   17.7393 Cl  0  0  0  0  0  0  0  0  0  0  0  0
   35.8149   -1.7633   19.4044 N   0  0  0  0  0  0  0  0  0  0  0  0
   38.1367   -4.7769   21.0383 O   0  0  0  0  0  0  0  0  0  0  0  0
   37.7198   -5.8260   22.9626 O   0  0  0  0  0  0  0  0  0  0  0  0
   39.3956   -6.6117   21.7156 F   0  0  0  0  0  0  0  0  0  0  0  0
   39.6303   -4.5955   22.7614 F   0  0  0  0  0  0  0  0  0  0  0  0
   32.7510   -0.5359   21.8461 C   0  0  0  0  0  0  0  0  0  0  0  0
   32.4866    0.7216   22.1724 N   0  0  0  0  0  0  0  0  0  0  0  0
   31.3559    1.0278   22.8435 C   0  0  0  0  0  0  0  0  0  0  0  0
   30.4756    0.0446   23.1914 N   0  0  0  0  0  0  0  0  0  0  0  0
   30.7489   -1.2208   22.8583 C   0  0  0  0  0  0  0  0  0  0  0  0
   31.8733   -1.5158   22.1921 N   0  0  0  0  0  0  0  0  0  0  0  0
   29.8153   -2.1985   23.2354 O   0  0  0  0  0  0  0  0  0  0  0  0
   30.0624   -3.5576   22.9507 C   0  0  0  0  0  0  0  0  0  0  0  0
   31.0147    2.3400   23.2201 N   0  0  0  0  0  0  0  0  0  0  0  0
  1  2  2  0
  1 19  1  0
 27  1  1  0
  2  3  1  0
  3 17  2  0
  4  5  1  0
  4 11  1  0
  4 27  1  1
  5  6  2  0
  5 10  1  0
  6  7  1  0
  6 28  1  0
  7  8  2  0
  7 29  1  0
  8  9  1  0
  9 10  2  0
 11 12  2  0
 11 25  1  0
 12 13  1  0
 12 26  1  0
 13 14  2  0
 14 15  1  0
 15 25  2  0
 28 16  1  0
 16 29  1  0
 16 30  1  6
 16 31  1  0
 17 18  1  0
 17 21  1  0
 18 19  2  0
 19 20  1  0
 20 32  1  0
 21 22  2  0
 21 23  2  0
 21 24  1  6
 32 33  2  0
 32 37  1  0
 33 34  1  0
 34 35  2  0
 34 40  1  0
 35 36  1  0
 36 37  2  0
 36 38  1  0
 38 39  1  0
M  END
$$$$
