
     RDKit          3D

 40 44  0  0  0  0  0  0  0  0999 V2000
   33.5377   -9.1550   13.1854 C   0  0  0  0  0  0  0  0  0  0  0  0
   32.4019   -9.5642   13.7955 C   0  0  0  0  0  0  0  0  0  0  0  0
   32.1841   -9.5855   15.1723 C   0  0  0  0  0  0  0  0  0  0  0  0
   34.2322   -9.1341   10.5500 C   0  0  1  0  0  0  0  0  0  0  0  0
   33.7972   -7.9415    9.7338 C   0  0  0  0  0  0  0  0  0  0  0  0
   33.1978   -8.0769    8.5028 C   0  0  0  0  0  0  0  0  0  0  0  0
   32.8023   -6.9466    7.7754 C   0  0  0  0  0  0  0  0  0  0  0  0
   33.0114   -5.6979    8.2875 C   0  0  0  0  0  0  0  0  0  0  0  0
   33.6013   -5.5444    9.5004 C   0  0  0  0  0  0  0  0  0  0  0  0
   33.9856   -6.6737   10.2052 C   0  0  0  0  0  0  0  0  0  0  0  0
   35.6857   -9.2765   10.2055 C   0  0  0  0  0  0  0  0  0  0  0  0
   36.2255  -10.3313    9.5545 C   0  0  0  0  0  0  0  0  0  0  0  0
   37.5875  -10.4030    9.2729 C   0  0  0  0  0  0  0  0  0  0  0  0
   38.3997   -9.3821    9.6628 C   0  0  0  0  0  0  0  0  0  0  0  0
   37.8540   -8.3178   10.3193 C   0  0  0  0  0  0  0  0  0  0  0  0
   32.1157   -8.7341    6.5886 C   0  0  1  0  0  0  0  0  0  0  0  0
   33.1925   -9.1606   15.9843 C   0  0  0  0  0  0  0  0  0  0  0  0
   34.3626   -8.7350   15.4233 C   0  0  0  0  0  0  0  0  0  0  0  0
   34.5707   -8.7154   14.0801 C   0  0  0  0  0  0  0  0  0  0  0  0
   35.7945   -8.2501   13.5261 N   0  0  0  0  0  0  0  0  0  0  0  0
   32.9486   -9.1863   17.7195 S   0  0  1  0  0  6  0  0  0  0  0  0
   33.9662   -8.3452   18.4271 O   0  0  0  0  0  0  0  0  0  0  0  0
   31.5782   -8.6650   18.0191 O   0  0  0  0  0  0  0  0  0  0  0  0
   33.0680  -10.7920   18.3588 N   0  0  0  0  0  0  0  0  0  0  0  0
   36.5439   -8.2794   10.5760 N   0  0  0  0  0  0  0  0  0  0  0  0
   35.1899  -11.6400    9.0318 Cl  0  0  0  0  0  0  0  0  0  0  0  0
   33.8907   -9.1444   11.8456 N   0  0  0  0  0  0  0  0  0  0  0  0
   32.8465   -9.1521    7.7142 O   0  0  0  0  0  0  0  0  0  0  0  0
   32.2276   -7.3335    6.5796 O   0  0  0  0  0  0  0  0  0  0  0  0
   32.6367   -9.1821    5.3979 F   0  0  0  0  0  0  0  0  0  0  0  0
   30.7831   -9.0932    6.7285 F   0  0  0  0  0  0  0  0  0  0  0  0
   36.6946   -7.5419   14.3835 C   0  0  0  0  0  0  0  0  0  0  0  0
   37.8728   -7.0883   13.9786 N   0  0  0  0  0  0  0  0  0  0  0  0
   38.6775   -6.4235   14.8348 C   0  0  0  0  0  0  0  0  0  0  0  0
   38.2843   -6.2130   16.1246 N   0  0  0  0  0  0  0  0  0  0  0  0
   37.0948   -6.6727   16.5252 C   0  0  0  0  0  0  0  0  0  0  0  0
   36.3022   -7.3313   15.6688 N   0  0  0  0  0  0  0  0  0  0  0  0
   36.7312   -6.4325   17.8592 O   0  0  0  0  0  0  0  0  0  0  0  0
   35.9686   -7.3857   18.5657 C   0  0  0  0  0  0  0  0  0  0  0  0
   39.9386   -5.9163   14.4707 N   0  0  0  0  0  0  0  0  0  0  0  0
  1  2  2  0
  1 19  1  0
 27  1  1  0
  2  3  1  0
  3 17  2  0
  4  5  1  0
  4 11  1  0
  4 27  1  1
  5  6  2  0
  5 10  1  0
  6  7  1  0
  6 28  1  0
  7  8  2  0
  7 29  1  0
  8  9  1  0
  9 10  2  0
 11 12  2  0
 11 25  1  0
 12 13  1  0
 12 26  1  0
 13 14  2  0
 14 15  1  0
 15 25  2  0
 28 16  1  0
 16 29  1  0
 16 30  1  6
 16 31  1  0
 17 18  1  0
 17 21  1  0
 18 19  2  0
 19 20  1  0
 20 32  1  0
 21 22  2  0
 21 23  2  0
 21 24  1  1
 32 33  2  0
 32 37  1  0
 33 34  1  0
 34 35  2  0
 34 40  1  0
 35 36  1  0
 36 37  2  0
 36 38  1  0
 38 39  1  0
M  END
$$$$
