
     RDKit          3D

 40 44  0  0  0  0  0  0  0  0999 V2000
   34.4645   -3.5082   15.6642 C   0  0  0  0  0  0  0  0  0  0  0  0
   33.5305   -2.6215   15.2505 C   0  0  0  0  0  0  0  0  0  0  0  0
   33.0285   -1.5621   16.0049 C   0  0  0  0  0  0  0  0  0  0  0  0
   35.5026   -5.7041   14.4280 C   0  0  1  0  0  0  0  0  0  0  0  0
   35.8023   -5.5857   12.9536 C   0  0  0  0  0  0  0  0  0  0  0  0
   35.0507   -6.2329   12.0001 C   0  0  0  0  0  0  0  0  0  0  0  0
   35.3554   -6.0956   10.6395 C   0  0  0  0  0  0  0  0  0  0  0  0
   36.4062   -5.3145   10.2509 C   0  0  0  0  0  0  0  0  0  0  0  0
   37.1591   -4.6681   11.1772 C   0  0  0  0  0  0  0  0  0  0  0  0
   36.8427   -4.8158   12.5180 C   0  0  0  0  0  0  0  0  0  0  0  0
   36.7614   -6.2969   14.9897 C   0  0  0  0  0  0  0  0  0  0  0  0
   36.8799   -7.5614   15.4532 C   0  0  0  0  0  0  0  0  0  0  0  0
   38.0790   -8.0460   15.9695 C   0  0  0  0  0  0  0  0  0  0  0  0
   39.1641   -7.2244   16.0085 C   0  0  0  0  0  0  0  0  0  0  0  0
   39.0438   -5.9487   15.5402 C   0  0  0  0  0  0  0  0  0  0  0  0
   33.4827   -7.3432   10.7448 C   0  0  1  0  0  0  0  0  0  0  0  0
   33.5108   -1.3937   17.2682 C   0  0  0  0  0  0  0  0  0  0  0  0
   34.4565   -2.2591   17.7391 C   0  0  0  0  0  0  0  0  0  0  0  0
   34.9437   -3.2906   16.9998 C   0  0  0  0  0  0  0  0  0  0  0  0
   35.9412   -4.1643   17.5128 N   0  0  0  0  0  0  0  0  0  0  0  0
   32.8895   -0.0756   18.2418 S   0  0  1  0  0  6  0  0  0  0  0  0
   33.5738    1.2159   17.9139 O   0  0  0  0  0  0  0  0  0  0  0  0
   31.4217    0.0606   17.9842 O   0  0  0  0  0  0  0  0  0  0  0  0
   33.1167   -0.3678   19.9341 N   0  0  0  0  0  0  0  0  0  0  0  0
   37.8793   -5.5131   15.0524 N   0  0  0  0  0  0  0  0  0  0  0  0
   35.4987   -8.6323   15.3911 Cl  0  0  0  0  0  0  0  0  0  0  0  0
   34.9921   -4.6245   15.0358 N   0  0  0  0  0  0  0  0  0  0  0  0
   33.9569   -7.0716   12.0399 O   0  0  0  0  0  0  0  0  0  0  0  0
   34.4664   -6.8334    9.8809 O   0  0  0  0  0  0  0  0  0  0  0  0
   33.3705   -8.6858   10.4712 F   0  0  0  0  0  0  0  0  0  0  0  0
   32.2846   -6.6779   10.5294 F   0  0  0  0  0  0  0  0  0  0  0  0
   36.5290   -3.8450   18.7775 C   0  0  0  0  0  0  0  0  0  0  0  0
   37.4656   -4.5898   19.3482 N   0  0  0  0  0  0  0  0  0  0  0  0
   37.9846   -4.2342   20.5427 C   0  0  0  0  0  0  0  0  0  0  0  0
   37.5491   -3.1044   21.1723 N   0  0  0  0  0  0  0  0  0  0  0  0
   36.6051   -2.3583   20.5903 C   0  0  0  0  0  0  0  0  0  0  0  0
   36.0954   -2.7184   19.4046 N   0  0  0  0  0  0  0  0  0  0  0  0
   36.1884   -1.2051   21.2730 O   0  0  0  0  0  0  0  0  0  0  0  0
   34.8483   -0.7752   21.1802 C   0  0  0  0  0  0  0  0  0  0  0  0
   38.9798   -4.9786   21.2028 N   0  0  0  0  0  0  0  0  0  0  0  0
  1  2  2  0
  1 19  1  0
 27  1  1  0
  2  3  1  0
  3 17  2  0
  4  5  1  0
  4 11  1  0
  4 27  1  1
  5  6  2  0
  5 10  1  0
  6  7  1  0
  6 28  1  0
  7  8  2  0
  7 29  1  0
  8  9  1  0
  9 10  2  0
 11 12  2  0
 11 25  1  0
 12 13  1  0
 12 26  1  0
 13 14  2  0
 14 15  1  0
 15 25  2  0
 28 16  1  0
 16 29  1  0
 16 30  1  1
 16 31  1  0
 17 18  1  0
 17 21  1  0
 18 19  2  0
 19 20  1  0
 20 32  1  0
 21 22  2  0
 21 23  2  0
 21 24  1  1
 32 33  2  0
 32 37  1  0
 33 34  1  0
 34 35  2  0
 34 40  1  0
 35 36  1  0
 36 37  2  0
 36 38  1  0
 38 39  1  0
M  END
$$$$
