
     RDKit          3D

 40 44  0  0  0  0  0  0  0  0999 V2000
   34.5742   -8.6294   13.4936 C   0  0  0  0  0  0  0  0  0  0  0  0
   33.5888   -9.1870   14.2336 C   0  0  0  0  0  0  0  0  0  0  0  0
   33.4859   -9.1274   15.6226 C   0  0  0  0  0  0  0  0  0  0  0  0
   35.0465   -8.7114   10.8106 C   0  0  1  0  0  0  0  0  0  0  0  0
   33.9981   -8.1067    9.9091 C   0  0  0  0  0  0  0  0  0  0  0  0
   33.2826   -8.8628    9.0095 C   0  0  0  0  0  0  0  0  0  0  0  0
   32.3129   -8.2677    8.1919 C   0  0  0  0  0  0  0  0  0  0  0  0
   32.0720   -6.9265    8.2842 C   0  0  0  0  0  0  0  0  0  0  0  0
   32.7678   -6.1643    9.1660 C   0  0  0  0  0  0  0  0  0  0  0  0
   33.7228   -6.7703    9.9662 C   0  0  0  0  0  0  0  0  0  0  0  0
   36.3252   -8.1114   10.3039 C   0  0  0  0  0  0  0  0  0  0  0  0
   37.2095   -8.7433    9.4998 C   0  0  0  0  0  0  0  0  0  0  0  0
   38.3836   -8.1287    9.0717 C   0  0  0  0  0  0  0  0  0  0  0  0
   38.6494   -6.8550    9.4729 C   0  0  0  0  0  0  0  0  0  0  0  0
   37.7563   -6.2180   10.2840 C   0  0  0  0  0  0  0  0  0  0  0  0
   32.2256  -10.4787    7.7690 C   0  0  1  0  0  0  0  0  0  0  0  0
   34.4533   -8.4534   16.3056 C   0  0  0  0  0  0  0  0  0  0  0  0
   35.4730   -7.8690   15.6100 C   0  0  0  0  0  0  0  0  0  0  0  0
   35.5692   -7.9291   14.2554 C   0  0  0  0  0  0  0  0  0  0  0  0
   36.6344   -7.2953   13.5589 N   0  0  0  0  0  0  0  0  0  0  0  0
   34.3534   -8.3714   18.0533 S   0  0  1  0  0  6  0  0  0  0  0  0
   34.6101   -6.9822   18.5511 O   0  0  0  0  0  0  0  0  0  0  0  0
   32.9853   -8.8059   18.4765 O   0  0  0  0  0  0  0  0  0  0  0  0
   35.5104   -9.4154   18.8100 N   0  0  0  0  0  0  0  0  0  0  0  0
   36.6396   -6.8352   10.6787 N   0  0  0  0  0  0  0  0  0  0  0  0
   36.8704  -10.3725    8.9623 Cl  0  0  0  0  0  0  0  0  0  0  0  0
   34.8143   -8.6711   12.1296 N   0  0  0  0  0  0  0  0  0  0  0  0
   33.2701  -10.1984    8.6669 O   0  0  0  0  0  0  0  0  0  0  0  0
   31.7322   -9.2224    7.3786 O   0  0  0  0  0  0  0  0  0  0  0  0
   32.6416  -11.1156    6.6239 F   0  0  0  0  0  0  0  0  0  0  0  0
   31.2250  -11.1914    8.4132 F   0  0  0  0  0  0  0  0  0  0  0  0
   37.8679   -7.0947   14.2553 C   0  0  0  0  0  0  0  0  0  0  0  0
   38.9021   -6.4565   13.7251 N   0  0  0  0  0  0  0  0  0  0  0  0
   40.0396   -6.2958   14.4341 C   0  0  0  0  0  0  0  0  0  0  0  0
   40.1340   -6.7892   15.7031 N   0  0  0  0  0  0  0  0  0  0  0  0
   39.0869   -7.4308   16.2310 C   0  0  0  0  0  0  0  0  0  0  0  0
   37.9616   -7.5857   15.5203 N   0  0  0  0  0  0  0  0  0  0  0  0
   39.2282   -7.9204   17.5387 O   0  0  0  0  0  0  0  0  0  0  0  0
   38.1544   -8.5897   18.1618 C   0  0  0  0  0  0  0  0  0  0  0  0
   41.1729   -5.6295   13.9322 N   0  0  0  0  0  0  0  0  0  0  0  0
  1  2  2  0
  1 19  1  0
 27  1  1  0
  2  3  1  0
  3 17  2  0
  4  5  1  0
  4 11  1  0
  4 27  1  1
  5  6  2  0
  5 10  1  0
  6  7  1  0
  6 28  1  0
  7  8  2  0
  7 29  1  0
  8  9  1  0
  9 10  2  0
 11 12  2  0
 11 25  1  0
 12 13  1  0
 12 26  1  0
 13 14  2  0
 14 15  1  0
 15 25  2  0
 28 16  1  0
 16 29  1  0
 16 30  1  6
 16 31  1  0
 17 18  1  0
 17 21  1  0
 18 19  2  0
 19 20  1  0
 20 32  1  0
 21 22  2  0
 21 23  2  0
 21 24  1  1
 32 33  2  0
 32 37  1  0
 33 34  1  0
 34 35  2  0
 34 40  1  0
 35 36  1  0
 36 37  2  0
 36 38  1  0
 38 39  1  0
M  END
$$$$
