
     RDKit          3D

 21 24  0  0  0  0  0  0  0  0999 V2000
  -14.2428  -29.8975   -6.9248 C   0  0  0  0  0  0  0  0  0  0  0  0
  -15.2455  -29.0947   -7.4033 C   0  0  0  0  0  0  0  0  0  0  0  0
  -16.3253  -28.8297   -6.5971 C   0  0  0  0  0  0  0  0  0  0  0  0
  -16.4104  -29.3539   -5.3334 C   0  0  0  0  0  0  0  0  0  0  0  0
  -15.3844  -30.1641   -4.8701 C   0  0  0  0  0  0  0  0  0  0  0  0
  -14.2999  -30.4374   -5.6614 C   0  0  0  0  0  0  0  0  0  0  0  0
  -13.4192  -31.2872   -4.9433 C   0  0  0  0  0  0  0  0  0  0  0  0
  -14.0138  -31.4949   -3.7392 C   0  0  0  0  0  0  0  0  0  0  0  0
  -13.5277  -32.3069   -2.6389 C   0  0  0  0  0  0  0  0  0  0  0  0
  -12.4902  -33.1815   -2.6478 C   0  0  0  0  0  0  0  0  0  0  0  0
  -12.1099  -33.9387   -1.5243 C   0  0  0  0  0  0  0  0  0  0  0  0
  -12.8024  -33.8112   -0.3406 C   0  0  0  0  0  0  0  0  0  0  0  0
  -13.8504  -32.9397   -0.2988 C   0  0  0  0  0  0  0  0  0  0  0  0
  -14.2027  -32.2111   -1.4098 C   0  0  0  0  0  0  0  0  0  0  0  0
  -12.1564  -31.7398   -5.5207 C   0  0  0  0  0  0  0  0  0  0  0  0
  -11.5203  -34.1582   -5.6891 C   0  0  0  0  0  0  0  0  0  0  0  0
  -12.6678  -34.8549   -7.4038 C   0  0  0  0  0  0  0  0  0  0  0  0
  -12.9091  -33.5030   -7.1786 C   0  0  0  0  0  0  0  0  0  0  0  0
  -15.2102  -30.8045   -3.7081 N   0  0  0  0  0  0  0  0  0  0  0  0
  -12.1861  -33.0727   -6.1020 N   0  0  0  0  0  0  0  0  0  0  0  0
  -11.8015  -35.2256   -6.4596 N   0  0  0  0  0  0  0  0  0  0  0  0
  1  2  2  0
  6  1  1  0
  2  3  1  0
  4  3  2  0
  5  4  1  0
  6  5  2  0
 19  5  1  0
  7  6  1  0
  7  8  2  0
 15  7  1  0
  8  9  1  0
  8 19  1  0
  9 10  2  0
  9 14  1  0
 10 11  1  0
 11 12  2  0
 13 12  1  0
 14 13  2  0
 20 15  1  0
 16 20  1  0
 21 16  2  0
 17 18  2  0
 17 21  1  0
 18 20  1  0
M  END
$$$$
