
     RDKit          3D

 21 24  0  0  0  0  0  0  0  0999 V2000
  -10.6092  -33.0733   -5.4483 C   0  0  0  0  0  0  0  0  0  0  0  0
   -9.2725  -32.7714   -5.4818 C   0  0  0  0  0  0  0  0  0  0  0  0
   -8.8797  -31.4731   -5.2671 C   0  0  0  0  0  0  0  0  0  0  0  0
   -9.7997  -30.4868   -5.0226 C   0  0  0  0  0  0  0  0  0  0  0  0
  -11.1469  -30.8148   -4.9938 C   0  0  0  0  0  0  0  0  0  0  0  0
  -11.5553  -32.1054   -5.2051 C   0  0  0  0  0  0  0  0  0  0  0  0
  -12.9713  -32.1501   -5.1263 C   0  0  0  0  0  0  0  0  0  0  0  0
  -13.3627  -30.8742   -4.8701 C   0  0  0  0  0  0  0  0  0  0  0  0
  -14.7171  -30.3775   -4.7108 C   0  0  0  0  0  0  0  0  0  0  0  0
  -15.1574  -29.4306   -3.8443 C   0  0  0  0  0  0  0  0  0  0  0  0
  -16.5040  -29.0318   -3.7562 C   0  0  0  0  0  0  0  0  0  0  0  0
  -17.4490  -29.6098   -4.5747 C   0  0  0  0  0  0  0  0  0  0  0  0
  -17.0383  -30.5648   -5.4573 C   0  0  0  0  0  0  0  0  0  0  0  0
  -15.7170  -30.9374   -5.5245 C   0  0  0  0  0  0  0  0  0  0  0  0
  -13.7053  -33.4020   -5.2906 C   0  0  0  0  0  0  0  0  0  0  0  0
  -15.0189  -34.0783   -7.3151 C   0  0  0  0  0  0  0  0  0  0  0  0
  -13.4746  -34.4848   -8.7957 C   0  0  0  0  0  0  0  0  0  0  0  0
  -12.8974  -34.0970   -7.5903 C   0  0  0  0  0  0  0  0  0  0  0  0
  -12.2410  -30.0713   -4.7916 N   0  0  0  0  0  0  0  0  0  0  0  0
  -13.8717  -33.8438   -6.6663 N   0  0  0  0  0  0  0  0  0  0  0  0
  -14.7917  -34.4610   -8.5855 N   0  0  0  0  0  0  0  0  0  0  0  0
  1  2  2  0
  6  1  1  0
  2  3  1  0
  4  3  2  0
  5  4  1  0
  6  5  2  0
 19  5  1  0
  7  6  1  0
  7  8  2  0
 15  7  1  0
  8  9  1  0
  8 19  1  0
  9 10  2  0
  9 14  1  0
 10 11  1  0
 11 12  2  0
 13 12  1  0
 14 13  2  0
 20 15  1  0
 16 20  1  0
 21 16  2  0
 17 18  2  0
 17 21  1  0
 18 20  1  0
M  END
$$$$
