
     RDKit          3D

 21 24  0  0  0  0  0  0  0  0999 V2000
  -12.4495  -32.9805   -8.1273 C   0  0  0  0  0  0  0  0  0  0  0  0
  -12.9482  -33.8103   -9.0977 C   0  0  0  0  0  0  0  0  0  0  0  0
  -14.2986  -33.8029   -9.3476 C   0  0  0  0  0  0  0  0  0  0  0  0
  -15.1438  -32.9841   -8.6446 C   0  0  0  0  0  0  0  0  0  0  0  0
  -14.6174  -32.1531   -7.6669 C   0  0  0  0  0  0  0  0  0  0  0  0
  -13.2725  -32.1477   -7.4060 C   0  0  0  0  0  0  0  0  0  0  0  0
  -13.0177  -31.2176   -6.3651 C   0  0  0  0  0  0  0  0  0  0  0  0
  -14.2292  -30.6968   -6.0369 C   0  0  0  0  0  0  0  0  0  0  0  0
  -14.5217  -29.7079   -5.0156 C   0  0  0  0  0  0  0  0  0  0  0  0
  -13.6375  -28.9922   -4.2758 C   0  0  0  0  0  0  0  0  0  0  0  0
  -14.0275  -28.0655   -3.2912 C   0  0  0  0  0  0  0  0  0  0  0  0
  -15.3642  -27.8488   -3.0394 C   0  0  0  0  0  0  0  0  0  0  0  0
  -16.2782  -28.5524   -3.7668 C   0  0  0  0  0  0  0  0  0  0  0  0
  -15.8724  -29.4522   -4.7233 C   0  0  0  0  0  0  0  0  0  0  0  0
  -11.6637  -30.9727   -5.8756 C   0  0  0  0  0  0  0  0  0  0  0  0
  -11.1803  -33.1486   -4.7297 C   0  0  0  0  0  0  0  0  0  0  0  0
   -9.2899  -33.7672   -5.6165 C   0  0  0  0  0  0  0  0  0  0  0  0
   -9.6987  -32.5495   -6.1520 C   0  0  0  0  0  0  0  0  0  0  0  0
  -15.1948  -31.2754   -6.8380 N   0  0  0  0  0  0  0  0  0  0  0  0
  -10.8847  -32.1675   -5.5912 N   0  0  0  0  0  0  0  0  0  0  0  0
  -10.2347  -34.1067   -4.7382 N   0  0  0  0  0  0  0  0  0  0  0  0
  1  2  2  0
  6  1  1  0
  2  3  1  0
  4  3  2  0
  5  4  1  0
  6  5  2  0
 19  5  1  0
  7  6  1  0
  7  8  2  0
 15  7  1  0
  8  9  1  0
  8 19  1  0
  9 10  2  0
  9 14  1  0
 10 11  1  0
 11 12  2  0
 13 12  1  0
 14 13  2  0
 20 15  1  0
 16 20  1  0
 21 16  2  0
 17 18  2  0
 17 21  1  0
 18 20  1  0
M  END
$$$$
