
     RDKit          3D

 21 24  0  0  0  0  0  0  0  0999 V2000
  -14.4016  -30.7517   -4.0955 C   0  0  0  0  0  0  0  0  0  0  0  0
  -14.9428  -29.8101   -3.2591 C   0  0  0  0  0  0  0  0  0  0  0  0
  -15.7486  -28.8339   -3.7917 C   0  0  0  0  0  0  0  0  0  0  0  0
  -16.0143  -28.7912   -5.1358 C   0  0  0  0  0  0  0  0  0  0  0  0
  -15.4557  -29.7538   -5.9634 C   0  0  0  0  0  0  0  0  0  0  0  0
  -14.6504  -30.7349   -5.4478 C   0  0  0  0  0  0  0  0  0  0  0  0
  -14.2175  -31.5694   -6.5107 C   0  0  0  0  0  0  0  0  0  0  0  0
  -14.7825  -31.0526   -7.6333 C   0  0  0  0  0  0  0  0  0  0  0  0
  -14.6429  -31.5306   -8.9966 C   0  0  0  0  0  0  0  0  0  0  0  0
  -13.9838  -32.6366   -9.4250 C   0  0  0  0  0  0  0  0  0  0  0  0
  -13.8919  -33.0033  -10.7805 C   0  0  0  0  0  0  0  0  0  0  0  0
  -14.4885  -32.2245  -11.7472 C   0  0  0  0  0  0  0  0  0  0  0  0
  -15.1593  -31.1061  -11.3489 C   0  0  0  0  0  0  0  0  0  0  0  0
  -15.2351  -30.7688  -10.0186 C   0  0  0  0  0  0  0  0  0  0  0  0
  -13.3559  -32.7241   -6.2715 C   0  0  0  0  0  0  0  0  0  0  0  0
  -11.0334  -33.1572   -5.4349 C   0  0  0  0  0  0  0  0  0  0  0  0
   -9.9314  -31.3998   -6.0979 C   0  0  0  0  0  0  0  0  0  0  0  0
  -11.2648  -31.3078   -6.4852 C   0  0  0  0  0  0  0  0  0  0  0  0
  -15.5345  -29.9469   -7.2853 N   0  0  0  0  0  0  0  0  0  0  0  0
  -11.9501  -32.4131   -6.0659 N   0  0  0  0  0  0  0  0  0  0  0  0
   -9.8267  -32.5607   -5.4490 N   0  0  0  0  0  0  0  0  0  0  0  0
  1  2  2  0
  6  1  1  0
  2  3  1  0
  4  3  2  0
  5  4  1  0
  6  5  2  0
 19  5  1  0
  7  6  1  0
  7  8  2  0
 15  7  1  0
  8  9  1  0
  8 19  1  0
  9 10  2  0
  9 14  1  0
 10 11  1  0
 11 12  2  0
 13 12  1  0
 14 13  2  0
 20 15  1  0
 16 20  1  0
 21 16  2  0
 17 18  2  0
 17 21  1  0
 18 20  1  0
M  END
$$$$
