
     RDKit          3D

 21 24  0  0  0  0  0  0  0  0999 V2000
  -21.9089  -36.0913  -30.5889 C   0  0  0  0  0  0  0  0  0  0  0  0
  -22.4114  -34.9358  -31.1288 C   0  0  0  0  0  0  0  0  0  0  0  0
  -23.1218  -35.0056  -32.3021 C   0  0  0  0  0  0  0  0  0  0  0  0
  -23.3310  -36.2048  -32.9323 C   0  0  0  0  0  0  0  0  0  0  0  0
  -22.8129  -37.3611  -32.3684 C   0  0  0  0  0  0  0  0  0  0  0  0
  -22.1028  -37.3088  -31.1979 C   0  0  0  0  0  0  0  0  0  0  0  0
  -21.6915  -38.6240  -30.8597 C   0  0  0  0  0  0  0  0  0  0  0  0
  -22.1726  -39.4223  -31.8485 C   0  0  0  0  0  0  0  0  0  0  0  0
  -22.0155  -40.8588  -31.9835 C   0  0  0  0  0  0  0  0  0  0  0  0
  -21.1174  -41.6583  -31.3547 C   0  0  0  0  0  0  0  0  0  0  0  0
  -21.0356  -43.0463  -31.5716 C   0  0  0  0  0  0  0  0  0  0  0  0
  -21.8938  -43.6571  -32.4590 C   0  0  0  0  0  0  0  0  0  0  0  0
  -22.8089  -42.8809  -33.1069 C   0  0  0  0  0  0  0  0  0  0  0  0
  -22.8692  -41.5269  -32.8781 C   0  0  0  0  0  0  0  0  0  0  0  0
  -20.9272  -38.8955  -29.6451 C   0  0  0  0  0  0  0  0  0  0  0  0
  -18.5628  -38.0680  -29.5664 C   0  0  0  0  0  0  0  0  0  0  0  0
  -17.4182  -39.7648  -30.3103 C   0  0  0  0  0  0  0  0  0  0  0  0
  -18.7766  -40.0668  -30.2986 C   0  0  0  0  0  0  0  0  0  0  0  0
  -22.8541  -38.6398  -32.7609 N   0  0  0  0  0  0  0  0  0  0  0  0
  -19.4885  -38.9982  -29.8312 N   0  0  0  0  0  0  0  0  0  0  0  0
  -17.3254  -38.5165  -29.8491 N   0  0  0  0  0  0  0  0  0  0  0  0
  1  2  2  0
  6  1  1  0
  2  3  1  0
  4  3  2  0
  5  4  1  0
  6  5  2  0
 19  5  1  0
  7  6  1  0
  7  8  2  0
 15  7  1  0
  8  9  1  0
  8 19  1  0
  9 10  2  0
  9 14  1  0
 10 11  1  0
 11 12  2  0
 13 12  1  0
 14 13  2  0
 20 15  1  0
 16 20  1  0
 21 16  2  0
 17 18  2  0
 17 21  1  0
 18 20  1  0
M  END
$$$$
