
     RDKit          3D

 21 24  0  0  0  0  0  0  0  0999 V2000
  -13.2411  -29.8047   -4.4725 C   0  0  0  0  0  0  0  0  0  0  0  0
  -13.8281  -29.1686   -3.4095 C   0  0  0  0  0  0  0  0  0  0  0  0
  -15.1369  -28.7666   -3.5169 C   0  0  0  0  0  0  0  0  0  0  0  0
  -15.8544  -28.9917   -4.6630 C   0  0  0  0  0  0  0  0  0  0  0  0
  -15.2402  -29.6366   -5.7262 C   0  0  0  0  0  0  0  0  0  0  0  0
  -13.9355  -30.0448   -5.6348 C   0  0  0  0  0  0  0  0  0  0  0  0
  -13.5686  -30.6629   -6.8582 C   0  0  0  0  0  0  0  0  0  0  0  0
  -14.6751  -30.6006   -7.6446 C   0  0  0  0  0  0  0  0  0  0  0  0
  -14.8237  -31.0819   -9.0057 C   0  0  0  0  0  0  0  0  0  0  0  0
  -15.7719  -30.7320   -9.9110 C   0  0  0  0  0  0  0  0  0  0  0  0
  -15.8386  -31.2754  -11.2074 C   0  0  0  0  0  0  0  0  0  0  0  0
  -14.9120  -32.2109  -11.6113 C   0  0  0  0  0  0  0  0  0  0  0  0
  -13.9453  -32.5834  -10.7245 C   0  0  0  0  0  0  0  0  0  0  0  0
  -13.9011  -32.0383   -9.4635 C   0  0  0  0  0  0  0  0  0  0  0  0
  -12.2345  -31.2216   -7.0605 C   0  0  0  0  0  0  0  0  0  0  0  0
  -10.8386  -32.9199   -5.8569 C   0  0  0  0  0  0  0  0  0  0  0  0
  -12.2469  -34.5350   -5.4692 C   0  0  0  0  0  0  0  0  0  0  0  0
  -12.8772  -33.4984   -6.1509 C   0  0  0  0  0  0  0  0  0  0  0  0
  -15.6861  -29.9731   -6.9422 N   0  0  0  0  0  0  0  0  0  0  0  0
  -11.9880  -32.4889   -6.3909 N   0  0  0  0  0  0  0  0  0  0  0  0
  -10.9836  -34.1392   -5.3051 N   0  0  0  0  0  0  0  0  0  0  0  0
  1  2  2  0
  6  1  1  0
  2  3  1  0
  4  3  2  0
  5  4  1  0
  6  5  2  0
 19  5  1  0
  7  6  1  0
  7  8  2  0
 15  7  1  0
  8  9  1  0
  8 19  1  0
  9 10  2  0
  9 14  1  0
 10 11  1  0
 11 12  2  0
 13 12  1  0
 14 13  2  0
 20 15  1  0
 16 20  1  0
 21 16  2  0
 17 18  2  0
 17 21  1  0
 18 20  1  0
M  END
$$$$
