
     RDKit          3D

 21 24  0  0  0  0  0  0  0  0999 V2000
  -22.4070  -39.4377  -31.9571 C   0  0  0  0  0  0  0  0  0  0  0  0
  -23.1250  -38.9284  -33.0079 C   0  0  0  0  0  0  0  0  0  0  0  0
  -23.6100  -37.6465  -32.9211 C   0  0  0  0  0  0  0  0  0  0  0  0
  -23.3865  -36.8794  -31.8073 C   0  0  0  0  0  0  0  0  0  0  0  0
  -22.6578  -37.4152  -30.7559 C   0  0  0  0  0  0  0  0  0  0  0  0
  -22.1663  -38.6921  -30.8270 C   0  0  0  0  0  0  0  0  0  0  0  0
  -21.4744  -38.9778  -29.6217 C   0  0  0  0  0  0  0  0  0  0  0  0
  -21.5788  -37.8534  -28.8658 C   0  0  0  0  0  0  0  0  0  0  0  0
  -21.0524  -37.6298  -27.5319 C   0  0  0  0  0  0  0  0  0  0  0  0
  -21.3255  -36.5981  -26.6939 C   0  0  0  0  0  0  0  0  0  0  0  0
  -20.7434  -36.4644  -25.4197 C   0  0  0  0  0  0  0  0  0  0  0  0
  -19.8481  -37.4086  -24.9683 C   0  0  0  0  0  0  0  0  0  0  0  0
  -19.5528  -38.4585  -25.7869 C   0  0  0  0  0  0  0  0  0  0  0  0
  -20.1345  -38.5672  -27.0275 C   0  0  0  0  0  0  0  0  0  0  0  0
  -20.8186  -40.2648  -29.4053 C   0  0  0  0  0  0  0  0  0  0  0  0
  -19.3409  -41.3235  -31.1307 C   0  0  0  0  0  0  0  0  0  0  0  0
  -17.4569  -40.2576  -30.8919 C   0  0  0  0  0  0  0  0  0  0  0  0
  -18.3984  -39.7830  -29.9837 C   0  0  0  0  0  0  0  0  0  0  0  0
  -22.3021  -36.9093  -29.5692 N   0  0  0  0  0  0  0  0  0  0  0  0
  -19.5774  -40.4560  -30.1388 N   0  0  0  0  0  0  0  0  0  0  0  0
  -18.0789  -41.2122  -31.5858 N   0  0  0  0  0  0  0  0  0  0  0  0
  1  2  2  0
  6  1  1  0
  2  3  1  0
  4  3  2  0
  5  4  1  0
  6  5  2  0
 19  5  1  0
  7  6  1  0
  7  8  2  0
 15  7  1  0
  8  9  1  0
  8 19  1  0
  9 10  2  0
  9 14  1  0
 10 11  1  0
 11 12  2  0
 13 12  1  0
 14 13  2  0
 20 15  1  0
 16 20  1  0
 21 16  2  0
 17 18  2  0
 17 21  1  0
 18 20  1  0
M  END
$$$$
