
     RDKit          3D

 21 24  0  0  0  0  0  0  0  0999 V2000
  -22.1928  -40.0276  -31.6051 C   0  0  0  0  0  0  0  0  0  0  0  0
  -22.9978  -39.7537  -32.6802 C   0  0  0  0  0  0  0  0  0  0  0  0
  -23.6382  -38.5402  -32.7378 C   0  0  0  0  0  0  0  0  0  0  0  0
  -23.4832  -37.6105  -31.7425 C   0  0  0  0  0  0  0  0  0  0  0  0
  -22.6643  -37.9092  -30.6637 C   0  0  0  0  0  0  0  0  0  0  0  0
  -22.0175  -39.1148  -30.5917 C   0  0  0  0  0  0  0  0  0  0  0  0
  -21.2624  -39.1515  -29.3909 C   0  0  0  0  0  0  0  0  0  0  0  0
  -21.4874  -37.9578  -28.7819 C   0  0  0  0  0  0  0  0  0  0  0  0
  -20.9572  -37.4966  -27.5120 C   0  0  0  0  0  0  0  0  0  0  0  0
  -20.8607  -36.2180  -27.0680 C   0  0  0  0  0  0  0  0  0  0  0  0
  -20.3096  -35.8744  -25.8196 C   0  0  0  0  0  0  0  0  0  0  0  0
  -19.8353  -36.8587  -24.9811 C   0  0  0  0  0  0  0  0  0  0  0  0
  -19.9185  -38.1544  -25.3981 C   0  0  0  0  0  0  0  0  0  0  0  0
  -20.4610  -38.4649  -26.6223 C   0  0  0  0  0  0  0  0  0  0  0  0
  -20.4437  -40.3089  -29.0399 C   0  0  0  0  0  0  0  0  0  0  0  0
  -18.9327  -41.4186  -30.7032 C   0  0  0  0  0  0  0  0  0  0  0  0
  -17.1748  -40.1331  -30.7117 C   0  0  0  0  0  0  0  0  0  0  0  0
  -18.1231  -39.6482  -29.8160 C   0  0  0  0  0  0  0  0  0  0  0  0
  -22.3430  -37.2106  -29.5685 N   0  0  0  0  0  0  0  0  0  0  0  0
  -19.2227  -40.4593  -29.8157 N   0  0  0  0  0  0  0  0  0  0  0  0
  -17.7134  -41.2321  -31.2425 N   0  0  0  0  0  0  0  0  0  0  0  0
  1  2  2  0
  6  1  1  0
  2  3  1  0
  4  3  2  0
  5  4  1  0
  6  5  2  0
 19  5  1  0
  7  6  1  0
  7  8  2  0
 15  7  1  0
  8  9  1  0
  8 19  1  0
  9 10  2  0
  9 14  1  0
 10 11  1  0
 11 12  2  0
 13 12  1  0
 14 13  2  0
 20 15  1  0
 16 20  1  0
 21 16  2  0
 17 18  2  0
 17 21  1  0
 18 20  1  0
M  END
$$$$
