
     RDKit          3D

 21 24  0  0  0  0  0  0  0  0999 V2000
  -18.7690  -38.6804  -28.0494 C   0  0  0  0  0  0  0  0  0  0  0  0
  -18.6302  -38.5280  -26.6942 C   0  0  0  0  0  0  0  0  0  0  0  0
  -19.5816  -37.8161  -26.0055 C   0  0  0  0  0  0  0  0  0  0  0  0
  -20.6561  -37.2621  -26.6516 C   0  0  0  0  0  0  0  0  0  0  0  0
  -20.7760  -37.4285  -28.0233 C   0  0  0  0  0  0  0  0  0  0  0  0
  -19.8362  -38.1366  -28.7249 C   0  0  0  0  0  0  0  0  0  0  0  0
  -20.2035  -38.1406  -30.0955 C   0  0  0  0  0  0  0  0  0  0  0  0
  -21.3582  -37.4277  -30.1656 C   0  0  0  0  0  0  0  0  0  0  0  0
  -22.1410  -37.1223  -31.3491 C   0  0  0  0  0  0  0  0  0  0  0  0
  -21.7612  -37.2340  -32.6470 C   0  0  0  0  0  0  0  0  0  0  0  0
  -22.5957  -36.8915  -33.7271 C   0  0  0  0  0  0  0  0  0  0  0  0
  -23.8669  -36.4162  -33.4924 C   0  0  0  0  0  0  0  0  0  0  0  0
  -24.2790  -36.2929  -32.1983 C   0  0  0  0  0  0  0  0  0  0  0  0
  -23.4453  -36.6340  -31.1601 C   0  0  0  0  0  0  0  0  0  0  0  0
  -19.4016  -38.8370  -31.0980 C   0  0  0  0  0  0  0  0  0  0  0  0
  -18.9218  -41.2539  -30.6401 C   0  0  0  0  0  0  0  0  0  0  0  0
  -20.5302  -42.2856  -31.6848 C   0  0  0  0  0  0  0  0  0  0  0  0
  -20.6518  -40.9093  -31.8507 C   0  0  0  0  0  0  0  0  0  0  0  0
  -21.6957  -37.0001  -28.8958 N   0  0  0  0  0  0  0  0  0  0  0  0
  -19.6398  -40.2686  -31.1931 N   0  0  0  0  0  0  0  0  0  0  0  0
  -19.4454  -42.4602  -30.9281 N   0  0  0  0  0  0  0  0  0  0  0  0
  1  2  2  0
  6  1  1  0
  2  3  1  0
  4  3  2  0
  5  4  1  0
  6  5  2  0
 19  5  1  0
  7  6  1  0
  7  8  2  0
 15  7  1  0
  8  9  1  0
  8 19  1  0
  9 10  2  0
  9 14  1  0
 10 11  1  0
 11 12  2  0
 13 12  1  0
 14 13  2  0
 20 15  1  0
 16 20  1  0
 21 16  2  0
 17 18  2  0
 17 21  1  0
 18 20  1  0
M  END
$$$$
