
     RDKit          3D

 21 24  0  0  0  0  0  0  0  0999 V2000
  -18.8435  -38.7546  -27.9923 C   0  0  0  0  0  0  0  0  0  0  0  0
  -18.7288  -38.5501  -26.6417 C   0  0  0  0  0  0  0  0  0  0  0  0
  -19.7126  -37.8466  -25.9910 C   0  0  0  0  0  0  0  0  0  0  0  0
  -20.7956  -37.3519  -26.6701 C   0  0  0  0  0  0  0  0  0  0  0  0
  -20.8909  -37.5703  -28.0364 C   0  0  0  0  0  0  0  0  0  0  0  0
  -19.9185  -38.2709  -28.7003 C   0  0  0  0  0  0  0  0  0  0  0  0
  -20.2663  -38.3354  -30.0744 C   0  0  0  0  0  0  0  0  0  0  0  0
  -21.4428  -37.6644  -30.1847 C   0  0  0  0  0  0  0  0  0  0  0  0
  -22.2186  -37.4271  -31.3882 C   0  0  0  0  0  0  0  0  0  0  0  0
  -22.0420  -37.9841  -32.6129 C   0  0  0  0  0  0  0  0  0  0  0  0
  -22.8432  -37.6697  -33.7262 C   0  0  0  0  0  0  0  0  0  0  0  0
  -23.8664  -36.7560  -33.6031 C   0  0  0  0  0  0  0  0  0  0  0  0
  -24.0703  -36.1786  -32.3846 C   0  0  0  0  0  0  0  0  0  0  0  0
  -23.2741  -36.5021  -31.3119 C   0  0  0  0  0  0  0  0  0  0  0  0
  -19.4281  -39.0395  -31.0412 C   0  0  0  0  0  0  0  0  0  0  0  0
  -18.9014  -41.4339  -30.5210 C   0  0  0  0  0  0  0  0  0  0  0  0
  -20.4754  -42.5248  -31.5578 C   0  0  0  0  0  0  0  0  0  0  0  0
  -20.6248  -41.1557  -31.7576 C   0  0  0  0  0  0  0  0  0  0  0  0
  -21.8119  -37.2038  -28.9354 N   0  0  0  0  0  0  0  0  0  0  0  0
  -19.6342  -40.4778  -31.1048 N   0  0  0  0  0  0  0  0  0  0  0  0
  -19.3956  -42.6577  -30.7858 N   0  0  0  0  0  0  0  0  0  0  0  0
  1  2  2  0
  6  1  1  0
  2  3  1  0
  4  3  2  0
  5  4  1  0
  6  5  2  0
 19  5  1  0
  7  6  1  0
  7  8  2  0
 15  7  1  0
  8  9  1  0
  8 19  1  0
  9 10  2  0
  9 14  1  0
 10 11  1  0
 11 12  2  0
 13 12  1  0
 14 13  2  0
 20 15  1  0
 16 20  1  0
 21 16  2  0
 17 18  2  0
 17 21  1  0
 18 20  1  0
M  END
$$$$
