
     RDKit          3D

 21 24  0  0  0  0  0  0  0  0999 V2000
  -22.3240  -37.9370  -33.1000 C   0  0  0  0  0  0  0  0  0  0  0  0
  -23.4004  -37.2716  -33.6269 C   0  0  0  0  0  0  0  0  0  0  0  0
  -24.1927  -36.5239  -32.7906 C   0  0  0  0  0  0  0  0  0  0  0  0
  -23.9220  -36.4373  -31.4496 C   0  0  0  0  0  0  0  0  0  0  0  0
  -22.8280  -37.1193  -30.9382 C   0  0  0  0  0  0  0  0  0  0  0  0
  -22.0271  -37.8687  -31.7591 C   0  0  0  0  0  0  0  0  0  0  0  0
  -20.9993  -38.4547  -30.9757 C   0  0  0  0  0  0  0  0  0  0  0  0
  -21.2247  -38.0328  -29.7038 C   0  0  0  0  0  0  0  0  0  0  0  0
  -20.4627  -38.3607  -28.5128 C   0  0  0  0  0  0  0  0  0  0  0  0
  -19.6774  -39.4472  -28.3029 C   0  0  0  0  0  0  0  0  0  0  0  0
  -18.9917  -39.6819  -27.0967 C   0  0  0  0  0  0  0  0  0  0  0  0
  -19.1000  -38.7857  -26.0565 C   0  0  0  0  0  0  0  0  0  0  0  0
  -19.8816  -37.6828  -26.2362 C   0  0  0  0  0  0  0  0  0  0  0  0
  -20.5416  -37.4755  -27.4239 C   0  0  0  0  0  0  0  0  0  0  0  0
  -19.9706  -39.2999  -31.5760 C   0  0  0  0  0  0  0  0  0  0  0  0
  -19.2488  -41.6350  -31.0214 C   0  0  0  0  0  0  0  0  0  0  0  0
  -21.0794  -42.7902  -31.2607 C   0  0  0  0  0  0  0  0  0  0  0  0
  -21.3148  -41.4485  -31.5449 C   0  0  0  0  0  0  0  0  0  0  0  0
  -22.3418  -37.2197  -29.6955 N   0  0  0  0  0  0  0  0  0  0  0  0
  -20.1625  -40.7299  -31.3930 N   0  0  0  0  0  0  0  0  0  0  0  0
  -19.7867  -42.8664  -30.9400 N   0  0  0  0  0  0  0  0  0  0  0  0
  1  2  2  0
  6  1  1  0
  2  3  1  0
  4  3  2  0
  5  4  1  0
  6  5  2  0
 19  5  1  0
  7  6  1  0
  7  8  2  0
 15  7  1  0
  8  9  1  0
  8 19  1  0
  9 10  2  0
  9 14  1  0
 10 11  1  0
 11 12  2  0
 13 12  1  0
 14 13  2  0
 20 15  1  0
 16 20  1  0
 21 16  2  0
 17 18  2  0
 17 21  1  0
 18 20  1  0
M  END
$$$$
