
     RDKit          3D

 21 24  0  0  0  0  0  0  0  0999 V2000
  -19.4142  -38.5336  -27.3259 C   0  0  0  0  0  0  0  0  0  0  0  0
  -19.5176  -38.3702  -25.9688 C   0  0  0  0  0  0  0  0  0  0  0  0
  -20.6194  -37.7275  -25.4598 C   0  0  0  0  0  0  0  0  0  0  0  0
  -21.6056  -37.2526  -26.2849 C   0  0  0  0  0  0  0  0  0  0  0  0
  -21.4799  -37.4286  -27.6549 C   0  0  0  0  0  0  0  0  0  0  0  0
  -20.3875  -38.0684  -28.1787 C   0  0  0  0  0  0  0  0  0  0  0  0
  -20.5167  -38.1002  -29.5914 C   0  0  0  0  0  0  0  0  0  0  0  0
  -21.6902  -37.4719  -29.8645 C   0  0  0  0  0  0  0  0  0  0  0  0
  -22.2812  -37.2246  -31.1669 C   0  0  0  0  0  0  0  0  0  0  0  0
  -21.9159  -37.7596  -32.3592 C   0  0  0  0  0  0  0  0  0  0  0  0
  -22.5466  -37.4370  -33.5751 C   0  0  0  0  0  0  0  0  0  0  0  0
  -23.5898  -36.5378  -33.5932 C   0  0  0  0  0  0  0  0  0  0  0  0
  -23.9814  -35.9827  -32.4108 C   0  0  0  0  0  0  0  0  0  0  0  0
  -23.3494  -36.3139  -31.2359 C   0  0  0  0  0  0  0  0  0  0  0  0
  -19.5099  -38.7385  -30.4352 C   0  0  0  0  0  0  0  0  0  0  0  0
  -19.6726  -40.6536  -32.0437 C   0  0  0  0  0  0  0  0  0  0  0  0
  -20.4278  -42.2784  -30.8059 C   0  0  0  0  0  0  0  0  0  0  0  0
  -20.2861  -41.1200  -30.0480 C   0  0  0  0  0  0  0  0  0  0  0  0
  -22.2667  -37.0681  -28.6755 N   0  0  0  0  0  0  0  0  0  0  0  0
  -19.8124  -40.1050  -30.8306 N   0  0  0  0  0  0  0  0  0  0  0  0
  -20.0373  -41.9494  -32.0383 N   0  0  0  0  0  0  0  0  0  0  0  0
  1  2  2  0
  6  1  1  0
  2  3  1  0
  4  3  2  0
  5  4  1  0
  6  5  2  0
 19  5  1  0
  7  6  1  0
  7  8  2  0
 15  7  1  0
  8  9  1  0
  8 19  1  0
  9 10  2  0
  9 14  1  0
 10 11  1  0
 11 12  2  0
 13 12  1  0
 14 13  2  0
 20 15  1  0
 16 20  1  0
 21 16  2  0
 17 18  2  0
 17 21  1  0
 18 20  1  0
M  END
$$$$
