
     RDKit          3D

 21 24  0  0  0  0  0  0  0  0999 V2000
  -18.8552  -38.2473  -27.6537 C   0  0  0  0  0  0  0  0  0  0  0  0
  -18.7247  -37.9775  -26.3160 C   0  0  0  0  0  0  0  0  0  0  0  0
  -19.7404  -37.3160  -25.6702 C   0  0  0  0  0  0  0  0  0  0  0  0
  -20.8703  -36.9267  -26.3414 C   0  0  0  0  0  0  0  0  0  0  0  0
  -20.9807  -37.2096  -27.6947 C   0  0  0  0  0  0  0  0  0  0  0  0
  -19.9770  -37.8696  -28.3535 C   0  0  0  0  0  0  0  0  0  0  0  0
  -20.3503  -38.0169  -29.7145 C   0  0  0  0  0  0  0  0  0  0  0  0
  -21.5730  -37.4338  -29.8225 C   0  0  0  0  0  0  0  0  0  0  0  0
  -22.3903  -37.3024  -31.0147 C   0  0  0  0  0  0  0  0  0  0  0  0
  -21.9713  -37.1199  -32.2923 C   0  0  0  0  0  0  0  0  0  0  0  0
  -22.8523  -36.9848  -33.3813 C   0  0  0  0  0  0  0  0  0  0  0  0
  -24.2134  -37.0355  -33.1771 C   0  0  0  0  0  0  0  0  0  0  0  0
  -24.6667  -37.2186  -31.9041 C   0  0  0  0  0  0  0  0  0  0  0  0
  -23.7861  -37.3479  -30.8566 C   0  0  0  0  0  0  0  0  0  0  0  0
  -19.4869  -38.7025  -30.6723 C   0  0  0  0  0  0  0  0  0  0  0  0
  -20.2541  -40.9566  -31.4546 C   0  0  0  0  0  0  0  0  0  0  0  0
  -19.2446  -42.3243  -30.0934 C   0  0  0  0  0  0  0  0  0  0  0  0
  -18.9221  -41.0071  -29.7812 C   0  0  0  0  0  0  0  0  0  0  0  0
  -21.9451  -36.9464  -28.5843 N   0  0  0  0  0  0  0  0  0  0  0  0
  -19.5588  -40.1547  -30.6387 N   0  0  0  0  0  0  0  0  0  0  0  0
  -20.0727  -42.2521  -31.1368 N   0  0  0  0  0  0  0  0  0  0  0  0
  1  2  2  0
  6  1  1  0
  2  3  1  0
  4  3  2  0
  5  4  1  0
  6  5  2  0
 19  5  1  0
  7  6  1  0
  7  8  2  0
 15  7  1  0
  8  9  1  0
  8 19  1  0
  9 10  2  0
  9 14  1  0
 10 11  1  0
 11 12  2  0
 13 12  1  0
 14 13  2  0
 20 15  1  0
 16 20  1  0
 21 16  2  0
 17 18  2  0
 17 21  1  0
 18 20  1  0
M  END
$$$$
