
     RDKit          3D

 21 24  0  0  0  0  0  0  0  0999 V2000
  -14.0345  -31.2207   -4.6884 C   0  0  0  0  0  0  0  0  0  0  0  0
  -14.4246  -30.2663   -3.7850 C   0  0  0  0  0  0  0  0  0  0  0  0
  -15.1035  -29.1617   -4.2380 C   0  0  0  0  0  0  0  0  0  0  0  0
  -15.3916  -29.0049   -5.5689 C   0  0  0  0  0  0  0  0  0  0  0  0
  -14.9869  -29.9829   -6.4652 C   0  0  0  0  0  0  0  0  0  0  0  0
  -14.3096  -31.0912   -6.0295 C   0  0  0  0  0  0  0  0  0  0  0  0
  -14.0176  -31.9119   -7.1496 C   0  0  0  0  0  0  0  0  0  0  0  0
  -14.5332  -31.2592   -8.2242 C   0  0  0  0  0  0  0  0  0  0  0  0
  -14.4905  -31.6704   -9.6154 C   0  0  0  0  0  0  0  0  0  0  0  0
  -14.9987  -31.0163  -10.6902 C   0  0  0  0  0  0  0  0  0  0  0  0
  -14.9198  -31.5138  -12.0042 C   0  0  0  0  0  0  0  0  0  0  0  0
  -14.3033  -32.7210  -12.2484 C   0  0  0  0  0  0  0  0  0  0  0  0
  -13.7817  -33.4029  -11.1890 C   0  0  0  0  0  0  0  0  0  0  0  0
  -13.8713  -32.8962   -9.9144 C   0  0  0  0  0  0  0  0  0  0  0  0
  -13.3142  -33.1832   -7.0011 C   0  0  0  0  0  0  0  0  0  0  0  0
  -11.6142  -33.6676   -5.2243 C   0  0  0  0  0  0  0  0  0  0  0  0
   -9.8473  -32.6047   -5.9251 C   0  0  0  0  0  0  0  0  0  0  0  0
  -10.9025  -32.4262   -6.8147 C   0  0  0  0  0  0  0  0  0  0  0  0
  -15.1212  -30.0856   -7.7927 N   0  0  0  0  0  0  0  0  0  0  0  0
  -12.0073  -33.0952   -6.3689 N   0  0  0  0  0  0  0  0  0  0  0  0
  -10.3275  -33.3804   -4.9518 N   0  0  0  0  0  0  0  0  0  0  0  0
  1  2  2  0
  6  1  1  0
  2  3  1  0
  4  3  2  0
  5  4  1  0
  6  5  2  0
 19  5  1  0
  7  6  1  0
  7  8  2  0
 15  7  1  0
  8  9  1  0
  8 19  1  0
  9 10  2  0
  9 14  1  0
 10 11  1  0
 11 12  2  0
 13 12  1  0
 14 13  2  0
 20 15  1  0
 16 20  1  0
 21 16  2  0
 17 18  2  0
 17 21  1  0
 18 20  1  0
M  END
$$$$
