
     RDKit          3D

 21 24  0  0  0  0  0  0  0  0999 V2000
  -21.3150  -37.7292  -33.0152 C   0  0  0  0  0  0  0  0  0  0  0  0
  -22.2658  -37.1966  -33.8466 C   0  0  0  0  0  0  0  0  0  0  0  0
  -23.2812  -36.4497  -33.3014 C   0  0  0  0  0  0  0  0  0  0  0  0
  -23.3535  -36.2339  -31.9496 C   0  0  0  0  0  0  0  0  0  0  0  0
  -22.3809  -36.7828  -31.1272 C   0  0  0  0  0  0  0  0  0  0  0  0
  -21.3610  -37.5296  -31.6554 C   0  0  0  0  0  0  0  0  0  0  0  0
  -20.5248  -37.9664  -30.5955 C   0  0  0  0  0  0  0  0  0  0  0  0
  -21.0797  -37.4628  -29.4619 C   0  0  0  0  0  0  0  0  0  0  0  0
  -20.6158  -37.6316  -28.0971 C   0  0  0  0  0  0  0  0  0  0  0  0
  -19.4954  -38.2698  -27.6742 C   0  0  0  0  0  0  0  0  0  0  0  0
  -19.1441  -38.3942  -26.3173 C   0  0  0  0  0  0  0  0  0  0  0  0
  -19.9540  -37.8536  -25.3432 C   0  0  0  0  0  0  0  0  0  0  0  0
  -21.0875  -37.2051  -25.7358 C   0  0  0  0  0  0  0  0  0  0  0  0
  -21.4093  -37.0967  -27.0677 C   0  0  0  0  0  0  0  0  0  0  0  0
  -19.3330  -38.7723  -30.8467 C   0  0  0  0  0  0  0  0  0  0  0  0
  -18.8984  -40.9753  -31.9600 C   0  0  0  0  0  0  0  0  0  0  0  0
  -20.4555  -42.2599  -31.1429 C   0  0  0  0  0  0  0  0  0  0  0  0
  -20.5657  -40.9753  -30.6195 C   0  0  0  0  0  0  0  0  0  0  0  0
  -22.2098  -36.7435  -29.8006 N   0  0  0  0  0  0  0  0  0  0  0  0
  -19.5862  -40.1749  -31.1363 N   0  0  0  0  0  0  0  0  0  0  0  0
  -19.4098  -42.2205  -31.9702 N   0  0  0  0  0  0  0  0  0  0  0  0
  1  2  2  0
  6  1  1  0
  2  3  1  0
  4  3  2  0
  5  4  1  0
  6  5  2  0
 19  5  1  0
  7  6  1  0
  7  8  2  0
 15  7  1  0
  8  9  1  0
  8 19  1  0
  9 10  2  0
  9 14  1  0
 10 11  1  0
 11 12  2  0
 13 12  1  0
 14 13  2  0
 20 15  1  0
 16 20  1  0
 21 16  2  0
 17 18  2  0
 17 21  1  0
 18 20  1  0
M  END
$$$$
