
     RDKit          3D

 24 26  0  0  0  0  0  0  0  0999 V2000
  -21.6633   20.0289   12.2058 O   0  0  0  0  0  0  0  0  0  0  0  0
  -20.6965   19.1036   12.5486 C   0  0  0  0  0  0  0  0  0  0  0  0
  -19.6461   19.0715   11.8630 O   0  0  0  0  0  0  0  0  0  0  0  0
  -20.8844   18.1942   13.6663 C   0  0  0  0  0  0  0  0  0  0  0  0
  -21.9156   18.3300   14.3954 N   0  0  0  0  0  0  0  0  0  0  0  0
  -19.8553   17.1460   13.9008 C   0  0  0  0  0  0  0  0  0  0  0  0
  -19.7897   16.2622   12.8005 O   0  0  0  0  0  0  0  0  0  0  0  0
  -20.2255   16.3365   15.0672 C   0  0  0  0  0  0  0  0  0  0  0  0
  -19.4648   15.3838   15.4280 O   0  0  0  0  0  0  0  0  0  0  0  0
  -21.4199   16.5536   15.8487 C   0  0  0  0  0  0  0  0  0  0  0  0
  -22.2485   17.5236   15.5271 C   0  0  0  0  0  0  0  0  0  0  0  0
  -23.4702   17.7928   16.2768 C   0  0  0  0  0  0  0  0  0  0  0  0
  -23.4268   18.0440   17.6303 C   0  0  0  0  0  0  0  0  0  0  0  0
  -22.1501   18.0520   18.3782 C   0  0  0  0  0  0  0  0  0  0  0  0
  -24.6007   18.3024   18.3495 C   0  0  0  0  0  0  0  0  0  0  0  0
  -24.6898   17.8060   15.6732 C   0  0  0  0  0  0  0  0  0  0  0  0
  -25.8436   18.0602   16.3815 C   0  0  0  0  0  0  0  0  0  0  0  0
  -25.8418   18.3143   17.7272 C   0  0  0  0  0  0  0  0  0  0  0  0
  -27.0393   18.5844   18.4955 C   0  0  0  0  0  0  0  0  0  0  0  0
  -27.0825   19.1701   19.6947 N   0  0  0  0  0  0  0  0  0  0  0  0
  -28.3214   19.2563   20.0966 O   0  0  0  0  0  0  0  0  0  0  0  0
  -29.1164   18.7279   19.1671 C   0  0  0  0  0  0  0  0  0  0  0  0
  -30.3641   18.6265   19.1890 O   0  0  0  0  0  0  0  0  0  0  0  0
  -28.3011   18.3053   18.1584 N   0  0  0  0  0  0  0  0  0  0  0  0
  1  2  1  0
  2  3  2  0
  2  4  1  0
  4  5  2  0
  4  6  1  0
  5 11  1  0
  6  7  1  0
  6  8  1  0
  8  9  2  0
  8 10  1  0
 10 11  2  0
 11 12  1  0
 12 13  2  0
 12 16  1  0
 13 14  1  0
 13 15  1  0
 15 18  2  0
 16 17  2  0
 17 18  1  0
 18 19  1  0
 19 20  2  0
 19 24  1  0
 20 21  1  0
 21 22  1  0
 22 23  2  0
 22 24  1  0
M  END
$$$$
