
     RDKit          3D

 24 26  0  0  0  0  0  0  0  0999 V2000
  -18.6310   15.1920   16.6806 O   0  0  0  0  0  0  0  0  0  0  0  0
  -18.7832   15.5705   15.3607 C   0  0  0  0  0  0  0  0  0  0  0  0
  -17.9114   15.1970   14.5392 O   0  0  0  0  0  0  0  0  0  0  0  0
  -19.9146   16.3752   14.9317 C   0  0  0  0  0  0  0  0  0  0  0  0
  -20.7801   16.7189   15.7957 N   0  0  0  0  0  0  0  0  0  0  0  0
  -20.0021   16.7573   13.4968 C   0  0  0  0  0  0  0  0  0  0  0  0
  -18.9019   17.5648   13.1319 O   0  0  0  0  0  0  0  0  0  0  0  0
  -21.2072   17.5624   13.2682 C   0  0  0  0  0  0  0  0  0  0  0  0
  -21.4573   17.9861   12.0958 O   0  0  0  0  0  0  0  0  0  0  0  0
  -22.1474   17.9130   14.3063 C   0  0  0  0  0  0  0  0  0  0  0  0
  -21.9456   17.5052   15.5408 C   0  0  0  0  0  0  0  0  0  0  0  0
  -22.8583   17.8264   16.6322 C   0  0  0  0  0  0  0  0  0  0  0  0
  -22.8453   19.0721   17.2195 C   0  0  0  0  0  0  0  0  0  0  0  0
  -21.9132   20.1313   16.7738 C   0  0  0  0  0  0  0  0  0  0  0  0
  -23.7222   19.3798   18.2676 C   0  0  0  0  0  0  0  0  0  0  0  0
  -23.7502   16.9155   17.1083 C   0  0  0  0  0  0  0  0  0  0  0  0
  -24.6121   17.2192   18.1391 C   0  0  0  0  0  0  0  0  0  0  0  0
  -24.6297   18.4455   18.7485 C   0  0  0  0  0  0  0  0  0  0  0  0
  -25.5248   18.7908   19.8334 C   0  0  0  0  0  0  0  0  0  0  0  0
  -25.4390   19.8808   20.5999 N   0  0  0  0  0  0  0  0  0  0  0  0
  -26.4046   19.8765   21.4783 O   0  0  0  0  0  0  0  0  0  0  0  0
  -27.1437   18.7816   21.3047 C   0  0  0  0  0  0  0  0  0  0  0  0
  -28.1546   18.4252   21.9517 O   0  0  0  0  0  0  0  0  0  0  0  0
  -26.5832   18.0999   20.2645 N   0  0  0  0  0  0  0  0  0  0  0  0
  1  2  1  0
  2  3  2  0
  2  4  1  0
  4  5  2  0
  4  6  1  0
  5 11  1  0
  6  7  1  0
  6  8  1  0
  8  9  2  0
  8 10  1  0
 10 11  2  0
 11 12  1  0
 12 13  2  0
 12 16  1  0
 13 14  1  0
 13 15  1  0
 15 18  2  0
 16 17  2  0
 17 18  1  0
 18 19  1  0
 19 20  2  0
 19 24  1  0
 20 21  1  0
 21 22  1  0
 22 23  2  0
 22 24  1  0
M  END
$$$$
