
     RDKit          3D

 24 26  0  0  0  0  0  0  0  0999 V2000
  -22.2521   19.9313   12.8004 O   0  0  0  0  0  0  0  0  0  0  0  0
  -21.1872   19.0525   12.8455 C   0  0  0  0  0  0  0  0  0  0  0  0
  -20.4309   18.9956   11.8459 O   0  0  0  0  0  0  0  0  0  0  0  0
  -20.9456   18.2182   14.0106 C   0  0  0  0  0  0  0  0  0  0  0  0
  -21.7217   18.3284   15.0101 N   0  0  0  0  0  0  0  0  0  0  0  0
  -19.7971   17.2737   13.9733 C   0  0  0  0  0  0  0  0  0  0  0  0
  -19.9763   16.3171   12.9493 O   0  0  0  0  0  0  0  0  0  0  0  0
  -19.7239   16.5284   15.2350 C   0  0  0  0  0  0  0  0  0  0  0  0
  -18.8020   15.6675   15.3946 O   0  0  0  0  0  0  0  0  0  0  0  0
  -20.6472   16.7107   16.3299 C   0  0  0  0  0  0  0  0  0  0  0  0
  -21.6237   17.5864   16.2273 C   0  0  0  0  0  0  0  0  0  0  0  0
  -22.5874   17.8159   17.2977 C   0  0  0  0  0  0  0  0  0  0  0  0
  -23.9396   17.6889   17.0691 C   0  0  0  0  0  0  0  0  0  0  0  0
  -24.4710   17.3174   15.7390 C   0  0  0  0  0  0  0  0  0  0  0  0
  -24.8645   17.9094   18.0977 C   0  0  0  0  0  0  0  0  0  0  0  0
  -22.1912   18.1613   18.5530 C   0  0  0  0  0  0  0  0  0  0  0  0
  -23.1017   18.3779   19.5638 C   0  0  0  0  0  0  0  0  0  0  0  0
  -24.4532   18.2616   19.3762 C   0  0  0  0  0  0  0  0  0  0  0  0
  -25.4315   18.4836   20.4207 C   0  0  0  0  0  0  0  0  0  0  0  0
  -25.2140   18.3644   21.7327 N   0  0  0  0  0  0  0  0  0  0  0  0
  -26.3109   18.6367   22.3859 O   0  0  0  0  0  0  0  0  0  0  0  0
  -27.2709   18.9404   21.5133 C   0  0  0  0  0  0  0  0  0  0  0  0
  -28.4582   19.2563   21.7547 O   0  0  0  0  0  0  0  0  0  0  0  0
  -26.7096   18.8420   20.2739 N   0  0  0  0  0  0  0  0  0  0  0  0
  1  2  1  0
  2  3  2  0
  2  4  1  0
  4  5  2  0
  4  6  1  0
  5 11  1  0
  6  7  1  0
  6  8  1  0
  8  9  2  0
  8 10  1  0
 10 11  2  0
 11 12  1  0
 12 13  2  0
 12 16  1  0
 13 14  1  0
 13 15  1  0
 15 18  2  0
 16 17  2  0
 17 18  1  0
 18 19  1  0
 19 20  2  0
 19 24  1  0
 20 21  1  0
 21 22  1  0
 22 23  2  0
 22 24  1  0
M  END
$$$$
