
     RDKit          3D

 24 26  0  0  0  0  0  0  0  0999 V2000
  -17.5978   16.2799   16.1663 O   0  0  0  0  0  0  0  0  0  0  0  0
  -18.0377   16.5480   14.8844 C   0  0  0  0  0  0  0  0  0  0  0  0
  -17.3128   16.1835   13.9273 O   0  0  0  0  0  0  0  0  0  0  0  0
  -19.2987   17.2298   14.6461 C   0  0  0  0  0  0  0  0  0  0  0  0
  -19.9954   17.5889   15.6457 N   0  0  0  0  0  0  0  0  0  0  0  0
  -19.7112   17.4735   13.2379 C   0  0  0  0  0  0  0  0  0  0  0  0
  -18.7837   18.3195   12.5900 O   0  0  0  0  0  0  0  0  0  0  0  0
  -21.0030   18.1686   13.2104 C   0  0  0  0  0  0  0  0  0  0  0  0
  -21.5239   18.4662   12.0894 O   0  0  0  0  0  0  0  0  0  0  0  0
  -21.7375   18.5452   14.3951 C   0  0  0  0  0  0  0  0  0  0  0  0
  -21.2524   18.2657   15.5857 C   0  0  0  0  0  0  0  0  0  0  0  0
  -21.9465   18.6199   16.8186 C   0  0  0  0  0  0  0  0  0  0  0  0
  -22.5909   17.6596   17.5665 C   0  0  0  0  0  0  0  0  0  0  0  0
  -22.6081   16.2379   17.1565 C   0  0  0  0  0  0  0  0  0  0  0  0
  -23.2572   18.0006   18.7504 C   0  0  0  0  0  0  0  0  0  0  0  0
  -21.9838   19.9019   17.2737 C   0  0  0  0  0  0  0  0  0  0  0  0
  -22.6394   20.2360   18.4382 C   0  0  0  0  0  0  0  0  0  0  0  0
  -23.2913   19.3107   19.2090 C   0  0  0  0  0  0  0  0  0  0  0  0
  -23.9878   19.6348   20.4366 C   0  0  0  0  0  0  0  0  0  0  0  0
  -24.3383   18.7665   21.3885 N   0  0  0  0  0  0  0  0  0  0  0  0
  -24.9498   19.3970   22.3541 O   0  0  0  0  0  0  0  0  0  0  0  0
  -25.0123   20.6936   22.0538 C   0  0  0  0  0  0  0  0  0  0  0  0
  -25.5218   21.6163   22.7296 O   0  0  0  0  0  0  0  0  0  0  0  0
  -24.4032   20.8377   20.8417 N   0  0  0  0  0  0  0  0  0  0  0  0
  1  2  1  0
  2  3  2  0
  2  4  1  0
  4  5  2  0
  4  6  1  0
  5 11  1  0
  6  7  1  0
  6  8  1  0
  8  9  2  0
  8 10  1  0
 10 11  2  0
 11 12  1  0
 12 13  2  0
 12 16  1  0
 13 14  1  0
 13 15  1  0
 15 18  2  0
 16 17  2  0
 17 18  1  0
 18 19  1  0
 19 20  2  0
 19 24  1  0
 20 21  1  0
 21 22  1  0
 22 23  2  0
 22 24  1  0
M  END
$$$$
