
     RDKit          3D

 24 26  0  0  0  0  0  0  0  0999 V2000
  -17.7399   15.9020   15.9537 O   0  0  0  0  0  0  0  0  0  0  0  0
  -18.2709   16.1336   14.6995 C   0  0  0  0  0  0  0  0  0  0  0  0
  -17.6895   15.6211   13.7127 O   0  0  0  0  0  0  0  0  0  0  0  0
  -19.4641   16.9438   14.5228 C   0  0  0  0  0  0  0  0  0  0  0  0
  -20.0013   17.4687   15.5472 N   0  0  0  0  0  0  0  0  0  0  0  0
  -19.9981   17.1182   13.1454 C   0  0  0  0  0  0  0  0  0  0  0  0
  -19.0567   17.7858   12.3307 O   0  0  0  0  0  0  0  0  0  0  0  0
  -21.1972   17.9631   13.1792 C   0  0  0  0  0  0  0  0  0  0  0  0
  -21.8005   18.2281   12.0919 O   0  0  0  0  0  0  0  0  0  0  0  0
  -21.7494   18.5253   14.3890 C   0  0  0  0  0  0  0  0  0  0  0  0
  -21.1716   18.2885   15.5471 C   0  0  0  0  0  0  0  0  0  0  0  0
  -21.6812   18.8276   16.8029 C   0  0  0  0  0  0  0  0  0  0  0  0
  -22.1069   17.9896   17.8095 C   0  0  0  0  0  0  0  0  0  0  0  0
  -22.0670   16.5177   17.6638 C   0  0  0  0  0  0  0  0  0  0  0  0
  -22.5961   18.5082   19.0153 C   0  0  0  0  0  0  0  0  0  0  0  0
  -21.7550   20.1680   17.0265 C   0  0  0  0  0  0  0  0  0  0  0  0
  -22.2363   20.6768   18.2127 C   0  0  0  0  0  0  0  0  0  0  0  0
  -22.6686   19.8770   19.2367 C   0  0  0  0  0  0  0  0  0  0  0  0
  -23.1789   20.3855   20.4931 C   0  0  0  0  0  0  0  0  0  0  0  0
  -22.9961   19.8290   21.6930 N   0  0  0  0  0  0  0  0  0  0  0  0
  -23.5915   20.5480   22.6054 O   0  0  0  0  0  0  0  0  0  0  0  0
  -24.1773   21.5920   22.0206 C   0  0  0  0  0  0  0  0  0  0  0  0
  -24.8426   22.5039   22.5622 O   0  0  0  0  0  0  0  0  0  0  0  0
  -23.9133   21.4840   20.6866 N   0  0  0  0  0  0  0  0  0  0  0  0
  1  2  1  0
  2  3  2  0
  2  4  1  0
  4  5  2  0
  4  6  1  0
  5 11  1  0
  6  7  1  0
  6  8  1  0
  8  9  2  0
  8 10  1  0
 10 11  2  0
 11 12  1  0
 12 13  2  0
 12 16  1  0
 13 14  1  0
 13 15  1  0
 15 18  2  0
 16 17  2  0
 17 18  1  0
 18 19  1  0
 19 20  2  0
 19 24  1  0
 20 21  1  0
 21 22  1  0
 22 23  2  0
 22 24  1  0
M  END
$$$$
