
     RDKit          3D

 24 26  0  0  0  0  0  0  0  0999 V2000
  -17.6381   15.8845   14.7180 O   0  0  0  0  0  0  0  0  0  0  0  0
  -18.7359   16.4152   15.3675 C   0  0  0  0  0  0  0  0  0  0  0  0
  -18.7043   16.4739   16.6204 O   0  0  0  0  0  0  0  0  0  0  0  0
  -19.8929   16.8915   14.6284 C   0  0  0  0  0  0  0  0  0  0  0  0
  -20.9338   17.2252   15.2754 N   0  0  0  0  0  0  0  0  0  0  0  0
  -19.7990   16.9645   13.1457 C   0  0  0  0  0  0  0  0  0  0  0  0
  -18.7955   17.8802   12.7580 O   0  0  0  0  0  0  0  0  0  0  0  0
  -21.0612   17.4661   12.5907 C   0  0  0  0  0  0  0  0  0  0  0  0
  -21.1760   17.5992   11.3315 O   0  0  0  0  0  0  0  0  0  0  0  0
  -22.2051   17.8259   13.3949 C   0  0  0  0  0  0  0  0  0  0  0  0
  -22.1502   17.7111   14.7043 C   0  0  0  0  0  0  0  0  0  0  0  0
  -23.2714   18.0583   15.5701 C   0  0  0  0  0  0  0  0  0  0  0  0
  -23.8997   17.0973   16.3308 C   0  0  0  0  0  0  0  0  0  0  0  0
  -23.4694   15.6819   16.3043 C   0  0  0  0  0  0  0  0  0  0  0  0
  -24.9764   17.4317   17.1620 C   0  0  0  0  0  0  0  0  0  0  0  0
  -23.7362   19.3343   15.6589 C   0  0  0  0  0  0  0  0  0  0  0  0
  -24.7952   19.6619   16.4766 C   0  0  0  0  0  0  0  0  0  0  0  0
  -25.4454   18.7357   17.2477 C   0  0  0  0  0  0  0  0  0  0  0  0
  -26.5607   19.0531   18.1155 C   0  0  0  0  0  0  0  0  0  0  0  0
  -27.2457   18.1800   18.8580 N   0  0  0  0  0  0  0  0  0  0  0  0
  -28.1832   18.8051   19.5172 O   0  0  0  0  0  0  0  0  0  0  0  0
  -28.1311   20.1026   19.2191 C   0  0  0  0  0  0  0  0  0  0  0  0
  -28.8645   21.0211   19.6505 O   0  0  0  0  0  0  0  0  0  0  0  0
  -27.1045   20.2532   18.3335 N   0  0  0  0  0  0  0  0  0  0  0  0
  1  2  1  0
  2  3  2  0
  2  4  1  0
  4  5  2  0
  4  6  1  0
  5 11  1  0
  6  7  1  0
  6  8  1  0
  8  9  2  0
  8 10  1  0
 10 11  2  0
 11 12  1  0
 12 13  2  0
 12 16  1  0
 13 14  1  0
 13 15  1  0
 15 18  2  0
 16 17  2  0
 17 18  1  0
 18 19  1  0
 19 20  2  0
 19 24  1  0
 20 21  1  0
 21 22  1  0
 22 23  2  0
 22 24  1  0
M  END
$$$$
