
     RDKit          3D

 24 26  0  0  0  0  0  0  0  0999 V2000
  -17.9285   15.7586   14.2930 O   0  0  0  0  0  0  0  0  0  0  0  0
  -18.9877   16.1373   15.0949 C   0  0  0  0  0  0  0  0  0  0  0  0
  -18.9935   15.7401   16.2851 O   0  0  0  0  0  0  0  0  0  0  0  0
  -20.0634   16.9688   14.5820 C   0  0  0  0  0  0  0  0  0  0  0  0
  -21.0304   17.2580   15.3532 N   0  0  0  0  0  0  0  0  0  0  0  0
  -19.9771   17.4410   13.1741 C   0  0  0  0  0  0  0  0  0  0  0  0
  -18.8459   18.2688   12.9983 O   0  0  0  0  0  0  0  0  0  0  0  0
  -21.1505   18.2602   12.8506 C   0  0  0  0  0  0  0  0  0  0  0  0
  -21.2580   18.7576   11.6854 O   0  0  0  0  0  0  0  0  0  0  0  0
  -22.2131   18.5454   13.7856 C   0  0  0  0  0  0  0  0  0  0  0  0
  -22.1612   18.0602   15.0074 C   0  0  0  0  0  0  0  0  0  0  0  0
  -23.2027   18.3127   15.9967 C   0  0  0  0  0  0  0  0  0  0  0  0
  -22.9126   18.9598   17.1774 C   0  0  0  0  0  0  0  0  0  0  0  0
  -21.5434   19.4237   17.4927 C   0  0  0  0  0  0  0  0  0  0  0  0
  -23.9135   19.2019   18.1269 C   0  0  0  0  0  0  0  0  0  0  0  0
  -24.4903   17.9221   15.7931 C   0  0  0  0  0  0  0  0  0  0  0  0
  -25.4738   18.1608   16.7277 C   0  0  0  0  0  0  0  0  0  0  0  0
  -25.2253   18.8006   17.9127 C   0  0  0  0  0  0  0  0  0  0  0  0
  -26.2400   19.0641   18.9118 C   0  0  0  0  0  0  0  0  0  0  0  0
  -27.4855   18.5827   18.9061 N   0  0  0  0  0  0  0  0  0  0  0  0
  -28.1298   19.0199   19.9538 O   0  0  0  0  0  0  0  0  0  0  0  0
  -27.3178   19.7980   20.6684 C   0  0  0  0  0  0  0  0  0  0  0  0
  -27.5716   20.3987   21.7372 O   0  0  0  0  0  0  0  0  0  0  0  0
  -26.1259   19.8221   20.0054 N   0  0  0  0  0  0  0  0  0  0  0  0
  1  2  1  0
  2  3  2  0
  2  4  1  0
  4  5  2  0
  4  6  1  0
  5 11  1  0
  6  7  1  0
  6  8  1  0
  8  9  2  0
  8 10  1  0
 10 11  2  0
 11 12  1  0
 12 13  2  0
 12 16  1  0
 13 14  1  0
 13 15  1  0
 15 18  2  0
 16 17  2  0
 17 18  1  0
 18 19  1  0
 19 20  2  0
 19 24  1  0
 20 21  1  0
 21 22  1  0
 22 23  2  0
 22 24  1  0
M  END
$$$$
