
     RDKit          3D

 24 26  0  0  0  0  0  0  0  0999 V2000
  -22.1020   19.8201   13.5255 O   0  0  0  0  0  0  0  0  0  0  0  0
  -21.0108   19.0853   13.1036 C   0  0  0  0  0  0  0  0  0  0  0  0
  -20.7079   19.1311   11.8868 O   0  0  0  0  0  0  0  0  0  0  0  0
  -20.2351   18.2833   14.0346 C   0  0  0  0  0  0  0  0  0  0  0  0
  -20.6026   18.2346   15.2495 N   0  0  0  0  0  0  0  0  0  0  0  0
  -19.0452   17.5573   13.5154 C   0  0  0  0  0  0  0  0  0  0  0  0
  -19.4309   16.6051   12.5456 O   0  0  0  0  0  0  0  0  0  0  0  0
  -18.4030   16.8111   14.6033 C   0  0  0  0  0  0  0  0  0  0  0  0
  -17.3630   16.1234   14.3546 O   0  0  0  0  0  0  0  0  0  0  0  0
  -18.8825   16.8053   15.9651 C   0  0  0  0  0  0  0  0  0  0  0  0
  -19.9542   17.4970   16.2875 C   0  0  0  0  0  0  0  0  0  0  0  0
  -20.4872   17.5310   17.6447 C   0  0  0  0  0  0  0  0  0  0  0  0
  -19.8158   18.1906   18.6502 C   0  0  0  0  0  0  0  0  0  0  0  0
  -18.5349   18.8882   18.4012 C   0  0  0  0  0  0  0  0  0  0  0  0
  -20.3284   18.2227   19.9534 C   0  0  0  0  0  0  0  0  0  0  0  0
  -21.6584   16.9175   17.9672 C   0  0  0  0  0  0  0  0  0  0  0  0
  -22.1615   16.9498   19.2491 C   0  0  0  0  0  0  0  0  0  0  0  0
  -21.5241   17.5946   20.2754 C   0  0  0  0  0  0  0  0  0  0  0  0
  -22.0307   17.6440   21.6313 C   0  0  0  0  0  0  0  0  0  0  0  0
  -23.2031   17.1573   22.0452 N   0  0  0  0  0  0  0  0  0  0  0  0
  -23.3400   17.3722   23.3255 O   0  0  0  0  0  0  0  0  0  0  0  0
  -22.2580   18.0052   23.7769 C   0  0  0  0  0  0  0  0  0  0  0  0
  -22.0187   18.3813   24.9469 O   0  0  0  0  0  0  0  0  0  0  0  0
  -21.4347   18.1741   22.7024 N   0  0  0  0  0  0  0  0  0  0  0  0
  1  2  1  0
  2  3  2  0
  2  4  1  0
  4  5  2  0
  4  6  1  0
  5 11  1  0
  6  7  1  0
  6  8  1  0
  8  9  2  0
  8 10  1  0
 10 11  2  0
 11 12  1  0
 12 13  2  0
 12 16  1  0
 13 14  1  0
 13 15  1  0
 15 18  2  0
 16 17  2  0
 17 18  1  0
 18 19  1  0
 19 20  2  0
 19 24  1  0
 20 21  1  0
 21 22  1  0
 22 23  2  0
 22 24  1  0
M  END
$$$$
