
     RDKit          3D

 24 26  0  0  0  0  0  0  0  0999 V2000
  -22.4458   19.2943   13.8259 O   0  0  0  0  0  0  0  0  0  0  0  0
  -21.3040   18.7811   13.2416 C   0  0  0  0  0  0  0  0  0  0  0  0
  -21.1051   19.0271   12.0274 O   0  0  0  0  0  0  0  0  0  0  0  0
  -20.3601   17.9813   14.0038 C   0  0  0  0  0  0  0  0  0  0  0  0
  -20.6269   17.7159   15.2171 N   0  0  0  0  0  0  0  0  0  0  0  0
  -19.1243   17.5120   13.3218 C   0  0  0  0  0  0  0  0  0  0  0  0
  -19.4477   16.6541   12.2470 O   0  0  0  0  0  0  0  0  0  0  0  0
  -18.3082   16.7264   14.2543 C   0  0  0  0  0  0  0  0  0  0  0  0
  -17.2058   16.2364   13.8532 O   0  0  0  0  0  0  0  0  0  0  0  0
  -18.6807   16.4671   15.6250 C   0  0  0  0  0  0  0  0  0  0  0  0
  -19.8096   16.9463   16.1012 C   0  0  0  0  0  0  0  0  0  0  0  0
  -20.2406   16.7189   17.4759 C   0  0  0  0  0  0  0  0  0  0  0  0
  -20.5877   15.4578   17.9072 C   0  0  0  0  0  0  0  0  0  0  0  0
  -20.5395   14.2872   17.0035 C   0  0  0  0  0  0  0  0  0  0  0  0
  -21.0015   15.2403   19.2276 C   0  0  0  0  0  0  0  0  0  0  0  0
  -20.3158   17.7353   18.3777 C   0  0  0  0  0  0  0  0  0  0  0  0
  -20.7229   17.5202   19.6760 C   0  0  0  0  0  0  0  0  0  0  0  0
  -21.0759   16.2820   20.1426 C   0  0  0  0  0  0  0  0  0  0  0  0
  -21.5071   16.0284   21.5017 C   0  0  0  0  0  0  0  0  0  0  0  0
  -21.3801   14.8729   22.1586 N   0  0  0  0  0  0  0  0  0  0  0  0
  -21.8741   14.9950   23.3608 O   0  0  0  0  0  0  0  0  0  0  0  0
  -22.3354   16.2353   23.5158 C   0  0  0  0  0  0  0  0  0  0  0  0
  -22.8794   16.7329   24.5277 O   0  0  0  0  0  0  0  0  0  0  0  0
  -22.1009   16.8832   22.3385 N   0  0  0  0  0  0  0  0  0  0  0  0
  1  2  1  0
  2  3  2  0
  2  4  1  0
  4  5  2  0
  4  6  1  0
  5 11  1  0
  6  7  1  0
  6  8  1  0
  8  9  2  0
  8 10  1  0
 10 11  2  0
 11 12  1  0
 12 13  2  0
 12 16  1  0
 13 14  1  0
 13 15  1  0
 15 18  2  0
 16 17  2  0
 17 18  1  0
 18 19  1  0
 19 20  2  0
 19 24  1  0
 20 21  1  0
 21 22  1  0
 22 23  2  0
 22 24  1  0
M  END
$$$$
