
     RDKit          3D

 24 26  0  0  0  0  0  0  0  0999 V2000
  -18.8887   15.5448   16.7889 O   0  0  0  0  0  0  0  0  0  0  0  0
  -19.0209   15.8653   15.4517 C   0  0  0  0  0  0  0  0  0  0  0  0
  -18.1185   15.4874   14.6660 O   0  0  0  0  0  0  0  0  0  0  0  0
  -20.1660   16.6159   14.9649 C   0  0  0  0  0  0  0  0  0  0  0  0
  -21.0664   16.9585   15.7929 N   0  0  0  0  0  0  0  0  0  0  0  0
  -20.2259   16.9464   13.5158 C   0  0  0  0  0  0  0  0  0  0  0  0
  -19.1434   17.7785   13.1530 O   0  0  0  0  0  0  0  0  0  0  0  0
  -21.4503   17.7015   13.2272 C   0  0  0  0  0  0  0  0  0  0  0  0
  -21.6813   18.0768   12.0346 O   0  0  0  0  0  0  0  0  0  0  0  0
  -22.4305   18.0543   14.2270 C   0  0  0  0  0  0  0  0  0  0  0  0
  -22.2499   17.6954   15.4798 C   0  0  0  0  0  0  0  0  0  0  0  0
  -23.2030   18.0216   16.5345 C   0  0  0  0  0  0  0  0  0  0  0  0
  -24.4974   17.5536   16.4855 C   0  0  0  0  0  0  0  0  0  0  0  0
  -24.9753   16.7063   15.3704 C   0  0  0  0  0  0  0  0  0  0  0  0
  -25.4121   17.8673   17.4989 C   0  0  0  0  0  0  0  0  0  0  0  0
  -22.8531   18.7943   17.5987 C   0  0  0  0  0  0  0  0  0  0  0  0
  -23.7535   19.1022   18.5947 C   0  0  0  0  0  0  0  0  0  0  0  0
  -25.0483   18.6563   18.5819 C   0  0  0  0  0  0  0  0  0  0  0  0
  -26.0147   18.9650   19.6154 C   0  0  0  0  0  0  0  0  0  0  0  0
  -25.7592   19.0507   20.9232 N   0  0  0  0  0  0  0  0  0  0  0  0
  -26.8565   19.3450   21.5663 O   0  0  0  0  0  0  0  0  0  0  0  0
  -27.8547   19.4581   20.6911 C   0  0  0  0  0  0  0  0  0  0  0  0
  -29.0545   19.7301   20.9235 O   0  0  0  0  0  0  0  0  0  0  0  0
  -27.3171   19.2171   19.4607 N   0  0  0  0  0  0  0  0  0  0  0  0
  1  2  1  0
  2  3  2  0
  2  4  1  0
  4  5  2  0
  4  6  1  0
  5 11  1  0
  6  7  1  0
  6  8  1  0
  8  9  2  0
  8 10  1  0
 10 11  2  0
 11 12  1  0
 12 13  2  0
 12 16  1  0
 13 14  1  0
 13 15  1  0
 15 18  2  0
 16 17  2  0
 17 18  1  0
 18 19  1  0
 19 20  2  0
 19 24  1  0
 20 21  1  0
 21 22  1  0
 22 23  2  0
 22 24  1  0
M  END
$$$$
