
     RDKit          3D

 24 26  0  0  0  0  0  0  0  0999 V2000
  -22.7812   19.1407   13.8186 O   0  0  0  0  0  0  0  0  0  0  0  0
  -21.6085   18.6778   13.2536 C   0  0  0  0  0  0  0  0  0  0  0  0
  -21.4037   18.9265   12.0409 O   0  0  0  0  0  0  0  0  0  0  0  0
  -20.6398   17.9265   14.0338 C   0  0  0  0  0  0  0  0  0  0  0  0
  -20.9397   17.5968   15.2233 N   0  0  0  0  0  0  0  0  0  0  0  0
  -19.3408   17.5802   13.3972 C   0  0  0  0  0  0  0  0  0  0  0  0
  -19.5456   16.7398   12.2803 O   0  0  0  0  0  0  0  0  0  0  0  0
  -18.5082   16.8269   14.3416 C   0  0  0  0  0  0  0  0  0  0  0  0
  -17.3531   16.4393   13.9783 O   0  0  0  0  0  0  0  0  0  0  0  0
  -18.9210   16.4892   15.6834 C   0  0  0  0  0  0  0  0  0  0  0  0
  -20.1050   16.8613   16.1200 C   0  0  0  0  0  0  0  0  0  0  0  0
  -20.5788   16.5507   17.4640 C   0  0  0  0  0  0  0  0  0  0  0  0
  -20.7038   17.5397   18.4143 C   0  0  0  0  0  0  0  0  0  0  0  0
  -20.3660   18.9493   18.1175 C   0  0  0  0  0  0  0  0  0  0  0  0
  -21.1590   17.2405   19.7048 C   0  0  0  0  0  0  0  0  0  0  0  0
  -20.9129   15.2826   17.8277 C   0  0  0  0  0  0  0  0  0  0  0  0
  -21.3604   14.9896   19.0971 C   0  0  0  0  0  0  0  0  0  0  0  0
  -21.4981   15.9443   20.0692 C   0  0  0  0  0  0  0  0  0  0  0  0
  -21.9660   15.6636   21.4107 C   0  0  0  0  0  0  0  0  0  0  0  0
  -21.7639   14.5303   22.0873 N   0  0  0  0  0  0  0  0  0  0  0  0
  -22.3214   14.6167   23.2644 O   0  0  0  0  0  0  0  0  0  0  0  0
  -22.9010   15.8105   23.3830 C   0  0  0  0  0  0  0  0  0  0  0  0
  -23.5341   16.2645   24.3632 O   0  0  0  0  0  0  0  0  0  0  0  0
  -22.6732   16.4672   22.2092 N   0  0  0  0  0  0  0  0  0  0  0  0
  1  2  1  0
  2  3  2  0
  2  4  1  0
  4  5  2  0
  4  6  1  0
  5 11  1  0
  6  7  1  0
  6  8  1  0
  8  9  2  0
  8 10  1  0
 10 11  2  0
 11 12  1  0
 12 13  2  0
 12 16  1  0
 13 14  1  0
 13 15  1  0
 15 18  2  0
 16 17  2  0
 17 18  1  0
 18 19  1  0
 19 20  2  0
 19 24  1  0
 20 21  1  0
 21 22  1  0
 22 23  2  0
 22 24  1  0
M  END
$$$$
