
     RDKit          3D

 24 26  0  0  0  0  0  0  0  0999 V2000
  -22.3760   19.4238   13.8836 O   0  0  0  0  0  0  0  0  0  0  0  0
  -21.3293   18.7191   13.3212 C   0  0  0  0  0  0  0  0  0  0  0  0
  -21.1449   18.8299   12.0850 O   0  0  0  0  0  0  0  0  0  0  0  0
  -20.4662   17.8752   14.1303 C   0  0  0  0  0  0  0  0  0  0  0  0
  -20.7295   17.7416   15.3658 N   0  0  0  0  0  0  0  0  0  0  0  0
  -19.3136   17.2080   13.4679 C   0  0  0  0  0  0  0  0  0  0  0  0
  -19.7653   16.3120   12.4734 O   0  0  0  0  0  0  0  0  0  0  0  0
  -18.5712   16.4071   14.4477 C   0  0  0  0  0  0  0  0  0  0  0  0
  -17.5457   15.7578   14.0693 O   0  0  0  0  0  0  0  0  0  0  0  0
  -18.9343   16.3047   15.8414 C   0  0  0  0  0  0  0  0  0  0  0  0
  -19.9853   16.9525   16.2960 C   0  0  0  0  0  0  0  0  0  0  0  0
  -20.4027   16.8890   17.6921 C   0  0  0  0  0  0  0  0  0  0  0  0
  -20.4799   15.6824   18.3514 C   0  0  0  0  0  0  0  0  0  0  0  0
  -20.1459   14.4072   17.6792 C   0  0  0  0  0  0  0  0  0  0  0  0
  -20.8808   15.6224   19.6922 C   0  0  0  0  0  0  0  0  0  0  0  0
  -20.7292   18.0101   18.3911 C   0  0  0  0  0  0  0  0  0  0  0  0
  -21.1233   17.9499   19.7096 C   0  0  0  0  0  0  0  0  0  0  0  0
  -21.2125   16.7702   20.3994 C   0  0  0  0  0  0  0  0  0  0  0  0
  -21.6239   16.6787   21.7850 C   0  0  0  0  0  0  0  0  0  0  0  0
  -21.4585   15.6192   22.5806 N   0  0  0  0  0  0  0  0  0  0  0  0
  -21.9445   15.8789   23.7639 O   0  0  0  0  0  0  0  0  0  0  0  0
  -22.4390   17.1161   23.7675 C   0  0  0  0  0  0  0  0  0  0  0  0
  -22.9873   17.7228   24.7155 O   0  0  0  0  0  0  0  0  0  0  0  0
  -22.2336   17.6162   22.5150 N   0  0  0  0  0  0  0  0  0  0  0  0
  1  2  1  0
  2  3  2  0
  2  4  1  0
  4  5  2  0
  4  6  1  0
  5 11  1  0
  6  7  1  0
  6  8  1  0
  8  9  2  0
  8 10  1  0
 10 11  2  0
 11 12  1  0
 12 13  2  0
 12 16  1  0
 13 14  1  0
 13 15  1  0
 15 18  2  0
 16 17  2  0
 17 18  1  0
 18 19  1  0
 19 20  2  0
 19 24  1  0
 20 21  1  0
 21 22  1  0
 22 23  2  0
 22 24  1  0
M  END
$$$$
