
     RDKit          3D

 31 36  0  0  0  0  0  0  0  0999 V2000
   35.3163  105.7822    0.6388 C   0  0  0  0  0  0  0  0  0  0  0  0
   36.6113  105.6000   -0.1442 C   0  0  2  0  0  0  0  0  0  0  0  0
   36.7862  106.2254   -1.4817 C   0  0  1  0  0  0  0  0  0  0  0  0
   38.1240  106.4693   -1.9449 N   0  0  0  0  0  4  0  0  0  0  0  0
   36.2465  104.8353   -1.3625 C   0  0  2  0  0  0  0  0  0  0  0  0
   34.7324  104.7120   -1.3105 C   0  0  0  0  0  0  0  0  0  0  0  0
   34.3993  104.8240    0.1095 N   0  0  0  0  0  0  0  0  0  0  0  0
   33.4062  104.0917    0.7772 C   0  0  0  0  0  0  0  0  0  0  0  0
   33.0975  104.5115    2.0467 N   0  0  0  0  0  0  0  0  0  0  0  0
   32.1889  103.9131    2.8225 C   0  0  0  0  0  0  0  0  0  0  0  0
   31.9199  104.3701    4.0761 N   0  0  0  0  0  0  0  0  0  0  0  0
   31.0010  103.7398    4.8204 C   0  0  0  0  0  0  0  0  0  0  0  0
   30.6913  104.1973    6.1529 N   0  0  0  0  0  0  0  0  0  0  0  0
   30.3183  102.6602    4.3865 N   0  0  0  0  0  0  0  0  0  0  0  0
   30.5437  102.1661    3.1565 C   0  0  0  0  0  0  0  0  0  0  0  0
   31.4910  102.8074    2.3755 C   0  0  0  0  0  0  0  0  0  0  0  0
   31.7960  102.3803    1.1004 C   0  0  0  0  0  0  0  0  0  0  0  0
   32.7335  102.9923    0.2900 C   0  0  0  0  0  0  0  0  0  0  0  0
   33.0113  102.5246   -1.0564 C   0  0  0  0  0  0  0  0  0  0  0  0
   32.4482  103.1419   -2.1662 C   0  0  0  0  0  0  0  0  0  0  0  0
   31.4325  104.5507   -1.9672 Cl  0  0  0  0  0  0  0  0  0  0  0  0
   32.7357  102.6344   -3.4394 C   0  0  0  0  0  0  0  0  0  0  0  0
   33.5638  101.5428   -3.5844 C   0  0  0  0  0  0  0  0  0  0  0  0
   34.1187  100.9412   -2.4591 C   0  0  0  0  0  0  0  0  0  0  0  0
   33.8408  101.4358   -1.1953 C   0  0  0  0  0  0  0  0  0  0  0  0
   34.4509  100.8537   -0.0080 C   0  0  0  0  0  0  0  0  0  0  0  0
   35.5441  101.5601    0.5275 C   0  0  0  0  0  0  0  0  0  0  0  0
   36.1942  101.1058    1.6433 C   0  0  0  0  0  0  0  0  0  0  0  0
   35.7778   99.9443    2.2529 C   0  0  0  0  0  0  0  0  0  0  0  0
   34.7338   99.2902    1.7229 N   0  0  0  0  0  0  0  0  0  0  0  0
   34.0775   99.7190    0.6237 C   0  0  0  0  0  0  0  0  0  0  0  0
  2  1  1  1
  1  7  1  0
  2  3  1  0
  2  5  1  0
  3  4  1  6
  3  5  1  0
  5  6  1  1
  6  7  1  0
  7  8  1  0
  8  9  2  0
  8 18  1  0
  9 10  1  0
 10 11  2  0
 10 16  1  0
 11 12  1  0
 12 13  1  0
 12 14  2  0
 14 15  1  0
 15 16  2  0
 16 17  1  0
 17 18  2  0
 18 19  1  0
 19 20  2  0
 19 25  1  0
 20 21  1  0
 20 22  1  0
 22 23  2  0
 23 24  1  0
 24 25  2  0
 25 26  1  0
 26 27  2  0
 26 31  1  0
 27 28  1  0
 28 29  2  0
 29 30  1  0
 30 31  2  0
M  CHG  1   4   1
M  END
$$$$
