
     RDKit          3D

 31 36  0  0  0  0  0  0  0  0999 V2000
   35.2286  101.5037    0.3358 C   0  0  0  0  0  0  0  0  0  0  0  0
   35.1595  100.2781   -0.5677 C   0  0  2  0  0  0  0  0  0  0  0  0
   35.8418  100.2671   -1.8887 C   0  0  1  0  0  0  0  0  0  0  0  0
   36.1892   98.9958   -2.4603 N   0  0  0  0  0  4  0  0  0  0  0  0
   34.4159  100.7059   -1.7784 C   0  0  2  0  0  0  0  0  0  0  0  0
   34.1916  102.1981   -1.5951 C   0  0  0  0  0  0  0  0  0  0  0  0
   34.2314  102.4045   -0.1475 N   0  0  0  0  0  0  0  0  0  0  0  0
   33.4124  103.2839    0.5765 C   0  0  0  0  0  0  0  0  0  0  0  0
   33.0346  102.8653    1.8275 N   0  0  0  0  0  0  0  0  0  0  0  0
   32.2434  103.5754    2.6369 C   0  0  0  0  0  0  0  0  0  0  0  0
   31.8982  103.1139    3.8700 N   0  0  0  0  0  0  0  0  0  0  0  0
   31.1022  103.8586    4.6493 C   0  0  0  0  0  0  0  0  0  0  0  0
   30.7166  103.3999    5.9615 N   0  0  0  0  0  0  0  0  0  0  0  0
   30.6178  105.0594    4.2709 N   0  0  0  0  0  0  0  0  0  0  0  0
   30.9266  105.5640    3.0634 C   0  0  0  0  0  0  0  0  0  0  0  0
   31.7486  104.8052    2.2467 C   0  0  0  0  0  0  0  0  0  0  0  0
   32.1246  105.2323    0.9906 C   0  0  0  0  0  0  0  0  0  0  0  0
   32.9426  104.5058    0.1461 C   0  0  0  0  0  0  0  0  0  0  0  0
   33.3334  105.0001   -1.1621 C   0  0  0  0  0  0  0  0  0  0  0  0
   32.4475  104.9908   -2.2322 C   0  0  0  0  0  0  0  0  0  0  0  0
   30.8046  104.4369   -2.0080 Cl  0  0  0  0  0  0  0  0  0  0  0  0
   32.8864  105.4609   -3.4761 C   0  0  0  0  0  0  0  0  0  0  0  0
   34.1745  105.9248   -3.6315 C   0  0  0  0  0  0  0  0  0  0  0  0
   35.0445  105.9270   -2.5456 C   0  0  0  0  0  0  0  0  0  0  0  0
   34.6200  105.4643   -1.3107 C   0  0  0  0  0  0  0  0  0  0  0  0
   35.4972  105.5050   -0.1491 C   0  0  0  0  0  0  0  0  0  0  0  0
   36.6471  104.6965   -0.2216 C   0  0  0  0  0  0  0  0  0  0  0  0
   37.5431  104.6569    0.8126 C   0  0  0  0  0  0  0  0  0  0  0  0
   37.3217  105.4153    1.9396 C   0  0  0  0  0  0  0  0  0  0  0  0
   36.2188  106.1770    1.9835 N   0  0  0  0  0  0  0  0  0  0  0  0
   35.3215  106.2320    0.9763 C   0  0  0  0  0  0  0  0  0  0  0  0
  2  1  1  1
  1  7  1  0
  2  3  1  0
  2  5  1  0
  3  4  1  6
  3  5  1  0
  5  6  1  1
  6  7  1  0
  7  8  1  0
  8  9  2  0
  8 18  1  0
  9 10  1  0
 10 11  2  0
 10 16  1  0
 11 12  1  0
 12 13  1  0
 12 14  2  0
 14 15  1  0
 15 16  2  0
 16 17  1  0
 17 18  2  0
 18 19  1  0
 19 20  2  0
 19 25  1  0
 20 21  1  0
 20 22  1  0
 22 23  2  0
 23 24  1  0
 24 25  2  0
 25 26  1  0
 26 27  2  0
 26 31  1  0
 27 28  1  0
 28 29  2  0
 29 30  1  0
 30 31  2  0
M  CHG  1   4   1
M  END
$$$$
