
     RDKit          3D

 31 36  0  0  0  0  0  0  0  0999 V2000
   35.9963  103.5913   -0.1484 C   0  0  0  0  0  0  0  0  0  0  0  0
   36.4403  104.3862   -1.3709 C   0  0  2  0  0  0  0  0  0  0  0  0
   37.3156  105.5793   -1.2261 C   0  0  1  0  0  0  0  0  0  0  0  0
   38.1073  105.9789   -2.3563 N   0  0  0  0  0  4  0  0  0  0  0  0
   35.8272  105.7299   -1.2277 C   0  0  2  0  0  0  0  0  0  0  0  0
   35.1556  105.7123    0.1358 C   0  0  0  0  0  0  0  0  0  0  0  0
   34.8823  104.2991    0.3968 N   0  0  0  0  0  0  0  0  0  0  0  0
   33.7325  103.7893    1.0183 C   0  0  0  0  0  0  0  0  0  0  0  0
   33.1743  104.5765    1.9940 N   0  0  0  0  0  0  0  0  0  0  0  0
   32.0897  104.2293    2.6931 C   0  0  0  0  0  0  0  0  0  0  0  0
   31.5756  105.0478    3.6515 N   0  0  0  0  0  0  0  0  0  0  0  0
   30.4864  104.6602    4.3289 C   0  0  0  0  0  0  0  0  0  0  0  0
   29.9153  105.5028    5.3511 N   0  0  0  0  0  0  0  0  0  0  0  0
   29.8632  103.4843    4.1080 N   0  0  0  0  0  0  0  0  0  0  0  0
   30.3278  102.6370    3.1731 C   0  0  0  0  0  0  0  0  0  0  0  0
   31.4533  103.0243    2.4647 C   0  0  0  0  0  0  0  0  0  0  0  0
   32.0088  102.2283    1.4852 C   0  0  0  0  0  0  0  0  0  0  0  0
   33.1297  102.5782    0.7564 C   0  0  0  0  0  0  0  0  0  0  0  0
   33.6723  101.7209   -0.2825 C   0  0  0  0  0  0  0  0  0  0  0  0
   34.4563  100.6170    0.0280 C   0  0  0  0  0  0  0  0  0  0  0  0
   34.7569  100.1943    1.6975 Cl  0  0  0  0  0  0  0  0  0  0  0  0
   34.9696   99.8381   -1.0165 C   0  0  0  0  0  0  0  0  0  0  0  0
   34.6984  100.1637   -2.3276 C   0  0  0  0  0  0  0  0  0  0  0  0
   33.9090  101.2727   -2.6158 C   0  0  0  0  0  0  0  0  0  0  0  0
   33.3963  102.0495   -1.5897 C   0  0  0  0  0  0  0  0  0  0  0  0
   32.5263  103.1839   -1.8667 C   0  0  0  0  0  0  0  0  0  0  0  0
   31.1599  102.9896   -1.5905 C   0  0  0  0  0  0  0  0  0  0  0  0
   30.2504  103.9885   -1.8117 C   0  0  0  0  0  0  0  0  0  0  0  0
   30.6721  105.1999   -2.3104 C   0  0  0  0  0  0  0  0  0  0  0  0
   31.9790  105.3596   -2.5651 N   0  0  0  0  0  0  0  0  0  0  0  0
   32.8939  104.3892   -2.3548 C   0  0  0  0  0  0  0  0  0  0  0  0
  2  1  1  1
  1  7  1  0
  2  3  1  0
  2  5  1  0
  3  4  1  6
  3  5  1  0
  5  6  1  1
  6  7  1  0
  7  8  1  0
  8  9  2  0
  8 18  1  0
  9 10  1  0
 10 11  2  0
 10 16  1  0
 11 12  1  0
 12 13  1  0
 12 14  2  0
 14 15  1  0
 15 16  2  0
 16 17  1  0
 17 18  2  0
 18 19  1  0
 19 20  2  0
 19 25  1  0
 20 21  1  0
 20 22  1  0
 22 23  2  0
 23 24  1  0
 24 25  2  0
 25 26  1  0
 26 27  2  0
 26 31  1  0
 27 28  1  0
 28 29  2  0
 29 30  1  0
 30 31  2  0
M  CHG  1   4   1
M  END
$$$$
