
     RDKit          3D

 31 36  0  0  0  0  0  0  0  0999 V2000
   35.4723  102.4939   -0.2259 C   0  0  0  0  0  0  0  0  0  0  0  0
   36.1124  101.1179   -0.0833 C   0  0  2  0  0  0  0  0  0  0  0  0
   35.8927  100.0663   -1.1111 C   0  0  1  0  0  0  0  0  0  0  0  0
   36.8680   99.0177   -1.2255 N   0  0  0  0  0  4  0  0  0  0  0  0
   34.9897  100.1611    0.0778 C   0  0  2  0  0  0  0  0  0  0  0  0
   33.7326  100.9955   -0.1069 C   0  0  0  0  0  0  0  0  0  0  0  0
   34.1337  102.3557    0.2519 N   0  0  0  0  0  0  0  0  0  0  0  0
   33.3490  103.2813    0.9560 C   0  0  0  0  0  0  0  0  0  0  0  0
   32.6049  102.7768    1.9928 N   0  0  0  0  0  0  0  0  0  0  0  0
   31.7931  103.5204    2.7502 C   0  0  0  0  0  0  0  0  0  0  0  0
   31.0760  102.9699    3.7677 N   0  0  0  0  0  0  0  0  0  0  0  0
   30.2737  103.7523    4.5023 C   0  0  0  0  0  0  0  0  0  0  0  0
   29.4996  103.2019    5.5879 N   0  0  0  0  0  0  0  0  0  0  0  0
   30.1371  105.0764    4.2835 N   0  0  0  0  0  0  0  0  0  0  0  0
   30.8216  105.6729    3.2918 C   0  0  0  0  0  0  0  0  0  0  0  0
   31.6551  104.8765    2.5238 C   0  0  0  0  0  0  0  0  0  0  0  0
   32.4004  105.3903    1.4836 C   0  0  0  0  0  0  0  0  0  0  0  0
   33.2430  104.6302    0.6948 C   0  0  0  0  0  0  0  0  0  0  0  0
   34.0280  105.2129   -0.3789 C   0  0  0  0  0  0  0  0  0  0  0  0
   35.3483  105.5975   -0.1820 C   0  0  0  0  0  0  0  0  0  0  0  0
   36.1217  105.3260    1.3622 Cl  0  0  0  0  0  0  0  0  0  0  0  0
   36.0501  106.1731   -1.2484 C   0  0  0  0  0  0  0  0  0  0  0  0
   35.4385  106.3522   -2.4700 C   0  0  0  0  0  0  0  0  0  0  0  0
   34.1157  105.9578   -2.6457 C   0  0  0  0  0  0  0  0  0  0  0  0
   33.4129  105.3871   -1.5972 C   0  0  0  0  0  0  0  0  0  0  0  0
   32.0448  104.9206   -1.7733 C   0  0  0  0  0  0  0  0  0  0  0  0
   31.0428  105.9014   -1.6505 C   0  0  0  0  0  0  0  0  0  0  0  0
   29.7212  105.5764   -1.7977 C   0  0  0  0  0  0  0  0  0  0  0  0
   29.3622  104.2759   -2.0691 C   0  0  0  0  0  0  0  0  0  0  0  0
   30.3359  103.3605   -2.1812 N   0  0  0  0  0  0  0  0  0  0  0  0
   31.6453  103.6576   -2.0402 C   0  0  0  0  0  0  0  0  0  0  0  0
  2  1  1  6
  1  7  1  0
  2  3  1  0
  2  5  1  0
  3  4  1  1
  3  5  1  0
  5  6  1  6
  6  7  1  0
  7  8  1  0
  8  9  2  0
  8 18  1  0
  9 10  1  0
 10 11  2  0
 10 16  1  0
 11 12  1  0
 12 13  1  0
 12 14  2  0
 14 15  1  0
 15 16  2  0
 16 17  1  0
 17 18  2  0
 18 19  1  0
 19 20  2  0
 19 25  1  0
 20 21  1  0
 20 22  1  0
 22 23  2  0
 23 24  1  0
 24 25  2  0
 25 26  1  0
 26 27  2  0
 26 31  1  0
 27 28  1  0
 28 29  2  0
 29 30  1  0
 30 31  2  0
M  CHG  1   4   1
M  END
$$$$
