
     RDKit          3D

 31 36  0  0  0  0  0  0  0  0999 V2000
   34.7383  100.4970    1.3348 C   0  0  0  0  0  0  0  0  0  0  0  0
   34.9709   99.4689    0.2336 C   0  0  2  0  0  0  0  0  0  0  0  0
   36.1899   99.5262   -0.6157 C   0  0  1  0  0  0  0  0  0  0  0  0
   36.6252   98.3166   -1.2569 N   0  0  0  0  0  4  0  0  0  0  0  0
   34.9379  100.2249   -1.0429 C   0  0  2  0  0  0  0  0  0  0  0  0
   34.8176  101.6836   -0.6329 C   0  0  0  0  0  0  0  0  0  0  0  0
   34.1918  101.6474    0.6889 N   0  0  0  0  0  0  0  0  0  0  0  0
   33.2294  102.5510    1.1636 C   0  0  0  0  0  0  0  0  0  0  0  0
   32.6635  102.2483    2.3765 N   0  0  0  0  0  0  0  0  0  0  0  0
   31.7206  102.9947    2.9591 C   0  0  0  0  0  0  0  0  0  0  0  0
   31.1915  102.6494    4.1646 N   0  0  0  0  0  0  0  0  0  0  0  0
   30.2476  103.4266    4.7129 C   0  0  0  0  0  0  0  0  0  0  0  0
   29.6654  103.0902    5.9891 N   0  0  0  0  0  0  0  0  0  0  0  0
   29.7872  104.5498    4.1245 N   0  0  0  0  0  0  0  0  0  0  0  0
   30.2745  104.9385    2.9332 C   0  0  0  0  0  0  0  0  0  0  0  0
   31.2509  104.1448    2.3541 C   0  0  0  0  0  0  0  0  0  0  0  0
   31.8155  104.4553    1.1350 C   0  0  0  0  0  0  0  0  0  0  0  0
   32.7914  103.6905    0.5243 C   0  0  0  0  0  0  0  0  0  0  0  0
   33.3767  104.0628   -0.7513 C   0  0  0  0  0  0  0  0  0  0  0  0
   32.7904  103.6855   -1.9529 C   0  0  0  0  0  0  0  0  0  0  0  0
   31.2838  102.7989   -1.9553 Cl  0  0  0  0  0  0  0  0  0  0  0  0
   33.4110  104.0556   -3.1525 C   0  0  0  0  0  0  0  0  0  0  0  0
   34.5816  104.7822   -3.1369 C   0  0  0  0  0  0  0  0  0  0  0  0
   35.1504  105.1513   -1.9219 C   0  0  0  0  0  0  0  0  0  0  0  0
   34.5442  104.7904   -0.7297 C   0  0  0  0  0  0  0  0  0  0  0  0
   35.0943  105.2094    0.5519 C   0  0  0  0  0  0  0  0  0  0  0  0
   34.5197  106.3633    1.1170 C   0  0  0  0  0  0  0  0  0  0  0  0
   34.9578  106.8480    2.3200 C   0  0  0  0  0  0  0  0  0  0  0  0
   35.9724  106.2027    2.9894 C   0  0  0  0  0  0  0  0  0  0  0  0
   36.5029  105.1056    2.4296 N   0  0  0  0  0  0  0  0  0  0  0  0
   36.0872  104.6094    1.2447 C   0  0  0  0  0  0  0  0  0  0  0  0
  2  1  1  1
  1  7  1  0
  2  3  1  0
  2  5  1  0
  3  4  1  6
  3  5  1  0
  5  6  1  1
  6  7  1  0
  7  8  1  0
  8  9  2  0
  8 18  1  0
  9 10  1  0
 10 11  2  0
 10 16  1  0
 11 12  1  0
 12 13  1  0
 12 14  2  0
 14 15  1  0
 15 16  2  0
 16 17  1  0
 17 18  2  0
 18 19  1  0
 19 20  2  0
 19 25  1  0
 20 21  1  0
 20 22  1  0
 22 23  2  0
 23 24  1  0
 24 25  2  0
 25 26  1  0
 26 27  2  0
 26 31  1  0
 27 28  1  0
 28 29  2  0
 29 30  1  0
 30 31  2  0
M  CHG  1   4   1
M  END
$$$$
