
     RDKit          3D

 31 36  0  0  0  0  0  0  0  0999 V2000
   34.7232  100.7874    1.3303 C   0  0  0  0  0  0  0  0  0  0  0  0
   34.8639   99.5790    0.4119 C   0  0  2  0  0  0  0  0  0  0  0  0
   35.9177   99.5384   -0.6362 C   0  0  1  0  0  0  0  0  0  0  0  0
   36.3491   98.2536   -1.1126 N   0  0  0  0  0  4  0  0  0  0  0  0
   34.5553  100.0679   -0.9547 C   0  0  2  0  0  0  0  0  0  0  0  0
   34.3733  101.5694   -0.8032 C   0  0  0  0  0  0  0  0  0  0  0  0
   33.9777  101.7566    0.5926 N   0  0  0  0  0  0  0  0  0  0  0  0
   33.0287  102.6793    1.0575 C   0  0  0  0  0  0  0  0  0  0  0  0
   32.5974  102.5033    2.3483 N   0  0  0  0  0  0  0  0  0  0  0  0
   31.6851  103.2832    2.9355 C   0  0  0  0  0  0  0  0  0  0  0  0
   31.2915  103.0651    4.2201 N   0  0  0  0  0  0  0  0  0  0  0  0
   30.3735  103.8716    4.7701 C   0  0  0  0  0  0  0  0  0  0  0  0
   29.9336  103.6691    6.1289 N   0  0  0  0  0  0  0  0  0  0  0  0
   29.8104  104.9035    4.1082 N   0  0  0  0  0  0  0  0  0  0  0  0
   30.1620  105.1649    2.8370 C   0  0  0  0  0  0  0  0  0  0  0  0
   31.1100  104.3395    2.2552 C   0  0  0  0  0  0  0  0  0  0  0  0
   31.5391  104.5224    0.9575 C   0  0  0  0  0  0  0  0  0  0  0  0
   32.4822  103.7219    0.3412 C   0  0  0  0  0  0  0  0  0  0  0  0
   32.9237  103.9603   -1.0215 C   0  0  0  0  0  0  0  0  0  0  0  0
   32.1566  103.5630   -2.1094 C   0  0  0  0  0  0  0  0  0  0  0  0
   30.5959  102.8165   -1.8585 Cl  0  0  0  0  0  0  0  0  0  0  0  0
   32.6427  103.8008   -3.4011 C   0  0  0  0  0  0  0  0  0  0  0  0
   33.8601  104.4192   -3.5852 C   0  0  0  0  0  0  0  0  0  0  0  0
   34.6111  104.8107   -2.4812 C   0  0  0  0  0  0  0  0  0  0  0  0
   34.1389  104.5803   -1.1993 C   0  0  0  0  0  0  0  0  0  0  0  0
   34.8841  105.0273   -0.0308 C   0  0  0  0  0  0  0  0  0  0  0  0
   34.3044  106.0825    0.6983 C   0  0  0  0  0  0  0  0  0  0  0  0
   34.9170  106.5828    1.8156 C   0  0  0  0  0  0  0  0  0  0  0  0
   36.1148  106.0510    2.2357 C   0  0  0  0  0  0  0  0  0  0  0  0
   36.6460  105.0463    1.5235 N   0  0  0  0  0  0  0  0  0  0  0  0
   36.0602  104.5369    0.4189 C   0  0  0  0  0  0  0  0  0  0  0  0
  2  1  1  1
  1  7  1  0
  2  3  1  0
  2  5  1  0
  3  4  1  6
  3  5  1  0
  5  6  1  1
  6  7  1  0
  7  8  1  0
  8  9  2  0
  8 18  1  0
  9 10  1  0
 10 11  2  0
 10 16  1  0
 11 12  1  0
 12 13  1  0
 12 14  2  0
 14 15  1  0
 15 16  2  0
 16 17  1  0
 17 18  2  0
 18 19  1  0
 19 20  2  0
 19 25  1  0
 20 21  1  0
 20 22  1  0
 22 23  2  0
 23 24  1  0
 24 25  2  0
 25 26  1  0
 26 27  2  0
 26 31  1  0
 27 28  1  0
 28 29  2  0
 29 30  1  0
 30 31  2  0
M  CHG  1   4   1
M  END
$$$$
