
     RDKit          3D

 31 36  0  0  0  0  0  0  0  0999 V2000
   34.9532  101.0890    0.9794 C   0  0  0  0  0  0  0  0  0  0  0  0
   35.0584  100.0901   -0.1672 C   0  0  2  0  0  0  0  0  0  0  0  0
   36.1445  100.2017   -1.1764 C   0  0  1  0  0  0  0  0  0  0  0  0
   36.5199   99.0189   -1.9000 N   0  0  0  0  0  4  0  0  0  0  0  0
   34.8259  100.8690   -1.4086 C   0  0  2  0  0  0  0  0  0  0  0  0
   34.7228  102.3152   -0.9519 C   0  0  0  0  0  0  0  0  0  0  0  0
   34.2894  102.2340    0.4429 N   0  0  0  0  0  0  0  0  0  0  0  0
   33.3777  103.0978    1.0680 C   0  0  0  0  0  0  0  0  0  0  0  0
   32.6056  102.5460    2.0592 N   0  0  0  0  0  0  0  0  0  0  0  0
   31.6788  103.2269    2.7396 C   0  0  0  0  0  0  0  0  0  0  0  0
   30.9389  102.6313    3.7145 N   0  0  0  0  0  0  0  0  0  0  0  0
   30.0199  103.3515    4.3719 C   0  0  0  0  0  0  0  0  0  0  0  0
   29.2184  102.7520    5.4108 N   0  0  0  0  0  0  0  0  0  0  0  0
   29.7855  104.6549    4.1148 N   0  0  0  0  0  0  0  0  0  0  0  0
   30.4871  105.2937    3.1622 C   0  0  0  0  0  0  0  0  0  0  0  0
   31.4409  104.5619    2.4741 C   0  0  0  0  0  0  0  0  0  0  0  0
   32.2136  105.1231    1.4793 C   0  0  0  0  0  0  0  0  0  0  0  0
   33.1748  104.4278    0.7702 C   0  0  0  0  0  0  0  0  0  0  0  0
   33.9834  105.0607   -0.2566 C   0  0  0  0  0  0  0  0  0  0  0  0
   35.3060  105.4133   -0.0194 C   0  0  0  0  0  0  0  0  0  0  0  0
   36.0530  105.0405    1.5165 Cl  0  0  0  0  0  0  0  0  0  0  0  0
   36.0312  106.0399   -1.0405 C   0  0  0  0  0  0  0  0  0  0  0  0
   35.4399  106.2991   -2.2578 C   0  0  0  0  0  0  0  0  0  0  0  0
   34.1144  105.9355   -2.4744 C   0  0  0  0  0  0  0  0  0  0  0  0
   33.3886  105.3149   -1.4708 C   0  0  0  0  0  0  0  0  0  0  0  0
   32.0166  104.8799   -1.6927 C   0  0  0  0  0  0  0  0  0  0  0  0
   31.0292  105.8732   -1.5534 C   0  0  0  0  0  0  0  0  0  0  0  0
   29.7057  105.5777   -1.7399 C   0  0  0  0  0  0  0  0  0  0  0  0
   29.3303  104.2949   -2.0680 C   0  0  0  0  0  0  0  0  0  0  0  0
   30.2904  103.3671   -2.1948 N   0  0  0  0  0  0  0  0  0  0  0  0
   31.6014  103.6352   -2.0157 C   0  0  0  0  0  0  0  0  0  0  0  0
  2  1  1  1
  1  7  1  0
  2  3  1  0
  2  5  1  0
  3  4  1  6
  3  5  1  0
  5  6  1  1
  6  7  1  0
  7  8  1  0
  8  9  2  0
  8 18  1  0
  9 10  1  0
 10 11  2  0
 10 16  1  0
 11 12  1  0
 12 13  1  0
 12 14  2  0
 14 15  1  0
 15 16  2  0
 16 17  1  0
 17 18  2  0
 18 19  1  0
 19 20  2  0
 19 25  1  0
 20 21  1  0
 20 22  1  0
 22 23  2  0
 23 24  1  0
 24 25  2  0
 25 26  1  0
 26 27  2  0
 26 31  1  0
 27 28  1  0
 28 29  2  0
 29 30  1  0
 30 31  2  0
M  CHG  1   4   1
M  END
$$$$
