
     RDKit          3D

 31 36  0  0  0  0  0  0  0  0999 V2000
   33.8642  101.7145   -1.2177 C   0  0  0  0  0  0  0  0  0  0  0  0
   35.3369  101.3745   -1.4154 C   0  0  2  0  0  0  0  0  0  0  0  0
   35.8546  100.0185   -1.0932 C   0  0  1  0  0  0  0  0  0  0  0  0
   37.0592   99.5821   -1.7431 N   0  0  0  0  0  4  0  0  0  0  0  0
   35.8770  101.1007   -0.0606 C   0  0  2  0  0  0  0  0  0  0  0  0
   34.6716  101.1634    0.8633 C   0  0  0  0  0  0  0  0  0  0  0  0
   33.7155  102.0251    0.1682 N   0  0  0  0  0  0  0  0  0  0  0  0
   32.8781  102.9737    0.7741 C   0  0  0  0  0  0  0  0  0  0  0  0
   32.4444  102.6743    2.0412 N   0  0  0  0  0  0  0  0  0  0  0  0
   31.6292  103.4619    2.7487 C   0  0  0  0  0  0  0  0  0  0  0  0
   31.2283  103.1179    4.0031 N   0  0  0  0  0  0  0  0  0  0  0  0
   30.4100  103.9373    4.6773 C   0  0  0  0  0  0  0  0  0  0  0  0
   29.9656  103.6037    6.0085 N   0  0  0  0  0  0  0  0  0  0  0  0
   29.9558  105.1023    4.1711 N   0  0  0  0  0  0  0  0  0  0  0  0
   30.3197  105.4917    2.9367 C   0  0  0  0  0  0  0  0  0  0  0  0
   31.1655  104.6548    2.2277 C   0  0  0  0  0  0  0  0  0  0  0  0
   31.5977  104.9621    0.9548 C   0  0  0  0  0  0  0  0  0  0  0  0
   32.4409  104.1548    0.2150 C   0  0  0  0  0  0  0  0  0  0  0  0
   32.8908  104.5241   -1.1153 C   0  0  0  0  0  0  0  0  0  0  0  0
   32.1512  104.1969   -2.2449 C   0  0  0  0  0  0  0  0  0  0  0  0
   30.6140  103.3804   -2.0826 Cl  0  0  0  0  0  0  0  0  0  0  0  0
   32.6448  104.5609   -3.5039 C   0  0  0  0  0  0  0  0  0  0  0  0
   33.8426  105.2327   -3.6158 C   0  0  0  0  0  0  0  0  0  0  0  0
   34.5660  105.5523   -2.4709 C   0  0  0  0  0  0  0  0  0  0  0  0
   34.0862  105.1969   -1.2209 C   0  0  0  0  0  0  0  0  0  0  0  0
   34.8011  105.5660   -0.0071 C   0  0  0  0  0  0  0  0  0  0  0  0
   35.9635  104.8219    0.2691 C   0  0  0  0  0  0  0  0  0  0  0  0
   36.7153  105.0827    1.3830 C   0  0  0  0  0  0  0  0  0  0  0  0
   36.3342  106.0840    2.2469 C   0  0  0  0  0  0  0  0  0  0  0  0
   35.2229  106.7781    1.9610 N   0  0  0  0  0  0  0  0  0  0  0  0
   34.4660  106.5388    0.8689 C   0  0  0  0  0  0  0  0  0  0  0  0
  2  1  1  1
  1  7  1  0
  2  3  1  0
  2  5  1  0
  3  4  1  6
  3  5  1  0
  5  6  1  1
  6  7  1  0
  7  8  1  0
  8  9  2  0
  8 18  1  0
  9 10  1  0
 10 11  2  0
 10 16  1  0
 11 12  1  0
 12 13  1  0
 12 14  2  0
 14 15  1  0
 15 16  2  0
 16 17  1  0
 17 18  2  0
 18 19  1  0
 19 20  2  0
 19 25  1  0
 20 21  1  0
 20 22  1  0
 22 23  2  0
 23 24  1  0
 24 25  2  0
 25 26  1  0
 26 27  2  0
 26 31  1  0
 27 28  1  0
 28 29  2  0
 29 30  1  0
 30 31  2  0
M  CHG  1   4   1
M  END
$$$$
