
     RDKit          3D

 31 36  0  0  0  0  0  0  0  0999 V2000
   34.2748  100.7302    0.5280 C   0  0  0  0  0  0  0  0  0  0  0  0
   34.8663  100.4067   -0.8390 C   0  0  2  0  0  0  0  0  0  0  0  0
   36.3356  100.2666   -1.0186 C   0  0  1  0  0  0  0  0  0  0  0  0
   36.8104   99.4889   -2.1292 N   0  0  0  0  0  4  0  0  0  0  0  0
   35.6721  101.5915   -1.2249 C   0  0  2  0  0  0  0  0  0  0  0  0
   35.6275  102.5087   -0.0136 C   0  0  0  0  0  0  0  0  0  0  0  0
   34.3933  102.1449    0.6823 N   0  0  0  0  0  0  0  0  0  0  0  0
   33.5184  103.0387    1.3178 C   0  0  0  0  0  0  0  0  0  0  0  0
   32.7429  102.5139    2.3210 N   0  0  0  0  0  0  0  0  0  0  0  0
   31.8479  103.2255    3.0124 C   0  0  0  0  0  0  0  0  0  0  0  0
   31.1030  102.6559    3.9990 N   0  0  0  0  0  0  0  0  0  0  0  0
   30.2167  103.4064    4.6673 C   0  0  0  0  0  0  0  0  0  0  0  0
   29.4109  102.8350    5.7185 N   0  0  0  0  0  0  0  0  0  0  0  0
   30.0206  104.7161    4.4102 N   0  0  0  0  0  0  0  0  0  0  0  0
   30.7290  105.3303    3.4464 C   0  0  0  0  0  0  0  0  0  0  0  0
   31.6492  104.5669    2.7470 C   0  0  0  0  0  0  0  0  0  0  0  0
   32.4255  105.1011    1.7403 C   0  0  0  0  0  0  0  0  0  0  0  0
   33.3541  104.3740    1.0196 C   0  0  0  0  0  0  0  0  0  0  0  0
   34.1681  104.9785   -0.0198 C   0  0  0  0  0  0  0  0  0  0  0  0
   35.4530  105.4364    0.2435 C   0  0  0  0  0  0  0  0  0  0  0  0
   36.1492  105.2341    1.8343 Cl  0  0  0  0  0  0  0  0  0  0  0  0
   36.1841  106.0295   -0.7932 C   0  0  0  0  0  0  0  0  0  0  0  0
   35.6354  106.1538   -2.0510 C   0  0  0  0  0  0  0  0  0  0  0  0
   34.3474  105.6864   -2.2931 C   0  0  0  0  0  0  0  0  0  0  0  0
   33.6161  105.0978   -1.2743 C   0  0  0  0  0  0  0  0  0  0  0  0
   32.2866  104.5559   -1.5179 C   0  0  0  0  0  0  0  0  0  0  0  0
   31.2106  105.3927   -1.1670 C   0  0  0  0  0  0  0  0  0  0  0  0
   29.9166  104.9866   -1.3529 C   0  0  0  0  0  0  0  0  0  0  0  0
   29.6589  103.7456   -1.8892 C   0  0  0  0  0  0  0  0  0  0  0  0
   30.7016  102.9678   -2.2152 N   0  0  0  0  0  0  0  0  0  0  0  0
   31.9857  103.3469   -2.0410 C   0  0  0  0  0  0  0  0  0  0  0  0
  2  1  1  1
  1  7  1  0
  2  3  1  0
  2  5  1  0
  3  4  1  6
  3  5  1  0
  5  6  1  1
  6  7  1  0
  7  8  1  0
  8  9  2  0
  8 18  1  0
  9 10  1  0
 10 11  2  0
 10 16  1  0
 11 12  1  0
 12 13  1  0
 12 14  2  0
 14 15  1  0
 15 16  2  0
 16 17  1  0
 17 18  2  0
 18 19  1  0
 19 20  2  0
 19 25  1  0
 20 21  1  0
 20 22  1  0
 22 23  2  0
 23 24  1  0
 24 25  2  0
 25 26  1  0
 26 27  2  0
 26 31  1  0
 27 28  1  0
 28 29  2  0
 29 30  1  0
 30 31  2  0
M  CHG  1   4   1
M  END
$$$$
