
     RDKit          3D

 31 36  0  0  0  0  0  0  0  0999 V2000
   33.9259  100.3508    0.8506 C   0  0  0  0  0  0  0  0  0  0  0  0
   34.5402   99.8505   -0.4516 C   0  0  2  0  0  0  0  0  0  0  0  0
   36.0156   99.7579   -0.6107 C   0  0  1  0  0  0  0  0  0  0  0  0
   36.5345   98.8431   -1.5893 N   0  0  0  0  0  4  0  0  0  0  0  0
   35.2884  101.0005   -1.0171 C   0  0  2  0  0  0  0  0  0  0  0  0
   35.1917  102.0898    0.0386 C   0  0  0  0  0  0  0  0  0  0  0  0
   33.9733  101.7766    0.7849 N   0  0  0  0  0  0  0  0  0  0  0  0
   33.0517  102.7128    1.2771 C   0  0  0  0  0  0  0  0  0  0  0  0
   32.6963  102.5745    2.5953 N   0  0  0  0  0  0  0  0  0  0  0  0
   31.8186  103.3715    3.2117 C   0  0  0  0  0  0  0  0  0  0  0  0
   31.5004  103.1910    4.5227 N   0  0  0  0  0  0  0  0  0  0  0  0
   30.6149  104.0135    5.1015 C   0  0  0  0  0  0  0  0  0  0  0  0
   30.2549  103.8507    6.4888 N   0  0  0  0  0  0  0  0  0  0  0  0
   30.0132  105.0260    4.4438 N   0  0  0  0  0  0  0  0  0  0  0  0
   30.2901  105.2503    3.1473 C   0  0  0  0  0  0  0  0  0  0  0  0
   31.2038  104.4080    2.5355 C   0  0  0  0  0  0  0  0  0  0  0  0
   31.5566  104.5530    1.2104 C   0  0  0  0  0  0  0  0  0  0  0  0
   32.4633  103.7345    0.5638 C   0  0  0  0  0  0  0  0  0  0  0  0
   32.8247  103.9331   -0.8284 C   0  0  0  0  0  0  0  0  0  0  0  0
   31.9939  103.5094   -1.8581 C   0  0  0  0  0  0  0  0  0  0  0  0
   30.4485  102.7773   -1.4953 Cl  0  0  0  0  0  0  0  0  0  0  0  0
   32.4040  103.7092   -3.1821 C   0  0  0  0  0  0  0  0  0  0  0  0
   33.6104  104.3166   -3.4544 C   0  0  0  0  0  0  0  0  0  0  0  0
   34.4260  104.7351   -2.4077 C   0  0  0  0  0  0  0  0  0  0  0  0
   34.0293  104.5424   -1.0944 C   0  0  0  0  0  0  0  0  0  0  0  0
   34.8431  105.0181    0.0155 C   0  0  0  0  0  0  0  0  0  0  0  0
   34.2575  106.0114    0.8225 C   0  0  0  0  0  0  0  0  0  0  0  0
   34.9312  106.5315    1.8947 C   0  0  0  0  0  0  0  0  0  0  0  0
   36.1972  106.0810    2.1917 C   0  0  0  0  0  0  0  0  0  0  0  0
   36.7326  105.1341    1.4073 N   0  0  0  0  0  0  0  0  0  0  0  0
   36.0873  104.6066    0.3451 C   0  0  0  0  0  0  0  0  0  0  0  0
  2  1  1  1
  1  7  1  0
  2  3  1  0
  2  5  1  0
  3  4  1  6
  3  5  1  0
  5  6  1  1
  6  7  1  0
  7  8  1  0
  8  9  2  0
  8 18  1  0
  9 10  1  0
 10 11  2  0
 10 16  1  0
 11 12  1  0
 12 13  1  0
 12 14  2  0
 14 15  1  0
 15 16  2  0
 16 17  1  0
 17 18  2  0
 18 19  1  0
 19 20  2  0
 19 25  1  0
 20 21  1  0
 20 22  1  0
 22 23  2  0
 23 24  1  0
 24 25  2  0
 25 26  1  0
 26 27  2  0
 26 31  1  0
 27 28  1  0
 28 29  2  0
 29 30  1  0
 30 31  2  0
M  CHG  1   4   1
M  END
$$$$
