
     RDKit          3D

 31 36  0  0  0  0  0  0  0  0999 V2000
   34.1095  101.9975   -1.7084 C   0  0  0  0  0  0  0  0  0  0  0  0
   33.5228  101.2323   -2.8889 C   0  0  2  0  0  0  0  0  0  0  0  0
   33.2241  101.9234   -4.1710 C   0  0  1  0  0  0  0  0  0  0  0  0
   33.1709  101.1330   -5.3694 N   0  0  0  0  0  4  0  0  0  0  0  0
   32.1721  101.8040   -3.1141 C   0  0  2  0  0  0  0  0  0  0  0  0
   32.0709  102.9682   -2.1420 C   0  0  0  0  0  0  0  0  0  0  0  0
   33.0052  102.6361   -1.0665 N   0  0  0  0  0  0  0  0  0  0  0  0
   32.7983  102.8758    0.3002 C   0  0  0  0  0  0  0  0  0  0  0  0
   31.6550  103.5610    0.6266 N   0  0  0  0  0  0  0  0  0  0  0  0
   31.3194  103.8848    1.8788 C   0  0  0  0  0  0  0  0  0  0  0  0
   30.1724  104.5662    2.1486 N   0  0  0  0  0  0  0  0  0  0  0  0
   29.8745  104.8707    3.4191 C   0  0  0  0  0  0  0  0  0  0  0  0
   28.6673  105.5919    3.7408 N   0  0  0  0  0  0  0  0  0  0  0  0
   30.6629  104.5327    4.4602 N   0  0  0  0  0  0  0  0  0  0  0  0
   31.8078  103.8591    4.2518 C   0  0  0  0  0  0  0  0  0  0  0  0
   32.1289  103.5373    2.9434 C   0  0  0  0  0  0  0  0  0  0  0  0
   33.2795  102.8483    2.6227 C   0  0  0  0  0  0  0  0  0  0  0  0
   33.6353  102.5082    1.3312 C   0  0  0  0  0  0  0  0  0  0  0  0
   34.8461  101.7628    1.0362 C   0  0  0  0  0  0  0  0  0  0  0  0
   34.9292  100.3965    1.2732 C   0  0  0  0  0  0  0  0  0  0  0  0
   33.5408   99.5236    1.8786 Cl  0  0  0  0  0  0  0  0  0  0  0  0
   36.1295   99.7337    0.9885 C   0  0  0  0  0  0  0  0  0  0  0  0
   37.2063  100.4279    0.4813 C   0  0  0  0  0  0  0  0  0  0  0  0
   37.1003  101.7958    0.2497 C   0  0  0  0  0  0  0  0  0  0  0  0
   35.9172  102.4607    0.5277 C   0  0  0  0  0  0  0  0  0  0  0  0
   35.7676  103.8814    0.2452 C   0  0  0  0  0  0  0  0  0  0  0  0
   36.0711  104.2795   -1.0702 C   0  0  0  0  0  0  0  0  0  0  0  0
   35.9649  105.5908   -1.4485 C   0  0  0  0  0  0  0  0  0  0  0  0
   35.5568  106.5358   -0.5350 C   0  0  0  0  0  0  0  0  0  0  0  0
   35.2737  106.1306    0.7117 N   0  0  0  0  0  0  0  0  0  0  0  0
   35.3710  104.8435    1.1073 C   0  0  0  0  0  0  0  0  0  0  0  0
  2  1  1  1
  1  7  1  0
  2  3  1  0
  2  5  1  0
  3  4  1  6
  3  5  1  0
  5  6  1  1
  6  7  1  0
  7  8  1  0
  8  9  2  0
  8 18  1  0
  9 10  1  0
 10 11  2  0
 10 16  1  0
 11 12  1  0
 12 13  1  0
 12 14  2  0
 14 15  1  0
 15 16  2  0
 16 17  1  0
 17 18  2  0
 18 19  1  0
 19 20  2  0
 19 25  1  0
 20 21  1  0
 20 22  1  0
 22 23  2  0
 23 24  1  0
 24 25  2  0
 25 26  1  0
 26 27  2  0
 26 31  1  0
 27 28  1  0
 28 29  2  0
 29 30  1  0
 30 31  2  0
M  CHG  1   4   1
M  END
$$$$
