
     RDKit          3D

 31 36  0  0  0  0  0  0  0  0999 V2000
   35.9039  103.0855    1.1628 C   0  0  0  0  0  0  0  0  0  0  0  0
   36.8263  102.7988   -0.0164 C   0  0  2  0  0  0  0  0  0  0  0  0
   37.8070  103.8156   -0.4801 C   0  0  1  0  0  0  0  0  0  0  0  0
   38.9599  103.3616   -1.2070 N   0  0  0  0  0  4  0  0  0  0  0  0
   36.4378  103.7578   -1.0800 C   0  0  2  0  0  0  0  0  0  0  0  0
   35.3919  104.6547   -0.4377 C   0  0  0  0  0  0  0  0  0  0  0  0
   34.8152  103.8437    0.6344 N   0  0  0  0  0  0  0  0  0  0  0  0
   33.4618  103.8175    1.0030 C   0  0  0  0  0  0  0  0  0  0  0  0
   33.2017  103.5746    2.3283 N   0  0  0  0  0  0  0  0  0  0  0  0
   31.9687  103.4999    2.8379 C   0  0  0  0  0  0  0  0  0  0  0  0
   31.7653  103.2563    4.1615 N   0  0  0  0  0  0  0  0  0  0  0  0
   30.5119  103.1893    4.6305 C   0  0  0  0  0  0  0  0  0  0  0  0
   30.2601  102.9328    6.0275 N   0  0  0  0  0  0  0  0  0  0  0  0
   29.4248  103.3530    3.8486 N   0  0  0  0  0  0  0  0  0  0  0  0
   29.5669  103.5960    2.5339 C   0  0  0  0  0  0  0  0  0  0  0  0
   30.8570  103.6680    2.0347 C   0  0  0  0  0  0  0  0  0  0  0  0
   31.1110  103.9128    0.7016 C   0  0  0  0  0  0  0  0  0  0  0  0
   32.3821  103.9924    0.1648 C   0  0  0  0  0  0  0  0  0  0  0  0
   32.6087  104.2732   -1.2417 C   0  0  0  0  0  0  0  0  0  0  0  0
   32.4468  105.5526   -1.7583 C   0  0  0  0  0  0  0  0  0  0  0  0
   32.0243  106.8798   -0.7018 Cl  0  0  0  0  0  0  0  0  0  0  0  0
   32.6591  105.7600   -3.1268 C   0  0  0  0  0  0  0  0  0  0  0  0
   33.0232  104.7112   -3.9429 C   0  0  0  0  0  0  0  0  0  0  0  0
   33.1818  103.4382   -3.4040 C   0  0  0  0  0  0  0  0  0  0  0  0
   32.9744  103.2227   -2.0513 C   0  0  0  0  0  0  0  0  0  0  0  0
   33.1843  101.9098   -1.4572 C   0  0  0  0  0  0  0  0  0  0  0  0
   34.4796  101.3763   -1.5930 C   0  0  0  0  0  0  0  0  0  0  0  0
   34.7909  100.1490   -1.0724 C   0  0  0  0  0  0  0  0  0  0  0  0
   33.8290   99.4237   -0.4071 C   0  0  0  0  0  0  0  0  0  0  0  0
   32.6029   99.9545   -0.2914 N   0  0  0  0  0  0  0  0  0  0  0  0
   32.2729  101.1623   -0.7964 C   0  0  0  0  0  0  0  0  0  0  0  0
  2  1  1  1
  1  7  1  0
  2  3  1  0
  2  5  1  0
  3  4  1  6
  3  5  1  0
  5  6  1  1
  6  7  1  0
  7  8  1  0
  8  9  2  0
  8 18  1  0
  9 10  1  0
 10 11  2  0
 10 16  1  0
 11 12  1  0
 12 13  1  0
 12 14  2  0
 14 15  1  0
 15 16  2  0
 16 17  1  0
 17 18  2  0
 18 19  1  0
 19 20  2  0
 19 25  1  0
 20 21  1  0
 20 22  1  0
 22 23  2  0
 23 24  1  0
 24 25  2  0
 25 26  1  0
 26 27  2  0
 26 31  1  0
 27 28  1  0
 28 29  2  0
 29 30  1  0
 30 31  2  0
M  CHG  1   4   1
M  END
$$$$
