
     RDKit          3D

 31 36  0  0  0  0  0  0  0  0999 V2000
   33.7376  101.2346   -0.9392 C   0  0  0  0  0  0  0  0  0  0  0  0
   35.1678  100.7514   -1.1502 C   0  0  2  0  0  0  0  0  0  0  0  0
   35.5773   99.3829   -0.7376 C   0  0  1  0  0  0  0  0  0  0  0  0
   36.7166   98.7937   -1.3844 N   0  0  0  0  0  4  0  0  0  0  0  0
   35.7285  100.5336    0.2063 C   0  0  2  0  0  0  0  0  0  0  0  0
   34.5654  100.7725    1.1554 C   0  0  0  0  0  0  0  0  0  0  0  0
   33.6640  101.6608    0.4218 N   0  0  0  0  0  0  0  0  0  0  0  0
   32.9329  102.7229    0.9746 C   0  0  0  0  0  0  0  0  0  0  0  0
   32.5046  102.5527    2.2672 N   0  0  0  0  0  0  0  0  0  0  0  0
   31.7833  103.4598    2.9323 C   0  0  0  0  0  0  0  0  0  0  0  0
   31.3831  103.2413    4.2148 N   0  0  0  0  0  0  0  0  0  0  0  0
   30.6607  104.1779    4.8445 C   0  0  0  0  0  0  0  0  0  0  0  0
   30.2202  103.9791    6.2036 N   0  0  0  0  0  0  0  0  0  0  0  0
   30.3039  105.3432    4.2661 N   0  0  0  0  0  0  0  0  0  0  0  0
   30.6720  105.6117    3.0010 C   0  0  0  0  0  0  0  0  0  0  0  0
   31.4191  104.6526    2.3373 C   0  0  0  0  0  0  0  0  0  0  0  0
   31.8466  104.8305    1.0384 C   0  0  0  0  0  0  0  0  0  0  0  0
   32.5932  103.8990    0.3420 C   0  0  0  0  0  0  0  0  0  0  0  0
   33.0426  104.1329   -1.0189 C   0  0  0  0  0  0  0  0  0  0  0  0
   32.2662  103.7626   -2.1098 C   0  0  0  0  0  0  0  0  0  0  0  0
   30.6855  103.0575   -1.8645 Cl  0  0  0  0  0  0  0  0  0  0  0  0
   32.7600  103.9943   -3.3996 C   0  0  0  0  0  0  0  0  0  0  0  0
   33.9941  104.5803   -3.5791 C   0  0  0  0  0  0  0  0  0  0  0  0
   34.7541  104.9451   -2.4721 C   0  0  0  0  0  0  0  0  0  0  0  0
   34.2744  104.7206   -1.1920 C   0  0  0  0  0  0  0  0  0  0  0  0
   35.0302  105.1406   -0.0203 C   0  0  0  0  0  0  0  0  0  0  0  0
   35.0331  106.5232    0.2431 C   0  0  0  0  0  0  0  0  0  0  0  0
   35.7102  107.0309    1.3192 C   0  0  0  0  0  0  0  0  0  0  0  0
   36.3982  106.1832    2.1570 C   0  0  0  0  0  0  0  0  0  0  0  0
   36.3796  104.8703    1.8840 N   0  0  0  0  0  0  0  0  0  0  0  0
   35.7191  104.3470    0.8292 C   0  0  0  0  0  0  0  0  0  0  0  0
  2  1  1  1
  1  7  1  0
  2  3  1  0
  2  5  1  0
  3  4  1  6
  3  5  1  0
  5  6  1  1
  6  7  1  0
  7  8  1  0
  8  9  2  0
  8 18  1  0
  9 10  1  0
 10 11  2  0
 10 16  1  0
 11 12  1  0
 12 13  1  0
 12 14  2  0
 14 15  1  0
 15 16  2  0
 16 17  1  0
 17 18  2  0
 18 19  1  0
 19 20  2  0
 19 25  1  0
 20 21  1  0
 20 22  1  0
 22 23  2  0
 23 24  1  0
 24 25  2  0
 25 26  1  0
 26 27  2  0
 26 31  1  0
 27 28  1  0
 28 29  2  0
 29 30  1  0
 30 31  2  0
M  CHG  1   4   1
M  END
$$$$
