
     RDKit          3D

 31 36  0  0  0  0  0  0  0  0999 V2000
   33.7760  101.2407   -1.1038 C   0  0  0  0  0  0  0  0  0  0  0  0
   35.2332  100.9385   -1.4333 C   0  0  2  0  0  0  0  0  0  0  0  0
   35.8427   99.6342   -1.0618 C   0  0  1  0  0  0  0  0  0  0  0  0
   36.9900   99.1881   -1.8023 N   0  0  0  0  0  4  0  0  0  0  0  0
   35.9257  100.8001   -0.1281 C   0  0  2  0  0  0  0  0  0  0  0  0
   34.8234  100.8973    0.9140 C   0  0  0  0  0  0  0  0  0  0  0  0
   33.7611  101.6620    0.2607 N   0  0  0  0  0  0  0  0  0  0  0  0
   32.9509  102.6277    0.8763 C   0  0  0  0  0  0  0  0  0  0  0  0
   32.6184  102.3905    2.1864 N   0  0  0  0  0  0  0  0  0  0  0  0
   31.8412  103.2015    2.9102 C   0  0  0  0  0  0  0  0  0  0  0  0
   31.5414  102.9196    4.2076 N   0  0  0  0  0  0  0  0  0  0  0  0
   30.7579  103.7603    4.8967 C   0  0  0  0  0  0  0  0  0  0  0  0
   30.4203  103.4923    6.2733 N   0  0  0  0  0  0  0  0  0  0  0  0
   30.2429  104.8880    4.3648 N   0  0  0  0  0  0  0  0  0  0  0  0
   30.5064  105.2157    3.0876 C   0  0  0  0  0  0  0  0  0  0  0  0
   31.3150  104.3559    2.3627 C   0  0  0  0  0  0  0  0  0  0  0  0
   31.6454  104.6008    1.0465 C   0  0  0  0  0  0  0  0  0  0  0  0
   32.4486  103.7689    0.2895 C   0  0  0  0  0  0  0  0  0  0  0  0
   32.7910  104.0727   -1.0885 C   0  0  0  0  0  0  0  0  0  0  0  0
   31.9696  103.6846   -2.1395 C   0  0  0  0  0  0  0  0  0  0  0  0
   30.4572  102.8690   -1.8178 Cl  0  0  0  0  0  0  0  0  0  0  0  0
   32.3612  103.9870   -3.4496 C   0  0  0  0  0  0  0  0  0  0  0  0
   33.5404  104.6588   -3.6876 C   0  0  0  0  0  0  0  0  0  0  0  0
   34.3469  105.0400   -2.6197 C   0  0  0  0  0  0  0  0  0  0  0  0
   33.9684  104.7458   -1.3200 C   0  0  0  0  0  0  0  0  0  0  0  0
   34.7713  105.1798   -0.1853 C   0  0  0  0  0  0  0  0  0  0  0  0
   36.0326  104.5682   -0.0581 C   0  0  0  0  0  0  0  0  0  0  0  0
   36.8725  104.8999    0.9708 C   0  0  0  0  0  0  0  0  0  0  0  0
   36.4837  105.8426    1.8950 C   0  0  0  0  0  0  0  0  0  0  0  0
   35.2773  106.4104    1.7512 N   0  0  0  0  0  0  0  0  0  0  0  0
   34.4325  106.0993    0.7451 C   0  0  0  0  0  0  0  0  0  0  0  0
  2  1  1  1
  1  7  1  0
  2  3  1  0
  2  5  1  0
  3  4  1  6
  3  5  1  0
  5  6  1  1
  6  7  1  0
  7  8  1  0
  8  9  2  0
  8 18  1  0
  9 10  1  0
 10 11  2  0
 10 16  1  0
 11 12  1  0
 12 13  1  0
 12 14  2  0
 14 15  1  0
 15 16  2  0
 16 17  1  0
 17 18  2  0
 18 19  1  0
 19 20  2  0
 19 25  1  0
 20 21  1  0
 20 22  1  0
 22 23  2  0
 23 24  1  0
 24 25  2  0
 25 26  1  0
 26 27  2  0
 26 31  1  0
 27 28  1  0
 28 29  2  0
 29 30  1  0
 30 31  2  0
M  CHG  1   4   1
M  END
$$$$
