
     RDKit          3D

 46 48  0  0  0  0  0  0  0  0999 V2000
    6.2820  -10.3436   10.3281 C   0  0  0  0  0  0  0  0  0  0  0  0
    6.8209   -9.4077   11.2139 C   0  0  0  0  0  0  0  0  0  0  0  0
    6.9014   -8.0855   10.8150 C   0  0  0  0  0  0  0  0  0  0  0  0
    6.4416   -7.7567    9.5525 C   0  0  0  0  0  0  0  0  0  0  0  0
    5.9121   -8.6930    8.6896 C   0  0  0  0  0  0  0  0  0  0  0  0
    5.8279  -10.0058    9.0754 C   0  0  0  0  0  0  0  0  0  0  0  0
    5.2857  -11.0743    8.2105 C   0  0  0  0  0  0  0  0  0  0  0  0
    4.0073  -11.5865    8.6153 N   0  0  0  0  0  0  0  0  0  0  0  0
    3.8280  -12.8896    9.0916 C   0  0  0  0  0  0  0  0  0  0  0  0
    4.8262  -13.5928    9.3697 O   0  0  0  0  0  0  0  0  0  0  0  0
    2.4899  -13.5057    9.2937 C   0  0  1  0  0  0  0  0  0  0  0  0
    2.0134  -14.0372    8.1166 O   0  0  0  0  0  0  0  0  0  0  0  0
    2.4374  -14.5017   10.3866 C   0  0  2  0  0  0  0  0  0  0  0  0
    1.2114  -15.3634   10.4476 C   0  0  0  0  0  0  0  0  0  0  0  0
    1.4181  -16.7791   10.8283 C   0  0  0  0  0  0  0  0  0  0  0  0
    0.3881  -17.1403   11.9067 C   0  0  0  0  0  0  0  0  0  0  0  0
    0.5375  -18.5566   12.3893 C   0  0  0  0  0  0  0  0  0  0  0  0
   -0.8330  -19.0568   12.5902 N   0  0  0  0  0  4  0  0  0  0  0  0
    2.4449  -13.7692   11.6510 N   0  0  0  0  0  0  0  0  0  0  0  0
    3.6035  -13.5259   12.4072 C   0  0  0  0  0  0  0  0  0  0  0  0
    4.5971  -14.2659   12.1840 O   0  0  0  0  0  0  0  0  0  0  0  0
    3.7509  -12.4907   13.4311 C   0  0  1  0  0  0  0  0  0  0  0  0
    3.0282  -12.7325   14.6568 N   0  0  0  0  0  0  0  0  0  0  0  0
    2.0327  -13.7742   14.7187 C   0  0  0  0  0  0  0  0  0  0  0  0
    0.9906  -13.5953   14.0401 O   0  0  0  0  0  0  0  0  0  0  0  0
    2.2221  -14.9099   15.4898 O   0  0  0  0  0  0  0  0  0  0  0  0
    1.4811  -16.0648   15.1976 C   0  0  0  0  0  0  0  0  0  0  0  0
    1.9204  -17.1914   16.0499 C   0  0  0  0  0  0  0  0  0  0  0  0
    1.1507  -18.3091   16.2139 C   0  0  0  0  0  0  0  0  0  0  0  0
    1.5193  -19.3997   16.9989 C   0  0  0  0  0  0  0  0  0  0  0  0
    2.7467  -19.3181   17.6412 C   0  0  0  0  0  0  0  0  0  0  0  0
    3.5251  -18.2045   17.4842 C   0  0  0  0  0  0  0  0  0  0  0  0
    3.1440  -17.1249   16.6980 C   0  0  0  0  0  0  0  0  0  0  0  0
    5.2054  -12.1630   13.7190 C   0  0  0  0  0  0  0  0  0  0  0  0
    5.3894  -10.9488   14.5612 C   0  0  0  0  0  0  0  0  0  0  0  0
    6.8414  -10.7668   14.8140 C   0  0  0  0  0  0  0  0  0  0  0  0
    7.6737  -11.6534   14.4150 O   0  0  0  0  0  0  0  0  0  0  0  0
    7.4105   -9.6559   15.4853 N   0  0  0  0  0  0  0  0  0  0  0  0
    8.2364   -9.8321   16.5934 N   0  0  0  0  0  0  0  0  0  0  0  0
    9.1913  -10.9123   16.6606 C   0  0  0  0  0  0  0  0  0  0  0  0
    8.1402   -8.9333   17.6844 C   0  0  0  0  0  0  0  0  0  0  0  0
    8.9067   -9.0735   18.8143 C   0  0  0  0  0  0  0  0  0  0  0  0
    8.8140   -8.2187   19.8690 C   0  0  0  0  0  0  0  0  0  0  0  0
    7.9173   -7.1744   19.7980 C   0  0  0  0  0  0  0  0  0  0  0  0
    7.1414   -7.0045   18.6933 C   0  0  0  0  0  0  0  0  0  0  0  0
    7.2558   -7.8807   17.6461 C   0  0  0  0  0  0  0  0  0  0  0  0
  1  2  2  0
  1  6  1  0
  2  3  1  0
  3  4  2  0
  4  5  1  0
  5  6  2  0
  6  7  1  0
  7  8  1  0
  8  9  1  0
  9 10  2  0
  9 11  1  0
 11 12  1  6
 11 13  1  0
 13 14  1  6
 13 19  1  0
 14 15  1  0
 15 16  1  0
 16 17  1  0
 17 18  1  0
 19 20  1  0
 20 21  2  0
 20 22  1  0
 22 23  1  0
 22 34  1  1
 23 24  1  0
 24 25  2  0
 24 26  1  0
 26 27  1  0
 27 28  1  0
 28 29  2  0
 28 33  1  0
 29 30  1  0
 30 31  2  0
 31 32  1  0
 32 33  2  0
 34 35  1  0
 35 36  1  0
 36 37  2  0
 36 38  1  0
 38 39  1  0
 39 40  1  0
 39 41  1  0
 41 42  2  0
 41 46  1  0
 42 43  1  0
 43 44  2  0
 44 45  1  0
 45 46  2  0
M  CHG  1  18   1
M  END
$$$$
