
     RDKit          3D

 46 48  0  0  0  0  0  0  0  0999 V2000
   -1.0124  -10.1385    8.3467 C   0  0  0  0  0  0  0  0  0  0  0  0
   -2.3771  -10.0437    8.6293 C   0  0  0  0  0  0  0  0  0  0  0  0
   -2.9910   -8.8079    8.5319 C   0  0  0  0  0  0  0  0  0  0  0  0
   -2.2175   -7.7237    8.1578 C   0  0  0  0  0  0  0  0  0  0  0  0
   -0.8709   -7.8342    7.8822 C   0  0  0  0  0  0  0  0  0  0  0  0
   -0.2530   -9.0544    7.9758 C   0  0  0  0  0  0  0  0  0  0  0  0
    1.1859   -9.2598    7.7096 C   0  0  0  0  0  0  0  0  0  0  0  0
    1.7096  -10.5163    8.1650 N   0  0  0  0  0  0  0  0  0  0  0  0
    3.0452  -10.8918    7.9854 C   0  0  0  0  0  0  0  0  0  0  0  0
    3.8187  -10.1482    7.3396 O   0  0  0  0  0  0  0  0  0  0  0  0
    3.6169  -12.1521    8.5295 C   0  0  1  0  0  0  0  0  0  0  0  0
    4.1133  -12.9411    7.5165 O   0  0  0  0  0  0  0  0  0  0  0  0
    4.6269  -11.9530    9.5922 C   0  0  2  0  0  0  0  0  0  0  0  0
    5.6084  -13.0680    9.7990 C   0  0  0  0  0  0  0  0  0  0  0  0
    7.0343  -12.6819    9.8984 C   0  0  0  0  0  0  0  0  0  0  0  0
    7.8279  -13.9019   10.3842 C   0  0  0  0  0  0  0  0  0  0  0  0
    9.3083  -13.6415   10.4274 C   0  0  0  0  0  0  0  0  0  0  0  0
    9.5215  -12.7366   11.5696 N   0  0  0  0  0  4  0  0  0  0  0  0
    3.9135  -11.8402   10.8624 N   0  0  0  0  0  0  0  0  0  0  0  0
    4.5247  -11.4734   12.0730 C   0  0  0  0  0  0  0  0  0  0  0  0
    5.4111  -10.5814   12.0179 O   0  0  0  0  0  0  0  0  0  0  0  0
    4.2210  -12.0413   13.3872 C   0  0  1  0  0  0  0  0  0  0  0  0
    5.3344  -12.6712   14.0556 N   0  0  0  0  0  0  0  0  0  0  0  0
    5.3907  -12.7053   15.4963 C   0  0  0  0  0  0  0  0  0  0  0  0
    6.5216  -12.8970   16.0092 O   0  0  0  0  0  0  0  0  0  0  0  0
    4.2524  -12.5359   16.2683 O   0  0  0  0  0  0  0  0  0  0  0  0
    4.3765  -12.0013   17.5594 C   0  0  0  0  0  0  0  0  0  0  0  0
    4.4769  -10.5264   17.5018 C   0  0  0  0  0  0  0  0  0  0  0  0
    3.4059   -9.7234   17.7788 C   0  0  0  0  0  0  0  0  0  0  0  0
    3.4478   -8.3310   17.7454 C   0  0  0  0  0  0  0  0  0  0  0  0
    4.6630   -7.7525   17.4073 C   0  0  0  0  0  0  0  0  0  0  0  0
    5.7412   -8.5463   17.1282 C   0  0  0  0  0  0  0  0  0  0  0  0
    5.6841   -9.9335   17.1657 C   0  0  0  0  0  0  0  0  0  0  0  0
    3.5355  -11.0447   14.3051 C   0  0  0  0  0  0  0  0  0  0  0  0
    2.1401  -10.7197   13.8995 C   0  0  0  0  0  0  0  0  0  0  0  0
    2.1434   -9.4013   13.2161 C   0  0  0  0  0  0  0  0  0  0  0  0
    2.2486   -9.3442   11.9419 O   0  0  0  0  0  0  0  0  0  0  0  0
    2.0374   -8.1508   13.8747 N   0  0  0  0  0  0  0  0  0  0  0  0
    1.9001   -6.9676   13.1521 N   0  0  0  0  0  0  0  0  0  0  0  0
    1.9104   -6.9576   11.7088 C   0  0  0  0  0  0  0  0  0  0  0  0
    1.7479   -5.7413   13.8450 C   0  0  0  0  0  0  0  0  0  0  0  0
    2.3531   -4.5844   13.4213 C   0  0  0  0  0  0  0  0  0  0  0  0
    2.2175   -3.4049   14.0862 C   0  0  0  0  0  0  0  0  0  0  0  0
    1.4437   -3.3727   15.2263 C   0  0  0  0  0  0  0  0  0  0  0  0
    0.8287   -4.5002   15.6754 C   0  0  0  0  0  0  0  0  0  0  0  0
    0.9828   -5.6741   14.9859 C   0  0  0  0  0  0  0  0  0  0  0  0
  1  2  2  0
  1  6  1  0
  2  3  1  0
  3  4  2  0
  4  5  1  0
  5  6  2  0
  6  7  1  0
  7  8  1  0
  8  9  1  0
  9 10  2  0
  9 11  1  0
 11 12  1  6
 11 13  1  0
 13 14  1  1
 13 19  1  0
 14 15  1  0
 15 16  1  0
 16 17  1  0
 17 18  1  0
 19 20  1  0
 20 21  2  0
 20 22  1  0
 22 23  1  0
 22 34  1  1
 23 24  1  0
 24 25  2  0
 24 26  1  0
 26 27  1  0
 27 28  1  0
 28 29  2  0
 28 33  1  0
 29 30  1  0
 30 31  2  0
 31 32  1  0
 32 33  2  0
 34 35  1  0
 35 36  1  0
 36 37  2  0
 36 38  1  0
 38 39  1  0
 39 40  1  0
 39 41  1  0
 41 42  2  0
 41 46  1  0
 42 43  1  0
 43 44  2  0
 44 45  1  0
 45 46  2  0
M  CHG  1  18   1
M  END
$$$$
