
     RDKit          3D

 46 48  0  0  0  0  0  0  0  0999 V2000
    3.8204  -14.6690   13.2021 C   0  0  0  0  0  0  0  0  0  0  0  0
    4.6274  -15.0945   14.2598 C   0  0  0  0  0  0  0  0  0  0  0  0
    5.0245  -16.4190   14.3008 C   0  0  0  0  0  0  0  0  0  0  0  0
    4.5996  -17.2583   13.2867 C   0  0  0  0  0  0  0  0  0  0  0  0
    3.8027  -16.8224   12.2491 C   0  0  0  0  0  0  0  0  0  0  0  0
    3.4037  -15.5118   12.1993 C   0  0  0  0  0  0  0  0  0  0  0  0
    2.5418  -14.9642   11.1312 C   0  0  0  0  0  0  0  0  0  0  0  0
    3.2423  -14.5220    9.9590 N   0  0  0  0  0  0  0  0  0  0  0  0
    2.8465  -13.4060    9.2140 C   0  0  0  0  0  0  0  0  0  0  0  0
    1.6545  -13.0238    9.2524 O   0  0  0  0  0  0  0  0  0  0  0  0
    3.7792  -12.6257    8.3583 C   0  0  1  0  0  0  0  0  0  0  0  0
    3.3607  -12.6319    7.0469 O   0  0  0  0  0  0  0  0  0  0  0  0
    4.0282  -11.2458    8.8307 C   0  0  2  0  0  0  0  0  0  0  0  0
    4.6196  -10.2943    7.8336 C   0  0  0  0  0  0  0  0  0  0  0  0
    4.7320   -8.8801    8.2572 C   0  0  0  0  0  0  0  0  0  0  0  0
    5.1552   -8.0478    7.0397 C   0  0  0  0  0  0  0  0  0  0  0  0
    5.3292   -6.5921    7.3741 C   0  0  0  0  0  0  0  0  0  0  0  0
    5.6894   -5.9316    6.1080 N   0  0  0  0  0  4  0  0  0  0  0  0
    5.0120  -11.3199    9.9085 N   0  0  0  0  0  0  0  0  0  0  0  0
    4.7990  -10.8067   11.1988 C   0  0  0  0  0  0  0  0  0  0  0  0
    3.6923  -11.0646   11.7404 O   0  0  0  0  0  0  0  0  0  0  0  0
    5.7504   -9.9980   11.9619 C   0  0  1  0  0  0  0  0  0  0  0  0
    5.4728   -8.5818   11.9839 N   0  0  0  0  0  0  0  0  0  0  0  0
    6.5530   -7.6323   12.0920 C   0  0  0  0  0  0  0  0  0  0  0  0
    7.7156   -8.1072   12.1302 O   0  0  0  0  0  0  0  0  0  0  0  0
    6.3134   -6.2687   12.1516 O   0  0  0  0  0  0  0  0  0  0  0  0
    5.9682   -5.6894   13.3817 C   0  0  0  0  0  0  0  0  0  0  0  0
    6.6940   -4.4150   13.5757 C   0  0  0  0  0  0  0  0  0  0  0  0
    6.0376   -3.2173   13.6322 C   0  0  0  0  0  0  0  0  0  0  0  0
    6.6712   -1.9904   13.8192 C   0  0  0  0  0  0  0  0  0  0  0  0
    8.0522   -2.0168   13.9529 C   0  0  0  0  0  0  0  0  0  0  0  0
    8.7193   -3.2095   13.8980 C   0  0  0  0  0  0  0  0  0  0  0  0
    8.0737   -4.4248   13.7110 C   0  0  0  0  0  0  0  0  0  0  0  0
    5.9631  -10.5271   13.3692 C   0  0  0  0  0  0  0  0  0  0  0  0
    6.9332  -11.6544   13.4440 C   0  0  0  0  0  0  0  0  0  0  0  0
    8.0837  -11.2306   14.2819 C   0  0  0  0  0  0  0  0  0  0  0  0
    8.1221  -10.0434   14.7582 O   0  0  0  0  0  0  0  0  0  0  0  0
    9.1876  -12.0555   14.6133 N   0  0  0  0  0  0  0  0  0  0  0  0
   10.2165  -11.5860   15.4270 N   0  0  0  0  0  0  0  0  0  0  0  0
   10.8723  -12.4422   16.3862 C   0  0  0  0  0  0  0  0  0  0  0  0
   10.6324  -10.2363   15.3159 C   0  0  0  0  0  0  0  0  0  0  0  0
   11.7825   -9.8796   14.6570 C   0  0  0  0  0  0  0  0  0  0  0  0
   12.1919   -8.5861   14.5531 C   0  0  0  0  0  0  0  0  0  0  0  0
   11.4224   -7.5995   15.1311 C   0  0  0  0  0  0  0  0  0  0  0  0
   10.2760   -7.9163   15.7919 C   0  0  0  0  0  0  0  0  0  0  0  0
    9.8878   -9.2273   15.8809 C   0  0  0  0  0  0  0  0  0  0  0  0
  1  2  2  0
  1  6  1  0
  2  3  1  0
  3  4  2  0
  4  5  1  0
  5  6  2  0
  6  7  1  0
  7  8  1  0
  8  9  1  0
  9 10  2  0
  9 11  1  0
 11 12  1  6
 11 13  1  0
 13 14  1  6
 13 19  1  0
 14 15  1  0
 15 16  1  0
 16 17  1  0
 17 18  1  0
 19 20  1  0
 20 21  2  0
 20 22  1  0
 22 23  1  0
 22 34  1  1
 23 24  1  0
 24 25  2  0
 24 26  1  0
 26 27  1  0
 27 28  1  0
 28 29  2  0
 28 33  1  0
 29 30  1  0
 30 31  2  0
 31 32  1  0
 32 33  2  0
 34 35  1  0
 35 36  1  0
 36 37  2  0
 36 38  1  0
 38 39  1  0
 39 40  1  0
 39 41  1  0
 41 42  2  0
 41 46  1  0
 42 43  1  0
 43 44  2  0
 44 45  1  0
 45 46  2  0
M  CHG  1  18   1
M  END
$$$$
