
     RDKit          3D

 46 48  0  0  0  0  0  0  0  0999 V2000
    3.3330  -16.6355   12.5544 C   0  0  0  0  0  0  0  0  0  0  0  0
    4.0389  -17.4410   13.4510 C   0  0  0  0  0  0  0  0  0  0  0  0
    5.4209  -17.3827   13.4498 C   0  0  0  0  0  0  0  0  0  0  0  0
    6.0361  -16.5250   12.5557 C   0  0  0  0  0  0  0  0  0  0  0  0
    5.3246  -15.7360   11.6766 C   0  0  0  0  0  0  0  0  0  0  0  0
    3.9546  -15.7865   11.6699 C   0  0  0  0  0  0  0  0  0  0  0  0
    3.1159  -14.9848   10.7547 C   0  0  0  0  0  0  0  0  0  0  0  0
    3.8464  -14.1791    9.8180 N   0  0  0  0  0  0  0  0  0  0  0  0
    3.2382  -13.2070    9.0167 C   0  0  0  0  0  0  0  0  0  0  0  0
    1.9891  -13.1253    8.9785 O   0  0  0  0  0  0  0  0  0  0  0  0
    4.0044  -12.2395    8.1872 C   0  0  1  0  0  0  0  0  0  0  0  0
    3.7312  -12.4183    6.8499 O   0  0  0  0  0  0  0  0  0  0  0  0
    3.8263  -10.8247    8.5819 C   0  0  2  0  0  0  0  0  0  0  0  0
    4.3175   -9.7928    7.6109 C   0  0  0  0  0  0  0  0  0  0  0  0
    4.2971   -8.3871    8.0752 C   0  0  0  0  0  0  0  0  0  0  0  0
    4.8483   -7.5027    6.9490 C   0  0  0  0  0  0  0  0  0  0  0  0
    4.8907   -6.0491    7.3315 C   0  0  0  0  0  0  0  0  0  0  0  0
    5.3913   -5.3378    6.1432 N   0  0  0  0  0  4  0  0  0  0  0  0
    4.6113  -10.6034    9.7943 N   0  0  0  0  0  0  0  0  0  0  0  0
    4.0539  -10.5043   11.0800 C   0  0  0  0  0  0  0  0  0  0  0  0
    2.8037  -10.6200   11.1709 O   0  0  0  0  0  0  0  0  0  0  0  0
    4.8012  -10.2756   12.3173 C   0  0  1  0  0  0  0  0  0  0  0  0
    6.0988   -9.6670   12.1469 N   0  0  0  0  0  0  0  0  0  0  0  0
    6.9245   -9.3852   13.2953 C   0  0  0  0  0  0  0  0  0  0  0  0
    7.3183  -10.3762   13.9599 O   0  0  0  0  0  0  0  0  0  0  0  0
    7.2609   -8.0865   13.6424 O   0  0  0  0  0  0  0  0  0  0  0  0
    7.9018   -7.8517   14.8680 C   0  0  0  0  0  0  0  0  0  0  0  0
    8.0688   -6.3994   15.0952 C   0  0  0  0  0  0  0  0  0  0  0  0
    7.0713   -5.5095   14.8092 C   0  0  0  0  0  0  0  0  0  0  0  0
    7.1739   -4.1344   15.0097 C   0  0  0  0  0  0  0  0  0  0  0  0
    8.3724   -3.6690   15.5321 C   0  0  0  0  0  0  0  0  0  0  0  0
    9.3772   -4.5505   15.8219 C   0  0  0  0  0  0  0  0  0  0  0  0
    9.2600   -5.9190   15.6166 C   0  0  0  0  0  0  0  0  0  0  0  0
    3.9867   -9.5253   13.3562 C   0  0  0  0  0  0  0  0  0  0  0  0
    4.3930   -9.8163   14.7590 C   0  0  0  0  0  0  0  0  0  0  0  0
    3.5314   -9.0238   15.6727 C   0  0  0  0  0  0  0  0  0  0  0  0
    2.2658   -9.2138   15.6798 O   0  0  0  0  0  0  0  0  0  0  0  0
    4.0037   -8.0358   16.5724 N   0  0  0  0  0  0  0  0  0  0  0  0
    3.1179   -7.2562   17.3130 N   0  0  0  0  0  0  0  0  0  0  0  0
    3.5709   -6.1247   18.0861 C   0  0  0  0  0  0  0  0  0  0  0  0
    1.7381   -7.5778   17.3125 C   0  0  0  0  0  0  0  0  0  0  0  0
    0.7646   -6.6130   17.2396 C   0  0  0  0  0  0  0  0  0  0  0  0
   -0.5624   -6.9142   17.2464 C   0  0  0  0  0  0  0  0  0  0  0  0
   -0.9407   -8.2369   17.3295 C   0  0  0  0  0  0  0  0  0  0  0  0
   -0.0029   -9.2199   17.4031 C   0  0  0  0  0  0  0  0  0  0  0  0
    1.3263   -8.8876   17.3942 C   0  0  0  0  0  0  0  0  0  0  0  0
  1  2  2  0
  1  6  1  0
  2  3  1  0
  3  4  2  0
  4  5  1  0
  5  6  2  0
  6  7  1  0
  7  8  1  0
  8  9  1  0
  9 10  2  0
  9 11  1  0
 11 12  1  6
 11 13  1  0
 13 14  1  6
 13 19  1  0
 14 15  1  0
 15 16  1  0
 16 17  1  0
 17 18  1  0
 19 20  1  0
 20 21  2  0
 20 22  1  0
 22 23  1  0
 22 34  1  1
 23 24  1  0
 24 25  2  0
 24 26  1  0
 26 27  1  0
 27 28  1  0
 28 29  2  0
 28 33  1  0
 29 30  1  0
 30 31  2  0
 31 32  1  0
 32 33  2  0
 34 35  1  0
 35 36  1  0
 36 37  2  0
 36 38  1  0
 38 39  1  0
 39 40  1  0
 39 41  1  0
 41 42  2  0
 41 46  1  0
 42 43  1  0
 43 44  2  0
 44 45  1  0
 45 46  2  0
M  CHG  1  18   1
M  END
$$$$
