
     RDKit          3D

 46 48  0  0  0  0  0  0  0  0999 V2000
    6.6917   -9.1867    8.8970 C   0  0  0  0  0  0  0  0  0  0  0  0
    7.2344   -8.0755    9.5466 C   0  0  0  0  0  0  0  0  0  0  0  0
    6.6390   -6.8409    9.3597 C   0  0  0  0  0  0  0  0  0  0  0  0
    5.5309   -6.7700    8.5347 C   0  0  0  0  0  0  0  0  0  0  0  0
    5.0074   -7.8769    7.9004 C   0  0  0  0  0  0  0  0  0  0  0  0
    5.5901   -9.1049    8.0790 C   0  0  0  0  0  0  0  0  0  0  0  0
    5.1015  -10.3390    7.4294 C   0  0  0  0  0  0  0  0  0  0  0  0
    5.0713  -11.4957    8.2789 N   0  0  0  0  0  0  0  0  0  0  0  0
    3.9134  -12.2514    8.4914 C   0  0  0  0  0  0  0  0  0  0  0  0
    2.8578  -11.9551    7.8862 O   0  0  0  0  0  0  0  0  0  0  0  0
    3.8589  -13.4154    9.4151 C   0  0  1  0  0  0  0  0  0  0  0  0
    5.1162  -13.7319    9.8776 O   0  0  0  0  0  0  0  0  0  0  0  0
    2.9040  -13.2596   10.5345 C   0  0  2  0  0  0  0  0  0  0  0  0
    1.5242  -12.7938   10.1763 C   0  0  0  0  0  0  0  0  0  0  0  0
    0.6038  -12.5276   11.3050 C   0  0  0  0  0  0  0  0  0  0  0  0
   -0.7430  -12.0725   10.7277 C   0  0  0  0  0  0  0  0  0  0  0  0
   -1.7528  -11.7706   11.8002 C   0  0  0  0  0  0  0  0  0  0  0  0
   -2.1315  -13.0744   12.3707 N   0  0  0  0  0  4  0  0  0  0  0  0
    3.4309  -12.2256   11.4223 N   0  0  0  0  0  0  0  0  0  0  0  0
    4.3966  -12.4639   12.4144 C   0  0  0  0  0  0  0  0  0  0  0  0
    4.7841  -13.6527   12.5602 O   0  0  0  0  0  0  0  0  0  0  0  0
    4.9852  -11.4510   13.2914 C   0  0  1  0  0  0  0  0  0  0  0  0
    4.1736  -10.2764   13.5035 N   0  0  0  0  0  0  0  0  0  0  0  0
    4.6111   -8.9935   13.0108 C   0  0  0  0  0  0  0  0  0  0  0  0
    5.7413   -8.9586   12.4631 O   0  0  0  0  0  0  0  0  0  0  0  0
    3.8212   -7.8623   13.1396 O   0  0  0  0  0  0  0  0  0  0  0  0
    3.0297   -7.7095   14.2877 C   0  0  0  0  0  0  0  0  0  0  0  0
    2.3884   -6.3763   14.3010 C   0  0  0  0  0  0  0  0  0  0  0  0
    3.0898   -5.2463   14.6167 C   0  0  0  0  0  0  0  0  0  0  0  0
    2.5368   -3.9675   14.6381 C   0  0  0  0  0  0  0  0  0  0  0  0
    1.1910   -3.8655   14.3153 C   0  0  0  0  0  0  0  0  0  0  0  0
    0.4795   -4.9896   13.9978 C   0  0  0  0  0  0  0  0  0  0  0  0
    1.0448   -6.2581   13.9807 C   0  0  0  0  0  0  0  0  0  0  0  0
    5.4508  -12.0303   14.6155 C   0  0  0  0  0  0  0  0  0  0  0  0
    6.8511  -12.5359   14.5877 C   0  0  0  0  0  0  0  0  0  0  0  0
    7.5765  -11.9778   15.7572 C   0  0  0  0  0  0  0  0  0  0  0  0
    7.9459  -10.7524   15.7524 O   0  0  0  0  0  0  0  0  0  0  0  0
    7.9108  -12.7098   16.9238 N   0  0  0  0  0  0  0  0  0  0  0  0
    9.2364  -12.8490   17.3294 N   0  0  0  0  0  0  0  0  0  0  0  0
   10.2878  -12.0339   16.7697 C   0  0  0  0  0  0  0  0  0  0  0  0
    9.5667  -13.8131   18.3135 C   0  0  0  0  0  0  0  0  0  0  0  0
    8.6095  -14.4324   19.0778 C   0  0  0  0  0  0  0  0  0  0  0  0
    8.9202  -15.3535   20.0300 C   0  0  0  0  0  0  0  0  0  0  0  0
   10.2449  -15.6752   20.2327 C   0  0  0  0  0  0  0  0  0  0  0  0
   11.2206  -15.0815   19.4933 C   0  0  0  0  0  0  0  0  0  0  0  0
   10.8787  -14.1573   18.5412 C   0  0  0  0  0  0  0  0  0  0  0  0
  1  2  2  0
  1  6  1  0
  2  3  1  0
  3  4  2  0
  4  5  1  0
  5  6  2  0
  6  7  1  0
  7  8  1  0
  8  9  1  0
  9 10  2  0
  9 11  1  0
 11 12  1  1
 11 13  1  0
 13 14  1  6
 13 19  1  0
 14 15  1  0
 15 16  1  0
 16 17  1  0
 17 18  1  0
 19 20  1  0
 20 21  2  0
 20 22  1  0
 22 23  1  0
 22 34  1  1
 23 24  1  0
 24 25  2  0
 24 26  1  0
 26 27  1  0
 27 28  1  0
 28 29  2  0
 28 33  1  0
 29 30  1  0
 30 31  2  0
 31 32  1  0
 32 33  2  0
 34 35  1  0
 35 36  1  0
 36 37  2  0
 36 38  1  0
 38 39  1  0
 39 40  1  0
 39 41  1  0
 41 42  2  0
 41 46  1  0
 42 43  1  0
 43 44  2  0
 44 45  1  0
 45 46  2  0
M  CHG  1  18   1
M  END
$$$$
