
     RDKit          3D

 46 48  0  0  0  0  0  0  0  0999 V2000
    4.2705   -6.6458    9.0006 C   0  0  0  0  0  0  0  0  0  0  0  0
    4.0004   -5.5373    8.1948 C   0  0  0  0  0  0  0  0  0  0  0  0
    4.2040   -5.6426    6.8307 C   0  0  0  0  0  0  0  0  0  0  0  0
    4.6673   -6.8469    6.3321 C   0  0  0  0  0  0  0  0  0  0  0  0
    4.9293   -7.9323    7.1414 C   0  0  0  0  0  0  0  0  0  0  0  0
    4.7308   -7.8381    8.4946 C   0  0  0  0  0  0  0  0  0  0  0  0
    4.9967   -8.9469    9.4345 C   0  0  0  0  0  0  0  0  0  0  0  0
    4.1675  -10.1042    9.2513 N   0  0  0  0  0  0  0  0  0  0  0  0
    4.6116  -11.2612    8.6024 C   0  0  0  0  0  0  0  0  0  0  0  0
    5.7843  -11.3183    8.1665 O   0  0  0  0  0  0  0  0  0  0  0  0
    3.7542  -12.4581    8.3943 C   0  0  1  0  0  0  0  0  0  0  0  0
    3.9776  -13.0097    7.1530 O   0  0  0  0  0  0  0  0  0  0  0  0
    3.8671  -13.4798    9.4584 C   0  0  2  0  0  0  0  0  0  0  0  0
    3.5485  -14.8919    9.0660 C   0  0  0  0  0  0  0  0  0  0  0  0
    3.8327  -15.9373   10.0752 C   0  0  0  0  0  0  0  0  0  0  0  0
    3.5175  -17.3032    9.4514 C   0  0  0  0  0  0  0  0  0  0  0  0
    4.4847  -18.3686    9.8879 C   0  0  0  0  0  0  0  0  0  0  0  0
    4.1009  -19.5836    9.1495 N   0  0  0  0  0  4  0  0  0  0  0  0
    2.8901  -13.1481   10.4931 N   0  0  0  0  0  0  0  0  0  0  0  0
    3.1462  -13.2454   11.8710 C   0  0  0  0  0  0  0  0  0  0  0  0
    4.3358  -13.4694   12.2163 O   0  0  0  0  0  0  0  0  0  0  0  0
    2.1496  -13.1119   12.9344 C   0  0  1  0  0  0  0  0  0  0  0  0
    1.6135  -14.3560   13.4325 N   0  0  0  0  0  0  0  0  0  0  0  0
    0.9255  -14.3939   14.6995 C   0  0  0  0  0  0  0  0  0  0  0  0
    0.2977  -13.3564   15.0282 O   0  0  0  0  0  0  0  0  0  0  0  0
    0.9606  -15.5191   15.5075 O   0  0  0  0  0  0  0  0  0  0  0  0
    1.3845  -15.3907   16.8386 C   0  0  0  0  0  0  0  0  0  0  0  0
    0.2259  -15.4325   17.7575 C   0  0  0  0  0  0  0  0  0  0  0  0
    0.3056  -14.9514   19.0345 C   0  0  0  0  0  0  0  0  0  0  0  0
   -0.7556  -14.9607   19.9375 C   0  0  0  0  0  0  0  0  0  0  0  0
   -1.9530  -15.4970   19.4856 C   0  0  0  0  0  0  0  0  0  0  0  0
   -2.0442  -15.9813   18.2098 C   0  0  0  0  0  0  0  0  0  0  0  0
   -0.9773  -15.9651   17.3208 C   0  0  0  0  0  0  0  0  0  0  0  0
    2.6351  -12.2385   14.0776 C   0  0  0  0  0  0  0  0  0  0  0  0
    2.5385  -10.7791   13.7979 C   0  0  0  0  0  0  0  0  0  0  0  0
    3.0552  -10.0385   14.9769 C   0  0  0  0  0  0  0  0  0  0  0  0
    3.3524  -10.6730   16.0479 O   0  0  0  0  0  0  0  0  0  0  0  0
    3.2556   -8.6363   15.0246 N   0  0  0  0  0  0  0  0  0  0  0  0
    4.4915   -8.0988   15.3776 N   0  0  0  0  0  0  0  0  0  0  0  0
    5.5702   -8.9316   15.8530 C   0  0  0  0  0  0  0  0  0  0  0  0
    4.7001   -6.7016   15.2709 C   0  0  0  0  0  0  0  0  0  0  0  0
    3.9926   -5.9240   14.3885 C   0  0  0  0  0  0  0  0  0  0  0  0
    4.1932   -4.5828   14.2753 C   0  0  0  0  0  0  0  0  0  0  0  0
    5.1418   -3.9853   15.0769 C   0  0  0  0  0  0  0  0  0  0  0  0
    5.8619   -4.7250   15.9633 C   0  0  0  0  0  0  0  0  0  0  0  0
    5.6388   -6.0737   16.0560 C   0  0  0  0  0  0  0  0  0  0  0  0
  1  2  2  0
  1  6  1  0
  2  3  1  0
  3  4  2  0
  4  5  1  0
  5  6  2  0
  6  7  1  0
  7  8  1  0
  8  9  1  0
  9 10  2  0
  9 11  1  0
 11 12  1  6
 11 13  1  0
 13 14  1  6
 13 19  1  0
 14 15  1  0
 15 16  1  0
 16 17  1  0
 17 18  1  0
 19 20  1  0
 20 21  2  0
 20 22  1  0
 22 23  1  0
 22 34  1  1
 23 24  1  0
 24 25  2  0
 24 26  1  0
 26 27  1  0
 27 28  1  0
 28 29  2  0
 28 33  1  0
 29 30  1  0
 30 31  2  0
 31 32  1  0
 32 33  2  0
 34 35  1  0
 35 36  1  0
 36 37  2  0
 36 38  1  0
 38 39  1  0
 39 40  1  0
 39 41  1  0
 41 42  2  0
 41 46  1  0
 42 43  1  0
 43 44  2  0
 44 45  1  0
 45 46  2  0
M  CHG  1  18   1
M  END
$$$$
