
     RDKit          3D

 46 48  0  0  0  0  0  0  0  0999 V2000
   -1.5516  -11.9732    9.3644 C   0  0  0  0  0  0  0  0  0  0  0  0
   -2.7842  -12.5899    9.5912 C   0  0  0  0  0  0  0  0  0  0  0  0
   -2.8175  -13.7509   10.3425 C   0  0  0  0  0  0  0  0  0  0  0  0
   -1.6219  -14.2441   10.8331 C   0  0  0  0  0  0  0  0  0  0  0  0
   -0.4129  -13.6231   10.6001 C   0  0  0  0  0  0  0  0  0  0  0  0
   -0.3691  -12.4721    9.8567 C   0  0  0  0  0  0  0  0  0  0  0  0
    0.8828  -11.7493    9.5499 C   0  0  0  0  0  0  0  0  0  0  0  0
    2.0779  -12.3840   10.0288 N   0  0  0  0  0  0  0  0  0  0  0  0
    2.7300  -13.4028    9.3262 C   0  0  0  0  0  0  0  0  0  0  0  0
    2.2349  -13.8395    8.2620 O   0  0  0  0  0  0  0  0  0  0  0  0
    4.0086  -14.0136    9.7772 C   0  0  1  0  0  0  0  0  0  0  0  0
    4.5747  -14.7624    8.7704 O   0  0  0  0  0  0  0  0  0  0  0  0
    4.9816  -13.0475   10.3331 C   0  0  2  0  0  0  0  0  0  0  0  0
    6.4215  -13.4667   10.3207 C   0  0  0  0  0  0  0  0  0  0  0  0
    7.3895  -12.5208   10.9208 C   0  0  0  0  0  0  0  0  0  0  0  0
    8.7589  -13.2102   10.9802 C   0  0  0  0  0  0  0  0  0  0  0  0
    9.8136  -12.3356   11.5998 C   0  0  0  0  0  0  0  0  0  0  0  0
   11.0649  -13.1090   11.5310 N   0  0  0  0  0  4  0  0  0  0  0  0
    4.6575  -12.8588   11.7453 N   0  0  0  0  0  0  0  0  0  0  0  0
    4.3696  -11.6106   12.3220 C   0  0  0  0  0  0  0  0  0  0  0  0
    4.7233  -10.5887   11.6776 O   0  0  0  0  0  0  0  0  0  0  0  0
    3.6987  -11.3992   13.6053 C   0  0  1  0  0  0  0  0  0  0  0  0
    4.5703  -11.3663   14.7553 N   0  0  0  0  0  0  0  0  0  0  0  0
    5.9590  -11.0083   14.6032 C   0  0  0  0  0  0  0  0  0  0  0  0
    6.3604  -10.8037   13.4303 O   0  0  0  0  0  0  0  0  0  0  0  0
    6.8013  -10.8989   15.6981 O   0  0  0  0  0  0  0  0  0  0  0  0
    8.1834  -10.7831   15.4874 C   0  0  0  0  0  0  0  0  0  0  0  0
    8.5389   -9.3906   15.1363 C   0  0  0  0  0  0  0  0  0  0  0  0
    9.8126   -9.0432   14.7822 C   0  0  0  0  0  0  0  0  0  0  0  0
   10.1992   -7.7498   14.4369 C   0  0  0  0  0  0  0  0  0  0  0  0
    9.2105   -6.7764   14.4632 C   0  0  0  0  0  0  0  0  0  0  0  0
    7.9326   -7.1128   14.8160 C   0  0  0  0  0  0  0  0  0  0  0  0
    7.5623   -8.4069   15.1578 C   0  0  0  0  0  0  0  0  0  0  0  0
    2.7834  -10.1878   13.5883 C   0  0  0  0  0  0  0  0  0  0  0  0
    2.5698   -9.5808   14.9312 C   0  0  0  0  0  0  0  0  0  0  0  0
    1.1499   -9.1589   15.0368 C   0  0  0  0  0  0  0  0  0  0  0  0
    0.3032   -9.5457   14.1585 O   0  0  0  0  0  0  0  0  0  0  0  0
    0.6279   -8.3325   16.0631 N   0  0  0  0  0  0  0  0  0  0  0  0
   -0.5148   -8.7004   16.7701 N   0  0  0  0  0  0  0  0  0  0  0  0
   -1.0528  -10.0376   16.6948 C   0  0  0  0  0  0  0  0  0  0  0  0
   -1.1699   -7.7428   17.5832 C   0  0  0  0  0  0  0  0  0  0  0  0
   -1.3241   -7.9180   18.9357 C   0  0  0  0  0  0  0  0  0  0  0  0
   -1.9589   -7.0061   19.7214 C   0  0  0  0  0  0  0  0  0  0  0  0
   -2.4647   -5.8656   19.1357 C   0  0  0  0  0  0  0  0  0  0  0  0
   -2.3300   -5.6586   17.7977 C   0  0  0  0  0  0  0  0  0  0  0  0
   -1.6861   -6.5938   17.0309 C   0  0  0  0  0  0  0  0  0  0  0  0
  1  2  2  0
  1  6  1  0
  2  3  1  0
  3  4  2  0
  4  5  1  0
  5  6  2  0
  6  7  1  0
  7  8  1  0
  8  9  1  0
  9 10  2  0
  9 11  1  0
 11 12  1  6
 11 13  1  0
 13 14  1  1
 13 19  1  0
 14 15  1  0
 15 16  1  0
 16 17  1  0
 17 18  1  0
 19 20  1  0
 20 21  2  0
 20 22  1  0
 22 23  1  0
 22 34  1  6
 23 24  1  0
 24 25  2  0
 24 26  1  0
 26 27  1  0
 27 28  1  0
 28 29  2  0
 28 33  1  0
 29 30  1  0
 30 31  2  0
 31 32  1  0
 32 33  2  0
 34 35  1  0
 35 36  1  0
 36 37  2  0
 36 38  1  0
 38 39  1  0
 39 40  1  0
 39 41  1  0
 41 42  2  0
 41 46  1  0
 42 43  1  0
 43 44  2  0
 44 45  1  0
 45 46  2  0
M  CHG  1  18   1
M  END
$$$$
