
     RDKit          3D

 46 48  0  0  0  0  0  0  0  0999 V2000
    1.1662  -16.0280   11.5842 C   0  0  0  0  0  0  0  0  0  0  0  0
    0.1246  -15.9989   12.5146 C   0  0  0  0  0  0  0  0  0  0  0  0
   -0.3526  -17.1972   13.0145 C   0  0  0  0  0  0  0  0  0  0  0  0
    0.2293  -18.3688   12.5650 C   0  0  0  0  0  0  0  0  0  0  0  0
    1.2572  -18.3803   11.6457 C   0  0  0  0  0  0  0  0  0  0  0  0
    1.7373  -17.1983   11.1441 C   0  0  0  0  0  0  0  0  0  0  0  0
    2.8268  -17.1200   10.1489 C   0  0  0  0  0  0  0  0  0  0  0  0
    3.2172  -15.7872    9.7863 N   0  0  0  0  0  0  0  0  0  0  0  0
    4.3402  -15.1517   10.3267 C   0  0  0  0  0  0  0  0  0  0  0  0
    5.0811  -15.7706   11.1245 O   0  0  0  0  0  0  0  0  0  0  0  0
    4.7178  -13.7505   10.0023 C   0  0  1  0  0  0  0  0  0  0  0  0
    4.8084  -13.5714    8.6404 O   0  0  0  0  0  0  0  0  0  0  0  0
    3.8433  -12.7270   10.6163 C   0  0  2  0  0  0  0  0  0  0  0  0
    2.8624  -12.0517    9.7047 C   0  0  0  0  0  0  0  0  0  0  0  0
    2.0508  -10.9647   10.2977 C   0  0  0  0  0  0  0  0  0  0  0  0
    1.0868  -10.4459    9.2227 C   0  0  0  0  0  0  0  0  0  0  0  0
    0.1809   -9.3632    9.7406 C   0  0  0  0  0  0  0  0  0  0  0  0
   -0.6348   -8.9402    8.5898 N   0  0  0  0  0  4  0  0  0  0  0  0
    4.7017  -11.6513   11.1074 N   0  0  0  0  0  0  0  0  0  0  0  0
    5.0112  -11.4546   12.4635 C   0  0  0  0  0  0  0  0  0  0  0  0
    4.2033  -11.9234   13.3074 O   0  0  0  0  0  0  0  0  0  0  0  0
    6.1874  -10.7505   12.9756 C   0  0  1  0  0  0  0  0  0  0  0  0
    6.2832   -9.3606   12.5983 N   0  0  0  0  0  0  0  0  0  0  0  0
    5.0878   -8.5877   12.3664 C   0  0  0  0  0  0  0  0  0  0  0  0
    4.0245   -9.2358   12.1984 O   0  0  0  0  0  0  0  0  0  0  0  0
    5.1183   -7.2028   12.3306 O   0  0  0  0  0  0  0  0  0  0  0  0
    3.9743   -6.5054   11.9146 C   0  0  0  0  0  0  0  0  0  0  0  0
    4.1238   -6.0543   10.5136 C   0  0  0  0  0  0  0  0  0  0  0  0
    4.1789   -6.9427    9.4762 C   0  0  0  0  0  0  0  0  0  0  0  0
    4.3125   -6.5715    8.1397 C   0  0  0  0  0  0  0  0  0  0  0  0
    4.3922   -5.2114    7.8763 C   0  0  0  0  0  0  0  0  0  0  0  0
    4.3381   -4.3135    8.9065 C   0  0  0  0  0  0  0  0  0  0  0  0
    4.2047   -4.6988   10.2342 C   0  0  0  0  0  0  0  0  0  0  0  0
    6.3533  -10.9138   14.4761 C   0  0  0  0  0  0  0  0  0  0  0  0
    6.9281  -12.2284   14.8746 C   0  0  0  0  0  0  0  0  0  0  0  0
    8.3258  -12.0131   15.3279 C   0  0  0  0  0  0  0  0  0  0  0  0
    8.8072  -10.8279   15.3685 O   0  0  0  0  0  0  0  0  0  0  0  0
    9.2099  -13.0434   15.7345 N   0  0  0  0  0  0  0  0  0  0  0  0
   10.2854  -12.7756   16.5787 N   0  0  0  0  0  0  0  0  0  0  0  0
   11.3733  -13.7108   16.7372 C   0  0  0  0  0  0  0  0  0  0  0  0
   10.3168  -11.5584   17.3030 C   0  0  0  0  0  0  0  0  0  0  0  0
   11.3140  -10.6316   17.1283 C   0  0  0  0  0  0  0  0  0  0  0  0
   11.3546   -9.4640   17.8260 C   0  0  0  0  0  0  0  0  0  0  0  0
   10.3571   -9.2044   18.7409 C   0  0  0  0  0  0  0  0  0  0  0  0
    9.3526  -10.1003   18.9400 C   0  0  0  0  0  0  0  0  0  0  0  0
    9.3369  -11.2680   18.2234 C   0  0  0  0  0  0  0  0  0  0  0  0
  1  2  2  0
  1  6  1  0
  2  3  1  0
  3  4  2  0
  4  5  1  0
  5  6  2  0
  6  7  1  0
  7  8  1  0
  8  9  1  0
  9 10  2  0
  9 11  1  0
 11 12  1  6
 11 13  1  0
 13 14  1  6
 13 19  1  0
 14 15  1  0
 15 16  1  0
 16 17  1  0
 17 18  1  0
 19 20  1  0
 20 21  2  0
 20 22  1  0
 22 23  1  0
 22 34  1  1
 23 24  1  0
 24 25  2  0
 24 26  1  0
 26 27  1  0
 27 28  1  0
 28 29  2  0
 28 33  1  0
 29 30  1  0
 30 31  2  0
 31 32  1  0
 32 33  2  0
 34 35  1  0
 35 36  1  0
 36 37  2  0
 36 38  1  0
 38 39  1  0
 39 40  1  0
 39 41  1  0
 41 42  2  0
 41 46  1  0
 42 43  1  0
 43 44  2  0
 44 45  1  0
 45 46  2  0
M  CHG  1  18   1
M  END
$$$$
