
     RDKit          3D

 46 48  0  0  0  0  0  0  0  0999 V2000
    2.3324  -16.4069    9.6978 C   0  0  0  0  0  0  0  0  0  0  0  0
    2.3576  -17.5168   10.5455 C   0  0  0  0  0  0  0  0  0  0  0  0
    1.3954  -18.4974   10.3842 C   0  0  0  0  0  0  0  0  0  0  0  0
    0.4526  -18.3274    9.3862 C   0  0  0  0  0  0  0  0  0  0  0  0
    0.4415  -17.2253    8.5575 C   0  0  0  0  0  0  0  0  0  0  0  0
    1.3906  -16.2479    8.7092 C   0  0  0  0  0  0  0  0  0  0  0  0
    1.4451  -15.0306    7.8732 C   0  0  0  0  0  0  0  0  0  0  0  0
    1.7683  -13.8258    8.5834 N   0  0  0  0  0  0  0  0  0  0  0  0
    3.0841  -13.4184    8.8276 C   0  0  0  0  0  0  0  0  0  0  0  0
    4.0380  -14.1233    8.4256 O   0  0  0  0  0  0  0  0  0  0  0  0
    3.4276  -12.1668    9.5533 C   0  0  1  0  0  0  0  0  0  0  0  0
    2.2892  -11.4783    9.9066 O   0  0  0  0  0  0  0  0  0  0  0  0
    4.3138  -12.3645   10.7215 C   0  0  2  0  0  0  0  0  0  0  0  0
    3.7960  -13.2570   11.8099 C   0  0  0  0  0  0  0  0  0  0  0  0
    4.6758  -13.4417   12.9863 C   0  0  0  0  0  0  0  0  0  0  0  0
    3.9576  -14.3626   13.9815 C   0  0  0  0  0  0  0  0  0  0  0  0
    4.7450  -14.5628   15.2468 C   0  0  0  0  0  0  0  0  0  0  0  0
    5.6524  -15.6913   14.9783 N   0  0  0  0  0  4  0  0  0  0  0  0
    4.4988  -11.0629   11.3594 N   0  0  0  0  0  0  0  0  0  0  0  0
    5.7538  -10.4716   11.5807 C   0  0  0  0  0  0  0  0  0  0  0  0
    6.7392  -10.9848   10.9891 O   0  0  0  0  0  0  0  0  0  0  0  0
    6.0112   -9.3156   12.4404 C   0  0  1  0  0  0  0  0  0  0  0  0
    6.8065   -9.5884   13.6136 N   0  0  0  0  0  0  0  0  0  0  0  0
    6.2428  -10.3271   14.7166 C   0  0  0  0  0  0  0  0  0  0  0  0
    5.0023  -10.5238   14.6844 O   0  0  0  0  0  0  0  0  0  0  0  0
    7.0342  -10.7915   15.7550 O   0  0  0  0  0  0  0  0  0  0  0  0
    6.7262  -12.0243   16.3493 C   0  0  0  0  0  0  0  0  0  0  0  0
    7.6996  -12.3421   17.4172 C   0  0  0  0  0  0  0  0  0  0  0  0
    8.6961  -11.4719   17.7611 C   0  0  0  0  0  0  0  0  0  0  0  0
    9.6338  -11.7186   18.7619 C   0  0  0  0  0  0  0  0  0  0  0  0
    9.5250  -12.9286   19.4326 C   0  0  0  0  0  0  0  0  0  0  0  0
    8.5317  -13.8068   19.0967 C   0  0  0  0  0  0  0  0  0  0  0  0
    7.6040  -13.5467   18.0964 C   0  0  0  0  0  0  0  0  0  0  0  0
    6.5748   -8.1345   11.6704 C   0  0  0  0  0  0  0  0  0  0  0  0
    7.8066   -7.5580   12.2769 C   0  0  0  0  0  0  0  0  0  0  0  0
    8.1696   -6.3286   11.5271 C   0  0  0  0  0  0  0  0  0  0  0  0
    8.1508   -6.3337   10.2475 O   0  0  0  0  0  0  0  0  0  0  0  0
    8.5514   -5.1018   12.1255 N   0  0  0  0  0  0  0  0  0  0  0  0
    8.7793   -3.9656   11.3520 N   0  0  0  0  0  0  0  0  0  0  0  0
    9.2481   -2.7331   11.9389 C   0  0  0  0  0  0  0  0  0  0  0  0
    8.5458   -4.0146    9.9556 C   0  0  0  0  0  0  0  0  0  0  0  0
    9.5673   -4.1573    9.0500 C   0  0  0  0  0  0  0  0  0  0  0  0
    9.3510   -4.1974    7.7071 C   0  0  0  0  0  0  0  0  0  0  0  0
    8.0583   -4.0906    7.2413 C   0  0  0  0  0  0  0  0  0  0  0  0
    7.0209   -3.9482    8.1100 C   0  0  0  0  0  0  0  0  0  0  0  0
    7.2680   -3.9110    9.4571 C   0  0  0  0  0  0  0  0  0  0  0  0
  1  2  2  0
  1  6  1  0
  2  3  1  0
  3  4  2  0
  4  5  1  0
  5  6  2  0
  6  7  1  0
  7  8  1  0
  8  9  1  0
  9 10  2  0
  9 11  1  0
 11 12  1  1
 11 13  1  0
 13 14  1  1
 13 19  1  0
 14 15  1  0
 15 16  1  0
 16 17  1  0
 17 18  1  0
 19 20  1  0
 20 21  2  0
 20 22  1  0
 22 23  1  0
 22 34  1  6
 23 24  1  0
 24 25  2  0
 24 26  1  0
 26 27  1  0
 27 28  1  0
 28 29  2  0
 28 33  1  0
 29 30  1  0
 30 31  2  0
 31 32  1  0
 32 33  2  0
 34 35  1  0
 35 36  1  0
 36 37  2  0
 36 38  1  0
 38 39  1  0
 39 40  1  0
 39 41  1  0
 41 42  2  0
 41 46  1  0
 42 43  1  0
 43 44  2  0
 44 45  1  0
 45 46  2  0
M  CHG  1  18   1
M  END
$$$$
