
     RDKit          3D

 46 48  0  0  0  0  0  0  0  0999 V2000
    2.4994  -17.0780    9.2538 C   0  0  0  0  0  0  0  0  0  0  0  0
    1.8387  -18.1716    9.8184 C   0  0  0  0  0  0  0  0  0  0  0  0
    2.3078  -19.4440    9.5456 C   0  0  0  0  0  0  0  0  0  0  0  0
    3.4130  -19.5685    8.7231 C   0  0  0  0  0  0  0  0  0  0  0  0
    4.0541  -18.4784    8.1733 C   0  0  0  0  0  0  0  0  0  0  0  0
    3.5970  -17.2132    8.4375 C   0  0  0  0  0  0  0  0  0  0  0  0
    4.2164  -15.9922    7.8815 C   0  0  0  0  0  0  0  0  0  0  0  0
    3.6080  -14.7623    8.3030 N   0  0  0  0  0  0  0  0  0  0  0  0
    4.2841  -13.5377    8.2901 C   0  0  0  0  0  0  0  0  0  0  0  0
    5.4908  -13.4970    7.9578 O   0  0  0  0  0  0  0  0  0  0  0  0
    3.6400  -12.2482    8.6556 C   0  0  1  0  0  0  0  0  0  0  0  0
    2.3054  -12.4313    8.9392 O   0  0  0  0  0  0  0  0  0  0  0  0
    4.3200  -11.5161    9.7468 C   0  0  2  0  0  0  0  0  0  0  0  0
    4.3910  -12.2099   11.0745 C   0  0  0  0  0  0  0  0  0  0  0  0
    5.1779  -11.5341   12.1310 C   0  0  0  0  0  0  0  0  0  0  0  0
    5.2206  -12.4537   13.3585 C   0  0  0  0  0  0  0  0  0  0  0  0
    6.0663  -11.8901   14.4668 C   0  0  0  0  0  0  0  0  0  0  0  0
    6.0586  -12.9070   15.5319 N   0  0  0  0  0  4  0  0  0  0  0  0
    3.5573  -10.2960   10.0010 N   0  0  0  0  0  0  0  0  0  0  0  0
    4.1304   -9.0153   10.0703 C   0  0  0  0  0  0  0  0  0  0  0  0
    5.3673   -8.9305    9.8520 O   0  0  0  0  0  0  0  0  0  0  0  0
    3.4139   -7.7766   10.3770 C   0  0  1  0  0  0  0  0  0  0  0  0
    2.0616   -7.9510   10.8504 N   0  0  0  0  0  0  0  0  0  0  0  0
    1.4380   -6.9309   11.6569 C   0  0  0  0  0  0  0  0  0  0  0  0
    0.3625   -6.4499   11.2200 O   0  0  0  0  0  0  0  0  0  0  0  0
    2.0020   -6.5073   12.8496 O   0  0  0  0  0  0  0  0  0  0  0  0
    1.3701   -6.8359   14.0582 C   0  0  0  0  0  0  0  0  0  0  0  0
    2.0712   -6.2043   15.1976 C   0  0  0  0  0  0  0  0  0  0  0  0
    3.0014   -5.2203   15.0109 C   0  0  0  0  0  0  0  0  0  0  0  0
    3.6853   -4.5888   16.0477 C   0  0  0  0  0  0  0  0  0  0  0  0
    3.3835   -5.0045   17.3368 C   0  0  0  0  0  0  0  0  0  0  0  0
    2.4543   -5.9883   17.5354 C   0  0  0  0  0  0  0  0  0  0  0  0
    1.7805   -6.6087   16.4914 C   0  0  0  0  0  0  0  0  0  0  0  0
    4.1977   -6.8688   11.3082 C   0  0  0  0  0  0  0  0  0  0  0  0
    5.5228   -6.4578   10.7674 C   0  0  0  0  0  0  0  0  0  0  0  0
    5.3096   -5.3818    9.7664 C   0  0  0  0  0  0  0  0  0  0  0  0
    4.5926   -5.6079    8.7307 O   0  0  0  0  0  0  0  0  0  0  0  0
    5.8516   -4.0755    9.8581 N   0  0  0  0  0  0  0  0  0  0  0  0
    5.7446   -3.1772    8.7985 N   0  0  0  0  0  0  0  0  0  0  0  0
    4.8758   -3.4336    7.6748 C   0  0  0  0  0  0  0  0  0  0  0  0
    6.5055   -1.9823    8.8181 C   0  0  0  0  0  0  0  0  0  0  0  0
    6.0793   -0.8362    8.1946 C   0  0  0  0  0  0  0  0  0  0  0  0
    6.8084    0.3127    8.2027 C   0  0  0  0  0  0  0  0  0  0  0  0
    8.0188    0.3239    8.8618 C   0  0  0  0  0  0  0  0  0  0  0  0
    8.4728   -0.7937    9.4911 C   0  0  0  0  0  0  0  0  0  0  0  0
    7.7175   -1.9367    9.4666 C   0  0  0  0  0  0  0  0  0  0  0  0
  1  2  2  0
  1  6  1  0
  2  3  1  0
  3  4  2  0
  4  5  1  0
  5  6  2  0
  6  7  1  0
  7  8  1  0
  8  9  1  0
  9 10  2  0
  9 11  1  0
 11 12  1  1
 11 13  1  0
 13 14  1  1
 13 19  1  0
 14 15  1  0
 15 16  1  0
 16 17  1  0
 17 18  1  0
 19 20  1  0
 20 21  2  0
 20 22  1  0
 22 23  1  0
 22 34  1  1
 23 24  1  0
 24 25  2  0
 24 26  1  0
 26 27  1  0
 27 28  1  0
 28 29  2  0
 28 33  1  0
 29 30  1  0
 30 31  2  0
 31 32  1  0
 32 33  2  0
 34 35  1  0
 35 36  1  0
 36 37  2  0
 36 38  1  0
 38 39  1  0
 39 40  1  0
 39 41  1  0
 41 42  2  0
 41 46  1  0
 42 43  1  0
 43 44  2  0
 44 45  1  0
 45 46  2  0
M  CHG  1  18   1
M  END
$$$$
