
     RDKit          3D

 46 48  0  0  0  0  0  0  0  0999 V2000
   -0.7348  -11.2068   10.1557 C   0  0  0  0  0  0  0  0  0  0  0  0
   -1.6101  -10.3487   10.8255 C   0  0  0  0  0  0  0  0  0  0  0  0
   -1.6456   -9.0160   10.4565 C   0  0  0  0  0  0  0  0  0  0  0  0
   -0.8078   -8.5995    9.4377 C   0  0  0  0  0  0  0  0  0  0  0  0
    0.0510   -9.4595    8.7863 C   0  0  0  0  0  0  0  0  0  0  0  0
    0.0938  -10.7821    9.1445 C   0  0  0  0  0  0  0  0  0  0  0  0
    0.9911  -11.7684    8.5076 C   0  0  0  0  0  0  0  0  0  0  0  0
    2.2890  -11.8798    9.1106 N   0  0  0  0  0  0  0  0  0  0  0  0
    3.2686  -12.7636    8.6456 C   0  0  0  0  0  0  0  0  0  0  0  0
    2.9898  -13.5784    7.7364 O   0  0  0  0  0  0  0  0  0  0  0  0
    4.6565  -12.7944    9.1784 C   0  0  1  0  0  0  0  0  0  0  0  0
    5.5469  -13.1791    8.2015 O   0  0  0  0  0  0  0  0  0  0  0  0
    5.0879  -11.5358    9.8255 C   0  0  2  0  0  0  0  0  0  0  0  0
    5.8622  -10.5762    8.9716 C   0  0  0  0  0  0  0  0  0  0  0  0
    6.1734   -9.2600    9.5739 C   0  0  0  0  0  0  0  0  0  0  0  0
    6.9569   -8.4355    8.5441 C   0  0  0  0  0  0  0  0  0  0  0  0
    7.2671   -7.0492    9.0373 C   0  0  0  0  0  0  0  0  0  0  0  0
    8.7358   -6.9413    9.0283 N   0  0  0  0  0  4  0  0  0  0  0  0
    5.9975  -11.8889   10.9132 N   0  0  0  0  0  0  0  0  0  0  0  0
    5.6701  -11.7760   12.2747 C   0  0  0  0  0  0  0  0  0  0  0  0
    4.4842  -11.4577   12.5523 O   0  0  0  0  0  0  0  0  0  0  0  0
    6.5889  -11.9932   13.3928 C   0  0  1  0  0  0  0  0  0  0  0  0
    7.0669  -10.7930   14.0364 N   0  0  0  0  0  0  0  0  0  0  0  0
    8.4735  -10.4746   14.0249 C   0  0  0  0  0  0  0  0  0  0  0  0
    9.2413  -11.3425   13.5393 O   0  0  0  0  0  0  0  0  0  0  0  0
    8.9464   -9.2725   14.5265 O   0  0  0  0  0  0  0  0  0  0  0  0
    9.2329   -9.1696   15.8959 C   0  0  0  0  0  0  0  0  0  0  0  0
   10.6604   -9.4633   16.1499 C   0  0  0  0  0  0  0  0  0  0  0  0
   11.6577   -8.7719   15.5207 C   0  0  0  0  0  0  0  0  0  0  0  0
   13.0161   -9.0037   15.7280 C   0  0  0  0  0  0  0  0  0  0  0  0
   13.3463  -10.0028   16.6327 C   0  0  0  0  0  0  0  0  0  0  0  0
   12.3566  -10.7009   17.2680 C   0  0  0  0  0  0  0  0  0  0  0  0
   11.0064  -10.4583   17.0510 C   0  0  0  0  0  0  0  0  0  0  0  0
    6.0361  -12.9694   14.4162 C   0  0  0  0  0  0  0  0  0  0  0  0
    5.6196  -12.3256   15.6927 C   0  0  0  0  0  0  0  0  0  0  0  0
    6.8021  -12.2461   16.5876 C   0  0  0  0  0  0  0  0  0  0  0  0
    7.3468  -13.3201   17.0208 O   0  0  0  0  0  0  0  0  0  0  0  0
    7.4046  -11.0395   17.0231 N   0  0  0  0  0  0  0  0  0  0  0  0
    8.4094  -11.0457   17.9883 N   0  0  0  0  0  0  0  0  0  0  0  0
    8.2417  -10.3814   19.2586 C   0  0  0  0  0  0  0  0  0  0  0  0
    9.6279  -11.7175   17.7216 C   0  0  0  0  0  0  0  0  0  0  0  0
   10.2050  -12.5692   18.6302 C   0  0  0  0  0  0  0  0  0  0  0  0
   11.3789  -13.2116   18.3839 C   0  0  0  0  0  0  0  0  0  0  0  0
   12.0099  -12.9982   17.1773 C   0  0  0  0  0  0  0  0  0  0  0  0
   11.4667  -12.1609   16.2526 C   0  0  0  0  0  0  0  0  0  0  0  0
   10.2835  -11.5271   16.5276 C   0  0  0  0  0  0  0  0  0  0  0  0
  1  2  2  0
  1  6  1  0
  2  3  1  0
  3  4  2  0
  4  5  1  0
  5  6  2  0
  6  7  1  0
  7  8  1  0
  8  9  1  0
  9 10  2  0
  9 11  1  0
 11 12  1  6
 11 13  1  0
 13 14  1  6
 13 19  1  0
 14 15  1  0
 15 16  1  0
 16 17  1  0
 17 18  1  0
 19 20  1  0
 20 21  2  0
 20 22  1  0
 22 23  1  0
 22 34  1  1
 23 24  1  0
 24 25  2  0
 24 26  1  0
 26 27  1  0
 27 28  1  0
 28 29  2  0
 28 33  1  0
 29 30  1  0
 30 31  2  0
 31 32  1  0
 32 33  2  0
 34 35  1  0
 35 36  1  0
 36 37  2  0
 36 38  1  0
 38 39  1  0
 39 40  1  0
 39 41  1  0
 41 42  2  0
 41 46  1  0
 42 43  1  0
 43 44  2  0
 44 45  1  0
 45 46  2  0
M  CHG  1  18   1
M  END
$$$$
