
     RDKit          3D

 46 48  0  0  0  0  0  0  0  0999 V2000
    1.6114  -18.1324   11.7898 C   0  0  0  0  0  0  0  0  0  0  0  0
    1.2768  -19.4382   11.4235 C   0  0  0  0  0  0  0  0  0  0  0  0
    1.3435  -19.7907   10.0875 C   0  0  0  0  0  0  0  0  0  0  0  0
    1.7400  -18.8266    9.1782 C   0  0  0  0  0  0  0  0  0  0  0  0
    2.0670  -17.5414    9.5563 C   0  0  0  0  0  0  0  0  0  0  0  0
    2.0042  -17.1820   10.8777 C   0  0  0  0  0  0  0  0  0  0  0  0
    2.3258  -15.8255   11.3677 C   0  0  0  0  0  0  0  0  0  0  0  0
    3.2348  -15.0853   10.5392 N   0  0  0  0  0  0  0  0  0  0  0  0
    2.8070  -14.1584    9.5828 C   0  0  0  0  0  0  0  0  0  0  0  0
    1.5984  -14.1131    9.2579 O   0  0  0  0  0  0  0  0  0  0  0  0
    3.7236  -13.1986    8.9120 C   0  0  1  0  0  0  0  0  0  0  0  0
    3.4927  -13.1688    7.5553 O   0  0  0  0  0  0  0  0  0  0  0  0
    3.7021  -11.8348    9.4853 C   0  0  2  0  0  0  0  0  0  0  0  0
    4.4667  -10.7832    8.7378 C   0  0  0  0  0  0  0  0  0  0  0  0
    4.0309   -9.3826    8.9384 C   0  0  0  0  0  0  0  0  0  0  0  0
    4.8693   -8.4840    8.0199 C   0  0  0  0  0  0  0  0  0  0  0  0
    5.8910   -7.6837    8.7794 C   0  0  0  0  0  0  0  0  0  0  0  0
    6.2349   -6.5463    7.9094 N   0  0  0  0  0  4  0  0  0  0  0  0
    4.3383  -11.8991   10.7992 N   0  0  0  0  0  0  0  0  0  0  0  0
    4.4085  -10.8137   11.6883 C   0  0  0  0  0  0  0  0  0  0  0  0
    3.8949   -9.7294   11.3076 O   0  0  0  0  0  0  0  0  0  0  0  0
    5.0291  -10.8367   13.0135 C   0  0  1  0  0  0  0  0  0  0  0  0
    4.7574   -9.6838   13.8384 N   0  0  0  0  0  0  0  0  0  0  0  0
    5.6387   -8.5428   13.8036 C   0  0  0  0  0  0  0  0  0  0  0  0
    5.3607   -7.5953   14.5805 O   0  0  0  0  0  0  0  0  0  0  0  0
    6.7327   -8.5003   12.9541 O   0  0  0  0  0  0  0  0  0  0  0  0
    7.5149   -7.3367   12.9062 C   0  0  0  0  0  0  0  0  0  0  0  0
    8.6166   -7.4931   11.9313 C   0  0  0  0  0  0  0  0  0  0  0  0
    9.3792   -8.6267   11.8868 C   0  0  0  0  0  0  0  0  0  0  0  0
   10.4231   -8.8277   10.9859 C   0  0  0  0  0  0  0  0  0  0  0  0
   10.6813   -7.7979   10.0922 C   0  0  0  0  0  0  0  0  0  0  0  0
    9.9246   -6.6592   10.1278 C   0  0  0  0  0  0  0  0  0  0  0  0
    8.8868   -6.4734   11.0319 C   0  0  0  0  0  0  0  0  0  0  0  0
    4.7357  -12.1207   13.7690 C   0  0  0  0  0  0  0  0  0  0  0  0
    3.9006  -11.9213   14.9856 C   0  0  0  0  0  0  0  0  0  0  0  0
    4.7141  -12.2714   16.1776 C   0  0  0  0  0  0  0  0  0  0  0  0
    5.4819  -13.2948   16.1470 O   0  0  0  0  0  0  0  0  0  0  0  0
    4.7155  -11.5456   17.3949 N   0  0  0  0  0  0  0  0  0  0  0  0
    3.8805  -11.9095   18.4493 N   0  0  0  0  0  0  0  0  0  0  0  0
    3.4277  -13.2692   18.6205 C   0  0  0  0  0  0  0  0  0  0  0  0
    3.4613  -10.9253   19.3782 C   0  0  0  0  0  0  0  0  0  0  0  0
    2.8434   -9.7654   18.9824 C   0  0  0  0  0  0  0  0  0  0  0  0
    2.4451   -8.8125   19.8684 C   0  0  0  0  0  0  0  0  0  0  0  0
    2.6712   -9.0216   21.2118 C   0  0  0  0  0  0  0  0  0  0  0  0
    3.2809  -10.1599   21.6404 C   0  0  0  0  0  0  0  0  0  0  0  0
    3.6715  -11.1025   20.7258 C   0  0  0  0  0  0  0  0  0  0  0  0
  1  2  2  0
  1  6  1  0
  2  3  1  0
  3  4  2  0
  4  5  1  0
  5  6  2  0
  6  7  1  0
  7  8  1  0
  8  9  1  0
  9 10  2  0
  9 11  1  0
 11 12  1  6
 11 13  1  0
 13 14  1  6
 13 19  1  0
 14 15  1  0
 15 16  1  0
 16 17  1  0
 17 18  1  0
 19 20  1  0
 20 21  2  0
 20 22  1  0
 22 23  1  0
 22 34  1  1
 23 24  1  0
 24 25  2  0
 24 26  1  0
 26 27  1  0
 27 28  1  0
 28 29  2  0
 28 33  1  0
 29 30  1  0
 30 31  2  0
 31 32  1  0
 32 33  2  0
 34 35  1  0
 35 36  1  0
 36 37  2  0
 36 38  1  0
 38 39  1  0
 39 40  1  0
 39 41  1  0
 41 42  2  0
 41 46  1  0
 42 43  1  0
 43 44  2  0
 44 45  1  0
 45 46  2  0
M  CHG  1  18   1
M  END
$$$$
