
     RDKit          3D

 46 48  0  0  0  0  0  0  0  0999 V2000
   -0.1380  -10.7324   10.9107 C   0  0  0  0  0  0  0  0  0  0  0  0
   -0.6654  -10.1760   12.0783 C   0  0  0  0  0  0  0  0  0  0  0  0
   -1.7116  -10.8249   12.7092 C   0  0  0  0  0  0  0  0  0  0  0  0
   -2.1843  -11.9976   12.1481 C   0  0  0  0  0  0  0  0  0  0  0  0
   -1.6524  -12.5339   10.9943 C   0  0  0  0  0  0  0  0  0  0  0  0
   -0.6155  -11.8985   10.3614 C   0  0  0  0  0  0  0  0  0  0  0  0
    0.0051  -12.3970    9.1165 C   0  0  0  0  0  0  0  0  0  0  0  0
    1.3184  -12.9532    9.2786 N   0  0  0  0  0  0  0  0  0  0  0  0
    2.4488  -12.4283    8.6433 C   0  0  0  0  0  0  0  0  0  0  0  0
    2.3173  -11.5222    7.7890 O   0  0  0  0  0  0  0  0  0  0  0  0
    3.8324  -12.8923    8.9288 C   0  0  1  0  0  0  0  0  0  0  0  0
    4.5472  -13.0456    7.7622 O   0  0  0  0  0  0  0  0  0  0  0  0
    4.5689  -12.0503    9.8971 C   0  0  2  0  0  0  0  0  0  0  0  0
    6.0391  -11.8813    9.6534 C   0  0  0  0  0  0  0  0  0  0  0  0
    6.7155  -10.8085   10.4173 C   0  0  0  0  0  0  0  0  0  0  0  0
    6.9509   -9.6230    9.4721 C   0  0  0  0  0  0  0  0  0  0  0  0
    7.7171   -8.5093   10.1307 C   0  0  0  0  0  0  0  0  0  0  0  0
    7.8586   -7.4612    9.1058 N   0  0  0  0  0  4  0  0  0  0  0  0
    4.4768  -12.6981   11.2036 N   0  0  0  0  0  0  0  0  0  0  0  0
    5.1645  -12.2562   12.3461 C   0  0  0  0  0  0  0  0  0  0  0  0
    5.6464  -11.0938   12.3086 O   0  0  0  0  0  0  0  0  0  0  0  0
    5.3697  -13.0315   13.5702 C   0  0  1  0  0  0  0  0  0  0  0  0
    6.4159  -12.5443   14.4371 N   0  0  0  0  0  0  0  0  0  0  0  0
    7.6042  -11.9494   13.8767 C   0  0  0  0  0  0  0  0  0  0  0  0
    7.4907  -11.4385   12.7345 O   0  0  0  0  0  0  0  0  0  0  0  0
    8.8055  -11.9464   14.5675 O   0  0  0  0  0  0  0  0  0  0  0  0
    9.1095  -10.8615   15.4034 C   0  0  0  0  0  0  0  0  0  0  0  0
   10.4185  -11.0660   16.0618 C   0  0  0  0  0  0  0  0  0  0  0  0
   10.7491  -12.2568   16.6459 C   0  0  0  0  0  0  0  0  0  0  0  0
   11.9687  -12.5042   17.2729 C   0  0  0  0  0  0  0  0  0  0  0  0
   12.8829  -11.4603   17.2902 C   0  0  0  0  0  0  0  0  0  0  0  0
   12.5627  -10.2645   16.7088 C   0  0  0  0  0  0  0  0  0  0  0  0
   11.3425  -10.0329   16.0872 C   0  0  0  0  0  0  0  0  0  0  0  0
    4.0816  -13.2418   14.3461 C   0  0  0  0  0  0  0  0  0  0  0  0
    4.2903  -13.4559   15.8049 C   0  0  0  0  0  0  0  0  0  0  0  0
    3.6029  -12.3665   16.5438 C   0  0  0  0  0  0  0  0  0  0  0  0
    2.4566  -12.5792   17.0717 O   0  0  0  0  0  0  0  0  0  0  0  0
    4.1225  -11.0601   16.7227 N   0  0  0  0  0  0  0  0  0  0  0  0
    3.5060  -10.1532   17.5820 N   0  0  0  0  0  0  0  0  0  0  0  0
    3.0951   -8.8448   17.1321 C   0  0  0  0  0  0  0  0  0  0  0  0
    3.2755  -10.5177   18.9315 C   0  0  0  0  0  0  0  0  0  0  0  0
    2.5944  -11.6596   19.2722 C   0  0  0  0  0  0  0  0  0  0  0  0
    2.3627  -12.0118   20.5660 C   0  0  0  0  0  0  0  0  0  0  0  0
    2.8299  -11.1907   21.5695 C   0  0  0  0  0  0  0  0  0  0  0  0
    3.5094  -10.0509   21.2689 C   0  0  0  0  0  0  0  0  0  0  0  0
    3.7282   -9.7209   19.9572 C   0  0  0  0  0  0  0  0  0  0  0  0
  1  2  2  0
  1  6  1  0
  2  3  1  0
  3  4  2  0
  4  5  1  0
  5  6  2  0
  6  7  1  0
  7  8  1  0
  8  9  1  0
  9 10  2  0
  9 11  1  0
 11 12  1  6
 11 13  1  0
 13 14  1  6
 13 19  1  0
 14 15  1  0
 15 16  1  0
 16 17  1  0
 17 18  1  0
 19 20  1  0
 20 21  2  0
 20 22  1  0
 22 23  1  0
 22 34  1  1
 23 24  1  0
 24 25  2  0
 24 26  1  0
 26 27  1  0
 27 28  1  0
 28 29  2  0
 28 33  1  0
 29 30  1  0
 30 31  2  0
 31 32  1  0
 32 33  2  0
 34 35  1  0
 35 36  1  0
 36 37  2  0
 36 38  1  0
 38 39  1  0
 39 40  1  0
 39 41  1  0
 41 42  2  0
 41 46  1  0
 42 43  1  0
 43 44  2  0
 44 45  1  0
 45 46  2  0
M  CHG  1  18   1
M  END
$$$$
