
     RDKit          3D

 34 37  0  0  0  0  0  0  0  0999 V2000
   15.6845  -23.7444  -26.9683 C   0  0  0  0  0  0  0  0  0  0  0  0
   15.3602  -22.3144  -26.7183 C   0  0  0  0  0  0  0  0  0  0  0  0
   15.1854  -21.9936  -25.3781 O   0  0  0  0  0  0  0  0  0  0  0  0
   15.8499  -22.9354  -24.6112 C   0  0  0  0  0  0  0  0  0  0  0  0
   15.0484  -24.2232  -24.7026 C   0  0  0  0  0  0  0  0  0  0  0  0
   15.0488  -24.6699  -26.0660 N   0  0  2  0  0  4  0  0  0  0  0  0
   15.7821  -25.9241  -26.1374 C   0  0  0  0  0  0  0  0  0  0  0  0
   15.4384  -26.8562  -25.0521 C   0  0  0  0  0  0  0  0  0  0  0  0
   14.1381  -27.3022  -24.8218 C   0  0  0  0  0  0  0  0  0  0  0  0
   13.8713  -28.1764  -23.7891 C   0  0  0  0  0  0  0  0  0  0  0  0
   16.4265  -27.3222  -24.2136 C   0  0  0  0  0  0  0  0  0  0  0  0
   16.1547  -28.1923  -23.1873 C   0  0  0  0  0  0  0  0  0  0  0  0
   14.8733  -28.6277  -22.9655 C   0  0  0  0  0  0  0  0  0  0  0  0
   14.6098  -29.5394  -21.8852 C   0  0  0  0  0  0  0  0  0  0  0  0
   14.1759  -30.8423  -21.9797 C   0  0  0  0  0  0  0  0  0  0  0  0
   13.8789  -31.6066  -23.2053 C   0  0  0  0  0  0  0  0  0  0  0  0
   14.5142  -31.4397  -24.2616 O   0  0  0  0  0  0  0  0  0  0  0  0
   12.8376  -32.5724  -23.2078 N   0  0  0  0  0  0  0  0  0  0  0  0
   12.5735  -33.4539  -24.3003 C   0  0  0  0  0  0  0  0  0  0  0  0
   13.4716  -34.6661  -24.3212 C   0  0  0  0  0  0  0  0  0  0  0  0
   14.0743  -31.2920  -20.7198 N   0  0  0  0  0  0  0  0  0  0  0  0
   14.4162  -30.3509  -19.8841 O   0  0  0  0  0  0  0  0  0  0  0  0
   14.7517  -29.2611  -20.5402 C   0  0  0  0  0  0  0  0  0  0  0  0
   15.1831  -28.0271  -19.8906 C   0  0  0  0  0  0  0  0  0  0  0  0
   14.5643  -26.8175  -20.2108 C   0  0  0  0  0  0  0  0  0  0  0  0
   14.9338  -25.6291  -19.6284 C   0  0  0  0  0  0  0  0  0  0  0  0
   14.2923  -24.3311  -19.9501 C   0  0  1  0  0  0  0  0  0  0  0  0
   14.8479  -23.7130  -21.2232 C   0  0  0  0  0  0  0  0  0  0  0  0
   12.8035  -24.4076  -20.0646 C   0  0  0  0  0  0  0  0  0  0  0  0
   15.9536  -25.6630  -18.6997 C   0  0  0  0  0  0  0  0  0  0  0  0
   16.3359  -24.4587  -18.1024 O   0  0  0  0  0  0  0  0  0  0  0  0
   16.5686  -26.8627  -18.3808 C   0  0  0  0  0  0  0  0  0  0  0  0
   16.2021  -28.0595  -18.9620 C   0  0  0  0  0  0  0  0  0  0  0  0
   16.8503  -29.2411  -18.6090 O   0  0  0  0  0  0  0  0  0  0  0  0
  1  2  1  0
  1  6  1  0
  2  3  1  0
  3  4  1  0
  4  5  1  0
  5  6  1  0
  6  7  1  1
  7  8  1  0
  8  9  2  0
  8 11  1  0
  9 10  1  0
 10 13  2  0
 11 12  2  0
 12 13  1  0
 13 14  1  0
 14 15  1  0
 14 23  2  0
 15 16  1  0
 15 21  2  0
 16 17  2  0
 16 18  1  0
 18 19  1  0
 19 20  1  0
 21 22  1  0
 22 23  1  0
 23 24  1  0
 24 25  2  0
 24 33  1  0
 25 26  1  0
 26 27  1  0
 26 30  2  0
 27 28  1  6
 27 29  1  0
 30 31  1  0
 30 32  1  0
 32 33  2  0
 33 34  1  0
M  CHG  1   6   1
M  END
$$$$
