
     RDKit          3D

 34 37  0  0  0  0  0  0  0  0999 V2000
   16.5299  -30.7767  -26.0494 C   0  0  0  0  0  0  0  0  0  0  0  0
   16.6835  -32.2472  -25.8858 C   0  0  0  0  0  0  0  0  0  0  0  0
   15.6449  -32.8570  -25.1937 O   0  0  0  0  0  0  0  0  0  0  0  0
   14.5220  -32.0529  -25.2894 C   0  0  0  0  0  0  0  0  0  0  0  0
   14.7739  -30.8378  -24.4123 C   0  0  0  0  0  0  0  0  0  0  0  0
   15.8940  -30.1132  -24.9402 N   0  0  2  0  0  4  0  0  0  0  0  0
   15.4222  -28.8218  -25.4149 C   0  0  0  0  0  0  0  0  0  0  0  0
   15.3977  -27.7938  -24.3625 C   0  0  0  0  0  0  0  0  0  0  0  0
   16.5237  -27.4473  -23.6176 C   0  0  0  0  0  0  0  0  0  0  0  0
   16.4448  -26.4761  -22.6418 C   0  0  0  0  0  0  0  0  0  0  0  0
   14.2234  -27.1314  -24.0822 C   0  0  0  0  0  0  0  0  0  0  0  0
   14.1511  -26.1655  -23.1095 C   0  0  0  0  0  0  0  0  0  0  0  0
   15.2623  -25.8287  -22.3798 C   0  0  0  0  0  0  0  0  0  0  0  0
   15.1655  -24.8139  -21.3656 C   0  0  0  0  0  0  0  0  0  0  0  0
   14.9126  -23.4731  -21.5480 C   0  0  0  0  0  0  0  0  0  0  0  0
   14.6840  -22.7641  -22.8206 C   0  0  0  0  0  0  0  0  0  0  0  0
   15.1415  -23.1764  -23.9012 O   0  0  0  0  0  0  0  0  0  0  0  0
   13.9190  -21.5677  -22.8420 N   0  0  0  0  0  0  0  0  0  0  0  0
   13.7012  -20.7843  -24.0164 C   0  0  0  0  0  0  0  0  0  0  0  0
   14.8612  -19.8816  -24.3568 C   0  0  0  0  0  0  0  0  0  0  0  0
   14.9131  -22.9254  -20.3233 N   0  0  0  0  0  0  0  0  0  0  0  0
   15.1478  -23.8434  -19.4270 O   0  0  0  0  0  0  0  0  0  0  0  0
   15.3094  -25.0131  -20.0069 C   0  0  0  0  0  0  0  0  0  0  0  0
   15.5872  -26.2459  -19.2762 C   0  0  0  0  0  0  0  0  0  0  0  0
   14.8011  -27.3784  -19.4952 C   0  0  0  0  0  0  0  0  0  0  0  0
   15.0210  -28.5619  -18.8327 C   0  0  0  0  0  0  0  0  0  0  0  0
   14.2014  -29.7793  -19.0477 C   0  0  1  0  0  0  0  0  0  0  0  0
   13.0233  -29.8578  -18.0901 C   0  0  0  0  0  0  0  0  0  0  0  0
   13.6928  -29.9232  -20.4463 C   0  0  0  0  0  0  0  0  0  0  0  0
   16.0605  -28.6028  -17.9265 C   0  0  0  0  0  0  0  0  0  0  0  0
   16.2912  -29.8027  -17.2481 O   0  0  0  0  0  0  0  0  0  0  0  0
   16.8416  -27.4797  -17.7080 C   0  0  0  0  0  0  0  0  0  0  0  0
   16.6259  -26.2882  -18.3701 C   0  0  0  0  0  0  0  0  0  0  0  0
   17.4383  -25.1851  -18.1169 O   0  0  0  0  0  0  0  0  0  0  0  0
  1  2  1  0
  1  6  1  0
  2  3  1  0
  3  4  1  0
  4  5  1  0
  5  6  1  0
  6  7  1  6
  7  8  1  0
  8  9  2  0
  8 11  1  0
  9 10  1  0
 10 13  2  0
 11 12  2  0
 12 13  1  0
 13 14  1  0
 14 15  1  0
 14 23  2  0
 15 16  1  0
 15 21  2  0
 16 17  2  0
 16 18  1  0
 18 19  1  0
 19 20  1  0
 21 22  1  0
 22 23  1  0
 23 24  1  0
 24 25  2  0
 24 33  1  0
 25 26  1  0
 26 27  1  0
 26 30  2  0
 27 28  1  1
 27 29  1  0
 30 31  1  0
 30 32  1  0
 32 33  2  0
 33 34  1  0
M  CHG  1   6   1
M  END
$$$$
