
     RDKit          3D

 34 37  0  0  0  0  0  0  0  0999 V2000
   15.4788  -29.8136  -27.7739 C   0  0  0  0  0  0  0  0  0  0  0  0
   15.6150  -29.3597  -29.1839 C   0  0  0  0  0  0  0  0  0  0  0  0
   16.0276  -28.0406  -29.3225 O   0  0  0  0  0  0  0  0  0  0  0  0
   16.6871  -27.6632  -28.1653 C   0  0  0  0  0  0  0  0  0  0  0  0
   15.6304  -27.5187  -27.0828 C   0  0  0  0  0  0  0  0  0  0  0  0
   15.0229  -28.7990  -26.8588 N   0  0  2  0  0  4  0  0  0  0  0  0
   15.3616  -29.2383  -25.5142 C   0  0  0  0  0  0  0  0  0  0  0  0
   15.2794  -28.1598  -24.5167 C   0  0  0  0  0  0  0  0  0  0  0  0
   14.0848  -27.5187  -24.1929 C   0  0  0  0  0  0  0  0  0  0  0  0
   14.0643  -26.5127  -23.2499 C   0  0  0  0  0  0  0  0  0  0  0  0
   16.4181  -27.7475  -23.8612 C   0  0  0  0  0  0  0  0  0  0  0  0
   16.3914  -26.7455  -22.9234 C   0  0  0  0  0  0  0  0  0  0  0  0
   15.2131  -26.1183  -22.6089 C   0  0  0  0  0  0  0  0  0  0  0  0
   15.2065  -25.0713  -21.6235 C   0  0  0  0  0  0  0  0  0  0  0  0
   14.9816  -23.7294  -21.8328 C   0  0  0  0  0  0  0  0  0  0  0  0
   14.6970  -23.0522  -23.1114 C   0  0  0  0  0  0  0  0  0  0  0  0
   14.8219  -23.6256  -24.2081 O   0  0  0  0  0  0  0  0  0  0  0  0
   14.2641  -21.6996  -23.1202 N   0  0  0  0  0  0  0  0  0  0  0  0
   13.8307  -21.0111  -24.2943 C   0  0  0  0  0  0  0  0  0  0  0  0
   12.3367  -21.0598  -24.4988 C   0  0  0  0  0  0  0  0  0  0  0  0
   15.0715  -23.1456  -20.6283 N   0  0  0  0  0  0  0  0  0  0  0  0
   15.3335  -24.0431  -19.7189 O   0  0  0  0  0  0  0  0  0  0  0  0
   15.4263  -25.2340  -20.2700 C   0  0  0  0  0  0  0  0  0  0  0  0
   15.7123  -26.4523  -19.5184 C   0  0  0  0  0  0  0  0  0  0  0  0
   14.8926  -27.5723  -19.6678 C   0  0  0  0  0  0  0  0  0  0  0  0
   15.1186  -28.7419  -18.9830 C   0  0  0  0  0  0  0  0  0  0  0  0
   14.2639  -29.9458  -19.1244 C   0  0  1  0  0  0  0  0  0  0  0  0
   13.1215  -29.9630  -18.1214 C   0  0  0  0  0  0  0  0  0  0  0  0
   13.6992  -30.1252  -20.4972 C   0  0  0  0  0  0  0  0  0  0  0  0
   16.1991  -28.7814  -18.1260 C   0  0  0  0  0  0  0  0  0  0  0  0
   16.4362  -29.9672  -17.4253 O   0  0  0  0  0  0  0  0  0  0  0  0
   17.0135  -27.6708  -17.9766 C   0  0  0  0  0  0  0  0  0  0  0  0
   16.7920  -26.4933  -18.6615 C   0  0  0  0  0  0  0  0  0  0  0  0
   17.6389  -25.4024  -18.4783 O   0  0  0  0  0  0  0  0  0  0  0  0
  1  2  1  0
  1  6  1  0
  2  3  1  0
  3  4  1  0
  4  5  1  0
  5  6  1  0
  6  7  1  1
  7  8  1  0
  8  9  2  0
  8 11  1  0
  9 10  1  0
 10 13  2  0
 11 12  2  0
 12 13  1  0
 13 14  1  0
 14 15  1  0
 14 23  2  0
 15 16  1  0
 15 21  2  0
 16 17  2  0
 16 18  1  0
 18 19  1  0
 19 20  1  0
 21 22  1  0
 22 23  1  0
 23 24  1  0
 24 25  2  0
 24 33  1  0
 25 26  1  0
 26 27  1  0
 26 30  2  0
 27 28  1  1
 27 29  1  0
 30 31  1  0
 30 32  1  0
 32 33  2  0
 33 34  1  0
M  CHG  1   6   1
M  END
$$$$
