
     RDKit          3D

 34 37  0  0  0  0  0  0  0  0999 V2000
   14.8794  -29.3616  -27.6915 C   0  0  0  0  0  0  0  0  0  0  0  0
   15.2526  -29.2434  -29.1265 C   0  0  0  0  0  0  0  0  0  0  0  0
   16.6124  -29.0701  -29.3512 O   0  0  0  0  0  0  0  0  0  0  0  0
   17.3040  -29.5602  -28.2567 C   0  0  0  0  0  0  0  0  0  0  0  0
   17.0767  -28.5811  -27.1170 C   0  0  0  0  0  0  0  0  0  0  0  0
   15.6783  -28.5643  -26.7966 N   0  0  2  0  0  4  0  0  0  0  0  0
   15.5082  -29.1064  -25.4575 C   0  0  0  0  0  0  0  0  0  0  0  0
   15.5029  -28.0711  -24.4121 C   0  0  0  0  0  0  0  0  0  0  0  0
   16.6484  -27.6992  -23.7104 C   0  0  0  0  0  0  0  0  0  0  0  0
   16.5871  -26.7221  -22.7391 C   0  0  0  0  0  0  0  0  0  0  0  0
   14.3277  -27.4274  -24.0944 C   0  0  0  0  0  0  0  0  0  0  0  0
   14.2729  -26.4555  -23.1265 C   0  0  0  0  0  0  0  0  0  0  0  0
   15.4033  -26.0937  -22.4394 C   0  0  0  0  0  0  0  0  0  0  0  0
   15.3246  -25.0732  -21.4295 C   0  0  0  0  0  0  0  0  0  0  0  0
   15.0830  -23.7309  -21.6163 C   0  0  0  0  0  0  0  0  0  0  0  0
   14.8503  -23.0260  -22.8904 C   0  0  0  0  0  0  0  0  0  0  0  0
   15.0811  -23.5541  -23.9926 O   0  0  0  0  0  0  0  0  0  0  0  0
   14.3461  -21.6983  -22.8882 N   0  0  0  0  0  0  0  0  0  0  0  0
   13.9587  -20.9930  -24.0683 C   0  0  0  0  0  0  0  0  0  0  0  0
   12.5327  -21.2592  -24.4831 C   0  0  0  0  0  0  0  0  0  0  0  0
   15.0989  -23.1773  -20.3943 N   0  0  0  0  0  0  0  0  0  0  0  0
   15.3325  -24.0931  -19.4956 O   0  0  0  0  0  0  0  0  0  0  0  0
   15.4781  -25.2671  -20.0710 C   0  0  0  0  0  0  0  0  0  0  0  0
   15.7504  -26.4990  -19.3366 C   0  0  0  0  0  0  0  0  0  0  0  0
   14.9005  -27.5973  -19.4780 C   0  0  0  0  0  0  0  0  0  0  0  0
   15.1125  -28.7784  -18.8086 C   0  0  0  0  0  0  0  0  0  0  0  0
   14.2257  -29.9599  -18.9419 C   0  0  1  0  0  0  0  0  0  0  0  0
   12.8478  -29.7165  -18.3476 C   0  0  0  0  0  0  0  0  0  0  0  0
   14.0633  -30.4346  -20.3503 C   0  0  0  0  0  0  0  0  0  0  0  0
   16.2100  -28.8522  -17.9757 C   0  0  0  0  0  0  0  0  0  0  0  0
   16.4331  -30.0499  -17.2909 O   0  0  0  0  0  0  0  0  0  0  0  0
   17.0544  -27.7631  -17.8344 C   0  0  0  0  0  0  0  0  0  0  0  0
   16.8470  -26.5742  -18.5038 C   0  0  0  0  0  0  0  0  0  0  0  0
   17.7241  -25.5059  -18.3296 O   0  0  0  0  0  0  0  0  0  0  0  0
  1  2  1  0
  1  6  1  0
  2  3  1  0
  3  4  1  0
  4  5  1  0
  5  6  1  0
  6  7  1  1
  7  8  1  0
  8  9  2  0
  8 11  1  0
  9 10  1  0
 10 13  2  0
 11 12  2  0
 12 13  1  0
 13 14  1  0
 14 15  1  0
 14 23  2  0
 15 16  1  0
 15 21  2  0
 16 17  2  0
 16 18  1  0
 18 19  1  0
 19 20  1  0
 21 22  1  0
 22 23  1  0
 23 24  1  0
 24 25  2  0
 24 33  1  0
 25 26  1  0
 26 27  1  0
 26 30  2  0
 27 28  1  6
 27 29  1  0
 30 31  1  0
 30 32  1  0
 32 33  2  0
 33 34  1  0
M  CHG  1   6   1
M  END
$$$$
