
     RDKit          3D

 34 37  0  0  0  0  0  0  0  0999 V2000
   14.9752  -28.8110  -27.4561 C   0  0  0  0  0  0  0  0  0  0  0  0
   15.2496  -28.7653  -28.9173 C   0  0  0  0  0  0  0  0  0  0  0  0
   16.4939  -29.2641  -29.2812 O   0  0  0  0  0  0  0  0  0  0  0  0
   16.9288  -30.1255  -28.2886 C   0  0  0  0  0  0  0  0  0  0  0  0
   17.3051  -29.2663  -27.0930 C   0  0  0  0  0  0  0  0  0  0  0  0
   16.1292  -28.5923  -26.6222 N   0  0  2  0  0  4  0  0  0  0  0  0
   15.8121  -29.0965  -25.2952 C   0  0  0  0  0  0  0  0  0  0  0  0
   15.5949  -28.0272  -24.3081 C   0  0  0  0  0  0  0  0  0  0  0  0
   14.3682  -27.3858  -24.1457 C   0  0  0  0  0  0  0  0  0  0  0  0
   14.2196  -26.3886  -23.2048 C   0  0  0  0  0  0  0  0  0  0  0  0
   16.6333  -27.6244  -23.4982 C   0  0  0  0  0  0  0  0  0  0  0  0
   16.4793  -26.6311  -22.5633 C   0  0  0  0  0  0  0  0  0  0  0  0
   15.2699  -26.0035  -22.4080 C   0  0  0  0  0  0  0  0  0  0  0  0
   15.1294  -24.9657  -21.4227 C   0  0  0  0  0  0  0  0  0  0  0  0
   14.8866  -23.6294  -21.6468 C   0  0  0  0  0  0  0  0  0  0  0  0
   14.7155  -22.9498  -22.9443 C   0  0  0  0  0  0  0  0  0  0  0  0
   15.0038  -23.4974  -24.0232 O   0  0  0  0  0  0  0  0  0  0  0  0
   14.2063  -21.6249  -22.9928 N   0  0  0  0  0  0  0  0  0  0  0  0
   13.7955  -20.9746  -24.1965 C   0  0  0  0  0  0  0  0  0  0  0  0
   12.7042  -19.9549  -23.9829 C   0  0  0  0  0  0  0  0  0  0  0  0
   14.8334  -23.0536  -20.4362 N   0  0  0  0  0  0  0  0  0  0  0  0
   15.0269  -23.9508  -19.5096 O   0  0  0  0  0  0  0  0  0  0  0  0
   15.2127  -25.1336  -20.0547 C   0  0  0  0  0  0  0  0  0  0  0  0
   15.4562  -26.3493  -19.2843 C   0  0  0  0  0  0  0  0  0  0  0  0
   14.6492  -27.4715  -19.4790 C   0  0  0  0  0  0  0  0  0  0  0  0
   14.8367  -28.6389  -18.7789 C   0  0  0  0  0  0  0  0  0  0  0  0
   13.9944  -29.8451  -18.9674 C   0  0  1  0  0  0  0  0  0  0  0  0
   12.7814  -29.8504  -18.0510 C   0  0  0  0  0  0  0  0  0  0  0  0
   13.5321  -30.0423  -20.3756 C   0  0  0  0  0  0  0  0  0  0  0  0
   15.8646  -28.6738  -17.8593 C   0  0  0  0  0  0  0  0  0  0  0  0
   16.0624  -29.8573  -17.1427 O   0  0  0  0  0  0  0  0  0  0  0  0
   16.6664  -27.5610  -17.6649 C   0  0  0  0  0  0  0  0  0  0  0  0
   16.4833  -26.3857  -18.3648 C   0  0  0  0  0  0  0  0  0  0  0  0
   17.3156  -25.2924  -18.1347 O   0  0  0  0  0  0  0  0  0  0  0  0
  1  2  1  0
  1  6  1  0
  2  3  1  0
  3  4  1  0
  4  5  1  0
  5  6  1  0
  6  7  1  1
  7  8  1  0
  8  9  2  0
  8 11  1  0
  9 10  1  0
 10 13  2  0
 11 12  2  0
 12 13  1  0
 13 14  1  0
 14 15  1  0
 14 23  2  0
 15 16  1  0
 15 21  2  0
 16 17  2  0
 16 18  1  0
 18 19  1  0
 19 20  1  0
 21 22  1  0
 22 23  1  0
 23 24  1  0
 24 25  2  0
 24 33  1  0
 25 26  1  0
 26 27  1  0
 26 30  2  0
 27 28  1  1
 27 29  1  0
 30 31  1  0
 30 32  1  0
 32 33  2  0
 33 34  1  0
M  CHG  1   6   1
M  END
$$$$
