
     RDKit          3D

 34 37  0  0  0  0  0  0  0  0999 V2000
   16.2154  -29.7218  -27.1380 C   0  0  0  0  0  0  0  0  0  0  0  0
   17.3637  -30.5331  -27.6235 C   0  0  0  0  0  0  0  0  0  0  0  0
   17.9567  -31.3253  -26.6487 O   0  0  0  0  0  0  0  0  0  0  0  0
   17.0335  -31.5459  -25.6410 C   0  0  0  0  0  0  0  0  0  0  0  0
   16.8809  -30.2347  -24.8882 C   0  0  0  0  0  0  0  0  0  0  0  0
   16.3451  -29.2497  -25.7833 N   0  0  2  0  0  4  0  0  0  0  0  0
   15.0165  -28.8824  -25.3189 C   0  0  0  0  0  0  0  0  0  0  0  0
   15.0351  -27.8322  -24.2886 C   0  0  0  0  0  0  0  0  0  0  0  0
   13.9050  -27.0942  -23.9406 C   0  0  0  0  0  0  0  0  0  0  0  0
   13.9783  -26.1201  -22.9672 C   0  0  0  0  0  0  0  0  0  0  0  0
   16.2077  -27.5468  -23.6253 C   0  0  0  0  0  0  0  0  0  0  0  0
   16.2745  -26.5759  -22.6572 C   0  0  0  0  0  0  0  0  0  0  0  0
   15.1593  -25.8530  -22.3190 C   0  0  0  0  0  0  0  0  0  0  0  0
   15.2504  -24.8406  -21.3020 C   0  0  0  0  0  0  0  0  0  0  0  0
   15.1047  -23.4812  -21.4621 C   0  0  0  0  0  0  0  0  0  0  0  0
   14.8235  -22.7457  -22.7089 C   0  0  0  0  0  0  0  0  0  0  0  0
   14.9235  -23.2765  -23.8293 O   0  0  0  0  0  0  0  0  0  0  0  0
   14.4231  -21.3841  -22.6578 N   0  0  0  0  0  0  0  0  0  0  0  0
   13.9742  -20.6442  -23.7943 C   0  0  0  0  0  0  0  0  0  0  0  0
   12.5169  -20.8669  -24.1152 C   0  0  0  0  0  0  0  0  0  0  0  0
   15.2694  -22.9442  -20.2438 N   0  0  0  0  0  0  0  0  0  0  0  0
   15.5024  -23.8858  -19.3719 O   0  0  0  0  0  0  0  0  0  0  0  0
   15.5020  -25.0613  -19.9623 C   0  0  0  0  0  0  0  0  0  0  0  0
   15.7336  -26.3192  -19.2589 C   0  0  0  0  0  0  0  0  0  0  0  0
   14.8593  -27.3918  -19.4422 C   0  0  0  0  0  0  0  0  0  0  0  0
   15.0328  -28.5957  -18.8031 C   0  0  0  0  0  0  0  0  0  0  0  0
   14.1194  -29.7508  -18.9812 C   0  0  1  0  0  0  0  0  0  0  0  0
   12.9818  -29.7472  -17.9726 C   0  0  0  0  0  0  0  0  0  0  0  0
   13.5409  -29.8541  -20.3559 C   0  0  0  0  0  0  0  0  0  0  0  0
   16.1161  -28.7196  -17.9577 C   0  0  0  0  0  0  0  0  0  0  0  0
   16.3002  -29.9408  -17.3034 O   0  0  0  0  0  0  0  0  0  0  0  0
   16.9848  -27.6561  -17.7747 C   0  0  0  0  0  0  0  0  0  0  0  0
   16.8161  -26.4445  -18.4137 C   0  0  0  0  0  0  0  0  0  0  0  0
   17.7165  -25.4035  -18.1979 O   0  0  0  0  0  0  0  0  0  0  0  0
  1  2  1  0
  1  6  1  0
  2  3  1  0
  3  4  1  0
  4  5  1  0
  5  6  1  0
  6  7  1  1
  7  8  1  0
  8  9  2  0
  8 11  1  0
  9 10  1  0
 10 13  2  0
 11 12  2  0
 12 13  1  0
 13 14  1  0
 14 15  1  0
 14 23  2  0
 15 16  1  0
 15 21  2  0
 16 17  2  0
 16 18  1  0
 18 19  1  0
 19 20  1  0
 21 22  1  0
 22 23  1  0
 23 24  1  0
 24 25  2  0
 24 33  1  0
 25 26  1  0
 26 27  1  0
 26 30  2  0
 27 28  1  1
 27 29  1  0
 30 31  1  0
 30 32  1  0
 32 33  2  0
 33 34  1  0
M  CHG  1   6   1
M  END
$$$$
