
     RDKit          3D

 34 37  0  0  0  0  0  0  0  0999 V2000
   14.0886  -28.8570  -27.4176 C   0  0  0  0  0  0  0  0  0  0  0  0
   14.1181  -28.8015  -28.9038 C   0  0  0  0  0  0  0  0  0  0  0  0
   15.3245  -29.1980  -29.4668 O   0  0  0  0  0  0  0  0  0  0  0  0
   15.9849  -30.0113  -28.5619 C   0  0  0  0  0  0  0  0  0  0  0  0
   16.4763  -29.1132  -27.4389 C   0  0  0  0  0  0  0  0  0  0  0  0
   15.3399  -28.5355  -26.7807 N   0  0  2  0  0  4  0  0  0  0  0  0
   15.2849  -29.0527  -25.4222 C   0  0  0  0  0  0  0  0  0  0  0  0
   15.3029  -27.9941  -24.4005 C   0  0  0  0  0  0  0  0  0  0  0  0
   16.4608  -27.6177  -23.7220 C   0  0  0  0  0  0  0  0  0  0  0  0
   16.4212  -26.6185  -22.7723 C   0  0  0  0  0  0  0  0  0  0  0  0
   14.1380  -27.3321  -24.0825 C   0  0  0  0  0  0  0  0  0  0  0  0
   14.1049  -26.3382  -23.1362 C   0  0  0  0  0  0  0  0  0  0  0  0
   15.2474  -25.9720  -22.4718 C   0  0  0  0  0  0  0  0  0  0  0  0
   15.1913  -24.9284  -21.4843 C   0  0  0  0  0  0  0  0  0  0  0  0
   14.9721  -23.5865  -21.6996 C   0  0  0  0  0  0  0  0  0  0  0  0
   14.7455  -22.9058  -22.9879 C   0  0  0  0  0  0  0  0  0  0  0  0
   14.8350  -23.4998  -24.0770 O   0  0  0  0  0  0  0  0  0  0  0  0
   14.4124  -21.5254  -23.0153 N   0  0  0  0  0  0  0  0  0  0  0  0
   14.0044  -20.8293  -24.1940 C   0  0  0  0  0  0  0  0  0  0  0  0
   12.5076  -20.6824  -24.3139 C   0  0  0  0  0  0  0  0  0  0  0  0
   15.0036  -23.0065  -20.4902 N   0  0  0  0  0  0  0  0  0  0  0  0
   15.2256  -23.9063  -19.5726 O   0  0  0  0  0  0  0  0  0  0  0  0
   15.3481  -25.0951  -20.1226 C   0  0  0  0  0  0  0  0  0  0  0  0
   15.6025  -26.3150  -19.3625 C   0  0  0  0  0  0  0  0  0  0  0  0
   14.7679  -27.4226  -19.5218 C   0  0  0  0  0  0  0  0  0  0  0  0
   14.9642  -28.5932  -18.8296 C   0  0  0  0  0  0  0  0  0  0  0  0
   14.0932  -29.7841  -18.9812 C   0  0  1  0  0  0  0  0  0  0  0  0
   12.9510  -29.7947  -17.9779 C   0  0  0  0  0  0  0  0  0  0  0  0
   13.5257  -29.9437  -20.3552 C   0  0  0  0  0  0  0  0  0  0  0  0
   16.0297  -28.6466  -17.9547 C   0  0  0  0  0  0  0  0  0  0  0  0
   16.2366  -29.8335  -17.2463 O   0  0  0  0  0  0  0  0  0  0  0  0
   16.8588  -27.5483  -17.7954 C   0  0  0  0  0  0  0  0  0  0  0  0
   16.6671  -26.3699  -18.4877 C   0  0  0  0  0  0  0  0  0  0  0  0
   17.5279  -25.2917  -18.2940 O   0  0  0  0  0  0  0  0  0  0  0  0
  1  2  1  0
  1  6  1  0
  2  3  1  0
  3  4  1  0
  4  5  1  0
  5  6  1  0
  6  7  1  1
  7  8  1  0
  8  9  2  0
  8 11  1  0
  9 10  1  0
 10 13  2  0
 11 12  2  0
 12 13  1  0
 13 14  1  0
 14 15  1  0
 14 23  2  0
 15 16  1  0
 15 21  2  0
 16 17  2  0
 16 18  1  0
 18 19  1  0
 19 20  1  0
 21 22  1  0
 22 23  1  0
 23 24  1  0
 24 25  2  0
 24 33  1  0
 25 26  1  0
 26 27  1  0
 26 30  2  0
 27 28  1  1
 27 29  1  0
 30 31  1  0
 30 32  1  0
 32 33  2  0
 33 34  1  0
M  CHG  1   6   1
M  END
$$$$
