
     RDKit          3D

 34 37  0  0  0  0  0  0  0  0999 V2000
   14.6328  -30.5456  -24.6946 C   0  0  0  0  0  0  0  0  0  0  0  0
   15.1552  -31.9384  -24.6929 C   0  0  0  0  0  0  0  0  0  0  0  0
   14.3411  -32.8551  -25.3459 O   0  0  0  0  0  0  0  0  0  0  0  0
   13.5456  -32.1706  -26.2488 C   0  0  0  0  0  0  0  0  0  0  0  0
   12.5158  -31.4038  -25.4359 C   0  0  0  0  0  0  0  0  0  0  0  0
   13.1981  -30.4434  -24.6170 N   0  0  2  0  0  4  0  0  0  0  0  0
   12.8293  -29.1109  -25.0690 C   0  0  0  0  0  0  0  0  0  0  0  0
   13.3254  -28.0438  -24.1858 C   0  0  0  0  0  0  0  0  0  0  0  0
   12.5979  -27.5630  -23.0984 C   0  0  0  0  0  0  0  0  0  0  0  0
   13.1105  -26.5601  -22.3027 C   0  0  0  0  0  0  0  0  0  0  0  0
   14.5588  -27.4792  -24.4232 C   0  0  0  0  0  0  0  0  0  0  0  0
   15.0637  -26.4810  -23.6275 C   0  0  0  0  0  0  0  0  0  0  0  0
   14.3434  -26.0120  -22.5590 C   0  0  0  0  0  0  0  0  0  0  0  0
   14.8904  -24.9661  -21.7377 C   0  0  0  0  0  0  0  0  0  0  0  0
   14.9711  -23.6251  -22.0378 C   0  0  0  0  0  0  0  0  0  0  0  0
   14.5191  -22.9481  -23.2674 C   0  0  0  0  0  0  0  0  0  0  0  0
   13.9174  -23.5509  -24.1738 O   0  0  0  0  0  0  0  0  0  0  0  0
   14.7657  -21.5613  -23.4487 N   0  0  0  0  0  0  0  0  0  0  0  0
   14.3516  -20.8240  -24.5999 C   0  0  0  0  0  0  0  0  0  0  0  0
   14.2355  -19.3406  -24.3501 C   0  0  0  0  0  0  0  0  0  0  0  0
   15.5494  -23.0415  -20.9772 N   0  0  0  0  0  0  0  0  0  0  0  0
   15.8180  -23.9384  -20.0692 O   0  0  0  0  0  0  0  0  0  0  0  0
   15.4375  -25.1287  -20.4803 C   0  0  0  0  0  0  0  0  0  0  0  0
   15.5999  -26.3463  -19.6917 C   0  0  0  0  0  0  0  0  0  0  0  0
   15.3238  -27.5893  -20.2636 C   0  0  0  0  0  0  0  0  0  0  0  0
   15.4602  -28.7640  -19.5639 C   0  0  0  0  0  0  0  0  0  0  0  0
   15.1744  -30.0971  -20.1481 C   0  0  1  0  0  0  0  0  0  0  0  0
   13.7996  -30.1609  -20.7939 C   0  0  0  0  0  0  0  0  0  0  0  0
   16.1935  -30.5485  -21.1446 C   0  0  0  0  0  0  0  0  0  0  0  0
   15.8858  -28.6813  -18.2541 C   0  0  0  0  0  0  0  0  0  0  0  0
   16.0272  -29.8713  -17.5350 O   0  0  0  0  0  0  0  0  0  0  0  0
   16.1603  -27.4484  -17.6851 C   0  0  0  0  0  0  0  0  0  0  0  0
   16.0254  -26.2651  -18.3825 C   0  0  0  0  0  0  0  0  0  0  0  0
   16.3134  -25.0488  -17.7673 O   0  0  0  0  0  0  0  0  0  0  0  0
  1  2  1  0
  1  6  1  0
  2  3  1  0
  3  4  1  0
  4  5  1  0
  5  6  1  0
  6  7  1  6
  7  8  1  0
  8  9  2  0
  8 11  1  0
  9 10  1  0
 10 13  2  0
 11 12  2  0
 12 13  1  0
 13 14  1  0
 14 15  1  0
 14 23  2  0
 15 16  1  0
 15 21  2  0
 16 17  2  0
 16 18  1  0
 18 19  1  0
 19 20  1  0
 21 22  1  0
 22 23  1  0
 23 24  1  0
 24 25  2  0
 24 33  1  0
 25 26  1  0
 26 27  1  0
 26 30  2  0
 27 28  1  6
 27 29  1  0
 30 31  1  0
 30 32  1  0
 32 33  2  0
 33 34  1  0
M  CHG  1   6   1
M  END
$$$$
