
     RDKit          3D

 34 37  0  0  0  0  0  0  0  0999 V2000
   15.7738  -30.7677  -24.3698 C   0  0  0  0  0  0  0  0  0  0  0  0
   15.6895  -32.2351  -24.1416 C   0  0  0  0  0  0  0  0  0  0  0  0
   15.4697  -32.9810  -25.2926 O   0  0  0  0  0  0  0  0  0  0  0  0
   15.8944  -32.2410  -26.3828 C   0  0  0  0  0  0  0  0  0  0  0  0
   14.8870  -31.1194  -26.5737 C   0  0  0  0  0  0  0  0  0  0  0  0
   14.9153  -30.2732  -25.4154 N   0  0  2  0  0  4  0  0  0  0  0  0
   15.4179  -28.9676  -25.8134 C   0  0  0  0  0  0  0  0  0  0  0  0
   15.3626  -27.9731  -24.7305 C   0  0  0  0  0  0  0  0  0  0  0  0
   16.4684  -27.6452  -23.9477 C   0  0  0  0  0  0  0  0  0  0  0  0
   16.3609  -26.7053  -22.9444 C   0  0  0  0  0  0  0  0  0  0  0  0
   14.1786  -27.3247  -24.4585 C   0  0  0  0  0  0  0  0  0  0  0  0
   14.0778  -26.3899  -23.4583 C   0  0  0  0  0  0  0  0  0  0  0  0
   15.1691  -26.0714  -22.6914 C   0  0  0  0  0  0  0  0  0  0  0  0
   15.0425  -25.0892  -21.6489 C   0  0  0  0  0  0  0  0  0  0  0  0
   14.7751  -23.7468  -21.7949 C   0  0  0  0  0  0  0  0  0  0  0  0
   14.5579  -23.0024  -23.0491 C   0  0  0  0  0  0  0  0  0  0  0  0
   14.7541  -23.5130  -24.1662 O   0  0  0  0  0  0  0  0  0  0  0  0
   14.1096  -21.6554  -23.0095 N   0  0  0  0  0  0  0  0  0  0  0  0
   13.7073  -20.9171  -24.1643 C   0  0  0  0  0  0  0  0  0  0  0  0
   12.3098  -21.2464  -24.6277 C   0  0  0  0  0  0  0  0  0  0  0  0
   14.7485  -23.2366  -20.5544 N   0  0  0  0  0  0  0  0  0  0  0  0
   14.9807  -24.1784  -19.6824 O   0  0  0  0  0  0  0  0  0  0  0  0
   15.1670  -25.3278  -20.2945 C   0  0  0  0  0  0  0  0  0  0  0  0
   15.4490  -26.5786  -19.5969 C   0  0  0  0  0  0  0  0  0  0  0  0
   14.6212  -27.6860  -19.7889 C   0  0  0  0  0  0  0  0  0  0  0  0
   14.8432  -28.8850  -19.1556 C   0  0  0  0  0  0  0  0  0  0  0  0
   13.9798  -30.0765  -19.3430 C   0  0  1  0  0  0  0  0  0  0  0  0
   12.8350  -30.1219  -18.3437 C   0  0  0  0  0  0  0  0  0  0  0  0
   13.4170  -30.2009  -20.7225 C   0  0  0  0  0  0  0  0  0  0  0  0
   15.9280  -28.9677  -18.3072 C   0  0  0  0  0  0  0  0  0  0  0  0
   16.1611  -30.1837  -17.6587 O   0  0  0  0  0  0  0  0  0  0  0  0
   16.7505  -27.8696  -18.1155 C   0  0  0  0  0  0  0  0  0  0  0  0
   16.5330  -26.6628  -18.7486 C   0  0  0  0  0  0  0  0  0  0  0  0
   17.3881  -25.5860  -18.5242 O   0  0  0  0  0  0  0  0  0  0  0  0
  1  2  1  0
  1  6  1  0
  2  3  1  0
  3  4  1  0
  4  5  1  0
  5  6  1  0
  6  7  1  6
  7  8  1  0
  8  9  2  0
  8 11  1  0
  9 10  1  0
 10 13  2  0
 11 12  2  0
 12 13  1  0
 13 14  1  0
 14 15  1  0
 14 23  2  0
 15 16  1  0
 15 21  2  0
 16 17  2  0
 16 18  1  0
 18 19  1  0
 19 20  1  0
 21 22  1  0
 22 23  1  0
 23 24  1  0
 24 25  2  0
 24 33  1  0
 25 26  1  0
 26 27  1  0
 26 30  2  0
 27 28  1  1
 27 29  1  0
 30 31  1  0
 30 32  1  0
 32 33  2  0
 33 34  1  0
M  CHG  1   6   1
M  END
$$$$
