
     RDKit          3D

 34 37  0  0  0  0  0  0  0  0999 V2000
   15.4723  -31.1780  -24.4362 C   0  0  0  0  0  0  0  0  0  0  0  0
   14.8821  -32.5429  -24.4709 C   0  0  0  0  0  0  0  0  0  0  0  0
   14.3879  -32.9206  -25.7129 O   0  0  0  0  0  0  0  0  0  0  0  0
   15.0211  -32.1656  -26.6853 C   0  0  0  0  0  0  0  0  0  0  0  0
   14.4689  -30.7540  -26.5764 C   0  0  0  0  0  0  0  0  0  0  0  0
   14.8194  -30.2204  -25.2915 N   0  0  2  0  0  4  0  0  0  0  0  0
   15.7403  -29.1123  -25.4909 C   0  0  0  0  0  0  0  0  0  0  0  0
   15.5801  -28.0421  -24.4940 C   0  0  0  0  0  0  0  0  0  0  0  0
   14.3613  -27.4106  -24.2518 C   0  0  0  0  0  0  0  0  0  0  0  0
   14.2670  -26.4121  -23.3054 C   0  0  0  0  0  0  0  0  0  0  0  0
   16.6664  -27.6282  -23.7557 C   0  0  0  0  0  0  0  0  0  0  0  0
   16.5663  -26.6336  -22.8150 C   0  0  0  0  0  0  0  0  0  0  0  0
   15.3645  -26.0159  -22.5810 C   0  0  0  0  0  0  0  0  0  0  0  0
   15.2809  -24.9766  -21.5909 C   0  0  0  0  0  0  0  0  0  0  0  0
   15.0400  -23.6381  -21.8041 C   0  0  0  0  0  0  0  0  0  0  0  0
   14.8136  -22.9573  -23.0924 C   0  0  0  0  0  0  0  0  0  0  0  0
   15.0210  -23.5166  -24.1839 O   0  0  0  0  0  0  0  0  0  0  0  0
   14.3429  -21.6176  -23.1171 N   0  0  0  0  0  0  0  0  0  0  0  0
   14.0072  -20.9148  -24.3144 C   0  0  0  0  0  0  0  0  0  0  0  0
   12.5208  -20.8162  -24.5533 C   0  0  0  0  0  0  0  0  0  0  0  0
   15.0500  -23.0615  -20.5928 N   0  0  0  0  0  0  0  0  0  0  0  0
   15.2792  -23.9603  -19.6758 O   0  0  0  0  0  0  0  0  0  0  0  0
   15.4277  -25.1449  -20.2283 C   0  0  0  0  0  0  0  0  0  0  0  0
   15.6965  -26.3626  -19.4695 C   0  0  0  0  0  0  0  0  0  0  0  0
   14.8543  -27.4678  -19.6036 C   0  0  0  0  0  0  0  0  0  0  0  0
   15.0634  -28.6362  -18.9115 C   0  0  0  0  0  0  0  0  0  0  0  0
   14.1848  -29.8246  -19.0366 C   0  0  1  0  0  0  0  0  0  0  0  0
   13.0431  -29.8058  -18.0329 C   0  0  0  0  0  0  0  0  0  0  0  0
   13.6156  -30.0106  -20.4066 C   0  0  0  0  0  0  0  0  0  0  0  0
   16.1499  -28.6899  -18.0628 C   0  0  0  0  0  0  0  0  0  0  0  0
   16.3700  -29.8746  -17.3548 O   0  0  0  0  0  0  0  0  0  0  0  0
   16.9866  -27.5940  -17.9286 C   0  0  0  0  0  0  0  0  0  0  0  0
   16.7821  -26.4178  -18.6209 C   0  0  0  0  0  0  0  0  0  0  0  0
   17.6511  -25.3419  -18.4530 O   0  0  0  0  0  0  0  0  0  0  0  0
  1  2  1  0
  1  6  1  0
  2  3  1  0
  3  4  1  0
  4  5  1  0
  5  6  1  0
  6  7  1  6
  7  8  1  0
  8  9  2  0
  8 11  1  0
  9 10  1  0
 10 13  2  0
 11 12  2  0
 12 13  1  0
 13 14  1  0
 14 15  1  0
 14 23  2  0
 15 16  1  0
 15 21  2  0
 16 17  2  0
 16 18  1  0
 18 19  1  0
 19 20  1  0
 21 22  1  0
 22 23  1  0
 23 24  1  0
 24 25  2  0
 24 33  1  0
 25 26  1  0
 26 27  1  0
 26 30  2  0
 27 28  1  1
 27 29  1  0
 30 31  1  0
 30 32  1  0
 32 33  2  0
 33 34  1  0
M  CHG  1   6   1
M  END
$$$$
