
     RDKit          3D

 34 37  0  0  0  0  0  0  0  0999 V2000
   15.0901  -29.7291  -27.6912 C   0  0  0  0  0  0  0  0  0  0  0  0
   15.4399  -29.4262  -29.1048 C   0  0  0  0  0  0  0  0  0  0  0  0
   16.3576  -28.3948  -29.2583 O   0  0  0  0  0  0  0  0  0  0  0  0
   17.0800  -28.2717  -28.0838 C   0  0  0  0  0  0  0  0  0  0  0  0
   16.1429  -27.6677  -27.0512 C   0  0  0  0  0  0  0  0  0  0  0  0
   15.0606  -28.5811  -26.8216 N   0  0  2  0  0  4  0  0  0  0  0  0
   15.1522  -29.0661  -25.4534 C   0  0  0  0  0  0  0  0  0  0  0  0
   15.2586  -27.9832  -24.4630 C   0  0  0  0  0  0  0  0  0  0  0  0
   16.4623  -27.6293  -23.8558 C   0  0  0  0  0  0  0  0  0  0  0  0
   16.5055  -26.6056  -22.9329 C   0  0  0  0  0  0  0  0  0  0  0  0
   14.1344  -27.2738  -24.1034 C   0  0  0  0  0  0  0  0  0  0  0  0
   14.1837  -26.2557  -23.1840 C   0  0  0  0  0  0  0  0  0  0  0  0
   15.3709  -25.9120  -22.5898 C   0  0  0  0  0  0  0  0  0  0  0  0
   15.4011  -24.8422  -21.6294 C   0  0  0  0  0  0  0  0  0  0  0  0
   15.2149  -23.4996  -21.8694 C   0  0  0  0  0  0  0  0  0  0  0  0
   14.9432  -22.8445  -23.1623 C   0  0  0  0  0  0  0  0  0  0  0  0
   15.2807  -23.3514  -24.2468 O   0  0  0  0  0  0  0  0  0  0  0  0
   14.2751  -21.5918  -23.1996 N   0  0  0  0  0  0  0  0  0  0  0  0
   14.1200  -20.8085  -24.3839 C   0  0  0  0  0  0  0  0  0  0  0  0
   12.6820  -20.6506  -24.8124 C   0  0  0  0  0  0  0  0  0  0  0  0
   15.3290  -22.8905  -20.6795 N   0  0  0  0  0  0  0  0  0  0  0  0
   15.5695  -23.7737  -19.7505 O   0  0  0  0  0  0  0  0  0  0  0  0
   15.6238  -24.9795  -20.2736 C   0  0  0  0  0  0  0  0  0  0  0  0
   15.8778  -26.1877  -19.4948 C   0  0  0  0  0  0  0  0  0  0  0  0
   15.0008  -27.2703  -19.5815 C   0  0  0  0  0  0  0  0  0  0  0  0
   15.1949  -28.4290  -18.8689 C   0  0  0  0  0  0  0  0  0  0  0  0
   14.2792  -29.5935  -18.9437 C   0  0  1  0  0  0  0  0  0  0  0  0
   13.1720  -29.5241  -17.9043 C   0  0  0  0  0  0  0  0  0  0  0  0
   13.6605  -29.7869  -20.2910 C   0  0  0  0  0  0  0  0  0  0  0  0
   16.3020  -28.4960  -18.0482 C   0  0  0  0  0  0  0  0  0  0  0  0
   16.5070  -29.6709  -17.3196 O   0  0  0  0  0  0  0  0  0  0  0  0
   17.1732  -27.4225  -17.9611 C   0  0  0  0  0  0  0  0  0  0  0  0
   16.9840  -26.2562  -18.6742 C   0  0  0  0  0  0  0  0  0  0  0  0
   17.8880  -25.2030  -18.5538 O   0  0  0  0  0  0  0  0  0  0  0  0
  1  2  1  0
  1  6  1  0
  2  3  1  0
  3  4  1  0
  4  5  1  0
  5  6  1  0
  6  7  1  1
  7  8  1  0
  8  9  2  0
  8 11  1  0
  9 10  1  0
 10 13  2  0
 11 12  2  0
 12 13  1  0
 13 14  1  0
 14 15  1  0
 14 23  2  0
 15 16  1  0
 15 21  2  0
 16 17  2  0
 16 18  1  0
 18 19  1  0
 19 20  1  0
 21 22  1  0
 22 23  1  0
 23 24  1  0
 24 25  2  0
 24 33  1  0
 25 26  1  0
 26 27  1  0
 26 30  2  0
 27 28  1  1
 27 29  1  0
 30 31  1  0
 30 32  1  0
 32 33  2  0
 33 34  1  0
M  CHG  1   6   1
M  END
$$$$
