
     RDKit          3D

 34 37  0  0  0  0  0  0  0  0999 V2000
   14.9385  -29.2883  -27.5252 C   0  0  0  0  0  0  0  0  0  0  0  0
   15.3335  -29.2393  -28.9584 C   0  0  0  0  0  0  0  0  0  0  0  0
   16.7038  -29.1593  -29.1713 O   0  0  0  0  0  0  0  0  0  0  0  0
   17.3515  -29.6571  -28.0537 C   0  0  0  0  0  0  0  0  0  0  0  0
   17.1747  -28.6300  -26.9477 C   0  0  0  0  0  0  0  0  0  0  0  0
   15.7769  -28.5150  -26.6454 N   0  0  2  0  0  4  0  0  0  0  0  0
   15.5587  -29.0026  -25.2925 C   0  0  0  0  0  0  0  0  0  0  0  0
   15.5890  -27.9338  -24.2819 C   0  0  0  0  0  0  0  0  0  0  0  0
   16.7589  -27.5354  -23.6374 C   0  0  0  0  0  0  0  0  0  0  0  0
   16.7306  -26.5273  -22.6967 C   0  0  0  0  0  0  0  0  0  0  0  0
   14.4240  -27.2838  -23.9401 C   0  0  0  0  0  0  0  0  0  0  0  0
   14.4021  -26.2811  -23.0029 C   0  0  0  0  0  0  0  0  0  0  0  0
   15.5564  -25.8933  -22.3721 C   0  0  0  0  0  0  0  0  0  0  0  0
   15.5121  -24.8406  -21.3936 C   0  0  0  0  0  0  0  0  0  0  0  0
   15.2349  -23.5100  -21.6113 C   0  0  0  0  0  0  0  0  0  0  0  0
   14.9211  -22.8528  -22.8935 C   0  0  0  0  0  0  0  0  0  0  0  0
   15.2526  -23.3416  -23.9882 O   0  0  0  0  0  0  0  0  0  0  0  0
   14.2173  -21.6194  -22.9084 N   0  0  0  0  0  0  0  0  0  0  0  0
   13.9133  -20.8918  -24.0994 C   0  0  0  0  0  0  0  0  0  0  0  0
   14.9513  -19.8535  -24.4473 C   0  0  0  0  0  0  0  0  0  0  0  0
   15.3054  -22.9149  -20.4109 N   0  0  0  0  0  0  0  0  0  0  0  0
   15.6042  -23.7955  -19.4963 O   0  0  0  0  0  0  0  0  0  0  0  0
   15.7415  -24.9856  -20.0397 C   0  0  0  0  0  0  0  0  0  0  0  0
   16.0763  -26.1869  -19.2809 C   0  0  0  0  0  0  0  0  0  0  0  0
   15.2814  -27.3285  -19.3963 C   0  0  0  0  0  0  0  0  0  0  0  0
   15.5534  -28.4834  -18.7033 C   0  0  0  0  0  0  0  0  0  0  0  0
   14.7258  -29.7098  -18.8088 C   0  0  1  0  0  0  0  0  0  0  0  0
   13.6133  -29.7456  -17.7732 C   0  0  0  0  0  0  0  0  0  0  0  0
   14.1269  -29.9171  -20.1630 C   0  0  0  0  0  0  0  0  0  0  0  0
   16.6553  -28.4854  -17.8731 C   0  0  0  0  0  0  0  0  0  0  0  0
   16.9392  -29.6561  -17.1643 O   0  0  0  0  0  0  0  0  0  0  0  0
   17.4451  -27.3532  -17.7574 C   0  0  0  0  0  0  0  0  0  0  0  0
   17.1774  -26.1903  -18.4507 C   0  0  0  0  0  0  0  0  0  0  0  0
   18.0011  -25.0766  -18.3019 O   0  0  0  0  0  0  0  0  0  0  0  0
  1  2  1  0
  1  6  1  0
  2  3  1  0
  3  4  1  0
  4  5  1  0
  5  6  1  0
  6  7  1  1
  7  8  1  0
  8  9  2  0
  8 11  1  0
  9 10  1  0
 10 13  2  0
 11 12  2  0
 12 13  1  0
 13 14  1  0
 14 15  1  0
 14 23  2  0
 15 16  1  0
 15 21  2  0
 16 17  2  0
 16 18  1  0
 18 19  1  0
 19 20  1  0
 21 22  1  0
 22 23  1  0
 23 24  1  0
 24 25  2  0
 24 33  1  0
 25 26  1  0
 26 27  1  0
 26 30  2  0
 27 28  1  1
 27 29  1  0
 30 31  1  0
 30 32  1  0
 32 33  2  0
 33 34  1  0
M  CHG  1   6   1
M  END
$$$$
