
     RDKit          3D

 34 37  0  0  0  0  0  0  0  0999 V2000
   12.3864  -30.1500  -26.3486 C   0  0  0  0  0  0  0  0  0  0  0  0
   13.0183  -31.2565  -27.1160 C   0  0  0  0  0  0  0  0  0  0  0  0
   13.8320  -32.0873  -26.3563 O   0  0  0  0  0  0  0  0  0  0  0  0
   13.4435  -31.9897  -25.0311 C   0  0  0  0  0  0  0  0  0  0  0  0
   13.8930  -30.6238  -24.5395 C   0  0  0  0  0  0  0  0  0  0  0  0
   13.2008  -29.6144  -25.2881 N   0  0  2  0  0  4  0  0  0  0  0  0
   12.3205  -28.8940  -24.3816 C   0  0  0  0  0  0  0  0  0  0  0  0
   13.0069  -27.8265  -23.6372 C   0  0  0  0  0  0  0  0  0  0  0  0
   13.9032  -26.9429  -24.2361 C   0  0  0  0  0  0  0  0  0  0  0  0
   14.5198  -25.9600  -23.4908 C   0  0  0  0  0  0  0  0  0  0  0  0
   12.7708  -27.6735  -22.2891 C   0  0  0  0  0  0  0  0  0  0  0  0
   13.3876  -26.6931  -21.5525 C   0  0  0  0  0  0  0  0  0  0  0  0
   14.2686  -25.8266  -22.1472 C   0  0  0  0  0  0  0  0  0  0  0  0
   14.9039  -24.8063  -21.3579 C   0  0  0  0  0  0  0  0  0  0  0  0
   14.9975  -23.4639  -21.6478 C   0  0  0  0  0  0  0  0  0  0  0  0
   14.4720  -22.7589  -22.8316 C   0  0  0  0  0  0  0  0  0  0  0  0
   13.6905  -23.3003  -23.6336 O   0  0  0  0  0  0  0  0  0  0  0  0
   14.8548  -21.4157  -23.0889 N   0  0  0  0  0  0  0  0  0  0  0  0
   14.3006  -20.6177  -24.1360 C   0  0  0  0  0  0  0  0  0  0  0  0
   13.2464  -19.6505  -23.6568 C   0  0  0  0  0  0  0  0  0  0  0  0
   15.6698  -22.9098  -20.6276 N   0  0  0  0  0  0  0  0  0  0  0  0
   15.9822  -23.8255  -19.7530 O   0  0  0  0  0  0  0  0  0  0  0  0
   15.5400  -24.9999  -20.1476 C   0  0  0  0  0  0  0  0  0  0  0  0
   15.7290  -26.2318  -19.3877 C   0  0  0  0  0  0  0  0  0  0  0  0
   15.3504  -27.4567  -19.9399 C   0  0  0  0  0  0  0  0  0  0  0  0
   15.5067  -28.6437  -19.2657 C   0  0  0  0  0  0  0  0  0  0  0  0
   15.1138  -29.9579  -19.8299 C   0  0  1  0  0  0  0  0  0  0  0  0
   13.8026  -29.8878  -20.5960 C   0  0  0  0  0  0  0  0  0  0  0  0
   16.1535  -30.5683  -20.7141 C   0  0  0  0  0  0  0  0  0  0  0  0
   16.0588  -28.5925  -18.0023 C   0  0  0  0  0  0  0  0  0  0  0  0
   16.2213  -29.7952  -17.3093 O   0  0  0  0  0  0  0  0  0  0  0  0
   16.4350  -27.3777  -17.4529 C   0  0  0  0  0  0  0  0  0  0  0  0
   16.2808  -26.1822  -18.1249 C   0  0  0  0  0  0  0  0  0  0  0  0
   16.6743  -24.9849  -17.5309 O   0  0  0  0  0  0  0  0  0  0  0  0
  1  2  1  0
  1  6  1  0
  2  3  1  0
  3  4  1  0
  4  5  1  0
  5  6  1  0
  6  7  1  1
  7  8  1  0
  8  9  2  0
  8 11  1  0
  9 10  1  0
 10 13  2  0
 11 12  2  0
 12 13  1  0
 13 14  1  0
 14 15  1  0
 14 23  2  0
 15 16  1  0
 15 21  2  0
 16 17  2  0
 16 18  1  0
 18 19  1  0
 19 20  1  0
 21 22  1  0
 22 23  1  0
 23 24  1  0
 24 25  2  0
 24 33  1  0
 25 26  1  0
 26 27  1  0
 26 30  2  0
 27 28  1  6
 27 29  1  0
 30 31  1  0
 30 32  1  0
 32 33  2  0
 33 34  1  0
M  CHG  1   6   1
M  END
$$$$
