
     RDKit          3D

 34 37  0  0  0  0  0  0  0  0999 V2000
   14.2264  -30.3014  -25.6612 C   0  0  0  0  0  0  0  0  0  0  0  0
   13.5916  -31.4529  -24.9658 C   0  0  0  0  0  0  0  0  0  0  0  0
   13.8948  -31.5416  -23.6131 O   0  0  0  0  0  0  0  0  0  0  0  0
   14.2693  -30.2868  -23.1641 C   0  0  0  0  0  0  0  0  0  0  0  0
   15.6440  -30.0026  -23.7459 C   0  0  0  0  0  0  0  0  0  0  0  0
   15.5382  -29.9571  -25.1760 N   0  0  2  0  0  4  0  0  0  0  0  0
   15.8244  -28.5999  -25.6141 C   0  0  0  0  0  0  0  0  0  0  0  0
   15.7188  -27.6095  -24.5312 C   0  0  0  0  0  0  0  0  0  0  0  0
   16.7748  -27.3144  -23.6706 C   0  0  0  0  0  0  0  0  0  0  0  0
   16.6213  -26.3768  -22.6711 C   0  0  0  0  0  0  0  0  0  0  0  0
   14.5356  -26.9317  -24.3386 C   0  0  0  0  0  0  0  0  0  0  0  0
   14.3888  -25.9994  -23.3418 C   0  0  0  0  0  0  0  0  0  0  0  0
   15.4314  -25.7132  -22.4982 C   0  0  0  0  0  0  0  0  0  0  0  0
   15.2571  -24.7330  -21.4606 C   0  0  0  0  0  0  0  0  0  0  0  0
   15.0271  -23.3848  -21.6162 C   0  0  0  0  0  0  0  0  0  0  0  0
   14.9070  -22.6308  -22.8777 C   0  0  0  0  0  0  0  0  0  0  0  0
   15.1990  -23.1295  -23.9791 O   0  0  0  0  0  0  0  0  0  0  0  0
   14.4450  -21.2879  -22.8638 N   0  0  0  0  0  0  0  0  0  0  0  0
   14.0948  -20.5554  -24.0390 C   0  0  0  0  0  0  0  0  0  0  0  0
   12.6602  -20.7537  -24.4620 C   0  0  0  0  0  0  0  0  0  0  0  0
   14.9301  -22.8794  -20.3772 N   0  0  0  0  0  0  0  0  0  0  0  0
   15.0859  -23.8294  -19.4973 O   0  0  0  0  0  0  0  0  0  0  0  0
   15.2883  -24.9798  -20.1024 C   0  0  0  0  0  0  0  0  0  0  0  0
   15.4990  -26.2391  -19.3949 C   0  0  0  0  0  0  0  0  0  0  0  0
   14.6604  -27.3271  -19.6432 C   0  0  0  0  0  0  0  0  0  0  0  0
   14.8163  -28.5330  -19.0033 C   0  0  0  0  0  0  0  0  0  0  0  0
   13.9401  -29.7042  -19.2495 C   0  0  1  0  0  0  0  0  0  0  0  0
   14.7344  -30.9692  -19.5324 C   0  0  0  0  0  0  0  0  0  0  0  0
   12.9784  -29.9805  -18.1386 C   0  0  0  0  0  0  0  0  0  0  0  0
   15.8444  -28.6430  -18.0898 C   0  0  0  0  0  0  0  0  0  0  0  0
   16.0101  -29.8661  -17.4342 O   0  0  0  0  0  0  0  0  0  0  0  0
   16.6775  -27.5642  -17.8423 C   0  0  0  0  0  0  0  0  0  0  0  0
   16.5263  -26.3505  -18.4816 C   0  0  0  0  0  0  0  0  0  0  0  0
   17.3894  -25.2939  -18.1995 O   0  0  0  0  0  0  0  0  0  0  0  0
  1  2  1  0
  1  6  1  0
  2  3  1  0
  3  4  1  0
  4  5  1  0
  5  6  1  0
  6  7  1  1
  7  8  1  0
  8  9  2  0
  8 11  1  0
  9 10  1  0
 10 13  2  0
 11 12  2  0
 12 13  1  0
 13 14  1  0
 14 15  1  0
 14 23  2  0
 15 16  1  0
 15 21  2  0
 16 17  2  0
 16 18  1  0
 18 19  1  0
 19 20  1  0
 21 22  1  0
 22 23  1  0
 23 24  1  0
 24 25  2  0
 24 33  1  0
 25 26  1  0
 26 27  1  0
 26 30  2  0
 27 28  1  1
 27 29  1  0
 30 31  1  0
 30 32  1  0
 32 33  2  0
 33 34  1  0
M  CHG  1   6   1
M  END
$$$$
