
     RDKit          3D

 34 37  0  0  0  0  0  0  0  0999 V2000
   16.3773  -27.3542  -26.9324 C   0  0  0  0  0  0  0  0  0  0  0  0
   16.5186  -26.6789  -28.2502 C   0  0  0  0  0  0  0  0  0  0  0  0
   15.6635  -27.1597  -29.2336 O   0  0  0  0  0  0  0  0  0  0  0  0
   14.5784  -27.7588  -28.6170 C   0  0  0  0  0  0  0  0  0  0  0  0
   15.0781  -29.0606  -28.0130 C   0  0  0  0  0  0  0  0  0  0  0  0
   16.0565  -28.7564  -27.0086 N   0  0  2  0  0  4  0  0  0  0  0  0
   15.5245  -29.1545  -25.7147 C   0  0  0  0  0  0  0  0  0  0  0  0
   15.4782  -28.0491  -24.7448 C   0  0  0  0  0  0  0  0  0  0  0  0
   14.3677  -27.2199  -24.5958 C   0  0  0  0  0  0  0  0  0  0  0  0
   14.3778  -26.1973  -23.6707 C   0  0  0  0  0  0  0  0  0  0  0  0
   16.5666  -27.8024  -23.9381 C   0  0  0  0  0  0  0  0  0  0  0  0
   16.5707  -26.7828  -23.0190 C   0  0  0  0  0  0  0  0  0  0  0  0
   15.4752  -25.9702  -22.8768 C   0  0  0  0  0  0  0  0  0  0  0  0
   15.4997  -24.9079  -21.9080 C   0  0  0  0  0  0  0  0  0  0  0  0
   15.3826  -23.5574  -22.1470 C   0  0  0  0  0  0  0  0  0  0  0  0
   15.2068  -22.8843  -23.4472 C   0  0  0  0  0  0  0  0  0  0  0  0
   15.4785  -23.4421  -24.5252 O   0  0  0  0  0  0  0  0  0  0  0  0
   14.7121  -21.5540  -23.4996 N   0  0  0  0  0  0  0  0  0  0  0  0
   14.4150  -20.8635  -24.7142 C   0  0  0  0  0  0  0  0  0  0  0  0
   12.9361  -20.7448  -24.9882 C   0  0  0  0  0  0  0  0  0  0  0  0
   15.4594  -22.9601  -20.9481 N   0  0  0  0  0  0  0  0  0  0  0  0
   15.6136  -23.8578  -20.0146 O   0  0  0  0  0  0  0  0  0  0  0  0
   15.6449  -25.0620  -20.5435 C   0  0  0  0  0  0  0  0  0  0  0  0
   15.8069  -26.2841  -19.7618 C   0  0  0  0  0  0  0  0  0  0  0  0
   14.9055  -27.3380  -19.9206 C   0  0  0  0  0  0  0  0  0  0  0  0
   15.0139  -28.5081  -19.2086 C   0  0  0  0  0  0  0  0  0  0  0  0
   14.0705  -29.6428  -19.3593 C   0  0  1  0  0  0  0  0  0  0  0  0
   12.8945  -29.5461  -18.4007 C   0  0  0  0  0  0  0  0  0  0  0  0
   13.5440  -29.8072  -20.7489 C   0  0  0  0  0  0  0  0  0  0  0  0
   16.0585  -28.6167  -18.3139 C   0  0  0  0  0  0  0  0  0  0  0  0
   16.1762  -29.8035  -17.5853 O   0  0  0  0  0  0  0  0  0  0  0  0
   16.9539  -27.5717  -18.1551 C   0  0  0  0  0  0  0  0  0  0  0  0
   16.8506  -26.3940  -18.8671 C   0  0  0  0  0  0  0  0  0  0  0  0
   17.7757  -25.3706  -18.6731 O   0  0  0  0  0  0  0  0  0  0  0  0
  1  2  1  0
  1  6  1  0
  2  3  1  0
  3  4  1  0
  4  5  1  0
  5  6  1  0
  6  7  1  1
  7  8  1  0
  8  9  2  0
  8 11  1  0
  9 10  1  0
 10 13  2  0
 11 12  2  0
 12 13  1  0
 13 14  1  0
 14 15  1  0
 14 23  2  0
 15 16  1  0
 15 21  2  0
 16 17  2  0
 16 18  1  0
 18 19  1  0
 19 20  1  0
 21 22  1  0
 22 23  1  0
 23 24  1  0
 24 25  2  0
 24 33  1  0
 25 26  1  0
 26 27  1  0
 26 30  2  0
 27 28  1  1
 27 29  1  0
 30 31  1  0
 30 32  1  0
 32 33  2  0
 33 34  1  0
M  CHG  1   6   1
M  END
$$$$
