
     RDKit          3D

 34 37  0  0  0  0  0  0  0  0999 V2000
   15.8442  -29.6860  -27.4870 C   0  0  0  0  0  0  0  0  0  0  0  0
   16.1099  -29.1975  -28.8666 C   0  0  0  0  0  0  0  0  0  0  0  0
   16.4840  -27.8616  -28.9379 O   0  0  0  0  0  0  0  0  0  0  0  0
   17.0037  -27.4853  -27.7112 C   0  0  0  0  0  0  0  0  0  0  0  0
   15.8347  -27.4024  -26.7439 C   0  0  0  0  0  0  0  0  0  0  0  0
   15.2564  -28.7084  -26.6075 N   0  0  2  0  0  4  0  0  0  0  0  0
   15.4691  -29.1638  -25.2425 C   0  0  0  0  0  0  0  0  0  0  0  0
   15.3742  -28.0806  -24.2513 C   0  0  0  0  0  0  0  0  0  0  0  0
   14.1698  -27.4620  -23.9202 C   0  0  0  0  0  0  0  0  0  0  0  0
   14.1376  -26.4504  -22.9835 C   0  0  0  0  0  0  0  0  0  0  0  0
   16.5104  -27.6408  -23.6095 C   0  0  0  0  0  0  0  0  0  0  0  0
   16.4721  -26.6333  -22.6780 C   0  0  0  0  0  0  0  0  0  0  0  0
   15.2841  -26.0283  -22.3562 C   0  0  0  0  0  0  0  0  0  0  0  0
   15.2655  -24.9751  -21.3775 C   0  0  0  0  0  0  0  0  0  0  0  0
   15.0294  -23.6367  -21.5961 C   0  0  0  0  0  0  0  0  0  0  0  0
   14.7427  -22.9701  -22.8798 C   0  0  0  0  0  0  0  0  0  0  0  0
   14.9615  -23.5175  -23.9750 O   0  0  0  0  0  0  0  0  0  0  0  0
   14.1980  -21.6586  -22.8955 N   0  0  0  0  0  0  0  0  0  0  0  0
   13.7359  -21.0037  -24.0778 C   0  0  0  0  0  0  0  0  0  0  0  0
   12.2410  -21.0893  -24.2635 C   0  0  0  0  0  0  0  0  0  0  0  0
   15.1106  -23.0444  -20.3950 N   0  0  0  0  0  0  0  0  0  0  0  0
   15.3777  -23.9337  -19.4792 O   0  0  0  0  0  0  0  0  0  0  0  0
   15.4827  -25.1272  -20.0224 C   0  0  0  0  0  0  0  0  0  0  0  0
   15.7771  -26.3381  -19.2622 C   0  0  0  0  0  0  0  0  0  0  0  0
   14.9738  -27.4695  -19.4144 C   0  0  0  0  0  0  0  0  0  0  0  0
   15.2083  -28.6329  -18.7218 C   0  0  0  0  0  0  0  0  0  0  0  0
   14.3710  -29.8487  -18.8660 C   0  0  1  0  0  0  0  0  0  0  0  0
   13.2318  -29.8868  -17.8600 C   0  0  0  0  0  0  0  0  0  0  0  0
   13.8052  -30.0306  -20.2380 C   0  0  0  0  0  0  0  0  0  0  0  0
   16.2805  -28.6542  -17.8539 C   0  0  0  0  0  0  0  0  0  0  0  0
   16.5262  -29.8335  -17.1452 O   0  0  0  0  0  0  0  0  0  0  0  0
   17.0787  -27.5322  -17.7017 C   0  0  0  0  0  0  0  0  0  0  0  0
   16.8486  -26.3609  -18.3943 C   0  0  0  0  0  0  0  0  0  0  0  0
   17.6792  -25.2581  -18.2079 O   0  0  0  0  0  0  0  0  0  0  0  0
  1  2  1  0
  1  6  1  0
  2  3  1  0
  3  4  1  0
  4  5  1  0
  5  6  1  0
  6  7  1  1
  7  8  1  0
  8  9  2  0
  8 11  1  0
  9 10  1  0
 10 13  2  0
 11 12  2  0
 12 13  1  0
 13 14  1  0
 14 15  1  0
 14 23  2  0
 15 16  1  0
 15 21  2  0
 16 17  2  0
 16 18  1  0
 18 19  1  0
 19 20  1  0
 21 22  1  0
 22 23  1  0
 23 24  1  0
 24 25  2  0
 24 33  1  0
 25 26  1  0
 26 27  1  0
 26 30  2  0
 27 28  1  1
 27 29  1  0
 30 31  1  0
 30 32  1  0
 32 33  2  0
 33 34  1  0
M  CHG  1   6   1
M  END
$$$$
