
     RDKit          3D

 34 37  0  0  0  0  0  0  0  0999 V2000
   14.0217  -27.5163  -26.8996 C   0  0  0  0  0  0  0  0  0  0  0  0
   13.7288  -27.1809  -28.3189 C   0  0  0  0  0  0  0  0  0  0  0  0
   13.6146  -28.2841  -29.1552 O   0  0  0  0  0  0  0  0  0  0  0  0
   13.2929  -29.3879  -28.3840 C   0  0  0  0  0  0  0  0  0  0  0  0
   14.5403  -29.7549  -27.5976 C   0  0  0  0  0  0  0  0  0  0  0  0
   14.8658  -28.6692  -26.7178 N   0  0  2  0  0  4  0  0  0  0  0  0
   14.6964  -29.1237  -25.3465 C   0  0  0  0  0  0  0  0  0  0  0  0
   14.7715  -28.0318  -24.3632 C   0  0  0  0  0  0  0  0  0  0  0  0
   13.6494  -27.5223  -23.7119 C   0  0  0  0  0  0  0  0  0  0  0  0
   13.7765  -26.4969  -22.7985 C   0  0  0  0  0  0  0  0  0  0  0  0
   15.9915  -27.4718  -24.0562 C   0  0  0  0  0  0  0  0  0  0  0  0
   16.1117  -26.4513  -23.1461 C   0  0  0  0  0  0  0  0  0  0  0  0
   15.0041  -25.9540  -22.5083 C   0  0  0  0  0  0  0  0  0  0  0  0
   15.1516  -24.8850  -21.5581 C   0  0  0  0  0  0  0  0  0  0  0  0
   15.0029  -23.5362  -21.7895 C   0  0  0  0  0  0  0  0  0  0  0  0
   14.6604  -22.8724  -23.0610 C   0  0  0  0  0  0  0  0  0  0  0  0
   14.5615  -23.4989  -24.1309 O   0  0  0  0  0  0  0  0  0  0  0  0
   14.4303  -21.4713  -23.0937 N   0  0  0  0  0  0  0  0  0  0  0  0
   14.0351  -20.7577  -24.2662 C   0  0  0  0  0  0  0  0  0  0  0  0
   15.0269  -20.8702  -25.3975 C   0  0  0  0  0  0  0  0  0  0  0  0
   15.2326  -22.9304  -20.6147 N   0  0  0  0  0  0  0  0  0  0  0  0
   15.5068  -23.8214  -19.7025 O   0  0  0  0  0  0  0  0  0  0  0  0
   15.4714  -25.0292  -20.2226 C   0  0  0  0  0  0  0  0  0  0  0  0
   15.7343  -26.2457  -19.4598 C   0  0  0  0  0  0  0  0  0  0  0  0
   14.9563  -27.3848  -19.6739 C   0  0  0  0  0  0  0  0  0  0  0  0
   15.1629  -28.5536  -18.9817 C   0  0  0  0  0  0  0  0  0  0  0  0
   14.3515  -29.7775  -19.1908 C   0  0  1  0  0  0  0  0  0  0  0  0
   12.9615  -29.6580  -18.5869 C   0  0  0  0  0  0  0  0  0  0  0  0
   14.2181  -30.1731  -20.6264 C   0  0  0  0  0  0  0  0  0  0  0  0
   16.1803  -28.5726  -18.0500 C   0  0  0  0  0  0  0  0  0  0  0  0
   16.3974  -29.7575  -17.3412 O   0  0  0  0  0  0  0  0  0  0  0  0
   16.9533  -27.4431  -17.8364 C   0  0  0  0  0  0  0  0  0  0  0  0
   16.7510  -26.2662  -18.5283 C   0  0  0  0  0  0  0  0  0  0  0  0
   17.5545  -25.1558  -18.2788 O   0  0  0  0  0  0  0  0  0  0  0  0
  1  2  1  0
  1  6  1  0
  2  3  1  0
  3  4  1  0
  4  5  1  0
  5  6  1  0
  6  7  1  1
  7  8  1  0
  8  9  2  0
  8 11  1  0
  9 10  1  0
 10 13  2  0
 11 12  2  0
 12 13  1  0
 13 14  1  0
 14 15  1  0
 14 23  2  0
 15 16  1  0
 15 21  2  0
 16 17  2  0
 16 18  1  0
 18 19  1  0
 19 20  1  0
 21 22  1  0
 22 23  1  0
 23 24  1  0
 24 25  2  0
 24 33  1  0
 25 26  1  0
 26 27  1  0
 26 30  2  0
 27 28  1  6
 27 29  1  0
 30 31  1  0
 30 32  1  0
 32 33  2  0
 33 34  1  0
M  CHG  1   6   1
M  END
$$$$
