
     RDKit          3D

 34 37  0  0  0  0  0  0  0  0999 V2000
   16.3825  -28.8972  -27.2554 C   0  0  0  0  0  0  0  0  0  0  0  0
   17.3729  -29.5337  -28.1646 C   0  0  0  0  0  0  0  0  0  0  0  0
   17.4298  -30.9183  -28.0686 O   0  0  0  0  0  0  0  0  0  0  0  0
   16.2281  -31.3722  -27.5526 C   0  0  0  0  0  0  0  0  0  0  0  0
   16.2053  -30.9857  -26.0831 C   0  0  0  0  0  0  0  0  0  0  0  0
   16.2275  -29.5546  -25.9831 N   0  0  2  0  0  4  0  0  0  0  0  0
   14.9628  -29.1150  -25.4147 C   0  0  0  0  0  0  0  0  0  0  0  0
   15.1217  -28.0653  -24.3960 C   0  0  0  0  0  0  0  0  0  0  0  0
   16.3236  -27.8347  -23.7290 C   0  0  0  0  0  0  0  0  0  0  0  0
   16.4174  -26.8369  -22.7818 C   0  0  0  0  0  0  0  0  0  0  0  0
   14.0511  -27.2631  -24.0693 C   0  0  0  0  0  0  0  0  0  0  0  0
   14.1506  -26.2714  -23.1254 C   0  0  0  0  0  0  0  0  0  0  0  0
   15.3358  -26.0491  -22.4724 C   0  0  0  0  0  0  0  0  0  0  0  0
   15.4191  -25.0050  -21.4873 C   0  0  0  0  0  0  0  0  0  0  0  0
   15.2704  -23.6517  -21.6907 C   0  0  0  0  0  0  0  0  0  0  0  0
   14.9934  -22.9565  -22.9613 C   0  0  0  0  0  0  0  0  0  0  0  0
   15.2303  -23.4751  -24.0667 O   0  0  0  0  0  0  0  0  0  0  0  0
   14.4373  -21.6497  -22.9518 N   0  0  0  0  0  0  0  0  0  0  0  0
   14.0633  -20.9363  -24.1314 C   0  0  0  0  0  0  0  0  0  0  0  0
   12.5762  -20.9402  -24.3864 C   0  0  0  0  0  0  0  0  0  0  0  0
   15.4277  -23.0762  -20.4890 N   0  0  0  0  0  0  0  0  0  0  0  0
   15.6590  -23.9893  -19.5869 O   0  0  0  0  0  0  0  0  0  0  0  0
   15.6647  -25.1828  -20.1401 C   0  0  0  0  0  0  0  0  0  0  0  0
   15.8963  -26.4173  -19.3964 C   0  0  0  0  0  0  0  0  0  0  0  0
   15.0063  -27.4852  -19.5234 C   0  0  0  0  0  0  0  0  0  0  0  0
   15.1791  -28.6674  -18.8448 C   0  0  0  0  0  0  0  0  0  0  0  0
   14.2493  -29.8170  -18.9628 C   0  0  1  0  0  0  0  0  0  0  0  0
   13.1227  -29.7543  -17.9440 C   0  0  0  0  0  0  0  0  0  0  0  0
   13.6549  -29.9727  -20.3258 C   0  0  0  0  0  0  0  0  0  0  0  0
   16.2779  -28.7738  -18.0172 C   0  0  0  0  0  0  0  0  0  0  0  0
   16.4613  -29.9728  -17.3230 O   0  0  0  0  0  0  0  0  0  0  0  0
   17.1620  -27.7149  -17.8900 C   0  0  0  0  0  0  0  0  0  0  0  0
   16.9941  -26.5251  -18.5689 C   0  0  0  0  0  0  0  0  0  0  0  0
   17.9104  -25.4880  -18.4088 O   0  0  0  0  0  0  0  0  0  0  0  0
  1  2  1  0
  1  6  1  0
  2  3  1  0
  3  4  1  0
  4  5  1  0
  5  6  1  0
  6  7  1  6
  7  8  1  0
  8  9  2  0
  8 11  1  0
  9 10  1  0
 10 13  2  0
 11 12  2  0
 12 13  1  0
 13 14  1  0
 14 15  1  0
 14 23  2  0
 15 16  1  0
 15 21  2  0
 16 17  2  0
 16 18  1  0
 18 19  1  0
 19 20  1  0
 21 22  1  0
 22 23  1  0
 23 24  1  0
 24 25  2  0
 24 33  1  0
 25 26  1  0
 26 27  1  0
 26 30  2  0
 27 28  1  1
 27 29  1  0
 30 31  1  0
 30 32  1  0
 32 33  2  0
 33 34  1  0
M  CHG  1   6   1
M  END
$$$$
