
     RDKit          3D

 34 37  0  0  0  0  0  0  0  0999 V2000
   16.1995  -27.9549  -27.2704 C   0  0  0  0  0  0  0  0  0  0  0  0
   16.9847  -27.9470  -28.5337 C   0  0  0  0  0  0  0  0  0  0  0  0
   16.9848  -29.1578  -29.2144 O   0  0  0  0  0  0  0  0  0  0  0  0
   15.8673  -29.8782  -28.8287 C   0  0  0  0  0  0  0  0  0  0  0  0
   16.1171  -30.3512  -27.4063 C   0  0  0  0  0  0  0  0  0  0  0  0
   16.2308  -29.2035  -26.5528 N   0  0  2  0  0  4  0  0  0  0  0  0
   15.1071  -29.2058  -25.6292 C   0  0  0  0  0  0  0  0  0  0  0  0
   15.1848  -28.1351  -24.6231 C   0  0  0  0  0  0  0  0  0  0  0  0
   16.3820  -27.7440  -24.0260 C   0  0  0  0  0  0  0  0  0  0  0  0
   16.3980  -26.7338  -23.0873 C   0  0  0  0  0  0  0  0  0  0  0  0
   14.0389  -27.4759  -24.2374 C   0  0  0  0  0  0  0  0  0  0  0  0
   14.0611  -26.4711  -23.3024 C   0  0  0  0  0  0  0  0  0  0  0  0
   15.2420  -26.0906  -22.7183 C   0  0  0  0  0  0  0  0  0  0  0  0
   15.2438  -25.0355  -21.7413 C   0  0  0  0  0  0  0  0  0  0  0  0
   15.0303  -23.6936  -21.9616 C   0  0  0  0  0  0  0  0  0  0  0  0
   14.7522  -23.0243  -23.2458 C   0  0  0  0  0  0  0  0  0  0  0  0
   14.8311  -23.6196  -24.3350 O   0  0  0  0  0  0  0  0  0  0  0  0
   14.3797  -21.6540  -23.2689 N   0  0  0  0  0  0  0  0  0  0  0  0
   13.9083  -20.9778  -24.4355 C   0  0  0  0  0  0  0  0  0  0  0  0
   12.4776  -21.3091  -24.7816 C   0  0  0  0  0  0  0  0  0  0  0  0
   15.1244  -23.1009  -20.7617 N   0  0  0  0  0  0  0  0  0  0  0  0
   15.3782  -23.9932  -19.8450 O   0  0  0  0  0  0  0  0  0  0  0  0
   15.4614  -25.1892  -20.3864 C   0  0  0  0  0  0  0  0  0  0  0  0
   15.7366  -26.4038  -19.6249 C   0  0  0  0  0  0  0  0  0  0  0  0
   14.8511  -27.4811  -19.6866 C   0  0  0  0  0  0  0  0  0  0  0  0
   15.0643  -28.6454  -18.9888 C   0  0  0  0  0  0  0  0  0  0  0  0
   14.1401  -29.8045  -19.0378 C   0  0  1  0  0  0  0  0  0  0  0  0
   12.6996  -29.4055  -18.7605 C   0  0  0  0  0  0  0  0  0  0  0  0
   14.1887  -30.5588  -20.3277 C   0  0  0  0  0  0  0  0  0  0  0  0
   16.1999  -28.7236  -18.2091 C   0  0  0  0  0  0  0  0  0  0  0  0
   16.4245  -29.9043  -17.4957 O   0  0  0  0  0  0  0  0  0  0  0  0
   17.0797  -27.6554  -18.1468 C   0  0  0  0  0  0  0  0  0  0  0  0
   16.8713  -26.4835  -18.8453 C   0  0  0  0  0  0  0  0  0  0  0  0
   17.7849  -25.4359  -18.7510 O   0  0  0  0  0  0  0  0  0  0  0  0
  1  2  1  0
  1  6  1  0
  2  3  1  0
  3  4  1  0
  4  5  1  0
  5  6  1  0
  6  7  1  1
  7  8  1  0
  8  9  2  0
  8 11  1  0
  9 10  1  0
 10 13  2  0
 11 12  2  0
 12 13  1  0
 13 14  1  0
 14 15  1  0
 14 23  2  0
 15 16  1  0
 15 21  2  0
 16 17  2  0
 16 18  1  0
 18 19  1  0
 19 20  1  0
 21 22  1  0
 22 23  1  0
 23 24  1  0
 24 25  2  0
 24 33  1  0
 25 26  1  0
 26 27  1  0
 26 30  2  0
 27 28  1  6
 27 29  1  0
 30 31  1  0
 30 32  1  0
 32 33  2  0
 33 34  1  0
M  CHG  1   6   1
M  END
$$$$
