
     RDKit          3D

 96 98  0  0  0  0  0  0  0  0999 V2000
    5.0214   -3.0235   25.6894 N   0  0  0  0  0  4  0  0  0  0  0  0
    3.7167   -3.3289   26.1766 C   0  0  2  0  0  0  0  0  0  0  0  0
    2.8397   -3.7692   25.0189 C   0  0  0  0  0  0  0  0  0  0  0  0
    2.8585   -3.0271   23.9982 O   0  0  0  0  0  0  0  0  0  0  0  0
    3.0133   -2.1617   26.7745 C   0  0  0  0  0  0  0  0  0  0  0  0
    1.5652   -2.1667   26.9611 C   0  0  0  0  0  0  0  0  0  0  0  0
    0.8573   -1.1127   27.6414 C   0  0  0  0  0  0  0  0  0  0  0  0
    1.6385   -0.0967   28.2652 O   0  0  0  0  0  0  0  0  0  0  0  0
   -0.3678   -0.9616   27.7644 O   0  0  0  0  0  0  0  0  0  0  0  0
    2.0520   -4.9523   25.0988 N   0  0  0  0  0  0  0  0  0  0  0  0
    1.2752   -5.3364   23.9354 C   0  0  2  0  0  0  0  0  0  0  0  0
   -0.0906   -4.8187   23.9058 C   0  0  0  0  0  0  0  0  0  0  0  0
   -0.8030   -5.1066   22.8894 O   0  0  0  0  0  0  0  0  0  0  0  0
    1.2035   -6.8703   23.9349 C   0  0  2  0  0  0  0  0  0  0  0  0
    2.5244   -7.5479   23.9278 C   0  0  0  0  0  0  0  0  0  0  0  0
    0.4935   -7.2496   22.6281 C   0  0  0  0  0  0  0  0  0  0  0  0
    2.2344   -9.0284   24.2612 C   0  0  0  0  0  0  0  0  0  0  0  0
   -0.6298   -4.0227   24.9615 N   0  0  0  0  0  0  0  0  0  0  0  0
   -1.9773   -3.5524   24.8808 C   0  0  2  0  0  0  0  0  0  0  0  0
   -2.3208   -2.5345   25.9282 C   0  0  0  0  0  0  0  0  0  0  0  0
   -2.7545   -2.8962   27.0225 O   0  0  0  0  0  0  0  0  0  0  0  0
   -3.0349   -4.5866   24.7559 C   0  0  0  0  0  0  0  0  0  0  0  0
   -3.2308   -5.6150   25.7646 C   0  0  0  0  0  0  0  0  0  0  0  0
   -4.2513   -6.6598   25.6169 C   0  0  0  0  0  0  0  0  0  0  0  0
   -4.1925   -7.6577   26.6609 N   0  0  0  0  0  0  0  0  0  0  0  0
   -3.0905   -8.5427   26.7801 C   0  0  0  0  0  0  0  0  0  0  0  0
   -2.4563   -9.0909   25.6248 N   0  0  0  0  0  0  0  0  0  0  0  0
   -2.6117   -8.9021   27.9267 N   0  0  0  0  0  0  0  0  0  0  0  0
   -2.1540   -1.1447   25.6821 N   0  0  0  0  0  0  0  0  0  0  0  0
   -3.0023   -0.3331   24.8705 C   0  0  2  0  0  0  0  0  0  0  0  0
   -4.4064   -0.2464   25.2423 C   0  0  0  0  0  0  0  0  0  0  0  0
   -5.1809   -1.2751   25.0960 O   0  0  0  0  0  0  0  0  0  0  0  0
   -2.8480   -0.6118   23.3837 C   0  0  0  0  0  0  0  0  0  0  0  0
   -3.5424    0.4020   22.5529 C   0  0  0  0  0  0  0  0  0  0  0  0
   -3.4595    0.1900   21.0660 C   0  0  0  0  0  0  0  0  0  0  0  0
   -4.7043    0.7288   20.4885 N   0  0  0  0  0  0  0  0  0  0  0  0
   -5.8132   -0.1742   20.3081 C   0  0  0  0  0  0  0  0  0  0  0  0
   -6.7961   -0.3440   21.3061 N   0  0  0  0  0  0  0  0  0  0  0  0
   -5.8665   -0.8274   19.1756 N   0  0  0  0  0  0  0  0  0  0  0  0
   -5.0672    0.8857   25.7745 N   0  0  0  0  0  0  0  0  0  0  0  0
   -6.3689    0.7024   26.4714 C   0  0  2  0  0  0  0  0  0  0  0  0
   -6.8198    2.0489   26.8793 C   0  0  0  0  0  0  0  0  0  0  0  0
   -5.9897    2.8338   27.4921 O   0  0  0  0  0  0  0  0  0  0  0  0
   -5.9402   -0.1266   27.6970 C   0  0  1  0  0  0  0  0  0  0  0  0
   -7.0442   -0.1956   28.6911 C   0  0  0  0  0  0  0  0  0  0  0  0
   -5.3149   -1.4266   27.3725 C   0  0  0  0  0  0  0  0  0  0  0  0
   -8.0999    2.6036   26.6665 N   0  0  0  0  0  0  0  0  0  0  0  0
   -8.5098    3.9406   27.0360 C   0  0  2  0  0  0  0  0  0  0  0  0
   -8.8167    3.9384   28.5139 C   0  0  0  0  0  0  0  0  0  0  0  0
   -8.7982    2.8517   29.1466 O   0  0  0  0  0  0  0  0  0  0  0  0
   -9.7516    4.2625   26.2424 C   0  0  0  0  0  0  0  0  0  0  0  0
  -10.2985    2.9432   25.8088 C   0  0  0  0  0  0  0  0  0  0  0  0
   -9.2137    1.9539   26.0386 C   0  0  0  0  0  0  0  0  0  0  0  0
   -9.1329    5.0933   29.2693 N   0  0  0  0  0  0  0  0  0  0  0  0
   -9.4293    4.9906   30.7060 C   0  0  2  0  0  0  0  0  0  0  0  0
   -9.9718    6.2416   31.2713 C   0  0  0  0  0  0  0  0  0  0  0  0
   -9.1399    6.9564   31.9145 O   0  0  0  0  0  0  0  0  0  0  0  0
   -8.1445    4.5711   31.4225 C   0  0  0  0  0  0  0  0  0  0  0  0
   -8.3688    4.4438   32.8840 C   0  0  0  0  0  0  0  0  0  0  0  0
   -7.2951    3.7229   33.5963 C   0  0  0  0  0  0  0  0  0  0  0  0
   -6.9119    4.0111   34.7483 O   0  0  0  0  0  0  0  0  0  0  0  0
   -6.6310    2.6414   32.9915 O   0  0  0  0  0  0  0  0  0  0  0  0
  -11.2808    6.7256   31.1804 N   0  0  0  0  0  0  0  0  0  0  0  0
  -11.6727    7.9296   31.8575 C   0  0  2  0  0  0  0  0  0  0  0  0
  -11.1767    8.1372   33.1955 C   0  0  0  0  0  0  0  0  0  0  0  0
  -10.4949    7.1781   33.7029 O   0  0  0  0  0  0  0  0  0  0  0  0
  -13.1580    8.1721   31.7753 C   0  0  0  0  0  0  0  0  0  0  0  0
  -13.8525    7.6407   30.6257 C   0  0  0  0  0  0  0  0  0  0  0  0
  -15.2319    7.7916   30.4329 C   0  0  0  0  0  0  0  0  0  0  0  0
  -13.1866    6.9380   29.6599 C   0  0  0  0  0  0  0  0  0  0  0  0
  -15.9074    7.2820   29.3571 C   0  0  0  0  0  0  0  0  0  0  0  0
  -13.8483    6.4064   28.5507 C   0  0  0  0  0  0  0  0  0  0  0  0
  -15.2091    6.5741   28.3915 C   0  0  0  0  0  0  0  0  0  0  0  0
  -11.3541    9.2613   34.0050 N   0  0  0  0  0  0  0  0  0  0  0  0
  -10.4938   10.3975   33.9318 C   0  0  0  0  0  0  0  0  0  0  0  0
   -9.7560   10.7471   35.1472 C   0  0  0  0  0  0  0  0  0  0  0  0
   -9.2051   11.8444   35.2865 O   0  0  0  0  0  0  0  0  0  0  0  0
   -9.6238    9.8369   36.2525 N   0  0  0  0  0  0  0  0  0  0  0  0
   -8.4129    9.8854   37.0918 C   0  0  0  0  0  0  0  0  0  0  0  0
   -7.2934   10.4625   36.2944 C   0  0  0  0  0  0  0  0  0  0  0  0
   -7.1311   10.0421   35.1108 O   0  0  0  0  0  0  0  0  0  0  0  0
   -6.3900   11.4374   36.7416 N   0  0  0  0  0  0  0  0  0  0  0  0
   -4.9817   11.4534   36.3130 C   0  0  2  0  0  0  0  0  0  0  0  0
   -4.0999   11.7671   37.4378 C   0  0  0  0  0  0  0  0  0  0  0  0
   -2.8579   11.4817   37.4411 O   0  0  0  0  0  0  0  0  0  0  0  0
   -4.7919   12.2585   35.0741 C   0  0  0  0  0  0  0  0  0  0  0  0
   -3.3774   12.2425   34.6692 C   0  0  0  0  0  0  0  0  0  0  0  0
   -2.4640   13.0902   35.2743 C   0  0  0  0  0  0  0  0  0  0  0  0
   -2.9000   11.3926   33.7010 C   0  0  0  0  0  0  0  0  0  0  0  0
   -1.1264   13.0889   34.9262 C   0  0  0  0  0  0  0  0  0  0  0  0
   -1.5461   11.3897   33.3469 C   0  0  0  0  0  0  0  0  0  0  0  0
   -0.6620   12.2315   33.9541 C   0  0  0  0  0  0  0  0  0  0  0  0
    0.6969   12.2105   33.5801 O   0  0  0  0  0  0  0  0  0  0  0  0
   -4.5729   12.3979   38.5653 O   0  0  0  0  0  0  0  0  0  0  0  0
   -1.8941   -9.6308   28.0520 H   0  0  0  0  0  0  0  0  0  0  0  0
   -5.3897   -0.3600   18.3635 H   0  0  0  0  0  0  0  0  0  0  0  0
  2  1  1  6
  2  3  1  0
  2  5  1  0
  3  4  2  0
  3 10  1  0
  5  6  1  0
  6  7  1  0
  7  8  1  0
  7  9  2  0
 11 10  1  1
 11 12  1  0
 11 14  1  0
 12 13  2  0
 12 18  1  0
 14 15  1  0
 14 16  1  6
 15 17  1  0
 18 19  1  0
 19 20  1  0
 19 22  1  1
 20 21  2  0
 20 29  1  0
 22 23  1  0
 23 24  1  0
 24 25  1  0
 25 26  1  0
 26 27  1  0
 26 28  2  0
 29 30  1  0
 30 31  1  0
 30 33  1  6
 31 32  2  0
 31 40  1  0
 33 34  1  0
 34 35  1  0
 35 36  1  0
 36 37  1  0
 37 38  1  0
 37 39  2  0
 41 40  1  6
 41 42  1  0
 41 44  1  0
 42 43  2  0
 42 47  1  0
 44 45  1  1
 44 46  1  0
 47 48  1  0
 47 53  1  0
 48 49  1  1
 48 51  1  0
 49 50  2  0
 49 54  1  0
 51 52  1  0
 52 53  1  0
 54 55  1  0
 55 56  1  0
 55 58  1  1
 56 57  2  0
 56 63  1  0
 58 59  1  0
 59 60  1  0
 60 61  2  0
 60 62  1  0
 63 64  1  0
 64 65  1  0
 64 67  1  1
 65 66  2  0
 65 74  1  0
 67 68  1  0
 68 69  2  0
 68 70  1  0
 69 71  1  0
 70 72  2  0
 71 73  2  0
 72 73  1  0
 74 75  1  0
 75 76  1  0
 76 77  2  0
 76 78  1  0
 78 79  1  0
 79 80  1  0
 80 81  2  0
 80 82  1  0
 82 83  1  0
 83 84  1  0
 83 86  1  6
 84 85  2  0
 84 94  1  0
 86 87  1  0
 87 88  2  0
 87 89  1  0
 88 90  1  0
 89 91  2  0
 90 92  2  0
 91 92  1  0
 92 93  1  0
 28 95  1  0
 39 96  1  0
M  CHG  1   1   1
M  END
$$$$
