
     RDKit          3D

 96 98  0  0  0  0  0  0  0  0999 V2000
    1.7615   -7.0721   26.3915 N   0  0  0  0  0  4  0  0  0  0  0  0
    1.2496   -7.0672   27.7223 C   0  0  2  0  0  0  0  0  0  0  0  0
   -0.2461   -6.8127   27.6830 C   0  0  0  0  0  0  0  0  0  0  0  0
   -0.8910   -7.4439   26.8006 O   0  0  0  0  0  0  0  0  0  0  0  0
    1.8062   -5.9805   28.5730 C   0  0  0  0  0  0  0  0  0  0  0  0
    3.2332   -5.9130   28.8748 C   0  0  0  0  0  0  0  0  0  0  0  0
    3.8241   -4.8469   29.6424 C   0  0  0  0  0  0  0  0  0  0  0  0
    4.3185   -3.7197   28.9237 O   0  0  0  0  0  0  0  0  0  0  0  0
    3.9673   -4.7705   30.8722 O   0  0  0  0  0  0  0  0  0  0  0  0
   -0.8653   -5.9135   28.5965 N   0  0  0  0  0  0  0  0  0  0  0  0
   -2.2984   -5.7133   28.4935 C   0  0  2  0  0  0  0  0  0  0  0  0
   -2.7076   -4.6087   27.6295 C   0  0  0  0  0  0  0  0  0  0  0  0
   -2.3832   -3.4312   27.9926 O   0  0  0  0  0  0  0  0  0  0  0  0
   -2.8102   -5.4236   29.9120 C   0  0  2  0  0  0  0  0  0  0  0  0
   -2.5858   -6.5234   30.8835 C   0  0  0  0  0  0  0  0  0  0  0  0
   -4.3283   -5.2446   29.7741 C   0  0  0  0  0  0  0  0  0  0  0  0
   -2.9868   -5.9500   32.2611 C   0  0  0  0  0  0  0  0  0  0  0  0
   -3.4395   -4.8139   26.4206 N   0  0  0  0  0  0  0  0  0  0  0  0
   -3.8627   -3.6897   25.6458 C   0  0  2  0  0  0  0  0  0  0  0  0
   -4.4247   -2.5699   26.4713 C   0  0  0  0  0  0  0  0  0  0  0  0
   -5.6432   -2.4087   26.5461 O   0  0  0  0  0  0  0  0  0  0  0  0
   -4.7153   -3.9801   24.4657 C   0  0  0  0  0  0  0  0  0  0  0  0
   -4.4113   -3.4517   23.1460 C   0  0  0  0  0  0  0  0  0  0  0  0
   -5.4037   -2.7047   22.3637 C   0  0  0  0  0  0  0  0  0  0  0  0
   -4.8827   -2.2218   21.1049 N   0  0  0  0  0  0  0  0  0  0  0  0
   -4.5725   -0.8520   20.9068 C   0  0  0  0  0  0  0  0  0  0  0  0
   -3.2278   -0.3807   20.9900 N   0  0  0  0  0  0  0  0  0  0  0  0
   -5.4799    0.0335   20.6510 N   0  0  0  0  0  0  0  0  0  0  0  0
   -3.5706   -1.6803   27.1779 N   0  0  0  0  0  0  0  0  0  0  0  0
   -3.3734   -0.2987   26.8790 C   0  0  2  0  0  0  0  0  0  0  0  0
   -4.2676    0.6601   27.5101 C   0  0  0  0  0  0  0  0  0  0  0  0
   -3.9167    1.9031   27.6145 O   0  0  0  0  0  0  0  0  0  0  0  0
   -3.2436   -0.0247   25.3891 C   0  0  0  0  0  0  0  0  0  0  0  0
   -1.8311   -0.0631   24.9376 C   0  0  0  0  0  0  0  0  0  0  0  0
   -1.2030    1.2745   24.6563 C   0  0  0  0  0  0  0  0  0  0  0  0
   -0.4096    1.6317   25.8464 N   0  0  0  0  0  0  0  0  0  0  0  0
    0.9612    2.0318   25.6508 C   0  0  0  0  0  0  0  0  0  0  0  0
    1.8311    2.2419   26.7417 N   0  0  0  0  0  0  0  0  0  0  0  0
    1.3614    2.1893   24.4150 N   0  0  0  0  0  0  0  0  0  0  0  0
   -5.5451    0.3872   28.0536 N   0  0  0  0  0  0  0  0  0  0  0  0
   -6.3860    1.5191   28.5283 C   0  0  2  0  0  0  0  0  0  0  0  0
   -5.6408    2.7557   28.2153 C   0  0  0  0  0  0  0  0  0  0  0  0
   -4.3684    2.8046   28.4590 O   0  0  0  0  0  0  0  0  0  0  0  0
   -6.4077    1.2618   30.0470 C   0  0  1  0  0  0  0  0  0  0  0  0
   -6.9650    2.4381   30.7665 C   0  0  0  0  0  0  0  0  0  0  0  0
   -6.9875   -0.0396   30.4426 C   0  0  0  0  0  0  0  0  0  0  0  0
   -6.1743    3.9359   27.6551 N   0  0  0  0  0  0  0  0  0  0  0  0
   -5.4063    5.0034   27.0526 C   0  0  2  0  0  0  0  0  0  0  0  0
   -4.8421    5.8524   28.1659 C   0  0  0  0  0  0  0  0  0  0  0  0
   -3.8253    6.5598   27.9482 O   0  0  0  0  0  0  0  0  0  0  0  0
   -6.3556    5.8130   26.2047 C   0  0  0  0  0  0  0  0  0  0  0  0
   -7.7195    5.4918   26.7187 C   0  0  0  0  0  0  0  0  0  0  0  0
   -7.5632    4.2832   27.5691 C   0  0  0  0  0  0  0  0  0  0  0  0
   -5.3792    5.9203   29.4741 N   0  0  0  0  0  0  0  0  0  0  0  0
   -4.8081    6.8375   30.4716 C   0  0  2  0  0  0  0  0  0  0  0  0
   -5.4228    6.6903   31.8055 C   0  0  0  0  0  0  0  0  0  0  0  0
   -5.4804    5.5013   32.2524 O   0  0  0  0  0  0  0  0  0  0  0  0
   -4.9667    8.2645   29.9436 C   0  0  0  0  0  0  0  0  0  0  0  0
   -4.4863    9.2553   30.9387 C   0  0  0  0  0  0  0  0  0  0  0  0
   -3.0614    9.6127   30.7911 C   0  0  0  0  0  0  0  0  0  0  0  0
   -2.5636   10.0588   29.7374 O   0  0  0  0  0  0  0  0  0  0  0  0
   -2.1673    9.4632   31.8657 O   0  0  0  0  0  0  0  0  0  0  0  0
   -5.9418    7.6976   32.6251 N   0  0  0  0  0  0  0  0  0  0  0  0
   -6.5794    7.3810   33.8722 C   0  0  2  0  0  0  0  0  0  0  0  0
   -7.8213    8.0471   34.1774 C   0  0  0  0  0  0  0  0  0  0  0  0
   -7.9005    9.2812   33.8418 O   0  0  0  0  0  0  0  0  0  0  0  0
   -5.6207    7.4407   35.0337 C   0  0  0  0  0  0  0  0  0  0  0  0
   -6.0437    8.1747   36.2036 C   0  0  0  0  0  0  0  0  0  0  0  0
   -5.2390    8.3240   37.3406 C   0  0  0  0  0  0  0  0  0  0  0  0
   -7.2796    8.7568   36.2645 C   0  0  0  0  0  0  0  0  0  0  0  0
   -5.6302    9.0036   38.4626 C   0  0  0  0  0  0  0  0  0  0  0  0
   -7.7067    9.4569   37.3951 C   0  0  0  0  0  0  0  0  0  0  0  0
   -6.8877    9.5852   38.4987 C   0  0  0  0  0  0  0  0  0  0  0  0
   -8.9485    7.5049   34.7985 N   0  0  0  0  0  0  0  0  0  0  0  0
  -10.2091    7.4036   34.1374 C   0  0  0  0  0  0  0  0  0  0  0  0
  -11.0047    6.2055   34.4117 C   0  0  0  0  0  0  0  0  0  0  0  0
  -11.7557    6.1272   35.3898 O   0  0  0  0  0  0  0  0  0  0  0  0
  -10.9609    5.0452   33.5634 N   0  0  0  0  0  0  0  0  0  0  0  0
  -11.7073    3.8344   33.9507 C   0  0  0  0  0  0  0  0  0  0  0  0
  -11.5866    2.8221   32.8630 C   0  0  0  0  0  0  0  0  0  0  0  0
  -12.3948    1.8470   32.8691 O   0  0  0  0  0  0  0  0  0  0  0  0
  -10.6461    2.8489   31.8231 N   0  0  0  0  0  0  0  0  0  0  0  0
  -11.0472    2.8766   30.4069 C   0  0  2  0  0  0  0  0  0  0  0  0
  -11.0108    1.5323   29.8302 C   0  0  0  0  0  0  0  0  0  0  0  0
  -11.9019    1.1018   29.0274 O   0  0  0  0  0  0  0  0  0  0  0  0
  -10.3322    3.9438   29.6526 C   0  0  0  0  0  0  0  0  0  0  0  0
   -9.5408    4.7744   30.5739 C   0  0  0  0  0  0  0  0  0  0  0  0
  -10.1543    5.4397   31.6227 C   0  0  0  0  0  0  0  0  0  0  0  0
   -8.1798    4.9158   30.4505 C   0  0  0  0  0  0  0  0  0  0  0  0
   -9.4366    6.2157   32.5133 C   0  0  0  0  0  0  0  0  0  0  0  0
   -7.4511    5.7010   31.3511 C   0  0  0  0  0  0  0  0  0  0  0  0
   -8.0728    6.3483   32.3775 C   0  0  0  0  0  0  0  0  0  0  0  0
   -7.3176    7.1340   33.2715 O   0  0  0  0  0  0  0  0  0  0  0  0
   -9.9962    0.6520   30.1275 O   0  0  0  0  0  0  0  0  0  0  0  0
   -6.4889   -0.1692   20.6005 H   0  0  0  0  0  0  0  0  0  0  0  0
    1.0563    1.4396   23.7441 H   0  0  0  0  0  0  0  0  0  0  0  0
  2  1  1  6
  2  3  1  0
  2  5  1  0
  3  4  2  0
  3 10  1  0
  5  6  1  0
  6  7  1  0
  7  8  1  0
  7  9  2  0
 11 10  1  1
 11 12  1  0
 11 14  1  0
 12 13  2  0
 12 18  1  0
 14 15  1  0
 14 16  1  6
 15 17  1  0
 18 19  1  0
 19 20  1  0
 19 22  1  6
 20 21  2  0
 20 29  1  0
 22 23  1  0
 23 24  1  0
 24 25  1  0
 25 26  1  0
 26 27  1  0
 26 28  2  0
 29 30  1  0
 30 31  1  0
 30 33  1  6
 31 32  2  0
 31 40  1  0
 33 34  1  0
 34 35  1  0
 35 36  1  0
 36 37  1  0
 37 38  1  0
 37 39  2  0
 41 40  1  6
 41 42  1  0
 41 44  1  0
 42 43  2  0
 42 47  1  0
 44 45  1  1
 44 46  1  0
 47 48  1  0
 47 53  1  0
 48 49  1  1
 48 51  1  0
 49 50  2  0
 49 54  1  0
 51 52  1  0
 52 53  1  0
 54 55  1  0
 55 56  1  0
 55 58  1  6
 56 57  2  0
 56 63  1  0
 58 59  1  0
 59 60  1  0
 60 61  2  0
 60 62  1  0
 63 64  1  0
 64 65  1  0
 64 67  1  1
 65 66  2  0
 65 74  1  0
 67 68  1  0
 68 69  2  0
 68 70  1  0
 69 71  1  0
 70 72  2  0
 71 73  2  0
 72 73  1  0
 74 75  1  0
 75 76  1  0
 76 77  2  0
 76 78  1  0
 78 79  1  0
 79 80  1  0
 80 81  2  0
 80 82  1  0
 82 83  1  0
 83 84  1  0
 83 86  1  6
 84 85  2  0
 84 94  1  0
 86 87  1  0
 87 88  2  0
 87 89  1  0
 88 90  1  0
 89 91  2  0
 90 92  2  0
 91 92  1  0
 92 93  1  0
 28 95  1  0
 39 96  1  0
M  CHG  1   1   1
M  END
$$$$
