
     RDKit          3D

 96 98  0  0  0  0  0  0  0  0999 V2000
   -1.4071    2.1833   29.5885 N   0  0  0  0  0  4  0  0  0  0  0  0
   -0.8266    2.4904   28.3230 C   0  0  2  0  0  0  0  0  0  0  0  0
    0.3759    1.5937   28.0922 C   0  0  0  0  0  0  0  0  0  0  0  0
    1.4916    2.1772   28.0046 O   0  0  0  0  0  0  0  0  0  0  0  0
   -0.2995    3.8788   28.2281 C   0  0  0  0  0  0  0  0  0  0  0  0
   -0.8279    4.8223   27.2469 C   0  0  0  0  0  0  0  0  0  0  0  0
   -0.5348    6.2323   27.2759 C   0  0  0  0  0  0  0  0  0  0  0  0
   -1.1318    7.0453   26.2689 O   0  0  0  0  0  0  0  0  0  0  0  0
    0.1831    6.8539   28.0741 O   0  0  0  0  0  0  0  0  0  0  0  0
    0.2329    0.1813   27.9856 N   0  0  0  0  0  0  0  0  0  0  0  0
    1.2073   -0.6573   28.6578 C   0  0  2  0  0  0  0  0  0  0  0  0
    1.0798   -2.0880   28.3914 C   0  0  0  0  0  0  0  0  0  0  0  0
    0.3540   -2.7685   29.1873 O   0  0  0  0  0  0  0  0  0  0  0  0
    1.0209   -0.4348   30.1657 C   0  0  2  0  0  0  0  0  0  0  0  0
    2.2812   -0.4493   30.9500 C   0  0  0  0  0  0  0  0  0  0  0  0
    0.1702   -1.6151   30.6546 C   0  0  0  0  0  0  0  0  0  0  0  0
    3.0380    0.8355   30.5451 C   0  0  0  0  0  0  0  0  0  0  0  0
    1.7295   -2.7215   27.2888 N   0  0  0  0  0  0  0  0  0  0  0  0
    1.1499   -3.8852   26.6946 C   0  0  2  0  0  0  0  0  0  0  0  0
    1.1382   -5.0795   27.6028 C   0  0  0  0  0  0  0  0  0  0  0  0
    2.1955   -5.5302   28.0446 O   0  0  0  0  0  0  0  0  0  0  0  0
    1.6207   -4.2393   25.3320 C   0  0  0  0  0  0  0  0  0  0  0  0
    0.7131   -4.3196   24.1993 C   0  0  0  0  0  0  0  0  0  0  0  0
    0.3303   -5.6056   23.6036 C   0  0  0  0  0  0  0  0  0  0  0  0
    1.4013   -6.5761   23.6197 N   0  0  0  0  0  0  0  0  0  0  0  0
    1.4756   -7.6149   22.6568 C   0  0  0  0  0  0  0  0  0  0  0  0
    1.6518   -7.3245   21.2705 N   0  0  0  0  0  0  0  0  0  0  0  0
    1.3816   -8.8645   22.9775 N   0  0  0  0  0  0  0  0  0  0  0  0
   -0.0820   -5.7097   27.9691 N   0  0  0  0  0  0  0  0  0  0  0  0
   -1.0598   -6.2242   27.0656 C   0  0  2  0  0  0  0  0  0  0  0  0
   -2.2044   -5.3790   26.7609 C   0  0  0  0  0  0  0  0  0  0  0  0
   -3.1471   -5.8177   25.9876 O   0  0  0  0  0  0  0  0  0  0  0  0
   -1.5018   -7.6379   27.4088 C   0  0  0  0  0  0  0  0  0  0  0  0
   -0.8593   -8.6491   26.5341 C   0  0  0  0  0  0  0  0  0  0  0  0
   -1.3649  -10.0573   26.6898 C   0  0  0  0  0  0  0  0  0  0  0  0
   -0.5750  -10.8978   25.7716 N   0  0  0  0  0  0  0  0  0  0  0  0
    0.2607  -10.2382   24.8000 C   0  0  0  0  0  0  0  0  0  0  0  0
    1.2736   -9.3363   25.1894 N   0  0  0  0  0  0  0  0  0  0  0  0
    0.0374  -10.5160   23.5411 N   0  0  0  0  0  0  0  0  0  0  0  0
   -2.4277   -4.0636   27.2318 N   0  0  0  0  0  0  0  0  0  0  0  0
   -3.7899   -3.4761   27.1180 C   0  0  2  0  0  0  0  0  0  0  0  0
   -3.6048   -2.0264   26.9016 C   0  0  0  0  0  0  0  0  0  0  0  0
   -2.5932   -1.4302   27.4512 O   0  0  0  0  0  0  0  0  0  0  0  0
   -4.3555   -3.7525   28.5240 C   0  0  1  0  0  0  0  0  0  0  0  0
   -5.6265   -3.0081   28.7295 C   0  0  0  0  0  0  0  0  0  0  0  0
   -4.4063   -5.1824   28.8967 C   0  0  0  0  0  0  0  0  0  0  0  0
   -4.4327   -1.1823   26.1312 N   0  0  0  0  0  0  0  0  0  0  0  0
   -4.2209    0.2316   25.9111 C   0  0  2  0  0  0  0  0  0  0  0  0
   -4.7041    0.9679   27.1370 C   0  0  0  0  0  0  0  0  0  0  0  0
   -5.4443    0.3739   27.9622 O   0  0  0  0  0  0  0  0  0  0  0  0
   -5.0398    0.6237   24.7065 C   0  0  0  0  0  0  0  0  0  0  0  0
   -6.0691   -0.4471   24.5606 C   0  0  0  0  0  0  0  0  0  0  0  0
   -5.6166   -1.5710   25.4212 C   0  0  0  0  0  0  0  0  0  0  0  0
   -4.3829    2.3123   27.4439 N   0  0  0  0  0  0  0  0  0  0  0  0
   -4.4829    2.8098   28.8241 C   0  0  2  0  0  0  0  0  0  0  0  0
   -5.6882    3.6306   29.0528 C   0  0  0  0  0  0  0  0  0  0  0  0
   -5.4777    4.7874   29.5368 O   0  0  0  0  0  0  0  0  0  0  0  0
   -3.2093    3.5990   29.1330 C   0  0  0  0  0  0  0  0  0  0  0  0
   -2.0853    2.6867   29.4598 C   0  0  0  0  0  0  0  0  0  0  0  0
   -2.2403    1.9790   30.7463 C   0  0  0  0  0  0  0  0  0  0  0  0
   -1.7152    2.3567   31.8134 O   0  0  0  0  0  0  0  0  0  0  0  0
   -3.0122    0.8073   30.8343 O   0  0  0  0  0  0  0  0  0  0  0  0
   -7.0198    3.2859   28.7996 N   0  0  0  0  0  0  0  0  0  0  0  0
   -8.0884    4.1996   29.0913 C   0  0  2  0  0  0  0  0  0  0  0  0
   -8.7000    4.1206   30.3947 C   0  0  0  0  0  0  0  0  0  0  0  0
   -9.1274    2.9665   30.7517 O   0  0  0  0  0  0  0  0  0  0  0  0
   -9.1238    4.2338   27.9965 C   0  0  0  0  0  0  0  0  0  0  0  0
   -8.6627    4.0289   26.6431 C   0  0  0  0  0  0  0  0  0  0  0  0
   -8.9307    4.9287   25.6033 C   0  0  0  0  0  0  0  0  0  0  0  0
   -7.9422    2.9177   26.3022 C   0  0  0  0  0  0  0  0  0  0  0  0
   -8.5139    4.7422   24.3129 C   0  0  0  0  0  0  0  0  0  0  0  0
   -7.5028    2.7002   24.9944 C   0  0  0  0  0  0  0  0  0  0  0  0
   -7.7842    3.6080   23.9935 C   0  0  0  0  0  0  0  0  0  0  0  0
   -8.8834    5.1559   31.3138 N   0  0  0  0  0  0  0  0  0  0  0  0
   -9.5419    6.3741   30.9692 C   0  0  0  0  0  0  0  0  0  0  0  0
  -10.9913    6.4219   31.1710 C   0  0  0  0  0  0  0  0  0  0  0  0
  -11.7450    5.5541   30.7175 O   0  0  0  0  0  0  0  0  0  0  0  0
  -11.6286    7.4808   31.9060 N   0  0  0  0  0  0  0  0  0  0  0  0
  -12.1550    7.2122   33.2565 C   0  0  0  0  0  0  0  0  0  0  0  0
  -11.9598    8.4240   34.1026 C   0  0  0  0  0  0  0  0  0  0  0  0
  -10.8112    8.9575   34.1168 O   0  0  0  0  0  0  0  0  0  0  0  0
  -12.9423    9.0324   34.8969 N   0  0  0  0  0  0  0  0  0  0  0  0
  -13.4202   10.4005   34.6379 C   0  0  2  0  0  0  0  0  0  0  0  0
  -14.4207   10.7977   35.6290 C   0  0  0  0  0  0  0  0  0  0  0  0
  -14.7976   10.0307   36.5743 O   0  0  0  0  0  0  0  0  0  0  0  0
  -13.7873   10.5943   33.2073 C   0  0  0  0  0  0  0  0  0  0  0  0
  -12.5801   10.8315   32.4002 C   0  0  0  0  0  0  0  0  0  0  0  0
  -11.8054    9.7683   31.9661 C   0  0  0  0  0  0  0  0  0  0  0  0
  -12.1785   12.0929   32.0325 C   0  0  0  0  0  0  0  0  0  0  0  0
  -10.6741    9.9576   31.1948 C   0  0  0  0  0  0  0  0  0  0  0  0
  -11.0334   12.2869   31.2517 C   0  0  0  0  0  0  0  0  0  0  0  0
  -10.2836   11.2276   30.8337 C   0  0  0  0  0  0  0  0  0  0  0  0
   -9.1339   11.4482   30.0484 O   0  0  0  0  0  0  0  0  0  0  0  0
  -15.0129   12.0390   35.5921 O   0  0  0  0  0  0  0  0  0  0  0  0
    0.8949   -9.2119   23.8166 H   0  0  0  0  0  0  0  0  0  0  0  0
    0.3755  -11.4586   23.2213 H   0  0  0  0  0  0  0  0  0  0  0  0
  2  1  1  1
  2  3  1  0
  2  5  1  0
  3  4  2  0
  3 10  1  0
  5  6  1  0
  6  7  1  0
  7  8  1  0
  7  9  2  0
 11 10  1  6
 11 12  1  0
 11 14  1  0
 12 13  2  0
 12 18  1  0
 14 15  1  0
 14 16  1  1
 15 17  1  0
 18 19  1  0
 19 20  1  0
 19 22  1  6
 20 21  2  0
 20 29  1  0
 22 23  1  0
 23 24  1  0
 24 25  1  0
 25 26  1  0
 26 27  1  0
 26 28  2  0
 29 30  1  0
 30 31  1  0
 30 33  1  1
 31 32  2  0
 31 40  1  0
 33 34  1  0
 34 35  1  0
 35 36  1  0
 36 37  1  0
 37 38  1  0
 37 39  2  0
 41 40  1  1
 41 42  1  0
 41 44  1  0
 42 43  2  0
 42 47  1  0
 44 45  1  6
 44 46  1  0
 47 48  1  0
 47 53  1  0
 48 49  1  1
 48 51  1  0
 49 50  2  0
 49 54  1  0
 51 52  1  0
 52 53  1  0
 54 55  1  0
 55 56  1  0
 55 58  1  6
 56 57  2  0
 56 63  1  0
 58 59  1  0
 59 60  1  0
 60 61  2  0
 60 62  1  0
 63 64  1  0
 64 65  1  0
 64 67  1  6
 65 66  2  0
 65 74  1  0
 67 68  1  0
 68 69  2  0
 68 70  1  0
 69 71  1  0
 70 72  2  0
 71 73  2  0
 72 73  1  0
 74 75  1  0
 75 76  1  0
 76 77  2  0
 76 78  1  0
 78 79  1  0
 79 80  1  0
 80 81  2  0
 80 82  1  0
 82 83  1  0
 83 84  1  0
 83 86  1  6
 84 85  2  0
 84 94  1  0
 86 87  1  0
 87 88  2  0
 87 89  1  0
 88 90  1  0
 89 91  2  0
 90 92  2  0
 91 92  1  0
 92 93  1  0
 28 95  1  0
 39 96  1  0
M  CHG  1   1   1
M  END
$$$$
