
     RDKit          3D

 96 98  0  0  0  0  0  0  0  0999 V2000
   -8.9586   13.1055   35.1322 N   0  0  0  0  0  4  0  0  0  0  0  0
   -7.8383   12.2972   35.4850 C   0  0  2  0  0  0  0  0  0  0  0  0
   -8.3019   10.8702   35.7133 C   0  0  0  0  0  0  0  0  0  0  0  0
   -8.4794   10.5326   36.9164 O   0  0  0  0  0  0  0  0  0  0  0  0
   -7.1865   12.7023   36.7600 C   0  0  0  0  0  0  0  0  0  0  0  0
   -5.7786   12.4109   37.0148 C   0  0  0  0  0  0  0  0  0  0  0  0
   -5.0871   12.8517   38.1990 C   0  0  0  0  0  0  0  0  0  0  0  0
   -3.7039   12.5253   38.3084 O   0  0  0  0  0  0  0  0  0  0  0  0
   -5.5379   13.4911   39.1616 O   0  0  0  0  0  0  0  0  0  0  0  0
   -8.5193    9.9820   34.6222 N   0  0  0  0  0  0  0  0  0  0  0  0
   -7.4896    9.0059   34.3195 C   0  0  2  0  0  0  0  0  0  0  0  0
   -7.7671    8.1521   33.1671 C   0  0  0  0  0  0  0  0  0  0  0  0
   -6.8382    7.3695   32.7820 O   0  0  0  0  0  0  0  0  0  0  0  0
   -7.3516    8.1067   35.5566 C   0  0  2  0  0  0  0  0  0  0  0  0
   -8.5135    8.1479   36.4797 C   0  0  0  0  0  0  0  0  0  0  0  0
   -6.1413    8.6500   36.3284 C   0  0  0  0  0  0  0  0  0  0  0  0
   -8.3030    6.9773   37.4659 C   0  0  0  0  0  0  0  0  0  0  0  0
   -9.0211    8.1725   32.4843 N   0  0  0  0  0  0  0  0  0  0  0  0
   -9.5653    6.9594   31.9597 C   0  0  2  0  0  0  0  0  0  0  0  0
   -8.9380    6.5311   30.6657 C   0  0  0  0  0  0  0  0  0  0  0  0
   -9.2668    5.4661   30.1424 O   0  0  0  0  0  0  0  0  0  0  0  0
  -11.0458    6.8641   31.9074 C   0  0  0  0  0  0  0  0  0  0  0  0
  -11.8547    6.7578   33.1106 C   0  0  0  0  0  0  0  0  0  0  0  0
  -13.0518    7.5827   33.3141 C   0  0  0  0  0  0  0  0  0  0  0  0
  -14.2629    6.8018   33.4263 N   0  0  0  0  0  0  0  0  0  0  0  0
  -15.3742    7.2604   34.1791 C   0  0  0  0  0  0  0  0  0  0  0  0
  -16.4494    6.3840   34.5155 N   0  0  0  0  0  0  0  0  0  0  0  0
  -15.4757    8.4828   34.5895 N   0  0  0  0  0  0  0  0  0  0  0  0
   -7.9607    7.3382   30.0227 N   0  0  0  0  0  0  0  0  0  0  0  0
   -7.0081    6.8876   29.0601 C   0  0  2  0  0  0  0  0  0  0  0  0
   -7.1844    5.5501   28.5148 C   0  0  0  0  0  0  0  0  0  0  0  0
   -6.8411    4.5142   29.2135 O   0  0  0  0  0  0  0  0  0  0  0  0
   -5.5690    7.1136   29.4960 C   0  0  0  0  0  0  0  0  0  0  0  0
   -5.0253    8.3925   28.9773 C   0  0  0  0  0  0  0  0  0  0  0  0
   -4.5012    8.3509   27.5678 C   0  0  0  0  0  0  0  0  0  0  0  0
   -3.7723    9.6131   27.3466 N   0  0  0  0  0  0  0  0  0  0  0  0
   -3.5297   10.4630   28.4851 C   0  0  0  0  0  0  0  0  0  0  0  0
   -4.5728   10.8477   29.3541 N   0  0  0  0  0  0  0  0  0  0  0  0
   -2.2975   10.8595   28.6761 N   0  0  0  0  0  0  0  0  0  0  0  0
   -7.7149    5.2229   27.2447 N   0  0  0  0  0  0  0  0  0  0  0  0
   -7.8571    3.7909   26.8672 C   0  0  2  0  0  0  0  0  0  0  0  0
   -6.4971    3.2141   26.8888 C   0  0  0  0  0  0  0  0  0  0  0  0
   -5.4914    3.9559   26.5437 O   0  0  0  0  0  0  0  0  0  0  0  0
   -8.3787    3.9106   25.4227 C   0  0  1  0  0  0  0  0  0  0  0  0
   -8.3608    2.5838   24.7509 C   0  0  0  0  0  0  0  0  0  0  0  0
   -9.6471    4.6582   25.2863 C   0  0  0  0  0  0  0  0  0  0  0  0
   -6.1517    1.8974   27.2608 N   0  0  0  0  0  0  0  0  0  0  0  0
   -4.8094    1.3600   27.3050 C   0  0  2  0  0  0  0  0  0  0  0  0
   -4.4053    1.0087   25.8936 C   0  0  0  0  0  0  0  0  0  0  0  0
   -5.2249    0.4161   25.1462 O   0  0  0  0  0  0  0  0  0  0  0  0
   -4.8528    0.1198   28.1627 C   0  0  0  0  0  0  0  0  0  0  0  0
   -6.2863   -0.2950   28.1884 C   0  0  0  0  0  0  0  0  0  0  0  0
   -7.0584    0.8652   27.6723 C   0  0  0  0  0  0  0  0  0  0  0  0
   -3.1420    1.3003   25.3248 N   0  0  0  0  0  0  0  0  0  0  0  0
   -2.4146    0.2811   24.5538 C   0  0  2  0  0  0  0  0  0  0  0  0
   -2.4324   -1.0471   25.1974 C   0  0  0  0  0  0  0  0  0  0  0  0
   -3.1216   -1.1288   26.2628 O   0  0  0  0  0  0  0  0  0  0  0  0
   -0.9822    0.7784   24.3507 C   0  0  0  0  0  0  0  0  0  0  0  0
   -0.9661    2.0604   23.6033 C   0  0  0  0  0  0  0  0  0  0  0  0
   -1.5149    1.9659   22.2360 C   0  0  0  0  0  0  0  0  0  0  0  0
   -1.5717    0.9041   21.5830 O   0  0  0  0  0  0  0  0  0  0  0  0
   -2.0169    3.1048   21.5821 O   0  0  0  0  0  0  0  0  0  0  0  0
   -1.7865   -2.2129   24.7736 N   0  0  0  0  0  0  0  0  0  0  0  0
   -1.9976   -3.4624   25.4488 C   0  0  2  0  0  0  0  0  0  0  0  0
   -1.3581   -3.6490   26.7276 C   0  0  0  0  0  0  0  0  0  0  0  0
   -0.2040   -3.1101   26.8687 O   0  0  0  0  0  0  0  0  0  0  0  0
   -1.7741   -4.6452   24.5418 C   0  0  0  0  0  0  0  0  0  0  0  0
   -2.6241   -4.7576   23.3793 C   0  0  0  0  0  0  0  0  0  0  0  0
   -2.2834   -4.2181   22.1322 C   0  0  0  0  0  0  0  0  0  0  0  0
   -3.8323   -5.3946   23.4460 C   0  0  0  0  0  0  0  0  0  0  0  0
   -3.0837   -4.3031   21.0250 C   0  0  0  0  0  0  0  0  0  0  0  0
   -4.6704   -5.4978   22.3334 C   0  0  0  0  0  0  0  0  0  0  0  0
   -4.3033   -4.9548   21.1187 C   0  0  0  0  0  0  0  0  0  0  0  0
   -1.8484   -4.3506   27.8310 N   0  0  0  0  0  0  0  0  0  0  0  0
   -1.1169   -4.4610   29.0513 C   0  0  0  0  0  0  0  0  0  0  0  0
    0.2118   -5.0709   28.9725 C   0  0  0  0  0  0  0  0  0  0  0  0
    1.2249   -4.4059   28.7311 O   0  0  0  0  0  0  0  0  0  0  0  0
    0.4215   -6.4800   29.1680 N   0  0  0  0  0  0  0  0  0  0  0  0
    1.7833   -7.0335   29.0572 C   0  0  0  0  0  0  0  0  0  0  0  0
    1.7445   -8.4862   29.3895 C   0  0  0  0  0  0  0  0  0  0  0  0
    1.0856   -8.8427   30.4106 O   0  0  0  0  0  0  0  0  0  0  0  0
    2.3817   -9.5062   28.6683 N   0  0  0  0  0  0  0  0  0  0  0  0
    2.2762  -10.9220   29.0576 C   0  0  2  0  0  0  0  0  0  0  0  0
    3.4924  -11.6518   28.6979 C   0  0  0  0  0  0  0  0  0  0  0  0
    4.5297  -11.0764   28.2322 O   0  0  0  0  0  0  0  0  0  0  0  0
    0.9858  -11.5204   28.6151 C   0  0  0  0  0  0  0  0  0  0  0  0
    0.9063  -11.5280   27.1459 C   0  0  0  0  0  0  0  0  0  0  0  0
    0.9448  -10.3401   26.4343 C   0  0  0  0  0  0  0  0  0  0  0  0
    0.8072  -12.6913   26.4216 C   0  0  0  0  0  0  0  0  0  0  0  0
    0.8867  -10.3151   25.0536 C   0  0  0  0  0  0  0  0  0  0  0  0
    0.7481  -12.6683   25.0235 C   0  0  0  0  0  0  0  0  0  0  0  0
    0.7875  -11.4888   24.3407 C   0  0  0  0  0  0  0  0  0  0  0  0
    0.7259  -11.4911   22.9324 O   0  0  0  0  0  0  0  0  0  0  0  0
    3.5806  -13.0164   28.8486 O   0  0  0  0  0  0  0  0  0  0  0  0
  -14.6733    9.1111   34.7414 H   0  0  0  0  0  0  0  0  0  0  0  0
   -1.5566   10.1444   28.4641 H   0  0  0  0  0  0  0  0  0  0  0  0
  2  1  1  1
  2  3  1  0
  2  5  1  0
  3  4  2  0
  3 10  1  0
  5  6  1  0
  6  7  1  0
  7  8  1  0
  7  9  2  0
 11 10  1  1
 11 12  1  0
 11 14  1  0
 12 13  2  0
 12 18  1  0
 14 15  1  0
 14 16  1  1
 15 17  1  0
 18 19  1  0
 19 20  1  0
 19 22  1  6
 20 21  2  0
 20 29  1  0
 22 23  1  0
 23 24  1  0
 24 25  1  0
 25 26  1  0
 26 27  1  0
 26 28  2  0
 29 30  1  0
 30 31  1  0
 30 33  1  1
 31 32  2  0
 31 40  1  0
 33 34  1  0
 34 35  1  0
 35 36  1  0
 36 37  1  0
 37 38  1  0
 37 39  2  0
 41 40  1  6
 41 42  1  0
 41 44  1  0
 42 43  2  0
 42 47  1  0
 44 45  1  1
 44 46  1  0
 47 48  1  0
 47 53  1  0
 48 49  1  6
 48 51  1  0
 49 50  2  0
 49 54  1  0
 51 52  1  0
 52 53  1  0
 54 55  1  0
 55 56  1  0
 55 58  1  1
 56 57  2  0
 56 63  1  0
 58 59  1  0
 59 60  1  0
 60 61  2  0
 60 62  1  0
 63 64  1  0
 64 65  1  0
 64 67  1  6
 65 66  2  0
 65 74  1  0
 67 68  1  0
 68 69  2  0
 68 70  1  0
 69 71  1  0
 70 72  2  0
 71 73  2  0
 72 73  1  0
 74 75  1  0
 75 76  1  0
 76 77  2  0
 76 78  1  0
 78 79  1  0
 79 80  1  0
 80 81  2  0
 80 82  1  0
 82 83  1  0
 83 84  1  0
 83 86  1  6
 84 85  2  0
 84 94  1  0
 86 87  1  0
 87 88  2  0
 87 89  1  0
 88 90  1  0
 89 91  2  0
 90 92  2  0
 91 92  1  0
 92 93  1  0
 28 95  1  0
 39 96  1  0
M  CHG  1   1   1
M  END
$$$$
