
     RDKit          3D

 96 98  0  0  0  0  0  0  0  0999 V2000
  -10.9967    1.5314   25.3665 N   0  0  0  0  0  4  0  0  0  0  0  0
   -9.5717    1.5264   25.3176 C   0  0  2  0  0  0  0  0  0  0  0  0
   -9.0269    1.0027   26.6337 C   0  0  0  0  0  0  0  0  0  0  0  0
   -9.7089    1.2728   27.6607 O   0  0  0  0  0  0  0  0  0  0  0  0
   -8.9741    2.8803   25.1612 C   0  0  0  0  0  0  0  0  0  0  0  0
   -9.0700    3.8759   26.2250 C   0  0  0  0  0  0  0  0  0  0  0  0
   -8.0787    4.8999   26.4339 C   0  0  0  0  0  0  0  0  0  0  0  0
   -7.2396    4.7740   27.5792 O   0  0  0  0  0  0  0  0  0  0  0  0
   -7.8475    5.9018   25.7399 O   0  0  0  0  0  0  0  0  0  0  0  0
   -7.8182    0.2523   26.6850 N   0  0  0  0  0  0  0  0  0  0  0  0
   -7.3725   -0.2386   27.9753 C   0  0  2  0  0  0  0  0  0  0  0  0
   -6.0697   -0.8997   27.9686 C   0  0  0  0  0  0  0  0  0  0  0  0
   -5.6381   -1.3525   29.0786 O   0  0  0  0  0  0  0  0  0  0  0  0
   -8.4204   -1.2554   28.4507 C   0  0  2  0  0  0  0  0  0  0  0  0
   -9.7969   -0.7117   28.5664 C   0  0  0  0  0  0  0  0  0  0  0  0
   -7.9794   -1.6738   29.8600 C   0  0  0  0  0  0  0  0  0  0  0  0
  -10.2776   -1.0944   29.9840 C   0  0  0  0  0  0  0  0  0  0  0  0
   -5.2933   -1.0477   26.7793 N   0  0  0  0  0  0  0  0  0  0  0  0
   -3.9865   -1.6227   26.8499 C   0  0  2  0  0  0  0  0  0  0  0  0
   -3.0531   -0.8799   27.7599 C   0  0  0  0  0  0  0  0  0  0  0  0
   -3.3197    0.2687   28.1145 O   0  0  0  0  0  0  0  0  0  0  0  0
   -3.3383   -1.9580   25.5572 C   0  0  0  0  0  0  0  0  0  0  0  0
   -2.1050   -2.7247   25.4891 C   0  0  0  0  0  0  0  0  0  0  0  0
   -2.0908   -4.1331   25.0752 C   0  0  0  0  0  0  0  0  0  0  0  0
   -1.1538   -4.3980   24.0071 N   0  0  0  0  0  0  0  0  0  0  0  0
   -1.0308   -5.6883   23.4311 C   0  0  0  0  0  0  0  0  0  0  0  0
   -1.0566   -6.8633   24.2411 N   0  0  0  0  0  0  0  0  0  0  0  0
   -0.8831   -5.8674   22.1586 N   0  0  0  0  0  0  0  0  0  0  0  0
   -1.8529   -1.4808   28.2275 N   0  0  0  0  0  0  0  0  0  0  0  0
   -0.8817   -0.8602   29.0693 C   0  0  2  0  0  0  0  0  0  0  0  0
   -0.3260    0.4111   28.6309 C   0  0  0  0  0  0  0  0  0  0  0  0
    0.5942    0.4369   27.7189 O   0  0  0  0  0  0  0  0  0  0  0  0
    0.2179   -1.8125   29.5118 C   0  0  0  0  0  0  0  0  0  0  0  0
   -0.2925   -2.8668   30.4218 C   0  0  0  0  0  0  0  0  0  0  0  0
    0.7368   -3.8379   30.9322 C   0  0  0  0  0  0  0  0  0  0  0  0
    0.0545   -4.7098   31.9057 N   0  0  0  0  0  0  0  0  0  0  0  0
   -0.9299   -4.1144   32.7740 C   0  0  0  0  0  0  0  0  0  0  0  0
   -0.6435   -2.9583   33.5303 N   0  0  0  0  0  0  0  0  0  0  0  0
   -2.1014   -4.6949   32.8265 N   0  0  0  0  0  0  0  0  0  0  0  0
   -0.6874    1.6947   29.1037 N   0  0  0  0  0  0  0  0  0  0  0  0
   -0.3657    2.8878   28.2751 C   0  0  2  0  0  0  0  0  0  0  0  0
   -0.8717    4.0619   29.0155 C   0  0  0  0  0  0  0  0  0  0  0  0
   -0.9150    5.2128   28.4204 O   0  0  0  0  0  0  0  0  0  0  0  0
   -1.2188    2.6219   27.0202 C   0  0  1  0  0  0  0  0  0  0  0  0
   -1.1257    3.7664   26.0751 C   0  0  0  0  0  0  0  0  0  0  0  0
   -1.0136    1.2922   26.4070 C   0  0  0  0  0  0  0  0  0  0  0  0
   -1.3363    4.0751   30.3480 N   0  0  0  0  0  0  0  0  0  0  0  0
   -2.7084    3.8812   30.7628 C   0  0  2  0  0  0  0  0  0  0  0  0
   -3.4437    5.1825   30.5514 C   0  0  0  0  0  0  0  0  0  0  0  0
   -2.8320    6.1640   30.0574 O   0  0  0  0  0  0  0  0  0  0  0  0
   -2.6857    3.5231   32.2280 C   0  0  0  0  0  0  0  0  0  0  0  0
   -1.3610    3.9921   32.7307 C   0  0  0  0  0  0  0  0  0  0  0  0
   -0.5385    4.2677   31.5241 C   0  0  0  0  0  0  0  0  0  0  0  0
   -4.8060    5.3955   30.8728 N   0  0  0  0  0  0  0  0  0  0  0  0
   -5.7619    5.8194   29.8389 C   0  0  2  0  0  0  0  0  0  0  0  0
   -6.5981    6.9596   30.2628 C   0  0  0  0  0  0  0  0  0  0  0  0
   -7.6964    6.6525   30.8250 O   0  0  0  0  0  0  0  0  0  0  0  0
   -6.6222    4.6096   29.4692 C   0  0  0  0  0  0  0  0  0  0  0  0
   -6.0081    3.8409   28.3582 C   0  0  0  0  0  0  0  0  0  0  0  0
   -6.4141    4.2986   27.0145 C   0  0  0  0  0  0  0  0  0  0  0  0
   -7.1397    5.2930   26.8101 O   0  0  0  0  0  0  0  0  0  0  0  0
   -5.9889    3.6140   25.8625 O   0  0  0  0  0  0  0  0  0  0  0  0
   -6.3229    8.3233   30.1196 N   0  0  0  0  0  0  0  0  0  0  0  0
   -7.3196    9.3138   30.4153 C   0  0  2  0  0  0  0  0  0  0  0  0
   -7.8146    9.3828   31.7678 C   0  0  0  0  0  0  0  0  0  0  0  0
   -7.3345   10.3181   32.5005 O   0  0  0  0  0  0  0  0  0  0  0  0
   -8.4466    9.3047   29.4145 C   0  0  0  0  0  0  0  0  0  0  0  0
   -8.0907    9.2060   28.0181 C   0  0  0  0  0  0  0  0  0  0  0  0
   -7.0496    9.9468   27.4437 C   0  0  0  0  0  0  0  0  0  0  0  0
   -8.7764    8.3806   27.1704 C   0  0  0  0  0  0  0  0  0  0  0  0
   -6.7092    9.8759   26.1198 C   0  0  0  0  0  0  0  0  0  0  0  0
   -8.4521    8.2865   25.8151 C   0  0  0  0  0  0  0  0  0  0  0  0
   -7.4194    9.0308   25.2817 C   0  0  0  0  0  0  0  0  0  0  0  0
   -8.7552    8.5476   32.3744 N   0  0  0  0  0  0  0  0  0  0  0  0
   -8.6914    8.2053   33.7583 C   0  0  0  0  0  0  0  0  0  0  0  0
   -7.4685    7.5458   34.2202 C   0  0  0  0  0  0  0  0  0  0  0  0
   -6.8200    6.7849   33.4942 O   0  0  0  0  0  0  0  0  0  0  0  0
   -6.9470    7.7394   35.5462 N   0  0  0  0  0  0  0  0  0  0  0  0
   -6.7697    6.5755   36.4335 C   0  0  0  0  0  0  0  0  0  0  0  0
   -6.7539    5.3346   35.6076 C   0  0  0  0  0  0  0  0  0  0  0  0
   -7.8177    5.0144   34.9994 O   0  0  0  0  0  0  0  0  0  0  0  0
   -5.6569    4.4766   35.4436 N   0  0  0  0  0  0  0  0  0  0  0  0
   -5.6598    3.3837   34.4573 C   0  0  2  0  0  0  0  0  0  0  0  0
   -4.4978    3.4788   33.5730 C   0  0  0  0  0  0  0  0  0  0  0  0
   -3.4284    4.0884   33.9025 O   0  0  0  0  0  0  0  0  0  0  0  0
   -6.9878    3.2404   33.7978 C   0  0  0  0  0  0  0  0  0  0  0  0
   -7.6459    2.0022   34.2437 C   0  0  0  0  0  0  0  0  0  0  0  0
   -8.8587    1.6154   33.6973 C   0  0  0  0  0  0  0  0  0  0  0  0
   -7.0935    1.1779   35.1940 C   0  0  0  0  0  0  0  0  0  0  0  0
   -9.4946    0.4509   34.0847 C   0  0  0  0  0  0  0  0  0  0  0  0
   -7.7357   -0.0016   35.5878 C   0  0  0  0  0  0  0  0  0  0  0  0
   -8.9292   -0.3657   35.0382 C   0  0  0  0  0  0  0  0  0  0  0  0
   -9.5572   -1.5581   35.4515 O   0  0  0  0  0  0  0  0  0  0  0  0
   -4.4994    2.9042   32.3230 O   0  0  0  0  0  0  0  0  0  0  0  0
   -0.6668   -5.1147   21.4892 H   0  0  0  0  0  0  0  0  0  0  0  0
   -2.5367   -4.9153   31.8953 H   0  0  0  0  0  0  0  0  0  0  0  0
  2  1  1  1
  2  3  1  0
  2  5  1  0
  3  4  2  0
  3 10  1  0
  5  6  1  0
  6  7  1  0
  7  8  1  0
  7  9  2  0
 11 10  1  6
 11 12  1  0
 11 14  1  0
 12 13  2  0
 12 18  1  0
 14 15  1  0
 14 16  1  1
 15 17  1  0
 18 19  1  0
 19 20  1  0
 19 22  1  6
 20 21  2  0
 20 29  1  0
 22 23  1  0
 23 24  1  0
 24 25  1  0
 25 26  1  0
 26 27  1  0
 26 28  2  0
 29 30  1  0
 30 31  1  0
 30 33  1  6
 31 32  2  0
 31 40  1  0
 33 34  1  0
 34 35  1  0
 35 36  1  0
 36 37  1  0
 37 38  1  0
 37 39  2  0
 41 40  1  1
 41 42  1  0
 41 44  1  0
 42 43  2  0
 42 47  1  0
 44 45  1  6
 44 46  1  0
 47 48  1  0
 47 53  1  0
 48 49  1  1
 48 51  1  0
 49 50  2  0
 49 54  1  0
 51 52  1  0
 52 53  1  0
 54 55  1  0
 55 56  1  0
 55 58  1  1
 56 57  2  0
 56 63  1  0
 58 59  1  0
 59 60  1  0
 60 61  2  0
 60 62  1  0
 63 64  1  0
 64 65  1  0
 64 67  1  6
 65 66  2  0
 65 74  1  0
 67 68  1  0
 68 69  2  0
 68 70  1  0
 69 71  1  0
 70 72  2  0
 71 73  2  0
 72 73  1  0
 74 75  1  0
 75 76  1  0
 76 77  2  0
 76 78  1  0
 78 79  1  0
 79 80  1  0
 80 81  2  0
 80 82  1  0
 82 83  1  0
 83 84  1  0
 83 86  1  6
 84 85  2  0
 84 94  1  0
 86 87  1  0
 87 88  2  0
 87 89  1  0
 88 90  1  0
 89 91  2  0
 90 92  2  0
 91 92  1  0
 92 93  1  0
 28 95  1  0
 39 96  1  0
M  CHG  1   1   1
M  END
$$$$
