
     RDKit          3D

 96 98  0  0  0  0  0  0  0  0999 V2000
    2.4374   -4.5333   27.4341 N   0  0  0  0  0  4  0  0  0  0  0  0
    1.9525   -5.5906   26.6095 C   0  0  2  0  0  0  0  0  0  0  0  0
    0.4510   -5.7185   26.7900 C   0  0  0  0  0  0  0  0  0  0  0  0
   -0.1192   -6.5889   26.0758 O   0  0  0  0  0  0  0  0  0  0  0  0
    2.5016   -6.9269   26.9662 C   0  0  0  0  0  0  0  0  0  0  0  0
    2.2614   -7.5163   28.2803 C   0  0  0  0  0  0  0  0  0  0  0  0
    2.7649   -8.8099   28.6649 C   0  0  0  0  0  0  0  0  0  0  0  0
    2.3111   -9.3462   29.9051 O   0  0  0  0  0  0  0  0  0  0  0  0
    3.5586   -9.5410   28.0531 O   0  0  0  0  0  0  0  0  0  0  0  0
   -0.2530   -4.8975   27.7157 N   0  0  0  0  0  0  0  0  0  0  0  0
   -1.6805   -4.7218   27.5258 C   0  0  2  0  0  0  0  0  0  0  0  0
   -2.1066   -4.5849   26.1351 C   0  0  0  0  0  0  0  0  0  0  0  0
   -1.2030   -4.6400   25.2386 O   0  0  0  0  0  0  0  0  0  0  0  0
   -2.0743   -3.4396   28.2733 C   0  0  2  0  0  0  0  0  0  0  0  0
   -1.7553   -3.4503   29.7231 C   0  0  0  0  0  0  0  0  0  0  0  0
   -3.6007   -3.3407   28.1467 C   0  0  0  0  0  0  0  0  0  0  0  0
   -2.2735   -2.1025   30.2730 C   0  0  0  0  0  0  0  0  0  0  0  0
   -3.4743   -4.3990   25.7691 N   0  0  0  0  0  0  0  0  0  0  0  0
   -3.8055   -3.9865   24.4412 C   0  0  2  0  0  0  0  0  0  0  0  0
   -5.0944   -3.2233   24.3544 C   0  0  0  0  0  0  0  0  0  0  0  0
   -6.1655   -3.8261   24.2795 O   0  0  0  0  0  0  0  0  0  0  0  0
   -3.7108   -5.0217   23.3814 C   0  0  0  0  0  0  0  0  0  0  0  0
   -3.3875   -6.4065   23.6830 C   0  0  0  0  0  0  0  0  0  0  0  0
   -3.0270   -6.8400   25.0384 C   0  0  0  0  0  0  0  0  0  0  0  0
   -1.8525   -7.6819   25.0680 N   0  0  0  0  0  0  0  0  0  0  0  0
   -1.1355   -7.9132   26.2698 C   0  0  0  0  0  0  0  0  0  0  0  0
   -1.4342   -9.0329   27.1031 N   0  0  0  0  0  0  0  0  0  0  0  0
   -0.1901   -7.1285   26.6741 N   0  0  0  0  0  0  0  0  0  0  0  0
   -5.1061   -1.8020   24.3571 N   0  0  0  0  0  0  0  0  0  0  0  0
   -4.5707   -0.9609   23.3359 C   0  0  2  0  0  0  0  0  0  0  0  0
   -4.2280    0.4053   23.7012 C   0  0  0  0  0  0  0  0  0  0  0  0
   -3.6377    1.1773   22.8440 O   0  0  0  0  0  0  0  0  0  0  0  0
   -5.3824   -0.9946   22.0507 C   0  0  0  0  0  0  0  0  0  0  0  0
   -4.6701   -1.7067   20.9617 C   0  0  0  0  0  0  0  0  0  0  0  0
   -5.3781   -1.7378   19.6348 C   0  0  0  0  0  0  0  0  0  0  0  0
   -5.1116   -3.0603   19.0403 N   0  0  0  0  0  0  0  0  0  0  0  0
   -5.7684   -3.3897   17.8003 C   0  0  0  0  0  0  0  0  0  0  0  0
   -5.0472   -3.8812   16.6916 N   0  0  0  0  0  0  0  0  0  0  0  0
   -7.0640   -3.2134   17.7515 N   0  0  0  0  0  0  0  0  0  0  0  0
   -4.4744    1.0299   24.9465 N   0  0  0  0  0  0  0  0  0  0  0  0
   -5.8619    1.4475   25.2843 C   0  0  2  0  0  0  0  0  0  0  0  0
   -5.8054    2.0347   26.6388 C   0  0  0  0  0  0  0  0  0  0  0  0
   -5.5051    1.2738   27.6446 O   0  0  0  0  0  0  0  0  0  0  0  0
   -6.5883    0.0892   25.3058 C   0  0  1  0  0  0  0  0  0  0  0  0
   -7.9845    0.2529   25.7914 C   0  0  0  0  0  0  0  0  0  0  0  0
   -6.4518   -0.7014   24.0638 C   0  0  0  0  0  0  0  0  0  0  0  0
   -6.0458    3.3834   26.9776 N   0  0  0  0  0  0  0  0  0  0  0  0
   -5.0524    4.4344   27.0040 C   0  0  2  0  0  0  0  0  0  0  0  0
   -4.2775    4.3060   28.2930 C   0  0  0  0  0  0  0  0  0  0  0  0
   -3.2369    4.9924   28.4587 O   0  0  0  0  0  0  0  0  0  0  0  0
   -5.7917    5.7488   26.9646 C   0  0  0  0  0  0  0  0  0  0  0  0
   -7.1828    5.4351   27.4050 C   0  0  0  0  0  0  0  0  0  0  0  0
   -7.3097    3.9559   27.3408 C   0  0  0  0  0  0  0  0  0  0  0  0
   -4.6365    3.4513   29.3630 N   0  0  0  0  0  0  0  0  0  0  0  0
   -4.5618    3.9212   30.7544 C   0  0  2  0  0  0  0  0  0  0  0  0
   -5.4880    5.0360   31.0346 C   0  0  0  0  0  0  0  0  0  0  0  0
   -5.7652    5.7789   30.0406 O   0  0  0  0  0  0  0  0  0  0  0  0
   -3.1128    4.3210   31.0387 C   0  0  0  0  0  0  0  0  0  0  0  0
   -2.3191    4.3677   29.7856 C   0  0  0  0  0  0  0  0  0  0  0  0
   -1.3883    5.5110   29.7061 C   0  0  0  0  0  0  0  0  0  0  0  0
   -1.6277    6.6356   30.1909 O   0  0  0  0  0  0  0  0  0  0  0  0
   -0.1464    5.3837   29.0595 O   0  0  0  0  0  0  0  0  0  0  0  0
   -6.0896    5.3638   32.2538 N   0  0  0  0  0  0  0  0  0  0  0  0
   -7.4988    5.6263   32.3361 C   0  0  2  0  0  0  0  0  0  0  0  0
   -8.0321    6.0260   33.6148 C   0  0  0  0  0  0  0  0  0  0  0  0
   -8.7298    5.1498   34.2373 O   0  0  0  0  0  0  0  0  0  0  0  0
   -8.3207    4.5264   31.7144 C   0  0  0  0  0  0  0  0  0  0  0  0
   -9.7050    4.8186   31.4233 C   0  0  0  0  0  0  0  0  0  0  0  0
  -10.7339    4.6362   32.3563 C   0  0  0  0  0  0  0  0  0  0  0  0
  -10.0866    5.2812   30.1943 C   0  0  0  0  0  0  0  0  0  0  0  0
  -12.0519    4.8942   32.0918 C   0  0  0  0  0  0  0  0  0  0  0  0
  -11.4233    5.5539   29.8949 C   0  0  0  0  0  0  0  0  0  0  0  0
  -12.4125    5.3632   30.8385 C   0  0  0  0  0  0  0  0  0  0  0  0
   -7.8790    7.2581   34.2541 N   0  0  0  0  0  0  0  0  0  0  0  0
   -8.8907    8.2641   34.2239 C   0  0  0  0  0  0  0  0  0  0  0  0
  -10.1704    7.9335   34.8538 C   0  0  0  0  0  0  0  0  0  0  0  0
  -10.4304    6.7922   35.2499 O   0  0  0  0  0  0  0  0  0  0  0  0
  -11.2047    8.9131   35.0490 N   0  0  0  0  0  0  0  0  0  0  0  0
  -10.8545   10.3450   35.0653 C   0  0  0  0  0  0  0  0  0  0  0  0
  -12.1071   11.1494   35.1439 C   0  0  0  0  0  0  0  0  0  0  0  0
  -13.1887   10.5978   34.7833 O   0  0  0  0  0  0  0  0  0  0  0  0
  -12.1982   12.4783   35.5821 N   0  0  0  0  0  0  0  0  0  0  0  0
  -12.8689   12.8421   36.8412 C   0  0  2  0  0  0  0  0  0  0  0  0
  -12.9109   14.2954   37.0065 C   0  0  0  0  0  0  0  0  0  0  0  0
  -11.8767   15.0320   36.8980 O   0  0  0  0  0  0  0  0  0  0  0  0
  -12.3433   12.0563   37.9924 C   0  0  0  0  0  0  0  0  0  0  0  0
  -13.1799   10.8677   38.2209 C   0  0  0  0  0  0  0  0  0  0  0  0
  -13.9940   10.3775   37.2130 C   0  0  0  0  0  0  0  0  0  0  0  0
  -13.1832   10.1905   39.4163 C   0  0  0  0  0  0  0  0  0  0  0  0
  -14.7803    9.2550   37.3919 C   0  0  0  0  0  0  0  0  0  0  0  0
  -13.9787    9.0538   39.5998 C   0  0  0  0  0  0  0  0  0  0  0  0
  -14.7735    8.5862   38.5955 C   0  0  0  0  0  0  0  0  0  0  0  0
  -15.5664    7.4396   38.8042 O   0  0  0  0  0  0  0  0  0  0  0  0
  -14.0869   14.9510   37.2892 O   0  0  0  0  0  0  0  0  0  0  0  0
    0.3086   -7.2361   27.5693 H   0  0  0  0  0  0  0  0  0  0  0  0
   -7.5069   -3.3872   16.8141 H   0  0  0  0  0  0  0  0  0  0  0  0
  2  1  1  1
  2  3  1  0
  2  5  1  0
  3  4  2  0
  3 10  1  0
  5  6  1  0
  6  7  1  0
  7  8  1  0
  7  9  2  0
 11 10  1  6
 11 12  1  0
 11 14  1  0
 12 13  2  0
 12 18  1  0
 14 15  1  0
 14 16  1  1
 15 17  1  0
 18 19  1  0
 19 20  1  0
 19 22  1  6
 20 21  2  0
 20 29  1  0
 22 23  1  0
 23 24  1  0
 24 25  1  0
 25 26  1  0
 26 27  1  0
 26 28  2  0
 29 30  1  0
 30 31  1  0
 30 33  1  6
 31 32  2  0
 31 40  1  0
 33 34  1  0
 34 35  1  0
 35 36  1  0
 36 37  1  0
 37 38  1  0
 37 39  2  0
 41 40  1  1
 41 42  1  0
 41 44  1  0
 42 43  2  0
 42 47  1  0
 44 45  1  6
 44 46  1  0
 47 48  1  0
 47 53  1  0
 48 49  1  1
 48 51  1  0
 49 50  2  0
 49 54  1  0
 51 52  1  0
 52 53  1  0
 54 55  1  0
 55 56  1  0
 55 58  1  6
 56 57  2  0
 56 63  1  0
 58 59  1  0
 59 60  1  0
 60 61  2  0
 60 62  1  0
 63 64  1  0
 64 65  1  0
 64 67  1  1
 65 66  2  0
 65 74  1  0
 67 68  1  0
 68 69  2  0
 68 70  1  0
 69 71  1  0
 70 72  2  0
 71 73  2  0
 72 73  1  0
 74 75  1  0
 75 76  1  0
 76 77  2  0
 76 78  1  0
 78 79  1  0
 79 80  1  0
 80 81  2  0
 80 82  1  0
 82 83  1  0
 83 84  1  0
 83 86  1  1
 84 85  2  0
 84 94  1  0
 86 87  1  0
 87 88  2  0
 87 89  1  0
 88 90  1  0
 89 91  2  0
 90 92  2  0
 91 92  1  0
 92 93  1  0
 28 95  1  0
 39 96  1  0
M  CHG  1   1   1
M  END
$$$$
