
     RDKit          3D

 96 98  0  0  0  0  0  0  0  0999 V2000
    4.3498   -4.2306   26.2991 N   0  0  0  0  0  4  0  0  0  0  0  0
    4.1801   -4.4374   24.8986 C   0  0  2  0  0  0  0  0  0  0  0  0
    2.7360   -4.8107   24.6184 C   0  0  0  0  0  0  0  0  0  0  0  0
    2.5579   -5.8651   23.9480 O   0  0  0  0  0  0  0  0  0  0  0  0
    4.9848   -5.5669   24.3592 C   0  0  0  0  0  0  0  0  0  0  0  0
    4.3930   -6.5558   23.4625 C   0  0  0  0  0  0  0  0  0  0  0  0
    5.1343   -7.2087   22.4142 C   0  0  0  0  0  0  0  0  0  0  0  0
    4.8261   -8.5747   22.1482 O   0  0  0  0  0  0  0  0  0  0  0  0
    6.0266   -6.7374   21.6927 O   0  0  0  0  0  0  0  0  0  0  0  0
    1.6611   -4.0073   25.0937 N   0  0  0  0  0  0  0  0  0  0  0  0
    0.3192   -4.3243   24.6427 C   0  0  2  0  0  0  0  0  0  0  0  0
   -0.6158   -3.2018   24.6480 C   0  0  0  0  0  0  0  0  0  0  0  0
   -0.1841   -2.0833   25.0794 O   0  0  0  0  0  0  0  0  0  0  0  0
   -0.2255   -5.4028   25.5903 C   0  0  2  0  0  0  0  0  0  0  0  0
   -0.4203   -4.9499   26.9906 C   0  0  0  0  0  0  0  0  0  0  0  0
    0.8411   -6.5061   25.6160 C   0  0  0  0  0  0  0  0  0  0  0  0
   -0.9628   -6.1789   27.7537 C   0  0  0  0  0  0  0  0  0  0  0  0
   -1.9629   -3.3263   24.1910 N   0  0  0  0  0  0  0  0  0  0  0  0
   -2.5923   -2.2294   23.5247 C   0  0  2  0  0  0  0  0  0  0  0  0
   -3.4606   -1.3999   24.4242 C   0  0  0  0  0  0  0  0  0  0  0  0
   -3.3685   -0.1721   24.4113 O   0  0  0  0  0  0  0  0  0  0  0  0
   -3.2699   -2.5340   22.2395 C   0  0  0  0  0  0  0  0  0  0  0  0
   -2.7922   -3.5742   21.3434 C   0  0  0  0  0  0  0  0  0  0  0  0
   -3.6099   -4.7480   21.0139 C   0  0  0  0  0  0  0  0  0  0  0  0
   -3.4489   -5.1816   19.6446 N   0  0  0  0  0  0  0  0  0  0  0  0
   -4.5119   -5.0959   18.7093 C   0  0  0  0  0  0  0  0  0  0  0  0
   -5.6180   -5.9963   18.7653 N   0  0  0  0  0  0  0  0  0  0  0  0
   -4.5326   -4.2140   17.7634 N   0  0  0  0  0  0  0  0  0  0  0  0
   -4.3991   -2.0081   25.3014 N   0  0  0  0  0  0  0  0  0  0  0  0
   -5.1241   -1.3459   26.3372 C   0  0  2  0  0  0  0  0  0  0  0  0
   -5.4559    0.0564   26.1349 C   0  0  0  0  0  0  0  0  0  0  0  0
   -5.1713    0.6347   25.0107 O   0  0  0  0  0  0  0  0  0  0  0  0
   -4.5294   -1.5719   27.7182 C   0  0  0  0  0  0  0  0  0  0  0  0
   -4.0182   -2.9545   27.8839 C   0  0  0  0  0  0  0  0  0  0  0  0
   -5.0400   -3.9795   28.2938 C   0  0  0  0  0  0  0  0  0  0  0  0
   -4.8525   -4.2149   29.7371 N   0  0  0  0  0  0  0  0  0  0  0  0
   -5.8538   -3.7076   30.6412 C   0  0  0  0  0  0  0  0  0  0  0  0
   -6.0185   -2.3230   30.8578 N   0  0  0  0  0  0  0  0  0  0  0  0
   -6.6035   -4.5904   31.2499 N   0  0  0  0  0  0  0  0  0  0  0  0
   -6.0872    0.9141   27.0663 N   0  0  0  0  0  0  0  0  0  0  0  0
   -6.9228    2.0379   26.5639 C   0  0  2  0  0  0  0  0  0  0  0  0
   -7.0322    3.0080   27.6728 C   0  0  0  0  0  0  0  0  0  0  0  0
   -7.8371    2.7537   28.6567 O   0  0  0  0  0  0  0  0  0  0  0  0
   -8.2684    1.3279   26.3222 C   0  0  1  0  0  0  0  0  0  0  0  0
   -9.3910    2.3008   26.3949 C   0  0  0  0  0  0  0  0  0  0  0  0
   -8.2921    0.4400   25.1401 C   0  0  0  0  0  0  0  0  0  0  0  0
   -6.3302    4.2264   27.7919 N   0  0  0  0  0  0  0  0  0  0  0  0
   -5.8926    4.8278   29.0325 C   0  0  2  0  0  0  0  0  0  0  0  0
   -7.0821    5.5153   29.6579 C   0  0  0  0  0  0  0  0  0  0  0  0
   -7.4818    6.6097   29.1846 O   0  0  0  0  0  0  0  0  0  0  0  0
   -4.8248    5.8360   28.6879 C   0  0  0  0  0  0  0  0  0  0  0  0
   -5.0170    6.1381   27.2390 C   0  0  0  0  0  0  0  0  0  0  0  0
   -5.9142    5.0762   26.7140 C   0  0  0  0  0  0  0  0  0  0  0  0
   -7.8067    5.0145   30.7664 N   0  0  0  0  0  0  0  0  0  0  0  0
   -7.7555    5.7003   32.0662 C   0  0  2  0  0  0  0  0  0  0  0  0
   -8.7061    6.8257   32.1596 C   0  0  0  0  0  0  0  0  0  0  0  0
   -8.8762    7.3018   33.3263 O   0  0  0  0  0  0  0  0  0  0  0  0
   -6.3176    6.1703   32.2938 C   0  0  0  0  0  0  0  0  0  0  0  0
   -6.2253    7.6498   32.2247 C   0  0  0  0  0  0  0  0  0  0  0  0
   -5.9296    8.2946   33.5196 C   0  0  0  0  0  0  0  0  0  0  0  0
   -6.8067    8.6760   34.3210 O   0  0  0  0  0  0  0  0  0  0  0  0
   -4.6022    8.5172   33.9258 O   0  0  0  0  0  0  0  0  0  0  0  0
   -9.4317    7.4221   31.1234 N   0  0  0  0  0  0  0  0  0  0  0  0
  -10.3244    8.5169   31.3807 C   0  0  2  0  0  0  0  0  0  0  0  0
  -10.7993    8.6906   32.7311 C   0  0  0  0  0  0  0  0  0  0  0  0
  -11.5128    9.7320   32.9519 O   0  0  0  0  0  0  0  0  0  0  0  0
  -11.4550    8.5763   30.3858 C   0  0  0  0  0  0  0  0  0  0  0  0
  -12.6271    9.3327   30.7605 C   0  0  0  0  0  0  0  0  0  0  0  0
  -12.5917   10.7066   31.0319 C   0  0  0  0  0  0  0  0  0  0  0  0
  -13.8478    8.7291   30.8859 C   0  0  0  0  0  0  0  0  0  0  0  0
  -13.6899   11.4349   31.4023 C   0  0  0  0  0  0  0  0  0  0  0  0
  -14.9862    9.4458   31.2616 C   0  0  0  0  0  0  0  0  0  0  0  0
  -14.9159   10.7996   31.5215 C   0  0  0  0  0  0  0  0  0  0  0  0
  -10.5710    7.8574   33.8283 N   0  0  0  0  0  0  0  0  0  0  0  0
  -10.9977    8.1981   35.1468 C   0  0  0  0  0  0  0  0  0  0  0  0
  -12.4407    8.1988   35.3948 C   0  0  0  0  0  0  0  0  0  0  0  0
  -13.1322    7.1861   35.2431 O   0  0  0  0  0  0  0  0  0  0  0  0
  -13.1437    9.3762   35.8273 N   0  0  0  0  0  0  0  0  0  0  0  0
  -13.2679    9.6591   37.2687 C   0  0  0  0  0  0  0  0  0  0  0  0
  -13.2872   11.1356   37.4729 C   0  0  0  0  0  0  0  0  0  0  0  0
  -12.4175   11.8287   36.8669 O   0  0  0  0  0  0  0  0  0  0  0  0
  -14.1886   11.8357   38.2876 N   0  0  0  0  0  0  0  0  0  0  0  0
  -15.0391   12.9169   37.7631 C   0  0  2  0  0  0  0  0  0  0  0  0
  -15.7230   13.6148   38.8522 C   0  0  0  0  0  0  0  0  0  0  0  0
  -15.5724   13.2970   40.0771 O   0  0  0  0  0  0  0  0  0  0  0  0
  -15.8909   12.4492   36.6340 C   0  0  0  0  0  0  0  0  0  0  0  0
  -16.5835   13.5895   36.0135 C   0  0  0  0  0  0  0  0  0  0  0  0
  -17.7834   14.0488   36.5314 C   0  0  0  0  0  0  0  0  0  0  0  0
  -16.0767   14.2507   34.9210 C   0  0  0  0  0  0  0  0  0  0  0  0
  -18.4507   15.1262   35.9800 C   0  0  0  0  0  0  0  0  0  0  0  0
  -16.7507   15.3419   34.3610 C   0  0  0  0  0  0  0  0  0  0  0  0
  -17.9309   15.7795   34.8851 C   0  0  0  0  0  0  0  0  0  0  0  0
  -18.5916   16.8804   34.3033 O   0  0  0  0  0  0  0  0  0  0  0  0
  -16.5744   14.6671   38.6063 O   0  0  0  0  0  0  0  0  0  0  0  0
   -3.8485   -3.4492   17.6697 H   0  0  0  0  0  0  0  0  0  0  0  0
   -6.0829   -5.3392   31.7728 H   0  0  0  0  0  0  0  0  0  0  0  0
  2  1  1  1
  2  3  1  0
  2  5  1  0
  3  4  2  0
  3 10  1  0
  5  6  1  0
  6  7  1  0
  7  8  1  0
  7  9  2  0
 11 10  1  1
 11 12  1  0
 11 14  1  0
 12 13  2  0
 12 18  1  0
 14 15  1  0
 14 16  1  1
 15 17  1  0
 18 19  1  0
 19 20  1  0
 19 22  1  6
 20 21  2  0
 20 29  1  0
 22 23  1  0
 23 24  1  0
 24 25  1  0
 25 26  1  0
 26 27  1  0
 26 28  2  0
 29 30  1  0
 30 31  1  0
 30 33  1  1
 31 32  2  0
 31 40  1  0
 33 34  1  0
 34 35  1  0
 35 36  1  0
 36 37  1  0
 37 38  1  0
 37 39  2  0
 41 40  1  1
 41 42  1  0
 41 44  1  0
 42 43  2  0
 42 47  1  0
 44 45  1  6
 44 46  1  0
 47 48  1  0
 47 53  1  0
 48 49  1  6
 48 51  1  0
 49 50  2  0
 49 54  1  0
 51 52  1  0
 52 53  1  0
 54 55  1  0
 55 56  1  0
 55 58  1  6
 56 57  2  0
 56 63  1  0
 58 59  1  0
 59 60  1  0
 60 61  2  0
 60 62  1  0
 63 64  1  0
 64 65  1  0
 64 67  1  6
 65 66  2  0
 65 74  1  0
 67 68  1  0
 68 69  2  0
 68 70  1  0
 69 71  1  0
 70 72  2  0
 71 73  2  0
 72 73  1  0
 74 75  1  0
 75 76  1  0
 76 77  2  0
 76 78  1  0
 78 79  1  0
 79 80  1  0
 80 81  2  0
 80 82  1  0
 82 83  1  0
 83 84  1  0
 83 86  1  6
 84 85  2  0
 84 94  1  0
 86 87  1  0
 87 88  2  0
 87 89  1  0
 88 90  1  0
 89 91  2  0
 90 92  2  0
 91 92  1  0
 92 93  1  0
 28 95  1  0
 39 96  1  0
M  CHG  1   1   1
M  END
$$$$
