
     RDKit          3D

 96 98  0  0  0  0  0  0  0  0999 V2000
   -1.6330   -5.5178   27.2736 N   0  0  0  0  0  4  0  0  0  0  0  0
   -0.3330   -5.3554   26.7109 C   0  0  2  0  0  0  0  0  0  0  0  0
   -0.4494   -4.6357   25.3798 C   0  0  0  0  0  0  0  0  0  0  0  0
    0.5866   -4.0323   24.9854 O   0  0  0  0  0  0  0  0  0  0  0  0
    0.3483   -6.6411   26.3988 C   0  0  0  0  0  0  0  0  0  0  0  0
    0.4761   -7.1141   25.0233 C   0  0  0  0  0  0  0  0  0  0  0  0
    1.4760   -8.0647   24.6093 C   0  0  0  0  0  0  0  0  0  0  0  0
    1.4328   -8.5122   23.2567 O   0  0  0  0  0  0  0  0  0  0  0  0
    2.3921   -8.5617   25.2819 O   0  0  0  0  0  0  0  0  0  0  0  0
   -1.6628   -4.6538   24.6354 N   0  0  0  0  0  0  0  0  0  0  0  0
   -2.6247   -3.5935   24.8700 C   0  0  2  0  0  0  0  0  0  0  0  0
   -2.9452   -3.3494   26.2743 C   0  0  0  0  0  0  0  0  0  0  0  0
   -2.4892   -4.1758   27.1302 O   0  0  0  0  0  0  0  0  0  0  0  0
   -3.9186   -3.9991   24.1494 C   0  0  2  0  0  0  0  0  0  0  0  0
   -4.7512   -2.8585   23.6916 C   0  0  0  0  0  0  0  0  0  0  0  0
   -4.7431   -4.7733   25.1870 C   0  0  0  0  0  0  0  0  0  0  0  0
   -5.8848   -3.4832   22.8479 C   0  0  0  0  0  0  0  0  0  0  0  0
   -3.7330   -2.2359   26.6967 N   0  0  0  0  0  0  0  0  0  0  0  0
   -3.8774   -1.9546   28.0907 C   0  0  2  0  0  0  0  0  0  0  0  0
   -4.8431   -0.8437   28.3813 C   0  0  0  0  0  0  0  0  0  0  0  0
   -5.3550   -0.7461   29.4970 O   0  0  0  0  0  0  0  0  0  0  0  0
   -2.6235   -1.8072   28.8715 C   0  0  0  0  0  0  0  0  0  0  0  0
   -1.7838   -0.6252   28.7658 C   0  0  0  0  0  0  0  0  0  0  0  0
   -0.6995   -0.3581   29.7187 C   0  0  0  0  0  0  0  0  0  0  0  0
   -0.9600   -0.8951   31.0351 N   0  0  0  0  0  0  0  0  0  0  0  0
   -1.4687   -0.0826   32.0805 C   0  0  0  0  0  0  0  0  0  0  0  0
   -1.8453    1.2737   31.8439 N   0  0  0  0  0  0  0  0  0  0  0  0
   -1.6099   -0.5184   33.2901 N   0  0  0  0  0  0  0  0  0  0  0  0
   -5.1839    0.1105   27.3846 N   0  0  0  0  0  0  0  0  0  0  0  0
   -5.2383    1.5250   27.5671 C   0  0  2  0  0  0  0  0  0  0  0  0
   -5.7246    2.3282   26.4555 C   0  0  0  0  0  0  0  0  0  0  0  0
   -4.9606    3.2294   25.9233 O   0  0  0  0  0  0  0  0  0  0  0  0
   -3.9511    2.1018   28.1347 C   0  0  0  0  0  0  0  0  0  0  0  0
   -2.9635    2.4097   27.0716 C   0  0  0  0  0  0  0  0  0  0  0  0
   -1.8611    3.3551   27.4638 C   0  0  0  0  0  0  0  0  0  0  0  0
   -0.5887    2.6810   27.1474 N   0  0  0  0  0  0  0  0  0  0  0  0
    0.4468    2.6847   28.1500 C   0  0  0  0  0  0  0  0  0  0  0  0
    1.4597    3.6669   28.1607 N   0  0  0  0  0  0  0  0  0  0  0  0
    0.4024    1.7362   29.0503 N   0  0  0  0  0  0  0  0  0  0  0  0
   -7.0001    2.2409   25.8495 N   0  0  0  0  0  0  0  0  0  0  0  0
   -7.7394    3.4935   25.5362 C   0  0  2  0  0  0  0  0  0  0  0  0
   -6.9971    4.5928   26.1868 C   0  0  0  0  0  0  0  0  0  0  0  0
   -6.4348    4.3815   27.3356 O   0  0  0  0  0  0  0  0  0  0  0  0
   -9.0798    3.2389   26.2514 C   0  0  1  0  0  0  0  0  0  0  0  0
   -9.9400    2.3371   25.4398 C   0  0  0  0  0  0  0  0  0  0  0  0
   -8.9555    2.8621   27.6758 C   0  0  0  0  0  0  0  0  0  0  0  0
   -6.8183    5.8976   25.6798 N   0  0  0  0  0  0  0  0  0  0  0  0
   -5.9000    6.8852   26.2029 C   0  0  2  0  0  0  0  0  0  0  0  0
   -6.5346    7.5058   27.4239 C   0  0  0  0  0  0  0  0  0  0  0  0
   -5.8743    8.3231   28.1150 O   0  0  0  0  0  0  0  0  0  0  0  0
   -5.7026    7.9251   25.1281 C   0  0  0  0  0  0  0  0  0  0  0  0
   -6.8711    7.7756   24.2118 C   0  0  0  0  0  0  0  0  0  0  0  0
   -7.4979    6.4728   24.5554 C   0  0  0  0  0  0  0  0  0  0  0  0
   -7.8514    7.2357   27.8685 N   0  0  0  0  0  0  0  0  0  0  0  0
   -8.1979    7.3450   29.2934 C   0  0  2  0  0  0  0  0  0  0  0  0
   -7.1999    8.1060   30.0704 C   0  0  0  0  0  0  0  0  0  0  0  0
   -6.0595    8.2301   29.5220 O   0  0  0  0  0  0  0  0  0  0  0  0
   -8.3669    5.9287   29.8464 C   0  0  0  0  0  0  0  0  0  0  0  0
   -9.4247    5.8874   30.8865 C   0  0  0  0  0  0  0  0  0  0  0  0
  -10.7065    5.3242   30.4179 C   0  0  0  0  0  0  0  0  0  0  0  0
  -10.8249    4.6342   29.3849 O   0  0  0  0  0  0  0  0  0  0  0  0
  -11.8946    5.5451   31.1363 O   0  0  0  0  0  0  0  0  0  0  0  0
   -7.3639    8.7005   31.3256 N   0  0  0  0  0  0  0  0  0  0  0  0
   -6.6180    8.2424   32.4639 C   0  0  2  0  0  0  0  0  0  0  0  0
   -7.3194    8.1157   33.7173 C   0  0  0  0  0  0  0  0  0  0  0  0
   -8.0533    9.1089   34.0596 O   0  0  0  0  0  0  0  0  0  0  0  0
   -5.3185    8.9874   32.6311 C   0  0  0  0  0  0  0  0  0  0  0  0
   -4.3809    8.9370   31.5334 C   0  0  0  0  0  0  0  0  0  0  0  0
   -3.1423    9.5911   31.5596 C   0  0  0  0  0  0  0  0  0  0  0  0
   -4.6698    8.2480   30.3880 C   0  0  0  0  0  0  0  0  0  0  0  0
   -2.2491    9.5654   30.5227 C   0  0  0  0  0  0  0  0  0  0  0  0
   -3.7785    8.2031   29.3135 C   0  0  0  0  0  0  0  0  0  0  0  0
   -2.5655    8.8592   29.3729 C   0  0  0  0  0  0  0  0  0  0  0  0
   -7.2910    7.0373   34.6041 N   0  0  0  0  0  0  0  0  0  0  0  0
   -8.4623    6.5656   35.2692 C   0  0  0  0  0  0  0  0  0  0  0  0
   -8.5787    5.1181   35.4556 C   0  0  0  0  0  0  0  0  0  0  0  0
   -7.7730    4.3260   34.9553 O   0  0  0  0  0  0  0  0  0  0  0  0
   -9.6373    4.5273   36.2290 N   0  0  0  0  0  0  0  0  0  0  0  0
  -10.6790    5.3916   36.8129 C   0  0  0  0  0  0  0  0  0  0  0  0
  -11.4023    4.6311   37.8716 C   0  0  0  0  0  0  0  0  0  0  0  0
  -12.4053    5.1811   38.4152 O   0  0  0  0  0  0  0  0  0  0  0  0
  -11.0675    3.3485   38.3290 N   0  0  0  0  0  0  0  0  0  0  0  0
  -11.8117    2.1497   37.9088 C   0  0  2  0  0  0  0  0  0  0  0  0
  -11.4070    0.9845   38.6959 C   0  0  0  0  0  0  0  0  0  0  0  0
  -10.2015    0.7795   39.0549 O   0  0  0  0  0  0  0  0  0  0  0  0
  -11.8042    1.9876   36.4280 C   0  0  0  0  0  0  0  0  0  0  0  0
  -12.7101    0.8980   36.0313 C   0  0  0  0  0  0  0  0  0  0  0  0
  -14.0682    1.1307   35.8885 C   0  0  0  0  0  0  0  0  0  0  0  0
  -12.2602   -0.3744   35.7738 C   0  0  0  0  0  0  0  0  0  0  0  0
  -14.9425    0.1318   35.5034 C   0  0  0  0  0  0  0  0  0  0  0  0
  -13.1437   -1.3873   35.3839 C   0  0  0  0  0  0  0  0  0  0  0  0
  -14.4774   -1.1388   35.2485 C   0  0  0  0  0  0  0  0  0  0  0  0
  -15.3478   -2.1754   34.8550 O   0  0  0  0  0  0  0  0  0  0  0  0
  -12.3211    0.0378   39.0970 O   0  0  0  0  0  0  0  0  0  0  0  0
   -0.8485   -0.5601   33.9831 H   0  0  0  0  0  0  0  0  0  0  0  0
   -0.5621    1.4483   29.3537 H   0  0  0  0  0  0  0  0  0  0  0  0
  2  1  1  6
  2  3  1  0
  2  5  1  0
  3  4  2  0
  3 10  1  0
  5  6  1  0
  6  7  1  0
  7  8  1  0
  7  9  2  0
 11 10  1  1
 11 12  1  0
 11 14  1  0
 12 13  2  0
 12 18  1  0
 14 15  1  0
 14 16  1  1
 15 17  1  0
 18 19  1  0
 19 20  1  0
 19 22  1  6
 20 21  2  0
 20 29  1  0
 22 23  1  0
 23 24  1  0
 24 25  1  0
 25 26  1  0
 26 27  1  0
 26 28  2  0
 29 30  1  0
 30 31  1  0
 30 33  1  6
 31 32  2  0
 31 40  1  0
 33 34  1  0
 34 35  1  0
 35 36  1  0
 36 37  1  0
 37 38  1  0
 37 39  2  0
 41 40  1  1
 41 42  1  0
 41 44  1  0
 42 43  2  0
 42 47  1  0
 44 45  1  6
 44 46  1  0
 47 48  1  0
 47 53  1  0
 48 49  1  1
 48 51  1  0
 49 50  2  0
 49 54  1  0
 51 52  1  0
 52 53  1  0
 54 55  1  0
 55 56  1  0
 55 58  1  1
 56 57  2  0
 56 63  1  0
 58 59  1  0
 59 60  1  0
 60 61  2  0
 60 62  1  0
 63 64  1  0
 64 65  1  0
 64 67  1  1
 65 66  2  0
 65 74  1  0
 67 68  1  0
 68 69  2  0
 68 70  1  0
 69 71  1  0
 70 72  2  0
 71 73  2  0
 72 73  1  0
 74 75  1  0
 75 76  1  0
 76 77  2  0
 76 78  1  0
 78 79  1  0
 79 80  1  0
 80 81  2  0
 80 82  1  0
 82 83  1  0
 83 84  1  0
 83 86  1  6
 84 85  2  0
 84 94  1  0
 86 87  1  0
 87 88  2  0
 87 89  1  0
 88 90  1  0
 89 91  2  0
 90 92  2  0
 91 92  1  0
 92 93  1  0
 28 95  1  0
 39 96  1  0
M  CHG  1   1   1
M  END
$$$$
