
     RDKit          3D

 96 98  0  0  0  0  0  0  0  0999 V2000
    1.0399   -6.0305   27.1041 N   0  0  0  0  0  4  0  0  0  0  0  0
    1.7008   -5.2861   26.0834 C   0  0  2  0  0  0  0  0  0  0  0  0
    0.6745   -4.4857   25.3026 C   0  0  0  0  0  0  0  0  0  0  0  0
    0.8222   -4.4711   24.0493 O   0  0  0  0  0  0  0  0  0  0  0  0
    2.3830   -6.1359   25.0701 C   0  0  0  0  0  0  0  0  0  0  0  0
    3.3732   -7.1340   25.4643 C   0  0  0  0  0  0  0  0  0  0  0  0
    4.4273   -7.5823   24.5908 C   0  0  0  0  0  0  0  0  0  0  0  0
    5.6488   -7.9953   25.1982 O   0  0  0  0  0  0  0  0  0  0  0  0
    4.4212   -7.6608   23.3528 O   0  0  0  0  0  0  0  0  0  0  0  0
   -0.3845   -3.8010   25.9632 N   0  0  0  0  0  0  0  0  0  0  0  0
   -1.1298   -2.8081   25.2127 C   0  0  2  0  0  0  0  0  0  0  0  0
   -2.1893   -2.1353   25.9604 C   0  0  0  0  0  0  0  0  0  0  0  0
   -3.3710   -2.5973   25.8439 O   0  0  0  0  0  0  0  0  0  0  0  0
   -1.7743   -3.5388   24.0258 C   0  0  2  0  0  0  0  0  0  0  0  0
   -2.5056   -2.6553   23.0832 C   0  0  0  0  0  0  0  0  0  0  0  0
   -2.8047   -4.4956   24.6409 C   0  0  0  0  0  0  0  0  0  0  0  0
   -3.0586   -3.5883   21.9827 C   0  0  0  0  0  0  0  0  0  0  0  0
   -1.9364   -1.0058   26.7968 N   0  0  0  0  0  0  0  0  0  0  0  0
   -3.0306   -0.2580   27.3321 C   0  0  2  0  0  0  0  0  0  0  0  0
   -4.0418    0.1471   26.3003 C   0  0  0  0  0  0  0  0  0  0  0  0
   -4.2739   -0.5886   25.3405 O   0  0  0  0  0  0  0  0  0  0  0  0
   -2.6857    0.8710   28.2323 C   0  0  0  0  0  0  0  0  0  0  0  0
   -1.5509    0.8152   29.1390 C   0  0  0  0  0  0  0  0  0  0  0  0
   -1.6924    0.3671   30.5298 C   0  0  0  0  0  0  0  0  0  0  0  0
   -2.1709    1.4073   31.4120 N   0  0  0  0  0  0  0  0  0  0  0  0
   -2.9298    1.1055   32.5717 C   0  0  0  0  0  0  0  0  0  0  0  0
   -4.0636    1.8920   32.9366 N   0  0  0  0  0  0  0  0  0  0  0  0
   -2.6350    0.1192   33.3549 N   0  0  0  0  0  0  0  0  0  0  0  0
   -4.7465    1.3767   26.4080 N   0  0  0  0  0  0  0  0  0  0  0  0
   -6.0114    1.5609   27.0430 C   0  0  2  0  0  0  0  0  0  0  0  0
   -6.0476    2.3816   28.2440 C   0  0  0  0  0  0  0  0  0  0  0  0
   -6.2112    1.8273   29.4038 O   0  0  0  0  0  0  0  0  0  0  0  0
   -6.7692    0.2589   27.2491 C   0  0  0  0  0  0  0  0  0  0  0  0
   -7.0603   -0.4242   25.9650 C   0  0  0  0  0  0  0  0  0  0  0  0
   -8.4682   -0.2766   25.4560 C   0  0  0  0  0  0  0  0  0  0  0  0
   -8.3993    0.5694   24.2506 N   0  0  0  0  0  0  0  0  0  0  0  0
   -9.3157    0.2893   23.1739 C   0  0  0  0  0  0  0  0  0  0  0  0
  -10.3042   -0.7109   23.2880 N   0  0  0  0  0  0  0  0  0  0  0  0
   -9.1891    1.0069   22.0871 N   0  0  0  0  0  0  0  0  0  0  0  0
   -5.9182    3.7892   28.3050 N   0  0  0  0  0  0  0  0  0  0  0  0
   -7.0508    4.5977   28.8316 C   0  0  2  0  0  0  0  0  0  0  0  0
   -7.4812    3.9491   30.0873 C   0  0  0  0  0  0  0  0  0  0  0  0
   -8.1122    2.8181   30.0294 O   0  0  0  0  0  0  0  0  0  0  0  0
   -8.1028    4.3994   27.7238 C   0  0  1  0  0  0  0  0  0  0  0  0
   -8.6676    3.0249   27.7820 C   0  0  0  0  0  0  0  0  0  0  0  0
   -9.1077    5.4799   27.6290 C   0  0  0  0  0  0  0  0  0  0  0  0
   -7.2726    4.4358   31.3954 N   0  0  0  0  0  0  0  0  0  0  0  0
   -8.1899    4.2890   32.5042 C   0  0  2  0  0  0  0  0  0  0  0  0
   -9.2731    5.3288   32.3490 C   0  0  0  0  0  0  0  0  0  0  0  0
   -8.9926    6.4399   31.8310 O   0  0  0  0  0  0  0  0  0  0  0  0
   -7.4047    4.5336   33.7688 C   0  0  0  0  0  0  0  0  0  0  0  0
   -6.1881    5.2852   33.3415 C   0  0  0  0  0  0  0  0  0  0  0  0
   -6.1180    5.1462   31.8636 C   0  0  0  0  0  0  0  0  0  0  0  0
  -10.6191    5.1510   32.7504 N   0  0  0  0  0  0  0  0  0  0  0  0
  -11.6066    6.2230   32.5555 C   0  0  2  0  0  0  0  0  0  0  0  0
  -11.2085    7.1876   31.5114 C   0  0  0  0  0  0  0  0  0  0  0  0
  -11.8260    7.0811   30.4050 O   0  0  0  0  0  0  0  0  0  0  0  0
  -11.8165    6.9195   33.9013 C   0  0  0  0  0  0  0  0  0  0  0  0
  -13.2398    7.2960   34.0881 C   0  0  0  0  0  0  0  0  0  0  0  0
  -13.5510    7.8211   35.4324 C   0  0  0  0  0  0  0  0  0  0  0  0
  -14.3960    8.7132   35.6503 O   0  0  0  0  0  0  0  0  0  0  0  0
  -12.8891    7.3253   36.5693 O   0  0  0  0  0  0  0  0  0  0  0  0
  -10.2420    8.1946   31.5995 N   0  0  0  0  0  0  0  0  0  0  0  0
  -10.3389    9.3844   30.8015 C   0  0  2  0  0  0  0  0  0  0  0  0
   -9.3047    9.6220   29.8252 C   0  0  0  0  0  0  0  0  0  0  0  0
   -9.4656   10.6410   29.0650 O   0  0  0  0  0  0  0  0  0  0  0  0
  -10.6022   10.6110   31.6368 C   0  0  0  0  0  0  0  0  0  0  0  0
  -10.6592   11.8800   30.9492 C   0  0  0  0  0  0  0  0  0  0  0  0
  -10.5151   12.0007   29.5609 C   0  0  0  0  0  0  0  0  0  0  0  0
  -10.8444   13.0482   31.6354 C   0  0  0  0  0  0  0  0  0  0  0  0
  -10.5519   13.1965   28.8958 C   0  0  0  0  0  0  0  0  0  0  0  0
  -10.8870   14.2833   30.9847 C   0  0  0  0  0  0  0  0  0  0  0  0
  -10.7418   14.3662   29.6145 C   0  0  0  0  0  0  0  0  0  0  0  0
   -8.1480    8.8699   29.6091 N   0  0  0  0  0  0  0  0  0  0  0  0
   -6.8446    9.4503   29.6359 C   0  0  0  0  0  0  0  0  0  0  0  0
   -6.1298    9.4107   30.9131 C   0  0  0  0  0  0  0  0  0  0  0  0
   -6.0769   10.3898   31.6651 O   0  0  0  0  0  0  0  0  0  0  0  0
   -5.4430    8.2334   31.3713 N   0  0  0  0  0  0  0  0  0  0  0  0
   -4.1531    8.3718   32.0713 C   0  0  0  0  0  0  0  0  0  0  0  0
   -3.6908    7.0230   32.5065 C   0  0  0  0  0  0  0  0  0  0  0  0
   -2.4431    6.8096   32.5481 O   0  0  0  0  0  0  0  0  0  0  0  0
   -4.5210    5.9546   32.8747 N   0  0  0  0  0  0  0  0  0  0  0  0
   -5.0062    4.9681   31.8954 C   0  0  2  0  0  0  0  0  0  0  0  0
   -4.0767    4.8515   30.7713 C   0  0  0  0  0  0  0  0  0  0  0  0
   -3.8478    3.7476   30.1773 O   0  0  0  0  0  0  0  0  0  0  0  0
   -6.4391    5.1899   31.5537 C   0  0  0  0  0  0  0  0  0  0  0  0
   -7.2911    4.2518   32.3013 C   0  0  0  0  0  0  0  0  0  0  0  0
   -6.7319    3.3609   33.2029 C   0  0  0  0  0  0  0  0  0  0  0  0
   -8.6570    4.2241   32.1558 C   0  0  0  0  0  0  0  0  0  0  0  0
   -7.5066    2.4774   33.9306 C   0  0  0  0  0  0  0  0  0  0  0  0
   -9.4433    3.3303   32.8916 C   0  0  0  0  0  0  0  0  0  0  0  0
   -8.8746    2.4609   33.7746 C   0  0  0  0  0  0  0  0  0  0  0  0
   -9.6873    1.5696   34.5040 O   0  0  0  0  0  0  0  0  0  0  0  0
   -3.3940    5.9443   30.2893 O   0  0  0  0  0  0  0  0  0  0  0  0
   -2.6126   -0.8678   33.0598 H   0  0  0  0  0  0  0  0  0  0  0  0
   -9.1501    0.4612   21.1894 H   0  0  0  0  0  0  0  0  0  0  0  0
  2  1  1  1
  2  3  1  0
  2  5  1  0
  3  4  2  0
  3 10  1  0
  5  6  1  0
  6  7  1  0
  7  8  1  0
  7  9  2  0
 11 10  1  1
 11 12  1  0
 11 14  1  0
 12 13  2  0
 12 18  1  0
 14 15  1  0
 14 16  1  1
 15 17  1  0
 18 19  1  0
 19 20  1  0
 19 22  1  6
 20 21  2  0
 20 29  1  0
 22 23  1  0
 23 24  1  0
 24 25  1  0
 25 26  1  0
 26 27  1  0
 26 28  2  0
 29 30  1  0
 30 31  1  0
 30 33  1  1
 31 32  2  0
 31 40  1  0
 33 34  1  0
 34 35  1  0
 35 36  1  0
 36 37  1  0
 37 38  1  0
 37 39  2  0
 41 40  1  6
 41 42  1  0
 41 44  1  0
 42 43  2  0
 42 47  1  0
 44 45  1  1
 44 46  1  0
 47 48  1  0
 47 53  1  0
 48 49  1  6
 48 51  1  0
 49 50  2  0
 49 54  1  0
 51 52  1  0
 52 53  1  0
 54 55  1  0
 55 56  1  0
 55 58  1  1
 56 57  2  0
 56 63  1  0
 58 59  1  0
 59 60  1  0
 60 61  2  0
 60 62  1  0
 63 64  1  0
 64 65  1  0
 64 67  1  1
 65 66  2  0
 65 74  1  0
 67 68  1  0
 68 69  2  0
 68 70  1  0
 69 71  1  0
 70 72  2  0
 71 73  2  0
 72 73  1  0
 74 75  1  0
 75 76  1  0
 76 77  2  0
 76 78  1  0
 78 79  1  0
 79 80  1  0
 80 81  2  0
 80 82  1  0
 82 83  1  0
 83 84  1  0
 83 86  1  6
 84 85  2  0
 84 94  1  0
 86 87  1  0
 87 88  2  0
 87 89  1  0
 88 90  1  0
 89 91  2  0
 90 92  2  0
 91 92  1  0
 92 93  1  0
 28 95  1  0
 39 96  1  0
M  CHG  1   1   1
M  END
$$$$
