
     RDKit          3D

 96 98  0  0  0  0  0  0  0  0999 V2000
   -2.0438   10.1484   26.5370 N   0  0  0  0  0  4  0  0  0  0  0  0
   -3.0280    9.1652   26.2245 C   0  0  2  0  0  0  0  0  0  0  0  0
   -3.1672    9.0569   24.7170 C   0  0  0  0  0  0  0  0  0  0  0  0
   -4.3217    8.7831   24.2870 O   0  0  0  0  0  0  0  0  0  0  0  0
   -4.3905    9.5056   26.7167 C   0  0  0  0  0  0  0  0  0  0  0  0
   -5.4347    8.4895   26.8133 C   0  0  0  0  0  0  0  0  0  0  0  0
   -5.9883    7.8205   25.6640 C   0  0  0  0  0  0  0  0  0  0  0  0
   -6.9028    6.7543   25.9053 O   0  0  0  0  0  0  0  0  0  0  0  0
   -5.7748    8.0473   24.4632 O   0  0  0  0  0  0  0  0  0  0  0  0
   -2.0505    9.2574   23.8571 N   0  0  0  0  0  0  0  0  0  0  0  0
   -1.1694    8.1323   23.6071 C   0  0  2  0  0  0  0  0  0  0  0  0
   -1.5224    6.9024   24.3119 C   0  0  0  0  0  0  0  0  0  0  0  0
   -1.9517    7.0155   25.5062 O   0  0  0  0  0  0  0  0  0  0  0  0
    0.2342    8.5566   24.0627 C   0  0  2  0  0  0  0  0  0  0  0  0
    0.6849    9.8661   23.5279 C   0  0  0  0  0  0  0  0  0  0  0  0
    1.1879    7.4893   23.5086 C   0  0  0  0  0  0  0  0  0  0  0  0
    2.1200   10.0633   24.0654 C   0  0  0  0  0  0  0  0  0  0  0  0
   -1.4032    5.6138   23.7083 N   0  0  0  0  0  0  0  0  0  0  0  0
   -1.2630    4.4531   24.5307 C   0  0  2  0  0  0  0  0  0  0  0  0
   -0.3143    4.6422   25.6777 C   0  0  0  0  0  0  0  0  0  0  0  0
    0.8106    4.1429   25.6378 O   0  0  0  0  0  0  0  0  0  0  0  0
   -1.0227    3.1673   23.8289 C   0  0  0  0  0  0  0  0  0  0  0  0
   -1.5747    2.8925   22.5124 C   0  0  0  0  0  0  0  0  0  0  0  0
   -3.0061    2.6362   22.3112 C   0  0  0  0  0  0  0  0  0  0  0  0
   -3.2640    1.6441   21.2922 N   0  0  0  0  0  0  0  0  0  0  0  0
   -4.4996    0.9505   21.2278 C   0  0  0  0  0  0  0  0  0  0  0  0
   -5.7120    1.6318   20.9064 N   0  0  0  0  0  0  0  0  0  0  0  0
   -4.5945   -0.3182   21.4610 N   0  0  0  0  0  0  0  0  0  0  0  0
   -0.6903    5.3946   26.8233 N   0  0  0  0  0  0  0  0  0  0  0  0
   -0.0699    5.3270   28.1069 C   0  0  2  0  0  0  0  0  0  0  0  0
   -0.8494    5.7663   29.2544 C   0  0  0  0  0  0  0  0  0  0  0  0
   -0.5775    6.8953   29.8295 O   0  0  0  0  0  0  0  0  0  0  0  0
    1.3227    5.9370   28.1278 C   0  0  0  0  0  0  0  0  0  0  0  0
    2.0449    5.6311   29.3868 C   0  0  0  0  0  0  0  0  0  0  0  0
    3.3089    6.4136   29.6166 C   0  0  0  0  0  0  0  0  0  0  0  0
    4.3543    5.7884   28.7861 N   0  0  0  0  0  0  0  0  0  0  0  0
    4.6454    6.3810   27.5049 C   0  0  0  0  0  0  0  0  0  0  0  0
    5.8194    6.0576   26.7922 N   0  0  0  0  0  0  0  0  0  0  0  0
    3.7696    7.2310   27.0331 N   0  0  0  0  0  0  0  0  0  0  0  0
   -1.9287    5.0743   29.8527 N   0  0  0  0  0  0  0  0  0  0  0  0
   -3.2804    5.6958   29.8441 C   0  0  2  0  0  0  0  0  0  0  0  0
   -4.1385    4.8462   30.6952 C   0  0  0  0  0  0  0  0  0  0  0  0
   -3.9132    3.5704   30.7444 O   0  0  0  0  0  0  0  0  0  0  0  0
   -3.6679    5.5532   28.3599 C   0  0  1  0  0  0  0  0  0  0  0  0
   -5.1280    5.3054   28.2244 C   0  0  0  0  0  0  0  0  0  0  0  0
   -3.1341    6.6147   27.4798 C   0  0  0  0  0  0  0  0  0  0  0  0
   -5.2156    5.2808   31.4968 N   0  0  0  0  0  0  0  0  0  0  0  0
   -5.6701    4.6436   32.7132 C   0  0  2  0  0  0  0  0  0  0  0  0
   -6.5116    3.4522   32.3246 C   0  0  0  0  0  0  0  0  0  0  0  0
   -7.3818    3.5780   31.4254 O   0  0  0  0  0  0  0  0  0  0  0  0
   -6.5039    5.6535   33.4618 C   0  0  0  0  0  0  0  0  0  0  0  0
   -6.9093    6.6665   32.4434 C   0  0  0  0  0  0  0  0  0  0  0  0
   -6.0399    6.4306   31.2615 C   0  0  0  0  0  0  0  0  0  0  0  0
   -6.3985    2.1663   32.9060 N   0  0  0  0  0  0  0  0  0  0  0  0
   -7.2349    1.0537   32.4317 C   0  0  2  0  0  0  0  0  0  0  0  0
   -8.6800    1.3333   32.5440 C   0  0  0  0  0  0  0  0  0  0  0  0
   -9.1067    2.2977   31.8337 O   0  0  0  0  0  0  0  0  0  0  0  0
   -6.8498   -0.1960   33.2256 C   0  0  0  0  0  0  0  0  0  0  0  0
   -7.5438   -1.3962   32.6963 C   0  0  0  0  0  0  0  0  0  0  0  0
   -6.6338   -2.4804   32.2767 C   0  0  0  0  0  0  0  0  0  0  0  0
   -6.6575   -3.0074   31.1458 O   0  0  0  0  0  0  0  0  0  0  0  0
   -5.6646   -2.9881   33.1596 O   0  0  0  0  0  0  0  0  0  0  0  0
   -9.6228    0.6654   33.3320 N   0  0  0  0  0  0  0  0  0  0  0  0
  -10.8775    1.2798   33.6638 C   0  0  2  0  0  0  0  0  0  0  0  0
  -11.7004    0.6298   34.6536 C   0  0  0  0  0  0  0  0  0  0  0  0
  -12.8250    0.1719   34.2441 O   0  0  0  0  0  0  0  0  0  0  0  0
  -11.6740    1.6470   32.4381 C   0  0  0  0  0  0  0  0  0  0  0  0
  -11.1801    2.7378   31.6303 C   0  0  0  0  0  0  0  0  0  0  0  0
  -10.4470    2.5417   30.4528 C   0  0  0  0  0  0  0  0  0  0  0  0
  -11.3951    4.0390   31.9918 C   0  0  0  0  0  0  0  0  0  0  0  0
   -9.9594    3.5639   29.6840 C   0  0  0  0  0  0  0  0  0  0  0  0
  -10.9107    5.1031   31.2276 C   0  0  0  0  0  0  0  0  0  0  0  0
  -10.1918    4.8741   30.0718 C   0  0  0  0  0  0  0  0  0  0  0  0
  -11.4162    0.4425   36.0080 N   0  0  0  0  0  0  0  0  0  0  0  0
  -11.3809   -0.8518   36.6081 C   0  0  0  0  0  0  0  0  0  0  0  0
  -11.0149   -0.9138   38.0244 C   0  0  0  0  0  0  0  0  0  0  0  0
  -11.8575   -0.8222   38.9236 O   0  0  0  0  0  0  0  0  0  0  0  0
   -9.6544   -1.0823   38.4581 N   0  0  0  0  0  0  0  0  0  0  0  0
   -9.0913   -0.1566   39.4576 C   0  0  0  0  0  0  0  0  0  0  0  0
   -8.8250   -0.9074   40.7177 C   0  0  0  0  0  0  0  0  0  0  0  0
   -9.5840   -0.6903   41.7080 O   0  0  0  0  0  0  0  0  0  0  0  0
   -7.7961   -1.8405   40.9104 N   0  0  0  0  0  0  0  0  0  0  0  0
   -6.7307   -1.6350   41.9053 C   0  0  2  0  0  0  0  0  0  0  0  0
   -6.8566   -0.3214   42.5376 C   0  0  0  0  0  0  0  0  0  0  0  0
   -6.5981   -0.1212   43.7693 O   0  0  0  0  0  0  0  0  0  0  0  0
   -5.3902   -1.9839   41.3571 C   0  0  0  0  0  0  0  0  0  0  0  0
   -5.4681   -3.2296   40.5780 C   0  0  0  0  0  0  0  0  0  0  0  0
   -5.4529   -4.4591   41.2160 C   0  0  0  0  0  0  0  0  0  0  0  0
   -5.5727   -3.2340   39.2081 C   0  0  0  0  0  0  0  0  0  0  0  0
   -5.5390   -5.6463   40.5135 C   0  0  0  0  0  0  0  0  0  0  0  0
   -5.6599   -4.4348   38.4947 C   0  0  0  0  0  0  0  0  0  0  0  0
   -5.6435   -5.6355   39.1406 C   0  0  0  0  0  0  0  0  0  0  0  0
   -5.7321   -6.8317   38.4003 O   0  0  0  0  0  0  0  0  0  0  0  0
   -7.2640    0.7817   41.8236 O   0  0  0  0  0  0  0  0  0  0  0  0
   -3.9783   -0.8364   22.1039 H   0  0  0  0  0  0  0  0  0  0  0  0
    3.2907    7.8298   27.7524 H   0  0  0  0  0  0  0  0  0  0  0  0
  2  1  1  6
  2  3  1  0
  2  5  1  0
  3  4  2  0
  3 10  1  0
  5  6  1  0
  6  7  1  0
  7  8  1  0
  7  9  2  0
 11 10  1  1
 11 12  1  0
 11 14  1  0
 12 13  2  0
 12 18  1  0
 14 15  1  0
 14 16  1  6
 15 17  1  0
 18 19  1  0
 19 20  1  0
 19 22  1  6
 20 21  2  0
 20 29  1  0
 22 23  1  0
 23 24  1  0
 24 25  1  0
 25 26  1  0
 26 27  1  0
 26 28  2  0
 29 30  1  0
 30 31  1  0
 30 33  1  6
 31 32  2  0
 31 40  1  0
 33 34  1  0
 34 35  1  0
 35 36  1  0
 36 37  1  0
 37 38  1  0
 37 39  2  0
 41 40  1  6
 41 42  1  0
 41 44  1  0
 42 43  2  0
 42 47  1  0
 44 45  1  1
 44 46  1  0
 47 48  1  0
 47 53  1  0
 48 49  1  6
 48 51  1  0
 49 50  2  0
 49 54  1  0
 51 52  1  0
 52 53  1  0
 54 55  1  0
 55 56  1  0
 55 58  1  1
 56 57  2  0
 56 63  1  0
 58 59  1  0
 59 60  1  0
 60 61  2  0
 60 62  1  0
 63 64  1  0
 64 65  1  0
 64 67  1  6
 65 66  2  0
 65 74  1  0
 67 68  1  0
 68 69  2  0
 68 70  1  0
 69 71  1  0
 70 72  2  0
 71 73  2  0
 72 73  1  0
 74 75  1  0
 75 76  1  0
 76 77  2  0
 76 78  1  0
 78 79  1  0
 79 80  1  0
 80 81  2  0
 80 82  1  0
 82 83  1  0
 83 84  1  0
 83 86  1  6
 84 85  2  0
 84 94  1  0
 86 87  1  0
 87 88  2  0
 87 89  1  0
 88 90  1  0
 89 91  2  0
 90 92  2  0
 91 92  1  0
 92 93  1  0
 28 95  1  0
 39 96  1  0
M  CHG  1   1   1
M  END
$$$$
