
     RDKit          3D

 96 98  0  0  0  0  0  0  0  0999 V2000
    4.1112   -1.6475   24.7580 N   0  0  0  0  0  4  0  0  0  0  0  0
    3.4720   -0.3744   24.6989 C   0  0  2  0  0  0  0  0  0  0  0  0
    2.1097   -0.5273   24.0478 C   0  0  0  0  0  0  0  0  0  0  0  0
    1.3172    0.4447   24.1895 O   0  0  0  0  0  0  0  0  0  0  0  0
    4.1945    0.6189   23.8588 C   0  0  0  0  0  0  0  0  0  0  0  0
    4.9493    0.2045   22.6795 C   0  0  0  0  0  0  0  0  0  0  0  0
    6.2778    0.6801   22.3902 C   0  0  0  0  0  0  0  0  0  0  0  0
    6.8762    1.5641   23.3346 O   0  0  0  0  0  0  0  0  0  0  0  0
    6.9921    0.4222   21.4093 O   0  0  0  0  0  0  0  0  0  0  0  0
    1.7664   -1.7040   23.3236 N   0  0  0  0  0  0  0  0  0  0  0  0
    0.3692   -2.0908   23.2703 C   0  0  2  0  0  0  0  0  0  0  0  0
   -0.0009   -3.1932   24.1546 C   0  0  0  0  0  0  0  0  0  0  0  0
    0.5236   -4.3308   23.9219 O   0  0  0  0  0  0  0  0  0  0  0  0
    0.0818   -2.5222   21.8249 C   0  0  2  0  0  0  0  0  0  0  0  0
    0.2928   -1.4578   20.8118 C   0  0  0  0  0  0  0  0  0  0  0  0
   -1.4083   -2.8886   21.7925 C   0  0  0  0  0  0  0  0  0  0  0  0
    0.0400   -2.1298   19.4436 C   0  0  0  0  0  0  0  0  0  0  0  0
   -0.9090   -3.0279   25.2442 N   0  0  0  0  0  0  0  0  0  0  0  0
   -2.0704   -3.8562   25.3341 C   0  0  2  0  0  0  0  0  0  0  0  0
   -2.9614   -3.5158   26.4924 C   0  0  0  0  0  0  0  0  0  0  0  0
   -2.7546   -4.0154   27.5987 O   0  0  0  0  0  0  0  0  0  0  0  0
   -1.8516   -5.3204   25.2247 C   0  0  0  0  0  0  0  0  0  0  0  0
   -2.9566   -6.2634   25.1720 C   0  0  0  0  0  0  0  0  0  0  0  0
   -3.8995   -6.2891   24.0471 C   0  0  0  0  0  0  0  0  0  0  0  0
   -4.1043   -7.6163   23.5125 N   0  0  0  0  0  0  0  0  0  0  0  0
   -3.6029   -7.9886   22.2390 C   0  0  0  0  0  0  0  0  0  0  0  0
   -3.9506   -7.2539   21.0657 N   0  0  0  0  0  0  0  0  0  0  0  0
   -2.8201   -9.0049   22.0730 N   0  0  0  0  0  0  0  0  0  0  0  0
   -4.0522   -2.6177   26.3387 N   0  0  0  0  0  0  0  0  0  0  0  0
   -4.2089   -1.3711   27.0158 C   0  0  2  0  0  0  0  0  0  0  0  0
   -5.5488   -0.8082   27.0865 C   0  0  0  0  0  0  0  0  0  0  0  0
   -6.0340   -0.1591   26.0753 O   0  0  0  0  0  0  0  0  0  0  0  0
   -3.1996   -0.3231   26.5744 C   0  0  0  0  0  0  0  0  0  0  0  0
   -1.8055   -0.7349   26.8694 C   0  0  0  0  0  0  0  0  0  0  0  0
   -0.7336    0.1839   26.3500 C   0  0  0  0  0  0  0  0  0  0  0  0
   -0.5009    1.1999   27.3926 N   0  0  0  0  0  0  0  0  0  0  0  0
   -0.3678    0.7521   28.7562 C   0  0  0  0  0  0  0  0  0  0  0  0
   -1.4306    0.8666   29.6772 N   0  0  0  0  0  0  0  0  0  0  0  0
    0.7833    0.2331   29.0992 N   0  0  0  0  0  0  0  0  0  0  0  0
   -6.4375   -0.8873   28.1846 N   0  0  0  0  0  0  0  0  0  0  0  0
   -7.8223   -0.3648   28.0336 C   0  0  2  0  0  0  0  0  0  0  0  0
   -7.7015    1.0954   27.8435 C   0  0  0  0  0  0  0  0  0  0  0  0
   -6.7117    1.7241   28.3965 O   0  0  0  0  0  0  0  0  0  0  0  0
   -8.4192   -0.6899   29.4160 C   0  0  1  0  0  0  0  0  0  0  0  0
   -9.8120   -0.1779   29.5153 C   0  0  0  0  0  0  0  0  0  0  0  0
   -8.2411   -2.0924   29.8489 C   0  0  0  0  0  0  0  0  0  0  0  0
   -8.5714    1.9174   27.0958 N   0  0  0  0  0  0  0  0  0  0  0  0
   -8.4759    3.3558   26.9776 C   0  0  2  0  0  0  0  0  0  0  0  0
   -9.0655    3.9627   28.2277 C   0  0  0  0  0  0  0  0  0  0  0  0
   -9.5538    5.1207   28.1807 O   0  0  0  0  0  0  0  0  0  0  0  0
   -9.2817    3.7591   25.7679 C   0  0  0  0  0  0  0  0  0  0  0  0
  -10.2078    2.6175   25.5093 C   0  0  0  0  0  0  0  0  0  0  0  0
   -9.6905    1.4795   26.3128 C   0  0  0  0  0  0  0  0  0  0  0  0
   -9.1160    3.3164   29.4863 N   0  0  0  0  0  0  0  0  0  0  0  0
   -9.7769    3.9588   30.6321 C   0  0  2  0  0  0  0  0  0  0  0  0
   -9.2626    5.3151   30.9054 C   0  0  0  0  0  0  0  0  0  0  0  0
   -8.5121    5.4194   31.9265 O   0  0  0  0  0  0  0  0  0  0  0  0
   -9.6036    3.0461   31.8475 C   0  0  0  0  0  0  0  0  0  0  0  0
  -10.3149    3.5943   33.0291 C   0  0  0  0  0  0  0  0  0  0  0  0
  -10.0727    2.8444   34.2776 C   0  0  0  0  0  0  0  0  0  0  0  0
  -10.9814    2.3726   34.9908 O   0  0  0  0  0  0  0  0  0  0  0  0
   -8.7639    2.6181   34.7384 O   0  0  0  0  0  0  0  0  0  0  0  0
   -9.5024    6.4848   30.1772 N   0  0  0  0  0  0  0  0  0  0  0  0
  -10.1040    7.6316   30.7973 C   0  0  2  0  0  0  0  0  0  0  0  0
   -9.3855    8.2638   31.8760 C   0  0  0  0  0  0  0  0  0  0  0  0
   -9.8370    9.3959   32.2715 O   0  0  0  0  0  0  0  0  0  0  0  0
  -11.5469    7.3918   31.1607 C   0  0  0  0  0  0  0  0  0  0  0  0
  -12.5077    8.3881   30.7476 C   0  0  0  0  0  0  0  0  0  0  0  0
  -12.1494    9.5457   30.0447 C   0  0  0  0  0  0  0  0  0  0  0  0
  -13.8363    8.2540   31.0424 C   0  0  0  0  0  0  0  0  0  0  0  0
  -13.0450   10.5063   29.6588 C   0  0  0  0  0  0  0  0  0  0  0  0
  -14.7737    9.2169   30.6617 C   0  0  0  0  0  0  0  0  0  0  0  0
  -14.3863   10.3462   29.9692 C   0  0  0  0  0  0  0  0  0  0  0  0
   -8.2528    7.7874   32.5395 N   0  0  0  0  0  0  0  0  0  0  0  0
   -7.7043    8.4452   33.6809 C   0  0  0  0  0  0  0  0  0  0  0  0
   -8.5972    9.3387   34.4213 C   0  0  0  0  0  0  0  0  0  0  0  0
   -9.7140    8.9769   34.8069 O   0  0  0  0  0  0  0  0  0  0  0  0
   -8.2331   10.6919   34.7438 N   0  0  0  0  0  0  0  0  0  0  0  0
   -6.8579   10.9881   35.1845 C   0  0  0  0  0  0  0  0  0  0  0  0
   -6.8239   11.0253   36.6744 C   0  0  0  0  0  0  0  0  0  0  0  0
   -7.8185   10.5544   37.3014 O   0  0  0  0  0  0  0  0  0  0  0  0
   -5.7806   11.5438   37.4548 N   0  0  0  0  0  0  0  0  0  0  0  0
   -4.3656   11.3351   37.1063 C   0  0  2  0  0  0  0  0  0  0  0  0
   -3.4888   11.9473   38.1051 C   0  0  0  0  0  0  0  0  0  0  0  0
   -3.9330   12.5975   39.1070 O   0  0  0  0  0  0  0  0  0  0  0  0
   -4.0926   11.6769   35.6824 C   0  0  0  0  0  0  0  0  0  0  0  0
   -5.2935   12.2554   35.0592 C   0  0  0  0  0  0  0  0  0  0  0  0
   -6.5119   11.6015   35.1419 C   0  0  0  0  0  0  0  0  0  0  0  0
   -5.2687   13.4557   34.3912 C   0  0  0  0  0  0  0  0  0  0  0  0
   -7.6604   12.1259   34.5796 C   0  0  0  0  0  0  0  0  0  0  0  0
   -6.4304   13.9885   33.8210 C   0  0  0  0  0  0  0  0  0  0  0  0
   -7.6208   13.3300   33.9130 C   0  0  0  0  0  0  0  0  0  0  0  0
   -8.7773   13.8864   33.3301 O   0  0  0  0  0  0  0  0  0  0  0  0
   -2.1196   11.8487   38.0138 O   0  0  0  0  0  0  0  0  0  0  0  0
   -2.3029   -9.4679   22.8344 H   0  0  0  0  0  0  0  0  0  0  0  0
    1.0934   -0.5923   28.5268 H   0  0  0  0  0  0  0  0  0  0  0  0
  2  1  1  6
  2  3  1  0
  2  5  1  0
  3  4  2  0
  3 10  1  0
  5  6  1  0
  6  7  1  0
  7  8  1  0
  7  9  2  0
 11 10  1  6
 11 12  1  0
 11 14  1  0
 12 13  2  0
 12 18  1  0
 14 15  1  0
 14 16  1  1
 15 17  1  0
 18 19  1  0
 19 20  1  0
 19 22  1  1
 20 21  2  0
 20 29  1  0
 22 23  1  0
 23 24  1  0
 24 25  1  0
 25 26  1  0
 26 27  1  0
 26 28  2  0
 29 30  1  0
 30 31  1  0
 30 33  1  6
 31 32  2  0
 31 40  1  0
 33 34  1  0
 34 35  1  0
 35 36  1  0
 36 37  1  0
 37 38  1  0
 37 39  2  0
 41 40  1  1
 41 42  1  0
 41 44  1  0
 42 43  2  0
 42 47  1  0
 44 45  1  6
 44 46  1  0
 47 48  1  0
 47 53  1  0
 48 49  1  1
 48 51  1  0
 49 50  2  0
 49 54  1  0
 51 52  1  0
 52 53  1  0
 54 55  1  0
 55 56  1  0
 55 58  1  1
 56 57  2  0
 56 63  1  0
 58 59  1  0
 59 60  1  0
 60 61  2  0
 60 62  1  0
 63 64  1  0
 64 65  1  0
 64 67  1  1
 65 66  2  0
 65 74  1  0
 67 68  1  0
 68 69  2  0
 68 70  1  0
 69 71  1  0
 70 72  2  0
 71 73  2  0
 72 73  1  0
 74 75  1  0
 75 76  1  0
 76 77  2  0
 76 78  1  0
 78 79  1  0
 79 80  1  0
 80 81  2  0
 80 82  1  0
 82 83  1  0
 83 84  1  0
 83 86  1  6
 84 85  2  0
 84 94  1  0
 86 87  1  0
 87 88  2  0
 87 89  1  0
 88 90  1  0
 89 91  2  0
 90 92  2  0
 91 92  1  0
 92 93  1  0
 28 95  1  0
 39 96  1  0
M  CHG  1   1   1
M  END
$$$$
