
     RDKit          3D

 96 98  0  0  0  0  0  0  0  0999 V2000
    5.0199   -5.6922   25.2127 N   0  0  0  0  0  4  0  0  0  0  0  0
    3.6000   -5.8176   25.1766 C   0  0  2  0  0  0  0  0  0  0  0  0
    2.9747   -4.4347   25.1740 C   0  0  0  0  0  0  0  0  0  0  0  0
    2.9569   -3.8343   26.2840 O   0  0  0  0  0  0  0  0  0  0  0  0
    3.0295   -6.4995   26.3699 C   0  0  0  0  0  0  0  0  0  0  0  0
    1.9797   -7.5054   26.2353 C   0  0  0  0  0  0  0  0  0  0  0  0
    1.4459   -7.9182   24.9627 C   0  0  0  0  0  0  0  0  0  0  0  0
    2.1176   -7.4600   23.7920 O   0  0  0  0  0  0  0  0  0  0  0  0
    0.4582   -8.6339   24.7369 O   0  0  0  0  0  0  0  0  0  0  0  0
    2.4471   -3.8662   23.9802 N   0  0  0  0  0  0  0  0  0  0  0  0
    1.7746   -2.5842   24.0726 C   0  0  2  0  0  0  0  0  0  0  0  0
    0.5495   -2.5849   24.8686 C   0  0  0  0  0  0  0  0  0  0  0  0
   -0.5243   -2.9510   24.2886 O   0  0  0  0  0  0  0  0  0  0  0  0
    1.4117   -2.1678   22.6398 C   0  0  2  0  0  0  0  0  0  0  0  0
    2.5672   -2.0879   21.7112 C   0  0  0  0  0  0  0  0  0  0  0  0
    0.8268   -0.7536   22.7569 C   0  0  0  0  0  0  0  0  0  0  0  0
    1.9795   -1.6430   20.3532 C   0  0  0  0  0  0  0  0  0  0  0  0
    0.5302   -2.1983   26.2431 N   0  0  0  0  0  0  0  0  0  0  0  0
   -0.6673   -1.6685   26.8163 C   0  0  2  0  0  0  0  0  0  0  0  0
   -1.3865   -0.7053   25.9185 C   0  0  0  0  0  0  0  0  0  0  0  0
   -0.7745   -0.1177   25.0260 O   0  0  0  0  0  0  0  0  0  0  0  0
   -0.5664   -1.1513   28.2041 C   0  0  0  0  0  0  0  0  0  0  0  0
   -0.4744   -2.0377   29.3526 C   0  0  0  0  0  0  0  0  0  0  0  0
   -0.0226   -3.4284   29.2230 C   0  0  0  0  0  0  0  0  0  0  0  0
    1.3226   -3.6327   29.7107 N   0  0  0  0  0  0  0  0  0  0  0  0
    2.4513   -3.4576   28.8697 C   0  0  0  0  0  0  0  0  0  0  0  0
    2.3085   -2.9720   27.5351 N   0  0  0  0  0  0  0  0  0  0  0  0
    3.6539   -3.7320   29.2587 N   0  0  0  0  0  0  0  0  0  0  0  0
   -2.7762   -0.4533   26.0775 N   0  0  0  0  0  0  0  0  0  0  0  0
   -3.7865   -0.7003   25.1000 C   0  0  2  0  0  0  0  0  0  0  0  0
   -4.9376   -1.4913   25.5079 C   0  0  0  0  0  0  0  0  0  0  0  0
   -4.9346   -2.7761   25.3389 O   0  0  0  0  0  0  0  0  0  0  0  0
   -3.2256   -1.1957   23.7764 C   0  0  0  0  0  0  0  0  0  0  0  0
   -3.7960   -0.4610   22.6210 C   0  0  0  0  0  0  0  0  0  0  0  0
   -5.2973   -0.4659   22.5257 C   0  0  0  0  0  0  0  0  0  0  0  0
   -5.6723   -1.6721   21.7656 N   0  0  0  0  0  0  0  0  0  0  0  0
   -5.3885   -1.6972   20.3527 C   0  0  0  0  0  0  0  0  0  0  0  0
   -5.7844   -2.7805   19.5399 N   0  0  0  0  0  0  0  0  0  0  0  0
   -4.7486   -0.6681   19.8591 N   0  0  0  0  0  0  0  0  0  0  0  0
   -6.1262   -1.0033   26.1003 N   0  0  0  0  0  0  0  0  0  0  0  0
   -6.7011   -1.7240   27.2681 C   0  0  2  0  0  0  0  0  0  0  0  0
   -7.5128   -0.7384   28.0114 C   0  0  0  0  0  0  0  0  0  0  0  0
   -8.1363   -1.1147   29.0840 O   0  0  0  0  0  0  0  0  0  0  0  0
   -5.4273   -2.0890   28.0537 C   0  0  1  0  0  0  0  0  0  0  0  0
   -5.7066   -2.1183   29.5142 C   0  0  0  0  0  0  0  0  0  0  0  0
   -4.7022   -3.2693   27.5366 C   0  0  0  0  0  0  0  0  0  0  0  0
   -7.6915    0.6211   27.6780 N   0  0  0  0  0  0  0  0  0  0  0  0
   -6.7778    1.6944   28.0028 C   0  0  2  0  0  0  0  0  0  0  0  0
   -7.0057    2.0750   29.4457 C   0  0  0  0  0  0  0  0  0  0  0  0
   -7.9703    1.5676   30.0730 O   0  0  0  0  0  0  0  0  0  0  0  0
   -7.1094    2.8531   27.0956 C   0  0  0  0  0  0  0  0  0  0  0  0
   -8.5000    2.5977   26.6176 C   0  0  0  0  0  0  0  0  0  0  0  0
   -8.7945    1.1798   26.9513 C   0  0  0  0  0  0  0  0  0  0  0  0
   -6.1988    2.9831   30.1728 N   0  0  0  0  0  0  0  0  0  0  0  0
   -6.5125    3.3091   31.5720 C   0  0  2  0  0  0  0  0  0  0  0  0
   -7.1911    4.6116   31.7199 C   0  0  0  0  0  0  0  0  0  0  0  0
   -6.4794    5.6316   31.4558 O   0  0  0  0  0  0  0  0  0  0  0  0
   -5.2064    3.2722   32.3677 C   0  0  0  0  0  0  0  0  0  0  0  0
   -5.0899    2.0095   33.1388 C   0  0  0  0  0  0  0  0  0  0  0  0
   -5.5123    2.1251   34.5487 C   0  0  0  0  0  0  0  0  0  0  0  0
   -5.8435    3.2007   35.0878 O   0  0  0  0  0  0  0  0  0  0  0  0
   -5.5638    0.9921   35.3794 O   0  0  0  0  0  0  0  0  0  0  0  0
   -8.5125    4.8491   32.1115 N   0  0  0  0  0  0  0  0  0  0  0  0
   -9.0165    6.1875   32.2397 C   0  0  2  0  0  0  0  0  0  0  0  0
   -8.5428    6.9782   33.3486 C   0  0  0  0  0  0  0  0  0  0  0  0
   -7.7403    6.3946   34.1594 O   0  0  0  0  0  0  0  0  0  0  0  0
  -10.5181    6.2448   32.1222 C   0  0  0  0  0  0  0  0  0  0  0  0
  -11.1198    7.5479   31.9597 C   0  0  0  0  0  0  0  0  0  0  0  0
  -12.1094    8.0419   32.8195 C   0  0  0  0  0  0  0  0  0  0  0  0
  -10.7565    8.3709   30.9298 C   0  0  0  0  0  0  0  0  0  0  0  0
  -12.6999    9.2678   32.6710 C   0  0  0  0  0  0  0  0  0  0  0  0
  -11.3406    9.6272   30.7527 C   0  0  0  0  0  0  0  0  0  0  0  0
  -12.3133   10.0834   31.6193 C   0  0  0  0  0  0  0  0  0  0  0  0
   -8.8581    8.3061   33.6442 N   0  0  0  0  0  0  0  0  0  0  0  0
  -10.1618    8.7049   34.0659 C   0  0  0  0  0  0  0  0  0  0  0  0
  -10.6481    9.9966   33.5773 C   0  0  0  0  0  0  0  0  0  0  0  0
  -11.8537   10.2434   33.4660 O   0  0  0  0  0  0  0  0  0  0  0  0
   -9.7555   11.0569   33.1942 N   0  0  0  0  0  0  0  0  0  0  0  0
   -9.5349   12.1878   34.1138 C   0  0  0  0  0  0  0  0  0  0  0  0
  -10.7313   13.0766   34.0845 C   0  0  0  0  0  0  0  0  0  0  0  0
  -10.8845   13.8305   33.0785 O   0  0  0  0  0  0  0  0  0  0  0  0
  -11.7126   13.1583   35.0829 N   0  0  0  0  0  0  0  0  0  0  0  0
  -13.1382   12.9246   34.7989 C   0  0  2  0  0  0  0  0  0  0  0  0
  -13.6489   11.8049   35.5904 C   0  0  0  0  0  0  0  0  0  0  0  0
  -13.0377   11.3453   36.6098 O   0  0  0  0  0  0  0  0  0  0  0  0
  -13.4084   12.8823   33.3345 C   0  0  0  0  0  0  0  0  0  0  0  0
  -14.8531   12.7520   33.0878 C   0  0  0  0  0  0  0  0  0  0  0  0
  -15.6601   13.8765   33.0315 C   0  0  0  0  0  0  0  0  0  0  0  0
  -15.4577   11.5343   32.8901 C   0  0  0  0  0  0  0  0  0  0  0  0
  -17.0177   13.7882   32.7872 C   0  0  0  0  0  0  0  0  0  0  0  0
  -16.8321   11.4425   32.6428 C   0  0  0  0  0  0  0  0  0  0  0  0
  -17.6102   12.5609   32.5909 C   0  0  0  0  0  0  0  0  0  0  0  0
  -18.9924   12.4431   32.3407 O   0  0  0  0  0  0  0  0  0  0  0  0
  -14.8341   11.1833   35.2714 O   0  0  0  0  0  0  0  0  0  0  0  0
    4.4080   -4.0465   28.6310 H   0  0  0  0  0  0  0  0  0  0  0  0
   -5.3449    0.0281   19.3444 H   0  0  0  0  0  0  0  0  0  0  0  0
  2  1  1  1
  2  3  1  0
  2  5  1  0
  3  4  2  0
  3 10  1  0
  5  6  1  0
  6  7  1  0
  7  8  1  0
  7  9  2  0
 11 10  1  6
 11 12  1  0
 11 14  1  0
 12 13  2  0
 12 18  1  0
 14 15  1  0
 14 16  1  1
 15 17  1  0
 18 19  1  0
 19 20  1  0
 19 22  1  1
 20 21  2  0
 20 29  1  0
 22 23  1  0
 23 24  1  0
 24 25  1  0
 25 26  1  0
 26 27  1  0
 26 28  2  0
 29 30  1  0
 30 31  1  0
 30 33  1  6
 31 32  2  0
 31 40  1  0
 33 34  1  0
 34 35  1  0
 35 36  1  0
 36 37  1  0
 37 38  1  0
 37 39  2  0
 41 40  1  6
 41 42  1  0
 41 44  1  0
 42 43  2  0
 42 47  1  0
 44 45  1  1
 44 46  1  0
 47 48  1  0
 47 53  1  0
 48 49  1  1
 48 51  1  0
 49 50  2  0
 49 54  1  0
 51 52  1  0
 52 53  1  0
 54 55  1  0
 55 56  1  0
 55 58  1  1
 56 57  2  0
 56 63  1  0
 58 59  1  0
 59 60  1  0
 60 61  2  0
 60 62  1  0
 63 64  1  0
 64 65  1  0
 64 67  1  1
 65 66  2  0
 65 74  1  0
 67 68  1  0
 68 69  2  0
 68 70  1  0
 69 71  1  0
 70 72  2  0
 71 73  2  0
 72 73  1  0
 74 75  1  0
 75 76  1  0
 76 77  2  0
 76 78  1  0
 78 79  1  0
 79 80  1  0
 80 81  2  0
 80 82  1  0
 82 83  1  0
 83 84  1  0
 83 86  1  6
 84 85  2  0
 84 94  1  0
 86 87  1  0
 87 88  2  0
 87 89  1  0
 88 90  1  0
 89 91  2  0
 90 92  2  0
 91 92  1  0
 92 93  1  0
 28 95  1  0
 39 96  1  0
M  CHG  1   1   1
M  END
$$$$
