
     RDKit          3D

 96 98  0  0  0  0  0  0  0  0999 V2000
   -0.1916   -7.9512   29.2464 N   0  0  0  0  0  4  0  0  0  0  0  0
   -0.2513   -6.8044   28.4013 C   0  0  2  0  0  0  0  0  0  0  0  0
   -1.6980   -6.3747   28.2409 C   0  0  0  0  0  0  0  0  0  0  0  0
   -2.5646   -7.1708   28.6970 O   0  0  0  0  0  0  0  0  0  0  0  0
    0.2348   -7.0556   27.0174 C   0  0  0  0  0  0  0  0  0  0  0  0
    1.6336   -7.3829   26.7557 C   0  0  0  0  0  0  0  0  0  0  0  0
    2.1500   -7.6217   25.4324 C   0  0  0  0  0  0  0  0  0  0  0  0
    1.2436   -7.4812   24.3413 O   0  0  0  0  0  0  0  0  0  0  0  0
    3.3017   -7.9414   25.1006 O   0  0  0  0  0  0  0  0  0  0  0  0
   -2.0360   -5.1430   27.6123 N   0  0  0  0  0  0  0  0  0  0  0  0
   -3.2493   -5.0907   26.8188 C   0  0  2  0  0  0  0  0  0  0  0  0
   -3.4643   -3.8370   26.1004 C   0  0  0  0  0  0  0  0  0  0  0  0
   -2.9220   -2.7882   26.5793 O   0  0  0  0  0  0  0  0  0  0  0  0
   -4.4236   -5.2921   27.7876 C   0  0  2  0  0  0  0  0  0  0  0  0
   -4.0795   -5.1021   29.2192 C   0  0  0  0  0  0  0  0  0  0  0  0
   -4.8533   -6.7556   27.6161 C   0  0  0  0  0  0  0  0  0  0  0  0
   -5.4257   -5.1234   29.9770 C   0  0  0  0  0  0  0  0  0  0  0  0
   -4.2439   -3.7637   24.9062 N   0  0  0  0  0  0  0  0  0  0  0  0
   -4.0540   -2.6762   23.9983 C   0  0  2  0  0  0  0  0  0  0  0  0
   -4.2746   -1.3293   24.6216 C   0  0  0  0  0  0  0  0  0  0  0  0
   -5.4185   -0.9018   24.7802 O   0  0  0  0  0  0  0  0  0  0  0  0
   -4.7289   -2.7859   22.6806 C   0  0  0  0  0  0  0  0  0  0  0  0
   -4.4565   -1.8582   21.5951 C   0  0  0  0  0  0  0  0  0  0  0  0
   -5.1645   -1.9390   20.3116 C   0  0  0  0  0  0  0  0  0  0  0  0
   -4.8214   -0.8633   19.4092 N   0  0  0  0  0  0  0  0  0  0  0  0
   -3.4763   -0.6038   19.0416 C   0  0  0  0  0  0  0  0  0  0  0  0
   -2.4140   -1.4461   19.4881 N   0  0  0  0  0  0  0  0  0  0  0  0
   -3.1430    0.4008   18.2981 N   0  0  0  0  0  0  0  0  0  0  0  0
   -3.1785   -0.5263   25.0384 N   0  0  0  0  0  0  0  0  0  0  0  0
   -3.2629    0.8105   25.5313 C   0  0  2  0  0  0  0  0  0  0  0  0
   -4.4764    1.1910   26.2384 C   0  0  0  0  0  0  0  0  0  0  0  0
   -5.6285    0.7652   25.8253 O   0  0  0  0  0  0  0  0  0  0  0  0
   -2.8885    1.8534   24.4901 C   0  0  0  0  0  0  0  0  0  0  0  0
   -1.4735    1.7295   24.0629 C   0  0  0  0  0  0  0  0  0  0  0  0
   -0.4509    1.8592   25.1585 C   0  0  0  0  0  0  0  0  0  0  0  0
    0.0038    0.4944   25.4810 N   0  0  0  0  0  0  0  0  0  0  0  0
   -0.2457   -0.0060   26.8095 C   0  0  0  0  0  0  0  0  0  0  0  0
   -0.9356   -1.2180   27.0237 N   0  0  0  0  0  0  0  0  0  0  0  0
    0.1988    0.7150   27.8068 N   0  0  0  0  0  0  0  0  0  0  0  0
   -4.5579    2.0142   27.3862 N   0  0  0  0  0  0  0  0  0  0  0  0
   -5.8943    2.3177   27.9653 C   0  0  2  0  0  0  0  0  0  0  0  0
   -5.6568    3.1868   29.1362 C   0  0  0  0  0  0  0  0  0  0  0  0
   -4.6824    2.9056   29.9437 O   0  0  0  0  0  0  0  0  0  0  0  0
   -6.3562    0.9163   28.4077 C   0  0  1  0  0  0  0  0  0  0  0  0
   -7.5297    1.0172   29.3158 C   0  0  0  0  0  0  0  0  0  0  0  0
   -6.5057   -0.0587   27.3062 C   0  0  0  0  0  0  0  0  0  0  0  0
   -6.3949    4.3367   29.4890 N   0  0  0  0  0  0  0  0  0  0  0  0
   -6.0400    5.2785   30.5279 C   0  0  2  0  0  0  0  0  0  0  0  0
   -6.4443    4.6794   31.8531 C   0  0  0  0  0  0  0  0  0  0  0  0
   -7.6630    4.4888   32.0983 O   0  0  0  0  0  0  0  0  0  0  0  0
   -6.8157    6.5455   30.2662 C   0  0  0  0  0  0  0  0  0  0  0  0
   -7.9492    6.1417   29.3831 C   0  0  0  0  0  0  0  0  0  0  0  0
   -7.6130    4.7848   28.8788 C   0  0  0  0  0  0  0  0  0  0  0  0
   -5.5377    4.3027   32.8732 N   0  0  0  0  0  0  0  0  0  0  0  0
   -6.0232    3.6839   34.1156 C   0  0  2  0  0  0  0  0  0  0  0  0
   -7.0305    4.5080   34.8122 C   0  0  0  0  0  0  0  0  0  0  0  0
   -6.8788    4.6084   36.0706 O   0  0  0  0  0  0  0  0  0  0  0  0
   -4.8126    3.4152   35.0116 C   0  0  0  0  0  0  0  0  0  0  0  0
   -3.8049    2.5838   34.3075 C   0  0  0  0  0  0  0  0  0  0  0  0
   -4.0443    1.1309   34.4140 C   0  0  0  0  0  0  0  0  0  0  0  0
   -3.2784    0.2652   33.9436 O   0  0  0  0  0  0  0  0  0  0  0  0
   -5.1839    0.6359   35.0720 O   0  0  0  0  0  0  0  0  0  0  0  0
   -8.1193    5.1841   34.2525 N   0  0  0  0  0  0  0  0  0  0  0  0
   -9.0275    5.9323   35.0754 C   0  0  2  0  0  0  0  0  0  0  0  0
  -10.1367    6.5857   34.4259 C   0  0  0  0  0  0  0  0  0  0  0  0
  -10.9997    7.1376   35.1957 O   0  0  0  0  0  0  0  0  0  0  0  0
   -8.3082    6.8672   36.0136 C   0  0  0  0  0  0  0  0  0  0  0  0
   -9.0953    7.8930   36.6577 C   0  0  0  0  0  0  0  0  0  0  0  0
   -8.5417    8.8481   37.5202 C   0  0  0  0  0  0  0  0  0  0  0  0
  -10.4468    7.9725   36.4650 C   0  0  0  0  0  0  0  0  0  0  0  0
   -9.2753    9.8171   38.1497 C   0  0  0  0  0  0  0  0  0  0  0  0
  -11.2218    8.9502   37.0930 C   0  0  0  0  0  0  0  0  0  0  0  0
  -10.6436    9.8768   37.9370 C   0  0  0  0  0  0  0  0  0  0  0  0
  -10.3822    6.6858   33.0548 N   0  0  0  0  0  0  0  0  0  0  0  0
  -11.4411    7.4829   32.5257 C   0  0  0  0  0  0  0  0  0  0  0  0
  -11.3043    8.9347   32.6566 C   0  0  0  0  0  0  0  0  0  0  0  0
  -11.0036    9.6537   31.6977 O   0  0  0  0  0  0  0  0  0  0  0  0
  -11.5081    9.6144   33.9073 N   0  0  0  0  0  0  0  0  0  0  0  0
  -11.2606   11.0650   33.9937 C   0  0  0  0  0  0  0  0  0  0  0  0
  -12.2823   11.7804   33.1773 C   0  0  0  0  0  0  0  0  0  0  0  0
  -13.1147   12.5177   33.7837 O   0  0  0  0  0  0  0  0  0  0  0  0
  -12.4103   11.7080   31.7827 N   0  0  0  0  0  0  0  0  0  0  0  0
  -12.5176   12.9130   30.9439 C   0  0  2  0  0  0  0  0  0  0  0  0
  -13.6564   13.7338   31.3570 C   0  0  0  0  0  0  0  0  0  0  0  0
  -13.5445   14.9667   31.6592 O   0  0  0  0  0  0  0  0  0  0  0  0
  -12.4252   12.5849   29.4938 C   0  0  0  0  0  0  0  0  0  0  0  0
  -12.3895   13.8198   28.6944 C   0  0  0  0  0  0  0  0  0  0  0  0
  -13.0862   13.9036   27.5000 C   0  0  0  0  0  0  0  0  0  0  0  0
  -11.6896   14.9328   29.0930 C   0  0  0  0  0  0  0  0  0  0  0  0
  -13.0841   15.0540   26.7340 C   0  0  0  0  0  0  0  0  0  0  0  0
  -11.6860   16.0987   28.3188 C   0  0  0  0  0  0  0  0  0  0  0  0
  -12.3782   16.1621   27.1458 C   0  0  0  0  0  0  0  0  0  0  0  0
  -12.3590   17.3473   26.3830 O   0  0  0  0  0  0  0  0  0  0  0  0
  -14.9257   13.2094   31.4391 O   0  0  0  0  0  0  0  0  0  0  0  0
   -2.2888    0.9613   18.4311 H   0  0  0  0  0  0  0  0  0  0  0  0
   -0.0242    0.3441   28.7649 H   0  0  0  0  0  0  0  0  0  0  0  0
  2  1  1  1
  2  3  1  0
  2  5  1  0
  3  4  2  0
  3 10  1  0
  5  6  1  0
  6  7  1  0
  7  8  1  0
  7  9  2  0
 11 10  1  1
 11 12  1  0
 11 14  1  0
 12 13  2  0
 12 18  1  0
 14 15  1  0
 14 16  1  1
 15 17  1  0
 18 19  1  0
 19 20  1  0
 19 22  1  6
 20 21  2  0
 20 29  1  0
 22 23  1  0
 23 24  1  0
 24 25  1  0
 25 26  1  0
 26 27  1  0
 26 28  2  0
 29 30  1  0
 30 31  1  0
 30 33  1  6
 31 32  2  0
 31 40  1  0
 33 34  1  0
 34 35  1  0
 35 36  1  0
 36 37  1  0
 37 38  1  0
 37 39  2  0
 41 40  1  1
 41 42  1  0
 41 44  1  0
 42 43  2  0
 42 47  1  0
 44 45  1  6
 44 46  1  0
 47 48  1  0
 47 53  1  0
 48 49  1  1
 48 51  1  0
 49 50  2  0
 49 54  1  0
 51 52  1  0
 52 53  1  0
 54 55  1  0
 55 56  1  0
 55 58  1  1
 56 57  2  0
 56 63  1  0
 58 59  1  0
 59 60  1  0
 60 61  2  0
 60 62  1  0
 63 64  1  0
 64 65  1  0
 64 67  1  6
 65 66  2  0
 65 74  1  0
 67 68  1  0
 68 69  2  0
 68 70  1  0
 69 71  1  0
 70 72  2  0
 71 73  2  0
 72 73  1  0
 74 75  1  0
 75 76  1  0
 76 77  2  0
 76 78  1  0
 78 79  1  0
 79 80  1  0
 80 81  2  0
 80 82  1  0
 82 83  1  0
 83 84  1  0
 83 86  1  6
 84 85  2  0
 84 94  1  0
 86 87  1  0
 87 88  2  0
 87 89  1  0
 88 90  1  0
 89 91  2  0
 90 92  2  0
 91 92  1  0
 92 93  1  0
 28 95  1  0
 39 96  1  0
M  CHG  1   1   1
M  END
$$$$
