
     RDKit          3D

 96 98  0  0  0  0  0  0  0  0999 V2000
   -1.9335   11.7108   35.4621 N   0  0  0  0  0  4  0  0  0  0  0  0
   -1.8981   10.8955   36.6313 C   0  0  2  0  0  0  0  0  0  0  0  0
   -3.0198    9.8753   36.5649 C   0  0  0  0  0  0  0  0  0  0  0  0
   -3.1048    9.0832   37.5438 O   0  0  0  0  0  0  0  0  0  0  0  0
   -2.1327   11.6490   37.8929 C   0  0  0  0  0  0  0  0  0  0  0  0
   -1.9444   11.0177   39.1960 C   0  0  0  0  0  0  0  0  0  0  0  0
   -2.0103   11.7448   40.4378 C   0  0  0  0  0  0  0  0  0  0  0  0
   -2.2496   13.1478   40.3624 O   0  0  0  0  0  0  0  0  0  0  0  0
   -1.8840   11.3103   41.5928 O   0  0  0  0  0  0  0  0  0  0  0  0
   -3.9127    9.8321   35.4571 N   0  0  0  0  0  0  0  0  0  0  0  0
   -4.9022    8.7719   35.4174 C   0  0  2  0  0  0  0  0  0  0  0  0
   -5.8473    8.8499   34.3061 C   0  0  0  0  0  0  0  0  0  0  0  0
   -6.8374    9.6414   34.4350 O   0  0  0  0  0  0  0  0  0  0  0  0
   -5.6989    8.8576   36.7273 C   0  0  2  0  0  0  0  0  0  0  0  0
   -5.6657    7.6218   37.5493 C   0  0  0  0  0  0  0  0  0  0  0  0
   -7.1581    9.0833   36.3085 C   0  0  0  0  0  0  0  0  0  0  0  0
   -6.4463    7.9592   38.8393 C   0  0  0  0  0  0  0  0  0  0  0  0
   -5.6888    8.0830   33.1120 N   0  0  0  0  0  0  0  0  0  0  0  0
   -6.3377    8.4987   31.9081 C   0  0  2  0  0  0  0  0  0  0  0  0
   -7.5093    7.6404   31.5314 C   0  0  0  0  0  0  0  0  0  0  0  0
   -8.3384    8.0492   30.7178 O   0  0  0  0  0  0  0  0  0  0  0  0
   -5.4611    8.7699   30.7412 C   0  0  0  0  0  0  0  0  0  0  0  0
   -4.3248    9.6729   30.8237 C   0  0  0  0  0  0  0  0  0  0  0  0
   -4.0555   10.6752   29.7856 C   0  0  0  0  0  0  0  0  0  0  0  0
   -4.6313   10.3307   28.5054 N   0  0  0  0  0  0  0  0  0  0  0  0
   -5.7780   10.9982   28.0039 C   0  0  0  0  0  0  0  0  0  0  0  0
   -7.0749   10.4099   28.0998 N   0  0  0  0  0  0  0  0  0  0  0  0
   -5.7104   12.1571   27.4335 N   0  0  0  0  0  0  0  0  0  0  0  0
   -7.6851    6.3497   32.1000 N   0  0  0  0  0  0  0  0  0  0  0  0
   -8.7853    5.4736   31.8574 C   0  0  2  0  0  0  0  0  0  0  0  0
   -8.9071    4.9000   30.5256 C   0  0  0  0  0  0  0  0  0  0  0  0
  -10.0636    4.8525   29.9430 O   0  0  0  0  0  0  0  0  0  0  0  0
  -10.1141    6.0417   32.3301 C   0  0  0  0  0  0  0  0  0  0  0  0
   -9.9321    7.1378   33.3128 C   0  0  0  0  0  0  0  0  0  0  0  0
  -10.6384    6.9542   34.6282 C   0  0  0  0  0  0  0  0  0  0  0  0
  -11.4307    8.1756   34.8607 N   0  0  0  0  0  0  0  0  0  0  0  0
  -11.2842    9.2650   33.9285 C   0  0  0  0  0  0  0  0  0  0  0  0
  -10.1118    9.4256   33.1600 N   0  0  0  0  0  0  0  0  0  0  0  0
  -12.2894   10.0964   33.8268 N   0  0  0  0  0  0  0  0  0  0  0  0
   -7.8595    4.3580   29.7443 N   0  0  0  0  0  0  0  0  0  0  0  0
   -8.1628    3.2556   28.7924 C   0  0  2  0  0  0  0  0  0  0  0  0
   -6.9092    2.4932   28.6199 C   0  0  0  0  0  0  0  0  0  0  0  0
   -5.8562    3.1028   28.1725 O   0  0  0  0  0  0  0  0  0  0  0  0
   -8.5036    4.0461   27.5148 C   0  0  1  0  0  0  0  0  0  0  0  0
   -8.2161    3.2300   26.3052 C   0  0  0  0  0  0  0  0  0  0  0  0
   -9.8341    4.6910   27.5267 C   0  0  0  0  0  0  0  0  0  0  0  0
   -6.7163    1.1238   28.9015 N   0  0  0  0  0  0  0  0  0  0  0  0
   -5.4419    0.4881   29.1547 C   0  0  2  0  0  0  0  0  0  0  0  0
   -4.7701    0.2526   27.8236 C   0  0  0  0  0  0  0  0  0  0  0  0
   -5.3781   -0.3907   26.9304 O   0  0  0  0  0  0  0  0  0  0  0  0
   -5.7265   -0.8260   29.8388 C   0  0  0  0  0  0  0  0  0  0  0  0
   -7.1528   -1.1353   29.5266 C   0  0  0  0  0  0  0  0  0  0  0  0
   -7.7401    0.1244   29.0007 C   0  0  0  0  0  0  0  0  0  0  0  0
   -3.4731    0.7103   27.4876 N   0  0  0  0  0  0  0  0  0  0  0  0
   -2.8516    0.3285   26.2109 C   0  0  2  0  0  0  0  0  0  0  0  0
   -1.3778    0.4060   26.2436 C   0  0  0  0  0  0  0  0  0  0  0  0
   -0.8975    1.5286   26.5982 O   0  0  0  0  0  0  0  0  0  0  0  0
   -3.4289    1.2303   25.1183 C   0  0  0  0  0  0  0  0  0  0  0  0
   -3.2523    2.6627   25.4638 C   0  0  0  0  0  0  0  0  0  0  0  0
   -4.4633    3.3013   26.0166 C   0  0  0  0  0  0  0  0  0  0  0  0
   -4.4424    4.3129   26.7470 O   0  0  0  0  0  0  0  0  0  0  0  0
   -5.7404    2.7838   25.7377 O   0  0  0  0  0  0  0  0  0  0  0  0
   -0.4601   -0.6029   25.9342 N   0  0  0  0  0  0  0  0  0  0  0  0
   -0.9026   -1.9245   25.5887 C   0  0  2  0  0  0  0  0  0  0  0  0
   -1.0082   -2.2507   24.1881 C   0  0  0  0  0  0  0  0  0  0  0  0
   -1.0890   -1.2598   23.3795 O   0  0  0  0  0  0  0  0  0  0  0  0
   -2.1435   -2.3257   26.3443 C   0  0  0  0  0  0  0  0  0  0  0  0
   -2.2806   -3.7192   26.6991 C   0  0  0  0  0  0  0  0  0  0  0  0
   -3.2877   -4.1924   27.5503 C   0  0  0  0  0  0  0  0  0  0  0  0
   -1.4077   -4.6587   26.2245 C   0  0  0  0  0  0  0  0  0  0  0  0
   -3.4226   -5.5067   27.9080 C   0  0  0  0  0  0  0  0  0  0  0  0
   -1.5200   -6.0070   26.5713 C   0  0  0  0  0  0  0  0  0  0  0  0
   -2.5252   -6.4395   27.4126 C   0  0  0  0  0  0  0  0  0  0  0  0
   -1.0349   -3.5211   23.6090 N   0  0  0  0  0  0  0  0  0  0  0  0
   -1.2565   -3.7186   22.2131 C   0  0  0  0  0  0  0  0  0  0  0  0
   -1.4771   -2.5192   21.4028 C   0  0  0  0  0  0  0  0  0  0  0  0
   -0.5752   -1.7049   21.1784 O   0  0  0  0  0  0  0  0  0  0  0  0
   -2.7552   -2.2120   20.8200 N   0  0  0  0  0  0  0  0  0  0  0  0
   -3.8189   -3.2327   20.8238 C   0  0  0  0  0  0  0  0  0  0  0  0
   -3.7885   -3.9594   22.1251 C   0  0  0  0  0  0  0  0  0  0  0  0
   -4.0722   -3.3083   23.1737 O   0  0  0  0  0  0  0  0  0  0  0  0
   -3.4669   -5.3134   22.2970 N   0  0  0  0  0  0  0  0  0  0  0  0
   -3.5843   -5.9852   23.6017 C   0  0  2  0  0  0  0  0  0  0  0  0
   -2.2741   -6.4321   24.0758 C   0  0  0  0  0  0  0  0  0  0  0  0
   -1.8403   -6.1766   25.2465 O   0  0  0  0  0  0  0  0  0  0  0  0
   -4.6740   -7.0009   23.6023 C   0  0  0  0  0  0  0  0  0  0  0  0
   -4.9047   -7.4982   24.9678 C   0  0  0  0  0  0  0  0  0  0  0  0
   -5.4519   -8.7539   25.1748 C   0  0  0  0  0  0  0  0  0  0  0  0
   -4.5814   -6.7623   26.0820 C   0  0  0  0  0  0  0  0  0  0  0  0
   -5.6674   -9.2549   26.4448 C   0  0  0  0  0  0  0  0  0  0  0  0
   -4.7989   -7.2676   27.3689 C   0  0  0  0  0  0  0  0  0  0  0  0
   -5.3384   -8.5062   27.5525 C   0  0  0  0  0  0  0  0  0  0  0  0
   -5.5485   -8.9934   28.8585 O   0  0  0  0  0  0  0  0  0  0  0  0
   -1.4319   -7.1640   23.2709 O   0  0  0  0  0  0  0  0  0  0  0  0
   -5.2835   12.3244   26.5107 H   0  0  0  0  0  0  0  0  0  0  0  0
  -13.0952    9.9099   34.4758 H   0  0  0  0  0  0  0  0  0  0  0  0
  2  1  1  6
  2  3  1  0
  2  5  1  0
  3  4  2  0
  3 10  1  0
  5  6  1  0
  6  7  1  0
  7  8  1  0
  7  9  2  0
 11 10  1  6
 11 12  1  0
 11 14  1  0
 12 13  2  0
 12 18  1  0
 14 15  1  0
 14 16  1  6
 15 17  1  0
 18 19  1  0
 19 20  1  0
 19 22  1  6
 20 21  2  0
 20 29  1  0
 22 23  1  0
 23 24  1  0
 24 25  1  0
 25 26  1  0
 26 27  1  0
 26 28  2  0
 29 30  1  0
 30 31  1  0
 30 33  1  6
 31 32  2  0
 31 40  1  0
 33 34  1  0
 34 35  1  0
 35 36  1  0
 36 37  1  0
 37 38  1  0
 37 39  2  0
 41 40  1  1
 41 42  1  0
 41 44  1  0
 42 43  2  0
 42 47  1  0
 44 45  1  6
 44 46  1  0
 47 48  1  0
 47 53  1  0
 48 49  1  6
 48 51  1  0
 49 50  2  0
 49 54  1  0
 51 52  1  0
 52 53  1  0
 54 55  1  0
 55 56  1  0
 55 58  1  6
 56 57  2  0
 56 63  1  0
 58 59  1  0
 59 60  1  0
 60 61  2  0
 60 62  1  0
 63 64  1  0
 64 65  1  0
 64 67  1  6
 65 66  2  0
 65 74  1  0
 67 68  1  0
 68 69  2  0
 68 70  1  0
 69 71  1  0
 70 72  2  0
 71 73  2  0
 72 73  1  0
 74 75  1  0
 75 76  1  0
 76 77  2  0
 76 78  1  0
 78 79  1  0
 79 80  1  0
 80 81  2  0
 80 82  1  0
 82 83  1  0
 83 84  1  0
 83 86  1  6
 84 85  2  0
 84 94  1  0
 86 87  1  0
 87 88  2  0
 87 89  1  0
 88 90  1  0
 89 91  2  0
 90 92  2  0
 91 92  1  0
 92 93  1  0
 28 95  1  0
 39 96  1  0
M  CHG  1   1   1
M  END
$$$$
