
     RDKit          3D

 96 98  0  0  0  0  0  0  0  0999 V2000
   -0.8735   -2.0131   32.7559 N   0  0  0  0  0  4  0  0  0  0  0  0
    0.2191   -1.1565   32.4314 C   0  0  2  0  0  0  0  0  0  0  0  0
    0.4851   -1.2270   30.9388 C   0  0  0  0  0  0  0  0  0  0  0  0
    1.2522   -0.3403   30.4718 O   0  0  0  0  0  0  0  0  0  0  0  0
    1.5014   -1.5536   33.0735 C   0  0  0  0  0  0  0  0  0  0  0  0
    2.5916   -2.1294   32.2912 C   0  0  0  0  0  0  0  0  0  0  0  0
    3.8429   -2.5425   32.8730 C   0  0  0  0  0  0  0  0  0  0  0  0
    4.8115   -3.1187   32.0004 O   0  0  0  0  0  0  0  0  0  0  0  0
    4.2047   -2.4659   34.0571 O   0  0  0  0  0  0  0  0  0  0  0  0
   -0.1037   -2.2414   30.1320 N   0  0  0  0  0  0  0  0  0  0  0  0
   -1.4715   -2.0529   29.6869 C   0  0  2  0  0  0  0  0  0  0  0  0
   -1.6248   -1.2201   28.4964 C   0  0  0  0  0  0  0  0  0  0  0  0
   -2.1946   -0.0899   28.6430 O   0  0  0  0  0  0  0  0  0  0  0  0
   -2.2261   -1.3776   30.8413 C   0  0  2  0  0  0  0  0  0  0  0  0
   -3.7001   -1.5483   30.7960 C   0  0  0  0  0  0  0  0  0  0  0  0
   -1.9399    0.1235   30.6987 C   0  0  0  0  0  0  0  0  0  0  0  0
   -4.0606   -1.6548   29.2973 C   0  0  0  0  0  0  0  0  0  0  0  0
   -1.1610   -1.6318   27.2101 N   0  0  0  0  0  0  0  0  0  0  0  0
   -0.7055   -0.6543   26.2719 C   0  0  2  0  0  0  0  0  0  0  0  0
   -1.8130   -0.0141   25.4879 C   0  0  0  0  0  0  0  0  0  0  0  0
   -1.8614    1.2111   25.3744 O   0  0  0  0  0  0  0  0  0  0  0  0
    0.4255   -1.0513   25.3962 C   0  0  0  0  0  0  0  0  0  0  0  0
    0.8561   -0.2333   24.2742 C   0  0  0  0  0  0  0  0  0  0  0  0
    2.1727    0.4155   24.2493 C   0  0  0  0  0  0  0  0  0  0  0  0
    2.0925    1.8575   24.3088 N   0  0  0  0  0  0  0  0  0  0  0  0
    1.1077    2.5763   23.5840 C   0  0  0  0  0  0  0  0  0  0  0  0
    0.7900    3.9284   23.9130 N   0  0  0  0  0  0  0  0  0  0  0  0
    0.4478    2.0503   22.6037 N   0  0  0  0  0  0  0  0  0  0  0  0
   -2.8198   -0.8007   24.8652 N   0  0  0  0  0  0  0  0  0  0  0  0
   -3.9669   -0.2986   24.1804 C   0  0  2  0  0  0  0  0  0  0  0  0
   -5.2656   -0.8306   24.5644 C   0  0  0  0  0  0  0  0  0  0  0  0
   -5.3595   -2.0328   25.0391 O   0  0  0  0  0  0  0  0  0  0  0  0
   -3.8039   -0.2961   22.6687 C   0  0  0  0  0  0  0  0  0  0  0  0
   -5.0526    0.1042   21.9754 C   0  0  0  0  0  0  0  0  0  0  0  0
   -5.5192   -0.8264   20.8895 C   0  0  0  0  0  0  0  0  0  0  0  0
   -6.1078    0.0144   19.8312 N   0  0  0  0  0  0  0  0  0  0  0  0
   -7.5060   -0.1597   19.5277 C   0  0  0  0  0  0  0  0  0  0  0  0
   -8.5017    0.6022   20.1751 N   0  0  0  0  0  0  0  0  0  0  0  0
   -7.8084   -1.0554   18.6231 N   0  0  0  0  0  0  0  0  0  0  0  0
   -6.5081   -0.1593   24.4795 N   0  0  0  0  0  0  0  0  0  0  0  0
   -7.4096   -0.1534   25.6631 C   0  0  2  0  0  0  0  0  0  0  0  0
   -6.9619    0.9592   26.5260 C   0  0  0  0  0  0  0  0  0  0  0  0
   -5.7796    0.9108   27.0557 O   0  0  0  0  0  0  0  0  0  0  0  0
   -7.0739   -1.5133   26.3041 C   0  0  1  0  0  0  0  0  0  0  0  0
   -7.4987   -1.5363   27.7292 C   0  0  0  0  0  0  0  0  0  0  0  0
   -7.4957   -2.6881   25.5116 C   0  0  0  0  0  0  0  0  0  0  0  0
   -7.7004    2.1173   26.8498 N   0  0  0  0  0  0  0  0  0  0  0  0
   -7.2221    3.2246   27.6481 C   0  0  2  0  0  0  0  0  0  0  0  0
   -7.3188    2.8236   29.1002 C   0  0  0  0  0  0  0  0  0  0  0  0
   -6.7051    1.8015   29.5005 O   0  0  0  0  0  0  0  0  0  0  0  0
   -8.1243    4.4004   27.3671 C   0  0  0  0  0  0  0  0  0  0  0  0
   -9.3739    3.8149   26.7985 C   0  0  0  0  0  0  0  0  0  0  0  0
   -9.0427    2.4115   26.4390 C   0  0  0  0  0  0  0  0  0  0  0  0
   -8.0654    3.5243   30.0779 N   0  0  0  0  0  0  0  0  0  0  0  0
   -8.4148    2.8838   31.3546 C   0  0  2  0  0  0  0  0  0  0  0  0
   -9.1444    3.7847   32.2684 C   0  0  0  0  0  0  0  0  0  0  0  0
  -10.3702    3.5010   32.4518 O   0  0  0  0  0  0  0  0  0  0  0  0
   -7.1219    2.3749   31.9948 C   0  0  0  0  0  0  0  0  0  0  0  0
   -7.2267    2.3747   33.4752 C   0  0  0  0  0  0  0  0  0  0  0  0
   -7.2181    1.0271   34.0781 C   0  0  0  0  0  0  0  0  0  0  0  0
   -7.8965    0.0712   33.6500 O   0  0  0  0  0  0  0  0  0  0  0  0
   -6.4191    0.7461   35.2003 O   0  0  0  0  0  0  0  0  0  0  0  0
   -8.6469    4.9008   32.9487 N   0  0  0  0  0  0  0  0  0  0  0  0
   -9.5232    5.9496   33.3888 C   0  0  2  0  0  0  0  0  0  0  0  0
   -9.6739    7.0999   32.5323 C   0  0  0  0  0  0  0  0  0  0  0  0
   -8.9775    7.1012   31.4567 O   0  0  0  0  0  0  0  0  0  0  0  0
   -9.2556    6.3548   34.8156 C   0  0  0  0  0  0  0  0  0  0  0  0
   -9.0191    5.2971   35.7705 C   0  0  0  0  0  0  0  0  0  0  0  0
  -10.0448    4.4954   36.2879 C   0  0  0  0  0  0  0  0  0  0  0  0
   -7.7606    5.0333   36.2359 C   0  0  0  0  0  0  0  0  0  0  0  0
   -9.8396    3.4992   37.2040 C   0  0  0  0  0  0  0  0  0  0  0  0
   -7.5199    4.0232   37.1701 C   0  0  0  0  0  0  0  0  0  0  0  0
   -8.5543    3.2511   37.6592 C   0  0  0  0  0  0  0  0  0  0  0  0
  -10.4891    8.2148   32.7389 N   0  0  0  0  0  0  0  0  0  0  0  0
  -11.7371    8.1306   33.4258 C   0  0  0  0  0  0  0  0  0  0  0  0
  -12.4438    9.3895   33.6691 C   0  0  0  0  0  0  0  0  0  0  0  0
  -13.6744    9.4750   33.5962 O   0  0  0  0  0  0  0  0  0  0  0  0
  -11.7522   10.6046   34.0051 N   0  0  0  0  0  0  0  0  0  0  0  0
  -12.0366   11.8355   33.2454 C   0  0  0  0  0  0  0  0  0  0  0  0
  -11.3418   12.9805   33.9001 C   0  0  0  0  0  0  0  0  0  0  0  0
  -11.2350   12.9652   35.1620 O   0  0  0  0  0  0  0  0  0  0  0  0
  -10.7921   14.0883   33.2390 N   0  0  0  0  0  0  0  0  0  0  0  0
  -10.3468   14.0204   31.8374 C   0  0  2  0  0  0  0  0  0  0  0  0
  -11.4051   14.4720   30.9335 C   0  0  0  0  0  0  0  0  0  0  0  0
  -12.5427   13.9019   30.8640 O   0  0  0  0  0  0  0  0  0  0  0  0
   -9.7180   12.7072   31.5221 C   0  0  0  0  0  0  0  0  0  0  0  0
   -9.0535   12.7636   30.2105 C   0  0  0  0  0  0  0  0  0  0  0  0
   -8.5042   11.6212   29.6518 C   0  0  0  0  0  0  0  0  0  0  0  0
   -8.9605   13.9257   29.4834 C   0  0  0  0  0  0  0  0  0  0  0  0
   -7.8864   11.6387   28.4156 C   0  0  0  0  0  0  0  0  0  0  0  0
   -8.3354   13.9457   28.2315 C   0  0  0  0  0  0  0  0  0  0  0  0
   -7.8006   12.8107   27.6979 C   0  0  0  0  0  0  0  0  0  0  0  0
   -7.1753   12.8560   26.4354 O   0  0  0  0  0  0  0  0  0  0  0  0
  -11.2246   15.5530   30.1018 O   0  0  0  0  0  0  0  0  0  0  0  0
    0.5689    2.3159   21.6156 H   0  0  0  0  0  0  0  0  0  0  0  0
   -7.5915   -0.7841   17.6309 H   0  0  0  0  0  0  0  0  0  0  0  0
  2  1  1  6
  2  3  1  0
  2  5  1  0
  3  4  2  0
  3 10  1  0
  5  6  1  0
  6  7  1  0
  7  8  1  0
  7  9  2  0
 11 10  1  1
 11 12  1  0
 11 14  1  0
 12 13  2  0
 12 18  1  0
 14 15  1  0
 14 16  1  6
 15 17  1  0
 18 19  1  0
 19 20  1  0
 19 22  1  6
 20 21  2  0
 20 29  1  0
 22 23  1  0
 23 24  1  0
 24 25  1  0
 25 26  1  0
 26 27  1  0
 26 28  2  0
 29 30  1  0
 30 31  1  0
 30 33  1  6
 31 32  2  0
 31 40  1  0
 33 34  1  0
 34 35  1  0
 35 36  1  0
 36 37  1  0
 37 38  1  0
 37 39  2  0
 41 40  1  6
 41 42  1  0
 41 44  1  0
 42 43  2  0
 42 47  1  0
 44 45  1  1
 44 46  1  0
 47 48  1  0
 47 53  1  0
 48 49  1  1
 48 51  1  0
 49 50  2  0
 49 54  1  0
 51 52  1  0
 52 53  1  0
 54 55  1  0
 55 56  1  0
 55 58  1  1
 56 57  2  0
 56 63  1  0
 58 59  1  0
 59 60  1  0
 60 61  2  0
 60 62  1  0
 63 64  1  0
 64 65  1  0
 64 67  1  1
 65 66  2  0
 65 74  1  0
 67 68  1  0
 68 69  2  0
 68 70  1  0
 69 71  1  0
 70 72  2  0
 71 73  2  0
 72 73  1  0
 74 75  1  0
 75 76  1  0
 76 77  2  0
 76 78  1  0
 78 79  1  0
 79 80  1  0
 80 81  2  0
 80 82  1  0
 82 83  1  0
 83 84  1  0
 83 86  1  6
 84 85  2  0
 84 94  1  0
 86 87  1  0
 87 88  2  0
 87 89  1  0
 88 90  1  0
 89 91  2  0
 90 92  2  0
 91 92  1  0
 92 93  1  0
 28 95  1  0
 39 96  1  0
M  CHG  1   1   1
M  END
$$$$
