
     RDKit          3D

 96 98  0  0  0  0  0  0  0  0999 V2000
    3.9189   -8.7703   28.5926 N   0  0  0  0  0  4  0  0  0  0  0  0
    3.5924   -7.9688   27.4595 C   0  0  2  0  0  0  0  0  0  0  0  0
    2.9080   -6.6969   27.9257 C   0  0  0  0  0  0  0  0  0  0  0  0
    1.8675   -6.8528   28.6227 O   0  0  0  0  0  0  0  0  0  0  0  0
    2.6242   -8.6126   26.5308 C   0  0  0  0  0  0  0  0  0  0  0  0
    2.3033   -8.0127   25.2388 C   0  0  0  0  0  0  0  0  0  0  0  0
    1.3933   -8.6140   24.2979 C   0  0  0  0  0  0  0  0  0  0  0  0
    1.1890   -7.9360   23.0609 O   0  0  0  0  0  0  0  0  0  0  0  0
    0.7455   -9.6652   24.4164 O   0  0  0  0  0  0  0  0  0  0  0  0
    3.4258   -5.4146   27.5877 N   0  0  0  0  0  0  0  0  0  0  0  0
    2.5584   -4.2629   27.7485 C   0  0  2  0  0  0  0  0  0  0  0  0
    1.3143   -4.3148   26.9845 C   0  0  0  0  0  0  0  0  0  0  0  0
    1.0552   -5.3958   26.3618 O   0  0  0  0  0  0  0  0  0  0  0  0
    3.3550   -3.0369   27.2792 C   0  0  2  0  0  0  0  0  0  0  0  0
    4.8085   -3.0977   27.5749 C   0  0  0  0  0  0  0  0  0  0  0  0
    2.7831   -1.8483   28.0639 C   0  0  0  0  0  0  0  0  0  0  0  0
    5.4155   -1.8260   26.9413 C   0  0  0  0  0  0  0  0  0  0  0  0
    0.4071   -3.2137   26.9245 N   0  0  0  0  0  0  0  0  0  0  0  0
   -0.9817   -3.4486   26.6812 C   0  0  2  0  0  0  0  0  0  0  0  0
   -1.7994   -2.1925   26.6133 C   0  0  0  0  0  0  0  0  0  0  0  0
   -1.9728   -1.5127   27.6253 O   0  0  0  0  0  0  0  0  0  0  0  0
   -1.6370   -4.4828   27.5208 C   0  0  0  0  0  0  0  0  0  0  0  0
   -2.0442   -5.7697   26.9812 C   0  0  0  0  0  0  0  0  0  0  0  0
   -1.6679   -7.0337   27.6261 C   0  0  0  0  0  0  0  0  0  0  0  0
   -2.7634   -7.9730   27.7090 N   0  0  0  0  0  0  0  0  0  0  0  0
   -3.4108   -8.4623   26.5457 C   0  0  0  0  0  0  0  0  0  0  0  0
   -2.9297   -9.6217   25.8663 N   0  0  0  0  0  0  0  0  0  0  0  0
   -4.4535   -7.8878   26.0401 N   0  0  0  0  0  0  0  0  0  0  0  0
   -2.3853   -1.7645   25.3912 N   0  0  0  0  0  0  0  0  0  0  0  0
   -3.2614   -0.6493   25.2309 C   0  0  2  0  0  0  0  0  0  0  0  0
   -4.0175   -0.2154   26.3960 C   0  0  0  0  0  0  0  0  0  0  0  0
   -4.2887   -1.0567   27.3435 O   0  0  0  0  0  0  0  0  0  0  0  0
   -4.1607   -0.7694   24.0108 C   0  0  0  0  0  0  0  0  0  0  0  0
   -4.2652    0.5109   23.2690 C   0  0  0  0  0  0  0  0  0  0  0  0
   -5.6558    1.0666   23.1261 C   0  0  0  0  0  0  0  0  0  0  0  0
   -6.5653   -0.0871   23.0025 N   0  0  0  0  0  0  0  0  0  0  0  0
   -7.9782    0.1742   22.8877 C   0  0  0  0  0  0  0  0  0  0  0  0
   -8.4633    1.3598   22.2962 N   0  0  0  0  0  0  0  0  0  0  0  0
   -8.7892   -0.7397   23.3557 N   0  0  0  0  0  0  0  0  0  0  0  0
   -4.5206    1.0851   26.6356 N   0  0  0  0  0  0  0  0  0  0  0  0
   -4.9036    1.4687   28.0211 C   0  0  2  0  0  0  0  0  0  0  0  0
   -5.4498    2.8391   27.9414 C   0  0  0  0  0  0  0  0  0  0  0  0
   -5.6063    3.5207   29.0330 O   0  0  0  0  0  0  0  0  0  0  0  0
   -3.5330    1.4650   28.7244 C   0  0  1  0  0  0  0  0  0  0  0  0
   -3.5771    2.2984   29.9554 C   0  0  0  0  0  0  0  0  0  0  0  0
   -2.9369    0.1238   28.9038 C   0  0  0  0  0  0  0  0  0  0  0  0
   -5.8321    3.5212   26.7666 N   0  0  0  0  0  0  0  0  0  0  0  0
   -6.3618    4.8660   26.7089 C   0  0  2  0  0  0  0  0  0  0  0  0
   -7.8229    4.8039   27.0826 C   0  0  0  0  0  0  0  0  0  0  0  0
   -8.6936    5.0802   26.2182 O   0  0  0  0  0  0  0  0  0  0  0  0
   -6.2034    5.3478   25.2882 C   0  0  0  0  0  0  0  0  0  0  0  0
   -6.0395    4.1129   24.4662 C   0  0  0  0  0  0  0  0  0  0  0  0
   -5.7532    3.0157   25.4268 C   0  0  0  0  0  0  0  0  0  0  0  0
   -8.3087    4.4493   28.3644 N   0  0  0  0  0  0  0  0  0  0  0  0
   -9.7456    4.5247   28.6679 C   0  0  2  0  0  0  0  0  0  0  0  0
  -10.1006    5.7080   29.4756 C   0  0  0  0  0  0  0  0  0  0  0  0
  -11.3449    5.8839   29.6695 O   0  0  0  0  0  0  0  0  0  0  0  0
  -10.1448    3.2299   29.3781 C   0  0  0  0  0  0  0  0  0  0  0  0
  -10.8273    3.5183   30.6640 C   0  0  0  0  0  0  0  0  0  0  0  0
  -11.0851    2.3214   31.4892 C   0  0  0  0  0  0  0  0  0  0  0  0
  -12.0916    2.1818   32.2134 O   0  0  0  0  0  0  0  0  0  0  0  0
  -10.1797    1.2459   31.4991 O   0  0  0  0  0  0  0  0  0  0  0  0
   -9.2349    6.6464   30.0466 N   0  0  0  0  0  0  0  0  0  0  0  0
   -9.7151    7.6190   30.9874 C   0  0  2  0  0  0  0  0  0  0  0  0
   -9.3953    7.4192   32.3792 C   0  0  0  0  0  0  0  0  0  0  0  0
   -8.9418    8.4390   33.0090 O   0  0  0  0  0  0  0  0  0  0  0  0
  -11.1786    7.9238   30.7952 C   0  0  0  0  0  0  0  0  0  0  0  0
  -11.5206    8.9490   29.8369 C   0  0  0  0  0  0  0  0  0  0  0  0
  -10.5636    9.6142   29.0596 C   0  0  0  0  0  0  0  0  0  0  0  0
  -12.8184    9.3378   29.6505 C   0  0  0  0  0  0  0  0  0  0  0  0
  -10.8695   10.5977   28.1581 C   0  0  0  0  0  0  0  0  0  0  0  0
  -13.1614   10.3379   28.7378 C   0  0  0  0  0  0  0  0  0  0  0  0
  -12.1927   10.9729   27.9872 C   0  0  0  0  0  0  0  0  0  0  0  0
   -9.5199    6.2430   33.1216 N   0  0  0  0  0  0  0  0  0  0  0  0
   -9.1761    6.1741   34.5049 C   0  0  0  0  0  0  0  0  0  0  0  0
   -8.0395    5.3230   34.8617 C   0  0  0  0  0  0  0  0  0  0  0  0
   -7.7803    5.0335   36.0347 O   0  0  0  0  0  0  0  0  0  0  0  0
   -7.1529    4.7731   33.8721 N   0  0  0  0  0  0  0  0  0  0  0  0
   -5.9320    4.0682   34.3030 C   0  0  0  0  0  0  0  0  0  0  0  0
   -4.7468    4.9171   33.9915 C   0  0  0  0  0  0  0  0  0  0  0  0
   -3.6243    4.3440   33.8665 O   0  0  0  0  0  0  0  0  0  0  0  0
   -4.7604    6.3095   33.8259 N   0  0  0  0  0  0  0  0  0  0  0  0
   -3.5207    7.0996   33.7481 C   0  0  2  0  0  0  0  0  0  0  0  0
   -3.7898    8.5151   34.0033 C   0  0  0  0  0  0  0  0  0  0  0  0
   -2.8909    9.4143   33.9187 O   0  0  0  0  0  0  0  0  0  0  0  0
   -2.7408    6.7816   32.5194 C   0  0  0  0  0  0  0  0  0  0  0  0
   -2.6104    5.3244   32.3630 C   0  0  0  0  0  0  0  0  0  0  0  0
   -1.8934    4.7931   31.3034 C   0  0  0  0  0  0  0  0  0  0  0  0
   -3.1696    4.4373   33.2507 C   0  0  0  0  0  0  0  0  0  0  0  0
   -1.7408    3.4295   31.1372 C   0  0  0  0  0  0  0  0  0  0  0  0
   -3.0164    3.0562   33.0843 C   0  0  0  0  0  0  0  0  0  0  0  0
   -2.3067    2.5522   32.0349 C   0  0  0  0  0  0  0  0  0  0  0  0
   -2.1667    1.1573   31.8880 O   0  0  0  0  0  0  0  0  0  0  0  0
   -5.0465    8.9546   34.3503 O   0  0  0  0  0  0  0  0  0  0  0  0
   -4.5137   -7.5476   25.0693 H   0  0  0  0  0  0  0  0  0  0  0  0
   -9.1665   -0.5558   24.3195 H   0  0  0  0  0  0  0  0  0  0  0  0
  2  1  1  1
  2  3  1  0
  2  5  1  0
  3  4  2  0
  3 10  1  0
  5  6  1  0
  6  7  1  0
  7  8  1  0
  7  9  2  0
 11 10  1  6
 11 12  1  0
 11 14  1  0
 12 13  2  0
 12 18  1  0
 14 15  1  0
 14 16  1  1
 15 17  1  0
 18 19  1  0
 19 20  1  0
 19 22  1  1
 20 21  2  0
 20 29  1  0
 22 23  1  0
 23 24  1  0
 24 25  1  0
 25 26  1  0
 26 27  1  0
 26 28  2  0
 29 30  1  0
 30 31  1  0
 30 33  1  6
 31 32  2  0
 31 40  1  0
 33 34  1  0
 34 35  1  0
 35 36  1  0
 36 37  1  0
 37 38  1  0
 37 39  2  0
 41 40  1  6
 41 42  1  0
 41 44  1  0
 42 43  2  0
 42 47  1  0
 44 45  1  1
 44 46  1  0
 47 48  1  0
 47 53  1  0
 48 49  1  6
 48 51  1  0
 49 50  2  0
 49 54  1  0
 51 52  1  0
 52 53  1  0
 54 55  1  0
 55 56  1  0
 55 58  1  1
 56 57  2  0
 56 63  1  0
 58 59  1  0
 59 60  1  0
 60 61  2  0
 60 62  1  0
 63 64  1  0
 64 65  1  0
 64 67  1  1
 65 66  2  0
 65 74  1  0
 67 68  1  0
 68 69  2  0
 68 70  1  0
 69 71  1  0
 70 72  2  0
 71 73  2  0
 72 73  1  0
 74 75  1  0
 75 76  1  0
 76 77  2  0
 76 78  1  0
 78 79  1  0
 79 80  1  0
 80 81  2  0
 80 82  1  0
 82 83  1  0
 83 84  1  0
 83 86  1  6
 84 85  2  0
 84 94  1  0
 86 87  1  0
 87 88  2  0
 87 89  1  0
 88 90  1  0
 89 91  2  0
 90 92  2  0
 91 92  1  0
 92 93  1  0
 28 95  1  0
 39 96  1  0
M  CHG  1   1   1
M  END
$$$$
