
     RDKit          3D

 96 98  0  0  0  0  0  0  0  0999 V2000
    4.9316   -4.7747   24.8959 N   0  0  0  0  0  4  0  0  0  0  0  0
    3.7558   -3.9739   24.7989 C   0  0  2  0  0  0  0  0  0  0  0  0
    2.7575   -4.6582   23.8832 C   0  0  0  0  0  0  0  0  0  0  0  0
    2.9911   -5.8699   23.6182 O   0  0  0  0  0  0  0  0  0  0  0  0
    3.9911   -2.6378   24.1875 C   0  0  0  0  0  0  0  0  0  0  0  0
    3.3612   -1.4373   24.7296 C   0  0  0  0  0  0  0  0  0  0  0  0
    3.5689   -0.1234   24.1768 C   0  0  0  0  0  0  0  0  0  0  0  0
    2.5121    0.4338   23.3995 O   0  0  0  0  0  0  0  0  0  0  0  0
    4.5640    0.6094   24.2845 O   0  0  0  0  0  0  0  0  0  0  0  0
    1.6309   -3.9582   23.3662 N   0  0  0  0  0  0  0  0  0  0  0  0
    0.3218   -4.2775   23.9037 C   0  0  2  0  0  0  0  0  0  0  0  0
   -0.5978   -3.1469   24.0035 C   0  0  0  0  0  0  0  0  0  0  0  0
   -0.1183   -2.0368   24.4050 O   0  0  0  0  0  0  0  0  0  0  0  0
    0.5452   -4.8363   25.3165 C   0  0  2  0  0  0  0  0  0  0  0  0
    1.0890   -6.2172   25.3529 C   0  0  0  0  0  0  0  0  0  0  0  0
   -0.8442   -4.8800   25.9671 C   0  0  0  0  0  0  0  0  0  0  0  0
    0.8443   -6.7228   26.7923 C   0  0  0  0  0  0  0  0  0  0  0  0
   -1.9817   -3.2546   23.6681 N   0  0  0  0  0  0  0  0  0  0  0  0
   -2.8186   -2.0970   23.7204 C   0  0  2  0  0  0  0  0  0  0  0  0
   -3.0562   -1.5914   25.1129 C   0  0  0  0  0  0  0  0  0  0  0  0
   -3.0000   -2.3652   26.0691 O   0  0  0  0  0  0  0  0  0  0  0  0
   -4.0780   -2.1525   22.9366 C   0  0  0  0  0  0  0  0  0  0  0  0
   -4.1614   -2.8408   21.6588 C   0  0  0  0  0  0  0  0  0  0  0  0
   -4.2911   -2.1096   20.3925 C   0  0  0  0  0  0  0  0  0  0  0  0
   -4.3364   -2.9807   19.2400 N   0  0  0  0  0  0  0  0  0  0  0  0
   -3.1569   -3.5428   18.6881 C   0  0  0  0  0  0  0  0  0  0  0  0
   -2.2020   -2.7306   18.0056 N   0  0  0  0  0  0  0  0  0  0  0  0
   -2.8898   -4.8060   18.7657 N   0  0  0  0  0  0  0  0  0  0  0  0
   -3.3482   -0.2218   25.3554 N   0  0  0  0  0  0  0  0  0  0  0  0
   -3.8842    0.3161   26.5639 C   0  0  2  0  0  0  0  0  0  0  0  0
   -5.3053    0.1264   26.8122 C   0  0  0  0  0  0  0  0  0  0  0  0
   -6.1737    0.8898   26.2271 O   0  0  0  0  0  0  0  0  0  0  0  0
   -3.4766    1.7611   26.8044 C   0  0  0  0  0  0  0  0  0  0  0  0
   -2.2362    1.8620   27.6115 C   0  0  0  0  0  0  0  0  0  0  0  0
   -2.3400    2.6950   28.8598 C   0  0  0  0  0  0  0  0  0  0  0  0
   -3.2564    1.9852   29.7709 N   0  0  0  0  0  0  0  0  0  0  0  0
   -2.7974    0.7581   30.3717 C   0  0  0  0  0  0  0  0  0  0  0  0
   -1.4772    0.6198   30.8503 N   0  0  0  0  0  0  0  0  0  0  0  0
   -3.6622   -0.2203   30.4543 N   0  0  0  0  0  0  0  0  0  0  0  0
   -5.8886   -0.8438   27.6608 N   0  0  0  0  0  0  0  0  0  0  0  0
   -7.3645   -0.8470   27.8487 C   0  0  2  0  0  0  0  0  0  0  0  0
   -7.6391   -0.0026   29.0294 C   0  0  0  0  0  0  0  0  0  0  0  0
   -7.3535   -0.4560   30.2099 O   0  0  0  0  0  0  0  0  0  0  0  0
   -7.6246   -2.3322   28.1646 C   0  0  1  0  0  0  0  0  0  0  0  0
   -9.0522   -2.5461   28.5227 C   0  0  0  0  0  0  0  0  0  0  0  0
   -7.0876   -3.2778   27.1628 C   0  0  0  0  0  0  0  0  0  0  0  0
   -8.1947    1.2946   29.0203 N   0  0  0  0  0  0  0  0  0  0  0  0
   -7.9399    2.3262   30.0017 C   0  0  2  0  0  0  0  0  0  0  0  0
   -8.7887    2.0307   31.2144 C   0  0  0  0  0  0  0  0  0  0  0  0
   -8.8564    0.8522   31.6482 O   0  0  0  0  0  0  0  0  0  0  0  0
   -8.3469    3.6408   29.3838 C   0  0  0  0  0  0  0  0  0  0  0  0
   -9.2681    3.2851   28.2648 C   0  0  0  0  0  0  0  0  0  0  0  0
   -9.0944    1.8267   28.0382 C   0  0  0  0  0  0  0  0  0  0  0  0
   -9.5370    2.9998   31.9253 N   0  0  0  0  0  0  0  0  0  0  0  0
   -9.1881    4.4257   31.8403 C   0  0  2  0  0  0  0  0  0  0  0  0
  -10.2662    5.3105   32.3238 C   0  0  0  0  0  0  0  0  0  0  0  0
  -11.3915    5.1645   31.7500 O   0  0  0  0  0  0  0  0  0  0  0  0
   -8.8280    4.7360   30.3862 C   0  0  0  0  0  0  0  0  0  0  0  0
   -7.3894    4.4782   30.1288 C   0  0  0  0  0  0  0  0  0  0  0  0
   -6.7774    5.4053   29.1563 C   0  0  0  0  0  0  0  0  0  0  0  0
   -5.5471    5.5831   29.0467 O   0  0  0  0  0  0  0  0  0  0  0  0
   -7.5770    6.1573   28.2779 O   0  0  0  0  0  0  0  0  0  0  0  0
  -10.1927    6.2789   33.3301 N   0  0  0  0  0  0  0  0  0  0  0  0
  -11.1414    7.3550   33.3915 C   0  0  2  0  0  0  0  0  0  0  0  0
  -11.6205    7.7519   34.6923 C   0  0  0  0  0  0  0  0  0  0  0  0
  -12.5982    7.0737   35.1679 O   0  0  0  0  0  0  0  0  0  0  0  0
  -12.2768    7.1701   32.4176 C   0  0  0  0  0  0  0  0  0  0  0  0
  -13.1776    8.2840   32.2323 C   0  0  0  0  0  0  0  0  0  0  0  0
  -13.1390    9.1148   31.1050 C   0  0  0  0  0  0  0  0  0  0  0  0
  -14.1188    8.5962   33.1739 C   0  0  0  0  0  0  0  0  0  0  0  0
  -13.9753   10.1827   30.9211 C   0  0  0  0  0  0  0  0  0  0  0  0
  -14.9864    9.6791   33.0141 C   0  0  0  0  0  0  0  0  0  0  0  0
  -14.9213   10.4775   31.8901 C   0  0  0  0  0  0  0  0  0  0  0  0
  -11.1450    8.7914   35.4947 N   0  0  0  0  0  0  0  0  0  0  0  0
  -11.3324   10.1645   35.1545 C   0  0  0  0  0  0  0  0  0  0  0  0
  -10.4902   11.1388   35.8509 C   0  0  0  0  0  0  0  0  0  0  0  0
  -10.4049   12.3146   35.4806 O   0  0  0  0  0  0  0  0  0  0  0  0
   -9.7083   10.7895   37.0061 N   0  0  0  0  0  0  0  0  0  0  0  0
   -8.2432   10.6811   36.8852 C   0  0  0  0  0  0  0  0  0  0  0  0
   -7.8508   10.9666   35.4756 C   0  0  0  0  0  0  0  0  0  0  0  0
   -8.0241   12.1428   35.0393 O   0  0  0  0  0  0  0  0  0  0  0  0
   -7.3045   10.0397   34.5763 N   0  0  0  0  0  0  0  0  0  0  0  0
   -6.4802   10.4555   33.4295 C   0  0  2  0  0  0  0  0  0  0  0  0
   -6.1931    9.3172   32.5561 C   0  0  0  0  0  0  0  0  0  0  0  0
   -5.2165    9.3050   31.7374 O   0  0  0  0  0  0  0  0  0  0  0  0
   -5.3132   11.2760   33.8586 C   0  0  0  0  0  0  0  0  0  0  0  0
   -4.6190   10.6248   34.9806 C   0  0  0  0  0  0  0  0  0  0  0  0
   -4.7488    9.2617   35.1908 C   0  0  0  0  0  0  0  0  0  0  0  0
   -3.8124   11.3203   35.8485 C   0  0  0  0  0  0  0  0  0  0  0  0
   -4.0983    8.6186   36.2270 C   0  0  0  0  0  0  0  0  0  0  0  0
   -3.1528   10.6712   36.8984 C   0  0  0  0  0  0  0  0  0  0  0  0
   -3.2928    9.3284   37.0891 C   0  0  0  0  0  0  0  0  0  0  0  0
   -2.6188    8.6970   38.1540 O   0  0  0  0  0  0  0  0  0  0  0  0
   -6.9727    8.1838   32.5760 O   0  0  0  0  0  0  0  0  0  0  0  0
   -1.9588   -5.1886   18.9859 H   0  0  0  0  0  0  0  0  0  0  0  0
   -3.4640   -0.9347   31.1996 H   0  0  0  0  0  0  0  0  0  0  0  0
  2  1  1  6
  2  3  1  0
  2  5  1  0
  3  4  2  0
  3 10  1  0
  5  6  1  0
  6  7  1  0
  7  8  1  0
  7  9  2  0
 11 10  1  1
 11 12  1  0
 11 14  1  0
 12 13  2  0
 12 18  1  0
 14 15  1  0
 14 16  1  1
 15 17  1  0
 18 19  1  0
 19 20  1  0
 19 22  1  1
 20 21  2  0
 20 29  1  0
 22 23  1  0
 23 24  1  0
 24 25  1  0
 25 26  1  0
 26 27  1  0
 26 28  2  0
 29 30  1  0
 30 31  1  0
 30 33  1  6
 31 32  2  0
 31 40  1  0
 33 34  1  0
 34 35  1  0
 35 36  1  0
 36 37  1  0
 37 38  1  0
 37 39  2  0
 41 40  1  1
 41 42  1  0
 41 44  1  0
 42 43  2  0
 42 47  1  0
 44 45  1  6
 44 46  1  0
 47 48  1  0
 47 53  1  0
 48 49  1  1
 48 51  1  0
 49 50  2  0
 49 54  1  0
 51 52  1  0
 52 53  1  0
 54 55  1  0
 55 56  1  0
 55 58  1  6
 56 57  2  0
 56 63  1  0
 58 59  1  0
 59 60  1  0
 60 61  2  0
 60 62  1  0
 63 64  1  0
 64 65  1  0
 64 67  1  6
 65 66  2  0
 65 74  1  0
 67 68  1  0
 68 69  2  0
 68 70  1  0
 69 71  1  0
 70 72  2  0
 71 73  2  0
 72 73  1  0
 74 75  1  0
 75 76  1  0
 76 77  2  0
 76 78  1  0
 78 79  1  0
 79 80  1  0
 80 81  2  0
 80 82  1  0
 82 83  1  0
 83 84  1  0
 83 86  1  1
 84 85  2  0
 84 94  1  0
 86 87  1  0
 87 88  2  0
 87 89  1  0
 88 90  1  0
 89 91  2  0
 90 92  2  0
 91 92  1  0
 92 93  1  0
 28 95  1  0
 39 96  1  0
M  CHG  1   1   1
M  END
$$$$
