
     RDKit          3D

 96 98  0  0  0  0  0  0  0  0999 V2000
    2.0791   -4.2774   22.7700 N   0  0  0  0  0  4  0  0  0  0  0  0
    1.0459   -5.2498   22.9112 C   0  0  2  0  0  0  0  0  0  0  0  0
   -0.2701   -4.5462   23.1880 C   0  0  0  0  0  0  0  0  0  0  0  0
   -0.5704   -4.3946   24.4044 O   0  0  0  0  0  0  0  0  0  0  0  0
    1.2441   -6.1699   24.0638 C   0  0  0  0  0  0  0  0  0  0  0  0
    0.4438   -7.3825   24.2089 C   0  0  0  0  0  0  0  0  0  0  0  0
    0.6676   -8.3512   25.2513 C   0  0  0  0  0  0  0  0  0  0  0  0
    0.7047   -9.7244   24.8710 O   0  0  0  0  0  0  0  0  0  0  0  0
    0.8360   -8.1532   26.4642 O   0  0  0  0  0  0  0  0  0  0  0  0
   -1.1006   -4.0908   22.1253 N   0  0  0  0  0  0  0  0  0  0  0  0
   -2.3215   -3.3850   22.4659 C   0  0  2  0  0  0  0  0  0  0  0  0
   -2.9271   -3.7757   23.7366 C   0  0  0  0  0  0  0  0  0  0  0  0
   -2.7471   -4.9755   24.1257 O   0  0  0  0  0  0  0  0  0  0  0  0
   -3.3314   -3.6775   21.3467 C   0  0  2  0  0  0  0  0  0  0  0  0
   -2.8568   -3.3302   19.9837 C   0  0  0  0  0  0  0  0  0  0  0  0
   -4.5454   -2.7865   21.6436 C   0  0  0  0  0  0  0  0  0  0  0  0
   -4.0994   -3.4344   19.0714 C   0  0  0  0  0  0  0  0  0  0  0  0
   -3.6918   -2.8679   24.5305 N   0  0  0  0  0  0  0  0  0  0  0  0
   -4.2077   -3.2896   25.7952 C   0  0  2  0  0  0  0  0  0  0  0  0
   -5.0492   -2.2505   26.4760 C   0  0  0  0  0  0  0  0  0  0  0  0
   -5.4294   -1.2584   25.8535 O   0  0  0  0  0  0  0  0  0  0  0  0
   -3.2390   -3.9095   26.7339 C   0  0  0  0  0  0  0  0  0  0  0  0
   -2.2983   -4.9323   26.3071 C   0  0  0  0  0  0  0  0  0  0  0  0
   -1.3728   -5.5743   27.2485 C   0  0  0  0  0  0  0  0  0  0  0  0
   -0.4718   -6.5053   26.6078 N   0  0  0  0  0  0  0  0  0  0  0  0
   -0.8348   -7.8593   26.3912 C   0  0  0  0  0  0  0  0  0  0  0  0
   -2.1070   -8.3572   26.8048 N   0  0  0  0  0  0  0  0  0  0  0  0
   -0.0405   -8.7066   25.8217 N   0  0  0  0  0  0  0  0  0  0  0  0
   -5.4220   -2.3883   27.8405 N   0  0  0  0  0  0  0  0  0  0  0  0
   -6.2399   -1.4805   28.5782 C   0  0  2  0  0  0  0  0  0  0  0  0
   -6.9726   -0.4728   27.8266 C   0  0  0  0  0  0  0  0  0  0  0  0
   -7.8190   -0.8325   26.9136 O   0  0  0  0  0  0  0  0  0  0  0  0
   -5.5194   -0.8595   29.7644 C   0  0  0  0  0  0  0  0  0  0  0  0
   -6.2148    0.3510   30.2658 C   0  0  0  0  0  0  0  0  0  0  0  0
   -7.5259    0.1050   30.9612 C   0  0  0  0  0  0  0  0  0  0  0  0
   -7.2141   -0.5807   32.2285 N   0  0  0  0  0  0  0  0  0  0  0  0
   -8.0462   -1.6906   32.6200 C   0  0  0  0  0  0  0  0  0  0  0  0
   -9.3661   -1.4968   33.0796 N   0  0  0  0  0  0  0  0  0  0  0  0
   -7.5213   -2.8855   32.5275 N   0  0  0  0  0  0  0  0  0  0  0  0
   -6.8695    0.9300   27.9787 N   0  0  0  0  0  0  0  0  0  0  0  0
   -6.7199    1.7801   26.7668 C   0  0  2  0  0  0  0  0  0  0  0  0
   -6.4353    3.1482   27.2464 C   0  0  0  0  0  0  0  0  0  0  0  0
   -7.2989    3.7420   28.0095 O   0  0  0  0  0  0  0  0  0  0  0  0
   -8.1343    1.6944   26.1625 C   0  0  1  0  0  0  0  0  0  0  0  0
   -8.4949    2.9748   25.4974 C   0  0  0  0  0  0  0  0  0  0  0  0
   -8.3855    0.4825   25.3535 C   0  0  0  0  0  0  0  0  0  0  0  0
   -5.2837    3.9126   26.9620 N   0  0  0  0  0  0  0  0  0  0  0  0
   -4.2965    4.3389   27.9295 C   0  0  2  0  0  0  0  0  0  0  0  0
   -4.8491    5.5421   28.6545 C   0  0  0  0  0  0  0  0  0  0  0  0
   -4.2203    6.0138   29.6362 O   0  0  0  0  0  0  0  0  0  0  0  0
   -3.0525    4.7136   27.1628 C   0  0  0  0  0  0  0  0  0  0  0  0
   -3.5077    4.9577   25.7626 C   0  0  0  0  0  0  0  0  0  0  0  0
   -4.8782    4.3903   25.6719 C   0  0  0  0  0  0  0  0  0  0  0  0
   -6.0526    6.2034   28.3100 N   0  0  0  0  0  0  0  0  0  0  0  0
   -6.5591    7.3129   29.1314 C   0  0  2  0  0  0  0  0  0  0  0  0
   -7.7901    6.9663   29.8685 C   0  0  0  0  0  0  0  0  0  0  0  0
   -8.7788    6.6190   29.1483 O   0  0  0  0  0  0  0  0  0  0  0  0
   -6.7847    8.5143   28.2116 C   0  0  0  0  0  0  0  0  0  0  0  0
   -5.6526    8.6794   27.2663 C   0  0  0  0  0  0  0  0  0  0  0  0
   -4.5860    9.5748   27.7565 C   0  0  0  0  0  0  0  0  0  0  0  0
   -3.4615    9.1779   28.1242 O   0  0  0  0  0  0  0  0  0  0  0  0
   -4.7921   10.9633   27.8353 O   0  0  0  0  0  0  0  0  0  0  0  0
   -7.9906    6.9748   31.2526 N   0  0  0  0  0  0  0  0  0  0  0  0
   -9.2785    6.6801   31.8150 C   0  0  2  0  0  0  0  0  0  0  0  0
  -10.2945    7.7000   31.7327 C   0  0  0  0  0  0  0  0  0  0  0  0
   -9.9617    8.7854   31.1383 O   0  0  0  0  0  0  0  0  0  0  0  0
   -9.1761    6.1138   33.2080 C   0  0  0  0  0  0  0  0  0  0  0  0
   -8.0965    5.1904   33.4692 C   0  0  0  0  0  0  0  0  0  0  0  0
   -7.8557    4.6391   34.7343 C   0  0  0  0  0  0  0  0  0  0  0  0
   -7.2318    4.8153   32.4784 C   0  0  0  0  0  0  0  0  0  0  0  0
   -6.8288    3.7745   35.0017 C   0  0  0  0  0  0  0  0  0  0  0  0
   -6.1751    3.9347   32.7205 C   0  0  0  0  0  0  0  0  0  0  0  0
   -5.9666    3.4093   33.9798 C   0  0  0  0  0  0  0  0  0  0  0  0
  -11.5994    7.6446   32.2271 N   0  0  0  0  0  0  0  0  0  0  0  0
  -12.2907    8.8050   32.6874 C   0  0  0  0  0  0  0  0  0  0  0  0
  -11.7911    9.4286   33.9143 C   0  0  0  0  0  0  0  0  0  0  0  0
  -12.5283    9.6612   34.8784 O   0  0  0  0  0  0  0  0  0  0  0  0
  -10.4143    9.8116   34.0741 N   0  0  0  0  0  0  0  0  0  0  0  0
   -9.9841   11.1609   33.6649 C   0  0  0  0  0  0  0  0  0  0  0  0
   -9.6809   11.9634   34.8841 C   0  0  0  0  0  0  0  0  0  0  0  0
   -9.1866   11.3604   35.8822 O   0  0  0  0  0  0  0  0  0  0  0  0
   -9.8992   13.3409   35.0304 N   0  0  0  0  0  0  0  0  0  0  0  0
  -10.7613   13.8874   36.0912 C   0  0  2  0  0  0  0  0  0  0  0  0
  -10.9451   15.3290   35.9201 C   0  0  0  0  0  0  0  0  0  0  0  0
   -9.9826   16.1608   35.9951 O   0  0  0  0  0  0  0  0  0  0  0  0
  -10.3324   13.4270   37.4415 C   0  0  0  0  0  0  0  0  0  0  0  0
  -11.2067   14.0018   38.4760 C   0  0  0  0  0  0  0  0  0  0  0  0
  -11.5729   15.3368   38.4237 C   0  0  0  0  0  0  0  0  0  0  0  0
  -11.7048   13.2540   39.5154 C   0  0  0  0  0  0  0  0  0  0  0  0
  -12.4040   15.9025   39.3721 C   0  0  0  0  0  0  0  0  0  0  0  0
  -12.5465   13.8248   40.4768 C   0  0  0  0  0  0  0  0  0  0  0  0
  -12.8960   15.1409   40.4084 C   0  0  0  0  0  0  0  0  0  0  0  0
  -13.7447   15.6935   41.3889 O   0  0  0  0  0  0  0  0  0  0  0  0
  -12.1846   15.8680   35.6631 O   0  0  0  0  0  0  0  0  0  0  0  0
    0.6909   -8.4489   25.1433 H   0  0  0  0  0  0  0  0  0  0  0  0
   -7.0566   -3.1033   31.6100 H   0  0  0  0  0  0  0  0  0  0  0  0
  2  1  1  1
  2  3  1  0
  2  5  1  0
  3  4  2  0
  3 10  1  0
  5  6  1  0
  6  7  1  0
  7  8  1  0
  7  9  2  0
 11 10  1  6
 11 12  1  0
 11 14  1  0
 12 13  2  0
 12 18  1  0
 14 15  1  0
 14 16  1  1
 15 17  1  0
 18 19  1  0
 19 20  1  0
 19 22  1  1
 20 21  2  0
 20 29  1  0
 22 23  1  0
 23 24  1  0
 24 25  1  0
 25 26  1  0
 26 27  1  0
 26 28  2  0
 29 30  1  0
 30 31  1  0
 30 33  1  1
 31 32  2  0
 31 40  1  0
 33 34  1  0
 34 35  1  0
 35 36  1  0
 36 37  1  0
 37 38  1  0
 37 39  2  0
 41 40  1  1
 41 42  1  0
 41 44  1  0
 42 43  2  0
 42 47  1  0
 44 45  1  6
 44 46  1  0
 47 48  1  0
 47 53  1  0
 48 49  1  6
 48 51  1  0
 49 50  2  0
 49 54  1  0
 51 52  1  0
 52 53  1  0
 54 55  1  0
 55 56  1  0
 55 58  1  6
 56 57  2  0
 56 63  1  0
 58 59  1  0
 59 60  1  0
 60 61  2  0
 60 62  1  0
 63 64  1  0
 64 65  1  0
 64 67  1  1
 65 66  2  0
 65 74  1  0
 67 68  1  0
 68 69  2  0
 68 70  1  0
 69 71  1  0
 70 72  2  0
 71 73  2  0
 72 73  1  0
 74 75  1  0
 75 76  1  0
 76 77  2  0
 76 78  1  0
 78 79  1  0
 79 80  1  0
 80 81  2  0
 80 82  1  0
 82 83  1  0
 83 84  1  0
 83 86  1  1
 84 85  2  0
 84 94  1  0
 86 87  1  0
 87 88  2  0
 87 89  1  0
 88 90  1  0
 89 91  2  0
 90 92  2  0
 91 92  1  0
 92 93  1  0
 28 95  1  0
 39 96  1  0
M  CHG  1   1   1
M  END
$$$$
