
     RDKit          3D

 96 98  0  0  0  0  0  0  0  0999 V2000
   -0.6287  -10.1971   21.8271 N   0  0  0  0  0  4  0  0  0  0  0  0
   -0.1907   -8.8535   22.0162 C   0  0  2  0  0  0  0  0  0  0  0  0
   -1.1199   -8.1562   22.9928 C   0  0  0  0  0  0  0  0  0  0  0  0
   -2.2544   -7.8351   22.5427 O   0  0  0  0  0  0  0  0  0  0  0  0
   -0.2389   -8.0291   20.7783 C   0  0  0  0  0  0  0  0  0  0  0  0
    0.2486   -6.6528   20.7676 C   0  0  0  0  0  0  0  0  0  0  0  0
    0.2629   -5.8337   19.5828 C   0  0  0  0  0  0  0  0  0  0  0  0
    0.4622   -4.4333   19.7581 O   0  0  0  0  0  0  0  0  0  0  0  0
    0.1217   -6.1848   18.4015 O   0  0  0  0  0  0  0  0  0  0  0  0
   -0.7175   -7.8910   24.3323 N   0  0  0  0  0  0  0  0  0  0  0  0
   -1.6619   -7.2279   25.2114 C   0  0  2  0  0  0  0  0  0  0  0  0
   -1.5863   -5.7690   25.2120 C   0  0  0  0  0  0  0  0  0  0  0  0
   -0.9161   -5.2186   26.1455 O   0  0  0  0  0  0  0  0  0  0  0  0
   -1.3662   -7.7210   26.6353 C   0  0  2  0  0  0  0  0  0  0  0  0
   -1.4618   -9.1922   26.8090 C   0  0  0  0  0  0  0  0  0  0  0  0
   -2.4471   -7.0894   27.5232 C   0  0  0  0  0  0  0  0  0  0  0  0
   -1.1045   -9.4605   28.2881 C   0  0  0  0  0  0  0  0  0  0  0  0
   -2.2259   -4.9695   24.2166 N   0  0  0  0  0  0  0  0  0  0  0  0
   -2.6437   -3.6396   24.5326 C   0  0  2  0  0  0  0  0  0  0  0  0
   -3.0347   -3.4596   25.9699 C   0  0  0  0  0  0  0  0  0  0  0  0
   -2.9530   -4.4044   26.7554 O   0  0  0  0  0  0  0  0  0  0  0  0
   -3.6319   -3.0186   23.6153 C   0  0  0  0  0  0  0  0  0  0  0  0
   -3.4107   -2.9425   22.1806 C   0  0  0  0  0  0  0  0  0  0  0  0
   -4.4688   -2.5188   21.2554 C   0  0  0  0  0  0  0  0  0  0  0  0
   -4.2358   -1.2074   20.6941 N   0  0  0  0  0  0  0  0  0  0  0  0
   -5.1802   -0.5898   19.8346 C   0  0  0  0  0  0  0  0  0  0  0  0
   -6.3823   -1.2601   19.4566 N   0  0  0  0  0  0  0  0  0  0  0  0
   -5.0021    0.5951   19.3475 N   0  0  0  0  0  0  0  0  0  0  0  0
   -3.5030   -2.2068   26.4507 N   0  0  0  0  0  0  0  0  0  0  0  0
   -3.2775   -1.6767   27.7565 C   0  0  2  0  0  0  0  0  0  0  0  0
   -3.8647   -0.3821   28.0673 C   0  0  0  0  0  0  0  0  0  0  0  0
   -3.2197    0.7066   27.7882 O   0  0  0  0  0  0  0  0  0  0  0  0
   -1.8168   -1.7277   28.1756 C   0  0  0  0  0  0  0  0  0  0  0  0
   -1.5517   -2.8278   29.1348 C   0  0  0  0  0  0  0  0  0  0  0  0
   -0.9728   -2.4092   30.4586 C   0  0  0  0  0  0  0  0  0  0  0  0
    0.4923   -2.3881   30.2958 N   0  0  0  0  0  0  0  0  0  0  0  0
    1.1164   -3.5090   29.6387 C   0  0  0  0  0  0  0  0  0  0  0  0
    0.3860   -4.3653   28.7877 N   0  0  0  0  0  0  0  0  0  0  0  0
    2.3914   -3.6940   29.8668 N   0  0  0  0  0  0  0  0  0  0  0  0
   -5.1242   -0.1527   28.6697 N   0  0  0  0  0  0  0  0  0  0  0  0
   -5.5240    1.2414   29.0018 C   0  0  2  0  0  0  0  0  0  0  0  0
   -4.6860    1.6572   30.1453 C   0  0  0  0  0  0  0  0  0  0  0  0
   -4.4613    0.8129   31.1031 O   0  0  0  0  0  0  0  0  0  0  0  0
   -6.9870    1.0390   29.4395 C   0  0  1  0  0  0  0  0  0  0  0  0
   -7.5292    2.2879   30.0378 C   0  0  0  0  0  0  0  0  0  0  0  0
   -7.8539    0.4127   28.4184 C   0  0  0  0  0  0  0  0  0  0  0  0
   -4.0736    2.9165   30.3207 N   0  0  0  0  0  0  0  0  0  0  0  0
   -4.6564    4.0471   31.0094 C   0  0  2  0  0  0  0  0  0  0  0  0
   -5.6286    4.7125   30.0655 C   0  0  0  0  0  0  0  0  0  0  0  0
   -6.4812    4.0119   29.4625 O   0  0  0  0  0  0  0  0  0  0  0  0
   -3.5300    4.9897   31.3532 C   0  0  0  0  0  0  0  0  0  0  0  0
   -2.4103    4.6208   30.4379 C   0  0  0  0  0  0  0  0  0  0  0  0
   -2.7684    3.2974   29.8644 C   0  0  0  0  0  0  0  0  0  0  0  0
   -5.6608    6.1019   29.7954 N   0  0  0  0  0  0  0  0  0  0  0  0
   -6.1086    7.0544   30.8223 C   0  0  2  0  0  0  0  0  0  0  0  0
   -7.5019    6.8233   31.2514 C   0  0  0  0  0  0  0  0  0  0  0  0
   -7.6407    6.3318   32.4159 O   0  0  0  0  0  0  0  0  0  0  0  0
   -5.9287    8.4673   30.2640 C   0  0  0  0  0  0  0  0  0  0  0  0
   -6.3586    9.4876   31.2522 C   0  0  0  0  0  0  0  0  0  0  0  0
   -5.5661   10.7327   31.2140 C   0  0  0  0  0  0  0  0  0  0  0  0
   -4.6192   10.9284   30.4252 O   0  0  0  0  0  0  0  0  0  0  0  0
   -5.8493   11.7928   32.0929 O   0  0  0  0  0  0  0  0  0  0  0  0
   -8.6734    7.0815   30.5325 N   0  0  0  0  0  0  0  0  0  0  0  0
   -9.9478    7.1394   31.1915 C   0  0  2  0  0  0  0  0  0  0  0  0
   -9.9860    7.6748   32.5298 C   0  0  0  0  0  0  0  0  0  0  0  0
   -8.8555    7.9747   33.0533 O   0  0  0  0  0  0  0  0  0  0  0  0
  -10.6981    5.8356   31.0967 C   0  0  0  0  0  0  0  0  0  0  0  0
  -10.5686    5.0853   29.8693 C   0  0  0  0  0  0  0  0  0  0  0  0
  -10.9486    5.5960   28.6213 C   0  0  0  0  0  0  0  0  0  0  0  0
  -10.0738    3.8105   29.8688 C   0  0  0  0  0  0  0  0  0  0  0  0
  -10.8461    4.8931   27.4512 C   0  0  0  0  0  0  0  0  0  0  0  0
   -9.9568    3.0687   28.6912 C   0  0  0  0  0  0  0  0  0  0  0  0
  -10.3406    3.6028   27.4777 C   0  0  0  0  0  0  0  0  0  0  0  0
  -11.1117    7.9032   33.3242 N   0  0  0  0  0  0  0  0  0  0  0  0
  -11.0232    8.0941   34.7356 C   0  0  0  0  0  0  0  0  0  0  0  0
  -10.0398    9.0694   35.2103 C   0  0  0  0  0  0  0  0  0  0  0  0
   -8.8237    8.8844   35.0923 O   0  0  0  0  0  0  0  0  0  0  0  0
  -10.4256   10.3007   35.8448 N   0  0  0  0  0  0  0  0  0  0  0  0
  -11.0722   11.3575   35.0459 C   0  0  0  0  0  0  0  0  0  0  0  0
  -12.2270   11.9064   35.8122 C   0  0  0  0  0  0  0  0  0  0  0  0
  -13.2864   11.2142   35.8635 O   0  0  0  0  0  0  0  0  0  0  0  0
  -12.2495   13.1357   36.4866 N   0  0  0  0  0  0  0  0  0  0  0  0
  -13.1096   13.3689   37.6584 C   0  0  2  0  0  0  0  0  0  0  0  0
  -13.0214   14.7615   38.0987 C   0  0  0  0  0  0  0  0  0  0  0  0
  -12.2097   15.5978   37.5832 O   0  0  0  0  0  0  0  0  0  0  0  0
  -12.9108   12.3266   38.7039 C   0  0  0  0  0  0  0  0  0  0  0  0
  -14.0851   12.2631   39.5882 C   0  0  0  0  0  0  0  0  0  0  0  0
  -14.1441   11.3312   40.6115 C   0  0  0  0  0  0  0  0  0  0  0  0
  -15.1526   13.1175   39.4543 C   0  0  0  0  0  0  0  0  0  0  0  0
  -15.2266   11.2559   41.4676 C   0  0  0  0  0  0  0  0  0  0  0  0
  -16.2498   13.0430   40.3199 C   0  0  0  0  0  0  0  0  0  0  0  0
  -16.2895   12.1189   41.3216 C   0  0  0  0  0  0  0  0  0  0  0  0
  -17.4058   12.0628   42.1806 O   0  0  0  0  0  0  0  0  0  0  0  0
  -13.8239   15.2474   39.1050 O   0  0  0  0  0  0  0  0  0  0  0  0
   -5.6494    1.0543   18.6903 H   0  0  0  0  0  0  0  0  0  0  0  0
    2.7004   -3.5269   30.8577 H   0  0  0  0  0  0  0  0  0  0  0  0
  2  1  1  6
  2  3  1  0
  2  5  1  0
  3  4  2  0
  3 10  1  0
  5  6  1  0
  6  7  1  0
  7  8  1  0
  7  9  2  0
 11 10  1  6
 11 12  1  0
 11 14  1  0
 12 13  2  0
 12 18  1  0
 14 15  1  0
 14 16  1  1
 15 17  1  0
 18 19  1  0
 19 20  1  0
 19 22  1  6
 20 21  2  0
 20 29  1  0
 22 23  1  0
 23 24  1  0
 24 25  1  0
 25 26  1  0
 26 27  1  0
 26 28  2  0
 29 30  1  0
 30 31  1  0
 30 33  1  6
 31 32  2  0
 31 40  1  0
 33 34  1  0
 34 35  1  0
 35 36  1  0
 36 37  1  0
 37 38  1  0
 37 39  2  0
 41 40  1  1
 41 42  1  0
 41 44  1  0
 42 43  2  0
 42 47  1  0
 44 45  1  6
 44 46  1  0
 47 48  1  0
 47 53  1  0
 48 49  1  6
 48 51  1  0
 49 50  2  0
 49 54  1  0
 51 52  1  0
 52 53  1  0
 54 55  1  0
 55 56  1  0
 55 58  1  6
 56 57  2  0
 56 63  1  0
 58 59  1  0
 59 60  1  0
 60 61  2  0
 60 62  1  0
 63 64  1  0
 64 65  1  0
 64 67  1  1
 65 66  2  0
 65 74  1  0
 67 68  1  0
 68 69  2  0
 68 70  1  0
 69 71  1  0
 70 72  2  0
 71 73  2  0
 72 73  1  0
 74 75  1  0
 75 76  1  0
 76 77  2  0
 76 78  1  0
 78 79  1  0
 79 80  1  0
 80 81  2  0
 80 82  1  0
 82 83  1  0
 83 84  1  0
 83 86  1  1
 84 85  2  0
 84 94  1  0
 86 87  1  0
 87 88  2  0
 87 89  1  0
 88 90  1  0
 89 91  2  0
 90 92  2  0
 91 92  1  0
 92 93  1  0
 28 95  1  0
 39 96  1  0
M  CHG  1   1   1
M  END
$$$$
