
     RDKit          3D

 23 24  0  0  0  0  0  0  0  0999 V2000
   -6.2762  -31.9799  -14.1513 C   0  0  1  0  0  0  0  0  0  0  0  0
   -7.0395  -31.6637  -12.9015 C   0  0  1  0  0  0  0  0  0  0  0  0
   -7.4603  -30.2381  -12.7540 C   0  0  2  0  0  0  0  0  0  0  0  0
   -7.1238  -29.4075  -13.9862 C   0  0  1  0  0  0  0  0  0  0  0  0
   -7.5555  -30.3028  -15.1371 C   0  0  1  0  0  0  0  0  0  0  0  0
   -7.5129  -29.4421  -16.4016 C   0  0  0  0  0  0  0  0  0  0  0  0
   -6.4530  -33.3020  -14.4313 O   0  0  0  0  0  0  0  0  0  0  0  0
   -8.1865  -32.4566  -12.8090 O   0  0  0  0  0  0  0  0  0  0  0  0
   -6.8473  -29.6098  -11.6535 O   0  0  0  0  0  0  0  0  0  0  0  0
   -7.8545  -28.2253  -13.9526 O   0  0  0  0  0  0  0  0  0  0  0  0
   -6.6091  -31.2722  -15.2642 O   0  0  0  0  0  0  0  0  0  0  0  0
   -6.3608  -28.6888  -16.4612 O   0  0  0  0  0  0  0  0  0  0  0  0
   -6.2455  -33.7784  -15.6584 C   0  0  2  0  0  0  0  0  0  0  0  0
   -7.3763  -34.3755  -16.4046 C   0  0  1  0  0  0  0  0  0  0  0  0
   -6.8178  -35.3733  -17.4232 C   0  0  2  0  0  0  0  0  0  0  0  0
   -6.1266  -36.5365  -16.7476 C   0  0  1  0  0  0  0  0  0  0  0  0
   -5.7188  -36.0234  -15.3838 C   0  0  1  0  0  0  0  0  0  0  0  0
   -4.6031  -36.9153  -14.8898 C   0  0  0  0  0  0  0  0  0  0  0  0
   -8.3461  -34.9460  -15.6156 O   0  0  0  0  0  0  0  0  0  0  0  0
   -5.8785  -34.7571  -18.2471 O   0  0  0  0  0  0  0  0  0  0  0  0
   -7.0305  -37.5918  -16.6527 O   0  0  0  0  0  0  0  0  0  0  0  0
   -5.2392  -34.7458  -15.5303 O   0  0  0  0  0  0  0  0  0  0  0  0
   -3.4126  -36.6834  -15.5650 O   0  0  0  0  0  0  0  0  0  0  0  0
  1  2  1  0
  1  7  1  6
  1 11  1  0
  2  3  1  0
  2  8  1  6
  3  4  1  0
  3  9  1  1
  5  4  1  0
  4 10  1  1
  5  6  1  6
 11  5  1  0
  6 12  1  0
 13  7  1  1
 13 14  1  0
 22 13  1  0
 15 14  1  0
 14 19  1  1
 16 15  1  0
 15 20  1  6
 17 16  1  0
 16 21  1  1
 17 18  1  6
 17 22  1  0
 23 18  1  0
M  END
$$$$
