
     RDKit          3D

 23 24  0  0  0  0  0  0  0  0999 V2000
   -6.6145  -32.0395  -14.2343 C   0  0  1  0  0  0  0  0  0  0  0  0
   -7.3388  -31.6768  -12.9739 C   0  0  1  0  0  0  0  0  0  0  0  0
   -7.6914  -30.2322  -12.8336 C   0  0  2  0  0  0  0  0  0  0  0  0
   -7.3409  -29.4296  -14.0804 C   0  0  1  0  0  0  0  0  0  0  0  0
   -7.8346  -30.3152  -15.2137 C   0  0  1  0  0  0  0  0  0  0  0  0
   -7.7769  -29.4695  -16.4877 C   0  0  0  0  0  0  0  0  0  0  0  0
   -6.8566  -33.3547  -14.4973 O   0  0  0  0  0  0  0  0  0  0  0  0
   -8.5187  -32.4155  -12.8520 O   0  0  0  0  0  0  0  0  0  0  0  0
   -7.0297  -29.6220  -11.7512 O   0  0  0  0  0  0  0  0  0  0  0  0
   -8.0163  -28.2150  -14.0456 O   0  0  0  0  0  0  0  0  0  0  0  0
   -6.9360  -31.3280  -15.3482 O   0  0  0  0  0  0  0  0  0  0  0  0
   -6.4954  -29.0359  -16.7484 O   0  0  0  0  0  0  0  0  0  0  0  0
   -6.6159  -33.8705  -15.7022 C   0  0  2  0  0  0  0  0  0  0  0  0
   -7.6735  -34.6552  -16.3789 C   0  0  1  0  0  0  0  0  0  0  0  0
   -7.0100  -35.6279  -17.3580 C   0  0  2  0  0  0  0  0  0  0  0  0
   -6.1532  -36.6473  -16.6414 C   0  0  1  0  0  0  0  0  0  0  0  0
   -5.7860  -36.0056  -15.3212 C   0  0  1  0  0  0  0  0  0  0  0  0
   -4.5494  -36.7111  -14.8140 C   0  0  0  0  0  0  0  0  0  0  0  0
   -8.5390  -35.3021  -15.5300 O   0  0  0  0  0  0  0  0  0  0  0  0
   -6.1817  -34.9417  -18.2434 O   0  0  0  0  0  0  0  0  0  0  0  0
   -6.9045  -37.8060  -16.4606 O   0  0  0  0  0  0  0  0  0  0  0  0
   -5.4861  -34.6865  -15.5525 O   0  0  0  0  0  0  0  0  0  0  0  0
   -3.3844  -36.1440  -15.3124 O   0  0  0  0  0  0  0  0  0  0  0  0
  1  2  1  0
  1  7  1  6
  1 11  1  0
  2  3  1  0
  2  8  1  6
  3  4  1  0
  3  9  1  1
  5  4  1  0
  4 10  1  1
  5  6  1  6
 11  5  1  0
  6 12  1  0
 13  7  1  1
 13 14  1  0
 22 13  1  0
 15 14  1  0
 14 19  1  1
 16 15  1  0
 15 20  1  6
 17 16  1  0
 16 21  1  1
 17 18  1  6
 17 22  1  0
 23 18  1  0
M  END
$$$$
