
     RDKit          3D

 23 24  0  0  0  0  0  0  0  0999 V2000
   -6.9399  -33.5998  -15.9182 C   0  0  1  0  0  0  0  0  0  0  0  0
   -7.9850  -34.6099  -16.2819 C   0  0  1  0  0  0  0  0  0  0  0  0
   -7.4704  -35.9772  -16.5927 C   0  0  2  0  0  0  0  0  0  0  0  0
   -5.9702  -36.0962  -16.3545 C   0  0  1  0  0  0  0  0  0  0  0  0
   -5.7749  -35.4023  -15.0155 C   0  0  1  0  0  0  0  0  0  0  0  0
   -4.3467  -35.7152  -14.5640 C   0  0  0  0  0  0  0  0  0  0  0  0
   -7.5280  -32.6422  -15.1470 O   0  0  0  0  0  0  0  0  0  0  0  0
   -8.9293  -34.7339  -15.2594 O   0  0  0  0  0  0  0  0  0  0  0  0
   -7.7060  -36.3470  -17.9303 O   0  0  0  0  0  0  0  0  0  0  0  0
   -5.6238  -37.4411  -16.2918 O   0  0  0  0  0  0  0  0  0  0  0  0
   -5.8522  -34.0635  -15.2458 O   0  0  0  0  0  0  0  0  0  0  0  0
   -3.4721  -35.7290  -15.6285 O   0  0  0  0  0  0  0  0  0  0  0  0
   -6.7956  -31.7448  -14.4880 C   0  0  2  0  0  0  0  0  0  0  0  0
   -6.9379  -31.6318  -13.0186 C   0  0  1  0  0  0  0  0  0  0  0  0
   -6.5405  -30.2145  -12.5963 C   0  0  2  0  0  0  0  0  0  0  0  0
   -7.4780  -29.1753  -13.1693 C   0  0  1  0  0  0  0  0  0  0  0  0
   -8.0903  -29.8193  -14.3940 C   0  0  1  0  0  0  0  0  0  0  0  0
   -8.5974  -28.7016  -15.2760 C   0  0  0  0  0  0  0  0  0  0  0  0
   -8.1770  -31.9762  -12.5347 O   0  0  0  0  0  0  0  0  0  0  0  0
   -5.2593  -29.9099  -13.0506 O   0  0  0  0  0  0  0  0  0  0  0  0
   -8.4407  -28.8727  -12.2095 O   0  0  0  0  0  0  0  0  0  0  0  0
   -7.1036  -30.5026  -15.0598 O   0  0  0  0  0  0  0  0  0  0  0  0
   -7.8969  -28.6225  -16.4718 O   0  0  0  0  0  0  0  0  0  0  0  0
  1  2  1  0
  1  7  1  1
  1 11  1  0
  2  3  1  0
  2  8  1  1
  3  4  1  0
  3  9  1  6
  5  4  1  0
  4 10  1  1
  5  6  1  6
 11  5  1  0
  6 12  1  0
 13  7  1  6
 13 14  1  0
 22 13  1  0
 15 14  1  0
 14 19  1  6
 16 15  1  0
 15 20  1  6
 17 16  1  0
 16 21  1  1
 17 18  1  6
 17 22  1  0
 23 18  1  0
M  END
$$$$
