
     RDKit          3D

 23 24  0  0  0  0  0  0  0  0999 V2000
   -6.3480  -33.4355  -16.4218 C   0  0  1  0  0  0  0  0  0  0  0  0
   -7.4519  -34.3433  -16.8712 C   0  0  1  0  0  0  0  0  0  0  0  0
   -7.1091  -35.7967  -16.9051 C   0  0  2  0  0  0  0  0  0  0  0  0
   -5.7174  -36.0737  -16.3502 C   0  0  1  0  0  0  0  0  0  0  0  0
   -5.6695  -35.2218  -15.0914 C   0  0  1  0  0  0  0  0  0  0  0  0
   -4.4179  -35.6481  -14.3212 C   0  0  0  0  0  0  0  0  0  0  0  0
   -6.9123  -32.3066  -15.9073 O   0  0  0  0  0  0  0  0  0  0  0  0
   -8.5783  -34.1916  -16.0582 O   0  0  0  0  0  0  0  0  0  0  0  0
   -7.1456  -36.3253  -18.2092 O   0  0  0  0  0  0  0  0  0  0  0  0
   -5.6041  -37.4282  -16.0587 O   0  0  0  0  0  0  0  0  0  0  0  0
   -5.4915  -33.9328  -15.4894 O   0  0  0  0  0  0  0  0  0  0  0  0
   -3.4224  -36.0760  -15.1722 O   0  0  0  0  0  0  0  0  0  0  0  0
   -6.3795  -31.6913  -14.8522 C   0  0  2  0  0  0  0  0  0  0  0  0
   -6.8770  -32.0167  -13.4961 C   0  0  1  0  0  0  0  0  0  0  0  0
   -6.6215  -30.8164  -12.5802 C   0  0  2  0  0  0  0  0  0  0  0  0
   -7.4112  -29.6019  -13.0144 C   0  0  1  0  0  0  0  0  0  0  0  0
   -7.6949  -29.8129  -14.4856 C   0  0  1  0  0  0  0  0  0  0  0  0
   -7.9937  -28.4553  -15.0787 C   0  0  0  0  0  0  0  0  0  0  0  0
   -8.1898  -32.4201  -13.4488 O   0  0  0  0  0  0  0  0  0  0  0  0
   -5.2743  -30.4623  -12.6022 O   0  0  0  0  0  0  0  0  0  0  0  0
   -8.5842  -29.5477  -12.2653 O   0  0  0  0  0  0  0  0  0  0  0  0
   -6.5631  -30.3194  -15.0738 O   0  0  0  0  0  0  0  0  0  0  0  0
   -6.9512  -27.9908  -15.8689 O   0  0  0  0  0  0  0  0  0  0  0  0
  1  2  1  0
  1  7  1  1
  1 11  1  0
  2  3  1  0
  2  8  1  1
  3  4  1  0
  3  9  1  6
  5  4  1  0
  4 10  1  1
  5  6  1  1
 11  5  1  0
  6 12  1  0
 13  7  1  6
 13 14  1  0
 22 13  1  0
 15 14  1  0
 14 19  1  6
 16 15  1  0
 15 20  1  6
 17 16  1  0
 16 21  1  1
 17 18  1  6
 17 22  1  0
 23 18  1  0
M  END
$$$$
