
     RDKit          3D

 23 24  0  0  0  0  0  0  0  0999 V2000
   -6.7177  -33.1531  -14.0555 C   0  0  1  0  0  0  0  0  0  0  0  0
   -8.0983  -32.6324  -13.7953 C   0  0  1  0  0  0  0  0  0  0  0  0
   -8.2466  -31.1484  -13.8767 C   0  0  2  0  0  0  0  0  0  0  0  0
   -6.9639  -30.4653  -14.3344 C   0  0  1  0  0  0  0  0  0  0  0  0
   -6.5019  -31.3346  -15.4934 C   0  0  1  0  0  0  0  0  0  0  0  0
   -5.3744  -30.5712  -16.1916 C   0  0  0  0  0  0  0  0  0  0  0  0
   -6.8271  -34.4362  -14.5018 O   0  0  0  0  0  0  0  0  0  0  0  0
   -9.0159  -33.2001  -14.6832 O   0  0  0  0  0  0  0  0  0  0  0  0
   -8.5991  -30.5766  -12.6396 O   0  0  0  0  0  0  0  0  0  0  0  0
   -7.2591  -29.1713  -14.7483 O   0  0  0  0  0  0  0  0  0  0  0  0
   -5.9660  -32.4637  -14.9554 O   0  0  0  0  0  0  0  0  0  0  0  0
   -4.4459  -30.1033  -15.2875 O   0  0  0  0  0  0  0  0  0  0  0  0
   -5.7939  -35.0566  -15.0705 C   0  0  2  0  0  0  0  0  0  0  0  0
   -5.5670  -34.9016  -16.5253 C   0  0  1  0  0  0  0  0  0  0  0  0
   -4.7999  -36.1255  -17.0339 C   0  0  2  0  0  0  0  0  0  0  0  0
   -5.6096  -37.3946  -16.8890 C   0  0  1  0  0  0  0  0  0  0  0  0
   -6.6070  -37.1104  -15.7872 C   0  0  1  0  0  0  0  0  0  0  0  0
   -7.0626  -38.4460  -15.2462 C   0  0  0  0  0  0  0  0  0  0  0  0
   -6.7047  -34.6745  -17.2618 O   0  0  0  0  0  0  0  0  0  0  0  0
   -3.6234  -36.3015  -16.3088 O   0  0  0  0  0  0  0  0  0  0  0  0
   -6.2415  -37.6554  -18.1024 O   0  0  0  0  0  0  0  0  0  0  0  0
   -5.9630  -36.4198  -14.7913 O   0  0  0  0  0  0  0  0  0  0  0  0
   -6.3564  -38.8166  -14.1101 O   0  0  0  0  0  0  0  0  0  0  0  0
  1  2  1  0
  1  7  1  6
  1 11  1  0
  2  3  1  0
  2  8  1  6
  3  4  1  0
  3  9  1  1
  5  4  1  0
  4 10  1  6
  5  6  1  1
 11  5  1  0
  6 12  1  0
 13  7  1  6
 13 14  1  0
 22 13  1  0
 15 14  1  0
 14 19  1  6
 16 15  1  0
 15 20  1  1
 17 16  1  0
 16 21  1  6
 17 18  1  1
 17 22  1  0
 23 18  1  0
M  END
$$$$
