
     RDKit          3D

 23 24  0  0  0  0  0  0  0  0999 V2000
   -6.3241  -32.1364  -14.1469 C   0  0  1  0  0  0  0  0  0  0  0  0
   -7.1188  -31.8121  -12.9189 C   0  0  1  0  0  0  0  0  0  0  0  0
   -7.5457  -30.3863  -12.7931 C   0  0  2  0  0  0  0  0  0  0  0  0
   -7.1802  -29.5646  -14.0230 C   0  0  1  0  0  0  0  0  0  0  0  0
   -7.5816  -30.4696  -15.1773 C   0  0  1  0  0  0  0  0  0  0  0  0
   -7.5092  -29.6187  -16.4470 C   0  0  0  0  0  0  0  0  0  0  0  0
   -6.4915  -33.4610  -14.4210 O   0  0  0  0  0  0  0  0  0  0  0  0
   -8.2663  -32.6065  -12.8488 O   0  0  0  0  0  0  0  0  0  0  0  0
   -6.9614  -29.7483  -11.6826 O   0  0  0  0  0  0  0  0  0  0  0  0
   -7.9137  -28.3836  -14.0167 O   0  0  0  0  0  0  0  0  0  0  0  0
   -6.6306  -31.4381  -15.2732 O   0  0  0  0  0  0  0  0  0  0  0  0
   -6.8034  -28.4545  -16.2351 O   0  0  0  0  0  0  0  0  0  0  0  0
   -6.3979  -33.9222  -15.6677 C   0  0  2  0  0  0  0  0  0  0  0  0
   -7.5635  -34.6003  -16.2788 C   0  0  1  0  0  0  0  0  0  0  0  0
   -7.0599  -35.5559  -17.3643 C   0  0  2  0  0  0  0  0  0  0  0  0
   -6.2112  -36.6653  -16.7846 C   0  0  1  0  0  0  0  0  0  0  0  0
   -5.6818  -36.1229  -15.4750 C   0  0  1  0  0  0  0  0  0  0  0  0
   -4.4540  -36.9313  -15.1241 C   0  0  0  0  0  0  0  0  0  0  0  0
   -8.3888  -35.2389  -15.3846 O   0  0  0  0  0  0  0  0  0  0  0  0
   -6.2722  -34.8740  -18.2892 O   0  0  0  0  0  0  0  0  0  0  0  0
   -7.0189  -37.7833  -16.5913 O   0  0  0  0  0  0  0  0  0  0  0  0
   -5.3164  -34.8140  -15.6676 O   0  0  0  0  0  0  0  0  0  0  0  0
   -3.3439  -36.5389  -15.8596 O   0  0  0  0  0  0  0  0  0  0  0  0
  1  2  1  0
  1  7  1  6
  1 11  1  0
  2  3  1  0
  2  8  1  6
  3  4  1  0
  3  9  1  1
  5  4  1  0
  4 10  1  6
  5  6  1  6
 11  5  1  0
  6 12  1  0
 13  7  1  1
 13 14  1  0
 22 13  1  0
 15 14  1  0
 14 19  1  1
 16 15  1  0
 15 20  1  6
 17 16  1  0
 16 21  1  1
 17 18  1  6
 17 22  1  0
 23 18  1  0
M  END
$$$$
