
     RDKit          3D

 23 24  0  0  0  0  0  0  0  0999 V2000
   -6.5127  -33.9176  -16.1399 C   0  0  1  0  0  0  0  0  0  0  0  0
   -7.5138  -34.7846  -16.8405 C   0  0  1  0  0  0  0  0  0  0  0  0
   -6.9996  -36.1092  -17.3010 C   0  0  2  0  0  0  0  0  0  0  0  0
   -5.5665  -36.3600  -16.8485 C   0  0  1  0  0  0  0  0  0  0  0  0
   -5.5786  -35.9158  -15.3942 C   0  0  1  0  0  0  0  0  0  0  0  0
   -4.2591  -36.3888  -14.7805 C   0  0  0  0  0  0  0  0  0  0  0  0
   -7.1911  -33.0693  -15.3167 O   0  0  0  0  0  0  0  0  0  0  0  0
   -8.6218  -35.0205  -16.0222 O   0  0  0  0  0  0  0  0  0  0  0  0
   -7.0167  -36.2323  -18.7032 O   0  0  0  0  0  0  0  0  0  0  0  0
   -5.2807  -37.7151  -16.9697 O   0  0  0  0  0  0  0  0  0  0  0  0
   -5.5711  -34.5551  -15.3934 O   0  0  0  0  0  0  0  0  0  0  0  0
   -3.1745  -35.8786  -15.4600 O   0  0  0  0  0  0  0  0  0  0  0  0
   -6.5450  -32.1857  -14.5566 C   0  0  2  0  0  0  0  0  0  0  0  0
   -6.9747  -31.9853  -13.1540 C   0  0  1  0  0  0  0  0  0  0  0  0
   -6.5696  -30.5752  -12.7151 C   0  0  2  0  0  0  0  0  0  0  0  0
   -7.2929  -29.5112  -13.5102 C   0  0  1  0  0  0  0  0  0  0  0  0
   -7.6883  -30.1802  -14.8085 C   0  0  1  0  0  0  0  0  0  0  0  0
   -7.9229  -29.0818  -15.8198 C   0  0  0  0  0  0  0  0  0  0  0  0
   -8.3080  -32.2245  -12.9233 O   0  0  0  0  0  0  0  0  0  0  0  0
   -5.2041  -30.3766  -12.9065 O   0  0  0  0  0  0  0  0  0  0  0  0
   -8.4062  -29.0976  -12.7828 O   0  0  0  0  0  0  0  0  0  0  0  0
   -6.6392  -30.9591  -15.2284 O   0  0  0  0  0  0  0  0  0  0  0  0
   -6.7477  -28.6907  -16.4466 O   0  0  0  0  0  0  0  0  0  0  0  0
  1  2  1  0
  1  7  1  1
  1 11  1  0
  2  3  1  0
  2  8  1  1
  3  4  1  0
  3  9  1  6
  5  4  1  0
  4 10  1  1
  5  6  1  1
 11  5  1  0
  6 12  1  0
 13  7  1  6
 13 14  1  0
 22 13  1  0
 15 14  1  0
 14 19  1  6
 16 15  1  0
 15 20  1  6
 17 16  1  0
 16 21  1  1
 17 18  1  6
 17 22  1  0
 23 18  1  0
M  END
$$$$
