
     RDKit          3D

 23 24  0  0  0  0  0  0  0  0999 V2000
   -5.1951  -33.6814  -15.9924 C   0  0  1  0  0  0  0  0  0  0  0  0
   -6.0752  -33.6739  -17.2049 C   0  0  1  0  0  0  0  0  0  0  0  0
   -6.6770  -34.9927  -17.5649 C   0  0  2  0  0  0  0  0  0  0  0  0
   -6.3617  -36.0704  -16.5350 C   0  0  1  0  0  0  0  0  0  0  0  0
   -6.6005  -35.3645  -15.2094 C   0  0  1  0  0  0  0  0  0  0  0  0
   -6.5777  -36.4457  -14.1268 C   0  0  0  0  0  0  0  0  0  0  0  0
   -5.1885  -32.4237  -15.4673 O   0  0  0  0  0  0  0  0  0  0  0  0
   -7.1196  -32.7582  -17.0518 O   0  0  0  0  0  0  0  0  0  0  0  0
   -6.2226  -35.4669  -18.8100 O   0  0  0  0  0  0  0  0  0  0  0  0
   -7.2328  -37.1392  -16.7124 O   0  0  0  0  0  0  0  0  0  0  0  0
   -5.5357  -34.5442  -14.9976 O   0  0  0  0  0  0  0  0  0  0  0  0
   -5.6608  -37.4323  -14.4176 O   0  0  0  0  0  0  0  0  0  0  0  0
   -5.7996  -32.1573  -14.3135 C   0  0  2  0  0  0  0  0  0  0  0  0
   -7.2142  -32.5560  -14.1338 C   0  0  1  0  0  0  0  0  0  0  0  0
   -7.8524  -31.6369  -13.0884 C   0  0  2  0  0  0  0  0  0  0  0  0
   -7.8991  -30.2003  -13.5588 C   0  0  1  0  0  0  0  0  0  0  0  0
   -6.8021  -30.0814  -14.5941 C   0  0  1  0  0  0  0  0  0  0  0  0
   -6.4535  -28.6150  -14.7045 C   0  0  0  0  0  0  0  0  0  0  0  0
   -7.9508  -32.5932  -15.2933 O   0  0  0  0  0  0  0  0  0  0  0  0
   -7.1192  -31.6598  -11.9041 O   0  0  0  0  0  0  0  0  0  0  0  0
   -9.1556  -29.9568  -14.1081 O   0  0  0  0  0  0  0  0  0  0  0  0
   -5.7050  -30.7696  -14.1396 O   0  0  0  0  0  0  0  0  0  0  0  0
   -6.0846  -28.0734  -13.4807 O   0  0  0  0  0  0  0  0  0  0  0  0
  1  2  1  0
  1  7  1  1
  1 11  1  0
  2  3  1  0
  2  8  1  1
  3  4  1  0
  3  9  1  6
  5  4  1  0
  4 10  1  6
  5  6  1  1
 11  5  1  0
  6 12  1  0
 13  7  1  6
 13 14  1  0
 22 13  1  0
 15 14  1  0
 14 19  1  6
 16 15  1  0
 15 20  1  1
 17 16  1  0
 16 21  1  6
 17 18  1  1
 17 22  1  0
 23 18  1  0
M  END
$$$$
