
     RDKit          3D

 23 24  0  0  0  0  0  0  0  0999 V2000
   -5.7759  -33.1735  -16.7504 C   0  0  1  0  0  0  0  0  0  0  0  0
   -7.1594  -33.4813  -17.2360 C   0  0  1  0  0  0  0  0  0  0  0  0
   -7.5509  -34.9215  -17.1770 C   0  0  2  0  0  0  0  0  0  0  0  0
   -6.4847  -35.7817  -16.5100 C   0  0  1  0  0  0  0  0  0  0  0  0
   -6.0885  -34.9616  -15.2923 C   0  0  1  0  0  0  0  0  0  0  0  0
   -5.2256  -35.8702  -14.4139 C   0  0  0  0  0  0  0  0  0  0  0  0
   -5.7538  -31.8767  -16.3315 O   0  0  0  0  0  0  0  0  0  0  0  0
   -8.1096  -32.7532  -16.5150 O   0  0  0  0  0  0  0  0  0  0  0  0
   -7.7808  -35.4668  -18.4543 O   0  0  0  0  0  0  0  0  0  0  0  0
   -7.0440  -37.0019  -16.1482 O   0  0  0  0  0  0  0  0  0  0  0  0
   -5.3005  -33.9449  -15.7360 O   0  0  0  0  0  0  0  0  0  0  0  0
   -4.0984  -36.2960  -15.0821 O   0  0  0  0  0  0  0  0  0  0  0  0
   -5.8076  -31.5720  -15.0354 C   0  0  2  0  0  0  0  0  0  0  0  0
   -6.5456  -32.4630  -14.1116 C   0  0  1  0  0  0  0  0  0  0  0  0
   -7.0051  -31.6423  -12.9031 C   0  0  2  0  0  0  0  0  0  0  0  0
   -7.9944  -30.5688  -13.2980 C   0  0  1  0  0  0  0  0  0  0  0  0
   -7.7329  -30.3022  -14.7643 C   0  0  1  0  0  0  0  0  0  0  0  0
   -8.2867  -28.9298  -15.0711 C   0  0  0  0  0  0  0  0  0  0  0  0
   -7.5898  -33.1466  -14.6866 O   0  0  0  0  0  0  0  0  0  0  0  0
   -5.9210  -31.0044  -12.3042 O   0  0  0  0  0  0  0  0  0  0  0  0
   -9.2818  -31.0551  -13.0836 O   0  0  0  0  0  0  0  0  0  0  0  0
   -6.3752  -30.2923  -14.9644 O   0  0  0  0  0  0  0  0  0  0  0  0
   -7.4036  -27.9197  -14.7149 O   0  0  0  0  0  0  0  0  0  0  0  0
  1  2  1  0
  1  7  1  1
  1 11  1  0
  2  3  1  0
  2  8  1  1
  3  4  1  0
  3  9  1  6
  5  4  1  0
  4 10  1  1
  5  6  1  1
 11  5  1  0
  6 12  1  0
 13  7  1  6
 13 14  1  0
 22 13  1  0
 15 14  1  0
 14 19  1  6
 16 15  1  0
 15 20  1  6
 17 16  1  0
 16 21  1  6
 17 18  1  1
 17 22  1  0
 23 18  1  0
M  END
$$$$
