
     RDKit          3D

 23 24  0  0  0  0  0  0  0  0999 V2000
   -6.6517  -32.1687  -14.3570 C   0  0  1  0  0  0  0  0  0  0  0  0
   -7.7014  -31.8266  -13.3441 C   0  0  1  0  0  0  0  0  0  0  0  0
   -7.9202  -30.3662  -13.1199 C   0  0  2  0  0  0  0  0  0  0  0  0
   -7.0987  -29.5073  -14.0733 C   0  0  1  0  0  0  0  0  0  0  0  0
   -7.2918  -30.1960  -15.4153 C   0  0  1  0  0  0  0  0  0  0  0  0
   -6.7319  -29.2487  -16.4786 C   0  0  0  0  0  0  0  0  0  0  0  0
   -6.9377  -33.4018  -14.8620 O   0  0  0  0  0  0  0  0  0  0  0  0
   -8.9304  -32.3908  -13.6963 O   0  0  0  0  0  0  0  0  0  0  0  0
   -7.5829  -29.9686  -11.8124 O   0  0  0  0  0  0  0  0  0  0  0  0
   -7.6117  -28.2153  -14.0801 O   0  0  0  0  0  0  0  0  0  0  0  0
   -6.5146  -31.3129  -15.4053 O   0  0  0  0  0  0  0  0  0  0  0  0
   -5.4750  -28.7966  -16.1406 O   0  0  0  0  0  0  0  0  0  0  0  0
   -6.4811  -33.7784  -16.0559 C   0  0  2  0  0  0  0  0  0  0  0  0
   -7.4393  -34.2439  -17.0842 C   0  0  1  0  0  0  0  0  0  0  0  0
   -6.7044  -35.1768  -18.0510 C   0  0  2  0  0  0  0  0  0  0  0  0
   -6.2198  -36.4316  -17.3597 C   0  0  1  0  0  0  0  0  0  0  0  0
   -6.1055  -36.0645  -15.8962 C   0  0  1  0  0  0  0  0  0  0  0  0
   -5.1577  -37.0569  -15.2629 C   0  0  0  0  0  0  0  0  0  0  0  0
   -8.5782  -34.8276  -16.5839 O   0  0  0  0  0  0  0  0  0  0  0  0
   -5.5859  -34.5428  -18.5874 O   0  0  0  0  0  0  0  0  0  0  0  0
   -7.1580  -37.4397  -17.5671 O   0  0  0  0  0  0  0  0  0  0  0  0
   -5.5618  -34.8074  -15.8090 O   0  0  0  0  0  0  0  0  0  0  0  0
   -4.5583  -36.5481  -14.1188 O   0  0  0  0  0  0  0  0  0  0  0  0
  1  2  1  0
  1  7  1  6
  1 11  1  0
  2  3  1  0
  2  8  1  6
  3  4  1  0
  3  9  1  1
  5  4  1  0
  4 10  1  6
  5  6  1  6
 11  5  1  0
  6 12  1  0
 13  7  1  1
 13 14  1  0
 22 13  1  0
 15 14  1  0
 14 19  1  1
 16 15  1  0
 15 20  1  1
 17 16  1  0
 16 21  1  1
 17 18  1  1
 17 22  1  0
 23 18  1  0
M  END
$$$$
