
     RDKit          3D

 23 24  0  0  0  0  0  0  0  0999 V2000
   -5.6977  -33.2322  -16.4824 C   0  0  1  0  0  0  0  0  0  0  0  0
   -7.1764  -33.4380  -16.6088 C   0  0  1  0  0  0  0  0  0  0  0  0
   -7.6343  -34.8562  -16.5086 C   0  0  2  0  0  0  0  0  0  0  0  0
   -6.4930  -35.8079  -16.1720 C   0  0  1  0  0  0  0  0  0  0  0  0
   -5.7477  -35.0788  -15.0650 C   0  0  1  0  0  0  0  0  0  0  0  0
   -4.7523  -36.0794  -14.4741 C   0  0  0  0  0  0  0  0  0  0  0  0
   -5.4846  -31.9636  -16.0321 O   0  0  0  0  0  0  0  0  0  0  0  0
   -7.8625  -32.7009  -15.6400 O   0  0  0  0  0  0  0  0  0  0  0  0
   -8.2160  -35.3170  -17.7048 O   0  0  0  0  0  0  0  0  0  0  0  0
   -7.0216  -37.0144  -15.7276 O   0  0  0  0  0  0  0  0  0  0  0  0
   -5.0326  -34.0829  -15.6553 O   0  0  0  0  0  0  0  0  0  0  0  0
   -4.1283  -36.8129  -15.4596 O   0  0  0  0  0  0  0  0  0  0  0  0
   -5.6920  -31.6435  -14.7553 C   0  0  2  0  0  0  0  0  0  0  0  0
   -6.4890  -32.5526  -13.9006 C   0  0  1  0  0  0  0  0  0  0  0  0
   -7.1111  -31.7357  -12.7645 C   0  0  2  0  0  0  0  0  0  0  0  0
   -8.0950  -30.7114  -13.2841 C   0  0  1  0  0  0  0  0  0  0  0  0
   -7.6862  -30.4542  -14.7181 C   0  0  1  0  0  0  0  0  0  0  0  0
   -8.2595  -29.1113  -15.1085 C   0  0  0  0  0  0  0  0  0  0  0  0
   -7.4351  -33.2884  -14.5727 O   0  0  0  0  0  0  0  0  0  0  0  0
   -6.1262  -31.0435  -12.0635 O   0  0  0  0  0  0  0  0  0  0  0  0
   -9.3768  -31.2497  -13.2016 O   0  0  0  0  0  0  0  0  0  0  0  0
   -6.3163  -30.3885  -14.7700 O   0  0  0  0  0  0  0  0  0  0  0  0
   -7.3889  -28.0692  -14.8204 O   0  0  0  0  0  0  0  0  0  0  0  0
  1  2  1  0
  1  7  1  1
  1 11  1  0
  2  3  1  0
  2  8  1  1
  3  4  1  0
  3  9  1  6
  5  4  1  0
  4 10  1  1
  5  6  1  6
 11  5  1  0
  6 12  1  0
 13  7  1  6
 13 14  1  0
 22 13  1  0
 15 14  1  0
 14 19  1  6
 16 15  1  0
 15 20  1  6
 17 16  1  0
 16 21  1  6
 17 18  1  1
 17 22  1  0
 23 18  1  0
M  END
$$$$
