
     RDKit          3D

 23 24  0  0  0  0  0  0  0  0999 V2000
   -6.2276  -32.1256  -14.1150 C   0  0  1  0  0  0  0  0  0  0  0  0
   -6.9837  -31.8676  -12.8476 C   0  0  1  0  0  0  0  0  0  0  0  0
   -7.5415  -30.4892  -12.7065 C   0  0  2  0  0  0  0  0  0  0  0  0
   -7.3249  -29.6489  -13.9588 C   0  0  1  0  0  0  0  0  0  0  0  0
   -7.6962  -30.6012  -15.0847 C   0  0  1  0  0  0  0  0  0  0  0  0
   -7.7758  -29.7609  -16.3611 C   0  0  0  0  0  0  0  0  0  0  0  0
   -6.2781  -33.4631  -14.3724 O   0  0  0  0  0  0  0  0  0  0  0  0
   -8.0420  -32.7698  -12.7111 O   0  0  0  0  0  0  0  0  0  0  0  0
   -6.9645  -29.7851  -11.6328 O   0  0  0  0  0  0  0  0  0  0  0  0
   -8.1696  -28.5455  -13.9193 O   0  0  0  0  0  0  0  0  0  0  0  0
   -6.6610  -31.4728  -15.2268 O   0  0  0  0  0  0  0  0  0  0  0  0
   -6.6463  -28.9900  -16.5294 O   0  0  0  0  0  0  0  0  0  0  0  0
   -6.2121  -33.9259  -15.6203 C   0  0  2  0  0  0  0  0  0  0  0  0
   -7.4254  -34.4994  -16.2455 C   0  0  1  0  0  0  0  0  0  0  0  0
   -6.9948  -35.4905  -17.3305 C   0  0  2  0  0  0  0  0  0  0  0  0
   -6.2499  -36.6708  -16.7480 C   0  0  1  0  0  0  0  0  0  0  0  0
   -5.6890  -36.1805  -15.4309 C   0  0  1  0  0  0  0  0  0  0  0  0
   -4.5384  -37.0924  -15.0721 C   0  0  0  0  0  0  0  0  0  0  0  0
   -8.3111  -35.0683  -15.3621 O   0  0  0  0  0  0  0  0  0  0  0  0
   -6.1426  -34.8751  -18.2448 O   0  0  0  0  0  0  0  0  0  0  0  0
   -7.1523  -37.7162  -16.5674 O   0  0  0  0  0  0  0  0  0  0  0  0
   -5.2110  -34.9071  -15.6140 O   0  0  0  0  0  0  0  0  0  0  0  0
   -3.3081  -36.4760  -15.2551 O   0  0  0  0  0  0  0  0  0  0  0  0
  1  2  1  0
  1  7  1  6
  1 11  1  0
  2  3  1  0
  2  8  1  6
  3  4  1  0
  3  9  1  1
  5  4  1  0
  4 10  1  1
  5  6  1  6
 11  5  1  0
  6 12  1  0
 13  7  1  1
 13 14  1  0
 22 13  1  0
 15 14  1  0
 14 19  1  1
 16 15  1  0
 15 20  1  6
 17 16  1  0
 16 21  1  1
 17 18  1  6
 17 22  1  0
 23 18  1  0
M  END
$$$$
