
     RDKit          3D

 23 24  0  0  0  0  0  0  0  0999 V2000
   -6.3225  -33.9304  -16.3126 C   0  0  1  0  0  0  0  0  0  0  0  0
   -7.1934  -34.5304  -17.3739 C   0  0  1  0  0  0  0  0  0  0  0  0
   -6.7805  -35.8853  -17.8478 C   0  0  2  0  0  0  0  0  0  0  0  0
   -5.6047  -36.4402  -17.0534 C   0  0  1  0  0  0  0  0  0  0  0  0
   -5.9784  -36.1246  -15.6135 C   0  0  1  0  0  0  0  0  0  0  0  0
   -4.9925  -36.8887  -14.7272 C   0  0  0  0  0  0  0  0  0  0  0  0
   -7.0727  -33.0405  -15.6035 O   0  0  0  0  0  0  0  0  0  0  0  0
   -8.5171  -34.6193  -16.9350 O   0  0  0  0  0  0  0  0  0  0  0  0
   -6.3991  -35.8857  -19.2029 O   0  0  0  0  0  0  0  0  0  0  0  0
   -5.5125  -37.8100  -17.2720 O   0  0  0  0  0  0  0  0  0  0  0  0
   -5.7578  -34.7948  -15.4271 O   0  0  0  0  0  0  0  0  0  0  0  0
   -3.6868  -36.5909  -15.0510 O   0  0  0  0  0  0  0  0  0  0  0  0
   -6.5251  -32.2828  -14.6539 C   0  0  2  0  0  0  0  0  0  0  0  0
   -7.3514  -31.8544  -13.5024 C   0  0  1  0  0  0  0  0  0  0  0  0
   -6.7661  -30.5578  -12.9358 C   0  0  2  0  0  0  0  0  0  0  0  0
   -6.8501  -29.4227  -13.9317 C   0  0  1  0  0  0  0  0  0  0  0  0
   -6.9257  -30.0855  -15.2898 C   0  0  1  0  0  0  0  0  0  0  0  0
   -6.4860  -29.0597  -16.3089 C   0  0  0  0  0  0  0  0  0  0  0  0
   -8.6925  -31.7287  -13.7746 O   0  0  0  0  0  0  0  0  0  0  0  0
   -5.4209  -30.7272  -12.6155 O   0  0  0  0  0  0  0  0  0  0  0  0
   -7.9945  -28.6782  -13.6563 O   0  0  0  0  0  0  0  0  0  0  0  0
   -6.0449  -31.1379  -15.3048 O   0  0  0  0  0  0  0  0  0  0  0  0
   -5.1064  -28.9080  -16.3338 O   0  0  0  0  0  0  0  0  0  0  0  0
  1  2  1  0
  1  7  1  1
  1 11  1  0
  2  3  1  0
  2  8  1  1
  3  4  1  0
  3  9  1  6
  5  4  1  0
  4 10  1  1
  5  6  1  1
 11  5  1  0
  6 12  1  0
 13  7  1  6
 13 14  1  0
 22 13  1  0
 15 14  1  0
 14 19  1  6
 16 15  1  0
 15 20  1  6
 17 16  1  0
 16 21  1  1
 17 18  1  6
 17 22  1  0
 23 18  1  0
M  END
$$$$
