
     RDKit          3D

 23 24  0  0  0  0  0  0  0  0999 V2000
   -6.4658  -34.1096  -15.7132 C   0  0  1  0  0  0  0  0  0  0  0  0
   -7.4674  -34.7896  -16.5959 C   0  0  1  0  0  0  0  0  0  0  0  0
   -7.0111  -36.0733  -17.2080 C   0  0  2  0  0  0  0  0  0  0  0  0
   -5.6370  -36.4961  -16.7033 C   0  0  1  0  0  0  0  0  0  0  0  0
   -5.7295  -36.2590  -15.2041 C   0  0  1  0  0  0  0  0  0  0  0  0
   -4.4959  -36.9147  -14.5798 C   0  0  0  0  0  0  0  0  0  0  0  0
   -7.1455  -33.3335  -14.8225 O   0  0  0  0  0  0  0  0  0  0  0  0
   -8.6479  -35.0495  -15.8948 O   0  0  0  0  0  0  0  0  0  0  0  0
   -6.9297  -35.9985  -18.6113 O   0  0  0  0  0  0  0  0  0  0  0  0
   -5.4359  -37.8393  -16.9998 O   0  0  0  0  0  0  0  0  0  0  0  0
   -5.6294  -34.9164  -15.0064 O   0  0  0  0  0  0  0  0  0  0  0  0
   -3.3818  -36.7537  -15.3743 O   0  0  0  0  0  0  0  0  0  0  0  0
   -6.5505  -32.3130  -14.2058 C   0  0  2  0  0  0  0  0  0  0  0  0
   -7.2131  -31.6849  -13.0402 C   0  0  1  0  0  0  0  0  0  0  0  0
   -6.7237  -30.2389  -12.9198 C   0  0  2  0  0  0  0  0  0  0  0  0
   -7.1386  -29.4057  -14.1118 C   0  0  1  0  0  0  0  0  0  0  0  0
   -7.3586  -30.3948  -15.2355 C   0  0  1  0  0  0  0  0  0  0  0  0
   -7.2520  -29.6245  -16.5315 C   0  0  0  0  0  0  0  0  0  0  0  0
   -8.5854  -31.7561  -13.0539 O   0  0  0  0  0  0  0  0  0  0  0  0
   -5.3329  -30.1973  -12.8511 O   0  0  0  0  0  0  0  0  0  0  0  0
   -8.3092  -28.7242  -13.7875 O   0  0  0  0  0  0  0  0  0  0  0  0
   -6.3563  -31.3311  -15.1872 O   0  0  0  0  0  0  0  0  0  0  0  0
   -5.9348  -29.4801  -16.9451 O   0  0  0  0  0  0  0  0  0  0  0  0
  1  2  1  0
  1  7  1  1
  1 11  1  0
  2  3  1  0
  2  8  1  1
  3  4  1  0
  3  9  1  6
  5  4  1  0
  4 10  1  1
  5  6  1  1
 11  5  1  0
  6 12  1  0
 13  7  1  6
 13 14  1  0
 22 13  1  0
 15 14  1  0
 14 19  1  6
 16 15  1  0
 15 20  1  6
 17 16  1  0
 16 21  1  1
 17 18  1  6
 17 22  1  0
 23 18  1  0
M  END
$$$$
