
     RDKit          3D

 23 24  0  0  0  0  0  0  0  0999 V2000
   -6.4630  -31.7340  -14.1750 C   0  0  1  0  0  0  0  0  0  0  0  0
   -6.8859  -31.4496  -12.7661 C   0  0  1  0  0  0  0  0  0  0  0  0
   -7.4547  -30.0883  -12.5330 C   0  0  2  0  0  0  0  0  0  0  0  0
   -7.6013  -29.2958  -13.8260 C   0  0  1  0  0  0  0  0  0  0  0  0
   -8.1994  -30.3095  -14.7888 C   0  0  1  0  0  0  0  0  0  0  0  0
   -8.6384  -29.5293  -16.0298 C   0  0  0  0  0  0  0  0  0  0  0  0
   -6.5135  -33.0824  -14.3673 O   0  0  0  0  0  0  0  0  0  0  0  0
   -7.8315  -32.3841  -12.3358 O   0  0  0  0  0  0  0  0  0  0  0  0
   -6.6593  -29.3169  -11.6647 O   0  0  0  0  0  0  0  0  0  0  0  0
   -8.4601  -28.2242  -13.6090 O   0  0  0  0  0  0  0  0  0  0  0  0
   -7.1935  -31.1470  -15.1608 O   0  0  0  0  0  0  0  0  0  0  0  0
   -7.6791  -28.6207  -16.4206 O   0  0  0  0  0  0  0  0  0  0  0  0
   -6.5690  -33.6002  -15.5939 C   0  0  2  0  0  0  0  0  0  0  0  0
   -7.7508  -34.3992  -15.9902 C   0  0  1  0  0  0  0  0  0  0  0  0
   -7.3358  -35.3684  -17.1009 C   0  0  2  0  0  0  0  0  0  0  0  0
   -6.3177  -36.3755  -16.6146 C   0  0  1  0  0  0  0  0  0  0  0  0
   -5.6462  -35.7245  -15.4252 C   0  0  1  0  0  0  0  0  0  0  0  0
   -4.3148  -36.4142  -15.2353 C   0  0  0  0  0  0  0  0  0  0  0  0
   -8.3745  -35.0523  -14.9545 O   0  0  0  0  0  0  0  0  0  0  0  0
   -6.7574  -34.6767  -18.1629 O   0  0  0  0  0  0  0  0  0  0  0  0
   -6.9884  -37.5416  -16.2541 O   0  0  0  0  0  0  0  0  0  0  0  0
   -5.4274  -34.4030  -15.7244 O   0  0  0  0  0  0  0  0  0  0  0  0
   -3.3536  -35.9444  -16.1198 O   0  0  0  0  0  0  0  0  0  0  0  0
  1  2  1  0
  1  7  1  6
  1 11  1  0
  2  3  1  0
  2  8  1  6
  3  4  1  0
  3  9  1  1
  5  4  1  0
  4 10  1  1
  5  6  1  6
 11  5  1  0
  6 12  1  0
 13  7  1  1
 13 14  1  0
 22 13  1  0
 15 14  1  0
 14 19  1  1
 16 15  1  0
 15 20  1  6
 17 16  1  0
 16 21  1  1
 17 18  1  6
 17 22  1  0
 23 18  1  0
M  END
$$$$
