
     RDKit          3D

 23 24  0  0  0  0  0  0  0  0999 V2000
   -6.1445  -33.7572  -16.3470 C   0  0  1  0  0  0  0  0  0  0  0  0
   -6.9505  -34.3533  -17.4606 C   0  0  1  0  0  0  0  0  0  0  0  0
   -6.6898  -35.7983  -17.7344 C   0  0  2  0  0  0  0  0  0  0  0  0
   -5.7257  -36.4112  -16.7262 C   0  0  1  0  0  0  0  0  0  0  0  0
   -6.2318  -35.8799  -15.3943 C   0  0  1  0  0  0  0  0  0  0  0  0
   -5.4976  -36.6619  -14.3030 C   0  0  0  0  0  0  0  0  0  0  0  0
   -6.8369  -32.6957  -15.8456 O   0  0  0  0  0  0  0  0  0  0  0  0
   -8.3181  -34.2080  -17.2134 O   0  0  0  0  0  0  0  0  0  0  0  0
   -6.1395  -36.0105  -19.0126 O   0  0  0  0  0  0  0  0  0  0  0  0
   -5.8150  -37.7969  -16.7942 O   0  0  0  0  0  0  0  0  0  0  0  0
   -5.8380  -34.5803  -15.3084 O   0  0  0  0  0  0  0  0  0  0  0  0
   -4.1352  -36.6576  -14.5085 O   0  0  0  0  0  0  0  0  0  0  0  0
   -6.5514  -32.1943  -14.6444 C   0  0  2  0  0  0  0  0  0  0  0  0
   -7.6375  -32.0273  -13.6522 C   0  0  1  0  0  0  0  0  0  0  0  0
   -7.2431  -30.9134  -12.6781 C   0  0  2  0  0  0  0  0  0  0  0  0
   -7.1284  -29.5754  -13.3734 C   0  0  1  0  0  0  0  0  0  0  0  0
   -6.8628  -29.9003  -14.8272 C   0  0  1  0  0  0  0  0  0  0  0  0
   -6.2302  -28.6756  -15.4469 C   0  0  0  0  0  0  0  0  0  0  0  0
   -8.8810  -31.8093  -14.1948 O   0  0  0  0  0  0  0  0  0  0  0  0
   -6.0055  -31.1853  -12.0993 O   0  0  0  0  0  0  0  0  0  0  0  0
   -8.3288  -28.8886  -13.2092 O   0  0  0  0  0  0  0  0  0  0  0  0
   -5.9695  -30.9409  -14.8794 O   0  0  0  0  0  0  0  0  0  0  0  0
   -4.8922  -28.5479  -15.0999 O   0  0  0  0  0  0  0  0  0  0  0  0
  1  2  1  0
  1  7  1  1
  1 11  1  0
  2  3  1  0
  2  8  1  1
  3  4  1  0
  3  9  1  6
  5  4  1  0
  4 10  1  1
  5  6  1  1
 11  5  1  0
  6 12  1  0
 13  7  1  6
 13 14  1  0
 22 13  1  0
 15 14  1  0
 14 19  1  6
 16 15  1  0
 15 20  1  6
 17 16  1  0
 16 21  1  6
 17 18  1  6
 17 22  1  0
 23 18  1  0
M  END
$$$$
