
     RDKit          3D

 23 24  0  0  0  0  0  0  0  0999 V2000
   -6.8197  -33.5090  -16.2658 C   0  0  1  0  0  0  0  0  0  0  0  0
   -7.8413  -34.5769  -16.5122 C   0  0  1  0  0  0  0  0  0  0  0  0
   -7.2949  -35.8898  -16.9689 C   0  0  2  0  0  0  0  0  0  0  0  0
   -5.7713  -35.9091  -16.9751 C   0  0  1  0  0  0  0  0  0  0  0  0
   -5.4102  -35.2569  -15.6498 C   0  0  1  0  0  0  0  0  0  0  0  0
   -3.9109  -35.4832  -15.4441 C   0  0  0  0  0  0  0  0  0  0  0  0
   -7.3381  -32.6282  -15.3642 O   0  0  0  0  0  0  0  0  0  0  0  0
   -8.5999  -34.8098  -15.3620 O   0  0  0  0  0  0  0  0  0  0  0  0
   -7.7166  -36.2220  -18.2702 O   0  0  0  0  0  0  0  0  0  0  0  0
   -5.3324  -37.2268  -17.0360 O   0  0  0  0  0  0  0  0  0  0  0  0
   -5.6106  -33.9191  -15.7966 O   0  0  0  0  0  0  0  0  0  0  0  0
   -3.1775  -35.0067  -16.5087 O   0  0  0  0  0  0  0  0  0  0  0  0
   -6.5794  -31.6805  -14.8147 C   0  0  2  0  0  0  0  0  0  0  0  0
   -6.6345  -31.4664  -13.3507 C   0  0  1  0  0  0  0  0  0  0  0  0
   -6.2311  -30.0196  -13.0523 C   0  0  2  0  0  0  0  0  0  0  0  0
   -7.2149  -29.0314  -13.6376 C   0  0  1  0  0  0  0  0  0  0  0  0
   -7.8913  -29.7647  -14.7753 C   0  0  1  0  0  0  0  0  0  0  0  0
   -8.4652  -28.7159  -15.6998 C   0  0  0  0  0  0  0  0  0  0  0  0
   -7.8376  -31.7873  -12.7695 O   0  0  0  0  0  0  0  0  0  0  0  0
   -4.9836  -29.7360  -13.6037 O   0  0  0  0  0  0  0  0  0  0  0  0
   -8.1221  -28.6712  -12.6441 O   0  0  0  0  0  0  0  0  0  0  0  0
   -6.9376  -30.4840  -15.4510 O   0  0  0  0  0  0  0  0  0  0  0  0
   -7.6820  -28.5336  -16.8313 O   0  0  0  0  0  0  0  0  0  0  0  0
  1  2  1  0
  1  7  1  1
  1 11  1  0
  2  3  1  0
  2  8  1  1
  3  4  1  0
  3  9  1  6
  5  4  1  0
  4 10  1  1
  5  6  1  6
 11  5  1  0
  6 12  1  0
 13  7  1  1
 13 14  1  0
 22 13  1  0
 15 14  1  0
 14 19  1  6
 16 15  1  0
 15 20  1  6
 17 16  1  0
 16 21  1  1
 17 18  1  6
 17 22  1  0
 23 18  1  0
M  END
$$$$
