
     RDKit          3D

 23 24  0  0  0  0  0  0  0  0999 V2000
   -5.7705  -34.7957  -15.3146 C   0  0  1  0  0  0  0  0  0  0  0  0
   -5.0559  -34.9779  -16.6188 C   0  0  1  0  0  0  0  0  0  0  0  0
   -4.8524  -36.3956  -17.0426 C   0  0  2  0  0  0  0  0  0  0  0  0
   -5.5327  -37.3818  -16.1012 C   0  0  1  0  0  0  0  0  0  0  0  0
   -6.8989  -36.7552  -15.8700 C   0  0  1  0  0  0  0  0  0  0  0  0
   -7.7507  -37.8105  -15.1614 C   0  0  0  0  0  0  0  0  0  0  0  0
   -6.3695  -33.5716  -15.3283 O   0  0  0  0  0  0  0  0  0  0  0  0
   -5.7326  -34.3198  -17.6492 O   0  0  0  0  0  0  0  0  0  0  0  0
   -3.4907  -36.7487  -17.0954 O   0  0  0  0  0  0  0  0  0  0  0  0
   -5.6338  -38.6172  -16.7307 O   0  0  0  0  0  0  0  0  0  0  0  0
   -6.7207  -35.7189  -15.0063 O   0  0  0  0  0  0  0  0  0  0  0  0
   -7.0471  -38.4345  -14.1544 O   0  0  0  0  0  0  0  0  0  0  0  0
   -6.8500  -33.0289  -14.2102 C   0  0  2  0  0  0  0  0  0  0  0  0
   -8.0817  -32.2098  -14.2735 C   0  0  1  0  0  0  0  0  0  0  0  0
   -8.0738  -31.2230  -13.1025 C   0  0  2  0  0  0  0  0  0  0  0  0
   -6.9323  -30.2366  -13.2084 C   0  0  1  0  0  0  0  0  0  0  0  0
   -5.8919  -30.9181  -14.0701 C   0  0  1  0  0  0  0  0  0  0  0  0
   -4.5689  -30.2464  -13.7826 C   0  0  0  0  0  0  0  0  0  0  0  0
   -8.2840  -31.5709  -15.4732 O   0  0  0  0  0  0  0  0  0  0  0  0
   -7.9239  -31.8995  -11.8939 O   0  0  0  0  0  0  0  0  0  0  0  0
   -7.4106  -29.0709  -13.8018 O   0  0  0  0  0  0  0  0  0  0  0  0
   -5.8166  -32.2356  -13.6929 O   0  0  0  0  0  0  0  0  0  0  0  0
   -4.0644  -30.5996  -12.5386 O   0  0  0  0  0  0  0  0  0  0  0  0
  1  2  1  0
  1  7  1  6
  1 11  1  0
  2  3  1  0
  2  8  1  6
  3  4  1  0
  3  9  1  1
  5  4  1  0
  4 10  1  6
  5  6  1  1
 11  5  1  0
  6 12  1  0
 13  7  1  6
 13 14  1  0
 22 13  1  0
 15 14  1  0
 14 19  1  6
 16 15  1  0
 15 20  1  1
 17 16  1  0
 16 21  1  6
 17 18  1  1
 17 22  1  0
 23 18  1  0
M  END
$$$$
