
     RDKit          3D

 23 24  0  0  0  0  0  0  0  0999 V2000
   -6.1403  -33.8247  -15.8742 C   0  0  1  0  0  0  0  0  0  0  0  0
   -7.0176  -34.2429  -17.0145 C   0  0  1  0  0  0  0  0  0  0  0  0
   -6.5732  -35.4670  -17.7460 C   0  0  2  0  0  0  0  0  0  0  0  0
   -5.3608  -36.1198  -17.0938 C   0  0  1  0  0  0  0  0  0  0  0  0
   -5.7087  -36.0978  -15.6136 C   0  0  1  0  0  0  0  0  0  0  0  0
   -4.6771  -36.9804  -14.9078 C   0  0  0  0  0  0  0  0  0  0  0  0
   -6.9009  -33.1138  -14.9946 O   0  0  0  0  0  0  0  0  0  0  0  0
   -8.3264  -34.4617  -16.5766 O   0  0  0  0  0  0  0  0  0  0  0  0
   -6.2259  -35.1956  -19.0829 O   0  0  0  0  0  0  0  0  0  0  0  0
   -5.2302  -37.4187  -17.5718 O   0  0  0  0  0  0  0  0  0  0  0  0
   -5.5263  -34.8208  -15.1807 O   0  0  0  0  0  0  0  0  0  0  0  0
   -3.4489  -36.3604  -14.8328 O   0  0  0  0  0  0  0  0  0  0  0  0
   -6.3582  -32.1777  -14.2168 C   0  0  2  0  0  0  0  0  0  0  0  0
   -7.1568  -31.6021  -13.1109 C   0  0  1  0  0  0  0  0  0  0  0  0
   -6.6259  -30.1992  -12.8027 C   0  0  2  0  0  0  0  0  0  0  0  0
   -6.8220  -29.2569  -13.9692 C   0  0  1  0  0  0  0  0  0  0  0  0
   -6.9179  -30.1451  -15.1905 C   0  0  1  0  0  0  0  0  0  0  0  0
   -6.5863  -29.2872  -16.3898 C   0  0  0  0  0  0  0  0  0  0  0  0
   -8.5138  -31.5942  -13.3276 O   0  0  0  0  0  0  0  0  0  0  0  0
   -5.2601  -30.2417  -12.5315 O   0  0  0  0  0  0  0  0  0  0  0  0
   -7.9957  -28.5365  -13.7617 O   0  0  0  0  0  0  0  0  0  0  0  0
   -5.9770  -31.1377  -15.0758 O   0  0  0  0  0  0  0  0  0  0  0  0
   -5.3719  -28.6312  -16.2416 O   0  0  0  0  0  0  0  0  0  0  0  0
  1  2  1  0
  1  7  1  1
  1 11  1  0
  2  3  1  0
  2  8  1  1
  3  4  1  0
  3  9  1  6
  5  4  1  0
  4 10  1  6
  5  6  1  1
 11  5  1  0
  6 12  1  0
 13  7  1  6
 13 14  1  0
 22 13  1  0
 15 14  1  0
 14 19  1  6
 16 15  1  0
 15 20  1  6
 17 16  1  0
 16 21  1  1
 17 18  1  6
 17 22  1  0
 23 18  1  0
M  END
$$$$
