
     RDKit          3D

 23 24  0  0  0  0  0  0  0  0999 V2000
   -6.5230  -34.0677  -15.6352 C   0  0  1  0  0  0  0  0  0  0  0  0
   -7.4176  -34.6328  -16.6959 C   0  0  1  0  0  0  0  0  0  0  0  0
   -6.8961  -35.8482  -17.3899 C   0  0  2  0  0  0  0  0  0  0  0  0
   -5.5897  -36.3432  -16.7816 C   0  0  1  0  0  0  0  0  0  0  0  0
   -5.8534  -36.2702  -15.2858 C   0  0  1  0  0  0  0  0  0  0  0  0
   -4.7008  -37.0078  -14.6011 C   0  0  0  0  0  0  0  0  0  0  0  0
   -7.2993  -33.3842  -14.7477 O   0  0  0  0  0  0  0  0  0  0  0  0
   -8.6713  -34.9510  -16.1670 O   0  0  0  0  0  0  0  0  0  0  0  0
   -6.6539  -35.6215  -18.7579 O   0  0  0  0  0  0  0  0  0  0  0  0
   -5.3580  -37.6486  -17.1996 O   0  0  0  0  0  0  0  0  0  0  0  0
   -5.7746  -34.9589  -14.9310 O   0  0  0  0  0  0  0  0  0  0  0  0
   -3.4984  -36.3671  -14.8066 O   0  0  0  0  0  0  0  0  0  0  0  0
   -6.7776  -32.4453  -13.9590 C   0  0  2  0  0  0  0  0  0  0  0  0
   -7.5786  -31.9205  -12.8297 C   0  0  1  0  0  0  0  0  0  0  0  0
   -7.0923  -30.5063  -12.5006 C   0  0  2  0  0  0  0  0  0  0  0  0
   -7.3393  -29.5482  -13.6445 C   0  0  1  0  0  0  0  0  0  0  0  0
   -7.4230  -30.4146  -14.8822 C   0  0  1  0  0  0  0  0  0  0  0  0
   -7.1402  -29.5217  -16.0684 C   0  0  0  0  0  0  0  0  0  0  0  0
   -8.9382  -31.9561  -13.0261 O   0  0  0  0  0  0  0  0  0  0  0  0
   -5.7218  -30.5060  -12.2506 O   0  0  0  0  0  0  0  0  0  0  0  0
   -8.5341  -28.8739  -13.4048 O   0  0  0  0  0  0  0  0  0  0  0  0
   -6.4464  -31.3755  -14.8019 O   0  0  0  0  0  0  0  0  0  0  0  0
   -5.8086  -29.1333  -16.1226 O   0  0  0  0  0  0  0  0  0  0  0  0
  1  2  1  0
  1  7  1  1
  1 11  1  0
  2  3  1  0
  2  8  1  1
  3  4  1  0
  3  9  1  6
  5  4  1  0
  4 10  1  6
  5  6  1  1
 11  5  1  0
  6 12  1  0
 13  7  1  6
 13 14  1  0
 22 13  1  0
 15 14  1  0
 14 19  1  6
 16 15  1  0
 15 20  1  6
 17 16  1  0
 16 21  1  1
 17 18  1  6
 17 22  1  0
 23 18  1  0
M  END
$$$$
