
     RDKit          3D

 23 24  0  0  0  0  0  0  0  0999 V2000
   -6.6973  -33.7643  -15.7533 C   0  0  1  0  0  0  0  0  0  0  0  0
   -7.8307  -34.6442  -16.1846 C   0  0  1  0  0  0  0  0  0  0  0  0
   -7.4328  -35.8898  -16.9064 C   0  0  2  0  0  0  0  0  0  0  0  0
   -5.9208  -36.0720  -16.9510 C   0  0  1  0  0  0  0  0  0  0  0  0
   -5.4891  -35.7422  -15.5307 C   0  0  1  0  0  0  0  0  0  0  0  0
   -4.0238  -36.1658  -15.4085 C   0  0  0  0  0  0  0  0  0  0  0  0
   -7.1149  -33.0317  -14.6825 O   0  0  0  0  0  0  0  0  0  0  0  0
   -8.6098  -35.0200  -15.0870 O   0  0  0  0  0  0  0  0  0  0  0  0
   -7.8894  -35.9063  -18.2379 O   0  0  0  0  0  0  0  0  0  0  0  0
   -5.6300  -37.3901  -17.2836 O   0  0  0  0  0  0  0  0  0  0  0  0
   -5.5406  -34.3884  -15.4030 O   0  0  0  0  0  0  0  0  0  0  0  0
   -3.2881  -35.2409  -14.7001 O   0  0  0  0  0  0  0  0  0  0  0  0
   -6.3829  -32.0220  -14.2130 C   0  0  2  0  0  0  0  0  0  0  0  0
   -6.5716  -31.5801  -12.8126 C   0  0  1  0  0  0  0  0  0  0  0  0
   -6.1533  -30.1112  -12.7025 C   0  0  2  0  0  0  0  0  0  0  0  0
   -7.0447  -29.2111  -13.5287 C   0  0  1  0  0  0  0  0  0  0  0  0
   -7.6314  -30.1028  -14.6012 C   0  0  1  0  0  0  0  0  0  0  0  0
   -8.0805  -29.2029  -15.7293 C   0  0  0  0  0  0  0  0  0  0  0  0
   -7.8346  -31.7864  -12.3118 O   0  0  0  0  0  0  0  0  0  0  0  0
   -4.8503  -29.9377  -13.1638 O   0  0  0  0  0  0  0  0  0  0  0  0
   -8.0313  -28.6850  -12.6984 O   0  0  0  0  0  0  0  0  0  0  0  0
   -6.6403  -30.9345  -15.0591 O   0  0  0  0  0  0  0  0  0  0  0  0
   -7.5949  -29.6265  -16.9588 O   0  0  0  0  0  0  0  0  0  0  0  0
  1  2  1  0
  1  7  1  1
  1 11  1  0
  2  3  1  0
  2  8  1  1
  3  4  1  0
  3  9  1  6
  5  4  1  0
  4 10  1  1
  5  6  1  6
 11  5  1  0
  6 12  1  0
 13  7  1  6
 13 14  1  0
 22 13  1  0
 15 14  1  0
 14 19  1  6
 16 15  1  0
 15 20  1  6
 17 16  1  0
 16 21  1  1
 17 18  1  6
 17 22  1  0
 23 18  1  0
M  END
$$$$
