
     RDKit          3D

 36 41  0  0  0  0  0  0  0  0999 V2000
  141.5988  -35.5035  267.9115 C   0  0  0  0  0  0  0  0  0  0  0  0
  141.4674  -34.8507  269.1400 C   0  0  0  0  0  0  0  0  0  0  0  0
  140.4174  -34.4640  269.8791 N   0  0  0  0  0  0  0  0  0  0  0  0
  139.0388  -34.6747  269.4992 C   0  0  0  0  0  0  0  0  0  0  0  0
  140.7953  -33.8572  271.0151 C   0  0  0  0  0  0  0  0  0  0  0  0
  142.1682  -33.8392  271.0329 C   0  0  0  0  0  0  0  0  0  0  0  0
  142.5831  -34.4615  269.8585 C   0  0  0  0  0  0  0  0  0  0  0  0
  143.8183  -34.7449  269.3114 C   0  0  0  0  0  0  0  0  0  0  0  0
  143.9423  -35.3904  268.0969 C   0  0  0  0  0  0  0  0  0  0  0  0
  142.8360  -35.7832  267.3714 C   0  0  0  0  0  0  0  0  0  0  0  0
  143.0052  -36.4631  266.0916 C   0  0  0  0  0  0  0  0  0  0  0  0
  142.2682  -37.5911  265.7859 C   0  0  0  0  0  0  0  0  0  0  0  0
  143.9145  -35.9790  265.1638 C   0  0  0  0  0  0  0  0  0  0  0  0
  144.6606  -34.8839  265.4061 N   0  0  0  0  0  0  0  0  0  0  0  0
  145.5513  -34.3875  264.5294 C   0  0  0  0  0  0  0  0  0  0  0  0
  145.6986  -35.0418  263.3252 C   0  0  0  0  0  0  0  0  0  0  0  0
  144.9619  -36.1377  263.0649 N   0  0  0  0  0  0  0  0  0  0  0  0
  144.0730  -36.6215  263.9568 C   0  0  0  0  0  0  0  0  0  0  0  0
  143.3327  -37.7346  263.6780 C   0  0  0  0  0  0  0  0  0  0  0  0
  142.4248  -38.2355  264.5797 C   0  0  0  0  0  0  0  0  0  0  0  0
  141.6126  -39.3863  264.2700 N   0  0  0  0  0  0  0  0  0  0  0  0
  142.1962  -40.5736  263.7910 C   0  0  0  0  0  0  0  0  0  0  0  0
  143.5899  -40.6295  263.6467 C   0  0  0  0  0  0  0  0  0  0  0  0
  144.2521  -41.6918  263.1893 N   0  0  0  0  0  0  0  0  0  0  0  0
  143.5951  -42.7907  262.8357 C   0  0  0  0  0  0  0  0  0  0  0  0
  142.2031  -42.7789  262.9635 C   0  0  0  0  0  0  0  0  0  0  0  0
  141.4914  -41.7014  263.4302 C   0  0  0  0  0  0  0  0  0  0  0  0
  140.0126  -41.7320  263.5129 C   0  0  0  0  0  0  0  0  0  0  0  0
  139.3668  -40.7011  263.7191 O   0  0  0  0  0  0  0  0  0  0  0  0
  139.2832  -42.9292  263.3625 N   0  0  0  0  0  0  0  0  0  0  0  0
  137.8928  -43.0918  263.4892 C   0  0  0  0  0  0  0  0  0  0  0  0
  137.0918  -41.9398  263.5119 C   0  0  0  0  0  0  0  0  0  0  0  0
  135.7544  -41.9874  263.6298 N   0  0  0  0  0  0  0  0  0  0  0  0
  135.1041  -43.1547  263.7335 C   0  0  0  0  0  0  0  0  0  0  0  0
  135.8546  -44.2591  263.7133 N   0  0  0  0  0  0  0  0  0  0  0  0
  137.2037  -44.2719  263.5968 C   0  0  0  0  0  0  0  0  0  0  0  0
  1  2  2  0
  1 10  1  0
  2  3  1  0
  2  7  1  0
  3  4  1  0
  3  5  1  0
  5  6  2  0
  6  7  1  0
  7  8  2  0
  8  9  1  0
  9 10  2  0
 10 11  1  0
 11 12  2  0
 11 13  1  0
 12 20  1  0
 13 14  2  0
 13 18  1  0
 14 15  1  0
 15 16  2  0
 16 17  1  0
 17 18  2  0
 18 19  1  0
 19 20  2  0
 20 21  1  0
 21 22  1  0
 22 23  2  0
 22 27  1  0
 23 24  1  0
 24 25  2  0
 25 26  1  0
 26 27  2  0
 27 28  1  0
 28 29  2  0
 28 30  1  0
 30 31  1  0
 31 32  2  0
 31 36  1  0
 32 33  1  0
 33 34  2  0
 34 35  1  0
 35 36  2  0
M  END
$$$$
