
     RDKit          3D

 36 41  0  0  0  0  0  0  0  0999 V2000
  142.4372  -37.4541  266.3217 C   0  0  0  0  0  0  0  0  0  0  0  0
  142.7794  -36.2212  266.8834 C   0  0  0  0  0  0  0  0  0  0  0  0
  142.3466  -35.5342  267.9507 N   0  0  0  0  0  0  0  0  0  0  0  0
  141.3074  -35.9957  268.8431 C   0  0  0  0  0  0  0  0  0  0  0  0
  142.9914  -34.3660  268.0950 C   0  0  0  0  0  0  0  0  0  0  0  0
  143.9006  -34.2705  267.0703 C   0  0  0  0  0  0  0  0  0  0  0  0
  143.7637  -35.4329  266.3161 C   0  0  0  0  0  0  0  0  0  0  0  0
  144.3853  -35.9154  265.1820 C   0  0  0  0  0  0  0  0  0  0  0  0
  144.0432  -37.1347  264.6311 C   0  0  0  0  0  0  0  0  0  0  0  0
  143.0625  -37.9296  265.1887 C   0  0  0  0  0  0  0  0  0  0  0  0
  142.7274  -39.2121  264.5792 C   0  0  0  0  0  0  0  0  0  0  0  0
  141.4107  -39.5724  264.3658 C   0  0  0  0  0  0  0  0  0  0  0  0
  143.7356  -40.0873  264.2060 C   0  0  0  0  0  0  0  0  0  0  0  0
  145.0368  -39.7907  264.3894 N   0  0  0  0  0  0  0  0  0  0  0  0
  146.0395  -40.6156  264.0395 C   0  0  0  0  0  0  0  0  0  0  0  0
  145.7054  -41.8232  263.4649 C   0  0  0  0  0  0  0  0  0  0  0  0
  144.4107  -42.1373  263.2736 N   0  0  0  0  0  0  0  0  0  0  0  0
  143.4179  -41.2970  263.6310 C   0  0  0  0  0  0  0  0  0  0  0  0
  142.1089  -41.6302  263.4303 C   0  0  0  0  0  0  0  0  0  0  0  0
  141.0902  -40.7815  263.7910 C   0  0  0  0  0  0  0  0  0  0  0  0
  139.7092  -41.1140  263.5418 N   0  0  0  0  0  0  0  0  0  0  0  0
  139.3427  -41.8808  262.4205 C   0  0  0  0  0  0  0  0  0  0  0  0
  140.1728  -41.8627  261.2905 C   0  0  0  0  0  0  0  0  0  0  0  0
  139.9215  -42.5347  260.1674 N   0  0  0  0  0  0  0  0  0  0  0  0
  138.8292  -43.2832  260.0636 C   0  0  0  0  0  0  0  0  0  0  0  0
  137.9728  -43.3306  261.1675 C   0  0  0  0  0  0  0  0  0  0  0  0
  138.2023  -42.6501  262.3377 C   0  0  0  0  0  0  0  0  0  0  0  0
  137.2425  -42.7095  263.4647 C   0  0  0  0  0  0  0  0  0  0  0  0
  137.6316  -42.6466  264.6339 O   0  0  0  0  0  0  0  0  0  0  0  0
  135.8546  -42.8404  263.2543 N   0  0  0  0  0  0  0  0  0  0  0  0
  134.8587  -42.9533  264.2397 C   0  0  0  0  0  0  0  0  0  0  0  0
  133.7538  -42.0913  264.1648 C   0  0  0  0  0  0  0  0  0  0  0  0
  132.7496  -42.1187  265.0568 N   0  0  0  0  0  0  0  0  0  0  0  0
  132.7491  -42.9833  266.0808 C   0  0  0  0  0  0  0  0  0  0  0  0
  133.7950  -43.8095  266.1639 N   0  0  0  0  0  0  0  0  0  0  0  0
  134.8339  -43.8272  265.2956 C   0  0  0  0  0  0  0  0  0  0  0  0
  1  2  2  0
  1 10  1  0
  2  3  1  0
  2  7  1  0
  3  4  1  0
  3  5  1  0
  5  6  2  0
  6  7  1  0
  7  8  2  0
  8  9  1  0
  9 10  2  0
 10 11  1  0
 11 12  2  0
 11 13  1  0
 12 20  1  0
 13 14  2  0
 13 18  1  0
 14 15  1  0
 15 16  2  0
 16 17  1  0
 17 18  2  0
 18 19  1  0
 19 20  2  0
 20 21  1  0
 21 22  1  0
 22 23  2  0
 22 27  1  0
 23 24  1  0
 24 25  2  0
 25 26  1  0
 26 27  2  0
 27 28  1  0
 28 29  2  0
 28 30  1  0
 30 31  1  0
 31 32  2  0
 31 36  1  0
 32 33  1  0
 33 34  2  0
 34 35  1  0
 35 36  2  0
M  END
$$$$
