
     RDKit          3D

 36 41  0  0  0  0  0  0  0  0999 V2000
  142.8010  -37.1401  266.5648 C   0  0  0  0  0  0  0  0  0  0  0  0
  143.2323  -35.9220  267.0967 C   0  0  0  0  0  0  0  0  0  0  0  0
  142.8363  -35.1681  268.1327 N   0  0  0  0  0  0  0  0  0  0  0  0
  141.7448  -35.5142  269.0149 C   0  0  0  0  0  0  0  0  0  0  0  0
  143.5722  -34.0526  268.2562 C   0  0  0  0  0  0  0  0  0  0  0  0
  144.5066  -34.0646  267.2500 C   0  0  0  0  0  0  0  0  0  0  0  0
  144.2895  -35.2353  266.5283 C   0  0  0  0  0  0  0  0  0  0  0  0
  144.8919  -35.8032  265.4237 C   0  0  0  0  0  0  0  0  0  0  0  0
  144.4615  -37.0073  264.9023 C   0  0  0  0  0  0  0  0  0  0  0  0
  143.4076  -37.7011  265.4612 C   0  0  0  0  0  0  0  0  0  0  0  0
  142.9801  -38.9707  264.8834 C   0  0  0  0  0  0  0  0  0  0  0  0
  141.6676  -39.1680  264.4995 C   0  0  0  0  0  0  0  0  0  0  0  0
  143.8949  -39.9983  264.7131 C   0  0  0  0  0  0  0  0  0  0  0  0
  145.1873  -39.8641  265.0686 N   0  0  0  0  0  0  0  0  0  0  0  0
  146.1006  -40.8395  264.9176 C   0  0  0  0  0  0  0  0  0  0  0  0
  145.6801  -42.0325  264.3700 C   0  0  0  0  0  0  0  0  0  0  0  0
  144.3926  -42.1855  264.0087 N   0  0  0  0  0  0  0  0  0  0  0  0
  143.4902  -41.1956  264.1676 C   0  0  0  0  0  0  0  0  0  0  0  0
  142.1873  -41.3663  263.7960 C   0  0  0  0  0  0  0  0  0  0  0  0
  141.2601  -40.3644  263.9539 C   0  0  0  0  0  0  0  0  0  0  0  0
  139.8935  -40.5286  263.5236 N   0  0  0  0  0  0  0  0  0  0  0  0
  139.5526  -41.4899  262.5545 C   0  0  0  0  0  0  0  0  0  0  0  0
  140.5155  -41.8612  261.6051 C   0  0  0  0  0  0  0  0  0  0  0  0
  140.3036  -42.7475  260.6326 N   0  0  0  0  0  0  0  0  0  0  0  0
  139.1228  -43.3441  260.5143 C   0  0  0  0  0  0  0  0  0  0  0  0
  138.1327  -43.0036  261.4406 C   0  0  0  0  0  0  0  0  0  0  0  0
  138.3186  -42.0947  262.4528 C   0  0  0  0  0  0  0  0  0  0  0  0
  137.2225  -41.7461  263.3864 C   0  0  0  0  0  0  0  0  0  0  0  0
  137.1992  -40.6531  263.9585 O   0  0  0  0  0  0  0  0  0  0  0  0
  136.1670  -42.6393  263.6620 N   0  0  0  0  0  0  0  0  0  0  0  0
  135.0560  -42.4032  264.4900 C   0  0  0  0  0  0  0  0  0  0  0  0
  134.1907  -43.4752  264.7569 C   0  0  0  0  0  0  0  0  0  0  0  0
  133.1021  -43.3535  265.5348 N   0  0  0  0  0  0  0  0  0  0  0  0
  132.7796  -42.1848  266.1058 C   0  0  0  0  0  0  0  0  0  0  0  0
  133.5949  -41.1560  265.8600 N   0  0  0  0  0  0  0  0  0  0  0  0
  134.7040  -41.2198  265.0856 C   0  0  0  0  0  0  0  0  0  0  0  0
  1  2  2  0
  1 10  1  0
  2  3  1  0
  2  7  1  0
  3  4  1  0
  3  5  1  0
  5  6  2  0
  6  7  1  0
  7  8  2  0
  8  9  1  0
  9 10  2  0
 10 11  1  0
 11 12  2  0
 11 13  1  0
 12 20  1  0
 13 14  2  0
 13 18  1  0
 14 15  1  0
 15 16  2  0
 16 17  1  0
 17 18  2  0
 18 19  1  0
 19 20  2  0
 20 21  1  0
 21 22  1  0
 22 23  2  0
 22 27  1  0
 23 24  1  0
 24 25  2  0
 25 26  1  0
 26 27  2  0
 27 28  1  0
 28 29  2  0
 28 30  1  0
 30 31  1  0
 31 32  2  0
 31 36  1  0
 32 33  1  0
 33 34  2  0
 34 35  1  0
 35 36  2  0
M  END
$$$$
