
     RDKit          3D

 36 41  0  0  0  0  0  0  0  0999 V2000
  142.6599  -37.2452  266.1235 C   0  0  0  0  0  0  0  0  0  0  0  0
  142.9801  -36.0102  266.6936 C   0  0  0  0  0  0  0  0  0  0  0  0
  142.5262  -35.3325  267.7581 N   0  0  0  0  0  0  0  0  0  0  0  0
  141.4821  -35.8099  268.6364 C   0  0  0  0  0  0  0  0  0  0  0  0
  143.1548  -34.1570  267.9142 C   0  0  0  0  0  0  0  0  0  0  0  0
  144.0749  -34.0466  266.9008 C   0  0  0  0  0  0  0  0  0  0  0  0
  143.9614  -35.2078  266.1409 C   0  0  0  0  0  0  0  0  0  0  0  0
  144.6024  -35.6785  265.0127 C   0  0  0  0  0  0  0  0  0  0  0  0
  144.2819  -36.8999  264.4535 C   0  0  0  0  0  0  0  0  0  0  0  0
  143.3045  -37.7088  264.9965 C   0  0  0  0  0  0  0  0  0  0  0  0
  142.9925  -38.9931  264.3786 C   0  0  0  0  0  0  0  0  0  0  0  0
  141.6912  -39.3258  264.0547 C   0  0  0  0  0  0  0  0  0  0  0  0
  144.0076  -39.8980  264.1089 C   0  0  0  0  0  0  0  0  0  0  0  0
  145.2944  -39.6291  264.4025 N   0  0  0  0  0  0  0  0  0  0  0  0
  146.3032  -40.4832  264.1548 C   0  0  0  0  0  0  0  0  0  0  0  0
  145.9910  -41.6919  263.5706 C   0  0  0  0  0  0  0  0  0  0  0  0
  144.7108  -41.9787  263.2700 N   0  0  0  0  0  0  0  0  0  0  0  0
  143.7117  -41.1093  263.5258 C   0  0  0  0  0  0  0  0  0  0  0  0
  142.4176  -41.4149  263.2149 C   0  0  0  0  0  0  0  0  0  0  0  0
  141.3925  -40.5364  263.4716 C   0  0  0  0  0  0  0  0  0  0  0  0
  140.0310  -40.8405  263.1059 N   0  0  0  0  0  0  0  0  0  0  0  0
  139.7480  -41.7402  262.0619 C   0  0  0  0  0  0  0  0  0  0  0  0
  140.6228  -41.8002  260.9676 C   0  0  0  0  0  0  0  0  0  0  0  0
  140.4505  -42.6001  259.9156 N   0  0  0  0  0  0  0  0  0  0  0  0
  139.3998  -43.4103  259.8539 C   0  0  0  0  0  0  0  0  0  0  0  0
  138.5011  -43.3833  260.9244 C   0  0  0  0  0  0  0  0  0  0  0  0
  138.6494  -42.5711  262.0215 C   0  0  0  0  0  0  0  0  0  0  0  0
  137.6472  -42.5590  263.1124 C   0  0  0  0  0  0  0  0  0  0  0  0
  137.9950  -42.4727  264.2931 O   0  0  0  0  0  0  0  0  0  0  0  0
  136.2640  -42.6459  262.8536 N   0  0  0  0  0  0  0  0  0  0  0  0
  135.2655  -43.0852  263.7399 C   0  0  0  0  0  0  0  0  0  0  0  0
  135.5998  -43.2244  265.0958 C   0  0  0  0  0  0  0  0  0  0  0  0
  134.7189  -43.6375  266.0222 N   0  0  0  0  0  0  0  0  0  0  0  0
  133.4554  -43.9430  265.6964 C   0  0  0  0  0  0  0  0  0  0  0  0
  133.1239  -43.8149  264.4091 N   0  0  0  0  0  0  0  0  0  0  0  0
  133.9680  -43.4038  263.4333 C   0  0  0  0  0  0  0  0  0  0  0  0
  1  2  2  0
  1 10  1  0
  2  3  1  0
  2  7  1  0
  3  4  1  0
  3  5  1  0
  5  6  2  0
  6  7  1  0
  7  8  2  0
  8  9  1  0
  9 10  2  0
 10 11  1  0
 11 12  2  0
 11 13  1  0
 12 20  1  0
 13 14  2  0
 13 18  1  0
 14 15  1  0
 15 16  2  0
 16 17  1  0
 17 18  2  0
 18 19  1  0
 19 20  2  0
 20 21  1  0
 21 22  1  0
 22 23  2  0
 22 27  1  0
 23 24  1  0
 24 25  2  0
 25 26  1  0
 26 27  2  0
 27 28  1  0
 28 29  2  0
 28 30  1  0
 30 31  1  0
 31 32  2  0
 31 36  1  0
 32 33  1  0
 33 34  2  0
 34 35  1  0
 35 36  2  0
M  END
$$$$
