
     RDKit          3D

 36 41  0  0  0  0  0  0  0  0999 V2000
  142.1733  -36.9754  266.4328 C   0  0  0  0  0  0  0  0  0  0  0  0
  142.3104  -35.7854  267.1523 C   0  0  0  0  0  0  0  0  0  0  0  0
  141.4518  -34.9940  267.8116 N   0  0  0  0  0  0  0  0  0  0  0  0
  140.0336  -35.2518  267.9201 C   0  0  0  0  0  0  0  0  0  0  0  0
  142.0625  -33.9324  268.3605 C   0  0  0  0  0  0  0  0  0  0  0  0
  143.3972  -34.0219  268.0504 C   0  0  0  0  0  0  0  0  0  0  0  0
  143.5465  -35.1821  267.2950 C   0  0  0  0  0  0  0  0  0  0  0  0
  144.6262  -35.8033  266.7002 C   0  0  0  0  0  0  0  0  0  0  0  0
  144.4849  -36.9794  265.9902 C   0  0  0  0  0  0  0  0  0  0  0  0
  143.2564  -37.5902  265.8414 C   0  0  0  0  0  0  0  0  0  0  0  0
  143.1449  -38.8324  265.0843 C   0  0  0  0  0  0  0  0  0  0  0  0
  141.9885  -39.5872  265.1280 C   0  0  0  0  0  0  0  0  0  0  0  0
  144.2073  -39.2694  264.3082 C   0  0  0  0  0  0  0  0  0  0  0  0
  145.3592  -38.5759  264.2268 N   0  0  0  0  0  0  0  0  0  0  0  0
  146.4088  -38.9704  263.4844 C   0  0  0  0  0  0  0  0  0  0  0  0
  146.2867  -40.1461  262.7753 C   0  0  0  0  0  0  0  0  0  0  0  0
  145.1434  -40.8529  262.8441 N   0  0  0  0  0  0  0  0  0  0  0  0
  144.1006  -40.4415  263.5944 C   0  0  0  0  0  0  0  0  0  0  0  0
  142.9471  -41.1699  263.6538 C   0  0  0  0  0  0  0  0  0  0  0  0
  141.8792  -40.7597  264.4152 C   0  0  0  0  0  0  0  0  0  0  0  0
  140.6456  -41.5062  264.4461 N   0  0  0  0  0  0  0  0  0  0  0  0
  140.1214  -42.0825  263.2746 C   0  0  0  0  0  0  0  0  0  0  0  0
  140.6929  -41.7403  262.0406 C   0  0  0  0  0  0  0  0  0  0  0  0
  140.2723  -42.2094  260.8662 N   0  0  0  0  0  0  0  0  0  0  0  0
  139.2515  -43.0573  260.8091 C   0  0  0  0  0  0  0  0  0  0  0  0
  138.6514  -43.4261  262.0167 C   0  0  0  0  0  0  0  0  0  0  0  0
  139.0600  -42.9607  263.2421 C   0  0  0  0  0  0  0  0  0  0  0  0
  138.3650  -43.3589  264.4884 C   0  0  0  0  0  0  0  0  0  0  0  0
  138.9210  -43.2582  265.5853 O   0  0  0  0  0  0  0  0  0  0  0  0
  137.0500  -43.8672  264.4776 N   0  0  0  0  0  0  0  0  0  0  0  0
  136.3310  -44.3713  265.5751 C   0  0  0  0  0  0  0  0  0  0  0  0
  136.8062  -44.0855  266.8643 C   0  0  0  0  0  0  0  0  0  0  0  0
  136.1925  -44.5205  267.9774 N   0  0  0  0  0  0  0  0  0  0  0  0
  135.0774  -45.2613  267.9154 C   0  0  0  0  0  0  0  0  0  0  0  0
  134.6144  -45.5407  266.6944 N   0  0  0  0  0  0  0  0  0  0  0  0
  135.1900  -45.1301  265.5394 C   0  0  0  0  0  0  0  0  0  0  0  0
  1  2  2  0
  1 10  1  0
  2  3  1  0
  2  7  1  0
  3  4  1  0
  3  5  1  0
  5  6  2  0
  6  7  1  0
  7  8  2  0
  8  9  1  0
  9 10  2  0
 10 11  1  0
 11 12  2  0
 11 13  1  0
 12 20  1  0
 13 14  2  0
 13 18  1  0
 14 15  1  0
 15 16  2  0
 16 17  1  0
 17 18  2  0
 18 19  1  0
 19 20  2  0
 20 21  1  0
 21 22  1  0
 22 23  2  0
 22 27  1  0
 23 24  1  0
 24 25  2  0
 25 26  1  0
 26 27  2  0
 27 28  1  0
 28 29  2  0
 28 30  1  0
 30 31  1  0
 31 32  2  0
 31 36  1  0
 32 33  1  0
 33 34  2  0
 34 35  1  0
 35 36  2  0
M  END
$$$$
