
     RDKit          3D

 36 41  0  0  0  0  0  0  0  0999 V2000
  141.9594  -36.5704  268.3777 C   0  0  0  0  0  0  0  0  0  0  0  0
  141.6438  -35.8105  269.5072 C   0  0  0  0  0  0  0  0  0  0  0  0
  141.2684  -36.1164  270.7578 N   0  0  0  0  0  0  0  0  0  0  0  0
  141.0947  -37.4668  271.2431 C   0  0  0  0  0  0  0  0  0  0  0  0
  141.0721  -35.0213  271.5085 C   0  0  0  0  0  0  0  0  0  0  0  0
  141.3303  -33.9298  270.7163 C   0  0  0  0  0  0  0  0  0  0  0  0
  141.6872  -34.4289  269.4665 C   0  0  0  0  0  0  0  0  0  0  0  0
  142.0527  -33.8425  268.2715 C   0  0  0  0  0  0  0  0  0  0  0  0
  142.3635  -34.5984  267.1583 C   0  0  0  0  0  0  0  0  0  0  0  0
  142.3235  -35.9775  267.1875 C   0  0  0  0  0  0  0  0  0  0  0  0
  142.6584  -36.7437  265.9919 C   0  0  0  0  0  0  0  0  0  0  0  0
  141.8918  -37.8267  265.6069 C   0  0  0  0  0  0  0  0  0  0  0  0
  143.7578  -36.3884  265.2257 C   0  0  0  0  0  0  0  0  0  0  0  0
  144.5418  -35.3426  265.5516 N   0  0  0  0  0  0  0  0  0  0  0  0
  145.6149  -34.9706  264.8315 C   0  0  0  0  0  0  0  0  0  0  0  0
  145.9171  -35.7051  263.7050 C   0  0  0  0  0  0  0  0  0  0  0  0
  145.1454  -36.7535  263.3633 N   0  0  0  0  0  0  0  0  0  0  0  0
  144.0724  -37.1122  264.0979 C   0  0  0  0  0  0  0  0  0  0  0  0
  143.2991  -38.1786  263.7380 C   0  0  0  0  0  0  0  0  0  0  0  0
  142.2042  -38.5523  264.4796 C   0  0  0  0  0  0  0  0  0  0  0  0
  141.3627  -39.6524  264.0779 N   0  0  0  0  0  0  0  0  0  0  0  0
  141.9168  -40.8170  263.5155 C   0  0  0  0  0  0  0  0  0  0  0  0
  143.3073  -40.8899  263.3497 C   0  0  0  0  0  0  0  0  0  0  0  0
  143.9428  -41.9327  262.8159 N   0  0  0  0  0  0  0  0  0  0  0  0
  143.2601  -42.9936  262.4006 C   0  0  0  0  0  0  0  0  0  0  0  0
  141.8701  -42.9637  262.5473 C   0  0  0  0  0  0  0  0  0  0  0  0
  141.1856  -41.9054  263.0919 C   0  0  0  0  0  0  0  0  0  0  0  0
  139.7076  -41.9132  263.1919 C   0  0  0  0  0  0  0  0  0  0  0  0
  139.0618  -40.8633  263.1344 O   0  0  0  0  0  0  0  0  0  0  0  0
  138.9788  -43.1089  263.3568 N   0  0  0  0  0  0  0  0  0  0  0  0
  137.5806  -43.2458  263.4006 C   0  0  0  0  0  0  0  0  0  0  0  0
  136.9936  -44.2777  262.6523 C   0  0  0  0  0  0  0  0  0  0  0  0
  135.6676  -44.4923  262.6267 N   0  0  0  0  0  0  0  0  0  0  0  0
  134.8223  -43.7213  263.3245 C   0  0  0  0  0  0  0  0  0  0  0  0
  135.3679  -42.7354  264.0412 N   0  0  0  0  0  0  0  0  0  0  0  0
  136.6947  -42.4723  264.1048 C   0  0  0  0  0  0  0  0  0  0  0  0
  1  2  2  0
  1 10  1  0
  2  3  1  0
  2  7  1  0
  3  4  1  0
  3  5  1  0
  5  6  2  0
  6  7  1  0
  7  8  2  0
  8  9  1  0
  9 10  2  0
 10 11  1  0
 11 12  2  0
 11 13  1  0
 12 20  1  0
 13 14  2  0
 13 18  1  0
 14 15  1  0
 15 16  2  0
 16 17  1  0
 17 18  2  0
 18 19  1  0
 19 20  2  0
 20 21  1  0
 21 22  1  0
 22 23  2  0
 22 27  1  0
 23 24  1  0
 24 25  2  0
 25 26  1  0
 26 27  2  0
 27 28  1  0
 28 29  2  0
 28 30  1  0
 30 31  1  0
 31 32  2  0
 31 36  1  0
 32 33  1  0
 33 34  2  0
 34 35  1  0
 35 36  2  0
M  END
$$$$
