
     RDKit          3D

 36 41  0  0  0  0  0  0  0  0999 V2000
  141.4697  -36.3438  268.0936 C   0  0  0  0  0  0  0  0  0  0  0  0
  141.3593  -35.5164  269.2144 C   0  0  0  0  0  0  0  0  0  0  0  0
  140.3893  -35.2938  270.1131 N   0  0  0  0  0  0  0  0  0  0  0  0
  139.1024  -35.9520  270.0946 C   0  0  0  0  0  0  0  0  0  0  0  0
  140.7519  -34.3872  271.0339 C   0  0  0  0  0  0  0  0  0  0  0  0
  142.0299  -33.9855  270.7323 C   0  0  0  0  0  0  0  0  0  0  0  0
  142.4046  -34.6945  269.5940 C   0  0  0  0  0  0  0  0  0  0  0  0
  143.5490  -34.7294  268.8229 C   0  0  0  0  0  0  0  0  0  0  0  0
  143.6526  -35.5491  267.7163 C   0  0  0  0  0  0  0  0  0  0  0  0
  142.6160  -36.3732  267.3282 C   0  0  0  0  0  0  0  0  0  0  0  0
  142.7610  -37.2259  266.1533 C   0  0  0  0  0  0  0  0  0  0  0  0
  142.0582  -38.4107  266.0468 C   0  0  0  0  0  0  0  0  0  0  0  0
  143.6124  -36.8515  265.1252 C   0  0  0  0  0  0  0  0  0  0  0  0
  144.3231  -35.7082  265.1733 N   0  0  0  0  0  0  0  0  0  0  0  0
  145.1574  -35.3147  264.1948 C   0  0  0  0  0  0  0  0  0  0  0  0
  145.2827  -36.1319  263.0919 C   0  0  0  0  0  0  0  0  0  0  0  0
  144.5806  -37.2783  263.0257 N   0  0  0  0  0  0  0  0  0  0  0  0
  143.7482  -37.6570  264.0173 C   0  0  0  0  0  0  0  0  0  0  0  0
  143.0426  -38.8233  263.9354 C   0  0  0  0  0  0  0  0  0  0  0  0
  142.1922  -39.2181  264.9400 C   0  0  0  0  0  0  0  0  0  0  0  0
  141.4151  -40.4286  264.8363 N   0  0  0  0  0  0  0  0  0  0  0  0
  141.6850  -41.3756  263.8314 C   0  0  0  0  0  0  0  0  0  0  0  0
  142.9125  -41.3113  263.1564 C   0  0  0  0  0  0  0  0  0  0  0  0
  143.2724  -42.1424  262.1786 N   0  0  0  0  0  0  0  0  0  0  0  0
  142.4516  -43.1090  261.7837 C   0  0  0  0  0  0  0  0  0  0  0  0
  141.2161  -43.2099  262.4301 C   0  0  0  0  0  0  0  0  0  0  0  0
  140.8152  -42.3699  263.4395 C   0  0  0  0  0  0  0  0  0  0  0  0
  139.4796  -42.5016  264.0667 C   0  0  0  0  0  0  0  0  0  0  0  0
  139.2830  -42.1278  265.2261 O   0  0  0  0  0  0  0  0  0  0  0  0
  138.3834  -43.0556  263.3745 N   0  0  0  0  0  0  0  0  0  0  0  0
  137.1085  -43.3335  263.8969 C   0  0  0  0  0  0  0  0  0  0  0  0
  136.0962  -43.7145  263.0028 C   0  0  0  0  0  0  0  0  0  0  0  0
  134.8455  -44.0008  263.4010 N   0  0  0  0  0  0  0  0  0  0  0  0
  134.4923  -43.9369  264.6922 C   0  0  0  0  0  0  0  0  0  0  0  0
  135.4463  -43.5755  265.5540 N   0  0  0  0  0  0  0  0  0  0  0  0
  136.7216  -43.2759  265.2108 C   0  0  0  0  0  0  0  0  0  0  0  0
  1  2  2  0
  1 10  1  0
  2  3  1  0
  2  7  1  0
  3  4  1  0
  3  5  1  0
  5  6  2  0
  6  7  1  0
  7  8  2  0
  8  9  1  0
  9 10  2  0
 10 11  1  0
 11 12  2  0
 11 13  1  0
 12 20  1  0
 13 14  2  0
 13 18  1  0
 14 15  1  0
 15 16  2  0
 16 17  1  0
 17 18  2  0
 18 19  1  0
 19 20  2  0
 20 21  1  0
 21 22  1  0
 22 23  2  0
 22 27  1  0
 23 24  1  0
 24 25  2  0
 25 26  1  0
 26 27  2  0
 27 28  1  0
 28 29  2  0
 28 30  1  0
 30 31  1  0
 31 32  2  0
 31 36  1  0
 32 33  1  0
 33 34  2  0
 34 35  1  0
 35 36  2  0
M  END
$$$$
