
     RDKit          3D

 36 41  0  0  0  0  0  0  0  0999 V2000
  142.6709  -37.3537  266.2848 C   0  0  0  0  0  0  0  0  0  0  0  0
  143.0674  -36.1503  266.8741 C   0  0  0  0  0  0  0  0  0  0  0  0
  142.7184  -35.5066  267.9976 N   0  0  0  0  0  0  0  0  0  0  0  0
  141.7371  -35.9961  268.9393 C   0  0  0  0  0  0  0  0  0  0  0  0
  143.3870  -34.3525  268.1471 C   0  0  0  0  0  0  0  0  0  0  0  0
  144.2247  -34.2213  267.0670 C   0  0  0  0  0  0  0  0  0  0  0  0
  144.0207  -35.3479  266.2745 C   0  0  0  0  0  0  0  0  0  0  0  0
  144.5562  -35.7864  265.0802 C   0  0  0  0  0  0  0  0  0  0  0  0
  144.1607  -36.9766  264.5022 C   0  0  0  0  0  0  0  0  0  0  0  0
  143.2103  -37.7852  265.0917 C   0  0  0  0  0  0  0  0  0  0  0  0
  142.8170  -39.0362  264.4521 C   0  0  0  0  0  0  0  0  0  0  0  0
  141.4891  -39.3075  264.1838 C   0  0  0  0  0  0  0  0  0  0  0  0
  143.7803  -39.9708  264.1053 C   0  0  0  0  0  0  0  0  0  0  0  0
  145.0898  -39.7615  264.3420 N   0  0  0  0  0  0  0  0  0  0  0  0
  146.0500  -40.6459  264.0190 C   0  0  0  0  0  0  0  0  0  0  0  0
  145.6611  -41.8225  263.4153 C   0  0  0  0  0  0  0  0  0  0  0  0
  144.3572  -42.0496  263.1707 N   0  0  0  0  0  0  0  0  0  0  0  0
  143.4077  -41.1506  263.5018 C   0  0  0  0  0  0  0  0  0  0  0  0
  142.0887  -41.3956  263.2470 C   0  0  0  0  0  0  0  0  0  0  0  0
  141.1137  -40.4865  263.5805 C   0  0  0  0  0  0  0  0  0  0  0  0
  139.7248  -40.7257  263.2744 N   0  0  0  0  0  0  0  0  0  0  0  0
  139.3552  -41.5689  262.2105 C   0  0  0  0  0  0  0  0  0  0  0  0
  140.2686  -41.7784  261.1674 C   0  0  0  0  0  0  0  0  0  0  0  0
  140.0251  -42.5418  260.1024 N   0  0  0  0  0  0  0  0  0  0  0  0
  138.8589  -43.1648  259.9762 C   0  0  0  0  0  0  0  0  0  0  0  0
  137.9178  -42.9839  260.9940 C   0  0  0  0  0  0  0  0  0  0  0  0
  138.1371  -42.2042  262.1027 C   0  0  0  0  0  0  0  0  0  0  0  0
  137.0905  -42.0205  263.1349 C   0  0  0  0  0  0  0  0  0  0  0  0
  136.9466  -40.9370  263.7074 O   0  0  0  0  0  0  0  0  0  0  0  0
  136.2205  -43.0657  263.5072 N   0  0  0  0  0  0  0  0  0  0  0  0
  135.0824  -42.9651  264.3258 C   0  0  0  0  0  0  0  0  0  0  0  0
  135.0743  -41.9841  265.3292 C   0  0  0  0  0  0  0  0  0  0  0  0
  134.0361  -41.8069  266.1633 N   0  0  0  0  0  0  0  0  0  0  0  0
  132.9366  -42.5687  266.0806 C   0  0  0  0  0  0  0  0  0  0  0  0
  132.9312  -43.5064  265.1298 N   0  0  0  0  0  0  0  0  0  0  0  0
  133.9467  -43.7302  264.2624 C   0  0  0  0  0  0  0  0  0  0  0  0
  1  2  2  0
  1 10  1  0
  2  3  1  0
  2  7  1  0
  3  4  1  0
  3  5  1  0
  5  6  2  0
  6  7  1  0
  7  8  2  0
  8  9  1  0
  9 10  2  0
 10 11  1  0
 11 12  2  0
 11 13  1  0
 12 20  1  0
 13 14  2  0
 13 18  1  0
 14 15  1  0
 15 16  2  0
 16 17  1  0
 17 18  2  0
 18 19  1  0
 19 20  2  0
 20 21  1  0
 21 22  1  0
 22 23  2  0
 22 27  1  0
 23 24  1  0
 24 25  2  0
 25 26  1  0
 26 27  2  0
 27 28  1  0
 28 29  2  0
 28 30  1  0
 30 31  1  0
 31 32  2  0
 31 36  1  0
 32 33  1  0
 33 34  2  0
 34 35  1  0
 35 36  2  0
M  END
$$$$
