
     RDKit          3D

 36 41  0  0  0  0  0  0  0  0999 V2000
  142.2083  -36.6582  267.7719 C   0  0  0  0  0  0  0  0  0  0  0  0
  142.1358  -35.5867  268.6659 C   0  0  0  0  0  0  0  0  0  0  0  0
  141.6588  -35.4464  269.9113 N   0  0  0  0  0  0  0  0  0  0  0  0
  141.0478  -36.5150  270.6691 C   0  0  0  0  0  0  0  0  0  0  0  0
  141.8146  -34.1963  270.3742 C   0  0  0  0  0  0  0  0  0  0  0  0
  142.4272  -33.4666  269.3853 C   0  0  0  0  0  0  0  0  0  0  0  0
  142.6257  -34.3407  268.3198 C   0  0  0  0  0  0  0  0  0  0  0  0
  143.1832  -34.2066  267.0642 C   0  0  0  0  0  0  0  0  0  0  0  0
  143.2522  -35.2690  266.1846 C   0  0  0  0  0  0  0  0  0  0  0  0
  142.7666  -36.5167  266.5193 C   0  0  0  0  0  0  0  0  0  0  0  0
  142.8566  -37.6160  265.5643 C   0  0  0  0  0  0  0  0  0  0  0  0
  141.7826  -38.4586  265.3510 C   0  0  0  0  0  0  0  0  0  0  0  0
  144.0303  -37.8262  264.8571 C   0  0  0  0  0  0  0  0  0  0  0  0
  145.1098  -37.0377  265.0231 N   0  0  0  0  0  0  0  0  0  0  0  0
  146.2632  -37.2129  264.3542 C   0  0  0  0  0  0  0  0  0  0  0  0
  146.3311  -38.2560  263.4558 C   0  0  0  0  0  0  0  0  0  0  0  0
  145.2628  -39.0548  263.2762 N   0  0  0  0  0  0  0  0  0  0  0  0
  144.1137  -38.8638  263.9563 C   0  0  0  0  0  0  0  0  0  0  0  0
  143.0383  -39.6829  263.7630 C   0  0  0  0  0  0  0  0  0  0  0  0
  141.8633  -39.4970  264.4509 C   0  0  0  0  0  0  0  0  0  0  0  0
  140.7134  -40.3354  264.2174 N   0  0  0  0  0  0  0  0  0  0  0  0
  140.8307  -41.5358  263.4929 C   0  0  0  0  0  0  0  0  0  0  0  0
  142.0752  -41.8712  262.9405 C   0  0  0  0  0  0  0  0  0  0  0  0
  142.3029  -42.9714  262.2236 N   0  0  0  0  0  0  0  0  0  0  0  0
  141.3215  -43.8356  261.9911 C   0  0  0  0  0  0  0  0  0  0  0  0
  140.0631  -43.5408  262.5239 C   0  0  0  0  0  0  0  0  0  0  0  0
  139.7956  -42.4165  263.2654 C   0  0  0  0  0  0  0  0  0  0  0  0
  138.4338  -42.1370  263.7773 C   0  0  0  0  0  0  0  0  0  0  0  0
  138.2622  -41.6935  264.9159 O   0  0  0  0  0  0  0  0  0  0  0  0
  137.2833  -42.3638  262.9946 N   0  0  0  0  0  0  0  0  0  0  0  0
  135.9588  -42.4716  263.4527 C   0  0  0  0  0  0  0  0  0  0  0  0
  135.6078  -41.7882  264.6270 C   0  0  0  0  0  0  0  0  0  0  0  0
  134.3698  -41.8270  265.1475 N   0  0  0  0  0  0  0  0  0  0  0  0
  133.3896  -42.5309  264.5645 C   0  0  0  0  0  0  0  0  0  0  0  0
  133.7102  -43.1861  263.4460 N   0  0  0  0  0  0  0  0  0  0  0  0
  134.9388  -43.1834  262.8766 C   0  0  0  0  0  0  0  0  0  0  0  0
  1  2  2  0
  1 10  1  0
  2  3  1  0
  2  7  1  0
  3  4  1  0
  3  5  1  0
  5  6  2  0
  6  7  1  0
  7  8  2  0
  8  9  1  0
  9 10  2  0
 10 11  1  0
 11 12  2  0
 11 13  1  0
 12 20  1  0
 13 14  2  0
 13 18  1  0
 14 15  1  0
 15 16  2  0
 16 17  1  0
 17 18  2  0
 18 19  1  0
 19 20  2  0
 20 21  1  0
 21 22  1  0
 22 23  2  0
 22 27  1  0
 23 24  1  0
 24 25  2  0
 25 26  1  0
 26 27  2  0
 27 28  1  0
 28 29  2  0
 28 30  1  0
 30 31  1  0
 31 32  2  0
 31 36  1  0
 32 33  1  0
 33 34  2  0
 34 35  1  0
 35 36  2  0
M  END
$$$$
