
     RDKit          3D

 36 41  0  0  0  0  0  0  0  0999 V2000
  142.7534  -37.3817  266.7179 C   0  0  0  0  0  0  0  0  0  0  0  0
  143.0775  -36.1546  267.3028 C   0  0  0  0  0  0  0  0  0  0  0  0
  142.6940  -35.5305  268.4260 N   0  0  0  0  0  0  0  0  0  0  0  0
  141.7481  -36.0769  269.3728 C   0  0  0  0  0  0  0  0  0  0  0  0
  143.2910  -34.3372  268.5701 C   0  0  0  0  0  0  0  0  0  0  0  0
  144.1149  -34.1577  267.4863 C   0  0  0  0  0  0  0  0  0  0  0  0
  143.9775  -35.2968  266.6974 C   0  0  0  0  0  0  0  0  0  0  0  0
  144.5343  -35.7048  265.5020 C   0  0  0  0  0  0  0  0  0  0  0  0
  144.2104  -36.9186  264.9285 C   0  0  0  0  0  0  0  0  0  0  0  0
  143.3137  -37.7825  265.5237 C   0  0  0  0  0  0  0  0  0  0  0  0
  142.9955  -39.0569  264.8887 C   0  0  0  0  0  0  0  0  0  0  0  0
  141.6955  -39.3696  264.5406 C   0  0  0  0  0  0  0  0  0  0  0  0
  144.0032  -39.9723  264.6272 C   0  0  0  0  0  0  0  0  0  0  0  0
  145.2884  -39.7228  264.9442 N   0  0  0  0  0  0  0  0  0  0  0  0
  146.2901  -40.5876  264.7050 C   0  0  0  0  0  0  0  0  0  0  0  0
  145.9721  -41.7868  264.1044 C   0  0  0  0  0  0  0  0  0  0  0  0
  144.6934  -42.0542  263.7804 N   0  0  0  0  0  0  0  0  0  0  0  0
  143.7014  -41.1743  264.0280 C   0  0  0  0  0  0  0  0  0  0  0  0
  142.4088  -41.4602  263.6932 C   0  0  0  0  0  0  0  0  0  0  0  0
  141.3910  -40.5709  263.9413 C   0  0  0  0  0  0  0  0  0  0  0  0
  140.0318  -40.8540  263.5507 N   0  0  0  0  0  0  0  0  0  0  0  0
  139.4208  -42.0734  263.8959 C   0  0  0  0  0  0  0  0  0  0  0  0
  140.2206  -43.1100  264.3981 C   0  0  0  0  0  0  0  0  0  0  0  0
  139.7576  -44.3110  264.7437 N   0  0  0  0  0  0  0  0  0  0  0  0
  138.4649  -44.5916  264.6239 C   0  0  0  0  0  0  0  0  0  0  0  0
  137.6303  -43.5862  264.1271 C   0  0  0  0  0  0  0  0  0  0  0  0
  138.0755  -42.3398  263.7617 C   0  0  0  0  0  0  0  0  0  0  0  0
  137.1511  -41.3229  263.2086 C   0  0  0  0  0  0  0  0  0  0  0  0
  137.5803  -40.2785  262.7112 O   0  0  0  0  0  0  0  0  0  0  0  0
  135.7525  -41.5000  263.2266 N   0  0  0  0  0  0  0  0  0  0  0  0
  134.7817  -40.5994  262.7554 C   0  0  0  0  0  0  0  0  0  0  0  0
  135.2202  -39.4136  262.1463 C   0  0  0  0  0  0  0  0  0  0  0  0
  134.3735  -38.4888  261.6639 N   0  0  0  0  0  0  0  0  0  0  0  0
  133.0454  -38.6515  261.7396 C   0  0  0  0  0  0  0  0  0  0  0  0
  132.6145  -39.7759  262.3170 N   0  0  0  0  0  0  0  0  0  0  0  0
  133.4198  -40.7413  262.8202 C   0  0  0  0  0  0  0  0  0  0  0  0
  1  2  2  0
  1 10  1  0
  2  3  1  0
  2  7  1  0
  3  4  1  0
  3  5  1  0
  5  6  2  0
  6  7  1  0
  7  8  2  0
  8  9  1  0
  9 10  2  0
 10 11  1  0
 11 12  2  0
 11 13  1  0
 12 20  1  0
 13 14  2  0
 13 18  1  0
 14 15  1  0
 15 16  2  0
 16 17  1  0
 17 18  2  0
 18 19  1  0
 19 20  2  0
 20 21  1  0
 21 22  1  0
 22 23  2  0
 22 27  1  0
 23 24  1  0
 24 25  2  0
 25 26  1  0
 26 27  2  0
 27 28  1  0
 28 29  2  0
 28 30  1  0
 30 31  1  0
 31 32  2  0
 31 36  1  0
 32 33  1  0
 33 34  2  0
 34 35  1  0
 35 36  2  0
M  END
$$$$
