
     RDKit          3D

 36 41  0  0  0  0  0  0  0  0999 V2000
  142.7782  -37.0698  266.3442 C   0  0  0  0  0  0  0  0  0  0  0  0
  143.1554  -35.8795  266.9716 C   0  0  0  0  0  0  0  0  0  0  0  0
  142.7463  -35.2423  268.0784 N   0  0  0  0  0  0  0  0  0  0  0  0
  141.6999  -35.7259  268.9505 C   0  0  0  0  0  0  0  0  0  0  0  0
  143.4223  -34.1011  268.2834 C   0  0  0  0  0  0  0  0  0  0  0  0
  144.3284  -33.9720  267.2597 C   0  0  0  0  0  0  0  0  0  0  0  0
  144.1572  -35.0864  266.4427 C   0  0  0  0  0  0  0  0  0  0  0  0
  144.7602  -35.5208  265.2794 C   0  0  0  0  0  0  0  0  0  0  0  0
  144.3833  -36.6980  264.6636 C   0  0  0  0  0  0  0  0  0  0  0  0
  143.3850  -37.4972  265.1824 C   0  0  0  0  0  0  0  0  0  0  0  0
  143.0132  -38.7345  264.5046 C   0  0  0  0  0  0  0  0  0  0  0  0
  141.6983  -38.9884  264.1648 C   0  0  0  0  0  0  0  0  0  0  0  0
  143.9843  -39.6736  264.1932 C   0  0  0  0  0  0  0  0  0  0  0  0
  145.2818  -39.4811  264.4996 N   0  0  0  0  0  0  0  0  0  0  0  0
  146.2490  -40.3703  264.2125 C   0  0  0  0  0  0  0  0  0  0  0  0
  145.8806  -41.5338  263.5719 C   0  0  0  0  0  0  0  0  0  0  0  0
  144.5888  -41.7440  263.2575 N   0  0  0  0  0  0  0  0  0  0  0  0
  143.6320  -40.8405  263.5535 C   0  0  0  0  0  0  0  0  0  0  0  0
  142.3256  -41.0684  263.2280 C   0  0  0  0  0  0  0  0  0  0  0  0
  141.3433  -40.1545  263.5252 C   0  0  0  0  0  0  0  0  0  0  0  0
  139.9697  -40.3751  263.1450 N   0  0  0  0  0  0  0  0  0  0  0  0
  139.6293  -41.3790  262.2198 C   0  0  0  0  0  0  0  0  0  0  0  0
  140.6267  -41.8799  261.3708 C   0  0  0  0  0  0  0  0  0  0  0  0
  140.4201  -42.8178  260.4468 N   0  0  0  0  0  0  0  0  0  0  0  0
  139.2112  -43.3427  260.2822 C   0  0  0  0  0  0  0  0  0  0  0  0
  138.1862  -42.8723  261.1083 C   0  0  0  0  0  0  0  0  0  0  0  0
  138.3657  -41.9073  262.0684 C   0  0  0  0  0  0  0  0  0  0  0  0
  137.2352  -41.4215  262.8935 C   0  0  0  0  0  0  0  0  0  0  0  0
  137.0163  -40.2141  263.0225 O   0  0  0  0  0  0  0  0  0  0  0  0
  136.3674  -42.3082  263.5631 N   0  0  0  0  0  0  0  0  0  0  0  0
  135.1407  -41.9901  264.1712 C   0  0  0  0  0  0  0  0  0  0  0  0
  135.1214  -40.9553  265.1190 C   0  0  0  0  0  0  0  0  0  0  0  0
  134.0015  -40.5753  265.7564 N   0  0  0  0  0  0  0  0  0  0  0  0
  132.8258  -41.1727  265.5178 C   0  0  0  0  0  0  0  0  0  0  0  0
  132.8301  -42.1593  264.6179 N   0  0  0  0  0  0  0  0  0  0  0  0
  133.9262  -42.5843  263.9457 C   0  0  0  0  0  0  0  0  0  0  0  0
  1  2  2  0
  1 10  1  0
  2  3  1  0
  2  7  1  0
  3  4  1  0
  3  5  1  0
  5  6  2  0
  6  7  1  0
  7  8  2  0
  8  9  1  0
  9 10  2  0
 10 11  1  0
 11 12  2  0
 11 13  1  0
 12 20  1  0
 13 14  2  0
 13 18  1  0
 14 15  1  0
 15 16  2  0
 16 17  1  0
 17 18  2  0
 18 19  1  0
 19 20  2  0
 20 21  1  0
 21 22  1  0
 22 23  2  0
 22 27  1  0
 23 24  1  0
 24 25  2  0
 25 26  1  0
 26 27  2  0
 27 28  1  0
 28 29  2  0
 28 30  1  0
 30 31  1  0
 31 32  2  0
 31 36  1  0
 32 33  1  0
 33 34  2  0
 34 35  1  0
 35 36  2  0
M  END
$$$$
