
     RDKit          3D

 36 41  0  0  0  0  0  0  0  0999 V2000
  143.8302  -36.2641  265.4137 C   0  0  0  0  0  0  0  0  0  0  0  0
  144.0501  -35.1093  266.1692 C   0  0  0  0  0  0  0  0  0  0  0  0
  144.7541  -33.9862  265.9662 N   0  0  0  0  0  0  0  0  0  0  0  0
  145.5220  -33.7172  264.7714 C   0  0  0  0  0  0  0  0  0  0  0  0
  144.6634  -33.1386  267.0029 C   0  0  0  0  0  0  0  0  0  0  0  0
  143.8570  -33.7284  267.9449 C   0  0  0  0  0  0  0  0  0  0  0  0
  143.4764  -34.9600  267.4185 C   0  0  0  0  0  0  0  0  0  0  0  0
  142.6855  -35.9934  267.8791 C   0  0  0  0  0  0  0  0  0  0  0  0
  142.4716  -37.1325  267.1282 C   0  0  0  0  0  0  0  0  0  0  0  0
  143.0390  -37.2922  265.8803 C   0  0  0  0  0  0  0  0  0  0  0  0
  142.7909  -38.5094  265.1153 C   0  0  0  0  0  0  0  0  0  0  0  0
  141.5105  -38.8525  264.7256 C   0  0  0  0  0  0  0  0  0  0  0  0
  143.8466  -39.3389  264.7699 C   0  0  0  0  0  0  0  0  0  0  0  0
  145.1157  -39.0563  265.1219 N   0  0  0  0  0  0  0  0  0  0  0  0
  146.1627  -39.8381  264.8039 C   0  0  0  0  0  0  0  0  0  0  0  0
  145.9107  -40.9842  264.0807 C   0  0  0  0  0  0  0  0  0  0  0  0
  144.6490  -41.2835  263.7199 N   0  0  0  0  0  0  0  0  0  0  0  0
  143.6110  -40.4870  264.0480 C   0  0  0  0  0  0  0  0  0  0  0  0
  142.3364  -40.8044  263.6744 C   0  0  0  0  0  0  0  0  0  0  0  0
  141.2720  -40.0000  264.0037 C   0  0  0  0  0  0  0  0  0  0  0  0
  139.9311  -40.3123  263.5743 N   0  0  0  0  0  0  0  0  0  0  0  0
  139.6798  -41.4148  262.7372 C   0  0  0  0  0  0  0  0  0  0  0  0
  140.7423  -41.9589  262.0013 C   0  0  0  0  0  0  0  0  0  0  0  0
  140.6223  -42.9907  261.1664 N   0  0  0  0  0  0  0  0  0  0  0  0
  139.4430  -43.5747  260.9867 C   0  0  0  0  0  0  0  0  0  0  0  0
  138.3553  -43.0643  261.7014 C   0  0  0  0  0  0  0  0  0  0  0  0
  138.4452  -42.0031  262.5679 C   0  0  0  0  0  0  0  0  0  0  0  0
  137.2519  -41.4815  263.2739 C   0  0  0  0  0  0  0  0  0  0  0  0
  137.3615  -40.6394  264.1692 O   0  0  0  0  0  0  0  0  0  0  0  0
  135.9495  -41.9201  262.9588 N   0  0  0  0  0  0  0  0  0  0  0  0
  134.7624  -41.5956  263.6378 C   0  0  0  0  0  0  0  0  0  0  0  0
  133.5471  -42.0380  263.0930 C   0  0  0  0  0  0  0  0  0  0  0  0
  132.3587  -41.7805  263.6641 N   0  0  0  0  0  0  0  0  0  0  0  0
  132.2688  -41.0771  264.8013 C   0  0  0  0  0  0  0  0  0  0  0  0
  133.4181  -40.6500  265.3306 N   0  0  0  0  0  0  0  0  0  0  0  0
  134.6428  -40.8790  264.8001 C   0  0  0  0  0  0  0  0  0  0  0  0
  1  2  2  0
  1 10  1  0
  2  3  1  0
  2  7  1  0
  3  4  1  0
  3  5  1  0
  5  6  2  0
  6  7  1  0
  7  8  2  0
  8  9  1  0
  9 10  2  0
 10 11  1  0
 11 12  2  0
 11 13  1  0
 12 20  1  0
 13 14  2  0
 13 18  1  0
 14 15  1  0
 15 16  2  0
 16 17  1  0
 17 18  2  0
 18 19  1  0
 19 20  2  0
 20 21  1  0
 21 22  1  0
 22 23  2  0
 22 27  1  0
 23 24  1  0
 24 25  2  0
 25 26  1  0
 26 27  2  0
 27 28  1  0
 28 29  2  0
 28 30  1  0
 30 31  1  0
 31 32  2  0
 31 36  1  0
 32 33  1  0
 33 34  2  0
 34 35  1  0
 35 36  2  0
M  END
$$$$
