
     RDKit          3D

 36 41  0  0  0  0  0  0  0  0999 V2000
  141.6385  -36.2860  268.2862 C   0  0  0  0  0  0  0  0  0  0  0  0
  141.4552  -35.4458  269.3877 C   0  0  0  0  0  0  0  0  0  0  0  0
  140.5445  -35.3873  270.3703 N   0  0  0  0  0  0  0  0  0  0  0  0
  139.4312  -36.3004  270.4974 C   0  0  0  0  0  0  0  0  0  0  0  0
  140.7866  -34.3805  271.2242 C   0  0  0  0  0  0  0  0  0  0  0  0
  141.9173  -33.7354  270.7872 C   0  0  0  0  0  0  0  0  0  0  0  0
  142.3310  -34.4055  269.6389 C   0  0  0  0  0  0  0  0  0  0  0  0
  143.3827  -34.2380  268.7607 C   0  0  0  0  0  0  0  0  0  0  0  0
  143.5591  -35.0713  267.6737 C   0  0  0  0  0  0  0  0  0  0  0  0
  142.6914  -36.1124  267.4133 C   0  0  0  0  0  0  0  0  0  0  0  0
  142.9090  -36.9728  266.2552 C   0  0  0  0  0  0  0  0  0  0  0  0
  142.2807  -38.1993  266.1560 C   0  0  0  0  0  0  0  0  0  0  0  0
  143.7550  -36.5633  265.2362 C   0  0  0  0  0  0  0  0  0  0  0  0
  144.3948  -35.3786  265.2779 N   0  0  0  0  0  0  0  0  0  0  0  0
  145.2218  -34.9505  264.3076 C   0  0  0  0  0  0  0  0  0  0  0  0
  145.4161  -35.7755  263.2207 C   0  0  0  0  0  0  0  0  0  0  0  0
  144.7856  -36.9631  263.1612 N   0  0  0  0  0  0  0  0  0  0  0  0
  143.9593  -37.3761  264.1441 C   0  0  0  0  0  0  0  0  0  0  0  0
  143.3268  -38.5840  264.0692 C   0  0  0  0  0  0  0  0  0  0  0  0
  142.4833  -39.0140  265.0652 C   0  0  0  0  0  0  0  0  0  0  0  0
  141.7824  -40.2707  264.9678 N   0  0  0  0  0  0  0  0  0  0  0  0
  142.2259  -41.2783  264.0918 C   0  0  0  0  0  0  0  0  0  0  0  0
  143.5664  -41.2722  263.6802 C   0  0  0  0  0  0  0  0  0  0  0  0
  144.0955  -42.1640  262.8430 N   0  0  0  0  0  0  0  0  0  0  0  0
  143.3466  -43.1392  262.3406 C   0  0  0  0  0  0  0  0  0  0  0  0
  142.0032  -43.1835  262.7246 C   0  0  0  0  0  0  0  0  0  0  0  0
  141.4278  -42.2803  263.5839 C   0  0  0  0  0  0  0  0  0  0  0  0
  139.9893  -42.3548  263.9302 C   0  0  0  0  0  0  0  0  0  0  0  0
  139.6182  -42.3443  265.1069 O   0  0  0  0  0  0  0  0  0  0  0  0
  138.9888  -42.4414  262.9406 N   0  0  0  0  0  0  0  0  0  0  0  0
  137.6239  -42.7098  263.1417 C   0  0  0  0  0  0  0  0  0  0  0  0
  137.1194  -42.6273  264.4487 C   0  0  0  0  0  0  0  0  0  0  0  0
  135.8311  -42.8652  264.7462 N   0  0  0  0  0  0  0  0  0  0  0  0
  134.9458  -43.1988  263.7970 C   0  0  0  0  0  0  0  0  0  0  0  0
  135.4127  -43.2808  262.5485 N   0  0  0  0  0  0  0  0  0  0  0  0
  136.6985  -43.0525  262.1902 C   0  0  0  0  0  0  0  0  0  0  0  0
  1  2  2  0
  1 10  1  0
  2  3  1  0
  2  7  1  0
  3  4  1  0
  3  5  1  0
  5  6  2  0
  6  7  1  0
  7  8  2  0
  8  9  1  0
  9 10  2  0
 10 11  1  0
 11 12  2  0
 11 13  1  0
 12 20  1  0
 13 14  2  0
 13 18  1  0
 14 15  1  0
 15 16  2  0
 16 17  1  0
 17 18  2  0
 18 19  1  0
 19 20  2  0
 20 21  1  0
 21 22  1  0
 22 23  2  0
 22 27  1  0
 23 24  1  0
 24 25  2  0
 25 26  1  0
 26 27  2  0
 27 28  1  0
 28 29  2  0
 28 30  1  0
 30 31  1  0
 31 32  2  0
 31 36  1  0
 32 33  1  0
 33 34  2  0
 34 35  1  0
 35 36  2  0
M  END
$$$$
