
     RDKit          3D

 36 41  0  0  0  0  0  0  0  0999 V2000
  142.5350  -37.1970  266.2542 C   0  0  0  0  0  0  0  0  0  0  0  0
  142.8486  -35.9519  266.8056 C   0  0  0  0  0  0  0  0  0  0  0  0
  142.3957  -35.2637  267.8638 N   0  0  0  0  0  0  0  0  0  0  0  0
  141.3611  -35.7377  268.7550 C   0  0  0  0  0  0  0  0  0  0  0  0
  143.0155  -34.0811  268.0001 C   0  0  0  0  0  0  0  0  0  0  0  0
  143.9284  -33.9768  266.9796 C   0  0  0  0  0  0  0  0  0  0  0  0
  143.8197  -35.1490  266.2361 C   0  0  0  0  0  0  0  0  0  0  0  0
  144.4576  -35.6296  265.1102 C   0  0  0  0  0  0  0  0  0  0  0  0
  144.1437  -36.8610  264.5694 C   0  0  0  0  0  0  0  0  0  0  0  0
  143.1764  -37.6705  265.1294 C   0  0  0  0  0  0  0  0  0  0  0  0
  142.8712  -38.9655  264.5308 C   0  0  0  0  0  0  0  0  0  0  0  0
  141.5708  -39.3130  264.2193 C   0  0  0  0  0  0  0  0  0  0  0  0
  143.8920  -39.8658  264.2672 C   0  0  0  0  0  0  0  0  0  0  0  0
  145.1784  -39.5825  264.5493 N   0  0  0  0  0  0  0  0  0  0  0  0
  146.1925  -40.4318  264.3070 C   0  0  0  0  0  0  0  0  0  0  0  0
  145.8867  -41.6508  263.7411 C   0  0  0  0  0  0  0  0  0  0  0  0
  144.6071  -41.9519  263.4522 N   0  0  0  0  0  0  0  0  0  0  0  0
  143.6025  -41.0872  263.7023 C   0  0  0  0  0  0  0  0  0  0  0  0
  142.3091  -41.4074  263.4034 C   0  0  0  0  0  0  0  0  0  0  0  0
  141.2784  -40.5338  263.6543 C   0  0  0  0  0  0  0  0  0  0  0  0
  139.9173  -40.8537  263.3010 N   0  0  0  0  0  0  0  0  0  0  0  0
  139.6319  -41.6541  262.1796 C   0  0  0  0  0  0  0  0  0  0  0  0
  140.5118  -41.6241  261.0882 C   0  0  0  0  0  0  0  0  0  0  0  0
  140.3380  -42.3253  259.9682 N   0  0  0  0  0  0  0  0  0  0  0  0
  139.2807  -43.1172  259.8299 C   0  0  0  0  0  0  0  0  0  0  0  0
  138.3768  -43.1777  260.8946 C   0  0  0  0  0  0  0  0  0  0  0  0
  138.5265  -42.4681  262.0605 C   0  0  0  0  0  0  0  0  0  0  0  0
  137.5188  -42.5443  263.1437 C   0  0  0  0  0  0  0  0  0  0  0  0
  137.8571  -42.5026  264.3296 O   0  0  0  0  0  0  0  0  0  0  0  0
  136.1410  -42.6680  262.8714 N   0  0  0  0  0  0  0  0  0  0  0  0
  135.1180  -42.9321  263.7984 C   0  0  0  0  0  0  0  0  0  0  0  0
  135.4501  -42.9523  265.1617 C   0  0  0  0  0  0  0  0  0  0  0  0
  134.5466  -43.1953  266.1258 N   0  0  0  0  0  0  0  0  0  0  0  0
  133.2609  -43.4349  265.8329 C   0  0  0  0  0  0  0  0  0  0  0  0
  132.9312  -43.4187  264.5389 N   0  0  0  0  0  0  0  0  0  0  0  0
  133.7976  -43.1800  263.5259 C   0  0  0  0  0  0  0  0  0  0  0  0
  1  2  2  0
  1 10  1  0
  2  3  1  0
  2  7  1  0
  3  4  1  0
  3  5  1  0
  5  6  2  0
  6  7  1  0
  7  8  2  0
  8  9  1  0
  9 10  2  0
 10 11  1  0
 11 12  2  0
 11 13  1  0
 12 20  1  0
 13 14  2  0
 13 18  1  0
 14 15  1  0
 15 16  2  0
 16 17  1  0
 17 18  2  0
 18 19  1  0
 19 20  2  0
 20 21  1  0
 21 22  1  0
 22 23  2  0
 22 27  1  0
 23 24  1  0
 24 25  2  0
 25 26  1  0
 26 27  2  0
 27 28  1  0
 28 29  2  0
 28 30  1  0
 30 31  1  0
 31 32  2  0
 31 36  1  0
 32 33  1  0
 33 34  2  0
 34 35  1  0
 35 36  2  0
M  END
$$$$
