
     RDKit          3D

 21 23  0  0  0  0  0  0  0  0999 V2000
   -5.6736   -3.7097   31.7613 C   0  0  0  0  0  0  0  0  0  0  0  0
   -3.2561    0.8266   28.1495 C   0  0  1  0  0  0  0  0  0  0  0  0
   -3.9915   -0.3625   28.5606 C   0  0  0  0  0  0  0  0  0  0  0  0
   -2.7858    0.6784   26.6636 C   0  0  0  0  0  0  0  0  0  0  0  0
   -3.9574    0.4025   25.7846 C   0  0  0  0  0  0  0  0  0  0  0  0
   -5.1424    1.2464   25.9918 C   0  0  0  0  0  0  0  0  0  0  0  0
   -5.1028    2.2195   27.1168 C   0  0  0  0  0  0  0  0  0  0  0  0
   -4.0016    2.1178   28.0912 C   0  0  0  0  0  0  0  0  0  0  0  0
   -3.3789   -1.5506   28.9969 N   0  0  0  0  0  0  0  0  0  0  0  0
   -2.9064   -1.9356   30.2471 C   0  0  0  0  0  0  0  0  0  0  0  0
   -1.8032   -1.4904   30.6243 O   0  0  0  0  0  0  0  0  0  0  0  0
   -3.6461   -2.8512   31.1604 C   0  0  0  0  0  0  0  0  0  0  0  0
   -4.9281   -2.9388   31.0156 O   0  0  0  0  0  0  0  0  0  0  0  0
   -7.0596   -3.7715   31.5668 C   0  0  0  0  0  0  0  0  0  0  0  0
   -7.8096   -4.5977   32.3754 C   0  0  0  0  0  0  0  0  0  0  0  0
   -7.2255   -5.3599   33.3659 C   0  0  0  0  0  0  0  0  0  0  0  0
   -5.8617   -5.2992   33.5574 C   0  0  0  0  0  0  0  0  0  0  0  0
   -5.0968   -4.4753   32.7544 C   0  0  0  0  0  0  0  0  0  0  0  0
   -3.7388   -4.4150   32.9453 C   0  0  0  0  0  0  0  0  0  0  0  0
   -3.1538   -5.1022   33.8496 O   0  0  0  0  0  0  0  0  0  0  0  0
   -3.0081   -3.5779   32.1205 C   0  0  0  0  0  0  0  0  0  0  0  0
 13  1  1  0
  1 14  2  0
  1 18  1  0
  2  3  1  6
  2  4  1  0
  2  8  1  0
  9  3  1  0
  4  5  1  0
  5  6  1  0
  7  6  1  0
  8  7  1  0
 10  9  1  0
 10 11  2  0
 12 10  1  0
 12 13  1  0
 12 21  2  0
 14 15  1  0
 15 16  2  0
 16 17  1  0
 17 18  2  0
 18 19  1  0
 19 20  2  0
 19 21  1  0
M  END
$$$$
