
     RDKit          3D

 21 23  0  0  0  0  0  0  0  0999 V2000
   -5.8463   -3.0880   32.3871 C   0  0  0  0  0  0  0  0  0  0  0  0
   -4.2030    0.7849   27.4654 C   0  0  1  0  0  0  0  0  0  0  0  0
   -3.8162   -0.5615   27.8670 C   0  0  0  0  0  0  0  0  0  0  0  0
   -3.7603    1.8170   28.5562 C   0  0  0  0  0  0  0  0  0  0  0  0
   -2.2957    1.6969   28.8052 C   0  0  0  0  0  0  0  0  0  0  0  0
   -1.4349    1.6244   27.6166 C   0  0  0  0  0  0  0  0  0  0  0  0
   -2.1033    1.5737   26.2882 C   0  0  0  0  0  0  0  0  0  0  0  0
   -3.5606    1.3567   26.2462 C   0  0  0  0  0  0  0  0  0  0  0  0
   -4.4342   -1.2763   28.9084 N   0  0  0  0  0  0  0  0  0  0  0  0
   -5.4883   -2.1836   28.9012 C   0  0  0  0  0  0  0  0  0  0  0  0
   -6.0726   -2.4015   27.8202 O   0  0  0  0  0  0  0  0  0  0  0  0
   -5.9578   -2.9096   30.1146 C   0  0  0  0  0  0  0  0  0  0  0  0
   -5.5017   -2.5229   31.2611 O   0  0  0  0  0  0  0  0  0  0  0  0
   -5.3255   -2.6338   33.6057 C   0  0  0  0  0  0  0  0  0  0  0  0
   -5.7150   -3.2580   34.7708 C   0  0  0  0  0  0  0  0  0  0  0  0
   -6.6021   -4.3144   34.7601 C   0  0  0  0  0  0  0  0  0  0  0  0
   -7.1148   -4.7616   33.5611 C   0  0  0  0  0  0  0  0  0  0  0  0
   -6.7334   -4.1455   32.3848 C   0  0  0  0  0  0  0  0  0  0  0  0
   -7.2440   -4.5909   31.1910 C   0  0  0  0  0  0  0  0  0  0  0  0
   -8.0680   -5.5654   31.1317 O   0  0  0  0  0  0  0  0  0  0  0  0
   -6.8372   -3.9475   30.0353 C   0  0  0  0  0  0  0  0  0  0  0  0
 13  1  1  0
  1 14  2  0
  1 18  1  0
  2  3  1  1
  2  4  1  0
  2  8  1  0
  9  3  1  0
  4  5  1  0
  5  6  1  0
  7  6  1  0
  8  7  1  0
 10  9  1  0
 10 11  2  0
 12 10  1  0
 12 13  1  0
 12 21  2  0
 14 15  1  0
 15 16  2  0
 16 17  1  0
 17 18  2  0
 18 19  1  0
 19 20  2  0
 19 21  1  0
M  END
$$$$
