
     RDKit          3D

 21 23  0  0  0  0  0  0  0  0999 V2000
   -5.3901   -3.1638   32.1465 C   0  0  0  0  0  0  0  0  0  0  0  0
   -4.0628    0.5927   28.0856 C   0  0  1  0  0  0  0  0  0  0  0  0
   -3.9197   -0.6869   28.7682 C   0  0  0  0  0  0  0  0  0  0  0  0
   -3.1152    1.6556   28.7363 C   0  0  0  0  0  0  0  0  0  0  0  0
   -1.7100    1.1591   28.7243 C   0  0  0  0  0  0  0  0  0  0  0  0
   -1.2342    0.5757   27.4623 C   0  0  0  0  0  0  0  0  0  0  0  0
   -2.2191    0.4406   26.3552 C   0  0  0  0  0  0  0  0  0  0  0  0
   -3.6443    0.6668   26.6554 C   0  0  0  0  0  0  0  0  0  0  0  0
   -4.4295   -1.9002   28.2730 N   0  0  0  0  0  0  0  0  0  0  0  0
   -5.5916   -2.6013   28.5771 C   0  0  0  0  0  0  0  0  0  0  0  0
   -6.4491   -2.7403   27.6810 O   0  0  0  0  0  0  0  0  0  0  0  0
   -5.8681   -3.1955   29.9151 C   0  0  0  0  0  0  0  0  0  0  0  0
   -5.2251   -2.7176   30.9301 O   0  0  0  0  0  0  0  0  0  0  0  0
   -4.6703   -2.6142   33.2152 C   0  0  0  0  0  0  0  0  0  0  0  0
   -4.8743   -3.1141   34.4830 C   0  0  0  0  0  0  0  0  0  0  0  0
   -5.7678   -4.1385   34.7182 C   0  0  0  0  0  0  0  0  0  0  0  0
   -6.4762   -4.6796   33.6667 C   0  0  0  0  0  0  0  0  0  0  0  0
   -6.2822   -4.1886   32.3900 C   0  0  0  0  0  0  0  0  0  0  0  0
   -6.9877   -4.7275   31.3430 C   0  0  0  0  0  0  0  0  0  0  0  0
   -7.8256   -5.6769   31.5124 O   0  0  0  0  0  0  0  0  0  0  0  0
   -6.7649   -4.2081   30.0799 C   0  0  0  0  0  0  0  0  0  0  0  0
 13  1  1  0
  1 14  2  0
  1 18  1  0
  2  3  1  1
  2  4  1  0
  2  8  1  0
  9  3  1  0
  4  5  1  0
  5  6  1  0
  7  6  1  0
  8  7  1  0
 10  9  1  0
 10 11  2  0
 12 10  1  0
 12 13  1  0
 12 21  2  0
 14 15  1  0
 15 16  2  0
 16 17  1  0
 17 18  2  0
 18 19  1  0
 19 20  2  0
 19 21  1  0
M  END
$$$$
