
     RDKit          3D

 21 23  0  0  0  0  0  0  0  0999 V2000
   14.5337  -24.5956   31.3378 C   0  0  0  0  0  0  0  0  0  0  0  0
   12.1964  -27.9045   28.8110 C   0  0  1  0  0  0  0  0  0  0  0  0
   13.1870  -27.6018   27.7859 C   0  0  0  0  0  0  0  0  0  0  0  0
   11.0099  -26.8866   28.7263 C   0  0  0  0  0  0  0  0  0  0  0  0
   10.4288  -26.8960   27.3538 C   0  0  0  0  0  0  0  0  0  0  0  0
   10.1728  -28.2165   26.7621 C   0  0  0  0  0  0  0  0  0  0  0  0
   10.6079  -29.4105   27.5360 C   0  0  0  0  0  0  0  0  0  0  0  0
   11.4714  -29.2049   28.7126 C   0  0  0  0  0  0  0  0  0  0  0  0
   13.7168  -26.3184   27.5633 N   0  0  0  0  0  0  0  0  0  0  0  0
   14.9314  -25.7490   27.9306 C   0  0  0  0  0  0  0  0  0  0  0  0
   15.9209  -25.9428   27.1952 O   0  0  0  0  0  0  0  0  0  0  0  0
   15.1151  -24.9200   29.1548 C   0  0  0  0  0  0  0  0  0  0  0  0
   14.4483  -25.2520   30.2118 O   0  0  0  0  0  0  0  0  0  0  0  0
   13.7912  -24.9933   32.4572 C   0  0  0  0  0  0  0  0  0  0  0  0
   13.9104  -24.2731   33.6259 C   0  0  0  0  0  0  0  0  0  0  0  0
   14.7413  -23.1754   33.7140 C   0  0  0  0  0  0  0  0  0  0  0  0
   15.4720  -22.7838   32.6126 C   0  0  0  0  0  0  0  0  0  0  0  0
   15.3627  -23.4962   31.4339 C   0  0  0  0  0  0  0  0  0  0  0  0
   16.0904  -23.1061   30.3373 C   0  0  0  0  0  0  0  0  0  0  0  0
   16.8726  -22.0965   30.3714 O   0  0  0  0  0  0  0  0  0  0  0  0
   15.9532  -23.8457   29.1758 C   0  0  0  0  0  0  0  0  0  0  0  0
 13  1  1  0
  1 14  2  0
  1 18  1  0
  2  3  1  6
  2  4  1  0
  2  8  1  0
  9  3  1  0
  4  5  1  0
  5  6  1  0
  7  6  1  0
  8  7  1  0
 10  9  1  0
 10 11  2  0
 12 10  1  0
 12 13  1  0
 12 21  2  0
 14 15  1  0
 15 16  2  0
 16 17  1  0
 17 18  2  0
 18 19  1  0
 19 20  2  0
 19 21  1  0
M  END
$$$$
