
     RDKit          3D

 21 23  0  0  0  0  0  0  0  0999 V2000
   14.4082  -24.4992   31.9089 C   0  0  0  0  0  0  0  0  0  0  0  0
   11.9992  -27.4861   26.7206 C   0  0  1  0  0  0  0  0  0  0  0  0
   12.8437  -27.9110   27.8296 C   0  0  0  0  0  0  0  0  0  0  0  0
   11.7135  -28.6971   25.7704 C   0  0  0  0  0  0  0  0  0  0  0  0
   11.1126  -29.8201   26.5445 C   0  0  0  0  0  0  0  0  0  0  0  0
   10.0236  -29.4687   27.4664 C   0  0  0  0  0  0  0  0  0  0  0  0
    9.6928  -28.0260   27.6184 C   0  0  0  0  0  0  0  0  0  0  0  0
   10.6137  -27.0323   27.0379 C   0  0  0  0  0  0  0  0  0  0  0  0
   13.4390  -27.0252   28.7451 N   0  0  0  0  0  0  0  0  0  0  0  0
   14.1215  -25.8283   28.5549 C   0  0  0  0  0  0  0  0  0  0  0  0
   14.4708  -25.5254   27.3958 O   0  0  0  0  0  0  0  0  0  0  0  0
   14.4583  -24.8882   29.6606 C   0  0  0  0  0  0  0  0  0  0  0  0
   14.1582  -25.2456   30.8666 O   0  0  0  0  0  0  0  0  0  0  0  0
   14.0644  -24.9292   33.1971 C   0  0  0  0  0  0  0  0  0  0  0  0
   14.3457  -24.1111   34.2697 C   0  0  0  0  0  0  0  0  0  0  0  0
   14.9552  -22.8852   34.1003 C   0  0  0  0  0  0  0  0  0  0  0  0
   15.2936  -22.4619   32.8328 C   0  0  0  0  0  0  0  0  0  0  0  0
   15.0178  -23.2714   31.7476 C   0  0  0  0  0  0  0  0  0  0  0  0
   15.3548  -22.8497   30.4856 C   0  0  0  0  0  0  0  0  0  0  0  0
   15.9204  -21.7228   30.2798 O   0  0  0  0  0  0  0  0  0  0  0  0
   15.0618  -23.6893   29.4253 C   0  0  0  0  0  0  0  0  0  0  0  0
 13  1  1  0
  1 14  2  0
  1 18  1  0
  2  3  1  1
  2  4  1  0
  2  8  1  0
  9  3  1  0
  4  5  1  0
  5  6  1  0
  7  6  1  0
  8  7  1  0
 10  9  1  0
 10 11  2  0
 12 10  1  0
 12 13  1  0
 12 21  2  0
 14 15  1  0
 15 16  2  0
 16 17  1  0
 17 18  2  0
 18 19  1  0
 19 20  2  0
 19 21  1  0
M  END
$$$$
