
     RDKit          3D

 21 23  0  0  0  0  0  0  0  0999 V2000
   14.8354  -23.9644   30.9403 C   0  0  0  0  0  0  0  0  0  0  0  0
   12.6494  -28.3603   27.0433 C   0  0  1  0  0  0  0  0  0  0  0  0
   12.3497  -28.2866   28.4676 C   0  0  0  0  0  0  0  0  0  0  0  0
   11.9734  -29.6267   26.4186 C   0  0  0  0  0  0  0  0  0  0  0  0
   10.5081  -29.6074   26.6909 C   0  0  0  0  0  0  0  0  0  0  0  0
    9.8151  -28.3349   26.4464 C   0  0  0  0  0  0  0  0  0  0  0  0
   10.6471  -27.1658   26.0528 C   0  0  0  0  0  0  0  0  0  0  0  0
   12.1123  -27.2807   26.1645 C   0  0  0  0  0  0  0  0  0  0  0  0
   12.8061  -27.2591   29.3120 N   0  0  0  0  0  0  0  0  0  0  0  0
   13.4951  -27.2996   30.5195 C   0  0  0  0  0  0  0  0  0  0  0  0
   13.6607  -28.4083   31.0680 O   0  0  0  0  0  0  0  0  0  0  0  0
   14.0461  -26.0907   31.1938 C   0  0  0  0  0  0  0  0  0  0  0  0
   14.3463  -25.0735   30.4540 O   0  0  0  0  0  0  0  0  0  0  0  0
   15.1456  -22.8883   30.0987 C   0  0  0  0  0  0  0  0  0  0  0  0
   15.6598  -21.7360   30.6525 C   0  0  0  0  0  0  0  0  0  0  0  0
   15.8735  -21.6227   32.0107 C   0  0  0  0  0  0  0  0  0  0  0  0
   15.5684  -22.6815   32.8391 C   0  0  0  0  0  0  0  0  0  0  0  0
   15.0521  -23.8432   32.2981 C   0  0  0  0  0  0  0  0  0  0  0  0
   14.7483  -24.8974   33.1232 C   0  0  0  0  0  0  0  0  0  0  0  0
   14.9291  -24.8387   34.3865 O   0  0  0  0  0  0  0  0  0  0  0  0
   14.2333  -26.0431   32.5427 C   0  0  0  0  0  0  0  0  0  0  0  0
 13  1  1  0
  1 14  2  0
  1 18  1  0
  2  3  1  1
  2  4  1  0
  2  8  1  0
  9  3  1  0
  4  5  1  0
  5  6  1  0
  7  6  1  0
  8  7  1  0
 10  9  1  0
 10 11  2  0
 12 10  1  0
 12 13  1  0
 12 21  2  0
 14 15  1  0
 15 16  2  0
 16 17  1  0
 17 18  2  0
 18 19  1  0
 19 20  2  0
 19 21  1  0
M  END
$$$$
