
     RDKit          3D

 21 23  0  0  0  0  0  0  0  0999 V2000
   14.4387  -24.7211   32.3820 C   0  0  0  0  0  0  0  0  0  0  0  0
   11.3970  -27.3487   27.4257 C   0  0  1  0  0  0  0  0  0  0  0  0
   12.1499  -27.8565   28.5654 C   0  0  0  0  0  0  0  0  0  0  0  0
   12.1013  -27.7640   26.0906 C   0  0  0  0  0  0  0  0  0  0  0  0
   12.2724  -29.2439   26.0450 C   0  0  0  0  0  0  0  0  0  0  0  0
   11.1012  -30.0486   26.4191 C   0  0  0  0  0  0  0  0  0  0  0  0
    9.8966  -29.3218   26.9037 C   0  0  0  0  0  0  0  0  0  0  0  0
   10.0218  -27.8851   27.2080 C   0  0  0  0  0  0  0  0  0  0  0  0
   13.1763  -27.1414   29.2075 N   0  0  0  0  0  0  0  0  0  0  0  0
   13.6371  -25.8405   29.0350 C   0  0  0  0  0  0  0  0  0  0  0  0
   13.5403  -25.3250   27.9027 O   0  0  0  0  0  0  0  0  0  0  0  0
   14.2403  -25.0290   30.1293 C   0  0  0  0  0  0  0  0  0  0  0  0
   13.9647  -25.3628   31.3479 O   0  0  0  0  0  0  0  0  0  0  0  0
   14.1118  -25.1201   33.6845 C   0  0  0  0  0  0  0  0  0  0  0  0
   14.6334  -24.4157   34.7478 C   0  0  0  0  0  0  0  0  0  0  0  0
   15.4657  -23.3325   34.5554 C   0  0  0  0  0  0  0  0  0  0  0  0
   15.7876  -22.9397   33.2738 C   0  0  0  0  0  0  0  0  0  0  0  0
   15.2721  -23.6363   32.1978 C   0  0  0  0  0  0  0  0  0  0  0  0
   15.5927  -23.2450   30.9217 C   0  0  0  0  0  0  0  0  0  0  0  0
   16.3593  -22.2485   30.6946 O   0  0  0  0  0  0  0  0  0  0  0  0
   15.0563  -23.9686   29.8713 C   0  0  0  0  0  0  0  0  0  0  0  0
 13  1  1  0
  1 14  2  0
  1 18  1  0
  2  3  1  1
  2  4  1  0
  2  8  1  0
  9  3  1  0
  4  5  1  0
  5  6  1  0
  7  6  1  0
  8  7  1  0
 10  9  1  0
 10 11  2  0
 12 10  1  0
 12 13  1  0
 12 21  2  0
 14 15  1  0
 15 16  2  0
 16 17  1  0
 17 18  2  0
 18 19  1  0
 19 20  2  0
 19 21  1  0
M  END
$$$$
