
     RDKit          3D

 21 23  0  0  0  0  0  0  0  0999 V2000
   -5.8583   -3.4390   32.5104 C   0  0  0  0  0  0  0  0  0  0  0  0
   -2.6724    0.2262   28.4326 C   0  0  1  0  0  0  0  0  0  0  0  0
   -3.6436   -0.8245   28.1557 C   0  0  0  0  0  0  0  0  0  0  0  0
   -1.4525    0.0976   27.4598 C   0  0  0  0  0  0  0  0  0  0  0  0
   -1.9248    0.1183   26.0463 C   0  0  0  0  0  0  0  0  0  0  0  0
   -2.9032    1.1585   25.6999 C   0  0  0  0  0  0  0  0  0  0  0  0
   -3.4059    2.0214   26.8029 C   0  0  0  0  0  0  0  0  0  0  0  0
   -3.0898    1.6381   28.1905 C   0  0  0  0  0  0  0  0  0  0  0  0
   -4.4220   -1.4520   29.1444 N   0  0  0  0  0  0  0  0  0  0  0  0
   -5.3785   -2.4582   29.0600 C   0  0  0  0  0  0  0  0  0  0  0  0
   -5.8446   -2.7372   27.9364 O   0  0  0  0  0  0  0  0  0  0  0  0
   -5.8769   -3.2211   30.2386 C   0  0  0  0  0  0  0  0  0  0  0  0
   -5.4834   -2.8423   31.4107 O   0  0  0  0  0  0  0  0  0  0  0  0
   -5.4052   -2.9922   33.7584 C   0  0  0  0  0  0  0  0  0  0  0  0
   -5.8250   -3.6501   34.8941 C   0  0  0  0  0  0  0  0  0  0  0  0
   -6.6771   -4.7328   34.8260 C   0  0  0  0  0  0  0  0  0  0  0  0
   -7.1231   -5.1727   33.5980 C   0  0  0  0  0  0  0  0  0  0  0  0
   -6.7107   -4.5230   32.4505 C   0  0  0  0  0  0  0  0  0  0  0  0
   -7.1549   -4.9612   31.2279 C   0  0  0  0  0  0  0  0  0  0  0  0
   -7.9445   -5.9593   31.1154 O   0  0  0  0  0  0  0  0  0  0  0  0
   -6.7190   -4.2838   30.1027 C   0  0  0  0  0  0  0  0  0  0  0  0
 13  1  1  0
  1 14  2  0
  1 18  1  0
  2  3  1  6
  2  4  1  0
  2  8  1  0
  9  3  1  0
  4  5  1  0
  5  6  1  0
  7  6  1  0
  8  7  1  0
 10  9  1  0
 10 11  2  0
 12 10  1  0
 12 13  1  0
 12 21  2  0
 14 15  1  0
 15 16  2  0
 16 17  1  0
 17 18  2  0
 18 19  1  0
 19 20  2  0
 19 21  1  0
M  END
$$$$
