
     RDKit          3D

 21 23  0  0  0  0  0  0  0  0999 V2000
   14.3800  -24.5192   31.8706 C   0  0  0  0  0  0  0  0  0  0  0  0
   12.4215  -28.5480   27.7997 C   0  0  1  0  0  0  0  0  0  0  0  0
   12.6930  -27.1826   27.3688 C   0  0  0  0  0  0  0  0  0  0  0  0
   11.1699  -28.5739   28.7399 C   0  0  0  0  0  0  0  0  0  0  0  0
   10.0033  -27.9528   28.0509 C   0  0  0  0  0  0  0  0  0  0  0  0
    9.7621  -28.3766   26.6647 C   0  0  0  0  0  0  0  0  0  0  0  0
   10.7534  -29.2987   26.0474 C   0  0  0  0  0  0  0  0  0  0  0  0
   12.0226  -29.5382   26.7573 C   0  0  0  0  0  0  0  0  0  0  0  0
   13.0558  -26.1427   28.2430 N   0  0  0  0  0  0  0  0  0  0  0  0
   14.2350  -25.4158   28.3673 C   0  0  0  0  0  0  0  0  0  0  0  0
   15.0051  -25.3674   27.3865 O   0  0  0  0  0  0  0  0  0  0  0  0
   14.6286  -24.6916   29.6085 C   0  0  0  0  0  0  0  0  0  0  0  0
   14.1054  -25.0824   30.7246 O   0  0  0  0  0  0  0  0  0  0  0  0
   13.7879  -24.9777   33.0545 C   0  0  0  0  0  0  0  0  0  0  0  0
   14.1049  -24.3554   34.2424 C   0  0  0  0  0  0  0  0  0  0  0  0
   14.9881  -23.2967   34.2876 C   0  0  0  0  0  0  0  0  0  0  0  0
   15.5709  -22.8453   33.1227 C   0  0  0  0  0  0  0  0  0  0  0  0
   15.2627  -23.4594   31.9241 C   0  0  0  0  0  0  0  0  0  0  0  0
   15.8431  -23.0097   30.7643 C   0  0  0  0  0  0  0  0  0  0  0  0
   16.6665  -22.0330   30.7570 O   0  0  0  0  0  0  0  0  0  0  0  0
   15.5084  -23.6513   29.5848 C   0  0  0  0  0  0  0  0  0  0  0  0
 13  1  1  0
  1 14  2  0
  1 18  1  0
  2  3  1  6
  2  4  1  0
  2  8  1  0
  9  3  1  0
  4  5  1  0
  5  6  1  0
  7  6  1  0
  8  7  1  0
 10  9  1  0
 10 11  2  0
 12 10  1  0
 12 13  1  0
 12 21  2  0
 14 15  1  0
 15 16  2  0
 16 17  1  0
 17 18  2  0
 18 19  1  0
 19 20  2  0
 19 21  1  0
M  END
$$$$
