
     RDKit          3D

 21 23  0  0  0  0  0  0  0  0999 V2000
   14.9023  -24.1170   30.8768 C   0  0  0  0  0  0  0  0  0  0  0  0
   11.6603  -28.7906   27.9665 C   0  0  1  0  0  0  0  0  0  0  0  0
   13.0484  -28.3630   27.8468 C   0  0  0  0  0  0  0  0  0  0  0  0
   10.7101  -27.5479   27.9060 C   0  0  0  0  0  0  0  0  0  0  0  0
   10.9612  -26.7761   26.6559 C   0  0  0  0  0  0  0  0  0  0  0  0
   11.0611  -27.5571   25.4152 C   0  0  0  0  0  0  0  0  0  0  0  0
   11.0064  -29.0394   25.5319 C   0  0  0  0  0  0  0  0  0  0  0  0
   11.0992  -29.6392   26.8751 C   0  0  0  0  0  0  0  0  0  0  0  0
   13.6705  -27.4649   28.7320 N   0  0  0  0  0  0  0  0  0  0  0  0
   13.7964  -27.4781   30.1170 C   0  0  0  0  0  0  0  0  0  0  0  0
   13.5450  -28.5399   30.7228 O   0  0  0  0  0  0  0  0  0  0  0  0
   14.2151  -26.2929   30.9169 C   0  0  0  0  0  0  0  0  0  0  0  0
   14.5226  -25.2127   30.2759 O   0  0  0  0  0  0  0  0  0  0  0  0
   15.2255  -22.9705   30.1394 C   0  0  0  0  0  0  0  0  0  0  0  0
   15.6217  -21.8352   30.8124 C   0  0  0  0  0  0  0  0  0  0  0  0
   15.7054  -21.8063   32.1891 C   0  0  0  0  0  0  0  0  0  0  0  0
   15.3874  -22.9343   32.9149 C   0  0  0  0  0  0  0  0  0  0  0  0
   14.9886  -24.0800   32.2538 C   0  0  0  0  0  0  0  0  0  0  0  0
   14.6720  -25.2031   32.9768 C   0  0  0  0  0  0  0  0  0  0  0  0
   14.7346  -25.2236   34.2527 O   0  0  0  0  0  0  0  0  0  0  0  0
   14.2771  -26.3301   32.2776 C   0  0  0  0  0  0  0  0  0  0  0  0
 13  1  1  0
  1 14  2  0
  1 18  1  0
  2  3  1  6
  2  4  1  0
  2  8  1  0
  9  3  1  0
  4  5  1  0
  5  6  1  0
  7  6  1  0
  8  7  1  0
 10  9  1  0
 10 11  2  0
 12 10  1  0
 12 13  1  0
 12 21  2  0
 14 15  1  0
 15 16  2  0
 16 17  1  0
 17 18  2  0
 18 19  1  0
 19 20  2  0
 19 21  1  0
M  END
$$$$
