
     RDKit          3D

 21 23  0  0  0  0  0  0  0  0999 V2000
   -5.8524   -3.0803   31.9671 C   0  0  0  0  0  0  0  0  0  0  0  0
   -3.6067    0.1930   26.9702 C   0  0  1  0  0  0  0  0  0  0  0  0
   -4.2720    0.6317   28.1903 C   0  0  0  0  0  0  0  0  0  0  0  0
   -2.9622    1.4193   26.2410 C   0  0  0  0  0  0  0  0  0  0  0  0
   -2.0381    2.1335   27.1670 C   0  0  0  0  0  0  0  0  0  0  0  0
   -1.1086    1.2954   27.9369 C   0  0  0  0  0  0  0  0  0  0  0  0
   -1.2429   -0.1803   27.8011 C   0  0  0  0  0  0  0  0  0  0  0  0
   -2.4300   -0.7139   27.1093 C   0  0  0  0  0  0  0  0  0  0  0  0
   -4.9499   -0.2333   29.0674 N   0  0  0  0  0  0  0  0  0  0  0  0
   -5.8290   -1.2837   28.8256 C   0  0  0  0  0  0  0  0  0  0  0  0
   -6.3752   -1.3506   27.7055 O   0  0  0  0  0  0  0  0  0  0  0  0
   -6.1538   -2.3334   29.8317 C   0  0  0  0  0  0  0  0  0  0  0  0
   -5.6346   -2.2182   31.0104 O   0  0  0  0  0  0  0  0  0  0  0  0
   -5.2673   -2.9135   33.2290 C   0  0  0  0  0  0  0  0  0  0  0  0
   -5.5230   -3.8462   34.2105 C   0  0  0  0  0  0  0  0  0  0  0  0
   -6.3386   -4.9337   33.9758 C   0  0  0  0  0  0  0  0  0  0  0  0
   -6.9145   -5.0982   32.7342 C   0  0  0  0  0  0  0  0  0  0  0  0
   -6.6672   -4.1711   31.7401 C   0  0  0  0  0  0  0  0  0  0  0  0
   -7.2407   -4.3350   30.5038 C   0  0  0  0  0  0  0  0  0  0  0  0
   -8.0027   -5.3260   30.2401 O   0  0  0  0  0  0  0  0  0  0  0  0
   -6.9684   -3.3848   29.5354 C   0  0  0  0  0  0  0  0  0  0  0  0
 13  1  1  0
  1 14  2  0
  1 18  1  0
  2  3  1  1
  2  4  1  0
  2  8  1  0
  9  3  1  0
  4  5  1  0
  5  6  1  0
  7  6  1  0
  8  7  1  0
 10  9  1  0
 10 11  2  0
 12 10  1  0
 12 13  1  0
 12 21  2  0
 14 15  1  0
 15 16  2  0
 16 17  1  0
 17 18  2  0
 18 19  1  0
 19 20  2  0
 19 21  1  0
M  END
$$$$
