
     RDKit          3D

 21 23  0  0  0  0  0  0  0  0999 V2000
   -5.7601   -3.4005   32.4746 C   0  0  0  0  0  0  0  0  0  0  0  0
   -2.5541   -0.6646   28.3691 C   0  0  1  0  0  0  0  0  0  0  0  0
   -3.9969   -0.6104   28.1712 C   0  0  0  0  0  0  0  0  0  0  0  0
   -1.8248   -0.7053   26.9844 C   0  0  0  0  0  0  0  0  0  0  0  0
   -2.2414    0.4614   26.1558 C   0  0  0  0  0  0  0  0  0  0  0  0
   -2.2519    1.7686   26.8269 C   0  0  0  0  0  0  0  0  0  0  0  0
   -1.9491    1.7937   28.2835 C   0  0  0  0  0  0  0  0  0  0  0  0
   -1.8970    0.5120   29.0094 C   0  0  0  0  0  0  0  0  0  0  0  0
   -4.9318   -1.1570   29.0681 N   0  0  0  0  0  0  0  0  0  0  0  0
   -5.6757   -2.3311   29.0181 C   0  0  0  0  0  0  0  0  0  0  0  0
   -6.1077   -2.7098   27.9103 O   0  0  0  0  0  0  0  0  0  0  0  0
   -5.9848   -3.1613   30.2161 C   0  0  0  0  0  0  0  0  0  0  0  0
   -5.5472   -2.7510   31.3616 O   0  0  0  0  0  0  0  0  0  0  0  0
   -5.2657   -2.9163   33.6926 C   0  0  0  0  0  0  0  0  0  0  0  0
   -5.5128   -3.6323   34.8438 C   0  0  0  0  0  0  0  0  0  0  0  0
   -6.2330   -4.8087   34.8198 C   0  0  0  0  0  0  0  0  0  0  0  0
   -6.7197   -5.2853   33.6213 C   0  0  0  0  0  0  0  0  0  0  0  0
   -6.4798   -4.5782   32.4588 C   0  0  0  0  0  0  0  0  0  0  0  0
   -6.9645   -5.0530   31.2656 C   0  0  0  0  0  0  0  0  0  0  0  0
   -7.6363   -6.1373   31.1942 O   0  0  0  0  0  0  0  0  0  0  0  0
   -6.7028   -4.3158   30.1241 C   0  0  0  0  0  0  0  0  0  0  0  0
 13  1  1  0
  1 14  2  0
  1 18  1  0
  2  3  1  6
  2  4  1  0
  2  8  1  0
  9  3  1  0
  4  5  1  0
  5  6  1  0
  7  6  1  0
  8  7  1  0
 10  9  1  0
 10 11  2  0
 12 10  1  0
 12 13  1  0
 12 21  2  0
 14 15  1  0
 15 16  2  0
 16 17  1  0
 17 18  2  0
 18 19  1  0
 19 20  2  0
 19 21  1  0
M  END
$$$$
