
     RDKit          3D

 21 23  0  0  0  0  0  0  0  0999 V2000
   14.4377  -24.6060   32.0749 C   0  0  0  0  0  0  0  0  0  0  0  0
   11.6326  -27.4560   26.8880 C   0  0  1  0  0  0  0  0  0  0  0  0
   11.9099  -27.6719   28.3023 C   0  0  0  0  0  0  0  0  0  0  0  0
   12.4491  -28.4722   26.0210 C   0  0  0  0  0  0  0  0  0  0  0  0
   12.1474  -29.8664   26.4529 C   0  0  0  0  0  0  0  0  0  0  0  0
   10.7290  -30.1975   26.6474 C   0  0  0  0  0  0  0  0  0  0  0  0
    9.7410  -29.0950   26.4977 C   0  0  0  0  0  0  0  0  0  0  0  0
   10.2440  -27.7126   26.4062 C   0  0  0  0  0  0  0  0  0  0  0  0
   12.9037  -26.9828   29.0198 N   0  0  0  0  0  0  0  0  0  0  0  0
   13.5507  -25.7777   28.7677 C   0  0  0  0  0  0  0  0  0  0  0  0
   13.6364  -25.3897   27.5847 O   0  0  0  0  0  0  0  0  0  0  0  0
   14.1472  -24.9249   29.8338 C   0  0  0  0  0  0  0  0  0  0  0  0
   13.9603  -25.2799   31.0631 O   0  0  0  0  0  0  0  0  0  0  0  0
   14.2089  -25.0300   33.3903 C   0  0  0  0  0  0  0  0  0  0  0  0
   14.7305  -24.2900   34.4291 C   0  0  0  0  0  0  0  0  0  0  0  0
   15.4688  -23.1474   34.2000 C   0  0  0  0  0  0  0  0  0  0  0  0
   15.6941  -22.7299   32.9056 C   0  0  0  0  0  0  0  0  0  0  0  0
   15.1774  -23.4618   31.8539 C   0  0  0  0  0  0  0  0  0  0  0  0
   15.4018  -23.0459   30.5651 C   0  0  0  0  0  0  0  0  0  0  0  0
   16.0793  -21.9946   30.3041 O   0  0  0  0  0  0  0  0  0  0  0  0
   14.8675  -23.8061   29.5398 C   0  0  0  0  0  0  0  0  0  0  0  0
 13  1  1  0
  1 14  2  0
  1 18  1  0
  2  3  1  1
  2  4  1  0
  2  8  1  0
  9  3  1  0
  4  5  1  0
  5  6  1  0
  7  6  1  0
  8  7  1  0
 10  9  1  0
 10 11  2  0
 12 10  1  0
 12 13  1  0
 12 21  2  0
 14 15  1  0
 15 16  2  0
 16 17  1  0
 17 18  2  0
 18 19  1  0
 19 20  2  0
 19 21  1  0
M  END
$$$$
