
     RDKit          3D

 21 23  0  0  0  0  0  0  0  0999 V2000
   -6.5137   -3.5818   31.0542 C   0  0  0  0  0  0  0  0  0  0  0  0
   -2.6337    0.5335   28.5092 C   0  0  1  0  0  0  0  0  0  0  0  0
   -4.0819    0.6853   28.5677 C   0  0  0  0  0  0  0  0  0  0  0  0
   -2.2643   -0.8013   27.7793 C   0  0  0  0  0  0  0  0  0  0  0  0
   -2.8942   -0.8335   26.4288 C   0  0  0  0  0  0  0  0  0  0  0  0
   -2.7667    0.3863   25.6194 C   0  0  0  0  0  0  0  0  0  0  0  0
   -2.1176    1.5653   26.2540 C   0  0  0  0  0  0  0  0  0  0  0  0
   -1.8638    1.5272   27.7054 C   0  0  0  0  0  0  0  0  0  0  0  0
   -4.9253   -0.1361   29.3367 N   0  0  0  0  0  0  0  0  0  0  0  0
   -5.0556   -0.2871   30.7131 C   0  0  0  0  0  0  0  0  0  0  0  0
   -4.7261    0.6679   31.4459 O   0  0  0  0  0  0  0  0  0  0  0  0
   -5.5675   -1.5277   31.3603 C   0  0  0  0  0  0  0  0  0  0  0  0
   -6.0398   -2.4554   30.5932 O   0  0  0  0  0  0  0  0  0  0  0  0
   -7.0153   -4.5580   30.1836 C   0  0  0  0  0  0  0  0  0  0  0  0
   -7.5061   -5.7326   30.7113 C   0  0  0  0  0  0  0  0  0  0  0  0
   -7.5128   -5.9639   32.0712 C   0  0  0  0  0  0  0  0  0  0  0  0
   -7.0193   -5.0035   32.9282 C   0  0  0  0  0  0  0  0  0  0  0  0
   -6.5239   -3.8208   32.4136 C   0  0  0  0  0  0  0  0  0  0  0  0
   -6.0325   -2.8646   33.2671 C   0  0  0  0  0  0  0  0  0  0  0  0
   -6.0182   -3.0341   34.5333 O   0  0  0  0  0  0  0  0  0  0  0  0
   -5.5455   -1.6940   32.7126 C   0  0  0  0  0  0  0  0  0  0  0  0
 13  1  1  0
  1 14  2  0
  1 18  1  0
  2  3  1  6
  2  4  1  0
  2  8  1  0
  9  3  1  0
  4  5  1  0
  5  6  1  0
  7  6  1  0
  8  7  1  0
 10  9  1  0
 10 11  2  0
 12 10  1  0
 12 13  1  0
 12 21  2  0
 14 15  1  0
 15 16  2  0
 16 17  1  0
 17 18  2  0
 18 19  1  0
 19 20  2  0
 19 21  1  0
M  END
$$$$
