
     RDKit          3D

 21 23  0  0  0  0  0  0  0  0999 V2000
   14.7172  -24.6881   31.9870 C   0  0  0  0  0  0  0  0  0  0  0  0
   11.9020  -27.3856   26.8238 C   0  0  1  0  0  0  0  0  0  0  0  0
   12.8685  -27.8648   27.8036 C   0  0  0  0  0  0  0  0  0  0  0  0
   11.5465  -28.5312   25.8177 C   0  0  0  0  0  0  0  0  0  0  0  0
   11.0572  -29.7270   26.5610 C   0  0  0  0  0  0  0  0  0  0  0  0
   10.0634  -29.4795   27.6147 C   0  0  0  0  0  0  0  0  0  0  0  0
    9.7165  -28.0631   27.9108 C   0  0  0  0  0  0  0  0  0  0  0  0
   10.5473  -27.0005   27.3166 C   0  0  0  0  0  0  0  0  0  0  0  0
   13.4804  -27.0433   28.7669 N   0  0  0  0  0  0  0  0  0  0  0  0
   14.4697  -26.0724   28.6523 C   0  0  0  0  0  0  0  0  0  0  0  0
   15.0833  -25.9795   27.5696 O   0  0  0  0  0  0  0  0  0  0  0  0
   14.8365  -25.1372   29.7525 C   0  0  0  0  0  0  0  0  0  0  0  0
   14.4510  -25.4363   30.9500 O   0  0  0  0  0  0  0  0  0  0  0  0
   14.2780  -25.0535   33.2660 C   0  0  0  0  0  0  0  0  0  0  0  0
   14.5804  -24.2359   34.3332 C   0  0  0  0  0  0  0  0  0  0  0  0
   15.3025  -23.0722   34.1671 C   0  0  0  0  0  0  0  0  0  0  0  0
   15.7348  -22.7124   32.9085 C   0  0  0  0  0  0  0  0  0  0  0  0
   15.4391  -23.5223   31.8290 C   0  0  0  0  0  0  0  0  0  0  0  0
   15.8697  -23.1638   30.5759 C   0  0  0  0  0  0  0  0  0  0  0  0
   16.5411  -22.0958   30.3734 O   0  0  0  0  0  0  0  0  0  0  0  0
   15.5532  -24.0016   29.5209 C   0  0  0  0  0  0  0  0  0  0  0  0
 13  1  1  0
  1 14  2  0
  1 18  1  0
  2  3  1  1
  2  4  1  0
  2  8  1  0
  9  3  1  0
  4  5  1  0
  5  6  1  0
  7  6  1  0
  8  7  1  0
 10  9  1  0
 10 11  2  0
 12 10  1  0
 12 13  1  0
 12 21  2  0
 14 15  1  0
 15 16  2  0
 16 17  1  0
 17 18  2  0
 18 19  1  0
 19 20  2  0
 19 21  1  0
M  END
$$$$
