
     RDKit          3D

 21 23  0  0  0  0  0  0  0  0999 V2000
   -5.6529   -3.2714   32.0377 C   0  0  0  0  0  0  0  0  0  0  0  0
   -3.9569    0.8615   28.2503 C   0  0  1  0  0  0  0  0  0  0  0  0
   -4.4240   -0.3841   27.6553 C   0  0  0  0  0  0  0  0  0  0  0  0
   -2.6268    0.6130   29.0378 C   0  0  0  0  0  0  0  0  0  0  0  0
   -1.6108   -0.0033   28.1382 C   0  0  0  0  0  0  0  0  0  0  0  0
   -1.4554    0.6096   26.8118 C   0  0  0  0  0  0  0  0  0  0  0  0
   -2.3880    1.7120   26.4526 C   0  0  0  0  0  0  0  0  0  0  0  0
   -3.5476    1.9604   27.3278 C   0  0  0  0  0  0  0  0  0  0  0  0
   -4.5717   -1.5864   28.3695 N   0  0  0  0  0  0  0  0  0  0  0  0
   -5.6590   -2.4413   28.5151 C   0  0  0  0  0  0  0  0  0  0  0  0
   -6.4070   -2.6183   27.5318 O   0  0  0  0  0  0  0  0  0  0  0  0
   -5.9792   -3.1574   29.7817 C   0  0  0  0  0  0  0  0  0  0  0  0
   -5.4410   -2.7196   30.8729 O   0  0  0  0  0  0  0  0  0  0  0  0
   -5.0471   -2.7613   33.1932 C   0  0  0  0  0  0  0  0  0  0  0  0
   -5.2973   -3.3732   34.4022 C   0  0  0  0  0  0  0  0  0  0  0  0
   -6.1274   -4.4710   34.4958 C   0  0  0  0  0  0  0  0  0  0  0  0
   -6.7237   -4.9732   33.3589 C   0  0  0  0  0  0  0  0  0  0  0  0
   -6.4822   -4.3701   32.1395 C   0  0  0  0  0  0  0  0  0  0  0  0
   -7.0760   -4.8703   31.0075 C   0  0  0  0  0  0  0  0  0  0  0  0
   -7.8519   -5.8847   31.0451 O   0  0  0  0  0  0  0  0  0  0  0  0
   -6.8088   -4.2382   29.8059 C   0  0  0  0  0  0  0  0  0  0  0  0
 13  1  1  0
  1 14  2  0
  1 18  1  0
  2  3  1  6
  2  4  1  0
  2  8  1  0
  9  3  1  0
  4  5  1  0
  5  6  1  0
  7  6  1  0
  8  7  1  0
 10  9  1  0
 10 11  2  0
 12 10  1  0
 12 13  1  0
 12 21  2  0
 14 15  1  0
 15 16  2  0
 16 17  1  0
 17 18  2  0
 18 19  1  0
 19 20  2  0
 19 21  1  0
M  END
$$$$
