
     RDKit          3D

 35 38  0  0  0  0  0  0  0  0999 V2000
  -20.1765    8.3970   -1.0997 C   0  0  1  0  0  0  0  0  0  0  0  0
  -23.3722   10.0433   -1.8623 C   0  0  0  0  0  0  0  0  0  0  0  0
  -22.7872    9.6140   -0.7040 C   0  0  0  0  0  0  0  0  0  0  0  0
  -20.2992    4.9407   -0.0269 C   0  0  0  0  0  0  0  0  0  0  0  0
  -17.9237    7.4939   -1.4925 C   0  0  1  0  0  0  0  0  0  0  0  0
  -18.3281    6.3979   -0.5331 C   0  0  2  0  0  0  0  0  0  0  0  0
  -24.7331    9.8718   -2.0945 C   0  0  0  0  0  0  0  0  0  0  0  0
  -19.8266    6.1825   -0.7466 C   0  0  2  0  0  0  0  0  0  0  0  0
  -15.9364    8.5926   -0.5707 C   0  0  0  0  0  0  0  0  0  0  0  0
  -10.1875   12.8065    1.4144 C   0  0  0  0  0  0  0  0  0  0  0  0
  -11.7289   10.8848    1.3736 C   0  0  0  0  0  0  0  0  0  0  0  0
  -12.3763    9.8437    1.9851 C   0  0  0  0  0  0  0  0  0  0  0  0
  -13.3159    9.1043    1.2510 C   0  0  0  0  0  0  0  0  0  0  0  0
  -13.5864    9.4138   -0.0575 C   0  0  0  0  0  0  0  0  0  0  0  0
  -14.5549    8.6415   -0.7928 C   0  0  0  0  0  0  0  0  0  0  0  0
  -25.5149    9.2567   -1.1408 C   0  0  0  0  0  0  0  0  0  0  0  0
  -26.9860    9.0607   -1.3693 C   0  0  0  0  0  0  0  0  0  0  0  0
  -24.8972    8.8342    0.0174 C   0  0  0  0  0  0  0  0  0  0  0  0
  -23.5456    9.0017    0.2541 C   0  0  0  0  0  0  0  0  0  0  0  0
  -18.7005    8.7360   -1.1082 C   0  0  1  0  0  0  0  0  0  0  0  0
  -12.9344   10.4573   -0.6626 C   0  0  0  0  0  0  0  0  0  0  0  0
  -11.9910   11.2074    0.0579 C   0  0  0  0  0  0  0  0  0  0  0  0
  -12.1124    9.5306    3.2851 F   0  0  0  0  0  0  0  0  0  0  0  0
  -13.9171    8.0898    1.9190 F   0  0  0  0  0  0  0  0  0  0  0  0
  -13.1452   10.8250   -1.9484 F   0  0  0  0  0  0  0  0  0  0  0  0
  -11.3468   12.2384   -0.5400 F   0  0  0  0  0  0  0  0  0  0  0  0
  -10.7678   11.6647    2.0748 N   0  0  0  0  0  0  0  0  0  0  0  0
  -16.5005    7.7608   -1.4600 N   0  0  0  0  0  0  0  0  0  0  0  0
  -15.5340    7.3036   -2.2087 N   0  0  0  0  0  0  0  0  0  0  0  0
  -14.3646    7.8029   -1.8439 N   0  0  0  0  0  0  0  0  0  0  0  0
  -18.1892    6.8059    0.8012 O   0  0  0  0  0  0  0  0  0  0  0  0
  -21.6500    4.7829   -0.3333 O   0  0  0  0  0  0  0  0  0  0  0  0
  -20.4683    7.3208   -0.2932 O   0  0  0  0  0  0  0  0  0  0  0  0
  -18.5066    9.7305   -2.0659 O   0  0  0  0  0  0  0  0  0  0  0  0
  -21.0513    9.8508   -0.4457 S   0  0  0  0  0  0  0  0  0  0  0  0
 20  1  1  0
  1 33  1  0
  1 35  1  1
  3  2  2  0
  2  7  1  0
  3 19  1  0
 35  3  1  0
  8  4  1  1
  4 32  1  0
  5  6  1  0
  5 20  1  0
  5 28  1  1
  6  8  1  0
  6 31  1  1
  7 16  2  0
  8 33  1  0
 15  9  2  0
  9 28  1  0
 27 10  1  0
 12 11  2  0
 11 22  1  0
 11 27  1  0
 13 12  1  0
 12 23  1  0
 14 13  2  0
 13 24  1  0
 14 15  1  0
 14 21  1  0
 15 30  1  0
 16 17  1  0
 16 18  1  0
 18 19  2  0
 20 34  1  6
 21 22  2  0
 21 25  1  0
 22 26  1  0
 28 29  1  0
 29 30  2  0
M  END
$$$$
