
     RDKit          3D

 35 38  0  0  0  0  0  0  0  0999 V2000
  -21.1188    8.3826   -0.7947 C   0  0  1  0  0  0  0  0  0  0  0  0
  -24.1708    8.5734   -2.6840 C   0  0  0  0  0  0  0  0  0  0  0  0
  -23.9566    8.7031   -1.3403 C   0  0  0  0  0  0  0  0  0  0  0  0
  -20.5176    5.4025    1.1722 C   0  0  0  0  0  0  0  0  0  0  0  0
  -18.6811    8.2549   -0.5013 C   0  0  1  0  0  0  0  0  0  0  0  0
  -18.9900    7.3124    0.6395 C   0  0  2  0  0  0  0  0  0  0  0  0
  -25.2928    7.9171   -3.1797 C   0  0  0  0  0  0  0  0  0  0  0  0
  -20.2511    6.5519    0.2283 C   0  0  2  0  0  0  0  0  0  0  0  0
  -16.2395    8.4670   -0.4825 C   0  0  0  0  0  0  0  0  0  0  0  0
   -9.0178    8.1286    0.5975 C   0  0  0  0  0  0  0  0  0  0  0  0
  -11.0902    8.9440   -0.4565 C   0  0  0  0  0  0  0  0  0  0  0  0
  -11.8240    9.1033   -1.6024 C   0  0  0  0  0  0  0  0  0  0  0  0
  -13.2141    9.2636   -1.5007 C   0  0  0  0  0  0  0  0  0  0  0  0
  -13.8340    9.2619   -0.2772 C   0  0  0  0  0  0  0  0  0  0  0  0
  -15.2626    9.4281   -0.1957 C   0  0  0  0  0  0  0  0  0  0  0  0
  -26.2127    7.3836   -2.3031 C   0  0  0  0  0  0  0  0  0  0  0  0
  -27.4314    6.6708   -2.8149 C   0  0  0  0  0  0  0  0  0  0  0  0
  -25.9701    7.5298   -0.9536 C   0  0  0  0  0  0  0  0  0  0  0  0
  -24.8573    8.1808   -0.4549 C   0  0  0  0  0  0  0  0  0  0  0  0
  -19.8556    9.2021   -0.6315 C   0  0  1  0  0  0  0  0  0  0  0  0
  -13.0927    9.1019    0.8651 C   0  0  0  0  0  0  0  0  0  0  0  0
  -11.7004    8.9402    0.7809 C   0  0  0  0  0  0  0  0  0  0  0  0
  -11.2145    9.1061   -2.8215 F   0  0  0  0  0  0  0  0  0  0  0  0
  -13.8756    9.4159   -2.6737 F   0  0  0  0  0  0  0  0  0  0  0  0
  -13.6292    9.0890    2.1080 F   0  0  0  0  0  0  0  0  0  0  0  0
  -10.9679    8.7822    1.9097 F   0  0  0  0  0  0  0  0  0  0  0  0
   -9.6782    8.7779   -0.5066 N   0  0  0  0  0  0  0  0  0  0  0  0
  -17.4565    8.9986   -0.2887 N   0  0  0  0  0  0  0  0  0  0  0  0
  -17.2682   10.2303    0.1001 N   0  0  0  0  0  0  0  0  0  0  0  0
  -15.9799   10.5226    0.1675 N   0  0  0  0  0  0  0  0  0  0  0  0
  -19.3315    8.0118    1.8059 O   0  0  0  0  0  0  0  0  0  0  0  0
  -19.4215    4.5452    1.0881 O   0  0  0  0  0  0  0  0  0  0  0  0
  -21.2895    7.4654    0.2168 O   0  0  0  0  0  0  0  0  0  0  0  0
  -19.7115    9.9793   -1.7801 O   0  0  0  0  0  0  0  0  0  0  0  0
  -22.5157    9.5458   -0.7486 S   0  0  0  0  0  0  0  0  0  0  0  0
 20  1  1  0
  1 33  1  0
  1 35  1  1
  3  2  2  0
  2  7  1  0
  3 19  1  0
 35  3  1  0
  8  4  1  1
  4 32  1  0
  5  6  1  0
  5 20  1  0
  5 28  1  1
  6  8  1  0
  6 31  1  1
  7 16  2  0
  8 33  1  0
 15  9  2  0
  9 28  1  0
 27 10  1  0
 12 11  2  0
 11 22  1  0
 11 27  1  0
 13 12  1  0
 12 23  1  0
 14 13  2  0
 13 24  1  0
 14 15  1  0
 14 21  1  0
 15 30  1  0
 16 17  1  0
 16 18  1  0
 18 19  2  0
 20 34  1  6
 21 22  2  0
 21 25  1  0
 22 26  1  0
 28 29  1  0
 29 30  2  0
M  END
$$$$
