
     RDKit          3D

 35 38  0  0  0  0  0  0  0  0999 V2000
  -20.3230    8.4496   -0.7422 C   0  0  1  0  0  0  0  0  0  0  0  0
  -23.9282   10.3470    0.1808 C   0  0  0  0  0  0  0  0  0  0  0  0
  -22.9168    9.7430   -0.5124 C   0  0  0  0  0  0  0  0  0  0  0  0
  -20.7727    4.8597   -0.8889 C   0  0  0  0  0  0  0  0  0  0  0  0
  -18.0647    7.5002   -0.9517 C   0  0  1  0  0  0  0  0  0  0  0  0
  -18.6989    6.2054   -0.4973 C   0  0  2  0  0  0  0  0  0  0  0  0
  -25.2252   10.3918   -0.3202 C   0  0  0  0  0  0  0  0  0  0  0  0
  -20.1202    6.2117   -1.0608 C   0  0  2  0  0  0  0  0  0  0  0  0
  -15.9748    8.7457   -0.6558 C   0  0  0  0  0  0  0  0  0  0  0  0
  -10.0597   12.8899   -1.2110 C   0  0  0  0  0  0  0  0  0  0  0  0
  -11.5527   11.3505    0.0021 C   0  0  0  0  0  0  0  0  0  0  0  0
  -12.1377   10.9094    1.1598 C   0  0  0  0  0  0  0  0  0  0  0  0
  -13.1760    9.9692    1.0794 C   0  0  0  0  0  0  0  0  0  0  0  0
  -13.6027    9.4957   -0.1351 C   0  0  0  0  0  0  0  0  0  0  0  0
  -14.6704    8.5304   -0.1947 C   0  0  0  0  0  0  0  0  0  0  0  0
  -25.5041    9.8170   -1.5413 C   0  0  0  0  0  0  0  0  0  0  0  0
  -26.8966    9.8530   -2.1023 C   0  0  0  0  0  0  0  0  0  0  0  0
  -24.4641    9.2151   -2.2176 C   0  0  0  0  0  0  0  0  0  0  0  0
  -23.1733    9.1672   -1.7251 C   0  0  0  0  0  0  0  0  0  0  0  0
  -18.8718    8.6311   -0.3487 C   0  0  1  0  0  0  0  0  0  0  0  0
  -13.0122    9.9420   -1.2893 C   0  0  0  0  0  0  0  0  0  0  0  0
  -11.9718   10.8828   -1.2264 C   0  0  0  0  0  0  0  0  0  0  0  0
  -11.7187   11.3757    2.3700 F   0  0  0  0  0  0  0  0  0  0  0  0
  -13.7077    9.5780    2.2630 F   0  0  0  0  0  0  0  0  0  0  0  0
  -13.3758    9.5237   -2.5244 F   0  0  0  0  0  0  0  0  0  0  0  0
  -11.3882   11.3239   -2.3669 F   0  0  0  0  0  0  0  0  0  0  0  0
  -10.4965   12.3030    0.0306 N   0  0  0  0  0  0  0  0  0  0  0  0
  -16.6760    7.6059   -0.5541 N   0  0  0  0  0  0  0  0  0  0  0  0
  -15.8655    6.7122   -0.0561 N   0  0  0  0  0  0  0  0  0  0  0  0
  -14.6663    7.2225    0.1706 N   0  0  0  0  0  0  0  0  0  0  0  0
  -18.8431    6.1653    0.8968 O   0  0  0  0  0  0  0  0  0  0  0  0
  -22.0597    4.9598   -1.4152 O   0  0  0  0  0  0  0  0  0  0  0  0
  -20.8134    7.2100   -0.4007 O   0  0  0  0  0  0  0  0  0  0  0  0
  -18.4461    9.8496   -0.8759 O   0  0  0  0  0  0  0  0  0  0  0  0
  -21.2786    9.7068    0.1594 S   0  0  0  0  0  0  0  0  0  0  0  0
 20  1  1  0
  1 33  1  0
  1 35  1  1
  3  2  2  0
  2  7  1  0
  3 19  1  0
 35  3  1  0
  8  4  1  1
  4 32  1  0
  5  6  1  0
  5 20  1  0
  5 28  1  1
  6  8  1  0
  6 31  1  1
  7 16  2  0
  8 33  1  0
 15  9  2  0
  9 28  1  0
 27 10  1  0
 12 11  2  0
 11 22  1  0
 11 27  1  0
 13 12  1  0
 12 23  1  0
 14 13  2  0
 13 24  1  0
 14 15  1  0
 14 21  1  0
 15 30  1  0
 16 17  1  0
 16 18  1  0
 18 19  2  0
 20 34  1  6
 21 22  2  0
 21 25  1  0
 22 26  1  0
 28 29  1  0
 29 30  2  0
M  END
$$$$
