
     RDKit          3D

 35 38  0  0  0  0  0  0  0  0999 V2000
  -20.9323    8.2772   -1.2514 C   0  0  1  0  0  0  0  0  0  0  0  0
  -24.8727    8.3287   -0.8210 C   0  0  0  0  0  0  0  0  0  0  0  0
  -23.8015    8.5355   -1.6445 C   0  0  0  0  0  0  0  0  0  0  0  0
  -19.9406    5.3645    0.6576 C   0  0  0  0  0  0  0  0  0  0  0  0
  -18.4739    8.2663   -1.2758 C   0  0  1  0  0  0  0  0  0  0  0  0
  -18.5875    7.3320   -0.0929 C   0  0  2  0  0  0  0  0  0  0  0  0
  -26.0148    7.6719   -1.2675 C   0  0  0  0  0  0  0  0  0  0  0  0
  -19.8534    6.5073   -0.3271 C   0  0  2  0  0  0  0  0  0  0  0  0
  -16.0896    8.5889   -0.8094 C   0  0  0  0  0  0  0  0  0  0  0  0
   -9.3763    8.9476    1.9142 C   0  0  0  0  0  0  0  0  0  0  0  0
  -11.0536    9.3007    0.1443 C   0  0  0  0  0  0  0  0  0  0  0  0
  -11.4050    9.5106   -1.1632 C   0  0  0  0  0  0  0  0  0  0  0  0
  -12.7653    9.6080   -1.4926 C   0  0  0  0  0  0  0  0  0  0  0  0
  -13.7321    9.4958   -0.5261 C   0  0  0  0  0  0  0  0  0  0  0  0
  -15.1231    9.5990   -0.8863 C   0  0  0  0  0  0  0  0  0  0  0  0
  -26.0751    7.2169   -2.5669 C   0  0  0  0  0  0  0  0  0  0  0  0
  -27.2974    6.5052   -3.0712 C   0  0  0  0  0  0  0  0  0  0  0  0
  -24.9797    7.4397   -3.3742 C   0  0  0  0  0  0  0  0  0  0  0  0
  -23.8420    8.0917   -2.9366 C   0  0  0  0  0  0  0  0  0  0  0  0
  -19.6992    9.1563   -1.2640 C   0  0  1  0  0  0  0  0  0  0  0  0
  -13.3725    9.2858    0.7802 C   0  0  0  0  0  0  0  0  0  0  0  0
  -12.0154    9.1859    1.1268 C   0  0  0  0  0  0  0  0  0  0  0  0
  -10.4495    9.6231   -2.1287 F   0  0  0  0  0  0  0  0  0  0  0  0
  -13.0392    9.8157   -2.8035 F   0  0  0  0  0  0  0  0  0  0  0  0
  -14.2654    9.1644    1.7905 F   0  0  0  0  0  0  0  0  0  0  0  0
  -11.6601    8.9784    2.4177 F   0  0  0  0  0  0  0  0  0  0  0  0
   -9.6882    9.1948    0.5291 N   0  0  0  0  0  0  0  0  0  0  0  0
  -17.2689    9.0689   -1.2336 N   0  0  0  0  0  0  0  0  0  0  0  0
  -17.0677   10.3157   -1.5630 N   0  0  0  0  0  0  0  0  0  0  0  0
  -15.8071   10.6674   -1.3712 N   0  0  0  0  0  0  0  0  0  0  0  0
  -18.8082    8.0366    1.0991 O   0  0  0  0  0  0  0  0  0  0  0  0
  -20.7200    4.3738    0.0623 O   0  0  0  0  0  0  0  0  0  0  0  0
  -20.9270    7.3720   -0.2149 O   0  0  0  0  0  0  0  0  0  0  0  0
  -19.7420    9.9179   -2.4312 O   0  0  0  0  0  0  0  0  0  0  0  0
  -22.3654    9.3761   -1.0386 S   0  0  0  0  0  0  0  0  0  0  0  0
 20  1  1  0
  1 33  1  0
  1 35  1  1
  3  2  2  0
  2  7  1  0
  3 19  1  0
 35  3  1  0
  8  4  1  1
  4 32  1  0
  5  6  1  0
  5 20  1  0
  5 28  1  1
  6  8  1  0
  6 31  1  1
  7 16  2  0
  8 33  1  0
 15  9  2  0
  9 28  1  0
 27 10  1  0
 12 11  2  0
 11 22  1  0
 11 27  1  0
 13 12  1  0
 12 23  1  0
 14 13  2  0
 13 24  1  0
 14 15  1  0
 14 21  1  0
 15 30  1  0
 16 17  1  0
 16 18  1  0
 18 19  2  0
 20 34  1  6
 21 22  2  0
 21 25  1  0
 22 26  1  0
 28 29  1  0
 29 30  2  0
M  END
$$$$
