
     RDKit          3D

 35 38  0  0  0  0  0  0  0  0999 V2000
  -20.6615    8.5760   -0.1885 C   0  0  1  0  0  0  0  0  0  0  0  0
  -23.5672    9.5865   -0.4358 C   0  0  0  0  0  0  0  0  0  0  0  0
  -23.0890    9.8153    0.8240 C   0  0  0  0  0  0  0  0  0  0  0  0
  -21.4015    5.2374   -1.3791 C   0  0  0  0  0  0  0  0  0  0  0  0
  -18.5327    7.6781   -1.0292 C   0  0  1  0  0  0  0  0  0  0  0  0
  -19.1965    6.3251   -0.9105 C   0  0  2  0  0  0  0  0  0  0  0  0
  -24.8998    9.8203   -0.7595 C   0  0  0  0  0  0  0  0  0  0  0  0
  -20.6767    6.5534   -1.2179 C   0  0  2  0  0  0  0  0  0  0  0  0
  -16.3404    8.6970   -0.6270 C   0  0  0  0  0  0  0  0  0  0  0  0
  -10.2692   12.0882    1.7929 C   0  0  0  0  0  0  0  0  0  0  0  0
  -11.7039   10.8189    0.2433 C   0  0  0  0  0  0  0  0  0  0  0  0
  -12.3984   10.2957    1.3020 C   0  0  0  0  0  0  0  0  0  0  0  0
  -13.4963    9.4603    1.0465 C   0  0  0  0  0  0  0  0  0  0  0  0
  -13.8729    9.1685   -0.2397 C   0  0  0  0  0  0  0  0  0  0  0  0
  -15.0034    8.3083   -0.4794 C   0  0  0  0  0  0  0  0  0  0  0  0
  -25.7626   10.2929    0.2056 C   0  0  0  0  0  0  0  0  0  0  0  0
  -27.2052   10.5527   -0.1204 C   0  0  0  0  0  0  0  0  0  0  0  0
  -25.2519   10.5143    1.4672 C   0  0  0  0  0  0  0  0  0  0  0  0
  -23.9289   10.2840    1.7951 C   0  0  0  0  0  0  0  0  0  0  0  0
  -19.1606    8.5791    0.0138 C   0  0  1  0  0  0  0  0  0  0  0  0
  -13.1728    9.6960   -1.2940 C   0  0  0  0  0  0  0  0  0  0  0  0
  -12.0715   10.5339   -1.0557 C   0  0  0  0  0  0  0  0  0  0  0  0
  -12.0296   10.5815    2.5826 F   0  0  0  0  0  0  0  0  0  0  0  0
  -14.1358    8.9791    2.1402 F   0  0  0  0  0  0  0  0  0  0  0  0
  -13.4811    9.4560   -2.5902 F   0  0  0  0  0  0  0  0  0  0  0  0
  -11.3797   11.0551   -2.0975 F   0  0  0  0  0  0  0  0  0  0  0  0
  -10.5836   11.6710    0.4498 N   0  0  0  0  0  0  0  0  0  0  0  0
  -17.0987    7.6099   -0.8371 N   0  0  0  0  0  0  0  0  0  0  0  0
  -16.2920    6.5839   -0.8245 N   0  0  0  0  0  0  0  0  0  0  0  0
  -15.0405    6.9576   -0.6150 N   0  0  0  0  0  0  0  0  0  0  0  0
  -19.1516    5.8444    0.4060 O   0  0  0  0  0  0  0  0  0  0  0  0
  -22.6729    5.5312   -1.8697 O   0  0  0  0  0  0  0  0  0  0  0  0
  -21.1946    7.3073   -0.1805 O   0  0  0  0  0  0  0  0  0  0  0  0
  -18.7186    9.8893   -0.1649 O   0  0  0  0  0  0  0  0  0  0  0  0
  -21.3857    9.5052    1.1967 S   0  0  0  0  0  0  0  0  0  0  0  0
 20  1  1  0
  1 33  1  0
  1 35  1  1
  3  2  2  0
  2  7  1  0
  3 19  1  0
 35  3  1  0
  8  4  1  1
  4 32  1  0
  5  6  1  0
  5 20  1  0
  5 28  1  1
  6  8  1  0
  6 31  1  1
  7 16  2  0
  8 33  1  0
 15  9  2  0
  9 28  1  0
 27 10  1  0
 12 11  2  0
 11 22  1  0
 11 27  1  0
 13 12  1  0
 12 23  1  0
 14 13  2  0
 13 24  1  0
 14 15  1  0
 14 21  1  0
 15 30  1  0
 16 17  1  0
 16 18  1  0
 18 19  2  0
 20 34  1  6
 21 22  2  0
 21 25  1  0
 22 26  1  0
 28 29  1  0
 29 30  2  0
M  END
$$$$
