
     RDKit          3D

 35 38  0  0  0  0  0  0  0  0999 V2000
  -20.6619    8.2420   -0.9200 C   0  0  1  0  0  0  0  0  0  0  0  0
  -23.1691    6.5516    1.9208 C   0  0  0  0  0  0  0  0  0  0  0  0
  -22.7705    7.1536    0.7602 C   0  0  0  0  0  0  0  0  0  0  0  0
  -20.5462    8.6026   -4.5211 C   0  0  0  0  0  0  0  0  0  0  0  0
  -18.7564    9.7249   -1.3832 C   0  0  1  0  0  0  0  0  0  0  0  0
  -18.8318    9.1809   -2.7916 C   0  0  2  0  0  0  0  0  0  0  0  0
  -24.4234    6.7952    2.4708 C   0  0  0  0  0  0  0  0  0  0  0  0
  -20.3124    8.9108   -3.0604 C   0  0  2  0  0  0  0  0  0  0  0  0
  -16.5346    9.2384   -0.4703 C   0  0  0  0  0  0  0  0  0  0  0  0
   -9.8696    6.7506    1.2584 C   0  0  0  0  0  0  0  0  0  0  0  0
  -11.8324    8.2298    1.4319 C   0  0  0  0  0  0  0  0  0  0  0  0
  -12.1401    7.9895    0.1187 C   0  0  0  0  0  0  0  0  0  0  0  0
  -13.3079    8.5522   -0.4181 C   0  0  0  0  0  0  0  0  0  0  0  0
  -14.1319    9.3308    0.3539 C   0  0  0  0  0  0  0  0  0  0  0  0
  -15.3261    9.8988   -0.2175 C   0  0  0  0  0  0  0  0  0  0  0  0
  -25.2885    7.6611    1.8375 C   0  0  0  0  0  0  0  0  0  0  0  0
  -26.6475    7.9395    2.4123 C   0  0  0  0  0  0  0  0  0  0  0  0
  -24.8591    8.2535    0.6687 C   0  0  0  0  0  0  0  0  0  0  0  0
  -23.6141    8.0155    0.1172 C   0  0  0  0  0  0  0  0  0  0  0  0
  -19.2778    8.6461   -0.4569 C   0  0  1  0  0  0  0  0  0  0  0  0
  -13.8172    9.5667    1.6674 C   0  0  0  0  0  0  0  0  0  0  0  0
  -12.6521    9.0110    2.2202 C   0  0  0  0  0  0  0  0  0  0  0  0
  -11.3259    7.2167   -0.6543 F   0  0  0  0  0  0  0  0  0  0  0  0
  -13.5492    8.2728   -1.7222 F   0  0  0  0  0  0  0  0  0  0  0  0
  -14.5776   10.3229    2.4936 F   0  0  0  0  0  0  0  0  0  0  0  0
  -12.3410    9.2441    3.5181 F   0  0  0  0  0  0  0  0  0  0  0  0
  -10.6600    7.6821    2.0228 N   0  0  0  0  0  0  0  0  0  0  0  0
  -17.4096   10.1028   -1.0071 N   0  0  0  0  0  0  0  0  0  0  0  0
  -16.7952   11.2512   -1.0927 N   0  0  0  0  0  0  0  0  0  0  0  0
  -15.5571   11.1705   -0.6342 N   0  0  0  0  0  0  0  0  0  0  0  0
  -18.1934    7.9368   -2.8968 O   0  0  0  0  0  0  0  0  0  0  0  0
  -21.8990    8.2960   -4.6601 O   0  0  0  0  0  0  0  0  0  0  0  0
  -20.6880    7.8610   -2.2420 O   0  0  0  0  0  0  0  0  0  0  0  0
  -19.4020    9.1523    0.8363 O   0  0  0  0  0  0  0  0  0  0  0  0
  -21.1654    6.8174    0.0919 S   0  0  0  0  0  0  0  0  0  0  0  0
 20  1  1  0
  1 33  1  0
  1 35  1  1
  3  2  2  0
  2  7  1  0
  3 19  1  0
 35  3  1  0
  8  4  1  6
  4 32  1  0
  5  6  1  0
  5 20  1  0
  5 28  1  1
  6  8  1  0
  6 31  1  1
  7 16  2  0
  8 33  1  0
 15  9  2  0
  9 28  1  0
 27 10  1  0
 12 11  2  0
 11 22  1  0
 11 27  1  0
 13 12  1  0
 12 23  1  0
 14 13  2  0
 13 24  1  0
 14 15  1  0
 14 21  1  0
 15 30  1  0
 16 17  1  0
 16 18  1  0
 18 19  2  0
 20 34  1  1
 21 22  2  0
 21 25  1  0
 22 26  1  0
 28 29  1  0
 29 30  2  0
M  END
$$$$
