
     RDKit          3D

 35 38  0  0  0  0  0  0  0  0999 V2000
  -20.8623    8.3113   -0.7282 C   0  0  1  0  0  0  0  0  0  0  0  0
  -23.5770    8.4897   -2.1648 C   0  0  0  0  0  0  0  0  0  0  0  0
  -23.6019    9.2396   -1.0224 C   0  0  0  0  0  0  0  0  0  0  0  0
  -20.4697    4.7257   -0.4097 C   0  0  0  0  0  0  0  0  0  0  0  0
  -18.4381    7.9012   -0.7239 C   0  0  1  0  0  0  0  0  0  0  0  0
  -18.7892    6.5587   -0.1243 C   0  0  2  0  0  0  0  0  0  0  0  0
  -24.7098    8.3381   -2.9579 C   0  0  0  0  0  0  0  0  0  0  0  0
  -20.1330    6.1621   -0.7364 C   0  0  2  0  0  0  0  0  0  0  0  0
  -16.1717    8.7298   -1.1518 C   0  0  0  0  0  0  0  0  0  0  0  0
   -9.1940   11.5697   -1.6950 C   0  0  0  0  0  0  0  0  0  0  0  0
  -11.3901   10.5020   -2.0234 C   0  0  0  0  0  0  0  0  0  0  0  0
  -12.3296   11.4131   -1.6182 C   0  0  0  0  0  0  0  0  0  0  0  0
  -13.5431   10.9468   -1.0904 C   0  0  0  0  0  0  0  0  0  0  0  0
  -13.7906    9.6024   -0.9793 C   0  0  0  0  0  0  0  0  0  0  0  0
  -15.0434    9.1453   -0.4344 C   0  0  0  0  0  0  0  0  0  0  0  0
  -25.8864    8.9544   -2.5902 C   0  0  0  0  0  0  0  0  0  0  0  0
  -27.1219    8.8051   -3.4305 C   0  0  0  0  0  0  0  0  0  0  0  0
  -25.8813    9.7043   -1.4331 C   0  0  0  0  0  0  0  0  0  0  0  0
  -24.7591    9.8587   -0.6408 C   0  0  0  0  0  0  0  0  0  0  0  0
  -19.5209    8.8752   -0.3084 C   0  0  1  0  0  0  0  0  0  0  0  0
  -12.8454    8.6966   -1.3870 C   0  0  0  0  0  0  0  0  0  0  0  0
  -11.6256    9.1466   -1.9175 C   0  0  0  0  0  0  0  0  0  0  0  0
  -12.0902   12.7506   -1.7256 F   0  0  0  0  0  0  0  0  0  0  0  0
  -14.4248   11.9033   -0.7103 F   0  0  0  0  0  0  0  0  0  0  0  0
  -13.0138    7.3555   -1.3103 F   0  0  0  0  0  0  0  0  0  0  0  0
  -10.6916    8.2517   -2.3204 F   0  0  0  0  0  0  0  0  0  0  0  0
  -10.1443   10.9242   -2.5651 N   0  0  0  0  0  0  0  0  0  0  0  0
  -17.1403    8.3779   -0.2922 N   0  0  0  0  0  0  0  0  0  0  0  0
  -16.6584    8.5583    0.9074 N   0  0  0  0  0  0  0  0  0  0  0  0
  -15.4170    9.0128    0.8645 N   0  0  0  0  0  0  0  0  0  0  0  0
  -19.0144    6.6554    1.2563 O   0  0  0  0  0  0  0  0  0  0  0  0
  -21.3924    4.2978   -1.3631 O   0  0  0  0  0  0  0  0  0  0  0  0
  -21.0788    7.0420   -0.2425 O   0  0  0  0  0  0  0  0  0  0  0  0
  -19.3499   10.0864   -0.9776 O   0  0  0  0  0  0  0  0  0  0  0  0
  -22.1384    9.4084   -0.0395 S   0  0  0  0  0  0  0  0  0  0  0  0
 20  1  1  0
  1 33  1  0
  1 35  1  1
  3  2  2  0
  2  7  1  0
  3 19  1  0
 35  3  1  0
  8  4  1  1
  4 32  1  0
  5  6  1  0
  5 20  1  0
  5 28  1  1
  6  8  1  0
  6 31  1  1
  7 16  2  0
  8 33  1  0
 15  9  2  0
  9 28  1  0
 27 10  1  0
 12 11  2  0
 11 22  1  0
 11 27  1  0
 13 12  1  0
 12 23  1  0
 14 13  2  0
 13 24  1  0
 14 15  1  0
 14 21  1  0
 15 30  1  0
 16 17  1  0
 16 18  1  0
 18 19  2  0
 20 34  1  6
 21 22  2  0
 21 25  1  0
 22 26  1  0
 28 29  1  0
 29 30  2  0
M  END
$$$$
