
     RDKit          3D

 35 38  0  0  0  0  0  0  0  0999 V2000
  -20.5131    8.7726   -0.2709 C   0  0  1  0  0  0  0  0  0  0  0  0
  -23.9792    9.2692    1.4414 C   0  0  0  0  0  0  0  0  0  0  0  0
  -23.0381    9.8756    0.6573 C   0  0  0  0  0  0  0  0  0  0  0  0
  -21.2538    5.4592   -1.5295 C   0  0  0  0  0  0  0  0  0  0  0  0
  -18.3509    7.8118   -0.9393 C   0  0  1  0  0  0  0  0  0  0  0  0
  -19.0624    6.4794   -0.8797 C   0  0  2  0  0  0  0  0  0  0  0  0
  -25.3368    9.3715    1.1556 C   0  0  0  0  0  0  0  0  0  0  0  0
  -20.5053    6.7525   -1.3053 C   0  0  2  0  0  0  0  0  0  0  0  0
  -16.1122    8.7565   -0.6197 C   0  0  0  0  0  0  0  0  0  0  0  0
  -10.0824   12.4487    1.2757 C   0  0  0  0  0  0  0  0  0  0  0  0
  -11.3852   10.7328    0.0802 C   0  0  0  0  0  0  0  0  0  0  0  0
  -12.3783   10.8259    1.0195 C   0  0  0  0  0  0  0  0  0  0  0  0
  -13.5179   10.0189    0.8838 C   0  0  0  0  0  0  0  0  0  0  0  0
  -13.6417    9.1491   -0.1695 C   0  0  0  0  0  0  0  0  0  0  0  0
  -14.8203    8.3296   -0.2895 C   0  0  0  0  0  0  0  0  0  0  0  0
  -25.7495   10.0984    0.0599 C   0  0  0  0  0  0  0  0  0  0  0  0
  -27.2095   10.2228   -0.2683 C   0  0  0  0  0  0  0  0  0  0  0  0
  -24.7778   10.6988   -0.7124 C   0  0  0  0  0  0  0  0  0  0  0  0
  -23.4274   10.6009   -0.4338 C   0  0  0  0  0  0  0  0  0  0  0  0
  -19.0341    8.7302    0.0525 C   0  0  1  0  0  0  0  0  0  0  0  0
  -12.6435    9.0616   -1.1055 C   0  0  0  0  0  0  0  0  0  0  0  0
  -11.4963    9.8623   -0.9845 C   0  0  0  0  0  0  0  0  0  0  0  0
  -12.2619   11.6881    2.0687 F   0  0  0  0  0  0  0  0  0  0  0  0
  -14.4587   10.1635    1.8485 F   0  0  0  0  0  0  0  0  0  0  0  0
  -12.6905    8.2292   -2.1721 F   0  0  0  0  0  0  0  0  0  0  0  0
  -10.5100    9.7759   -1.9093 F   0  0  0  0  0  0  0  0  0  0  0  0
  -10.2104   11.5295    0.1732 N   0  0  0  0  0  0  0  0  0  0  0  0
  -16.9399    7.7002   -0.6319 N   0  0  0  0  0  0  0  0  0  0  0  0
  -16.2178    6.6566   -0.3267 N   0  0  0  0  0  0  0  0  0  0  0  0
  -14.9550    6.9893   -0.1164 N   0  0  0  0  0  0  0  0  0  0  0  0
  -19.1390    5.9960    0.4343 O   0  0  0  0  0  0  0  0  0  0  0  0
  -22.6131    5.7677   -1.5088 O   0  0  0  0  0  0  0  0  0  0  0  0
  -21.0828    7.5206   -0.3106 O   0  0  0  0  0  0  0  0  0  0  0  0
  -18.5399   10.0266   -0.0851 O   0  0  0  0  0  0  0  0  0  0  0  0
  -21.3191    9.7217    1.0543 S   0  0  0  0  0  0  0  0  0  0  0  0
 20  1  1  0
  1 33  1  0
  1 35  1  1
  3  2  2  0
  2  7  1  0
  3 19  1  0
 35  3  1  0
  8  4  1  1
  4 32  1  0
  5  6  1  0
  5 20  1  0
  5 28  1  1
  6  8  1  0
  6 31  1  1
  7 16  2  0
  8 33  1  0
 15  9  2  0
  9 28  1  0
 27 10  1  0
 12 11  2  0
 11 22  1  0
 11 27  1  0
 13 12  1  0
 12 23  1  0
 14 13  2  0
 13 24  1  0
 14 15  1  0
 14 21  1  0
 15 30  1  0
 16 17  1  0
 16 18  1  0
 18 19  2  0
 20 34  1  6
 21 22  2  0
 21 25  1  0
 22 26  1  0
 28 29  1  0
 29 30  2  0
M  END
$$$$
