
     RDKit          3D

 35 38  0  0  0  0  0  0  0  0999 V2000
  -20.7905    8.2315   -0.8381 C   0  0  1  0  0  0  0  0  0  0  0  0
  -24.4395   10.1201    0.0106 C   0  0  0  0  0  0  0  0  0  0  0  0
  -23.4668    9.3242   -0.5264 C   0  0  0  0  0  0  0  0  0  0  0  0
  -20.7836    4.6437   -0.3488 C   0  0  0  0  0  0  0  0  0  0  0  0
  -18.4719    7.5084   -1.2203 C   0  0  1  0  0  0  0  0  0  0  0  0
  -18.8702    6.2521   -0.4799 C   0  0  2  0  0  0  0  0  0  0  0  0
  -25.7720    9.9934   -0.3687 C   0  0  0  0  0  0  0  0  0  0  0  0
  -20.3394    6.0072   -0.8250 C   0  0  2  0  0  0  0  0  0  0  0  0
  -16.5046    8.9237   -1.5848 C   0  0  0  0  0  0  0  0  0  0  0  0
  -10.3358   12.5662   -3.6304 C   0  0  0  0  0  0  0  0  0  0  0  0
  -12.3244   11.8768   -2.3494 C   0  0  0  0  0  0  0  0  0  0  0  0
  -12.1511   10.5814   -2.7603 C   0  0  0  0  0  0  0  0  0  0  0  0
  -13.0997    9.6182   -2.3848 C   0  0  0  0  0  0  0  0  0  0  0  0
  -14.1847    9.9616   -1.6193 C   0  0  0  0  0  0  0  0  0  0  0  0
  -15.1467    8.9567   -1.2452 C   0  0  0  0  0  0  0  0  0  0  0  0
  -26.1266    9.0469   -1.3055 C   0  0  0  0  0  0  0  0  0  0  0  0
  -27.5585    8.8917   -1.7304 C   0  0  0  0  0  0  0  0  0  0  0  0
  -25.1241    8.2585   -1.8296 C   0  0  0  0  0  0  0  0  0  0  0  0
  -23.7984    8.3796   -1.4569 C   0  0  0  0  0  0  0  0  0  0  0  0
  -19.3376    8.6336   -0.6929 C   0  0  1  0  0  0  0  0  0  0  0  0
  -14.3512   11.2602   -1.2120 C   0  0  0  0  0  0  0  0  0  0  0  0
  -13.4110   12.2365   -1.5790 C   0  0  0  0  0  0  0  0  0  0  0  0
  -11.0752   10.2332   -3.5212 F   0  0  0  0  0  0  0  0  0  0  0  0
  -12.8647    8.3586   -2.8263 F   0  0  0  0  0  0  0  0  0  0  0  0
  -15.3936   11.6781   -0.4560 F   0  0  0  0  0  0  0  0  0  0  0  0
  -13.5755   13.5197   -1.1766 F   0  0  0  0  0  0  0  0  0  0  0  0
  -11.3908   12.8901   -2.7037 N   0  0  0  0  0  0  0  0  0  0  0  0
  -17.0700    7.8303   -1.0501 N   0  0  0  0  0  0  0  0  0  0  0  0
  -16.1267    7.1998   -0.4050 N   0  0  0  0  0  0  0  0  0  0  0  0
  -14.9711    7.8368   -0.4973 N   0  0  0  0  0  0  0  0  0  0  0  0
  -18.8325    6.4403    0.9091 O   0  0  0  0  0  0  0  0  0  0  0  0
  -22.1498    4.5476   -0.6091 O   0  0  0  0  0  0  0  0  0  0  0  0
  -21.0688    7.0250   -0.2375 O   0  0  0  0  0  0  0  0  0  0  0  0
  -19.1436    9.7802   -1.4621 O   0  0  0  0  0  0  0  0  0  0  0  0
  -21.7815    9.5164   -0.0175 S   0  0  0  0  0  0  0  0  0  0  0  0
 20  1  1  0
  1 33  1  0
  1 35  1  1
  3  2  2  0
  2  7  1  0
  3 19  1  0
 35  3  1  0
  8  4  1  1
  4 32  1  0
  5  6  1  0
  5 20  1  0
  5 28  1  1
  6  8  1  0
  6 31  1  1
  7 16  2  0
  8 33  1  0
 15  9  2  0
  9 28  1  0
 27 10  1  0
 12 11  2  0
 11 22  1  0
 11 27  1  0
 13 12  1  0
 12 23  1  0
 14 13  2  0
 13 24  1  0
 14 15  1  0
 14 21  1  0
 15 30  1  0
 16 17  1  0
 16 18  1  0
 18 19  2  0
 20 34  1  6
 21 22  2  0
 21 25  1  0
 22 26  1  0
 28 29  1  0
 29 30  2  0
M  END
$$$$
