
     RDKit          3D

 35 38  0  0  0  0  0  0  0  0999 V2000
  -20.1903    8.1248   -1.2949 C   0  0  1  0  0  0  0  0  0  0  0  0
  -23.1638   10.7672   -2.1474 C   0  0  0  0  0  0  0  0  0  0  0  0
  -22.6503    9.6551   -1.5411 C   0  0  0  0  0  0  0  0  0  0  0  0
  -20.7351    4.7867   -0.0018 C   0  0  0  0  0  0  0  0  0  0  0  0
  -17.9904    7.0274   -1.3270 C   0  0  1  0  0  0  0  0  0  0  0  0
  -18.6008    6.0468   -0.3518 C   0  0  2  0  0  0  0  0  0  0  0  0
  -24.4458   10.7724   -2.6874 C   0  0  0  0  0  0  0  0  0  0  0  0
  -20.0744    5.9268   -0.7414 C   0  0  2  0  0  0  0  0  0  0  0  0
  -15.9985    8.3742   -0.8530 C   0  0  0  0  0  0  0  0  0  0  0  0
   -9.7105   11.8417    1.2954 C   0  0  0  0  0  0  0  0  0  0  0  0
  -11.7831   11.2035    0.1260 C   0  0  0  0  0  0  0  0  0  0  0  0
  -12.5215   11.2783   -1.0256 C   0  0  0  0  0  0  0  0  0  0  0  0
  -13.4620   10.2725   -1.2947 C   0  0  0  0  0  0  0  0  0  0  0  0
  -13.6437    9.2291   -0.4232 C   0  0  0  0  0  0  0  0  0  0  0  0
  -14.6148    8.2070   -0.7191 C   0  0  0  0  0  0  0  0  0  0  0  0
  -25.2209    9.6354   -2.6133 C   0  0  0  0  0  0  0  0  0  0  0  0
  -26.6077    9.6173   -3.1891 C   0  0  0  0  0  0  0  0  0  0  0  0
  -24.6765    8.5291   -1.9961 C   0  0  0  0  0  0  0  0  0  0  0  0
  -23.4034    8.5176   -1.4576 C   0  0  0  0  0  0  0  0  0  0  0  0
  -18.7012    8.3511   -1.1365 C   0  0  1  0  0  0  0  0  0  0  0  0
  -12.9008    9.1612    0.7273 C   0  0  0  0  0  0  0  0  0  0  0  0
  -11.9554   10.1597    1.0117 C   0  0  0  0  0  0  0  0  0  0  0  0
  -12.3461   12.3124   -1.8960 F   0  0  0  0  0  0  0  0  0  0  0  0
  -14.1558   10.4106   -2.4506 F   0  0  0  0  0  0  0  0  0  0  0  0
  -13.0210    8.1653    1.6364 F   0  0  0  0  0  0  0  0  0  0  0  0
  -11.2213   10.0927    2.1485 F   0  0  0  0  0  0  0  0  0  0  0  0
  -10.8172   12.1983    0.4441 N   0  0  0  0  0  0  0  0  0  0  0  0
  -16.5647    7.1894   -1.1298 N   0  0  0  0  0  0  0  0  0  0  0  0
  -15.5975    6.3139   -1.1706 N   0  0  0  0  0  0  0  0  0  0  0  0
  -14.4256    6.8791   -0.9319 N   0  0  0  0  0  0  0  0  0  0  0  0
  -18.5937    6.5512    0.9565 O   0  0  0  0  0  0  0  0  0  0  0  0
  -22.0234    4.6594   -0.5188 O   0  0  0  0  0  0  0  0  0  0  0  0
  -20.6689    7.1430   -0.4578 O   0  0  0  0  0  0  0  0  0  0  0  0
  -18.3077    9.2467   -2.1300 O   0  0  0  0  0  0  0  0  0  0  0  0
  -21.0135    9.6883   -0.8656 S   0  0  0  0  0  0  0  0  0  0  0  0
 20  1  1  0
  1 33  1  0
  1 35  1  1
  3  2  2  0
  2  7  1  0
  3 19  1  0
 35  3  1  0
  8  4  1  1
  4 32  1  0
  5  6  1  0
  5 20  1  0
  5 28  1  1
  6  8  1  0
  6 31  1  1
  7 16  2  0
  8 33  1  0
 15  9  2  0
  9 28  1  0
 27 10  1  0
 12 11  2  0
 11 22  1  0
 11 27  1  0
 13 12  1  0
 12 23  1  0
 14 13  2  0
 13 24  1  0
 14 15  1  0
 14 21  1  0
 15 30  1  0
 16 17  1  0
 16 18  1  0
 18 19  2  0
 20 34  1  6
 21 22  2  0
 21 25  1  0
 22 26  1  0
 28 29  1  0
 29 30  2  0
M  END
$$$$
