
     RDKit          3D

 35 38  0  0  0  0  0  0  0  0999 V2000
  -20.8395    8.6337   -0.1718 C   0  0  1  0  0  0  0  0  0  0  0  0
  -24.0918   10.9586    0.5636 C   0  0  0  0  0  0  0  0  0  0  0  0
  -23.4745    9.7672    0.3035 C   0  0  0  0  0  0  0  0  0  0  0  0
  -21.0003    5.3720   -1.7361 C   0  0  0  0  0  0  0  0  0  0  0  0
  -18.5070    7.9682   -0.5731 C   0  0  1  0  0  0  0  0  0  0  0  0
  -19.0573    6.5665   -0.7050 C   0  0  2  0  0  0  0  0  0  0  0  0
  -25.3057   11.2912   -0.0288 C   0  0  0  0  0  0  0  0  0  0  0  0
  -20.4486    6.7161   -1.3211 C   0  0  2  0  0  0  0  0  0  0  0  0
  -16.1486    8.6243   -0.6926 C   0  0  0  0  0  0  0  0  0  0  0  0
   -9.0624   11.0947   -0.2192 C   0  0  0  0  0  0  0  0  0  0  0  0
  -11.1624    9.9993   -0.8980 C   0  0  0  0  0  0  0  0  0  0  0  0
  -11.5875    9.9951    0.4044 C   0  0  0  0  0  0  0  0  0  0  0  0
  -12.8574    9.4779    0.7016 C   0  0  0  0  0  0  0  0  0  0  0  0
  -13.6647    8.9834   -0.2909 C   0  0  0  0  0  0  0  0  0  0  0  0
  -14.9651    8.4571    0.0365 C   0  0  0  0  0  0  0  0  0  0  0  0
  -25.9051   10.4053   -0.8978 C   0  0  0  0  0  0  0  0  0  0  0  0
  -27.2155   10.7425   -1.5492 C   0  0  0  0  0  0  0  0  0  0  0  0
  -25.2592    9.2116   -1.1410 C   0  0  0  0  0  0  0  0  0  0  0  0
  -24.0529    8.8753   -0.5555 C   0  0  0  0  0  0  0  0  0  0  0  0
  -19.4257    8.7248    0.3635 C   0  0  1  0  0  0  0  0  0  0  0  0
  -13.2321    8.9911   -1.5920 C   0  0  0  0  0  0  0  0  0  0  0  0
  -11.9638    9.5051   -1.9065 C   0  0  0  0  0  0  0  0  0  0  0  0
  -10.7905   10.4849    1.3957 F   0  0  0  0  0  0  0  0  0  0  0  0
  -13.2120    9.5055    2.0094 F   0  0  0  0  0  0  0  0  0  0  0  0
  -13.9684    8.5219   -2.6267 F   0  0  0  0  0  0  0  0  0  0  0  0
  -11.5364    9.5128   -3.1922 F   0  0  0  0  0  0  0  0  0  0  0  0
   -9.8834   10.5126   -1.2507 N   0  0  0  0  0  0  0  0  0  0  0  0
  -17.1496    7.9847   -0.0680 N   0  0  0  0  0  0  0  0  0  0  0  0
  -16.6349    7.4392    1.0002 N   0  0  0  0  0  0  0  0  0  0  0  0
  -15.3411    7.6969    1.0972 N   0  0  0  0  0  0  0  0  0  0  0  0
  -19.2592    5.9734    0.5494 O   0  0  0  0  0  0  0  0  0  0  0  0
  -22.2321    5.6087   -2.3444 O   0  0  0  0  0  0  0  0  0  0  0  0
  -21.2461    7.3349   -0.3757 O   0  0  0  0  0  0  0  0  0  0  0  0
  -19.0738   10.0737    0.3840 O   0  0  0  0  0  0  0  0  0  0  0  0
  -21.9293    9.3806    1.0776 S   0  0  0  0  0  0  0  0  0  0  0  0
 20  1  1  0
  1 33  1  0
  1 35  1  1
  3  2  2  0
  2  7  1  0
  3 19  1  0
 35  3  1  0
  8  4  1  1
  4 32  1  0
  5  6  1  0
  5 20  1  0
  5 28  1  1
  6  8  1  0
  6 31  1  1
  7 16  2  0
  8 33  1  0
 15  9  2  0
  9 28  1  0
 27 10  1  0
 12 11  2  0
 11 22  1  0
 11 27  1  0
 13 12  1  0
 12 23  1  0
 14 13  2  0
 13 24  1  0
 14 15  1  0
 14 21  1  0
 15 30  1  0
 16 17  1  0
 16 18  1  0
 18 19  2  0
 20 34  1  6
 21 22  2  0
 21 25  1  0
 22 26  1  0
 28 29  1  0
 29 30  2  0
M  END
$$$$
