
     RDKit          3D

 35 38  0  0  0  0  0  0  0  0999 V2000
  -20.7758    8.6939   -0.2533 C   0  0  1  0  0  0  0  0  0  0  0  0
  -24.2653   10.2189    1.4907 C   0  0  0  0  0  0  0  0  0  0  0  0
  -23.2765    9.9070    0.6000 C   0  0  0  0  0  0  0  0  0  0  0  0
  -21.3046    5.7703   -2.3233 C   0  0  0  0  0  0  0  0  0  0  0  0
  -18.5360    7.9406   -0.9323 C   0  0  1  0  0  0  0  0  0  0  0  0
  -19.2090    6.6260   -1.2548 C   0  0  2  0  0  0  0  0  0  0  0  0
  -25.4978   10.7043    1.0657 C   0  0  0  0  0  0  0  0  0  0  0  0
  -20.6178    6.9795   -1.7322 C   0  0  2  0  0  0  0  0  0  0  0  0
  -16.2564    8.7685   -0.5802 C   0  0  0  0  0  0  0  0  0  0  0  0
   -9.5254   11.6303   -0.9095 C   0  0  0  0  0  0  0  0  0  0  0  0
  -11.4328   10.4860    0.1503 C   0  0  0  0  0  0  0  0  0  0  0  0
  -11.7940    9.9361   -1.0514 C   0  0  0  0  0  0  0  0  0  0  0  0
  -12.9911    9.2088   -1.1319 C   0  0  0  0  0  0  0  0  0  0  0  0
  -13.7907    9.0474   -0.0293 C   0  0  0  0  0  0  0  0  0  0  0  0
  -15.0158    8.2968   -0.1342 C   0  0  0  0  0  0  0  0  0  0  0  0
  -25.7344   10.8771   -0.2809 C   0  0  0  0  0  0  0  0  0  0  0  0
  -27.0570   11.3997   -0.7632 C   0  0  0  0  0  0  0  0  0  0  0  0
  -24.7186   10.5541   -1.1556 C   0  0  0  0  0  0  0  0  0  0  0  0
  -23.4919   10.0714   -0.7396 C   0  0  0  0  0  0  0  0  0  0  0  0
  -19.3293    8.5891    0.1830 C   0  0  1  0  0  0  0  0  0  0  0  0
  -13.4224    9.6007    1.1699 C   0  0  0  0  0  0  0  0  0  0  0  0
  -12.2274   10.3316    1.2676 C   0  0  0  0  0  0  0  0  0  0  0  0
  -11.0041   10.0925   -2.1511 F   0  0  0  0  0  0  0  0  0  0  0  0
  -13.2851    8.6937   -2.3505 F   0  0  0  0  0  0  0  0  0  0  0  0
  -14.1560    9.4865    2.3020 F   0  0  0  0  0  0  0  0  0  0  0  0
  -11.8634   10.8784    2.4526 F   0  0  0  0  0  0  0  0  0  0  0  0
  -10.2289   11.2321    0.2835 N   0  0  0  0  0  0  0  0  0  0  0  0
  -17.1538    7.7718   -0.5338 N   0  0  0  0  0  0  0  0  0  0  0  0
  -16.5225    6.7218   -0.0835 N   0  0  0  0  0  0  0  0  0  0  0  0
  -15.2520    6.9933    0.1651 N   0  0  0  0  0  0  0  0  0  0  0  0
  -19.3830    5.8420   -0.1053 O   0  0  0  0  0  0  0  0  0  0  0  0
  -22.6503    6.1011   -2.4751 O   0  0  0  0  0  0  0  0  0  0  0  0
  -21.3015    7.4824   -0.6401 O   0  0  0  0  0  0  0  0  0  0  0  0
  -18.8649    9.8854    0.4021 O   0  0  0  0  0  0  0  0  0  0  0  0
  -21.7209    9.2914    1.1807 S   0  0  0  0  0  0  0  0  0  0  0  0
 20  1  1  0
  1 33  1  0
  1 35  1  1
  3  2  2  0
  2  7  1  0
  3 19  1  0
 35  3  1  0
  8  4  1  1
  4 32  1  0
  5  6  1  0
  5 20  1  0
  5 28  1  1
  6  8  1  0
  6 31  1  1
  7 16  2  0
  8 33  1  0
 15  9  2  0
  9 28  1  0
 27 10  1  0
 12 11  2  0
 11 22  1  0
 11 27  1  0
 13 12  1  0
 12 23  1  0
 14 13  2  0
 13 24  1  0
 14 15  1  0
 14 21  1  0
 15 30  1  0
 16 17  1  0
 16 18  1  0
 18 19  2  0
 20 34  1  6
 21 22  2  0
 21 25  1  0
 22 26  1  0
 28 29  1  0
 29 30  2  0
M  END
$$$$
