
     RDKit          3D

 35 38  0  0  0  0  0  0  0  0999 V2000
  -20.8581    8.2995   -0.8922 C   0  0  1  0  0  0  0  0  0  0  0  0
  -24.3928    9.7455   -1.6554 C   0  0  0  0  0  0  0  0  0  0  0  0
  -23.6799    8.9890   -0.7678 C   0  0  0  0  0  0  0  0  0  0  0  0
  -19.8259    5.1127    0.4827 C   0  0  0  0  0  0  0  0  0  0  0  0
  -18.4869    8.0486   -1.4914 C   0  0  1  0  0  0  0  0  0  0  0  0
  -18.4461    7.0069   -0.3967 C   0  0  2  0  0  0  0  0  0  0  0  0
  -25.6644    9.3671   -2.0737 C   0  0  0  0  0  0  0  0  0  0  0  0
  -19.8227    6.3417   -0.3964 C   0  0  2  0  0  0  0  0  0  0  0  0
  -16.1451    8.4603   -0.8971 C   0  0  0  0  0  0  0  0  0  0  0  0
   -9.5324   10.3989    1.8327 C   0  0  0  0  0  0  0  0  0  0  0  0
  -11.2066    9.3670    0.3485 C   0  0  0  0  0  0  0  0  0  0  0  0
  -12.1301   10.3038    0.7312 C   0  0  0  0  0  0  0  0  0  0  0  0
  -13.4155   10.2572    0.1709 C   0  0  0  0  0  0  0  0  0  0  0  0
  -13.7482    9.2923   -0.7453 C   0  0  0  0  0  0  0  0  0  0  0  0
  -15.0740    9.2628   -1.3081 C   0  0  0  0  0  0  0  0  0  0  0  0
  -26.2242    8.2055   -1.5872 C   0  0  0  0  0  0  0  0  0  0  0  0
  -27.5953    7.7769   -2.0244 C   0  0  0  0  0  0  0  0  0  0  0  0
  -25.4817    7.4631   -0.6934 C   0  0  0  0  0  0  0  0  0  0  0  0
  -24.2178    7.8337   -0.2739 C   0  0  0  0  0  0  0  0  0  0  0  0
  -19.5617    9.0487   -1.1194 C   0  0  1  0  0  0  0  0  0  0  0  0
  -12.8184    8.3581   -1.1233 C   0  0  0  0  0  0  0  0  0  0  0  0
  -11.5273    8.3906   -0.5722 C   0  0  0  0  0  0  0  0  0  0  0  0
  -11.8063   11.2655    1.6411 F   0  0  0  0  0  0  0  0  0  0  0  0
  -14.2766   11.2139    0.5951 F   0  0  0  0  0  0  0  0  0  0  0  0
  -13.0687    7.3755   -2.0203 F   0  0  0  0  0  0  0  0  0  0  0  0
  -10.6085    7.4676   -0.9456 F   0  0  0  0  0  0  0  0  0  0  0  0
   -9.8900    9.3716    0.8875 N   0  0  0  0  0  0  0  0  0  0  0  0
  -17.2147    8.7190   -1.6652 N   0  0  0  0  0  0  0  0  0  0  0  0
  -16.8480    9.6353   -2.5193 N   0  0  0  0  0  0  0  0  0  0  0  0
  -15.5848    9.9839   -2.3393 N   0  0  0  0  0  0  0  0  0  0  0  0
  -18.3085    7.5959    0.8683 O   0  0  0  0  0  0  0  0  0  0  0  0
  -20.9985    4.4140    0.2000 O   0  0  0  0  0  0  0  0  0  0  0  0
  -20.7314    7.2908    0.0353 O   0  0  0  0  0  0  0  0  0  0  0  0
  -19.7711    9.9333   -2.1766 O   0  0  0  0  0  0  0  0  0  0  0  0
  -22.0638    9.5047   -0.2595 S   0  0  0  0  0  0  0  0  0  0  0  0
 20  1  1  0
  1 33  1  0
  1 35  1  1
  3  2  2  0
  2  7  1  0
  3 19  1  0
 35  3  1  0
  8  4  1  1
  4 32  1  0
  5  6  1  0
  5 20  1  0
  5 28  1  1
  6  8  1  0
  6 31  1  1
  7 16  2  0
  8 33  1  0
 15  9  2  0
  9 28  1  0
 27 10  1  0
 12 11  2  0
 11 22  1  0
 11 27  1  0
 13 12  1  0
 12 23  1  0
 14 13  2  0
 13 24  1  0
 14 15  1  0
 14 21  1  0
 15 30  1  0
 16 17  1  0
 16 18  1  0
 18 19  2  0
 20 34  1  6
 21 22  2  0
 21 25  1  0
 22 26  1  0
 28 29  1  0
 29 30  2  0
M  END
$$$$
