
     RDKit          3D

 35 38  0  0  0  0  0  0  0  0999 V2000
  -20.4785    8.3123   -1.0828 C   0  0  1  0  0  0  0  0  0  0  0  0
  -23.7835    9.1417   -1.7351 C   0  0  0  0  0  0  0  0  0  0  0  0
  -23.1345    9.3705   -0.5541 C   0  0  0  0  0  0  0  0  0  0  0  0
  -20.1937    5.0581    0.4795 C   0  0  0  0  0  0  0  0  0  0  0  0
  -18.2027    7.5273   -1.5819 C   0  0  1  0  0  0  0  0  0  0  0  0
  -18.4157    6.5622   -0.4380 C   0  0  2  0  0  0  0  0  0  0  0  0
  -25.1360    8.8179   -1.7687 C   0  0  0  0  0  0  0  0  0  0  0  0
  -19.9030    6.2081   -0.4566 C   0  0  2  0  0  0  0  0  0  0  0  0
  -16.1464    8.6308   -0.8334 C   0  0  0  0  0  0  0  0  0  0  0  0
  -10.4658   11.2821    2.7571 C   0  0  0  0  0  0  0  0  0  0  0  0
  -11.7912   10.9649    0.7045 C   0  0  0  0  0  0  0  0  0  0  0  0
  -12.1976   11.3632   -0.5418 C   0  0  0  0  0  0  0  0  0  0  0  0
  -13.2114   10.6399   -1.1879 C   0  0  0  0  0  0  0  0  0  0  0  0
  -13.7900    9.5511   -0.5870 C   0  0  0  0  0  0  0  0  0  0  0  0
  -14.8294    8.8227   -1.2683 C   0  0  0  0  0  0  0  0  0  0  0  0
  -25.8436    8.7240   -0.5899 C   0  0  0  0  0  0  0  0  0  0  0  0
  -27.3043    8.3759   -0.6015 C   0  0  0  0  0  0  0  0  0  0  0  0
  -25.1626    8.9602    0.5856 C   0  0  0  0  0  0  0  0  0  0  0  0
  -23.8189    9.2822    0.6257 C   0  0  0  0  0  0  0  0  0  0  0  0
  -19.0456    8.7530   -1.2977 C   0  0  1  0  0  0  0  0  0  0  0  0
  -13.3779    9.1587    0.6605 C   0  0  0  0  0  0  0  0  0  0  0  0
  -12.3644    9.8717    1.3210 C   0  0  0  0  0  0  0  0  0  0  0  0
  -11.6269   12.4442   -1.1448 F   0  0  0  0  0  0  0  0  0  0  0  0
  -13.5626   11.0900   -2.4170 F   0  0  0  0  0  0  0  0  0  0  0  0
  -13.8984    8.0968    1.3194 F   0  0  0  0  0  0  0  0  0  0  0  0
  -11.9571    9.4839    2.5536 F   0  0  0  0  0  0  0  0  0  0  0  0
  -10.7672   11.6650    1.4010 N   0  0  0  0  0  0  0  0  0  0  0  0
  -16.8119    7.8992   -1.7406 N   0  0  0  0  0  0  0  0  0  0  0  0
  -15.9679    7.6381   -2.7014 N   0  0  0  0  0  0  0  0  0  0  0  0
  -14.7811    8.1690   -2.4577 N   0  0  0  0  0  0  0  0  0  0  0  0
  -18.1868    7.1760    0.8017 O   0  0  0  0  0  0  0  0  0  0  0  0
  -21.4902    4.6269    0.2028 O   0  0  0  0  0  0  0  0  0  0  0  0
  -20.5963    7.3518   -0.1043 O   0  0  0  0  0  0  0  0  0  0  0  0
  -19.0322    9.6030   -2.4028 O   0  0  0  0  0  0  0  0  0  0  0  0
  -21.4117    9.7803   -0.5530 S   0  0  0  0  0  0  0  0  0  0  0  0
 20  1  1  0
  1 33  1  0
  1 35  1  1
  3  2  2  0
  2  7  1  0
  3 19  1  0
 35  3  1  0
  8  4  1  1
  4 32  1  0
  5  6  1  0
  5 20  1  0
  5 28  1  1
  6  8  1  0
  6 31  1  1
  7 16  2  0
  8 33  1  0
 15  9  2  0
  9 28  1  0
 27 10  1  0
 12 11  2  0
 11 22  1  0
 11 27  1  0
 13 12  1  0
 12 23  1  0
 14 13  2  0
 13 24  1  0
 14 15  1  0
 14 21  1  0
 15 30  1  0
 16 17  1  0
 16 18  1  0
 18 19  2  0
 20 34  1  6
 21 22  2  0
 21 25  1  0
 22 26  1  0
 28 29  1  0
 29 30  2  0
M  END
$$$$
