
     RDKit          3D

 35 38  0  0  0  0  0  0  0  0999 V2000
  -20.3847    8.6523   -0.6807 C   0  0  1  0  0  0  0  0  0  0  0  0
  -23.4427    9.9118   -1.3808 C   0  0  0  0  0  0  0  0  0  0  0  0
  -22.9385    9.9199   -0.1104 C   0  0  0  0  0  0  0  0  0  0  0  0
  -20.9689    5.0966   -0.3245 C   0  0  0  0  0  0  0  0  0  0  0  0
  -18.1968    7.5789   -1.0053 C   0  0  1  0  0  0  0  0  0  0  0  0
  -18.8203    6.3805   -0.3267 C   0  0  2  0  0  0  0  0  0  0  0  0
  -24.8095    9.8078   -1.6181 C   0  0  0  0  0  0  0  0  0  0  0  0
  -20.2941    6.3852   -0.7335 C   0  0  2  0  0  0  0  0  0  0  0  0
  -16.1255    8.8357   -0.6358 C   0  0  0  0  0  0  0  0  0  0  0  0
   -9.9977   12.4027    1.5943 C   0  0  0  0  0  0  0  0  0  0  0  0
  -11.7405   11.4691    0.1241 C   0  0  0  0  0  0  0  0  0  0  0  0
  -12.2974   11.3029   -1.1166 C   0  0  0  0  0  0  0  0  0  0  0  0
  -13.3041   10.3402   -1.2846 C   0  0  0  0  0  0  0  0  0  0  0  0
  -13.7281    9.5751   -0.2282 C   0  0  0  0  0  0  0  0  0  0  0  0
  -14.7632    8.5923   -0.4229 C   0  0  0  0  0  0  0  0  0  0  0  0
  -25.6803    9.7106   -0.5544 C   0  0  0  0  0  0  0  0  0  0  0  0
  -27.1596    9.5974   -0.7862 C   0  0  0  0  0  0  0  0  0  0  0  0
  -25.1429    9.7213    0.7154 C   0  0  0  0  0  0  0  0  0  0  0  0
  -23.7858    9.8244    0.9578 C   0  0  0  0  0  0  0  0  0  0  0  0
  -18.8937    8.8116   -0.4683 C   0  0  1  0  0  0  0  0  0  0  0  0
  -13.1658    9.7473    1.0105 C   0  0  0  0  0  0  0  0  0  0  0  0
  -12.1571   10.7064    1.1957 C   0  0  0  0  0  0  0  0  0  0  0  0
  -11.8809   12.0598   -2.1708 F   0  0  0  0  0  0  0  0  0  0  0  0
  -13.8091   10.2304   -2.5375 F   0  0  0  0  0  0  0  0  0  0  0  0
  -13.5288    9.0327    2.1015 F   0  0  0  0  0  0  0  0  0  0  0  0
  -11.6015   10.8767    2.4196 F   0  0  0  0  0  0  0  0  0  0  0  0
  -10.7168   12.4317    0.3458 N   0  0  0  0  0  0  0  0  0  0  0  0
  -16.7698    7.6665   -0.7727 N   0  0  0  0  0  0  0  0  0  0  0  0
  -15.8702    6.7283   -0.6541 N   0  0  0  0  0  0  0  0  0  0  0  0
  -14.6674    7.2379   -0.4457 N   0  0  0  0  0  0  0  0  0  0  0  0
  -18.8109    6.5175    1.0687 O   0  0  0  0  0  0  0  0  0  0  0  0
  -22.3149    5.2164   -0.6668 O   0  0  0  0  0  0  0  0  0  0  0  0
  -20.8761    7.4882   -0.1356 O   0  0  0  0  0  0  0  0  0  0  0  0
  -18.4879    9.9353   -1.1871 O   0  0  0  0  0  0  0  0  0  0  0  0
  -21.1920   10.0538    0.1505 S   0  0  0  0  0  0  0  0  0  0  0  0
 20  1  1  0
  1 33  1  0
  1 35  1  1
  3  2  2  0
  2  7  1  0
  3 19  1  0
 35  3  1  0
  8  4  1  1
  4 32  1  0
  5  6  1  0
  5 20  1  0
  5 28  1  1
  6  8  1  0
  6 31  1  1
  7 16  2  0
  8 33  1  0
 15  9  2  0
  9 28  1  0
 27 10  1  0
 12 11  2  0
 11 22  1  0
 11 27  1  0
 13 12  1  0
 12 23  1  0
 14 13  2  0
 13 24  1  0
 14 15  1  0
 14 21  1  0
 15 30  1  0
 16 17  1  0
 16 18  1  0
 18 19  2  0
 20 34  1  6
 21 22  2  0
 21 25  1  0
 22 26  1  0
 28 29  1  0
 29 30  2  0
M  END
$$$$
