
     RDKit          3D

 35 38  0  0  0  0  0  0  0  0999 V2000
  -21.0851    8.6794   -0.6791 C   0  0  1  0  0  0  0  0  0  0  0  0
  -24.7876   10.5567   -0.0707 C   0  0  0  0  0  0  0  0  0  0  0  0
  -23.7763    9.7723   -0.5506 C   0  0  0  0  0  0  0  0  0  0  0  0
  -21.0253    5.0931   -0.1828 C   0  0  0  0  0  0  0  0  0  0  0  0
  -18.7379    8.0040   -0.9603 C   0  0  1  0  0  0  0  0  0  0  0  0
  -19.1415    6.7405   -0.2351 C   0  0  2  0  0  0  0  0  0  0  0  0
  -26.0859   10.4450   -0.5580 C   0  0  0  0  0  0  0  0  0  0  0  0
  -20.5892    6.4650   -0.6422 C   0  0  2  0  0  0  0  0  0  0  0  0
  -16.4970    8.6336   -1.7276 C   0  0  0  0  0  0  0  0  0  0  0  0
   -9.9319   11.5568   -3.6887 C   0  0  0  0  0  0  0  0  0  0  0  0
  -11.7613    9.9452   -3.3326 C   0  0  0  0  0  0  0  0  0  0  0  0
  -12.4697    8.8267   -3.6850 C   0  0  0  0  0  0  0  0  0  0  0  0
  -13.6273    8.5015   -2.9621 C   0  0  0  0  0  0  0  0  0  0  0  0
  -14.0480    9.2863   -1.9189 C   0  0  0  0  0  0  0  0  0  0  0  0
  -15.2396    8.9340   -1.1900 C   0  0  0  0  0  0  0  0  0  0  0  0
  -26.3661    9.5260   -1.5459 C   0  0  0  0  0  0  0  0  0  0  0  0
  -27.7599    9.3876   -2.0874 C   0  0  0  0  0  0  0  0  0  0  0  0
  -25.3261    8.7488   -2.0104 C   0  0  0  0  0  0  0  0  0  0  0  0
  -24.0342    8.8549   -1.5303 C   0  0  0  0  0  0  0  0  0  0  0  0
  -19.6483    9.1117   -0.4727 C   0  0  1  0  0  0  0  0  0  0  0  0
  -13.3336   10.4042   -1.5723 C   0  0  0  0  0  0  0  0  0  0  0  0
  -12.1728   10.7439   -2.2855 C   0  0  0  0  0  0  0  0  0  0  0  0
  -12.0574    8.0423   -4.7205 F   0  0  0  0  0  0  0  0  0  0  0  0
  -14.2772    7.3827   -3.3654 F   0  0  0  0  0  0  0  0  0  0  0  0
  -13.6828   11.2287   -0.5568 F   0  0  0  0  0  0  0  0  0  0  0  0
  -11.4669   11.8484   -1.9430 F   0  0  0  0  0  0  0  0  0  0  0  0
  -10.5812   10.3175   -4.0343 N   0  0  0  0  0  0  0  0  0  0  0  0
  -17.3515    8.3551   -0.7308 N   0  0  0  0  0  0  0  0  0  0  0  0
  -16.6782    8.4709    0.3813 N   0  0  0  0  0  0  0  0  0  0  0  0
  -15.4215    8.8131    0.1504 N   0  0  0  0  0  0  0  0  0  0  0  0
  -19.1672    6.9311    1.1539 O   0  0  0  0  0  0  0  0  0  0  0  0
  -20.8108    4.2205   -1.2486 O   0  0  0  0  0  0  0  0  0  0  0  0
  -21.3639    7.4681   -0.0886 O   0  0  0  0  0  0  0  0  0  0  0  0
  -19.4452   10.2612   -1.2352 O   0  0  0  0  0  0  0  0  0  0  0  0
  -22.1366    9.9446    0.0957 S   0  0  0  0  0  0  0  0  0  0  0  0
 20  1  1  0
  1 33  1  0
  1 35  1  1
  3  2  2  0
  2  7  1  0
  3 19  1  0
 35  3  1  0
  8  4  1  1
  4 32  1  0
  5  6  1  0
  5 20  1  0
  5 28  1  1
  6  8  1  0
  6 31  1  1
  7 16  2  0
  8 33  1  0
 15  9  2  0
  9 28  1  0
 27 10  1  0
 12 11  2  0
 11 22  1  0
 11 27  1  0
 13 12  1  0
 12 23  1  0
 14 13  2  0
 13 24  1  0
 14 15  1  0
 14 21  1  0
 15 30  1  0
 16 17  1  0
 16 18  1  0
 18 19  2  0
 20 34  1  6
 21 22  2  0
 21 25  1  0
 22 26  1  0
 28 29  1  0
 29 30  2  0
M  END
$$$$
