
     RDKit          3D

 35 38  0  0  0  0  0  0  0  0999 V2000
  -20.6804    8.1556   -0.9333 C   0  0  1  0  0  0  0  0  0  0  0  0
  -23.7308    7.8378   -1.3663 C   0  0  0  0  0  0  0  0  0  0  0  0
  -23.4601    8.9467   -0.6145 C   0  0  0  0  0  0  0  0  0  0  0  0
  -19.9517    5.0080    0.7016 C   0  0  0  0  0  0  0  0  0  0  0  0
  -18.3288    7.6606   -1.4524 C   0  0  1  0  0  0  0  0  0  0  0  0
  -18.3981    6.7062   -0.2821 C   0  0  2  0  0  0  0  0  0  0  0  0
  -25.0321    7.3760   -1.5354 C   0  0  0  0  0  0  0  0  0  0  0  0
  -19.8266    6.1613   -0.2667 C   0  0  2  0  0  0  0  0  0  0  0  0
  -16.1718    8.4777   -0.6239 C   0  0  0  0  0  0  0  0  0  0  0  0
  -10.3970   12.0142    2.2257 C   0  0  0  0  0  0  0  0  0  0  0  0
  -11.6037   10.1858    1.0981 C   0  0  0  0  0  0  0  0  0  0  0  0
  -11.7765    8.8611    0.7944 C   0  0  0  0  0  0  0  0  0  0  0  0
  -12.9034    8.4769    0.0520 C   0  0  0  0  0  0  0  0  0  0  0  0
  -13.8203    9.4075   -0.3657 C   0  0  0  0  0  0  0  0  0  0  0  0
  -14.9703    8.9912   -1.1270 C   0  0  0  0  0  0  0  0  0  0  0  0
  -26.0762    8.0458   -0.9350 C   0  0  0  0  0  0  0  0  0  0  0  0
  -27.4891    7.5660   -1.1034 C   0  0  0  0  0  0  0  0  0  0  0  0
  -25.7727    9.1609   -0.1828 C   0  0  0  0  0  0  0  0  0  0  0  0
  -24.4819    9.6247   -0.0110 C   0  0  0  0  0  0  0  0  0  0  0  0
  -19.3204    8.7733   -1.1834 C   0  0  1  0  0  0  0  0  0  0  0  0
  -13.6404   10.7314   -0.0578 C   0  0  0  0  0  0  0  0  0  0  0  0
  -12.5180   11.1327    0.6844 C   0  0  0  0  0  0  0  0  0  0  0  0
  -10.8693    7.9311    1.2063 F   0  0  0  0  0  0  0  0  0  0  0  0
  -13.0099    7.1518   -0.2114 F   0  0  0  0  0  0  0  0  0  0  0  0
  -14.4987   11.7089   -0.4329 F   0  0  0  0  0  0  0  0  0  0  0  0
  -12.3402   12.4410    0.9886 F   0  0  0  0  0  0  0  0  0  0  0  0
  -10.4779   10.6258    1.8482 N   0  0  0  0  0  0  0  0  0  0  0  0
  -17.0007    8.2061   -1.6438 N   0  0  0  0  0  0  0  0  0  0  0  0
  -16.3649    8.5278   -2.7374 N   0  0  0  0  0  0  0  0  0  0  0  0
  -15.1571    8.9973   -2.4721 N   0  0  0  0  0  0  0  0  0  0  0  0
  -18.2341    7.3768    0.9384 O   0  0  0  0  0  0  0  0  0  0  0  0
  -21.1697    4.3844    0.4355 O   0  0  0  0  0  0  0  0  0  0  0  0
  -20.6582    7.2139    0.0699 O   0  0  0  0  0  0  0  0  0  0  0  0
  -19.4333    9.5887   -2.3087 O   0  0  0  0  0  0  0  0  0  0  0  0
  -21.7897    9.5031   -0.4231 S   0  0  0  0  0  0  0  0  0  0  0  0
 20  1  1  0
  1 33  1  0
  1 35  1  1
  3  2  2  0
  2  7  1  0
  3 19  1  0
 35  3  1  0
  8  4  1  1
  4 32  1  0
  5  6  1  0
  5 20  1  0
  5 28  1  1
  6  8  1  0
  6 31  1  1
  7 16  2  0
  8 33  1  0
 15  9  2  0
  9 28  1  0
 27 10  1  0
 12 11  2  0
 11 22  1  0
 11 27  1  0
 13 12  1  0
 12 23  1  0
 14 13  2  0
 13 24  1  0
 14 15  1  0
 14 21  1  0
 15 30  1  0
 16 17  1  0
 16 18  1  0
 18 19  2  0
 20 34  1  6
 21 22  2  0
 21 25  1  0
 22 26  1  0
 28 29  1  0
 29 30  2  0
M  END
$$$$
