
     RDKit          3D

 30 33  0  0  0  0  0  0  0  0999 V2000
  -13.7718    9.0031    0.7117 C   0  0  0  0  0  0  0  0  0  0  0  0
  -12.6685    9.7736    0.3718 C   0  0  0  0  0  0  0  0  0  0  0  0
  -11.8776   10.3097    1.3513 C   0  0  0  0  0  0  0  0  0  0  0  0
  -13.2381    9.3425    3.0365 C   0  0  0  0  0  0  0  0  0  0  0  0
  -18.4877    8.4690   -2.3053 C   0  0  1  0  0  0  0  0  0  0  0  0
  -25.5433   11.3127    1.0025 C   0  0  0  0  0  0  0  0  0  0  0  0
  -24.1571   10.8977    0.6772 C   0  0  0  0  0  0  0  0  0  0  0  0
  -23.4681   10.1150    1.5689 C   0  0  0  0  0  0  0  0  0  0  0  0
  -22.1774    9.6900    1.3364 C   0  0  0  0  0  0  0  0  0  0  0  0
  -23.5099   11.2567   -0.4850 C   0  0  0  0  0  0  0  0  0  0  0  0
  -22.2188   10.8354   -0.7245 C   0  0  0  0  0  0  0  0  0  0  0  0
  -21.5190   10.0480    0.1674 C   0  0  0  0  0  0  0  0  0  0  0  0
  -19.8501    8.5180   -1.6909 C   0  0  1  0  0  0  0  0  0  0  0  0
  -19.7262    6.2322   -1.3013 C   0  0  2  0  0  0  0  0  0  0  0  0
  -20.4804    5.2780   -0.4075 C   0  0  0  0  0  0  0  0  0  0  0  0
  -18.3364    6.5279   -0.7934 C   0  0  1  0  0  0  0  0  0  0  0  0
  -17.6542    7.3102   -1.9043 C   0  0  2  0  0  0  0  0  0  0  0  0
  -15.9472    8.2133   -0.3776 C   0  0  0  0  0  0  0  0  0  0  0  0
  -14.6185    8.4292   -0.3439 C   0  0  0  0  0  0  0  0  0  0  0  0
  -12.1579   10.0973    2.6741 C   0  0  0  0  0  0  0  0  0  0  0  0
  -14.0302    8.8059    2.0391 C   0  0  0  0  0  0  0  0  0  0  0  0
  -15.0956    8.0610    2.4255 F   0  0  0  0  0  0  0  0  0  0  0  0
  -16.2921    7.6542   -1.5789 N   0  0  0  0  0  0  0  0  0  0  0  0
  -14.1645    7.9856   -1.5589 N   0  0  0  0  0  0  0  0  0  0  0  0
  -15.1898    7.5350   -2.2580 N   0  0  0  0  0  0  0  0  0  0  0  0
  -20.4816    7.3276   -1.5498 O   0  0  0  0  0  0  0  0  0  0  0  0
  -21.7209    5.0438   -1.0380 O   0  0  0  0  0  0  0  0  0  0  0  0
  -18.3092    7.1643    0.4176 O   0  0  0  0  0  0  0  0  0  0  0  0
  -18.6186    8.5039   -3.7073 O   0  0  0  0  0  0  0  0  0  0  0  0
  -19.8433    9.4980   -0.1375 S   0  0  0  0  0  0  0  0  0  0  0  0
  1  2  2  0
 19  1  1  0
  1 21  1  0
  2  3  1  0
  3 20  2  0
  4 20  1  0
 21  4  2  0
  5 13  1  0
 17  5  1  0
  5 29  1  6
  7  6  1  0
  8  7  2  0
 10  7  1  0
  9  8  1  0
 12  9  2  0
 11 10  2  0
 12 11  1  0
 30 12  1  0
 13 26  1  0
 13 30  1  1
 14 15  1  1
 16 14  1  0
 14 26  1  0
 15 27  1  0
 17 16  1  0
 16 28  1  1
 17 23  1  1
 18 19  2  0
 18 23  1  0
 19 24  1  0
 21 22  1  0
 23 25  1  0
 24 25  2  0
M  END
$$$$
