
     RDKit          3D

 30 33  0  0  0  0  0  0  0  0999 V2000
  -13.3439    8.9360    0.6936 C   0  0  0  0  0  0  0  0  0  0  0  0
  -12.3895    8.0761    0.1683 C   0  0  0  0  0  0  0  0  0  0  0  0
  -11.1704    7.9496    0.7765 C   0  0  0  0  0  0  0  0  0  0  0  0
  -11.7936    9.5175    2.4438 C   0  0  0  0  0  0  0  0  0  0  0  0
  -18.8561    8.8142   -1.9380 C   0  0  1  0  0  0  0  0  0  0  0  0
  -26.8148    9.9634   -0.0645 C   0  0  0  0  0  0  0  0  0  0  0  0
  -25.3331    9.9057   -0.0967 C   0  0  0  0  0  0  0  0  0  0  0  0
  -24.6886    8.9126    0.5968 C   0  0  0  0  0  0  0  0  0  0  0  0
  -23.3152    8.7944    0.6144 C   0  0  0  0  0  0  0  0  0  0  0  0
  -24.5530   10.8037   -0.7920 C   0  0  0  0  0  0  0  0  0  0  0  0
  -23.1786   10.6919   -0.7792 C   0  0  0  0  0  0  0  0  0  0  0  0
  -22.5229    9.6959   -0.0841 C   0  0  0  0  0  0  0  0  0  0  0  0
  -20.2495    8.5026   -1.4938 C   0  0  1  0  0  0  0  0  0  0  0  0
  -19.5416    6.3865   -0.8511 C   0  0  2  0  0  0  0  0  0  0  0  0
  -20.1142    5.3164    0.0462 C   0  0  0  0  0  0  0  0  0  0  0  0
  -18.3783    7.1117   -0.2204 C   0  0  1  0  0  0  0  0  0  0  0  0
  -17.7947    7.9820   -1.3221 C   0  0  2  0  0  0  0  0  0  0  0  0
  -15.5757    8.1370   -0.2674 C   0  0  0  0  0  0  0  0  0  0  0  0
  -14.6522    9.0685    0.0368 C   0  0  0  0  0  0  0  0  0  0  0  0
  -10.8721    8.6636    1.9056 C   0  0  0  0  0  0  0  0  0  0  0  0
  -13.0218    9.6374    1.8214 C   0  0  0  0  0  0  0  0  0  0  0  0
  -13.9179   10.4912    2.3755 F   0  0  0  0  0  0  0  0  0  0  0  0
  -16.6455    8.7326   -0.8801 N   0  0  0  0  0  0  0  0  0  0  0  0
  -15.1904   10.2482   -0.4081 N   0  0  0  0  0  0  0  0  0  0  0  0
  -16.3716   10.0020   -0.9441 N   0  0  0  0  0  0  0  0  0  0  0  0
  -20.5325    7.1917   -1.3005 O   0  0  0  0  0  0  0  0  0  0  0  0
  -21.4692    5.1763   -0.3218 O   0  0  0  0  0  0  0  0  0  0  0  0
  -18.7035    7.8094    0.9108 O   0  0  0  0  0  0  0  0  0  0  0  0
  -18.7918    8.7129   -3.3413 O   0  0  0  0  0  0  0  0  0  0  0  0
  -20.7395    9.5453   -0.0634 S   0  0  0  0  0  0  0  0  0  0  0  0
  1  2  2  0
 19  1  1  0
  1 21  1  0
  2  3  1  0
  3 20  2  0
  4 20  1  0
 21  4  2  0
  5 13  1  0
 17  5  1  0
  5 29  1  6
  7  6  1  0
  8  7  2  0
 10  7  1  0
  9  8  1  0
 12  9  2  0
 11 10  2  0
 12 11  1  0
 30 12  1  0
 13 26  1  0
 13 30  1  1
 14 15  1  1
 16 14  1  0
 14 26  1  0
 15 27  1  0
 17 16  1  0
 16 28  1  1
 17 23  1  1
 18 19  2  0
 18 23  1  0
 19 24  1  0
 21 22  1  0
 23 25  1  0
 24 25  2  0
M  END
$$$$
