
     RDKit          3D

 30 33  0  0  0  0  0  0  0  0999 V2000
  -24.4065    9.0891    0.7454 C   0  0  0  0  0  0  0  0  0  0  0  0
  -25.3512    8.4391   -0.0365 C   0  0  0  0  0  0  0  0  0  0  0  0
  -26.6712    8.4590    0.3232 C   0  0  0  0  0  0  0  0  0  0  0  0
  -26.1715    9.7637    2.2402 C   0  0  0  0  0  0  0  0  0  0  0  0
  -18.8446    7.3968    0.3662 C   0  0  1  0  0  0  0  0  0  0  0  0
  -11.0302    8.7225    2.1067 C   0  0  0  0  0  0  0  0  0  0  0  0
  -12.4070    8.8193    1.5638 C   0  0  0  0  0  0  0  0  0  0  0  0
  -13.4364    9.1473    2.4095 C   0  0  0  0  0  0  0  0  0  0  0  0
  -14.7414    9.2561    1.9786 C   0  0  0  0  0  0  0  0  0  0  0  0
  -12.7189    8.5961    0.2405 C   0  0  0  0  0  0  0  0  0  0  0  0
  -14.0220    8.7031   -0.1980 C   0  0  0  0  0  0  0  0  0  0  0  0
  -15.0629    9.0325    0.6464 C   0  0  0  0  0  0  0  0  0  0  0  0
  -17.4266    7.4731   -0.1024 C   0  0  1  0  0  0  0  0  0  0  0  0
  -18.1469    7.0326   -2.2655 C   0  0  2  0  0  0  0  0  0  0  0  0
  -17.5286    7.2019   -3.6320 C   0  0  0  0  0  0  0  0  0  0  0  0
  -19.2126    8.0618   -1.9789 C   0  0  1  0  0  0  0  0  0  0  0  0
  -19.8700    7.6176   -0.6819 C   0  0  2  0  0  0  0  0  0  0  0  0
  -22.1964    8.0340    0.0071 C   0  0  0  0  0  0  0  0  0  0  0  0
  -22.9896    9.0650    0.3550 C   0  0  0  0  0  0  0  0  0  0  0  0
  -27.0809    9.1155    1.4523 C   0  0  0  0  0  0  0  0  0  0  0  0
  -24.8409    9.7372    1.8675 C   0  0  0  0  0  0  0  0  0  0  0  0
  -23.9593   10.3880    2.6663 F   0  0  0  0  0  0  0  0  0  0  0  0
  -20.9395    8.4964   -0.2778 N   0  0  0  0  0  0  0  0  0  0  0  0
  -22.1798   10.1681    0.2738 N   0  0  0  0  0  0  0  0  0  0  0  0
  -20.9745    9.7845   -0.1045 N   0  0  0  0  0  0  0  0  0  0  0  0
  -17.1760    6.9483   -1.3261 O   0  0  0  0  0  0  0  0  0  0  0  0
  -16.4420    8.0868   -3.4665 O   0  0  0  0  0  0  0  0  0  0  0  0
  -18.7492    9.3487   -1.9424 O   0  0  0  0  0  0  0  0  0  0  0  0
  -19.0530    6.1496    0.9864 O   0  0  0  0  0  0  0  0  0  0  0  0
  -16.7563    9.1729    0.0836 S   0  0  0  0  0  0  0  0  0  0  0  0
  1  2  2  0
 19  1  1  0
  1 21  1  0
  2  3  1  0
  3 20  2  0
  4 20  1  0
 21  4  2  0
  5 13  1  0
 17  5  1  0
  5 29  1  6
  7  6  1  0
  8  7  2  0
 10  7  1  0
  9  8  1  0
 12  9  2  0
 11 10  2  0
 12 11  1  0
 30 12  1  0
 13 26  1  0
 13 30  1  6
 14 15  1  6
 16 14  1  0
 14 26  1  0
 15 27  1  0
 17 16  1  0
 16 28  1  1
 17 23  1  1
 18 19  2  0
 18 23  1  0
 19 24  1  0
 21 22  1  0
 23 25  1  0
 24 25  2  0
M  END
$$$$
