
     RDKit          3D

 30 33  0  0  0  0  0  0  0  0999 V2000
  -13.2951    9.2300    0.3452 C   0  0  0  0  0  0  0  0  0  0  0  0
  -12.5309    9.4471   -0.7929 C   0  0  0  0  0  0  0  0  0  0  0  0
  -11.3541   10.1398   -0.7077 C   0  0  0  0  0  0  0  0  0  0  0  0
  -11.6453   10.4281    1.6287 C   0  0  0  0  0  0  0  0  0  0  0  0
  -18.3722    8.7289   -1.5427 C   0  0  1  0  0  0  0  0  0  0  0  0
  -26.2269   11.0162   -0.0434 C   0  0  0  0  0  0  0  0  0  0  0  0
  -24.8086   10.5827   -0.0245 C   0  0  0  0  0  0  0  0  0  0  0  0
  -24.0598   10.7983    1.1048 C   0  0  0  0  0  0  0  0  0  0  0  0
  -22.7364   10.4235    1.1973 C   0  0  0  0  0  0  0  0  0  0  0  0
  -24.1884    9.9670   -1.0897 C   0  0  0  0  0  0  0  0  0  0  0  0
  -22.8649    9.5892   -1.0046 C   0  0  0  0  0  0  0  0  0  0  0  0
  -22.1050    9.8025    0.1277 C   0  0  0  0  0  0  0  0  0  0  0  0
  -19.8617    8.7160   -1.4106 C   0  0  1  0  0  0  0  0  0  0  0  0
  -19.8260    6.3983   -1.5482 C   0  0  2  0  0  0  0  0  0  0  0  0
  -20.8126    5.3113   -1.1973 C   0  0  0  0  0  0  0  0  0  0  0  0
  -18.6873    6.4892   -0.5622 C   0  0  1  0  0  0  0  0  0  0  0  0
  -17.6935    7.4627   -1.1757 C   0  0  2  0  0  0  0  0  0  0  0  0
  -15.5235    8.5188   -0.6897 C   0  0  0  0  0  0  0  0  0  0  0  0
  -14.5586    8.4852    0.2489 C   0  0  0  0  0  0  0  0  0  0  0  0
  -10.9123   10.6277    0.4925 C   0  0  0  0  0  0  0  0  0  0  0  0
  -12.8324    9.7271    1.5312 C   0  0  0  0  0  0  0  0  0  0  0  0
  -13.5404    9.5430    2.6731 F   0  0  0  0  0  0  0  0  0  0  0  0
  -16.5220    7.6438   -0.3546 N   0  0  0  0  0  0  0  0  0  0  0  0
  -14.9982    7.5649    1.1649 N   0  0  0  0  0  0  0  0  0  0  0  0
  -16.1650    7.0920    0.7672 N   0  0  0  0  0  0  0  0  0  0  0  0
  -20.4798    7.5636   -1.7649 O   0  0  0  0  0  0  0  0  0  0  0  0
  -22.0680    5.7506   -1.6687 O   0  0  0  0  0  0  0  0  0  0  0  0
  -19.0735    6.8307    0.7053 O   0  0  0  0  0  0  0  0  0  0  0  0
  -18.0349    9.0895   -2.8618 O   0  0  0  0  0  0  0  0  0  0  0  0
  -20.3868    9.3147    0.2444 S   0  0  0  0  0  0  0  0  0  0  0  0
  1  2  2  0
 19  1  1  0
  1 21  1  0
  2  3  1  0
  3 20  2  0
  4 20  1  0
 21  4  2  0
  5 13  1  0
 17  5  1  0
  5 29  1  6
  7  6  1  0
  8  7  2  0
 10  7  1  0
  9  8  1  0
 12  9  2  0
 11 10  2  0
 12 11  1  0
 30 12  1  0
 13 26  1  0
 13 30  1  1
 14 15  1  1
 16 14  1  0
 14 26  1  0
 15 27  1  0
 17 16  1  0
 16 28  1  1
 17 23  1  1
 18 19  2  0
 18 23  1  0
 19 24  1  0
 21 22  1  0
 23 25  1  0
 24 25  2  0
M  END
$$$$
