
     RDKit          3D

 30 33  0  0  0  0  0  0  0  0999 V2000
  -13.1235    9.3434    0.4192 C   0  0  0  0  0  0  0  0  0  0  0  0
  -12.1231   10.0558   -0.2273 C   0  0  0  0  0  0  0  0  0  0  0  0
  -10.8524   10.0697    0.2802 C   0  0  0  0  0  0  0  0  0  0  0  0
  -11.5132    8.6767    2.0829 C   0  0  0  0  0  0  0  0  0  0  0  0
  -18.5926    8.5602   -2.1540 C   0  0  1  0  0  0  0  0  0  0  0  0
  -26.7250    9.5332   -1.2199 C   0  0  0  0  0  0  0  0  0  0  0  0
  -25.2562    9.5044   -1.0163 C   0  0  0  0  0  0  0  0  0  0  0  0
  -24.4320    9.8795   -2.0470 C   0  0  0  0  0  0  0  0  0  0  0  0
  -23.0582    9.8788   -1.9333 C   0  0  0  0  0  0  0  0  0  0  0  0
  -24.6605    9.1174    0.1644 C   0  0  0  0  0  0  0  0  0  0  0  0
  -23.2869    9.1141    0.2857 C   0  0  0  0  0  0  0  0  0  0  0  0
  -22.4511    9.4900   -0.7464 C   0  0  0  0  0  0  0  0  0  0  0  0
  -20.0073    8.2507   -1.7814 C   0  0  1  0  0  0  0  0  0  0  0  0
  -19.2773    6.3126   -0.7311 C   0  0  2  0  0  0  0  0  0  0  0  0
  -19.8865    5.3764    0.2840 C   0  0  0  0  0  0  0  0  0  0  0  0
  -18.2066    7.1951   -0.1380 C   0  0  1  0  0  0  0  0  0  0  0  0
  -17.5597    7.9011   -1.3190 C   0  0  2  0  0  0  0  0  0  0  0  0
  -15.3018    8.3004   -0.4229 C   0  0  0  0  0  0  0  0  0  0  0  0
  -14.4869    9.3314   -0.1297 C   0  0  0  0  0  0  0  0  0  0  0  0
  -10.5472    9.3863    1.4262 C   0  0  0  0  0  0  0  0  0  0  0  0
  -12.7932    8.6696    1.5614 C   0  0  0  0  0  0  0  0  0  0  0  0
  -13.7329    7.9580    2.2321 F   0  0  0  0  0  0  0  0  0  0  0  0
  -16.4869    8.7766   -0.9165 N   0  0  0  0  0  0  0  0  0  0  0  0
  -15.2096   10.4488   -0.4588 N   0  0  0  0  0  0  0  0  0  0  0  0
  -16.3880   10.0730   -0.9207 N   0  0  0  0  0  0  0  0  0  0  0  0
  -20.2542    6.9765   -1.3923 O   0  0  0  0  0  0  0  0  0  0  0  0
  -21.2749    5.6280    0.2696 O   0  0  0  0  0  0  0  0  0  0  0  0
  -18.6618    8.0519    0.8269 O   0  0  0  0  0  0  0  0  0  0  0  0
  -18.3960    8.2312   -3.5093 O   0  0  0  0  0  0  0  0  0  0  0  0
  -20.6676    9.4878   -0.5953 S   0  0  0  0  0  0  0  0  0  0  0  0
  1  2  2  0
 19  1  1  0
  1 21  1  0
  2  3  1  0
  3 20  2  0
  4 20  1  0
 21  4  2  0
  5 13  1  0
 17  5  1  0
  5 29  1  6
  7  6  1  0
  8  7  2  0
 10  7  1  0
  9  8  1  0
 12  9  2  0
 11 10  2  0
 12 11  1  0
 30 12  1  0
 13 26  1  0
 13 30  1  1
 14 15  1  1
 16 14  1  0
 14 26  1  0
 15 27  1  0
 17 16  1  0
 16 28  1  1
 17 23  1  1
 18 19  2  0
 18 23  1  0
 19 24  1  0
 21 22  1  0
 23 25  1  0
 24 25  2  0
M  END
$$$$
