
     RDKit          3D

 30 33  0  0  0  0  0  0  0  0999 V2000
  -14.6905   10.9449   -0.7955 C   0  0  0  0  0  0  0  0  0  0  0  0
  -13.6714   11.0055    0.1448 C   0  0  0  0  0  0  0  0  0  0  0  0
  -13.0501   12.1959    0.4080 C   0  0  0  0  0  0  0  0  0  0  0  0
  -14.4201   13.3084   -1.1770 C   0  0  0  0  0  0  0  0  0  0  0  0
  -19.1061    8.3952   -2.2722 C   0  0  1  0  0  0  0  0  0  0  0  0
  -26.5121   10.5576    0.7618 C   0  0  0  0  0  0  0  0  0  0  0  0
  -25.0858   10.2685    0.4758 C   0  0  0  0  0  0  0  0  0  0  0  0
  -24.1774   10.3102    1.5032 C   0  0  0  0  0  0  0  0  0  0  0  0
  -22.8361   10.0534    1.3153 C   0  0  0  0  0  0  0  0  0  0  0  0
  -24.6111    9.9556   -0.7792 C   0  0  0  0  0  0  0  0  0  0  0  0
  -23.2707    9.6974   -0.9750 C   0  0  0  0  0  0  0  0  0  0  0  0
  -22.3508    9.7374    0.0532 C   0  0  0  0  0  0  0  0  0  0  0  0
  -20.4557    8.2797   -1.6388 C   0  0  1  0  0  0  0  0  0  0  0  0
  -19.9480    6.0999   -1.0201 C   0  0  2  0  0  0  0  0  0  0  0  0
  -20.5286    5.1315   -0.0185 C   0  0  0  0  0  0  0  0  0  0  0  0
  -18.6264    6.6748   -0.5730 C   0  0  1  0  0  0  0  0  0  0  0  0
  -18.0884    7.4401   -1.7716 C   0  0  2  0  0  0  0  0  0  0  0  0
  -16.6539    9.3821   -1.2908 C   0  0  0  0  0  0  0  0  0  0  0  0
  -15.3550    9.6640   -1.0749 C   0  0  0  0  0  0  0  0  0  0  0  0
  -13.4197   13.3400   -0.2463 C   0  0  0  0  0  0  0  0  0  0  0  0
  -15.0408   12.1008   -1.4350 C   0  0  0  0  0  0  0  0  0  0  0  0
  -16.0301   12.0968   -2.3625 F   0  0  0  0  0  0  0  0  0  0  0  0
  -16.8028    8.0388   -1.5105 N   0  0  0  0  0  0  0  0  0  0  0  0
  -14.7175    8.4541   -1.1695 N   0  0  0  0  0  0  0  0  0  0  0  0
  -15.6136    7.5197   -1.4284 N   0  0  0  0  0  0  0  0  0  0  0  0
  -20.8775    7.0217   -1.3642 O   0  0  0  0  0  0  0  0  0  0  0  0
  -21.9134    5.3983    0.0314 O   0  0  0  0  0  0  0  0  0  0  0  0
  -18.7036    7.4295    0.5657 O   0  0  0  0  0  0  0  0  0  0  0  0
  -19.2446    8.2615   -3.6675 O   0  0  0  0  0  0  0  0  0  0  0  0
  -20.6098    9.4034   -0.1943 S   0  0  0  0  0  0  0  0  0  0  0  0
  1  2  2  0
 19  1  1  0
  1 21  1  0
  2  3  1  0
  3 20  2  0
  4 20  1  0
 21  4  2  0
  5 13  1  0
 17  5  1  0
  5 29  1  6
  7  6  1  0
  8  7  2  0
 10  7  1  0
  9  8  1  0
 12  9  2  0
 11 10  2  0
 12 11  1  0
 30 12  1  0
 13 26  1  0
 13 30  1  1
 14 15  1  1
 16 14  1  0
 14 26  1  0
 15 27  1  0
 17 16  1  0
 16 28  1  1
 17 23  1  1
 18 19  2  0
 18 23  1  0
 19 24  1  0
 21 22  1  0
 23 25  1  0
 24 25  2  0
M  END
$$$$
