
     RDKit          3D

 30 33  0  0  0  0  0  0  0  0999 V2000
  -13.0678    9.4743    0.1943 C   0  0  0  0  0  0  0  0  0  0  0  0
  -12.3292   10.6276   -0.0311 C   0  0  0  0  0  0  0  0  0  0  0  0
  -11.0061   10.6740    0.3144 C   0  0  0  0  0  0  0  0  0  0  0  0
  -11.0953    8.4438    1.1176 C   0  0  0  0  0  0  0  0  0  0  0  0
  -18.5964    8.5963   -2.1138 C   0  0  1  0  0  0  0  0  0  0  0  0
  -26.7983    9.2632   -1.0367 C   0  0  0  0  0  0  0  0  0  0  0  0
  -25.3172    9.3226   -0.9881 C   0  0  0  0  0  0  0  0  0  0  0  0
  -24.6863    9.2610    0.2288 C   0  0  0  0  0  0  0  0  0  0  0  0
  -23.3143    9.3103    0.3539 C   0  0  0  0  0  0  0  0  0  0  0  0
  -24.5245    9.4379   -2.1091 C   0  0  0  0  0  0  0  0  0  0  0  0
  -23.1514    9.4878   -1.9920 C   0  0  0  0  0  0  0  0  0  0  0  0
  -22.5094    9.4264   -0.7717 C   0  0  0  0  0  0  0  0  0  0  0  0
  -20.0172    8.2671   -1.7839 C   0  0  1  0  0  0  0  0  0  0  0  0
  -19.2932    6.3341   -0.7203 C   0  0  2  0  0  0  0  0  0  0  0  0
  -19.9196    5.3859    0.2730 C   0  0  0  0  0  0  0  0  0  0  0  0
  -18.2517    7.2277   -0.0927 C   0  0  1  0  0  0  0  0  0  0  0  0
  -17.5798    7.9469   -1.2516 C   0  0  2  0  0  0  0  0  0  0  0  0
  -15.2568    8.3950   -0.5712 C   0  0  0  0  0  0  0  0  0  0  0  0
  -14.4888    9.4290   -0.1786 C   0  0  0  0  0  0  0  0  0  0  0  0
  -10.3914    9.5920    0.8845 C   0  0  0  0  0  0  0  0  0  0  0  0
  -12.4311    8.4079    0.7647 C   0  0  0  0  0  0  0  0  0  0  0  0
  -13.1065    7.2571    1.0066 F   0  0  0  0  0  0  0  0  0  0  0  0
  -16.5305    8.8343   -0.8146 N   0  0  0  0  0  0  0  0  0  0  0  0
  -15.3314   10.5103   -0.1899 N   0  0  0  0  0  0  0  0  0  0  0  0
  -16.5305   10.1118   -0.5727 N   0  0  0  0  0  0  0  0  0  0  0  0
  -20.2589    6.9883   -1.4071 O   0  0  0  0  0  0  0  0  0  0  0  0
  -21.2161    5.1084   -0.2099 O   0  0  0  0  0  0  0  0  0  0  0  0
  -18.7459    8.0745    0.8617 O   0  0  0  0  0  0  0  0  0  0  0  0
  -18.3561    8.2756   -3.4641 O   0  0  0  0  0  0  0  0  0  0  0  0
  -20.7277    9.4907   -0.6128 S   0  0  0  0  0  0  0  0  0  0  0  0
  1  2  2  0
 19  1  1  0
  1 21  1  0
  2  3  1  0
  3 20  2  0
  4 20  1  0
 21  4  2  0
  5 13  1  0
 17  5  1  0
  5 29  1  6
  7  6  1  0
  8  7  2  0
 10  7  1  0
  9  8  1  0
 12  9  2  0
 11 10  2  0
 12 11  1  0
 30 12  1  0
 13 26  1  0
 13 30  1  1
 14 15  1  1
 16 14  1  0
 14 26  1  0
 15 27  1  0
 17 16  1  0
 16 28  1  1
 17 23  1  1
 18 19  2  0
 18 23  1  0
 19 24  1  0
 21 22  1  0
 23 25  1  0
 24 25  2  0
M  END
$$$$
