
     RDKit          3D

 30 33  0  0  0  0  0  0  0  0999 V2000
  -12.8342    9.2157    0.5097 C   0  0  0  0  0  0  0  0  0  0  0  0
  -12.0927    9.1706   -0.6627 C   0  0  0  0  0  0  0  0  0  0  0  0
  -10.7412    9.3814   -0.6287 C   0  0  0  0  0  0  0  0  0  0  0  0
  -10.8067    9.6886    1.7225 C   0  0  0  0  0  0  0  0  0  0  0  0
  -18.1412    8.8561   -1.7009 C   0  0  1  0  0  0  0  0  0  0  0  0
  -26.2681   10.5067   -1.7542 C   0  0  0  0  0  0  0  0  0  0  0  0
  -24.8481   10.2897   -1.3849 C   0  0  0  0  0  0  0  0  0  0  0  0
  -23.8781   11.0501   -1.9878 C   0  0  0  0  0  0  0  0  0  0  0  0
  -22.5383   10.9062   -1.6966 C   0  0  0  0  0  0  0  0  0  0  0  0
  -24.4385    9.3559   -0.4584 C   0  0  0  0  0  0  0  0  0  0  0  0
  -23.1001    9.2062   -0.1619 C   0  0  0  0  0  0  0  0  0  0  0  0
  -22.1184    9.9671   -0.7639 C   0  0  0  0  0  0  0  0  0  0  0  0
  -19.6313    8.7307   -1.6939 C   0  0  1  0  0  0  0  0  0  0  0  0
  -19.4136    6.5121   -1.0439 C   0  0  2  0  0  0  0  0  0  0  0  0
  -20.3525    5.5017   -0.4308 C   0  0  0  0  0  0  0  0  0  0  0  0
  -18.4017    7.0386   -0.0561 C   0  0  1  0  0  0  0  0  0  0  0  0
  -17.4183    7.8575   -0.8771 C   0  0  2  0  0  0  0  0  0  0  0  0
  -15.0520    8.4010   -0.4701 C   0  0  0  0  0  0  0  0  0  0  0  0
  -14.2858    8.9885    0.4684 C   0  0  0  0  0  0  0  0  0  0  0  0
  -10.1006    9.6386    0.5533 C   0  0  0  0  0  0  0  0  0  0  0  0
  -12.1713    9.4742    1.6766 C   0  0  0  0  0  0  0  0  0  0  0  0
  -12.8483    9.5293    2.8504 F   0  0  0  0  0  0  0  0  0  0  0  0
  -16.3618    8.4183   -0.0716 N   0  0  0  0  0  0  0  0  0  0  0  0
  -15.1665    9.3640    1.4495 N   0  0  0  0  0  0  0  0  0  0  0  0
  -16.3848    9.0064    1.0877 N   0  0  0  0  0  0  0  0  0  0  0  0
  -20.1213    7.4675   -1.6909 O   0  0  0  0  0  0  0  0  0  0  0  0
  -21.6077    5.7080   -1.0415 O   0  0  0  0  0  0  0  0  0  0  0  0
  -18.9505    7.7321    0.9879 O   0  0  0  0  0  0  0  0  0  0  0  0
  -17.6856    8.8001   -3.0325 O   0  0  0  0  0  0  0  0  0  0  0  0
  -20.3796    9.7777   -0.3835 S   0  0  0  0  0  0  0  0  0  0  0  0
  1  2  2  0
 19  1  1  0
  1 21  1  0
  2  3  1  0
  3 20  2  0
  4 20  1  0
 21  4  2  0
  5 13  1  0
 17  5  1  0
  5 29  1  6
  7  6  1  0
  8  7  2  0
 10  7  1  0
  9  8  1  0
 12  9  2  0
 11 10  2  0
 12 11  1  0
 30 12  1  0
 13 26  1  0
 13 30  1  1
 14 15  1  1
 16 14  1  0
 14 26  1  0
 15 27  1  0
 17 16  1  0
 16 28  1  1
 17 23  1  1
 18 19  2  0
 18 23  1  0
 19 24  1  0
 21 22  1  0
 23 25  1  0
 24 25  2  0
M  END
$$$$
