
     RDKit          3D

 30 33  0  0  0  0  0  0  0  0999 V2000
  -12.9701    8.8857    0.2311 C   0  0  0  0  0  0  0  0  0  0  0  0
  -12.3991    9.0489    1.4855 C   0  0  0  0  0  0  0  0  0  0  0  0
  -11.0390    9.1204    1.6166 C   0  0  0  0  0  0  0  0  0  0  0  0
  -10.7589    8.8721   -0.7257 C   0  0  0  0  0  0  0  0  0  0  0  0
  -18.3582    8.5225   -2.0856 C   0  0  1  0  0  0  0  0  0  0  0  0
  -26.4174   10.3807   -2.3328 C   0  0  0  0  0  0  0  0  0  0  0  0
  -25.0092   10.1132   -1.9520 C   0  0  0  0  0  0  0  0  0  0  0  0
  -24.1144   11.1531   -1.9311 C   0  0  0  0  0  0  0  0  0  0  0  0
  -22.7902   10.9826   -1.5878 C   0  0  0  0  0  0  0  0  0  0  0  0
  -24.5384    8.8636   -1.6127 C   0  0  0  0  0  0  0  0  0  0  0  0
  -23.2151    8.6852   -1.2682 C   0  0  0  0  0  0  0  0  0  0  0  0
  -22.3089    9.7260   -1.2448 C   0  0  0  0  0  0  0  0  0  0  0  0
  -19.8420    8.3492   -2.0178 C   0  0  1  0  0  0  0  0  0  0  0  0
  -19.5254    6.2185   -1.1507 C   0  0  2  0  0  0  0  0  0  0  0  0
  -20.4091    5.2466   -0.4071 C   0  0  0  0  0  0  0  0  0  0  0  0
  -18.5055    6.8779   -0.2551 C   0  0  1  0  0  0  0  0  0  0  0  0
  -17.5764    7.6393   -1.1872 C   0  0  2  0  0  0  0  0  0  0  0  0
  -15.1964    8.0355   -0.6982 C   0  0  0  0  0  0  0  0  0  0  0  0
  -14.4317    8.8095    0.0950 C   0  0  0  0  0  0  0  0  0  0  0  0
  -10.2229    9.0330    0.5212 C   0  0  0  0  0  0  0  0  0  0  0  0
  -12.1339    8.8011   -0.8466 C   0  0  0  0  0  0  0  0  0  0  0  0
  -12.6400    8.6414   -2.0946 F   0  0  0  0  0  0  0  0  0  0  0  0
  -16.5184    8.3155   -0.4779 N   0  0  0  0  0  0  0  0  0  0  0  0
  -15.3259    9.5687    0.8044 N   0  0  0  0  0  0  0  0  0  0  0  0
  -16.5502    9.2428    0.4328 N   0  0  0  0  0  0  0  0  0  0  0  0
  -20.2855    7.0776   -1.8693 O   0  0  0  0  0  0  0  0  0  0  0  0
  -21.7007    5.3867   -0.9579 O   0  0  0  0  0  0  0  0  0  0  0  0
  -19.0492    7.6575    0.7292 O   0  0  0  0  0  0  0  0  0  0  0  0
  -17.9390    8.3438   -3.4183 O   0  0  0  0  0  0  0  0  0  0  0  0
  -20.5902    9.5011   -0.7986 S   0  0  0  0  0  0  0  0  0  0  0  0
  1  2  2  0
 19  1  1  0
  1 21  1  0
  2  3  1  0
  3 20  2  0
  4 20  1  0
 21  4  2  0
  5 13  1  0
 17  5  1  0
  5 29  1  6
  7  6  1  0
  8  7  2  0
 10  7  1  0
  9  8  1  0
 12  9  2  0
 11 10  2  0
 12 11  1  0
 30 12  1  0
 13 26  1  0
 13 30  1  1
 14 15  1  1
 16 14  1  0
 14 26  1  0
 15 27  1  0
 17 16  1  0
 16 28  1  1
 17 23  1  1
 18 19  2  0
 18 23  1  0
 19 24  1  0
 21 22  1  0
 23 25  1  0
 24 25  2  0
M  END
$$$$
