
     RDKit          3D

 30 33  0  0  0  0  0  0  0  0999 V2000
  -13.2172    8.9100    0.4846 C   0  0  0  0  0  0  0  0  0  0  0  0
  -12.3555    8.5373   -0.5377 C   0  0  0  0  0  0  0  0  0  0  0  0
  -11.0016    8.6268   -0.3613 C   0  0  0  0  0  0  0  0  0  0  0  0
  -11.3020    9.4557    1.8408 C   0  0  0  0  0  0  0  0  0  0  0  0
  -18.5361    8.5472   -2.0144 C   0  0  1  0  0  0  0  0  0  0  0  0
  -26.7003    9.9374   -2.2326 C   0  0  0  0  0  0  0  0  0  0  0  0
  -25.2803    9.7453   -1.8502 C   0  0  0  0  0  0  0  0  0  0  0  0
  -24.4052   10.7934   -1.9848 C   0  0  0  0  0  0  0  0  0  0  0  0
  -23.0717   10.6911   -1.6505 C   0  0  0  0  0  0  0  0  0  0  0  0
  -24.7795    8.5589   -1.3601 C   0  0  0  0  0  0  0  0  0  0  0  0
  -23.4468    8.4489   -1.0235 C   0  0  0  0  0  0  0  0  0  0  0  0
  -22.5602    9.4985   -1.1561 C   0  0  0  0  0  0  0  0  0  0  0  0
  -20.0136    8.3177   -1.9926 C   0  0  1  0  0  0  0  0  0  0  0  0
  -19.6376    6.1484   -1.2545 C   0  0  2  0  0  0  0  0  0  0  0  0
  -20.5006    5.1004   -0.5948 C   0  0  0  0  0  0  0  0  0  0  0  0
  -18.6619    6.7848   -0.2954 C   0  0  1  0  0  0  0  0  0  0  0  0
  -17.7417    7.6365   -1.1553 C   0  0  2  0  0  0  0  0  0  0  0  0
  -15.3899    8.0569   -0.5614 C   0  0  0  0  0  0  0  0  0  0  0  0
  -14.6708    8.8120    0.2905 C   0  0  0  0  0  0  0  0  0  0  0  0
  -10.4763    9.0821    0.8178 C   0  0  0  0  0  0  0  0  0  0  0  0
  -12.6679    9.3613    1.6518 C   0  0  0  0  0  0  0  0  0  0  0  0
  -13.4648    9.7382    2.6823 F   0  0  0  0  0  0  0  0  0  0  0  0
  -16.7245    8.3029   -0.3801 N   0  0  0  0  0  0  0  0  0  0  0  0
  -15.6058    9.5247    0.9956 N   0  0  0  0  0  0  0  0  0  0  0  0
  -16.8087    9.1914    0.5653 N   0  0  0  0  0  0  0  0  0  0  0  0
  -20.4133    7.0243   -1.9352 O   0  0  0  0  0  0  0  0  0  0  0  0
  -19.9224    4.8507    0.6679 O   0  0  0  0  0  0  0  0  0  0  0  0
  -19.2546    7.4802    0.7231 O   0  0  0  0  0  0  0  0  0  0  0  0
  -18.0824    8.4690   -3.3455 O   0  0  0  0  0  0  0  0  0  0  0  0
  -20.8293    9.3622   -0.7211 S   0  0  0  0  0  0  0  0  0  0  0  0
  1  2  2  0
 19  1  1  0
  1 21  1  0
  2  3  1  0
  3 20  2  0
  4 20  1  0
 21  4  2  0
  5 13  1  0
 17  5  1  0
  5 29  1  6
  7  6  1  0
  8  7  2  0
 10  7  1  0
  9  8  1  0
 12  9  2  0
 11 10  2  0
 12 11  1  0
 30 12  1  0
 13 26  1  0
 13 30  1  1
 14 15  1  1
 16 14  1  0
 14 26  1  0
 15 27  1  0
 17 16  1  0
 16 28  1  1
 17 23  1  1
 18 19  2  0
 18 23  1  0
 19 24  1  0
 21 22  1  0
 23 25  1  0
 24 25  2  0
M  END
$$$$
