
     RDKit          3D

 30 33  0  0  0  0  0  0  0  0999 V2000
  -13.2879    8.8912    0.4063 C   0  0  0  0  0  0  0  0  0  0  0  0
  -12.7909   10.1040    0.8629 C   0  0  0  0  0  0  0  0  0  0  0  0
  -11.6065   10.1469    1.5467 C   0  0  0  0  0  0  0  0  0  0  0  0
  -11.3621    7.7954    1.3528 C   0  0  0  0  0  0  0  0  0  0  0  0
  -18.6844    8.1118   -2.3490 C   0  0  1  0  0  0  0  0  0  0  0  0
  -26.7071    9.5147   -0.9250 C   0  0  0  0  0  0  0  0  0  0  0  0
  -25.2264    9.4769   -0.8480 C   0  0  0  0  0  0  0  0  0  0  0  0
  -24.4980    9.4520   -2.0105 C   0  0  0  0  0  0  0  0  0  0  0  0
  -23.1200    9.4164   -2.0192 C   0  0  0  0  0  0  0  0  0  0  0  0
  -24.5277    9.4653    0.3394 C   0  0  0  0  0  0  0  0  0  0  0  0
  -23.1492    9.4297    0.3387 C   0  0  0  0  0  0  0  0  0  0  0  0
  -22.4094    9.4044   -0.8262 C   0  0  0  0  0  0  0  0  0  0  0  0
  -20.1014    7.9540   -1.8982 C   0  0  1  0  0  0  0  0  0  0  0  0
  -19.4725    6.0889   -0.6661 C   0  0  2  0  0  0  0  0  0  0  0  0
  -20.1063    5.3165    0.4652 C   0  0  0  0  0  0  0  0  0  0  0  0
  -18.3166    6.9445   -0.2091 C   0  0  1  0  0  0  0  0  0  0  0  0
  -17.6690    7.4681   -1.4811 C   0  0  2  0  0  0  0  0  0  0  0  0
  -15.4965    7.8848   -0.4009 C   0  0  0  0  0  0  0  0  0  0  0  0
  -14.5605    8.8501   -0.3279 C   0  0  0  0  0  0  0  0  0  0  0  0
  -10.8956    9.0030    1.7911 C   0  0  0  0  0  0  0  0  0  0  0  0
  -12.5595    7.7637    0.6631 C   0  0  0  0  0  0  0  0  0  0  0  0
  -12.9999    6.5532    0.2392 F   0  0  0  0  0  0  0  0  0  0  0  0
  -16.5193    8.2962   -1.2128 N   0  0  0  0  0  0  0  0  0  0  0  0
  -15.0428    9.8608   -1.1185 N   0  0  0  0  0  0  0  0  0  0  0  0
  -16.2052    9.4895   -1.6224 N   0  0  0  0  0  0  0  0  0  0  0  0
  -20.4246    6.7517   -1.3636 O   0  0  0  0  0  0  0  0  0  0  0  0
  -21.4624    5.1450    0.1149 O   0  0  0  0  0  0  0  0  0  0  0  0
  -18.6678    7.9322    0.6703 O   0  0  0  0  0  0  0  0  0  0  0  0
  -18.5683    7.6255   -3.6657 O   0  0  0  0  0  0  0  0  0  0  0  0
  -20.6201    9.3582   -0.8339 S   0  0  0  0  0  0  0  0  0  0  0  0
  1  2  2  0
 19  1  1  0
  1 21  1  0
  2  3  1  0
  3 20  2  0
  4 20  1  0
 21  4  2  0
  5 13  1  0
 17  5  1  0
  5 29  1  6
  7  6  1  0
  8  7  2  0
 10  7  1  0
  9  8  1  0
 12  9  2  0
 11 10  2  0
 12 11  1  0
 30 12  1  0
 13 26  1  0
 13 30  1  1
 14 15  1  1
 16 14  1  0
 14 26  1  0
 15 27  1  0
 17 16  1  0
 16 28  1  1
 17 23  1  1
 18 19  2  0
 18 23  1  0
 19 24  1  0
 21 22  1  0
 23 25  1  0
 24 25  2  0
M  END
$$$$
