
     RDKit          3D

 30 33  0  0  0  0  0  0  0  0999 V2000
  -20.9021    5.7685    1.2810 C   0  0  0  0  0  0  0  0  0  0  0  0
  -22.0908    5.2677    0.7685 C   0  0  0  0  0  0  0  0  0  0  0  0
  -22.8083    4.3429    1.4771 C   0  0  0  0  0  0  0  0  0  0  0  0
  -21.2030    4.3747    3.2231 C   0  0  0  0  0  0  0  0  0  0  0  0
  -16.9532    8.0113   -2.3496 C   0  0  1  0  0  0  0  0  0  0  0  0
   -9.6963   10.0499   -1.2143 C   0  0  0  0  0  0  0  0  0  0  0  0
  -11.1704   10.1616   -1.3333 C   0  0  0  0  0  0  0  0  0  0  0  0
  -11.7670    9.8712   -2.5343 C   0  0  0  0  0  0  0  0  0  0  0  0
  -13.1304    9.9520   -2.7215 C   0  0  0  0  0  0  0  0  0  0  0  0
  -11.9894   10.5454   -0.2939 C   0  0  0  0  0  0  0  0  0  0  0  0
  -13.3541   10.6285   -0.4736 C   0  0  0  0  0  0  0  0  0  0  0  0
  -13.9617   10.3381   -1.6784 C   0  0  0  0  0  0  0  0  0  0  0  0
  -16.2224    9.0994   -3.0692 C   0  0  1  0  0  0  0  0  0  0  0  0
  -18.1667    9.5938   -4.2385 C   0  0  2  0  0  0  0  0  0  0  0  0
  -18.6347   10.7839   -5.0402 C   0  0  0  0  0  0  0  0  0  0  0  0
  -18.8430    9.4979   -2.8930 C   0  0  1  0  0  0  0  0  0  0  0  0
  -18.4292    8.1501   -2.3238 C   0  0  2  0  0  0  0  0  0  0  0  0
  -19.6935    6.7350   -0.7556 C   0  0  0  0  0  0  0  0  0  0  0  0
  -20.1348    6.7619    0.5163 C   0  0  0  0  0  0  0  0  0  0  0  0
  -22.3701    3.8982    2.6951 C   0  0  0  0  0  0  0  0  0  0  0  0
  -20.4863    5.3086    2.4989 C   0  0  0  0  0  0  0  0  0  0  0  0
  -19.3321    5.7652    3.0451 F   0  0  0  0  0  0  0  0  0  0  0  0
  -19.0183    7.8935   -1.0329 N   0  0  0  0  0  0  0  0  0  0  0  0
  -19.7091    7.9697    1.0053 N   0  0  0  0  0  0  0  0  0  0  0  0
  -19.0521    8.6068    0.0536 N   0  0  0  0  0  0  0  0  0  0  0  0
  -16.8141    9.5698   -4.1936 O   0  0  0  0  0  0  0  0  0  0  0  0
  -17.5110   11.2407   -5.7611 O   0  0  0  0  0  0  0  0  0  0  0  0
  -18.5743   10.5481   -2.0580 O   0  0  0  0  0  0  0  0  0  0  0  0
  -16.5975    6.7717   -2.9159 O   0  0  0  0  0  0  0  0  0  0  0  0
  -15.7323   10.4441   -1.9181 S   0  0  0  0  0  0  0  0  0  0  0  0
  1  2  2  0
 19  1  1  0
  1 21  1  0
  2  3  1  0
  3 20  2  0
  4 20  1  0
 21  4  2  0
  5 13  1  0
 17  5  1  0
  5 29  1  6
  7  6  1  0
  8  7  2  0
 10  7  1  0
  9  8  1  0
 12  9  2  0
 11 10  2  0
 12 11  1  0
 30 12  1  0
 13 26  1  0
 13 30  1  1
 14 15  1  1
 16 14  1  0
 14 26  1  0
 15 27  1  0
 17 16  1  0
 16 28  1  1
 17 23  1  1
 18 19  2  0
 18 23  1  0
 19 24  1  0
 21 22  1  0
 23 25  1  0
 24 25  2  0
M  END
$$$$
