
     RDKit          3D

 30 33  0  0  0  0  0  0  0  0999 V2000
  -12.8585    8.9335    0.5589 C   0  0  0  0  0  0  0  0  0  0  0  0
  -11.9713    8.7282   -0.4885 C   0  0  0  0  0  0  0  0  0  0  0  0
  -10.6229    8.7274   -0.2558 C   0  0  0  0  0  0  0  0  0  0  0  0
  -10.9798    9.1321    2.0541 C   0  0  0  0  0  0  0  0  0  0  0  0
  -18.3201    8.5986   -1.8454 C   0  0  1  0  0  0  0  0  0  0  0  0
  -26.5364    9.5329   -1.3861 C   0  0  0  0  0  0  0  0  0  0  0  0
  -25.0697    9.5538   -1.1667 C   0  0  0  0  0  0  0  0  0  0  0  0
  -24.4565    8.4413   -0.6481 C   0  0  0  0  0  0  0  0  0  0  0  0
  -23.0987    8.3856   -0.4164 C   0  0  0  0  0  0  0  0  0  0  0  0
  -24.2738   10.6403   -1.4570 C   0  0  0  0  0  0  0  0  0  0  0  0
  -22.9148   10.5921   -1.2280 C   0  0  0  0  0  0  0  0  0  0  0  0
  -22.2906    9.4769   -0.7067 C   0  0  0  0  0  0  0  0  0  0  0  0
  -19.7831    8.3291   -1.6937 C   0  0  1  0  0  0  0  0  0  0  0  0
  -19.2810    6.2076   -0.8943 C   0  0  2  0  0  0  0  0  0  0  0  0
  -20.0549    5.1674   -0.1215 C   0  0  0  0  0  0  0  0  0  0  0  0
  -18.2523    6.9147   -0.0464 C   0  0  1  0  0  0  0  0  0  0  0  0
  -17.4311    7.7512   -1.0147 C   0  0  2  0  0  0  0  0  0  0  0  0
  -15.0710    8.0709   -0.3916 C   0  0  0  0  0  0  0  0  0  0  0  0
  -14.3062    8.9334    0.3042 C   0  0  0  0  0  0  0  0  0  0  0  0
  -10.1283    8.9275    1.0047 C   0  0  0  0  0  0  0  0  0  0  0  0
  -12.3397    9.1309    1.8077 C   0  0  0  0  0  0  0  0  0  0  0  0
  -13.1626    9.3361    2.8660 F   0  0  0  0  0  0  0  0  0  0  0  0
  -16.3769    8.4808   -0.3545 N   0  0  0  0  0  0  0  0  0  0  0  0
  -15.1836    9.8801    0.7658 N   0  0  0  0  0  0  0  0  0  0  0  0
  -16.3989    9.5722    0.3518 N   0  0  0  0  0  0  0  0  0  0  0  0
  -20.1358    7.0291   -1.5474 O   0  0  0  0  0  0  0  0  0  0  0  0
  -21.3234    5.0838   -0.7339 O   0  0  0  0  0  0  0  0  0  0  0  0
  -18.7835    7.6395    0.9855 O   0  0  0  0  0  0  0  0  0  0  0  0
  -17.9719    8.4718   -3.2042 O   0  0  0  0  0  0  0  0  0  0  0  0
  -20.5273    9.4080   -0.4071 S   0  0  0  0  0  0  0  0  0  0  0  0
  1  2  2  0
 19  1  1  0
  1 21  1  0
  2  3  1  0
  3 20  2  0
  4 20  1  0
 21  4  2  0
  5 13  1  0
 17  5  1  0
  5 29  1  6
  7  6  1  0
  8  7  2  0
 10  7  1  0
  9  8  1  0
 12  9  2  0
 11 10  2  0
 12 11  1  0
 30 12  1  0
 13 26  1  0
 13 30  1  1
 14 15  1  1
 16 14  1  0
 14 26  1  0
 15 27  1  0
 17 16  1  0
 16 28  1  1
 17 23  1  1
 18 19  2  0
 18 23  1  0
 19 24  1  0
 21 22  1  0
 23 25  1  0
 24 25  2  0
M  END
$$$$
