
     RDKit          3D

 30 33  0  0  0  0  0  0  0  0999 V2000
  -13.2754    9.4708    0.3574 C   0  0  0  0  0  0  0  0  0  0  0  0
  -12.7565   10.0688   -0.7825 C   0  0  0  0  0  0  0  0  0  0  0  0
  -11.6416   10.8574   -0.6972 C   0  0  0  0  0  0  0  0  0  0  0  0
  -11.5124   10.4925    1.6431 C   0  0  0  0  0  0  0  0  0  0  0  0
  -18.1556    8.5208   -1.7421 C   0  0  1  0  0  0  0  0  0  0  0  0
  -25.3911   12.3249   -1.3679 C   0  0  0  0  0  0  0  0  0  0  0  0
  -24.1141   11.6155   -1.1114 C   0  0  0  0  0  0  0  0  0  0  0  0
  -23.9989   10.8327    0.0096 C   0  0  0  0  0  0  0  0  0  0  0  0
  -22.8448   10.1434    0.3149 C   0  0  0  0  0  0  0  0  0  0  0  0
  -23.0196   11.6966   -1.9444 C   0  0  0  0  0  0  0  0  0  0  0  0
  -21.8617   11.0100   -1.6456 C   0  0  0  0  0  0  0  0  0  0  0  0
  -21.7380   10.2207   -0.5201 C   0  0  0  0  0  0  0  0  0  0  0  0
  -19.6490    8.5173   -1.6664 C   0  0  1  0  0  0  0  0  0  0  0  0
  -19.6069    6.2020   -1.4940 C   0  0  2  0  0  0  0  0  0  0  0  0
  -20.6059    5.1656   -1.0400 C   0  0  0  0  0  0  0  0  0  0  0  0
  -18.5072    6.4291   -0.4860 C   0  0  1  0  0  0  0  0  0  0  0  0
  -17.4909    7.3183   -1.1848 C   0  0  2  0  0  0  0  0  0  0  0  0
  -15.4214    8.5574   -0.6929 C   0  0  0  0  0  0  0  0  0  0  0  0
  -14.4732    8.6244    0.2608 C   0  0  0  0  0  0  0  0  0  0  0  0
  -11.0224   11.0693    0.5050 C   0  0  0  0  0  0  0  0  0  0  0  0
  -12.6390    9.6978    1.5453 C   0  0  0  0  0  0  0  0  0  0  0  0
  -13.1047    9.1375    2.6891 F   0  0  0  0  0  0  0  0  0  0  0  0
  -16.3520    7.6131   -0.3509 N   0  0  0  0  0  0  0  0  0  0  0  0
  -14.8532    7.6940    1.1931 N   0  0  0  0  0  0  0  0  0  0  0  0
  -15.9712    7.1191    0.7899 N   0  0  0  0  0  0  0  0  0  0  0  0
  -20.2524    7.3246   -1.8881 O   0  0  0  0  0  0  0  0  0  0  0  0
  -21.8652    5.8021   -1.0460 O   0  0  0  0  0  0  0  0  0  0  0  0
  -18.9421    6.9333    0.7093 O   0  0  0  0  0  0  0  0  0  0  0  0
  -17.7678    8.7054   -3.0835 O   0  0  0  0  0  0  0  0  0  0  0  0
  -20.2379    9.3270   -0.1266 S   0  0  0  0  0  0  0  0  0  0  0  0
  1  2  2  0
 19  1  1  0
  1 21  1  0
  2  3  1  0
  3 20  2  0
  4 20  1  0
 21  4  2  0
  5 13  1  0
 17  5  1  0
  5 29  1  6
  7  6  1  0
  8  7  2  0
 10  7  1  0
  9  8  1  0
 12  9  2  0
 11 10  2  0
 12 11  1  0
 30 12  1  0
 13 26  1  0
 13 30  1  1
 14 15  1  1
 16 14  1  0
 14 26  1  0
 15 27  1  0
 17 16  1  0
 16 28  1  1
 17 23  1  1
 18 19  2  0
 18 23  1  0
 19 24  1  0
 21 22  1  0
 23 25  1  0
 24 25  2  0
M  END
$$$$
