
     RDKit          3D

 30 33  0  0  0  0  0  0  0  0999 V2000
  -13.0708    9.0773    0.4809 C   0  0  0  0  0  0  0  0  0  0  0  0
  -12.3433    9.0588   -0.7009 C   0  0  0  0  0  0  0  0  0  0  0  0
  -11.0453    9.4914   -0.7149 C   0  0  0  0  0  0  0  0  0  0  0  0
  -11.1386    9.9758    1.6053 C   0  0  0  0  0  0  0  0  0  0  0  0
  -18.3900    8.9804   -1.2962 C   0  0  1  0  0  0  0  0  0  0  0  0
  -26.4465   10.5961   -0.1658 C   0  0  0  0  0  0  0  0  0  0  0  0
  -25.0039   10.3055    0.0193 C   0  0  0  0  0  0  0  0  0  0  0  0
  -24.0952   10.8584   -0.8474 C   0  0  0  0  0  0  0  0  0  0  0  0
  -22.7393   10.6345   -0.7394 C   0  0  0  0  0  0  0  0  0  0  0  0
  -24.5141    9.5013    1.0250 C   0  0  0  0  0  0  0  0  0  0  0  0
  -23.1590    9.2727    1.1396 C   0  0  0  0  0  0  0  0  0  0  0  0
  -22.2387    9.8251    0.2718 C   0  0  0  0  0  0  0  0  0  0  0  0
  -19.8811    8.9119   -1.2071 C   0  0  1  0  0  0  0  0  0  0  0  0
  -19.7511    6.5946   -1.2802 C   0  0  2  0  0  0  0  0  0  0  0  0
  -20.7048    5.4788   -0.9285 C   0  0  0  0  0  0  0  0  0  0  0  0
  -18.6470    6.7564   -0.2644 C   0  0  1  0  0  0  0  0  0  0  0  0
  -17.6738    7.7522   -0.8752 C   0  0  2  0  0  0  0  0  0  0  0  0
  -15.3471    8.4721   -0.5165 C   0  0  0  0  0  0  0  0  0  0  0  0
  -14.4649    8.6115    0.4911 C   0  0  0  0  0  0  0  0  0  0  0  0
  -10.4452    9.9468    0.4279 C   0  0  0  0  0  0  0  0  0  0  0  0
  -12.4491    9.5365    1.6080 C   0  0  0  0  0  0  0  0  0  0  0  0
  -13.1146    9.5755    2.7889 F   0  0  0  0  0  0  0  0  0  0  0  0
  -16.5354    8.0012   -0.0257 N   0  0  0  0  0  0  0  0  0  0  0  0
  -15.1500    8.2119    1.6092 N   0  0  0  0  0  0  0  0  0  0  0  0
  -16.3723    7.8590    1.2563 N   0  0  0  0  0  0  0  0  0  0  0  0
  -20.4429    7.7269   -1.5476 O   0  0  0  0  0  0  0  0  0  0  0  0
  -21.9957    5.9455   -1.2553 O   0  0  0  0  0  0  0  0  0  0  0  0
  -19.0841    7.1153    0.9815 O   0  0  0  0  0  0  0  0  0  0  0  0
  -18.0274    9.3194   -2.6143 O   0  0  0  0  0  0  0  0  0  0  0  0
  -20.4787    9.5323    0.4150 S   0  0  0  0  0  0  0  0  0  0  0  0
  1  2  2  0
 19  1  1  0
  1 21  1  0
  2  3  1  0
  3 20  2  0
  4 20  1  0
 21  4  2  0
  5 13  1  0
 17  5  1  0
  5 29  1  6
  7  6  1  0
  8  7  2  0
 10  7  1  0
  9  8  1  0
 12  9  2  0
 11 10  2  0
 12 11  1  0
 30 12  1  0
 13 26  1  0
 13 30  1  1
 14 15  1  1
 16 14  1  0
 14 26  1  0
 15 27  1  0
 17 16  1  0
 16 28  1  1
 17 23  1  1
 18 19  2  0
 18 23  1  0
 19 24  1  0
 21 22  1  0
 23 25  1  0
 24 25  2  0
M  END
$$$$
