
     RDKit          3D

 30 33  0  0  0  0  0  0  0  0999 V2000
  -13.0980    9.2949    0.3609 C   0  0  0  0  0  0  0  0  0  0  0  0
  -12.1718   10.1857   -0.1636 C   0  0  0  0  0  0  0  0  0  0  0  0
  -10.8955   10.2181    0.3285 C   0  0  0  0  0  0  0  0  0  0  0  0
  -11.4037    8.4919    1.8741 C   0  0  0  0  0  0  0  0  0  0  0  0
  -18.3470    8.4042   -2.5185 C   0  0  1  0  0  0  0  0  0  0  0  0
  -26.6238    9.0819   -2.1930 C   0  0  0  0  0  0  0  0  0  0  0  0
  -25.1542    9.2092   -2.0390 C   0  0  0  0  0  0  0  0  0  0  0  0
  -24.5476    8.6538   -0.9408 C   0  0  0  0  0  0  0  0  0  0  0  0
  -23.1876    8.7309   -0.7290 C   0  0  0  0  0  0  0  0  0  0  0  0
  -24.3492    9.8620   -2.9468 C   0  0  0  0  0  0  0  0  0  0  0  0
  -22.9879    9.9433   -2.7418 C   0  0  0  0  0  0  0  0  0  0  0  0
  -22.3703    9.3872   -1.6398 C   0  0  0  0  0  0  0  0  0  0  0  0
  -19.8099    8.1499   -2.3418 C   0  0  1  0  0  0  0  0  0  0  0  0
  -19.3019    6.2900   -1.0476 C   0  0  2  0  0  0  0  0  0  0  0  0
  -20.0830    5.4488   -0.0676 C   0  0  0  0  0  0  0  0  0  0  0  0
  -18.3068    7.1988   -0.3685 C   0  0  1  0  0  0  0  0  0  0  0  0
  -17.4703    7.7967   -1.4886 C   0  0  2  0  0  0  0  0  0  0  0  0
  -15.2247    8.2260   -0.5757 C   0  0  0  0  0  0  0  0  0  0  0  0
  -14.4678    9.2636   -0.1710 C   0  0  0  0  0  0  0  0  0  0  0  0
  -10.5118    9.3789    1.3395 C   0  0  0  0  0  0  0  0  0  0  0  0
  -12.6902    8.4677    1.3695 C   0  0  0  0  0  0  0  0  0  0  0  0
  -13.5553    7.5786    1.9173 F   0  0  0  0  0  0  0  0  0  0  0  0
  -16.4447    8.6831   -0.9966 N   0  0  0  0  0  0  0  0  0  0  0  0
  -15.2620   10.3652   -0.3575 N   0  0  0  0  0  0  0  0  0  0  0  0
  -16.4238    9.9746   -0.8481 N   0  0  0  0  0  0  0  0  0  0  0  0
  -20.1491    6.9154   -1.8980 O   0  0  0  0  0  0  0  0  0  0  0  0
  -20.3428    6.2776    1.0445 O   0  0  0  0  0  0  0  0  0  0  0  0
  -18.8762    8.1379    0.4476 O   0  0  0  0  0  0  0  0  0  0  0  0
  -17.9594    7.9643   -3.7991 O   0  0  0  0  0  0  0  0  0  0  0  0
  -20.6041    9.4893   -1.3678 S   0  0  0  0  0  0  0  0  0  0  0  0
  1  2  2  0
 19  1  1  0
  1 21  1  0
  2  3  1  0
  3 20  2  0
  4 20  1  0
 21  4  2  0
  5 13  1  0
 17  5  1  0
  5 29  1  6
  7  6  1  0
  8  7  2  0
 10  7  1  0
  9  8  1  0
 12  9  2  0
 11 10  2  0
 12 11  1  0
 30 12  1  0
 13 26  1  0
 13 30  1  1
 14 15  1  1
 16 14  1  0
 14 26  1  0
 15 27  1  0
 17 16  1  0
 16 28  1  6
 17 23  1  1
 18 19  2  0
 18 23  1  0
 19 24  1  0
 21 22  1  0
 23 25  1  0
 24 25  2  0
M  END
$$$$
