
     RDKit          3D

 30 33  0  0  0  0  0  0  0  0999 V2000
  -12.9440    8.9934    0.3920 C   0  0  0  0  0  0  0  0  0  0  0  0
  -12.1373    8.2002   -0.4120 C   0  0  0  0  0  0  0  0  0  0  0  0
  -10.7752    8.2958   -0.3248 C   0  0  0  0  0  0  0  0  0  0  0  0
  -10.9584    9.9616    1.3539 C   0  0  0  0  0  0  0  0  0  0  0  0
  -18.4681    8.7022   -1.6833 C   0  0  1  0  0  0  0  0  0  0  0  0
  -26.6208    9.7957   -1.2028 C   0  0  0  0  0  0  0  0  0  0  0  0
  -25.1753    9.6943   -0.8867 C   0  0  0  0  0  0  0  0  0  0  0  0
  -24.3246    9.1550   -1.8183 C   0  0  0  0  0  0  0  0  0  0  0  0
  -22.9699    9.0279   -1.5968 C   0  0  0  0  0  0  0  0  0  0  0  0
  -24.6271   10.1159    0.3051 C   0  0  0  0  0  0  0  0  0  0  0  0
  -23.2729    9.9920    0.5339 C   0  0  0  0  0  0  0  0  0  0  0  0
  -22.4106    9.4506   -0.3981 C   0  0  0  0  0  0  0  0  0  0  0  0
  -19.9270    8.4046   -1.5457 C   0  0  1  0  0  0  0  0  0  0  0  0
  -19.4021    6.1950   -1.0616 C   0  0  2  0  0  0  0  0  0  0  0  0
  -20.1578    5.0515   -0.4295 C   0  0  0  0  0  0  0  0  0  0  0  0
  -18.3611    6.7825   -0.1406 C   0  0  1  0  0  0  0  0  0  0  0  0
  -17.5609    7.7522   -0.9956 C   0  0  2  0  0  0  0  0  0  0  0  0
  -15.1771    8.1702   -0.5451 C   0  0  0  0  0  0  0  0  0  0  0  0
  -14.4067    8.8872    0.2949 C   0  0  0  0  0  0  0  0  0  0  0  0
  -10.1877    9.1689    0.5505 C   0  0  0  0  0  0  0  0  0  0  0  0
  -12.3332    9.8569    1.2575 C   0  0  0  0  0  0  0  0  0  0  0  0
  -13.0748   10.6545    2.0656 F   0  0  0  0  0  0  0  0  0  0  0  0
  -16.4978    8.3886   -0.2578 N   0  0  0  0  0  0  0  0  0  0  0  0
  -15.2962    9.5483    1.1017 N   0  0  0  0  0  0  0  0  0  0  0  0
  -16.5233    9.2233    0.7388 N   0  0  0  0  0  0  0  0  0  0  0  0
  -20.2719    7.0947   -1.5776 O   0  0  0  0  0  0  0  0  0  0  0  0
  -21.4030    4.9884   -1.0902 O   0  0  0  0  0  0  0  0  0  0  0  0
  -18.8764    7.3516    0.9921 O   0  0  0  0  0  0  0  0  0  0  0  0
  -18.1441    8.7699   -3.0523 O   0  0  0  0  0  0  0  0  0  0  0  0
  -20.6521    9.2870   -0.1073 S   0  0  0  0  0  0  0  0  0  0  0  0
  1  2  2  0
 19  1  1  0
  1 21  1  0
  2  3  1  0
  3 20  2  0
  4 20  1  0
 21  4  2  0
  5 13  1  0
 17  5  1  0
  5 29  1  6
  7  6  1  0
  8  7  2  0
 10  7  1  0
  9  8  1  0
 12  9  2  0
 11 10  2  0
 12 11  1  0
 30 12  1  0
 13 26  1  0
 13 30  1  1
 14 15  1  1
 16 14  1  0
 14 26  1  0
 15 27  1  0
 17 16  1  0
 16 28  1  1
 17 23  1  1
 18 19  2  0
 18 23  1  0
 19 24  1  0
 21 22  1  0
 23 25  1  0
 24 25  2  0
M  END
$$$$
