
     RDKit          3D

 19 20  0  0  0  0  0  0  0  0999 V2000
   34.0745    7.6074  -11.3086 C   0  0  0  0  0  0  0  0  0  0  0  0
   33.0331    6.7069  -11.2844 C   0  0  0  0  0  0  0  0  0  0  0  0
   31.8222    7.0583  -10.7265 C   0  0  0  0  0  0  0  0  0  0  0  0
   28.1888    9.6693   -9.6452 C   0  0  0  0  0  0  0  0  0  0  0  0
   27.9562    9.4076   -8.3194 C   0  0  0  0  0  0  0  0  0  0  0  0
   28.9273    8.7801   -7.5990 C   0  0  0  0  0  0  0  0  0  0  0  0
   30.1007    8.4324   -8.2224 C   0  0  0  0  0  0  0  0  0  0  0  0
   32.6448    9.2339  -10.1918 C   0  0  0  0  0  0  0  0  0  0  0  0
   33.8746    8.8621  -10.7636 C   0  0  0  0  0  0  0  0  0  0  0  0
   26.7767    9.7639   -7.7184 F   0  0  0  0  0  0  0  0  0  0  0  0
   29.3618    9.3250  -10.2795 C   0  0  0  0  0  0  0  0  0  0  0  0
   30.3561    8.6910   -9.5741 C   0  0  0  0  0  0  0  0  0  0  0  0
   31.6144    8.3241  -10.1742 C   0  0  0  0  0  0  0  0  0  0  0  0
   35.3367    7.2128  -11.9004 C   0  0  0  0  0  0  0  0  0  0  0  0
   36.4225    8.0621  -11.9862 O   0  0  0  0  0  0  0  0  0  0  0  0
   35.4710    6.0552  -12.3606 O   0  0  0  0  0  0  0  0  0  0  0  0
   32.5417   10.8637   -9.5642 S   0  0  2  0  0  6  0  0  0  0  0  0
   31.6475   11.7405  -10.4104 O   0  0  0  0  0  0  0  0  0  0  0  0
   33.8549   11.4745   -9.2548 O   0  0  0  0  0  0  0  0  0  0  0  0
  2  1  2  0
  9  1  1  0
  1 14  1  0
  3  2  1  0
 13  3  2  0
  4  5  2  0
 11  4  1  0
  6  5  1  0
  5 10  1  0
  7  6  2  0
 12  7  1  0
  8  9  2  0
 13  8  1  0
 17  8  1  6
 12 11  2  0
 12 13  1  0
 14 15  1  0
 14 16  2  0
 17 18  2  0
 17 19  2  0
M  END
$$$$
