
     RDKit          3D

 19 20  0  0  0  0  0  0  0  0999 V2000
   34.1245    9.9802  -12.7110 C   0  0  0  0  0  0  0  0  0  0  0  0
   33.3779   11.1318  -12.8225 C   0  0  0  0  0  0  0  0  0  0  0  0
   32.0065   11.0878  -12.6873 C   0  0  0  0  0  0  0  0  0  0  0  0
   27.7065    9.7272  -13.2202 C   0  0  0  0  0  0  0  0  0  0  0  0
   27.1211    9.7741  -11.9810 C   0  0  0  0  0  0  0  0  0  0  0  0
   27.9242    9.8518  -10.8835 C   0  0  0  0  0  0  0  0  0  0  0  0
   29.2867    9.8803  -11.0547 C   0  0  0  0  0  0  0  0  0  0  0  0
   32.0697    8.7302  -12.3213 C   0  0  0  0  0  0  0  0  0  0  0  0
   33.4677    8.7896  -12.4618 C   0  0  0  0  0  0  0  0  0  0  0  0
   25.7583    9.7443  -11.8345 F   0  0  0  0  0  0  0  0  0  0  0  0
   29.0713    9.7553  -13.4026 C   0  0  0  0  0  0  0  0  0  0  0  0
   29.9022    9.8332  -12.3109 C   0  0  0  0  0  0  0  0  0  0  0  0
   31.3374    9.8880  -12.4358 C   0  0  0  0  0  0  0  0  0  0  0  0
   35.5640   10.0540  -12.8576 C   0  0  0  0  0  0  0  0  0  0  0  0
   36.3743    8.9357  -12.8725 O   0  0  0  0  0  0  0  0  0  0  0  0
   36.1189   11.1711  -12.9776 O   0  0  0  0  0  0  0  0  0  0  0  0
   31.3894    7.1537  -11.9861 S   0  0  2  0  0  6  0  0  0  0  0  0
   32.4552    6.1394  -11.6400 O   0  0  0  0  0  0  0  0  0  0  0  0
   30.4281    6.6823  -13.0092 O   0  0  0  0  0  0  0  0  0  0  0  0
  2  1  2  0
  9  1  1  0
  1 14  1  0
  3  2  1  0
 13  3  2  0
  4  5  2  0
 11  4  1  0
  6  5  1  0
  5 10  1  0
  7  6  2  0
 12  7  1  0
  8  9  2  0
 13  8  1  0
 17  8  1  6
 12 11  2  0
 12 13  1  0
 14 15  1  0
 14 16  2  0
 17 18  2  0
 17 19  2  0
M  END
$$$$
