
     RDKit          3D

 19 20  0  0  0  0  0  0  0  0999 V2000
   34.3285    7.3503  -14.9978 C   0  0  0  0  0  0  0  0  0  0  0  0
   34.5240    8.5919  -15.5601 C   0  0  0  0  0  0  0  0  0  0  0  0
   33.4510    9.3208  -16.0276 C   0  0  0  0  0  0  0  0  0  0  0  0
   29.6045   10.3370  -18.2038 C   0  0  0  0  0  0  0  0  0  0  0  0
   28.8488   11.0997  -17.3509 C   0  0  0  0  0  0  0  0  0  0  0  0
   29.1724   11.1123  -16.0277 C   0  0  0  0  0  0  0  0  0  0  0  0
   30.2398   10.3640  -15.5950 C   0  0  0  0  0  0  0  0  0  0  0  0
   31.9356    7.5917  -15.3878 C   0  0  0  0  0  0  0  0  0  0  0  0
   33.0390    6.8589  -14.9153 C   0  0  0  0  0  0  0  0  0  0  0  0
   27.7873   11.8387  -17.8057 F   0  0  0  0  0  0  0  0  0  0  0  0
   30.6766    9.5834  -17.7801 C   0  0  0  0  0  0  0  0  0  0  0  0
   31.0225    9.5797  -16.4502 C   0  0  0  0  0  0  0  0  0  0  0  0
   32.1462    8.8296  -15.9472 C   0  0  0  0  0  0  0  0  0  0  0  0
   35.4732    6.6050  -14.5146 C   0  0  0  0  0  0  0  0  0  0  0  0
   36.7652    7.0885  -14.5818 O   0  0  0  0  0  0  0  0  0  0  0  0
   35.3065    5.4702  -14.0102 O   0  0  0  0  0  0  0  0  0  0  0  0
   30.3660    6.8442  -15.1918 S   0  0  2  0  0  6  0  0  0  0  0  0
   29.5338    7.5424  -14.1409 O   0  0  0  0  0  0  0  0  0  0  0  0
   30.4152    5.3726  -15.0321 O   0  0  0  0  0  0  0  0  0  0  0  0
  2  1  2  0
  9  1  1  0
  1 14  1  0
  3  2  1  0
 13  3  2  0
  4  5  2  0
 11  4  1  0
  6  5  1  0
  5 10  1  0
  7  6  2  0
 12  7  1  0
  8  9  2  0
 13  8  1  0
 17  8  1  1
 12 11  2  0
 12 13  1  0
 14 15  1  0
 14 16  2  0
 17 18  2  0
 17 19  2  0
M  END
$$$$
