
     RDKit          3D

 19 20  0  0  0  0  0  0  0  0999 V2000
   32.3467    5.1140  -11.7442 C   0  0  0  0  0  0  0  0  0  0  0  0
   31.2362    4.6022  -11.1111 C   0  0  0  0  0  0  0  0  0  0  0  0
   30.4143    5.4270  -10.3727 C   0  0  0  0  0  0  0  0  0  0  0  0
   29.1607    8.6586   -7.4087 C   0  0  0  0  0  0  0  0  0  0  0  0
   28.1150    9.3203   -7.9996 C   0  0  0  0  0  0  0  0  0  0  0  0
   27.9130    9.1573   -9.3369 C   0  0  0  0  0  0  0  0  0  0  0  0
   28.7597    8.3395  -10.0444 C   0  0  0  0  0  0  0  0  0  0  0  0
   31.7828    7.3177  -10.8711 C   0  0  0  0  0  0  0  0  0  0  0  0
   32.6127    6.4650  -11.6208 C   0  0  0  0  0  0  0  0  0  0  0  0
   27.2827   10.1319   -7.2728 F   0  0  0  0  0  0  0  0  0  0  0  0
   30.0151    7.8364   -8.1091 C   0  0  0  0  0  0  0  0  0  0  0  0
   29.8319    7.6562   -9.4591 C   0  0  0  0  0  0  0  0  0  0  0  0
   30.6780    6.7924  -10.2441 C   0  0  0  0  0  0  0  0  0  0  0  0
   33.1940    4.2256  -12.5136 C   0  0  0  0  0  0  0  0  0  0  0  0
   34.3031    4.6641  -13.2102 O   0  0  0  0  0  0  0  0  0  0  0  0
   32.9274    3.0023  -12.5629 O   0  0  0  0  0  0  0  0  0  0  0  0
   32.2402    9.0058  -10.8288 S   0  0  2  0  0  6  0  0  0  0  0  0
   31.3087    9.8654  -11.6521 O   0  0  0  0  0  0  0  0  0  0  0  0
   33.6748    9.2485  -11.1049 O   0  0  0  0  0  0  0  0  0  0  0  0
  2  1  2  0
  9  1  1  0
  1 14  1  0
  3  2  1  0
 13  3  2  0
  4  5  2  0
 11  4  1  0
  6  5  1  0
  5 10  1  0
  7  6  2  0
 12  7  1  0
  8  9  2  0
 13  8  1  0
 17  8  1  6
 12 11  2  0
 12 13  1  0
 14 15  1  0
 14 16  2  0
 17 18  2  0
 17 19  2  0
M  END
$$$$
