
     RDKit          3D

 19 20  0  0  0  0  0  0  0  0999 V2000
   31.9462    5.5512  -14.5542 C   0  0  0  0  0  0  0  0  0  0  0  0
   30.5712    5.5915  -14.6149 C   0  0  0  0  0  0  0  0  0  0  0  0
   29.9310    6.6732  -15.1816 C   0  0  0  0  0  0  0  0  0  0  0  0
   28.9597   11.0351  -16.1415 C   0  0  0  0  0  0  0  0  0  0  0  0
   28.6574   11.0514  -17.4789 C   0  0  0  0  0  0  0  0  0  0  0  0
   29.0165    9.9812  -18.2414 C   0  0  0  0  0  0  0  0  0  0  0  0
   29.6663    8.9271  -17.6471 C   0  0  0  0  0  0  0  0  0  0  0  0
   32.0211    7.7243  -15.6535 C   0  0  0  0  0  0  0  0  0  0  0  0
   32.6610    6.6150  -15.0725 C   0  0  0  0  0  0  0  0  0  0  0  0
   28.0081   12.1151  -18.0503 F   0  0  0  0  0  0  0  0  0  0  0  0
   29.6107    9.9832  -15.5362 C   0  0  0  0  0  0  0  0  0  0  0  0
   29.9834    8.8924  -16.2843 C   0  0  0  0  0  0  0  0  0  0  0  0
   30.6477    7.7509  -15.7064 C   0  0  0  0  0  0  0  0  0  0  0  0
   32.5939    4.4029  -13.9533 C   0  0  0  0  0  0  0  0  0  0  0  0
   33.9647    4.3012  -13.8180 O   0  0  0  0  0  0  0  0  0  0  0  0
   31.8994    3.4493  -13.5313 O   0  0  0  0  0  0  0  0  0  0  0  0
   33.0639    8.9794  -16.2844 S   0  0  2  0  0  6  0  0  0  0  0  0
   34.5262    8.6226  -16.1467 O   0  0  0  0  0  0  0  0  0  0  0  0
   32.7338   10.3385  -15.7972 O   0  0  0  0  0  0  0  0  0  0  0  0
  2  1  2  0
  9  1  1  0
  1 14  1  0
  3  2  1  0
 13  3  2  0
  4  5  2  0
 11  4  1  0
  6  5  1  0
  5 10  1  0
  7  6  2  0
 12  7  1  0
  8  9  2  0
 13  8  1  0
 17  8  1  1
 12 11  2  0
 12 13  1  0
 14 15  1  0
 14 16  2  0
 17 18  2  0
 17 19  2  0
M  END
$$$$
