
     RDKit          3D

 19 20  0  0  0  0  0  0  0  0999 V2000
   34.5520    8.5614  -11.8934 C   0  0  0  0  0  0  0  0  0  0  0  0
   34.0843    9.5097  -11.0115 C   0  0  0  0  0  0  0  0  0  0  0  0
   32.7574    9.8839  -11.0311 C   0  0  0  0  0  0  0  0  0  0  0  0
   28.6955   11.1169  -12.7196 C   0  0  0  0  0  0  0  0  0  0  0  0
   27.7683   10.4591  -11.9527 C   0  0  0  0  0  0  0  0  0  0  0  0
   28.1831    9.4164  -11.1803 C   0  0  0  0  0  0  0  0  0  0  0  0
   29.5097    9.0611  -11.1962 C   0  0  0  0  0  0  0  0  0  0  0  0
   32.3072    8.3715  -12.8216 C   0  0  0  0  0  0  0  0  0  0  0  0
   33.6631    7.9995  -12.7908 C   0  0  0  0  0  0  0  0  0  0  0  0
   26.4489   10.8317  -11.9530 F   0  0  0  0  0  0  0  0  0  0  0  0
   30.0277   10.7685  -12.7425 C   0  0  0  0  0  0  0  0  0  0  0  0
   30.4703    9.7201  -11.9722 C   0  0  0  0  0  0  0  0  0  0  0  0
   31.8548    9.3201  -11.9355 C   0  0  0  0  0  0  0  0  0  0  0  0
   35.9508    8.1864  -11.8520 C   0  0  0  0  0  0  0  0  0  0  0  0
   36.8381    8.7018  -10.9275 O   0  0  0  0  0  0  0  0  0  0  0  0
   36.3964    7.3600  -12.6818 O   0  0  0  0  0  0  0  0  0  0  0  0
   31.3046    7.5541  -13.9995 S   0  0  2  0  0  6  0  0  0  0  0  0
   31.7928    6.1520  -14.2828 O   0  0  0  0  0  0  0  0  0  0  0  0
   31.0377    8.3500  -15.2196 O   0  0  0  0  0  0  0  0  0  0  0  0
  2  1  2  0
  9  1  1  0
  1 14  1  0
  3  2  1  0
 13  3  2  0
  4  5  2  0
 11  4  1  0
  6  5  1  0
  5 10  1  0
  7  6  2  0
 12  7  1  0
  8  9  2  0
 13  8  1  0
 17  8  1  1
 12 11  2  0
 12 13  1  0
 14 15  1  0
 14 16  2  0
 17 18  2  0
 17 19  2  0
M  END
$$$$
