
     RDKit          3D

 19 20  0  0  0  0  0  0  0  0999 V2000
   34.4731    8.7843  -11.1209 C   0  0  0  0  0  0  0  0  0  0  0  0
   34.2412    9.6062  -10.0408 C   0  0  0  0  0  0  0  0  0  0  0  0
   33.0040    9.6234   -9.4324 C   0  0  0  0  0  0  0  0  0  0  0  0
   29.0929    8.1533   -7.6112 C   0  0  0  0  0  0  0  0  0  0  0  0
   28.0903    8.9209   -8.1459 C   0  0  0  0  0  0  0  0  0  0  0  0
   28.3600    9.6648   -9.2548 C   0  0  0  0  0  0  0  0  0  0  0  0
   29.6213    9.6209   -9.7968 C   0  0  0  0  0  0  0  0  0  0  0  0
   32.1748    7.9910  -10.9634 C   0  0  0  0  0  0  0  0  0  0  0  0
   33.4413    7.9838  -11.5745 C   0  0  0  0  0  0  0  0  0  0  0  0
   26.8386    8.9490   -7.5874 F   0  0  0  0  0  0  0  0  0  0  0  0
   30.3606    8.1022   -8.1470 C   0  0  0  0  0  0  0  0  0  0  0  0
   30.6571    8.8439   -9.2652 C   0  0  0  0  0  0  0  0  0  0  0  0
   31.9577    8.8172   -9.8863 C   0  0  0  0  0  0  0  0  0  0  0  0
   35.7821    8.7856  -11.7420 C   0  0  0  0  0  0  0  0  0  0  0  0
   36.1763    7.8338  -12.6619 O   0  0  0  0  0  0  0  0  0  0  0  0
   36.6081    9.6801  -11.4462 O   0  0  0  0  0  0  0  0  0  0  0  0
   30.9806    6.9057  -11.6393 S   0  0  2  0  0  6  0  0  0  0  0  0
   30.4751    5.9132  -10.6175 O   0  0  0  0  0  0  0  0  0  0  0  0
   31.3869    6.2860  -12.9216 O   0  0  0  0  0  0  0  0  0  0  0  0
  2  1  2  0
  9  1  1  0
  1 14  1  0
  3  2  1  0
 13  3  2  0
  4  5  2  0
 11  4  1  0
  6  5  1  0
  5 10  1  0
  7  6  2  0
 12  7  1  0
  8  9  2  0
 13  8  1  0
 17  8  1  1
 12 11  2  0
 12 13  1  0
 14 15  1  0
 14 16  2  0
 17 18  2  0
 17 19  2  0
M  END
$$$$
