
     RDKit          3D

 19 20  0  0  0  0  0  0  0  0999 V2000
   29.9517    7.2492  -12.3091 C   0  0  0  0  0  0  0  0  0  0  0  0
   29.1328    8.3559  -12.2890 C   0  0  0  0  0  0  0  0  0  0  0  0
   29.2194    9.3039  -13.2864 C   0  0  0  0  0  0  0  0  0  0  0  0
   29.5773   11.1466  -17.4406 C   0  0  0  0  0  0  0  0  0  0  0  0
   30.5407   12.1194  -17.3630 C   0  0  0  0  0  0  0  0  0  0  0  0
   31.3702   12.1304  -16.2826 C   0  0  0  0  0  0  0  0  0  0  0  0
   31.2140   11.1712  -15.3121 C   0  0  0  0  0  0  0  0  0  0  0  0
   30.9535    8.0742  -14.3712 C   0  0  0  0  0  0  0  0  0  0  0  0
   30.8548    7.1153  -13.3472 C   0  0  0  0  0  0  0  0  0  0  0  0
   30.6778   13.0671  -18.3443 F   0  0  0  0  0  0  0  0  0  0  0  0
   29.4126   10.1805  -16.4730 C   0  0  0  0  0  0  0  0  0  0  0  0
   30.2369   10.1708  -15.3736 C   0  0  0  0  0  0  0  0  0  0  0  0
   30.1299    9.1742  -14.3375 C   0  0  0  0  0  0  0  0  0  0  0  0
   29.8406    6.2682  -11.2486 C   0  0  0  0  0  0  0  0  0  0  0  0
   30.6226    5.1310  -11.1945 O   0  0  0  0  0  0  0  0  0  0  0  0
   29.0053    6.4391  -10.3305 O   0  0  0  0  0  0  0  0  0  0  0  0
   32.1289    7.7514  -15.6262 S   0  0  2  0  0  6  0  0  0  0  0  0
   32.5173    6.2915  -15.6760 O   0  0  0  0  0  0  0  0  0  0  0  0
   33.2859    8.6758  -15.6203 O   0  0  0  0  0  0  0  0  0  0  0  0
  2  1  2  0
  9  1  1  0
  1 14  1  0
  3  2  1  0
 13  3  2  0
  4  5  2  0
 11  4  1  0
  6  5  1  0
  5 10  1  0
  7  6  2  0
 12  7  1  0
  8  9  2  0
 13  8  1  0
 17  8  1  1
 12 11  2  0
 12 13  1  0
 14 15  1  0
 14 16  2  0
 17 18  2  0
 17 19  2  0
M  END
$$$$
