
     RDKit          3D

 19 20  0  0  0  0  0  0  0  0999 V2000
   34.6919    9.6915  -14.3482 C   0  0  0  0  0  0  0  0  0  0  0  0
   34.4959   10.9830  -14.7835 C   0  0  0  0  0  0  0  0  0  0  0  0
   33.3686   11.3100  -15.5069 C   0  0  0  0  0  0  0  0  0  0  0  0
   30.0789   11.0222  -18.6449 C   0  0  0  0  0  0  0  0  0  0  0  0
   28.9186   11.3863  -18.0114 C   0  0  0  0  0  0  0  0  0  0  0  0
   28.8980   11.4048  -16.6494 C   0  0  0  0  0  0  0  0  0  0  0  0
   30.0349   11.0597  -15.9605 C   0  0  0  0  0  0  0  0  0  0  0  0
   32.5819    9.0598  -15.3899 C   0  0  0  0  0  0  0  0  0  0  0  0
   33.7364    8.7402  -14.6532 C   0  0  0  0  0  0  0  0  0  0  0  0
   27.7956   11.7267  -18.7203 F   0  0  0  0  0  0  0  0  0  0  0  0
   31.2241   10.6746  -17.9634 C   0  0  0  0  0  0  0  0  0  0  0  0
   31.2281   10.6855  -16.5893 C   0  0  0  0  0  0  0  0  0  0  0  0
   32.4000   10.3532  -15.8183 C   0  0  0  0  0  0  0  0  0  0  0  0
   35.8852    9.3745  -13.5900 C   0  0  0  0  0  0  0  0  0  0  0  0
   36.1891    8.0940  -13.1712 O   0  0  0  0  0  0  0  0  0  0  0  0
   36.6903   10.2867  -13.2904 O   0  0  0  0  0  0  0  0  0  0  0  0
   31.4563    7.7512  -15.6754 S   0  0  2  0  0  6  0  0  0  0  0  0
   31.8849    6.4757  -14.9871 O   0  0  0  0  0  0  0  0  0  0  0  0
   31.0950    7.5672  -17.0998 O   0  0  0  0  0  0  0  0  0  0  0  0
  2  1  2  0
  9  1  1  0
  1 14  1  0
  3  2  1  0
 13  3  2  0
  4  5  2  0
 11  4  1  0
  6  5  1  0
  5 10  1  0
  7  6  2  0
 12  7  1  0
  8  9  2  0
 13  8  1  0
 17  8  1  6
 12 11  2  0
 12 13  1  0
 14 15  1  0
 14 16  2  0
 17 18  2  0
 17 19  2  0
M  END
$$$$
