
     RDKit          3D

 19 20  0  0  0  0  0  0  0  0999 V2000
   29.2485    5.0752  -10.4911 C   0  0  0  0  0  0  0  0  0  0  0  0
   28.0136    5.6779  -10.5800 C   0  0  0  0  0  0  0  0  0  0  0  0
   27.8987    6.9589  -11.0767 C   0  0  0  0  0  0  0  0  0  0  0  0
   28.3432   11.3250  -11.7752 C   0  0  0  0  0  0  0  0  0  0  0  0
   28.6779   11.6034  -13.0756 C   0  0  0  0  0  0  0  0  0  0  0  0
   29.1337   10.5892  -13.8626 C   0  0  0  0  0  0  0  0  0  0  0  0
   29.2420    9.3282  -13.3292 C   0  0  0  0  0  0  0  0  0  0  0  0
   30.2570    7.0899  -11.4187 C   0  0  0  0  0  0  0  0  0  0  0  0
   30.3598    5.7829  -10.9098 C   0  0  0  0  0  0  0  0  0  0  0  0
   28.5616   12.8704  -13.5863 F   0  0  0  0  0  0  0  0  0  0  0  0
   28.4481   10.0643  -11.2310 C   0  0  0  0  0  0  0  0  0  0  0  0
   28.9055    9.0249  -12.0048 C   0  0  0  0  0  0  0  0  0  0  0  0
   29.0177    7.6789  -11.5010 C   0  0  0  0  0  0  0  0  0  0  0  0
   29.3416    3.7284   -9.9651 C   0  0  0  0  0  0  0  0  0  0  0  0
   30.5349    3.0386   -9.8779 O   0  0  0  0  0  0  0  0  0  0  0  0
   28.3067    3.1453   -9.5665 O   0  0  0  0  0  0  0  0  0  0  0  0
   31.7512    7.8444  -11.9277 S   0  0  2  0  0  6  0  0  0  0  0  0
   31.7839    8.0858  -13.4193 O   0  0  0  0  0  0  0  0  0  0  0  0
   32.9687    7.1834  -11.4042 O   0  0  0  0  0  0  0  0  0  0  0  0
  2  1  2  0
  9  1  1  0
  1 14  1  0
  3  2  1  0
 13  3  2  0
  4  5  2  0
 11  4  1  0
  6  5  1  0
  5 10  1  0
  7  6  2  0
 12  7  1  0
  8  9  2  0
 13  8  1  0
 17  8  1  6
 12 11  2  0
 12 13  1  0
 14 15  1  0
 14 16  2  0
 17 18  2  0
 17 19  2  0
M  END
$$$$
