
     RDKit          3D

 19 20  0  0  0  0  0  0  0  0999 V2000
   32.6824    5.7133  -12.7299 C   0  0  0  0  0  0  0  0  0  0  0  0
   31.6216    5.0669  -12.1360 C   0  0  0  0  0  0  0  0  0  0  0  0
   30.7562    5.7587  -11.3153 C   0  0  0  0  0  0  0  0  0  0  0  0
   28.0541    9.0935   -9.7606 C   0  0  0  0  0  0  0  0  0  0  0  0
   28.3791    9.2766   -8.4411 C   0  0  0  0  0  0  0  0  0  0  0  0
   29.5435    8.7435   -7.9766 C   0  0  0  0  0  0  0  0  0  0  0  0
   30.3485    8.0438   -8.8420 C   0  0  0  0  0  0  0  0  0  0  0  0
   31.9794    7.7807  -11.6490 C   0  0  0  0  0  0  0  0  0  0  0  0
   32.8545    7.0627  -12.4835 C   0  0  0  0  0  0  0  0  0  0  0  0
   27.5596    9.9789   -7.5956 F   0  0  0  0  0  0  0  0  0  0  0  0
   28.8543    8.3937  -10.6363 C   0  0  0  0  0  0  0  0  0  0  0  0
   30.0337    7.8464  -10.1914 C   0  0  0  0  0  0  0  0  0  0  0  0
   30.9251    7.1218  -11.0624 C   0  0  0  0  0  0  0  0  0  0  0  0
   33.5771    4.9630  -13.5876 C   0  0  0  0  0  0  0  0  0  0  0  0
   33.5769    3.5831  -13.6467 O   0  0  0  0  0  0  0  0  0  0  0  0
   34.3946    5.5723  -14.3157 O   0  0  0  0  0  0  0  0  0  0  0  0
   32.3173    9.4861  -11.4538 S   0  0  2  0  0  6  0  0  0  0  0  0
   31.3440   10.3478  -12.2249 O   0  0  0  0  0  0  0  0  0  0  0  0
   33.7366    9.8481  -11.6729 O   0  0  0  0  0  0  0  0  0  0  0  0
  2  1  2  0
  9  1  1  0
  1 14  1  0
  3  2  1  0
 13  3  2  0
  4  5  2  0
 11  4  1  0
  6  5  1  0
  5 10  1  0
  7  6  2  0
 12  7  1  0
  8  9  2  0
 13  8  1  0
 17  8  1  6
 12 11  2  0
 12 13  1  0
 14 15  1  0
 14 16  2  0
 17 18  2  0
 17 19  2  0
M  END
$$$$
