
     RDKit          3D

 19 20  0  0  0  0  0  0  0  0999 V2000
   34.4802    9.3208  -10.4920 C   0  0  0  0  0  0  0  0  0  0  0  0
   34.0981    9.9511   -9.3290 C   0  0  0  0  0  0  0  0  0  0  0  0
   32.8095    9.8186   -8.8567 C   0  0  0  0  0  0  0  0  0  0  0  0
   28.2289    9.5990   -8.9579 C   0  0  0  0  0  0  0  0  0  0  0  0
   27.9127    8.6309   -8.0396 C   0  0  0  0  0  0  0  0  0  0  0  0
   28.8965    7.7902   -7.6141 C   0  0  0  0  0  0  0  0  0  0  0  0
   30.1657    7.9401   -8.1172 C   0  0  0  0  0  0  0  0  0  0  0  0
   32.2281    8.4140  -10.6965 C   0  0  0  0  0  0  0  0  0  0  0  0
   33.5455    8.5580  -11.1670 C   0  0  0  0  0  0  0  0  0  0  0  0
   26.6383    8.5001   -7.5515 F   0  0  0  0  0  0  0  0  0  0  0  0
   29.4982    9.7577   -9.4682 C   0  0  0  0  0  0  0  0  0  0  0  0
   30.5074    8.9218   -9.0546 C   0  0  0  0  0  0  0  0  0  0  0  0
   31.8607    9.0497   -9.5344 C   0  0  0  0  0  0  0  0  0  0  0  0
   35.8403    9.4767  -10.9666 C   0  0  0  0  0  0  0  0  0  0  0  0
   36.6278   10.5637  -10.6411 O   0  0  0  0  0  0  0  0  0  0  0  0
   36.3438    8.5991  -11.7056 O   0  0  0  0  0  0  0  0  0  0  0  0
   31.1700    7.3983  -11.6503 S   0  0  2  0  0  6  0  0  0  0  0  0
   30.7351    6.1649  -10.8926 O   0  0  0  0  0  0  0  0  0  0  0  0
   31.6756    7.1131  -13.0128 O   0  0  0  0  0  0  0  0  0  0  0  0
  2  1  2  0
  9  1  1  0
  1 14  1  0
  3  2  1  0
 13  3  2  0
  4  5  2  0
 11  4  1  0
  6  5  1  0
  5 10  1  0
  7  6  2  0
 12  7  1  0
  8  9  2  0
 13  8  1  0
 17  8  1  1
 12 11  2  0
 12 13  1  0
 14 15  1  0
 14 16  2  0
 17 18  2  0
 17 19  2  0
M  END
$$$$
