
     RDKit          3D

 19 20  0  0  0  0  0  0  0  0999 V2000
   34.4331    8.1528  -15.0168 C   0  0  0  0  0  0  0  0  0  0  0  0
   34.5109    9.0260  -16.0786 C   0  0  0  0  0  0  0  0  0  0  0  0
   33.3687    9.6084  -16.5858 C   0  0  0  0  0  0  0  0  0  0  0  0
   29.1162   10.0174  -18.1421 C   0  0  0  0  0  0  0  0  0  0  0  0
   28.6098   11.1666  -17.5915 C   0  0  0  0  0  0  0  0  0  0  0  0
   29.2518   11.7148  -16.5223 C   0  0  0  0  0  0  0  0  0  0  0  0
   30.3792   11.1004  -16.0346 C   0  0  0  0  0  0  0  0  0  0  0  0
   32.0170    8.4657  -14.9849 C   0  0  0  0  0  0  0  0  0  0  0  0
   33.1899    7.8786  -14.4778 C   0  0  0  0  0  0  0  0  0  0  0  0
   27.4824   11.7622  -18.0954 F   0  0  0  0  0  0  0  0  0  0  0  0
   30.2458    9.3938  -17.6607 C   0  0  0  0  0  0  0  0  0  0  0  0
   30.9108    9.9275  -16.5830 C   0  0  0  0  0  0  0  0  0  0  0  0
   32.1102    9.3351  -16.0457 C   0  0  0  0  0  0  0  0  0  0  0  0
   35.6485    7.5543  -14.5032 C   0  0  0  0  0  0  0  0  0  0  0  0
   36.9035    7.8794  -14.9795 O   0  0  0  0  0  0  0  0  0  0  0  0
   35.5812    6.7024  -13.5868 O   0  0  0  0  0  0  0  0  0  0  0  0
   30.5237    8.0358  -14.1812 S   0  0  2  0  0  6  0  0  0  0  0  0
   30.7384    6.9937  -13.1077 O   0  0  0  0  0  0  0  0  0  0  0  0
   29.4114    7.7181  -15.1060 O   0  0  0  0  0  0  0  0  0  0  0  0
  2  1  2  0
  9  1  1  0
  1 14  1  0
  3  2  1  0
 13  3  2  0
  4  5  2  0
 11  4  1  0
  6  5  1  0
  5 10  1  0
  7  6  2  0
 12  7  1  0
  8  9  2  0
 13  8  1  0
 17  8  1  6
 12 11  2  0
 12 13  1  0
 14 15  1  0
 14 16  2  0
 17 18  2  0
 17 19  2  0
M  END
$$$$
