
     RDKit          3D

 19 20  0  0  0  0  0  0  0  0999 V2000
   34.5305    8.6443  -10.7469 C   0  0  0  0  0  0  0  0  0  0  0  0
   34.3704    8.7056   -9.3807 C   0  0  0  0  0  0  0  0  0  0  0  0
   33.1086    8.6743   -8.8258 C   0  0  0  0  0  0  0  0  0  0  0  0
   28.7286    7.4461   -8.1852 C   0  0  0  0  0  0  0  0  0  0  0  0
   28.0545    8.6220   -7.9774 C   0  0  0  0  0  0  0  0  0  0  0  0
   28.6699    9.7924   -8.3047 C   0  0  0  0  0  0  0  0  0  0  0  0
   29.9387    9.7549   -8.8291 C   0  0  0  0  0  0  0  0  0  0  0  0
   32.1092    8.5179  -10.9875 C   0  0  0  0  0  0  0  0  0  0  0  0
   33.4020    8.5511  -11.5400 C   0  0  0  0  0  0  0  0  0  0  0  0
   26.7881    8.6349   -7.4524 F   0  0  0  0  0  0  0  0  0  0  0  0
   30.0008    7.3977   -8.7105 C   0  0  0  0  0  0  0  0  0  0  0  0
   30.6424    8.5649   -9.0482 C   0  0  0  0  0  0  0  0  0  0  0  0
   31.9649    8.5805   -9.6218 C   0  0  0  0  0  0  0  0  0  0  0  0
   35.8674    8.6794  -11.3043 C   0  0  0  0  0  0  0  0  0  0  0  0
   36.9961    8.8763  -10.5331 O   0  0  0  0  0  0  0  0  0  0  0  0
   36.0296    8.5266  -12.5373 O   0  0  0  0  0  0  0  0  0  0  0  0
   30.7841    8.3755  -12.1209 S   0  0  2  0  0  6  0  0  0  0  0  0
   30.2705    6.9572  -12.2160 O   0  0  0  0  0  0  0  0  0  0  0  0
   31.0461    9.0038  -13.4362 O   0  0  0  0  0  0  0  0  0  0  0  0
  2  1  2  0
  9  1  1  0
  1 14  1  0
  3  2  1  0
 13  3  2  0
  4  5  2  0
 11  4  1  0
  6  5  1  0
  5 10  1  0
  7  6  2  0
 12  7  1  0
  8  9  2  0
 13  8  1  0
 17  8  1  1
 12 11  2  0
 12 13  1  0
 14 15  1  0
 14 16  2  0
 17 18  2  0
 17 19  2  0
M  END
$$$$
