
     RDKit          3D

 19 20  0  0  0  0  0  0  0  0999 V2000
   32.5884    5.5395  -14.1729 C   0  0  0  0  0  0  0  0  0  0  0  0
   31.2423    5.2576  -14.2396 C   0  0  0  0  0  0  0  0  0  0  0  0
   30.3118    6.2380  -13.9676 C   0  0  0  0  0  0  0  0  0  0  0  0
   28.5067   10.5280  -13.8460 C   0  0  0  0  0  0  0  0  0  0  0  0
   27.8678   10.5346  -12.6327 C   0  0  0  0  0  0  0  0  0  0  0  0
   28.1544    9.5464  -11.7399 C   0  0  0  0  0  0  0  0  0  0  0  0
   29.0693    8.5815  -12.0840 C   0  0  0  0  0  0  0  0  0  0  0  0
   32.0399    7.8301  -13.5496 C   0  0  0  0  0  0  0  0  0  0  0  0
   32.9781    6.8206  -13.8292 C   0  0  0  0  0  0  0  0  0  0  0  0
   26.9578   11.5083  -12.3111 F   0  0  0  0  0  0  0  0  0  0  0  0
   29.4255    9.5654  -14.2006 C   0  0  0  0  0  0  0  0  0  0  0  0
   29.7312    8.5582  -13.3171 C   0  0  0  0  0  0  0  0  0  0  0  0
   30.6994    7.5339  -13.6196 C   0  0  0  0  0  0  0  0  0  0  0  0
   33.5454    4.4911  -14.4632 C   0  0  0  0  0  0  0  0  0  0  0  0
   34.9114    4.6923  -14.4281 O   0  0  0  0  0  0  0  0  0  0  0  0
   33.1379    3.3444  -14.7614 O   0  0  0  0  0  0  0  0  0  0  0  0
   32.6897    9.4050  -13.1517 S   0  0  2  0  0  6  0  0  0  0  0  0
   32.4799   10.4023  -14.2678 O   0  0  0  0  0  0  0  0  0  0  0  0
   34.0775    9.3714  -12.6358 O   0  0  0  0  0  0  0  0  0  0  0  0
  2  1  2  0
  9  1  1  0
  1 14  1  0
  3  2  1  0
 13  3  2  0
  4  5  2  0
 11  4  1  0
  6  5  1  0
  5 10  1  0
  7  6  2  0
 12  7  1  0
  8  9  2  0
 13  8  1  0
 17  8  1  6
 12 11  2  0
 12 13  1  0
 14 15  1  0
 14 16  2  0
 17 18  2  0
 17 19  2  0
M  END
$$$$
