
     RDKit          3D

 19 20  0  0  0  0  0  0  0  0999 V2000
   33.0738    5.5387  -11.1438 C   0  0  0  0  0  0  0  0  0  0  0  0
   31.8697    4.9473  -10.8337 C   0  0  0  0  0  0  0  0  0  0  0  0
   30.8559    5.6892  -10.2655 C   0  0  0  0  0  0  0  0  0  0  0  0
   28.0626    9.2505   -9.4791 C   0  0  0  0  0  0  0  0  0  0  0  0
   27.9818    9.3464   -8.1136 C   0  0  0  0  0  0  0  0  0  0  0  0
   28.8978    8.6786   -7.3581 C   0  0  0  0  0  0  0  0  0  0  0  0
   29.8665    7.9353   -7.9871 C   0  0  0  0  0  0  0  0  0  0  0  0
   32.2117    7.6531  -10.2938 C   0  0  0  0  0  0  0  0  0  0  0  0
   33.2372    6.8845  -10.8727 C   0  0  0  0  0  0  0  0  0  0  0  0
   27.0057   10.0945   -7.5077 F   0  0  0  0  0  0  0  0  0  0  0  0
   29.0299    8.5081  -10.1193 C   0  0  0  0  0  0  0  0  0  0  0  0
   29.9649    7.8254   -9.3790 C   0  0  0  0  0  0  0  0  0  0  0  0
   31.0151    7.0488   -9.9890 C   0  0  0  0  0  0  0  0  0  0  0  0
   34.1227    4.7365  -11.7400 C   0  0  0  0  0  0  0  0  0  0  0  0
   35.3262    5.2683  -12.1600 O   0  0  0  0  0  0  0  0  0  0  0  0
   33.9516    3.5044  -11.8905 O   0  0  0  0  0  0  0  0  0  0  0  0
   32.5639    9.3468  -10.0330 S   0  0  2  0  0  6  0  0  0  0  0  0
   31.7148   10.2424  -10.9055 O   0  0  0  0  0  0  0  0  0  0  0  0
   34.0077    9.6746  -10.0696 O   0  0  0  0  0  0  0  0  0  0  0  0
  2  1  2  0
  9  1  1  0
  1 14  1  0
  3  2  1  0
 13  3  2  0
  4  5  2  0
 11  4  1  0
  6  5  1  0
  5 10  1  0
  7  6  2  0
 12  7  1  0
  8  9  2  0
 13  8  1  0
 17  8  1  6
 12 11  2  0
 12 13  1  0
 14 15  1  0
 14 16  2  0
 17 18  2  0
 17 19  2  0
M  END
$$$$
