
     RDKit          3D

 19 20  0  0  0  0  0  0  0  0999 V2000
   34.3429    8.9879  -11.1057 C   0  0  0  0  0  0  0  0  0  0  0  0
   34.1199    9.5684   -9.8772 C   0  0  0  0  0  0  0  0  0  0  0  0
   32.8664    9.5254   -9.3045 C   0  0  0  0  0  0  0  0  0  0  0  0
   28.2777    9.7211   -9.0598 C   0  0  0  0  0  0  0  0  0  0  0  0
   27.9573    8.7553   -8.1406 C   0  0  0  0  0  0  0  0  0  0  0  0
   28.8993    7.8265   -7.8159 C   0  0  0  0  0  0  0  0  0  0  0  0
   30.1323    7.8886   -8.4178 C   0  0  0  0  0  0  0  0  0  0  0  0
   32.0022    8.3146  -11.1707 C   0  0  0  0  0  0  0  0  0  0  0  0
   33.2856    8.3661  -11.7434 C   0  0  0  0  0  0  0  0  0  0  0  0
   26.7194    8.7131   -7.5527 F   0  0  0  0  0  0  0  0  0  0  0  0
   29.5110    9.7921   -9.6688 C   0  0  0  0  0  0  0  0  0  0  0  0
   30.4777    8.8663   -9.3580 C   0  0  0  0  0  0  0  0  0  0  0  0
   31.7944    8.8991   -9.9440 C   0  0  0  0  0  0  0  0  0  0  0  0
   35.6694    9.0475  -11.6854 C   0  0  0  0  0  0  0  0  0  0  0  0
   36.0128    8.3755  -12.8422 O   0  0  0  0  0  0  0  0  0  0  0  0
   36.5591    9.7326  -11.1295 O   0  0  0  0  0  0  0  0  0  0  0  0
   30.7750    7.4729  -12.0906 S   0  0  2  0  0  6  0  0  0  0  0  0
   30.1545    6.3413  -11.3039 O   0  0  0  0  0  0  0  0  0  0  0  0
   31.2038    7.0856  -13.4542 O   0  0  0  0  0  0  0  0  0  0  0  0
  2  1  2  0
  9  1  1  0
  1 14  1  0
  3  2  1  0
 13  3  2  0
  4  5  2  0
 11  4  1  0
  6  5  1  0
  5 10  1  0
  7  6  2  0
 12  7  1  0
  8  9  2  0
 13  8  1  0
 17  8  1  1
 12 11  2  0
 12 13  1  0
 14 15  1  0
 14 16  2  0
 17 18  2  0
 17 19  2  0
M  END
$$$$
