
     RDKit          3D

 19 20  0  0  0  0  0  0  0  0999 V2000
   33.8438    8.1930  -14.0960 C   0  0  0  0  0  0  0  0  0  0  0  0
   33.7538    9.5609  -13.9666 C   0  0  0  0  0  0  0  0  0  0  0  0
   32.8462   10.2732  -14.7215 C   0  0  0  0  0  0  0  0  0  0  0  0
   30.4891   11.7251  -18.3133 C   0  0  0  0  0  0  0  0  0  0  0  0
   29.1806   11.8356  -17.9182 C   0  0  0  0  0  0  0  0  0  0  0  0
   28.7922   11.2154  -16.7692 C   0  0  0  0  0  0  0  0  0  0  0  0
   29.7202   10.5037  -16.0490 C   0  0  0  0  0  0  0  0  0  0  0  0
   32.0763    8.2728  -15.7711 C   0  0  0  0  0  0  0  0  0  0  0  0
   33.0068    7.5589  -14.9951 C   0  0  0  0  0  0  0  0  0  0  0  0
   28.2717   12.5515  -18.6537 F   0  0  0  0  0  0  0  0  0  0  0  0
   31.4272   11.0141  -17.5983 C   0  0  0  0  0  0  0  0  0  0  0  0
   31.0596   10.3796  -16.4362 C   0  0  0  0  0  0  0  0  0  0  0  0
   31.9983    9.6381  -15.6316 C   0  0  0  0  0  0  0  0  0  0  0  0
   34.8063    7.4686  -13.2910 C   0  0  0  0  0  0  0  0  0  0  0  0
   34.9562    6.0971  -13.3554 O   0  0  0  0  0  0  0  0  0  0  0  0
   35.5450    8.0937  -12.4951 O   0  0  0  0  0  0  0  0  0  0  0  0
   31.0732    7.3252  -16.8466 S   0  0  2  0  0  6  0  0  0  0  0  0
   29.6078    7.4278  -16.4910 O   0  0  0  0  0  0  0  0  0  0  0  0
   31.5434    5.9343  -17.0399 O   0  0  0  0  0  0  0  0  0  0  0  0
  2  1  2  0
  9  1  1  0
  1 14  1  0
  3  2  1  0
 13  3  2  0
  4  5  2  0
 11  4  1  0
  6  5  1  0
  5 10  1  0
  7  6  2  0
 12  7  1  0
  8  9  2  0
 13  8  1  0
 17  8  1  1
 12 11  2  0
 12 13  1  0
 14 15  1  0
 14 16  2  0
 17 18  2  0
 17 19  2  0
M  END
$$$$
