
     RDKit          3D

 65 66  0  0  0  0  0  0  0  0999 V2000
   69.1754    9.5124   36.8299 N   0  0  0  0  0  4  0  0  0  0  0  0
   70.2303    9.6126   35.8709 C   0  0  2  0  0  0  0  0  0  0  0  0
   69.9569    8.7868   34.6931 C   0  0  0  0  0  0  0  0  0  0  0  0
   69.6849    7.5438   34.8047 O   0  0  0  0  0  0  0  0  0  0  0  0
   71.5398    9.2383   36.5448 C   0  0  2  0  0  0  0  0  0  0  0  0
   72.5487    9.3013   35.5998 O   0  0  0  0  0  0  0  0  0  0  0  0
   71.4876    7.8205   37.0803 C   0  0  0  0  0  0  0  0  0  0  0  0
   69.9783    9.3086   33.3897 N   0  0  0  0  0  0  0  0  0  0  0  0
   69.9479    8.4785   32.1976 C   0  0  2  0  0  0  0  0  0  0  0  0
   70.0612    7.0511   32.4885 C   0  0  0  0  0  0  0  0  0  0  0  0
   70.9435    6.6469   33.2847 O   0  0  0  0  0  0  0  0  0  0  0  0
   70.9604    8.9133   31.1914 C   0  0  2  0  0  0  0  0  0  0  0  0
   72.1882    8.3618   31.5195 O   0  0  0  0  0  0  0  0  0  0  0  0
   71.0514   10.4350   31.1062 C   0  0  0  0  0  0  0  0  0  0  0  0
   69.2176    6.0407   31.9304 N   0  0  0  0  0  0  0  0  0  0  0  0
   69.0995    5.7308   30.5518 C   0  0  2  0  0  0  0  0  0  0  0  0
   69.3053    4.3217   30.2265 C   0  0  0  0  0  0  0  0  0  0  0  0
   69.1079    3.9620   28.9879 O   0  0  0  0  0  0  0  0  0  0  0  0
   70.1229    6.5461   29.7371 C   0  0  0  0  0  0  0  0  0  0  0  0
   69.6956    3.2693   31.0655 N   0  0  0  0  0  0  0  0  0  0  0  0
   70.8606    2.4387   30.9594 C   0  0  2  0  0  0  0  0  0  0  0  0
   71.6234    2.5467   29.7122 C   0  0  0  0  0  0  0  0  0  0  0  0
   72.0596    3.6249   29.2331 O   0  0  0  0  0  0  0  0  0  0  0  0
   70.2982    1.0426   31.2077 C   0  0  0  0  0  0  0  0  0  0  0  0
   69.2428    1.2852   32.2704 C   0  0  0  0  0  0  0  0  0  0  0  0
   68.9427    2.7844   32.2163 C   0  0  0  0  0  0  0  0  0  0  0  0
   71.9062    1.3558   28.9797 N   0  0  0  0  0  0  0  0  0  0  0  0
   72.6724    1.2426   27.7879 C   0  0  2  0  0  0  0  0  0  0  0  0
   72.5276   -0.0109   27.0606 C   0  0  0  0  0  0  0  0  0  0  0  0
   73.5636   -0.6546   26.7565 O   0  0  0  0  0  0  0  0  0  0  0  0
   74.1495    1.3302   28.2275 C   0  0  0  0  0  0  0  0  0  0  0  0
   75.0836    1.1640   27.1078 C   0  0  0  0  0  0  0  0  0  0  0  0
   74.7036    1.5309   25.8161 C   0  0  0  0  0  0  0  0  0  0  0  0
   76.3741    0.6366   27.2354 C   0  0  0  0  0  0  0  0  0  0  0  0
   75.5324    1.3900   24.7265 C   0  0  0  0  0  0  0  0  0  0  0  0
   77.2092    0.4934   26.1487 C   0  0  0  0  0  0  0  0  0  0  0  0
   76.7813    0.8727   24.8975 C   0  0  0  0  0  0  0  0  0  0  0  0
   71.2744   -0.5869   26.6552 N   0  0  0  0  0  0  0  0  0  0  0  0
   70.9360   -1.9358   26.9827 C   0  0  2  0  0  0  0  0  0  0  0  0
   69.7436   -2.4454   26.2234 C   0  0  0  0  0  0  0  0  0  0  0  0
   68.7536   -2.9831   26.7482 O   0  0  0  0  0  0  0  0  0  0  0  0
   70.7473   -2.1465   28.4409 C   0  0  0  0  0  0  0  0  0  0  0  0
   69.6026   -1.4596   29.0937 C   0  0  1  0  0  0  0  0  0  0  0  0
   69.4158   -2.1931   30.4610 C   0  0  0  0  0  0  0  0  0  0  0  0
   69.8410   -0.0239   29.5075 C   0  0  0  0  0  0  0  0  0  0  0  0
   69.7913   -2.2774   24.8053 N   0  0  0  0  0  0  0  0  0  0  0  0
   70.8905   -2.6782   23.9928 C   0  0  2  0  0  0  0  0  0  0  0  0
   70.5715   -3.7104   23.0163 C   0  0  0  0  0  0  0  0  0  0  0  0
   69.8814   -4.7173   23.4027 O   0  0  0  0  0  0  0  0  0  0  0  0
   72.0900   -2.9792   24.8656 C   0  0  0  0  0  0  0  0  0  0  0  0
   72.8588   -4.0322   24.4094 O   0  0  0  0  0  0  0  0  0  0  0  0
   70.9606   -3.7133   21.6422 N   0  0  0  0  0  0  0  0  0  0  0  0
   70.3248   -4.6548   20.7550 C   0  0  0  0  0  0  0  0  0  0  0  0
   69.6135   -4.0143   19.6330 C   0  0  0  0  0  0  0  0  0  0  0  0
   69.9778   -2.8655   19.2381 O   0  0  0  0  0  0  0  0  0  0  0  0
   68.5429   -4.6413   18.9951 N   0  0  0  0  0  0  0  0  0  0  0  0
   68.2973   -4.5048   17.5410 C   0  0  2  0  0  0  0  0  0  0  0  0
   68.9980   -5.6373   16.9084 C   0  0  0  0  0  0  0  0  0  0  0  0
   68.6748   -6.0521   15.6551 O   0  0  0  0  0  0  0  0  0  0  0  0
   68.7827   -3.1506   17.1001 C   0  0  0  0  0  0  0  0  0  0  0  0
   67.9946   -2.0167   17.6560 C   0  0  0  0  0  0  0  0  0  0  0  0
   67.6797   -0.9703   16.6038 C   0  0  0  0  0  0  0  0  0  0  0  0
   68.7205    0.1160   16.5595 C   0  0  0  0  0  0  0  0  0  0  0  0
   68.9890    0.5981   15.2359 N   0  0  0  0  0  4  0  0  0  0  0  0
   69.9047   -6.2345   17.5245 O   0  0  0  0  0  0  0  0  0  0  0  0
  2  1  1  1
  2  3  1  0
  2  5  1  0
  3  4  2  0
  3  8  1  0
  5  6  1  0
  5  7  1  6
  9  8  1  1
  9 10  1  0
  9 12  1  0
 10 11  2  0
 10 15  1  0
 12 13  1  0
 12 14  1  1
 15 16  1  0
 16 17  1  0
 16 19  1  6
 17 18  2  0
 17 20  1  0
 20 21  1  0
 20 26  1  0
 21 22  1  6
 21 24  1  0
 22 23  2  0
 22 27  1  0
 24 25  1  0
 25 26  1  0
 27 28  1  0
 28 29  1  0
 28 31  1  1
 29 30  2  0
 29 38  1  0
 31 32  1  0
 32 33  2  0
 32 34  1  0
 33 35  1  0
 34 36  2  0
 35 37  2  0
 36 37  1  0
 38 39  1  0
 39 40  1  0
 39 42  1  1
 40 41  2  0
 40 46  1  0
 42 43  1  0
 43 44  1  1
 43 45  1  0
 46 47  1  0
 47 48  1  0
 47 50  1  1
 48 49  2  0
 48 52  1  0
 50 51  1  0
 52 53  1  0
 53 54  1  0
 54 55  2  0
 54 56  1  0
 56 57  1  0
 57 58  1  0
 57 60  1  6
 58 59  1  0
 58 65  2  0
 60 61  1  0
 61 62  1  0
 62 63  1  0
 63 64  1  0
M  CHG  2   1   1  64   1
M  END
$$$$
