
     RDKit          3D

 65 66  0  0  0  0  0  0  0  0999 V2000
   69.6993   11.3162   35.8241 N   0  0  0  0  0  4  0  0  0  0  0  0
   68.7257   10.3452   35.4344 C   0  0  2  0  0  0  0  0  0  0  0  0
   69.3166    9.0086   35.3425 C   0  0  0  0  0  0  0  0  0  0  0  0
   70.5114    8.7846   35.7346 O   0  0  0  0  0  0  0  0  0  0  0  0
   68.0932   10.7862   34.1250 C   0  0  2  0  0  0  0  0  0  0  0  0
   69.0931   10.8970   33.1748 O   0  0  0  0  0  0  0  0  0  0  0  0
   67.4343   12.1441   34.2720 C   0  0  0  0  0  0  0  0  0  0  0  0
   68.6115    7.9107   34.8239 N   0  0  0  0  0  0  0  0  0  0  0  0
   69.1799    6.5782   34.7123 C   0  0  2  0  0  0  0  0  0  0  0  0
   69.6123    6.2499   33.3557 C   0  0  0  0  0  0  0  0  0  0  0  0
   69.1029    6.8507   32.3782 O   0  0  0  0  0  0  0  0  0  0  0  0
   68.2647    5.5355   35.2615 C   0  0  2  0  0  0  0  0  0  0  0  0
   69.0130    4.4337   35.6427 O   0  0  0  0  0  0  0  0  0  0  0  0
   67.1899    5.1416   34.2511 C   0  0  0  0  0  0  0  0  0  0  0  0
   70.6073    5.2743   33.0358 N   0  0  0  0  0  0  0  0  0  0  0  0
   71.0395    4.9317   31.7296 C   0  0  2  0  0  0  0  0  0  0  0  0
   70.6755    3.5825   31.3040 C   0  0  0  0  0  0  0  0  0  0  0  0
   70.7957    2.6280   32.1853 O   0  0  0  0  0  0  0  0  0  0  0  0
   72.5734    5.0475   31.6328 C   0  0  0  0  0  0  0  0  0  0  0  0
   70.2015    3.1466   30.0594 N   0  0  0  0  0  0  0  0  0  0  0  0
   70.4441    1.8899   29.4111 C   0  0  2  0  0  0  0  0  0  0  0  0
   71.4827    1.0429   30.0051 C   0  0  0  0  0  0  0  0  0  0  0  0
   72.5781    1.4665   30.4559 O   0  0  0  0  0  0  0  0  0  0  0  0
   70.7499    2.3088   27.9765 C   0  0  0  0  0  0  0  0  0  0  0  0
   69.7997    3.4699   27.7513 C   0  0  0  0  0  0  0  0  0  0  0  0
   69.3792    3.9330   29.1475 C   0  0  0  0  0  0  0  0  0  0  0  0
   71.2506   -0.3618   30.0928 N   0  0  0  0  0  0  0  0  0  0  0  0
   72.2283   -1.3928   30.1293 C   0  0  2  0  0  0  0  0  0  0  0  0
   72.4352   -2.1115   28.8796 C   0  0  0  0  0  0  0  0  0  0  0  0
   73.4371   -1.8233   28.1772 O   0  0  0  0  0  0  0  0  0  0  0  0
   71.7119   -2.4262   31.1531 C   0  0  0  0  0  0  0  0  0  0  0  0
   71.3815   -1.8219   32.4490 C   0  0  0  0  0  0  0  0  0  0  0  0
   71.6166   -0.4643   32.6710 C   0  0  0  0  0  0  0  0  0  0  0  0
   70.8363   -2.5290   33.5273 C   0  0  0  0  0  0  0  0  0  0  0  0
   71.3359    0.1553   33.8674 C   0  0  0  0  0  0  0  0  0  0  0  0
   70.5523   -1.9145   34.7276 C   0  0  0  0  0  0  0  0  0  0  0  0
   70.8046   -0.5719   34.8898 C   0  0  0  0  0  0  0  0  0  0  0  0
   71.5745   -3.1454   28.3726 N   0  0  0  0  0  0  0  0  0  0  0  0
   71.8095   -3.7502   27.0997 C   0  0  2  0  0  0  0  0  0  0  0  0
   72.2588   -2.7685   26.0546 C   0  0  0  0  0  0  0  0  0  0  0  0
   72.1247   -1.5361   26.1440 O   0  0  0  0  0  0  0  0  0  0  0  0
   70.6460   -4.5312   26.6073 C   0  0  0  0  0  0  0  0  0  0  0  0
   69.8766   -5.3226   27.6024 C   0  0  1  0  0  0  0  0  0  0  0  0
   70.4200   -6.7817   27.4677 C   0  0  0  0  0  0  0  0  0  0  0  0
   70.1400   -4.9941   29.0557 C   0  0  0  0  0  0  0  0  0  0  0  0
   72.8799   -3.3324   24.8979 N   0  0  0  0  0  0  0  0  0  0  0  0
   73.2915   -2.5727   23.7654 C   0  0  2  0  0  0  0  0  0  0  0  0
   72.3844   -2.6487   22.6286 C   0  0  0  0  0  0  0  0  0  0  0  0
   71.4821   -3.5570   22.6333 O   0  0  0  0  0  0  0  0  0  0  0  0
   74.7391   -2.8760   23.4436 C   0  0  0  0  0  0  0  0  0  0  0  0
   74.9184   -4.0570   22.7499 O   0  0  0  0  0  0  0  0  0  0  0  0
   72.4017   -1.7947   21.4841 N   0  0  0  0  0  0  0  0  0  0  0  0
   71.1560   -1.2183   21.0440 C   0  0  0  0  0  0  0  0  0  0  0  0
   70.4516   -2.0399   20.0421 C   0  0  0  0  0  0  0  0  0  0  0  0
   70.7520   -3.2658   19.9182 O   0  0  0  0  0  0  0  0  0  0  0  0
   69.4619   -1.4993   19.2209 N   0  0  0  0  0  0  0  0  0  0  0  0
   68.7150   -2.3167   18.2374 C   0  0  2  0  0  0  0  0  0  0  0  0
   69.7173   -2.7863   17.2632 C   0  0  0  0  0  0  0  0  0  0  0  0
   70.9169   -2.1612   17.1327 O   0  0  0  0  0  0  0  0  0  0  0  0
   67.6227   -1.4691   17.6439 C   0  0  0  0  0  0  0  0  0  0  0  0
   66.8225   -2.1619   16.5972 C   0  0  0  0  0  0  0  0  0  0  0  0
   65.8586   -1.2211   15.8995 C   0  0  0  0  0  0  0  0  0  0  0  0
   64.8980   -1.9586   15.0058 C   0  0  0  0  0  0  0  0  0  0  0  0
   63.5442   -1.9366   15.4785 N   0  0  0  0  0  4  0  0  0  0  0  0
   69.4713   -3.7732   16.5394 O   0  0  0  0  0  0  0  0  0  0  0  0
  2  1  1  6
  2  3  1  0
  2  5  1  0
  3  4  2  0
  3  8  1  0
  5  6  1  0
  5  7  1  1
  9  8  1  6
  9 10  1  0
  9 12  1  0
 10 11  2  0
 10 15  1  0
 12 13  1  0
 12 14  1  6
 15 16  1  0
 16 17  1  0
 16 19  1  1
 17 18  2  0
 17 20  1  0
 20 21  1  0
 20 26  1  0
 21 22  1  1
 21 24  1  0
 22 23  2  0
 22 27  1  0
 24 25  1  0
 25 26  1  0
 27 28  1  0
 28 29  1  0
 28 31  1  1
 29 30  2  0
 29 38  1  0
 31 32  1  0
 32 33  2  0
 32 34  1  0
 33 35  1  0
 34 36  2  0
 35 37  2  0
 36 37  1  0
 38 39  1  0
 39 40  1  0
 39 42  1  6
 40 41  2  0
 40 46  1  0
 42 43  1  0
 43 44  1  1
 43 45  1  0
 46 47  1  0
 47 48  1  0
 47 50  1  6
 48 49  2  0
 48 52  1  0
 50 51  1  0
 52 53  1  0
 53 54  1  0
 54 55  2  0
 54 56  1  0
 56 57  1  0
 57 58  1  0
 57 60  1  6
 58 59  1  0
 58 65  2  0
 60 61  1  0
 61 62  1  0
 62 63  1  0
 63 64  1  0
M  CHG  2   1   1  64   1
M  END
$$$$
