
     RDKit          3D

 65 66  0  0  0  0  0  0  0  0999 V2000
   70.4009   10.8669   37.1739 N   0  0  0  0  0  4  0  0  0  0  0  0
   70.2591   10.2433   35.8957 C   0  0  2  0  0  0  0  0  0  0  0  0
   69.8500    8.8439   36.0305 C   0  0  0  0  0  0  0  0  0  0  0  0
   69.6776    8.3122   37.1791 O   0  0  0  0  0  0  0  0  0  0  0  0
   71.5654   10.3902   35.1333 C   0  0  2  0  0  0  0  0  0  0  0  0
   72.5918    9.9229   35.9352 O   0  0  0  0  0  0  0  0  0  0  0  0
   71.8458   11.8460   34.8146 C   0  0  0  0  0  0  0  0  0  0  0  0
   69.6270    8.0170   34.9178 N   0  0  0  0  0  0  0  0  0  0  0  0
   69.2845    6.6092   35.0261 C   0  0  2  0  0  0  0  0  0  0  0  0
   70.3752    5.7206   34.6309 C   0  0  0  0  0  0  0  0  0  0  0  0
   71.3748    6.1904   34.0344 O   0  0  0  0  0  0  0  0  0  0  0  0
   68.0242    6.2857   34.2957 C   0  0  2  0  0  0  0  0  0  0  0  0
   68.2715    6.3179   32.9329 O   0  0  0  0  0  0  0  0  0  0  0  0
   66.8962    7.2451   34.6680 C   0  0  0  0  0  0  0  0  0  0  0  0
   70.4058    4.3135   34.8822 N   0  0  0  0  0  0  0  0  0  0  0  0
   71.2502    3.3762   34.2349 C   0  0  2  0  0  0  0  0  0  0  0  0
   71.3990    3.5852   32.7968 C   0  0  0  0  0  0  0  0  0  0  0  0
   70.3068    3.7592   32.1047 O   0  0  0  0  0  0  0  0  0  0  0  0
   70.7091    1.9476   34.4395 C   0  0  0  0  0  0  0  0  0  0  0  0
   72.5694    3.6306   32.0273 N   0  0  0  0  0  0  0  0  0  0  0  0
   72.8609    2.9168   30.8174 C   0  0  2  0  0  0  0  0  0  0  0  0
   71.9256    1.8486   30.4525 C   0  0  0  0  0  0  0  0  0  0  0  0
   71.1708    1.2528   31.2635 O   0  0  0  0  0  0  0  0  0  0  0  0
   74.2837    2.4217   31.0573 C   0  0  0  0  0  0  0  0  0  0  0  0
   74.9234    3.5755   31.8067 C   0  0  0  0  0  0  0  0  0  0  0  0
   73.7601    4.4086   32.3483 C   0  0  0  0  0  0  0  0  0  0  0  0
   71.8471    1.4472   29.0860 N   0  0  0  0  0  0  0  0  0  0  0  0
   70.6946    0.9915   28.3900 C   0  0  2  0  0  0  0  0  0  0  0  0
   70.8189    0.9207   26.9406 C   0  0  0  0  0  0  0  0  0  0  0  0
   71.3030    1.9060   26.3283 O   0  0  0  0  0  0  0  0  0  0  0  0
   69.5871    2.0244   28.6886 C   0  0  0  0  0  0  0  0  0  0  0  0
   68.7164    1.6154   29.7969 C   0  0  0  0  0  0  0  0  0  0  0  0
   68.2769    2.5567   30.7287 C   0  0  0  0  0  0  0  0  0  0  0  0
   68.2815    0.3016   30.0083 C   0  0  0  0  0  0  0  0  0  0  0  0
   67.4674    2.2310   31.7930 C   0  0  0  0  0  0  0  0  0  0  0  0
   67.4705   -0.0312   31.0715 C   0  0  0  0  0  0  0  0  0  0  0  0
   67.0673    0.9392   31.9593 C   0  0  0  0  0  0  0  0  0  0  0  0
   70.4294   -0.2047   26.1353 N   0  0  0  0  0  0  0  0  0  0  0  0
   71.1536   -0.5608   24.9563 C   0  0  2  0  0  0  0  0  0  0  0  0
   70.3610   -1.4245   24.0161 C   0  0  0  0  0  0  0  0  0  0  0  0
   70.7934   -2.4578   23.4775 O   0  0  0  0  0  0  0  0  0  0  0  0
   72.4660   -1.1903   25.2522 C   0  0  0  0  0  0  0  0  0  0  0  0
   73.5404   -1.0543   24.2347 C   0  0  1  0  0  0  0  0  0  0  0  0
   74.7952   -1.7290   24.8771 C   0  0  0  0  0  0  0  0  0  0  0  0
   73.3463   -1.8425   22.9579 C   0  0  0  0  0  0  0  0  0  0  0  0
   69.0241   -0.9940   23.7539 N   0  0  0  0  0  0  0  0  0  0  0  0
   68.4159   -1.0253   22.4661 C   0  0  2  0  0  0  0  0  0  0  0  0
   69.3057   -1.4417   21.3911 C   0  0  0  0  0  0  0  0  0  0  0  0
   70.4663   -1.8838   21.7024 O   0  0  0  0  0  0  0  0  0  0  0  0
   67.6814    0.2741   22.2146 C   0  0  0  0  0  0  0  0  0  0  0  0
   68.4987    1.2991   21.7794 O   0  0  0  0  0  0  0  0  0  0  0  0
   69.0081   -1.4042   19.9948 N   0  0  0  0  0  0  0  0  0  0  0  0
   69.8686   -2.1295   19.0941 C   0  0  0  0  0  0  0  0  0  0  0  0
   69.1354   -2.8556   18.0404 C   0  0  0  0  0  0  0  0  0  0  0  0
   67.8735   -2.7482   17.9716 O   0  0  0  0  0  0  0  0  0  0  0  0
   69.7972   -3.6642   17.1162 N   0  0  0  0  0  0  0  0  0  0  0  0
   69.0963   -4.3059   15.9802 C   0  0  2  0  0  0  0  0  0  0  0  0
   68.2829   -5.3852   16.5695 C   0  0  0  0  0  0  0  0  0  0  0  0
   68.3646   -5.6842   17.8927 O   0  0  0  0  0  0  0  0  0  0  0  0
   70.1257   -4.7758   14.9884 C   0  0  0  0  0  0  0  0  0  0  0  0
   71.5219   -4.7350   15.5029 C   0  0  0  0  0  0  0  0  0  0  0  0
   72.5332   -5.1226   14.4406 C   0  0  0  0  0  0  0  0  0  0  0  0
   73.9416   -5.1101   14.9714 C   0  0  0  0  0  0  0  0  0  0  0  0
   74.4832   -6.4201   15.1884 N   0  0  0  0  0  4  0  0  0  0  0  0
   67.5028   -6.0437   15.8510 O   0  0  0  0  0  0  0  0  0  0  0  0
  2  1  1  1
  2  3  1  0
  2  5  1  0
  3  4  2  0
  3  8  1  0
  5  6  1  0
  5  7  1  1
  9  8  1  6
  9 10  1  0
  9 12  1  0
 10 11  2  0
 10 15  1  0
 12 13  1  0
 12 14  1  6
 15 16  1  0
 16 17  1  0
 16 19  1  6
 17 18  2  0
 17 20  1  0
 20 21  1  0
 20 26  1  0
 21 22  1  1
 21 24  1  0
 22 23  2  0
 22 27  1  0
 24 25  1  0
 25 26  1  0
 27 28  1  0
 28 29  1  0
 28 31  1  6
 29 30  2  0
 29 38  1  0
 31 32  1  0
 32 33  2  0
 32 34  1  0
 33 35  1  0
 34 36  2  0
 35 37  2  0
 36 37  1  0
 38 39  1  0
 39 40  1  0
 39 42  1  1
 40 41  2  0
 40 46  1  0
 42 43  1  0
 43 44  1  1
 43 45  1  0
 46 47  1  0
 47 48  1  0
 47 50  1  6
 48 49  2  0
 48 52  1  0
 50 51  1  0
 52 53  1  0
 53 54  1  0
 54 55  2  0
 54 56  1  0
 56 57  1  0
 57 58  1  0
 57 60  1  6
 58 59  1  0
 58 65  2  0
 60 61  1  0
 61 62  1  0
 62 63  1  0
 63 64  1  0
M  CHG  2   1   1  64   1
M  END
$$$$
