
     RDKit          3D

 65 66  0  0  0  0  0  0  0  0999 V2000
   69.3245   10.5844   36.5168 N   0  0  0  0  0  4  0  0  0  0  0  0
   69.7222    9.2624   36.1471 C   0  0  2  0  0  0  0  0  0  0  0  0
   70.0833    9.1937   34.7298 C   0  0  0  0  0  0  0  0  0  0  0  0
   69.4846    9.9106   33.8586 O   0  0  0  0  0  0  0  0  0  0  0  0
   68.6029    8.2983   36.5033 C   0  0  2  0  0  0  0  0  0  0  0  0
   68.3793    8.3762   37.8666 O   0  0  0  0  0  0  0  0  0  0  0  0
   68.9925    6.8703   36.1734 C   0  0  0  0  0  0  0  0  0  0  0  0
   71.0962    8.3456   34.2540 N   0  0  0  0  0  0  0  0  0  0  0  0
   71.4579    8.2445   32.8504 C   0  0  2  0  0  0  0  0  0  0  0  0
   70.6230    7.3024   32.1084 C   0  0  0  0  0  0  0  0  0  0  0  0
   69.8666    6.5178   32.7314 O   0  0  0  0  0  0  0  0  0  0  0  0
   72.9092    7.9479   32.6702 C   0  0  2  0  0  0  0  0  0  0  0  0
   73.1804    6.6911   33.1861 O   0  0  0  0  0  0  0  0  0  0  0  0
   73.7864    9.0092   33.3301 C   0  0  0  0  0  0  0  0  0  0  0  0
   70.5866    7.2003   30.6828 N   0  0  0  0  0  0  0  0  0  0  0  0
   69.7805    6.3020   29.9386 C   0  0  2  0  0  0  0  0  0  0  0  0
   70.1943    4.9035   30.0217 C   0  0  0  0  0  0  0  0  0  0  0  0
   71.4519    4.6407   29.7945 O   0  0  0  0  0  0  0  0  0  0  0  0
   69.7863    6.6966   28.4487 C   0  0  0  0  0  0  0  0  0  0  0  0
   69.4247    3.7708   30.3191 N   0  0  0  0  0  0  0  0  0  0  0  0
   69.8391    2.3973   30.3289 C   0  0  2  0  0  0  0  0  0  0  0  0
   71.1553    2.1123   29.7499 C   0  0  0  0  0  0  0  0  0  0  0  0
   72.2178    2.7079   30.0643 O   0  0  0  0  0  0  0  0  0  0  0  0
   68.6932    1.6984   29.6039 C   0  0  0  0  0  0  0  0  0  0  0  0
   67.4717    2.4572   30.0876 C   0  0  0  0  0  0  0  0  0  0  0  0
   68.0036    3.7787   30.6457 C   0  0  0  0  0  0  0  0  0  0  0  0
   71.2600    1.0867   28.7640 N   0  0  0  0  0  0  0  0  0  0  0  0
   72.4473    0.4524   28.3077 C   0  0  2  0  0  0  0  0  0  0  0  0
   72.2642   -0.5751   27.2920 C   0  0  0  0  0  0  0  0  0  0  0  0
   72.2085   -0.2269   26.0854 O   0  0  0  0  0  0  0  0  0  0  0  0
   73.0504   -0.2498   29.5429 C   0  0  0  0  0  0  0  0  0  0  0  0
   74.4565    0.1067   29.7658 C   0  0  0  0  0  0  0  0  0  0  0  0
   74.8034    1.4144   30.1081 C   0  0  0  0  0  0  0  0  0  0  0  0
   75.5216   -0.7942   29.6484 C   0  0  0  0  0  0  0  0  0  0  0  0
   76.1046    1.8096   30.3202 C   0  0  0  0  0  0  0  0  0  0  0  0
   76.8265   -0.4052   29.8600 C   0  0  0  0  0  0  0  0  0  0  0  0
   77.1099    0.8984   30.1960 C   0  0  0  0  0  0  0  0  0  0  0  0
   72.1419   -1.9826   27.5579 N   0  0  0  0  0  0  0  0  0  0  0  0
   71.9859   -2.9283   26.4983 C   0  0  2  0  0  0  0  0  0  0  0  0
   71.8014   -2.2823   25.1542 C   0  0  0  0  0  0  0  0  0  0  0  0
   70.8665   -1.5162   24.8650 O   0  0  0  0  0  0  0  0  0  0  0  0
   70.8987   -3.9077   26.7533 C   0  0  0  0  0  0  0  0  0  0  0  0
   70.5415   -4.8421   25.6544 C   0  0  1  0  0  0  0  0  0  0  0  0
   71.6835   -5.9090   25.6421 C   0  0  0  0  0  0  0  0  0  0  0  0
   69.2985   -5.6766   25.8731 C   0  0  0  0  0  0  0  0  0  0  0  0
   72.7920   -2.5946   24.1730 N   0  0  0  0  0  0  0  0  0  0  0  0
   72.6606   -2.2964   22.7863 C   0  0  2  0  0  0  0  0  0  0  0  0
   71.6676   -3.1022   22.0896 C   0  0  0  0  0  0  0  0  0  0  0  0
   71.9899   -4.2907   21.7388 O   0  0  0  0  0  0  0  0  0  0  0  0
   74.0271   -2.2709   22.1358 C   0  0  0  0  0  0  0  0  0  0  0  0
   74.5868   -3.5227   21.9697 O   0  0  0  0  0  0  0  0  0  0  0  0
   70.3430   -2.6907   21.7495 N   0  0  0  0  0  0  0  0  0  0  0  0
   69.5363   -3.5792   20.9511 C   0  0  0  0  0  0  0  0  0  0  0  0
   68.9279   -2.9238   19.7783 C   0  0  0  0  0  0  0  0  0  0  0  0
   68.8688   -1.6577   19.7323 O   0  0  0  0  0  0  0  0  0  0  0  0
   68.4100   -3.6646   18.7158 N   0  0  0  0  0  0  0  0  0  0  0  0
   67.7503   -3.0271   17.5530 C   0  0  2  0  0  0  0  0  0  0  0  0
   66.3260   -2.9087   17.9158 C   0  0  0  0  0  0  0  0  0  0  0  0
   65.8089   -3.5981   18.9666 O   0  0  0  0  0  0  0  0  0  0  0  0
   68.0121   -3.8700   16.3345 C   0  0  0  0  0  0  0  0  0  0  0  0
   67.8613   -5.3322   16.5686 C   0  0  0  0  0  0  0  0  0  0  0  0
   69.1995   -6.0212   16.7574 C   0  0  0  0  0  0  0  0  0  0  0  0
   69.0496   -7.5100   16.9198 C   0  0  0  0  0  0  0  0  0  0  0  0
   69.0245   -7.9370   18.2886 N   0  0  0  0  0  4  0  0  0  0  0  0
   65.5717   -2.1668   17.2534 O   0  0  0  0  0  0  0  0  0  0  0  0
  2  1  1  6
  2  3  1  0
  2  5  1  0
  3  4  2  0
  3  8  1  0
  5  6  1  0
  5  7  1  1
  9  8  1  1
  9 10  1  0
  9 12  1  0
 10 11  2  0
 10 15  1  0
 12 13  1  0
 12 14  1  1
 15 16  1  0
 16 17  1  0
 16 19  1  6
 17 18  2  0
 17 20  1  0
 20 21  1  0
 20 26  1  0
 21 22  1  6
 21 24  1  0
 22 23  2  0
 22 27  1  0
 24 25  1  0
 25 26  1  0
 27 28  1  0
 28 29  1  0
 28 31  1  1
 29 30  2  0
 29 38  1  0
 31 32  1  0
 32 33  2  0
 32 34  1  0
 33 35  1  0
 34 36  2  0
 35 37  2  0
 36 37  1  0
 38 39  1  0
 39 40  1  0
 39 42  1  1
 40 41  2  0
 40 46  1  0
 42 43  1  0
 43 44  1  1
 43 45  1  0
 46 47  1  0
 47 48  1  0
 47 50  1  6
 48 49  2  0
 48 52  1  0
 50 51  1  0
 52 53  1  0
 53 54  1  0
 54 55  2  0
 54 56  1  0
 56 57  1  0
 57 58  1  0
 57 60  1  6
 58 59  1  0
 58 65  2  0
 60 61  1  0
 61 62  1  0
 62 63  1  0
 63 64  1  0
M  CHG  2   1   1  64   1
M  END
$$$$
