
     RDKit          3D

 65 66  0  0  0  0  0  0  0  0999 V2000
   70.7486    9.7512   37.3284 N   0  0  0  0  0  4  0  0  0  0  0  0
   71.1152    8.4659   36.8221 C   0  0  2  0  0  0  0  0  0  0  0  0
   71.3292    8.5073   35.3742 C   0  0  0  0  0  0  0  0  0  0  0  0
   71.9934    9.4528   34.8298 O   0  0  0  0  0  0  0  0  0  0  0  0
   70.0451    7.4621   37.2173 C   0  0  2  0  0  0  0  0  0  0  0  0
   68.8165    7.9552   36.8145 O   0  0  0  0  0  0  0  0  0  0  0  0
   70.0051    7.2772   38.7219 C   0  0  0  0  0  0  0  0  0  0  0  0
   70.8218    7.5216   34.5124 N   0  0  0  0  0  0  0  0  0  0  0  0
   71.4280    7.1909   33.2341 C   0  0  2  0  0  0  0  0  0  0  0  0
   70.6212    6.2697   32.4368 C   0  0  0  0  0  0  0  0  0  0  0  0
   69.9678    5.3621   33.0072 O   0  0  0  0  0  0  0  0  0  0  0  0
   72.8264    6.6951   33.3934 C   0  0  2  0  0  0  0  0  0  0  0  0
   72.8698    5.7988   34.4489 O   0  0  0  0  0  0  0  0  0  0  0  0
   73.8088    7.8432   33.6122 C   0  0  0  0  0  0  0  0  0  0  0  0
   70.5015    6.3209   31.0131 N   0  0  0  0  0  0  0  0  0  0  0  0
   69.3845    5.8773   30.2608 C   0  0  2  0  0  0  0  0  0  0  0  0
   68.8069    4.6159   30.7181 C   0  0  0  0  0  0  0  0  0  0  0  0
   67.5436    4.6235   31.0442 O   0  0  0  0  0  0  0  0  0  0  0  0
   69.7817    5.6934   28.7829 C   0  0  0  0  0  0  0  0  0  0  0  0
   69.4203    3.3640   30.8612 N   0  0  0  0  0  0  0  0  0  0  0  0
   69.3719    2.2472   29.9618 C   0  0  2  0  0  0  0  0  0  0  0  0
   68.3944    2.3327   28.8727 C   0  0  0  0  0  0  0  0  0  0  0  0
   67.6713    3.3352   28.6394 O   0  0  0  0  0  0  0  0  0  0  0  0
   69.1299    1.0715   30.9033 C   0  0  0  0  0  0  0  0  0  0  0  0
   69.9562    1.4364   32.1223 C   0  0  0  0  0  0  0  0  0  0  0  0
   70.2145    2.9400   32.0082 C   0  0  0  0  0  0  0  0  0  0  0  0
   68.2428    1.2130   28.0019 N   0  0  0  0  0  0  0  0  0  0  0  0
   69.1056    0.8285   26.9399 C   0  0  2  0  0  0  0  0  0  0  0  0
   68.5213    0.8660   25.6063 C   0  0  0  0  0  0  0  0  0  0  0  0
   67.6678    1.7516   25.3469 O   0  0  0  0  0  0  0  0  0  0  0  0
   69.4828   -0.6426   27.2159 C   0  0  0  0  0  0  0  0  0  0  0  0
   70.7472   -0.7742   27.9491 C   0  0  0  0  0  0  0  0  0  0  0  0
   70.8074   -1.5420   29.1129 C   0  0  0  0  0  0  0  0  0  0  0  0
   71.9442   -0.1583   27.5643 C   0  0  0  0  0  0  0  0  0  0  0  0
   71.9616   -1.6945   29.8469 C   0  0  0  0  0  0  0  0  0  0  0  0
   73.1033   -0.3074   28.2944 C   0  0  0  0  0  0  0  0  0  0  0  0
   73.1041   -1.0774   29.4344 C   0  0  0  0  0  0  0  0  0  0  0  0
   68.8468   -0.0410   24.5395 N   0  0  0  0  0  0  0  0  0  0  0  0
   68.1958    0.0405   23.2703 C   0  0  2  0  0  0  0  0  0  0  0  0
   68.5010   -1.1273   22.3753 C   0  0  0  0  0  0  0  0  0  0  0  0
   69.5485   -1.7946   22.4230 O   0  0  0  0  0  0  0  0  0  0  0  0
   68.4679    1.3176   22.5623 C   0  0  0  0  0  0  0  0  0  0  0  0
   67.8825    2.5592   23.1316 C   0  0  1  0  0  0  0  0  0  0  0  0
   68.4123    3.7125   22.2197 C   0  0  0  0  0  0  0  0  0  0  0  0
   66.3802    2.6963   23.0155 C   0  0  0  0  0  0  0  0  0  0  0  0
   67.4903   -1.4609   21.4220 N   0  0  0  0  0  0  0  0  0  0  0  0
   67.4488   -2.6899   20.7030 C   0  0  2  0  0  0  0  0  0  0  0  0
   68.7570   -3.2525   20.3982 C   0  0  0  0  0  0  0  0  0  0  0  0
   69.7839   -2.7409   20.9667 O   0  0  0  0  0  0  0  0  0  0  0  0
   66.5224   -2.5567   19.5134 C   0  0  0  0  0  0  0  0  0  0  0  0
   65.1853   -2.6907   19.8328 O   0  0  0  0  0  0  0  0  0  0  0  0
   69.0154   -4.3395   19.5087 N   0  0  0  0  0  0  0  0  0  0  0  0
   70.3600   -4.8531   19.4313 C   0  0  0  0  0  0  0  0  0  0  0  0
   70.4454   -6.1775   18.7881 C   0  0  0  0  0  0  0  0  0  0  0  0
   69.4526   -6.9645   18.8469 O   0  0  0  0  0  0  0  0  0  0  0  0
   71.5971   -6.5897   18.1175 N   0  0  0  0  0  0  0  0  0  0  0  0
   71.7658   -6.4207   16.6558 C   0  0  2  0  0  0  0  0  0  0  0  0
   73.0378   -7.0865   16.3198 C   0  0  0  0  0  0  0  0  0  0  0  0
   73.9592   -7.3663   17.2788 O   0  0  0  0  0  0  0  0  0  0  0  0
   71.7326   -4.9503   16.3385 C   0  0  0  0  0  0  0  0  0  0  0  0
   72.8145   -4.1667   16.9952 C   0  0  0  0  0  0  0  0  0  0  0  0
   73.9046   -3.7688   16.0182 C   0  0  0  0  0  0  0  0  0  0  0  0
   74.9985   -2.9787   16.6848 C   0  0  0  0  0  0  0  0  0  0  0  0
   76.1844   -3.7440   16.9387 N   0  0  0  0  0  4  0  0  0  0  0  0
   73.2849   -7.4026   15.1377 O   0  0  0  0  0  0  0  0  0  0  0  0
  2  1  1  6
  2  3  1  0
  2  5  1  0
  3  4  2  0
  3  8  1  0
  5  6  1  0
  5  7  1  1
  9  8  1  1
  9 10  1  0
  9 12  1  0
 10 11  2  0
 10 15  1  0
 12 13  1  0
 12 14  1  1
 15 16  1  0
 16 17  1  0
 16 19  1  6
 17 18  2  0
 17 20  1  0
 20 21  1  0
 20 26  1  0
 21 22  1  6
 21 24  1  0
 22 23  2  0
 22 27  1  0
 24 25  1  0
 25 26  1  0
 27 28  1  0
 28 29  1  0
 28 31  1  1
 29 30  2  0
 29 38  1  0
 31 32  1  0
 32 33  2  0
 32 34  1  0
 33 35  1  0
 34 36  2  0
 35 37  2  0
 36 37  1  0
 38 39  1  0
 39 40  1  0
 39 42  1  6
 40 41  2  0
 40 46  1  0
 42 43  1  0
 43 44  1  6
 43 45  1  0
 46 47  1  0
 47 48  1  0
 47 50  1  6
 48 49  2  0
 48 52  1  0
 50 51  1  0
 52 53  1  0
 53 54  1  0
 54 55  2  0
 54 56  1  0
 56 57  1  0
 57 58  1  0
 57 60  1  1
 58 59  1  0
 58 65  2  0
 60 61  1  0
 61 62  1  0
 62 63  1  0
 63 64  1  0
M  CHG  2   1   1  64   1
M  END
$$$$
