
     RDKit          3D

 65 66  0  0  0  0  0  0  0  0999 V2000
   67.8317   10.2232   32.1652 N   0  0  0  0  0  4  0  0  0  0  0  0
   67.6054    9.1424   33.0725 C   0  0  2  0  0  0  0  0  0  0  0  0
   68.8688    8.5788   33.5521 C   0  0  0  0  0  0  0  0  0  0  0  0
   69.9869    8.9372   33.0491 O   0  0  0  0  0  0  0  0  0  0  0  0
   66.7352    8.1028   32.3861 C   0  0  2  0  0  0  0  0  0  0  0  0
   66.9801    8.1608   31.0254 O   0  0  0  0  0  0  0  0  0  0  0  0
   65.2641    8.3946   32.6101 C   0  0  0  0  0  0  0  0  0  0  0  0
   68.9220    7.6236   34.5799 N   0  0  0  0  0  0  0  0  0  0  0  0
   70.1236    6.8790   34.9155 C   0  0  2  0  0  0  0  0  0  0  0  0
   70.0772    5.4857   34.4778 C   0  0  0  0  0  0  0  0  0  0  0  0
   69.0027    4.8423   34.5643 O   0  0  0  0  0  0  0  0  0  0  0  0
   70.4567    6.9853   36.3661 C   0  0  2  0  0  0  0  0  0  0  0  0
   70.2491    8.2903   36.7823 O   0  0  0  0  0  0  0  0  0  0  0  0
   71.8912    6.5448   36.6477 C   0  0  0  0  0  0  0  0  0  0  0  0
   71.1881    4.7698   33.9324 N   0  0  0  0  0  0  0  0  0  0  0  0
   71.3885    3.3685   34.0127 C   0  0  2  0  0  0  0  0  0  0  0  0
   72.6129    2.8928   33.3734 C   0  0  0  0  0  0  0  0  0  0  0  0
   72.9467    1.6484   33.5792 O   0  0  0  0  0  0  0  0  0  0  0  0
   70.2076    2.6270   33.3559 C   0  0  0  0  0  0  0  0  0  0  0  0
   73.5063    3.5888   32.5481 N   0  0  0  0  0  0  0  0  0  0  0  0
   73.9847    3.2147   31.2483 C   0  0  2  0  0  0  0  0  0  0  0  0
   73.6863    1.8461   30.8159 C   0  0  0  0  0  0  0  0  0  0  0  0
   73.9133    0.8155   31.5006 O   0  0  0  0  0  0  0  0  0  0  0  0
   75.4786    3.5078   31.3461 C   0  0  0  0  0  0  0  0  0  0  0  0
   75.5231    4.7700   32.1868 C   0  0  0  0  0  0  0  0  0  0  0  0
   74.1656    4.8442   32.8883 C   0  0  0  0  0  0  0  0  0  0  0  0
   73.0906    1.6495   29.5348 N   0  0  0  0  0  0  0  0  0  0  0  0
   72.7285    0.4116   28.9373 C   0  0  2  0  0  0  0  0  0  0  0  0
   72.2019    0.4946   27.5820 C   0  0  0  0  0  0  0  0  0  0  0  0
   72.0479    1.6294   27.0635 O   0  0  0  0  0  0  0  0  0  0  0  0
   71.5981   -0.1649   29.8161 C   0  0  0  0  0  0  0  0  0  0  0  0
   70.3813    0.6550   29.7820 C   0  0  0  0  0  0  0  0  0  0  0  0
   70.4110    1.9326   29.2214 C   0  0  0  0  0  0  0  0  0  0  0  0
   69.1454    0.2451   30.2963 C   0  0  0  0  0  0  0  0  0  0  0  0
   69.3051    2.7501   29.1693 C   0  0  0  0  0  0  0  0  0  0  0  0
   68.0341    1.0584   30.2468 C   0  0  0  0  0  0  0  0  0  0  0  0
   68.1219    2.3095   29.6814 C   0  0  0  0  0  0  0  0  0  0  0  0
   71.8385   -0.6345   26.7697 N   0  0  0  0  0  0  0  0  0  0  0  0
   71.9380   -0.5879   25.3452 C   0  0  2  0  0  0  0  0  0  0  0  0
   70.7366    0.0332   24.6904 C   0  0  0  0  0  0  0  0  0  0  0  0
   70.7431    1.1300   24.1060 O   0  0  0  0  0  0  0  0  0  0  0  0
   72.2257   -1.9145   24.7423 C   0  0  0  0  0  0  0  0  0  0  0  0
   73.6504   -2.2830   24.5355 C   0  0  1  0  0  0  0  0  0  0  0  0
   73.9978   -3.2408   25.7206 C   0  0  0  0  0  0  0  0  0  0  0  0
   73.9449   -3.1292   23.3164 C   0  0  0  0  0  0  0  0  0  0  0  0
   69.5269   -0.7235   24.7655 N   0  0  0  0  0  0  0  0  0  0  0  0
   68.3689   -0.4530   23.9812 C   0  0  2  0  0  0  0  0  0  0  0  0
   68.5545   -0.6438   22.5494 C   0  0  0  0  0  0  0  0  0  0  0  0
   68.7278    0.3925   21.8177 O   0  0  0  0  0  0  0  0  0  0  0  0
   67.7867    0.8883   24.3725 C   0  0  0  0  0  0  0  0  0  0  0  0
   66.7117    1.2751   23.5962 O   0  0  0  0  0  0  0  0  0  0  0  0
   68.5611   -1.8972   21.8648 N   0  0  0  0  0  0  0  0  0  0  0  0
   69.7062   -2.2251   21.0530 C   0  0  0  0  0  0  0  0  0  0  0  0
   69.6364   -1.6685   19.6891 C   0  0  0  0  0  0  0  0  0  0  0  0
   68.7848   -0.7660   19.4266 O   0  0  0  0  0  0  0  0  0  0  0  0
   70.4844   -2.1144   18.6751 N   0  0  0  0  0  0  0  0  0  0  0  0
   70.8471   -3.5415   18.5163 C   0  0  2  0  0  0  0  0  0  0  0  0
   71.8709   -3.5790   17.4559 C   0  0  0  0  0  0  0  0  0  0  0  0
   72.2643   -4.7552   16.9003 O   0  0  0  0  0  0  0  0  0  0  0  0
   69.5982   -4.3190   18.2005 C   0  0  0  0  0  0  0  0  0  0  0  0
   69.0580   -5.0878   19.3550 C   0  0  0  0  0  0  0  0  0  0  0  0
   69.0306   -6.5802   19.0843 C   0  0  0  0  0  0  0  0  0  0  0  0
   68.3429   -7.3408   20.1861 C   0  0  0  0  0  0  0  0  0  0  0  0
   69.0761   -8.4895   20.6328 N   0  0  0  0  0  4  0  0  0  0  0  0
   72.3936   -2.5191   17.0538 O   0  0  0  0  0  0  0  0  0  0  0  0
  2  1  1  6
  2  3  1  0
  2  5  1  0
  3  4  2  0
  3  8  1  0
  5  6  1  0
  5  7  1  6
  9  8  1  1
  9 10  1  0
  9 12  1  0
 10 11  2  0
 10 15  1  0
 12 13  1  0
 12 14  1  6
 15 16  1  0
 16 17  1  0
 16 19  1  6
 17 18  2  0
 17 20  1  0
 20 21  1  0
 20 26  1  0
 21 22  1  1
 21 24  1  0
 22 23  2  0
 22 27  1  0
 24 25  1  0
 25 26  1  0
 27 28  1  0
 28 29  1  0
 28 31  1  1
 29 30  2  0
 29 38  1  0
 31 32  1  0
 32 33  2  0
 32 34  1  0
 33 35  1  0
 34 36  2  0
 35 37  2  0
 36 37  1  0
 38 39  1  0
 39 40  1  0
 39 42  1  6
 40 41  2  0
 40 46  1  0
 42 43  1  0
 43 44  1  1
 43 45  1  0
 46 47  1  0
 47 48  1  0
 47 50  1  6
 48 49  2  0
 48 52  1  0
 50 51  1  0
 52 53  1  0
 53 54  1  0
 54 55  2  0
 54 56  1  0
 56 57  1  0
 57 58  1  0
 57 60  1  6
 58 59  1  0
 58 65  2  0
 60 61  1  0
 61 62  1  0
 62 63  1  0
 63 64  1  0
M  CHG  2   1   1  64   1
M  END
$$$$
