
     RDKit          3D

 65 66  0  0  0  0  0  0  0  0999 V2000
   69.0470   10.1010   37.2756 N   0  0  0  0  0  4  0  0  0  0  0  0
   68.6355    8.8296   36.7687 C   0  0  2  0  0  0  0  0  0  0  0  0
   69.7264    8.1657   36.0524 C   0  0  0  0  0  0  0  0  0  0  0  0
   70.6587    8.8383   35.4955 O   0  0  0  0  0  0  0  0  0  0  0  0
   67.4086    9.0266   35.8942 C   0  0  2  0  0  0  0  0  0  0  0  0
   67.7953    9.6969   34.7470 O   0  0  0  0  0  0  0  0  0  0  0  0
   66.3685    9.8726   36.6028 C   0  0  0  0  0  0  0  0  0  0  0  0
   69.8081    6.7686   35.9382 N   0  0  0  0  0  0  0  0  0  0  0  0
   70.8805    6.0872   35.2335 C   0  0  2  0  0  0  0  0  0  0  0  0
   70.7038    6.0842   33.7830 C   0  0  0  0  0  0  0  0  0  0  0  0
   69.5887    6.3864   33.2919 O   0  0  0  0  0  0  0  0  0  0  0  0
   71.1038    4.7089   35.7596 C   0  0  2  0  0  0  0  0  0  0  0  0
   72.1196    4.1080   35.0342 O   0  0  0  0  0  0  0  0  0  0  0  0
   69.8273    3.8728   35.7062 C   0  0  0  0  0  0  0  0  0  0  0  0
   71.7312    5.7634   32.8419 N   0  0  0  0  0  0  0  0  0  0  0  0
   71.6792    6.0072   31.4461 C   0  0  2  0  0  0  0  0  0  0  0  0
   71.2068    4.8773   30.6497 C   0  0  0  0  0  0  0  0  0  0  0  0
   71.0379    5.0794   29.3718 O   0  0  0  0  0  0  0  0  0  0  0  0
   73.0787    6.3865   30.9232 C   0  0  0  0  0  0  0  0  0  0  0  0
   70.9015    3.5730   31.0611 N   0  0  0  0  0  0  0  0  0  0  0  0
   71.5004    2.3446   30.6244 C   0  0  2  0  0  0  0  0  0  0  0  0
   72.3794    2.4310   29.4544 C   0  0  0  0  0  0  0  0  0  0  0  0
   73.6257    2.5929   29.5081 O   0  0  0  0  0  0  0  0  0  0  0  0
   70.2897    1.4420   30.4083 C   0  0  0  0  0  0  0  0  0  0  0  0
   69.3600    1.8438   31.5380 C   0  0  0  0  0  0  0  0  0  0  0  0
   69.8566    3.2112   32.0117 C   0  0  0  0  0  0  0  0  0  0  0  0
   71.8001    2.3193   28.1556 N   0  0  0  0  0  0  0  0  0  0  0  0
   70.8978    1.3196   27.7011 C   0  0  2  0  0  0  0  0  0  0  0  0
   71.2045   -0.0430   28.1142 C   0  0  0  0  0  0  0  0  0  0  0  0
   70.9006   -0.4023   29.2799 O   0  0  0  0  0  0  0  0  0  0  0  0
   70.9841    1.3441   26.1602 C   0  0  0  0  0  0  0  0  0  0  0  0
   70.2412    2.4638   25.5700 C   0  0  0  0  0  0  0  0  0  0  0  0
   70.1746    2.6092   24.1837 C   0  0  0  0  0  0  0  0  0  0  0  0
   69.5752    3.4429   26.3169 C   0  0  0  0  0  0  0  0  0  0  0  0
   69.5012    3.6429   23.5737 C   0  0  0  0  0  0  0  0  0  0  0  0
   68.8986    4.4801   25.7124 C   0  0  0  0  0  0  0  0  0  0  0  0
   68.8660    4.5731   24.3402 C   0  0  0  0  0  0  0  0  0  0  0  0
   71.8356   -1.0322   27.2838 N   0  0  0  0  0  0  0  0  0  0  0  0
   71.0816   -1.8138   26.3554 C   0  0  2  0  0  0  0  0  0  0  0  0
   71.9446   -2.6063   25.4146 C   0  0  0  0  0  0  0  0  0  0  0  0
   73.1358   -2.8916   25.6250 O   0  0  0  0  0  0  0  0  0  0  0  0
   70.0914   -1.0103   25.5938 C   0  0  0  0  0  0  0  0  0  0  0  0
   68.7577   -1.6164   25.3448 C   0  0  1  0  0  0  0  0  0  0  0  0
   67.9430   -0.5112   24.5983 C   0  0  0  0  0  0  0  0  0  0  0  0
   68.7286   -2.7756   24.3729 C   0  0  0  0  0  0  0  0  0  0  0  0
   71.3124   -3.0443   24.2105 N   0  0  0  0  0  0  0  0  0  0  0  0
   71.9534   -3.8420   23.2195 C   0  0  2  0  0  0  0  0  0  0  0  0
   71.1320   -4.1232   22.0503 C   0  0  0  0  0  0  0  0  0  0  0  0
   69.8592   -4.1227   22.1899 O   0  0  0  0  0  0  0  0  0  0  0  0
   72.5752   -5.0611   23.8664 C   0  0  0  0  0  0  0  0  0  0  0  0
   73.6147   -4.7644   24.7262 O   0  0  0  0  0  0  0  0  0  0  0  0
   71.6137   -4.4071   20.7362 N   0  0  0  0  0  0  0  0  0  0  0  0
   71.0764   -3.6493   19.6340 C   0  0  0  0  0  0  0  0  0  0  0  0
   69.7193   -4.0705   19.2394 C   0  0  0  0  0  0  0  0  0  0  0  0
   69.1314   -4.9791   19.9007 O   0  0  0  0  0  0  0  0  0  0  0  0
   69.0650   -3.4953   18.1499 N   0  0  0  0  0  0  0  0  0  0  0  0
   67.6849   -3.8716   17.7659 C   0  0  2  0  0  0  0  0  0  0  0  0
   67.8066   -5.1440   17.0309 C   0  0  0  0  0  0  0  0  0  0  0  0
   69.0237   -5.6559   16.7089 O   0  0  0  0  0  0  0  0  0  0  0  0
   67.0892   -2.7465   16.9639 C   0  0  0  0  0  0  0  0  0  0  0  0
   66.6023   -1.6083   17.7904 C   0  0  0  0  0  0  0  0  0  0  0  0
   65.9775   -0.5149   16.9446 C   0  0  0  0  0  0  0  0  0  0  0  0
   65.0183    0.3323   17.7367 C   0  0  0  0  0  0  0  0  0  0  0  0
   65.6112    1.5261   18.2658 N   0  0  0  0  0  4  0  0  0  0  0  0
   66.7816   -5.7708   16.6921 O   0  0  0  0  0  0  0  0  0  0  0  0
  2  1  1  6
  2  3  1  0
  2  5  1  0
  3  4  2  0
  3  8  1  0
  5  6  1  0
  5  7  1  1
  9  8  1  1
  9 10  1  0
  9 12  1  0
 10 11  2  0
 10 15  1  0
 12 13  1  0
 12 14  1  6
 15 16  1  0
 16 17  1  0
 16 19  1  6
 17 18  2  0
 17 20  1  0
 20 21  1  0
 20 26  1  0
 21 22  1  6
 21 24  1  0
 22 23  2  0
 22 27  1  0
 24 25  1  0
 25 26  1  0
 27 28  1  0
 28 29  1  0
 28 31  1  6
 29 30  2  0
 29 38  1  0
 31 32  1  0
 32 33  2  0
 32 34  1  0
 33 35  1  0
 34 36  2  0
 35 37  2  0
 36 37  1  0
 38 39  1  0
 39 40  1  0
 39 42  1  6
 40 41  2  0
 40 46  1  0
 42 43  1  0
 43 44  1  6
 43 45  1  0
 46 47  1  0
 47 48  1  0
 47 50  1  1
 48 49  2  0
 48 52  1  0
 50 51  1  0
 52 53  1  0
 53 54  1  0
 54 55  2  0
 54 56  1  0
 56 57  1  0
 57 58  1  0
 57 60  1  6
 58 59  1  0
 58 65  2  0
 60 61  1  0
 61 62  1  0
 62 63  1  0
 63 64  1  0
M  CHG  2   1   1  64   1
M  END
$$$$
