
     RDKit          3D

 65 66  0  0  0  0  0  0  0  0999 V2000
   71.1045    9.6755   36.9254 N   0  0  0  0  0  4  0  0  0  0  0  0
   70.1021    9.7418   35.9089 C   0  0  2  0  0  0  0  0  0  0  0  0
   69.8327    8.4189   35.3422 C   0  0  0  0  0  0  0  0  0  0  0  0
   70.0727    7.3535   36.0046 O   0  0  0  0  0  0  0  0  0  0  0  0
   70.5431   10.7414   34.8528 C   0  0  2  0  0  0  0  0  0  0  0  0
   71.9261   10.7423   34.8056 O   0  0  0  0  0  0  0  0  0  0  0  0
   70.0859   12.1428   35.2088 C   0  0  0  0  0  0  0  0  0  0  0  0
   69.3017    8.2488   34.0534 N   0  0  0  0  0  0  0  0  0  0  0  0
   69.4713    7.0339   33.2748 C   0  0  2  0  0  0  0  0  0  0  0  0
   70.5601    6.1883   33.7593 C   0  0  0  0  0  0  0  0  0  0  0  0
   71.7274    6.6471   33.8120 O   0  0  0  0  0  0  0  0  0  0  0  0
   69.6106    7.3224   31.8174 C   0  0  2  0  0  0  0  0  0  0  0  0
   70.1735    8.5781   31.6577 O   0  0  0  0  0  0  0  0  0  0  0  0
   68.2685    7.2305   31.0951 C   0  0  0  0  0  0  0  0  0  0  0  0
   70.4022    4.8381   34.2022 N   0  0  0  0  0  0  0  0  0  0  0  0
   70.6375    3.6788   33.4205 C   0  0  2  0  0  0  0  0  0  0  0  0
   71.1379    3.9455   32.0743 C   0  0  0  0  0  0  0  0  0  0  0  0
   70.3722    4.6451   31.2827 O   0  0  0  0  0  0  0  0  0  0  0  0
   69.3362    2.8656   33.2758 C   0  0  0  0  0  0  0  0  0  0  0  0
   72.3499    3.5552   31.4890 N   0  0  0  0  0  0  0  0  0  0  0  0
   72.5808    2.4833   30.5637 C   0  0  2  0  0  0  0  0  0  0  0  0
   71.4729    1.5431   30.3701 C   0  0  0  0  0  0  0  0  0  0  0  0
   70.4498    1.4851   31.0996 O   0  0  0  0  0  0  0  0  0  0  0  0
   73.8416    1.8290   31.1198 C   0  0  0  0  0  0  0  0  0  0  0  0
   74.6486    3.0138   31.6171 C   0  0  0  0  0  0  0  0  0  0  0  0
   73.6486    4.1636   31.7530 C   0  0  0  0  0  0  0  0  0  0  0  0
   71.5385    0.6260   29.2794 N   0  0  0  0  0  0  0  0  0  0  0  0
   71.1928   -0.7526   29.2950 C   0  0  2  0  0  0  0  0  0  0  0  0
   71.1875   -1.4171   27.9991 C   0  0  0  0  0  0  0  0  0  0  0  0
   70.5114   -0.9139   27.0664 O   0  0  0  0  0  0  0  0  0  0  0  0
   69.7467   -0.8176   29.8309 C   0  0  0  0  0  0  0  0  0  0  0  0
   68.7965   -0.0870   28.9841 C   0  0  0  0  0  0  0  0  0  0  0  0
   67.4380   -0.0738   29.3031 C   0  0  0  0  0  0  0  0  0  0  0  0
   69.1570    0.6183   27.8297 C   0  0  0  0  0  0  0  0  0  0  0  0
   66.4996    0.5856   28.5423 C   0  0  0  0  0  0  0  0  0  0  0  0
   68.2226    1.2811   27.0639 C   0  0  0  0  0  0  0  0  0  0  0  0
   66.8958    1.2604   27.4270 C   0  0  0  0  0  0  0  0  0  0  0  0
   71.9068   -2.6227   27.6895 N   0  0  0  0  0  0  0  0  0  0  0  0
   72.5635   -2.7941   26.4322 C   0  0  2  0  0  0  0  0  0  0  0  0
   72.0173   -3.9439   25.6338 C   0  0  0  0  0  0  0  0  0  0  0  0
   71.7879   -5.0745   26.0962 O   0  0  0  0  0  0  0  0  0  0  0  0
   74.0386   -2.9111   26.5620 C   0  0  0  0  0  0  0  0  0  0  0  0
   74.8363   -2.9878   25.3105 C   0  0  1  0  0  0  0  0  0  0  0  0
   75.0527   -4.5152   25.0604 C   0  0  0  0  0  0  0  0  0  0  0  0
   74.1349   -2.5324   24.0497 C   0  0  0  0  0  0  0  0  0  0  0  0
   71.7551   -3.6748   24.2553 N   0  0  0  0  0  0  0  0  0  0  0  0
   70.4675   -3.3529   23.7380 C   0  0  2  0  0  0  0  0  0  0  0  0
   70.3890   -3.3431   22.2838 C   0  0  0  0  0  0  0  0  0  0  0  0
   69.2487   -3.1345   21.7401 O   0  0  0  0  0  0  0  0  0  0  0  0
   69.9431   -2.1023   24.4103 C   0  0  0  0  0  0  0  0  0  0  0  0
   68.7294   -2.2802   25.0454 O   0  0  0  0  0  0  0  0  0  0  0  0
   71.4790   -3.5489   21.3843 N   0  0  0  0  0  0  0  0  0  0  0  0
   71.2779   -3.2489   19.9888 C   0  0  0  0  0  0  0  0  0  0  0  0
   69.9103   -3.5377   19.5184 C   0  0  0  0  0  0  0  0  0  0  0  0
   69.1175   -4.1863   20.2663 O   0  0  0  0  0  0  0  0  0  0  0  0
   69.4662   -3.1173   18.2646 N   0  0  0  0  0  0  0  0  0  0  0  0
   68.1176   -3.4488   17.7498 C   0  0  2  0  0  0  0  0  0  0  0  0
   68.2616   -4.7393   17.0514 C   0  0  0  0  0  0  0  0  0  0  0  0
   67.1766   -5.4080   16.5796 O   0  0  0  0  0  0  0  0  0  0  0  0
   67.6499   -2.3183   16.8741 C   0  0  0  0  0  0  0  0  0  0  0  0
   66.8938   -1.2634   17.6030 C   0  0  0  0  0  0  0  0  0  0  0  0
   66.2672   -0.2547   16.6590 C   0  0  0  0  0  0  0  0  0  0  0  0
   67.1457    0.9506   16.4573 C   0  0  0  0  0  0  0  0  0  0  0  0
   66.5627    1.9484   15.6081 N   0  0  0  0  0  4  0  0  0  0  0  0
   69.3942   -5.2373   16.8852 O   0  0  0  0  0  0  0  0  0  0  0  0
  2  1  1  1
  2  3  1  0
  2  5  1  0
  3  4  2  0
  3  8  1  0
  5  6  1  0
  5  7  1  1
  9  8  1  1
  9 10  1  0
  9 12  1  0
 10 11  2  0
 10 15  1  0
 12 13  1  0
 12 14  1  6
 15 16  1  0
 16 17  1  0
 16 19  1  6
 17 18  2  0
 17 20  1  0
 20 21  1  0
 20 26  1  0
 21 22  1  1
 21 24  1  0
 22 23  2  0
 22 27  1  0
 24 25  1  0
 25 26  1  0
 27 28  1  0
 28 29  1  0
 28 31  1  6
 29 30  2  0
 29 38  1  0
 31 32  1  0
 32 33  2  0
 32 34  1  0
 33 35  1  0
 34 36  2  0
 35 37  2  0
 36 37  1  0
 38 39  1  0
 39 40  1  0
 39 42  1  1
 40 41  2  0
 40 46  1  0
 42 43  1  0
 43 44  1  6
 43 45  1  0
 46 47  1  0
 47 48  1  0
 47 50  1  6
 48 49  2  0
 48 52  1  0
 50 51  1  0
 52 53  1  0
 53 54  1  0
 54 55  2  0
 54 56  1  0
 56 57  1  0
 57 58  1  0
 57 60  1  6
 58 59  1  0
 58 65  2  0
 60 61  1  0
 61 62  1  0
 62 63  1  0
 63 64  1  0
M  CHG  2   1   1  64   1
M  END
$$$$
