
     RDKit          3D

 65 66  0  0  0  0  0  0  0  0999 V2000
   71.4703   -6.1379   16.3906 N   0  0  0  0  0  4  0  0  0  0  0  0
   71.3874   -5.9583   17.8061 C   0  0  2  0  0  0  0  0  0  0  0  0
   70.1383   -5.2944   18.1844 C   0  0  0  0  0  0  0  0  0  0  0  0
   69.0065   -5.8552   17.9942 O   0  0  0  0  0  0  0  0  0  0  0  0
   72.6121   -5.1896   18.2732 C   0  0  2  0  0  0  0  0  0  0  0  0
   72.6297   -3.9658   17.6276 O   0  0  0  0  0  0  0  0  0  0  0  0
   73.8859   -5.9285   17.9112 C   0  0  0  0  0  0  0  0  0  0  0  0
   70.1145   -4.0186   18.7704 N   0  0  0  0  0  0  0  0  0  0  0  0
   68.8870   -3.3015   19.0707 C   0  0  2  0  0  0  0  0  0  0  0  0
   69.1148   -2.0451   19.7811 C   0  0  0  0  0  0  0  0  0  0  0  0
   69.5316   -1.0419   19.1521 O   0  0  0  0  0  0  0  0  0  0  0  0
   67.9007   -4.1628   19.7861 C   0  0  2  0  0  0  0  0  0  0  0  0
   66.7726   -3.4125   20.0753 O   0  0  0  0  0  0  0  0  0  0  0  0
   68.4964   -4.7639   21.0569 C   0  0  0  0  0  0  0  0  0  0  0  0
   68.8874   -1.8518   21.1793 N   0  0  0  0  0  0  0  0  0  0  0  0
   69.1562   -0.6631   21.9040 C   0  0  2  0  0  0  0  0  0  0  0  0
   70.2504   -0.7728   22.8656 C   0  0  0  0  0  0  0  0  0  0  0  0
   70.1146   -1.6473   23.8243 O   0  0  0  0  0  0  0  0  0  0  0  0
   67.9008   -0.2232   22.6826 C   0  0  0  0  0  0  0  0  0  0  0  0
   71.4578   -0.0631   22.9144 N   0  0  0  0  0  0  0  0  0  0  0  0
   72.5116   -0.1756   23.8815 C   0  0  2  0  0  0  0  0  0  0  0  0
   72.2087   -0.9581   25.0836 C   0  0  0  0  0  0  0  0  0  0  0  0
   71.8787   -2.1720   25.0810 O   0  0  0  0  0  0  0  0  0  0  0  0
   72.8504    1.2823   24.1761 C   0  0  0  0  0  0  0  0  0  0  0  0
   72.7006    1.9469   22.8204 C   0  0  0  0  0  0  0  0  0  0  0  0
   71.8598    0.9828   21.9812 C   0  0  0  0  0  0  0  0  0  0  0  0
   72.2949   -0.3172   26.3551 N   0  0  0  0  0  0  0  0  0  0  0  0
   71.5092   -0.5882   27.5081 C   0  0  2  0  0  0  0  0  0  0  0  0
   70.9524    0.5771   28.1811 C   0  0  0  0  0  0  0  0  0  0  0  0
   71.1445    1.7129   27.6779 O   0  0  0  0  0  0  0  0  0  0  0  0
   72.4610   -1.2676   28.5156 C   0  0  0  0  0  0  0  0  0  0  0  0
   72.1686   -2.6945   28.6959 C   0  0  0  0  0  0  0  0  0  0  0  0
   71.1064   -3.2856   28.0106 C   0  0  0  0  0  0  0  0  0  0  0  0
   72.8934   -3.5422   29.5421 C   0  0  0  0  0  0  0  0  0  0  0  0
   70.7791   -4.6155   28.1464 C   0  0  0  0  0  0  0  0  0  0  0  0
   72.5713   -4.8747   29.6822 C   0  0  0  0  0  0  0  0  0  0  0  0
   71.5129   -5.4040   28.9806 C   0  0  0  0  0  0  0  0  0  0  0  0
   70.1838    0.5370   29.3954 N   0  0  0  0  0  0  0  0  0  0  0  0
   69.6544    1.7287   29.9794 C   0  0  2  0  0  0  0  0  0  0  0  0
   70.5862    2.3622   30.9736 C   0  0  0  0  0  0  0  0  0  0  0  0
   70.9999    1.8037   32.0039 O   0  0  0  0  0  0  0  0  0  0  0  0
   68.3128    1.5287   30.5848 C   0  0  0  0  0  0  0  0  0  0  0  0
   67.6999    2.6799   31.2971 C   0  0  1  0  0  0  0  0  0  0  0  0
   67.2112    3.6424   30.1669 C   0  0  0  0  0  0  0  0  0  0  0  0
   66.4299    2.3834   32.0643 C   0  0  0  0  0  0  0  0  0  0  0  0
   71.0022    3.6957   30.6736 N   0  0  0  0  0  0  0  0  0  0  0  0
   71.6851    4.5424   31.5934 C   0  0  2  0  0  0  0  0  0  0  0  0
   70.8093    5.3190   32.4598 C   0  0  0  0  0  0  0  0  0  0  0  0
   69.8659    4.7074   33.0725 O   0  0  0  0  0  0  0  0  0  0  0  0
   72.7351    5.3515   30.8628 C   0  0  0  0  0  0  0  0  0  0  0  0
   72.4126    6.6879   30.7283 O   0  0  0  0  0  0  0  0  0  0  0  0
   70.8977    6.7243   32.6984 N   0  0  0  0  0  0  0  0  0  0  0  0
   71.3890    7.1694   33.9783 C   0  0  0  0  0  0  0  0  0  0  0  0
   71.2738    8.6264   34.1758 C   0  0  0  0  0  0  0  0  0  0  0  0
   71.8678    9.4128   33.3776 O   0  0  0  0  0  0  0  0  0  0  0  0
   70.5281    9.1635   35.2253 N   0  0  0  0  0  0  0  0  0  0  0  0
   70.2868   10.6183   35.3622 C   0  0  2  0  0  0  0  0  0  0  0  0
   71.5896   11.2085   35.7203 C   0  0  0  0  0  0  0  0  0  0  0  0
   71.8992   12.4873   35.3798 O   0  0  0  0  0  0  0  0  0  0  0  0
   69.2073   10.8285   36.3890 C   0  0  0  0  0  0  0  0  0  0  0  0
   67.8407   10.4902   35.9057 C   0  0  0  0  0  0  0  0  0  0  0  0
   66.7943   10.6542   36.9917 C   0  0  0  0  0  0  0  0  0  0  0  0
   65.6379    9.7083   36.8082 C   0  0  0  0  0  0  0  0  0  0  0  0
   64.6433   10.1904   35.8946 N   0  0  0  0  0  4  0  0  0  0  0  0
   72.4318   10.5320   36.3460 O   0  0  0  0  0  0  0  0  0  0  0  0
  2  1  1  6
  2  3  1  0
  2  5  1  0
  3  4  2  0
  3  8  1  0
  5  6  1  0
  5  7  1  6
  9  8  1  1
  9 10  1  0
  9 12  1  0
 10 11  2  0
 10 15  1  0
 12 13  1  0
 12 14  1  1
 15 16  1  0
 16 17  1  0
 16 19  1  1
 17 18  2  0
 17 20  1  0
 20 21  1  0
 20 26  1  0
 21 22  1  1
 21 24  1  0
 22 23  2  0
 22 27  1  0
 24 25  1  0
 25 26  1  0
 27 28  1  0
 28 29  1  0
 28 31  1  1
 29 30  2  0
 29 38  1  0
 31 32  1  0
 32 33  2  0
 32 34  1  0
 33 35  1  0
 34 36  2  0
 35 37  2  0
 36 37  1  0
 38 39  1  0
 39 40  1  0
 39 42  1  1
 40 41  2  0
 40 46  1  0
 42 43  1  0
 43 44  1  6
 43 45  1  0
 46 47  1  0
 47 48  1  0
 47 50  1  6
 48 49  2  0
 48 52  1  0
 50 51  1  0
 52 53  1  0
 53 54  1  0
 54 55  2  0
 54 56  1  0
 56 57  1  0
 57 58  1  0
 57 60  1  1
 58 59  1  0
 58 65  2  0
 60 61  1  0
 61 62  1  0
 62 63  1  0
 63 64  1  0
M  CHG  2   1   1  64   1
M  END
$$$$
