
     RDKit          3D

 65 66  0  0  0  0  0  0  0  0999 V2000
   68.2822   10.9944   36.4404 N   0  0  0  0  0  4  0  0  0  0  0  0
   68.8461    9.6821   36.4921 C   0  0  2  0  0  0  0  0  0  0  0  0
   69.6206    9.3894   35.2844 C   0  0  0  0  0  0  0  0  0  0  0  0
   69.5317   10.1276   34.2458 O   0  0  0  0  0  0  0  0  0  0  0  0
   67.7272    8.6784   36.7155 C   0  0  2  0  0  0  0  0  0  0  0  0
   68.2836    7.5076   37.1998 O   0  0  0  0  0  0  0  0  0  0  0  0
   67.0197    8.3571   35.4132 C   0  0  0  0  0  0  0  0  0  0  0  0
   70.4944    8.2935   35.2008 N   0  0  0  0  0  0  0  0  0  0  0  0
   71.2940    7.9988   34.0241 C   0  0  2  0  0  0  0  0  0  0  0  0
   70.5860    7.1868   33.0369 C   0  0  0  0  0  0  0  0  0  0  0  0
   69.6720    6.4114   33.4100 O   0  0  0  0  0  0  0  0  0  0  0  0
   72.6113    7.3969   34.3834 C   0  0  2  0  0  0  0  0  0  0  0  0
   73.3460    7.1954   33.2264 O   0  0  0  0  0  0  0  0  0  0  0  0
   72.4409    6.0908   35.1557 C   0  0  0  0  0  0  0  0  0  0  0  0
   70.8491    7.2071   31.6318 N   0  0  0  0  0  0  0  0  0  0  0  0
   70.2331    6.3746   30.6633 C   0  0  2  0  0  0  0  0  0  0  0  0
   70.4123    4.9428   30.8912 C   0  0  0  0  0  0  0  0  0  0  0  0
   71.5138    4.5676   31.4814 O   0  0  0  0  0  0  0  0  0  0  0  0
   70.7911    6.6915   29.2619 C   0  0  0  0  0  0  0  0  0  0  0  0
   69.5559    3.8825   30.5653 N   0  0  0  0  0  0  0  0  0  0  0  0
   69.9069    2.5304   30.2381 C   0  0  2  0  0  0  0  0  0  0  0  0
   71.3291    2.2690   29.9974 C   0  0  0  0  0  0  0  0  0  0  0  0
   72.2527    2.5465   30.8051 O   0  0  0  0  0  0  0  0  0  0  0  0
   69.0236    2.2404   29.0286 C   0  0  0  0  0  0  0  0  0  0  0  0
   67.7347    2.9657   29.3671 C   0  0  0  0  0  0  0  0  0  0  0  0
   68.1046    3.9731   30.4575 C   0  0  0  0  0  0  0  0  0  0  0  0
   71.7116    1.6515   28.7698 N   0  0  0  0  0  0  0  0  0  0  0  0
   72.3352    0.3851   28.6036 C   0  0  2  0  0  0  0  0  0  0  0  0
   71.9221   -0.3734   27.4309 C   0  0  0  0  0  0  0  0  0  0  0  0
   72.8074   -0.8076   26.6513 O   0  0  0  0  0  0  0  0  0  0  0  0
   71.9270   -0.4497   29.8361 C   0  0  0  0  0  0  0  0  0  0  0  0
   72.9823   -1.3736   30.2680 C   0  0  0  0  0  0  0  0  0  0  0  0
   72.7973   -2.1724   31.3973 C   0  0  0  0  0  0  0  0  0  0  0  0
   74.2135   -1.5166   29.6171 C   0  0  0  0  0  0  0  0  0  0  0  0
   73.7537   -3.0499   31.8550 C   0  0  0  0  0  0  0  0  0  0  0  0
   75.1751   -2.3937   30.0698 C   0  0  0  0  0  0  0  0  0  0  0  0
   74.9376   -3.1572   31.1892 C   0  0  0  0  0  0  0  0  0  0  0  0
   70.5601   -0.6757   27.0843 N   0  0  0  0  0  0  0  0  0  0  0  0
   70.2366   -1.3675   25.8767 C   0  0  2  0  0  0  0  0  0  0  0  0
   71.3289   -1.2984   24.8471 C   0  0  0  0  0  0  0  0  0  0  0  0
   71.7633   -0.2439   24.3530 O   0  0  0  0  0  0  0  0  0  0  0  0
   68.9450   -0.9298   25.2883 C   0  0  0  0  0  0  0  0  0  0  0  0
   67.7613   -0.8788   26.1854 C   0  0  1  0  0  0  0  0  0  0  0  0
   67.0219    0.4448   25.8063 C   0  0  0  0  0  0  0  0  0  0  0  0
   66.7064   -1.9375   25.9499 C   0  0  0  0  0  0  0  0  0  0  0  0
   71.8794   -2.5523   24.4395 N   0  0  0  0  0  0  0  0  0  0  0  0
   72.2518   -2.8601   23.0994 C   0  0  2  0  0  0  0  0  0  0  0  0
   71.1295   -3.0179   22.1847 C   0  0  0  0  0  0  0  0  0  0  0  0
   70.0526   -3.5461   22.6327 O   0  0  0  0  0  0  0  0  0  0  0  0
   73.2418   -4.0051   23.0928 C   0  0  0  0  0  0  0  0  0  0  0  0
   74.1275   -3.9798   24.1524 O   0  0  0  0  0  0  0  0  0  0  0  0
   71.1097   -2.6361   20.8087 N   0  0  0  0  0  0  0  0  0  0  0  0
   69.9238   -2.9182   20.0394 C   0  0  0  0  0  0  0  0  0  0  0  0
   70.2091   -3.3271   18.6515 C   0  0  0  0  0  0  0  0  0  0  0  0
   71.3865   -3.2073   18.1955 O   0  0  0  0  0  0  0  0  0  0  0  0
   69.2113   -3.8407   17.8227 N   0  0  0  0  0  0  0  0  0  0  0  0
   69.5008   -4.3749   16.4720 C   0  0  2  0  0  0  0  0  0  0  0  0
   69.9074   -3.2130   15.6604 C   0  0  0  0  0  0  0  0  0  0  0  0
   70.4154   -3.3724   14.4100 O   0  0  0  0  0  0  0  0  0  0  0  0
   68.2746   -5.0857   15.9671 C   0  0  0  0  0  0  0  0  0  0  0  0
   67.7719   -6.1461   16.8828 C   0  0  0  0  0  0  0  0  0  0  0  0
   66.5014   -6.7928   16.3644 C   0  0  0  0  0  0  0  0  0  0  0  0
   66.6665   -8.2744   16.1572 C   0  0  0  0  0  0  0  0  0  0  0  0
   67.7406   -8.8428   16.9187 N   0  0  0  0  0  4  0  0  0  0  0  0
   69.7891   -2.0579   16.1188 O   0  0  0  0  0  0  0  0  0  0  0  0
  2  1  1  6
  2  3  1  0
  2  5  1  0
  3  4  2  0
  3  8  1  0
  5  6  1  0
  5  7  1  6
  9  8  1  1
  9 10  1  0
  9 12  1  0
 10 11  2  0
 10 15  1  0
 12 13  1  0
 12 14  1  6
 15 16  1  0
 16 17  1  0
 16 19  1  6
 17 18  2  0
 17 20  1  0
 20 21  1  0
 20 26  1  0
 21 22  1  6
 21 24  1  0
 22 23  2  0
 22 27  1  0
 24 25  1  0
 25 26  1  0
 27 28  1  0
 28 29  1  0
 28 31  1  1
 29 30  2  0
 29 38  1  0
 31 32  1  0
 32 33  2  0
 32 34  1  0
 33 35  1  0
 34 36  2  0
 35 37  2  0
 36 37  1  0
 38 39  1  0
 39 40  1  0
 39 42  1  6
 40 41  2  0
 40 46  1  0
 42 43  1  0
 43 44  1  6
 43 45  1  0
 46 47  1  0
 47 48  1  0
 47 50  1  1
 48 49  2  0
 48 52  1  0
 50 51  1  0
 52 53  1  0
 53 54  1  0
 54 55  2  0
 54 56  1  0
 56 57  1  0
 57 58  1  0
 57 60  1  6
 58 59  1  0
 58 65  2  0
 60 61  1  0
 61 62  1  0
 62 63  1  0
 63 64  1  0
M  CHG  2   1   1  64   1
M  END
$$$$
