
     RDKit          3D

 65 66  0  0  0  0  0  0  0  0999 V2000
   68.9967   11.5949   36.2236 N   0  0  0  0  0  4  0  0  0  0  0  0
   68.7668   10.7371   35.1037 C   0  0  2  0  0  0  0  0  0  0  0  0
   69.2035    9.3682   35.3855 C   0  0  0  0  0  0  0  0  0  0  0  0
   70.0451    9.1195   36.3136 O   0  0  0  0  0  0  0  0  0  0  0  0
   69.4632   11.3246   33.8876 C   0  0  2  0  0  0  0  0  0  0  0  0
   68.7417   10.9718   32.7607 O   0  0  0  0  0  0  0  0  0  0  0  0
   70.8642   10.7629   33.7417 C   0  0  0  0  0  0  0  0  0  0  0  0
   68.7276    8.2645   34.6596 N   0  0  0  0  0  0  0  0  0  0  0  0
   69.0783    6.8905   34.9757 C   0  0  2  0  0  0  0  0  0  0  0  0
   70.3180    6.4527   34.3381 C   0  0  0  0  0  0  0  0  0  0  0  0
   70.9738    7.2595   33.6344 O   0  0  0  0  0  0  0  0  0  0  0  0
   67.9554    5.9502   34.6903 C   0  0  2  0  0  0  0  0  0  0  0  0
   67.7830    5.8561   33.3189 O   0  0  0  0  0  0  0  0  0  0  0  0
   66.6635    6.3931   35.3732 C   0  0  0  0  0  0  0  0  0  0  0  0
   70.8718    5.1401   34.4583 N   0  0  0  0  0  0  0  0  0  0  0  0
   72.0977    4.7051   33.8940 C   0  0  2  0  0  0  0  0  0  0  0  0
   72.0305    4.3836   32.4706 C   0  0  0  0  0  0  0  0  0  0  0  0
   73.1359    3.9975   31.8950 O   0  0  0  0  0  0  0  0  0  0  0  0
   72.6002    3.4462   34.6277 C   0  0  0  0  0  0  0  0  0  0  0  0
   70.9280    4.4258   31.6065 N   0  0  0  0  0  0  0  0  0  0  0  0
   70.3948    3.3656   30.8002 C   0  0  2  0  0  0  0  0  0  0  0  0
   71.2183    2.1580   30.6885 C   0  0  0  0  0  0  0  0  0  0  0  0
   72.1487    1.8527   31.4782 O   0  0  0  0  0  0  0  0  0  0  0  0
   70.1468    4.0567   29.4630 C   0  0  0  0  0  0  0  0  0  0  0  0
   69.6720    5.4371   29.8765 C   0  0  0  0  0  0  0  0  0  0  0  0
   70.1177    5.6062   31.3302 C   0  0  0  0  0  0  0  0  0  0  0  0
   70.9572    1.2501   29.6197 N   0  0  0  0  0  0  0  0  0  0  0  0
   71.5356   -0.0332   29.4229 C   0  0  2  0  0  0  0  0  0  0  0  0
   71.8013   -0.4008   28.0389 C   0  0  0  0  0  0  0  0  0  0  0  0
   70.8355   -0.4683   27.2371 O   0  0  0  0  0  0  0  0  0  0  0  0
   70.5023   -1.0470   29.9588 C   0  0  0  0  0  0  0  0  0  0  0  0
   70.6108   -1.2526   31.4079 C   0  0  0  0  0  0  0  0  0  0  0  0
   71.6464   -0.6536   32.1264 C   0  0  0  0  0  0  0  0  0  0  0  0
   69.7284   -2.0411   32.1559 C   0  0  0  0  0  0  0  0  0  0  0  0
   71.8043   -0.8173   33.4838 C   0  0  0  0  0  0  0  0  0  0  0  0
   69.8804   -2.2086   33.5152 C   0  0  0  0  0  0  0  0  0  0  0  0
   70.9208   -1.5931   34.1720 C   0  0  0  0  0  0  0  0  0  0  0  0
   73.1013   -0.6960   27.5009 N   0  0  0  0  0  0  0  0  0  0  0  0
   73.2647   -1.1352   26.1512 C   0  0  2  0  0  0  0  0  0  0  0  0
   72.3570   -2.2765   25.7886 C   0  0  0  0  0  0  0  0  0  0  0  0
   72.2152   -3.3058   26.4706 O   0  0  0  0  0  0  0  0  0  0  0  0
   74.6730   -1.4710   25.8193 C   0  0  0  0  0  0  0  0  0  0  0  0
   74.9894   -1.7918   24.4032 C   0  0  1  0  0  0  0  0  0  0  0  0
   74.2238   -0.7189   23.5635 C   0  0  0  0  0  0  0  0  0  0  0  0
   76.4290   -1.5882   23.9842 C   0  0  0  0  0  0  0  0  0  0  0  0
   71.6237   -2.1253   24.5716 N   0  0  0  0  0  0  0  0  0  0  0  0
   70.9255   -3.1860   23.9260 C   0  0  2  0  0  0  0  0  0  0  0  0
   71.0775   -3.2119   22.4779 C   0  0  0  0  0  0  0  0  0  0  0  0
   72.1715   -3.6660   21.9917 O   0  0  0  0  0  0  0  0  0  0  0  0
   69.4936   -3.2292   24.4148 C   0  0  0  0  0  0  0  0  0  0  0  0
   69.3714   -3.1224   25.7866 O   0  0  0  0  0  0  0  0  0  0  0  0
   70.1091   -2.7709   21.5255 N   0  0  0  0  0  0  0  0  0  0  0  0
   69.7090   -3.6855   20.4857 C   0  0  0  0  0  0  0  0  0  0  0  0
   68.5829   -3.1912   19.6718 C   0  0  0  0  0  0  0  0  0  0  0  0
   67.3947   -3.4715   20.0155 O   0  0  0  0  0  0  0  0  0  0  0  0
   68.7926   -2.4233   18.5262 N   0  0  0  0  0  0  0  0  0  0  0  0
   67.8273   -2.3960   17.4032 C   0  0  2  0  0  0  0  0  0  0  0  0
   67.4606   -3.8025   17.1559 C   0  0  0  0  0  0  0  0  0  0  0  0
   68.2633   -4.8202   17.5645 O   0  0  0  0  0  0  0  0  0  0  0  0
   68.4766   -1.7091   16.2325 C   0  0  0  0  0  0  0  0  0  0  0  0
   68.6508   -0.2420   16.4143 C   0  0  0  0  0  0  0  0  0  0  0  0
   69.5311    0.3659   15.3389 C   0  0  0  0  0  0  0  0  0  0  0  0
   69.8777    1.7998   15.6376 C   0  0  0  0  0  0  0  0  0  0  0  0
   69.0229    2.7446   14.9792 N   0  0  0  0  0  4  0  0  0  0  0  0
   66.3979   -4.0763   16.5611 O   0  0  0  0  0  0  0  0  0  0  0  0
  2  1  1  1
  2  3  1  0
  2  5  1  0
  3  4  2  0
  3  8  1  0
  5  6  1  0
  5  7  1  6
  9  8  1  6
  9 10  1  0
  9 12  1  0
 10 11  2  0
 10 15  1  0
 12 13  1  0
 12 14  1  1
 15 16  1  0
 16 17  1  0
 16 19  1  1
 17 18  2  0
 17 20  1  0
 20 21  1  0
 20 26  1  0
 21 22  1  6
 21 24  1  0
 22 23  2  0
 22 27  1  0
 24 25  1  0
 25 26  1  0
 27 28  1  0
 28 29  1  0
 28 31  1  6
 29 30  2  0
 29 38  1  0
 31 32  1  0
 32 33  2  0
 32 34  1  0
 33 35  1  0
 34 36  2  0
 35 37  2  0
 36 37  1  0
 38 39  1  0
 39 40  1  0
 39 42  1  1
 40 41  2  0
 40 46  1  0
 42 43  1  0
 43 44  1  6
 43 45  1  0
 46 47  1  0
 47 48  1  0
 47 50  1  6
 48 49  2  0
 48 52  1  0
 50 51  1  0
 52 53  1  0
 53 54  1  0
 54 55  2  0
 54 56  1  0
 56 57  1  0
 57 58  1  0
 57 60  1  6
 58 59  1  0
 58 65  2  0
 60 61  1  0
 61 62  1  0
 62 63  1  0
 63 64  1  0
M  CHG  2   1   1  64   1
M  END
$$$$
