
     RDKit          3D

 65 66  0  0  0  0  0  0  0  0999 V2000
   69.6238    9.9655   39.0011 N   0  0  0  0  0  4  0  0  0  0  0  0
   70.3775    9.8393   37.7932 C   0  0  2  0  0  0  0  0  0  0  0  0
   69.6134    9.1342   36.7623 C   0  0  0  0  0  0  0  0  0  0  0  0
   68.7283    8.2665   37.0713 O   0  0  0  0  0  0  0  0  0  0  0  0
   71.6931    9.1475   38.1088 C   0  0  2  0  0  0  0  0  0  0  0  0
   71.4121    7.9137   38.6689 O   0  0  0  0  0  0  0  0  0  0  0  0
   72.4975    9.9467   39.1156 C   0  0  0  0  0  0  0  0  0  0  0  0
   69.8083    9.3690   35.3917 N   0  0  0  0  0  0  0  0  0  0  0  0
   69.2000    8.5601   34.3493 C   0  0  2  0  0  0  0  0  0  0  0  0
   69.7223    7.1963   34.3021 C   0  0  0  0  0  0  0  0  0  0  0  0
   69.9534    6.5816   35.3720 O   0  0  0  0  0  0  0  0  0  0  0  0
   69.2790    9.2221   33.0144 C   0  0  2  0  0  0  0  0  0  0  0  0
   68.6757    8.4074   32.0702 O   0  0  0  0  0  0  0  0  0  0  0  0
   70.7225    9.5319   32.6248 C   0  0  0  0  0  0  0  0  0  0  0  0
   69.9942    6.4736   33.0988 N   0  0  0  0  0  0  0  0  0  0  0  0
   69.2910    5.3291   32.6450 C   0  0  2  0  0  0  0  0  0  0  0  0
   69.7910    4.7661   31.3932 C   0  0  0  0  0  0  0  0  0  0  0  0
   69.2054    3.6877   30.9500 O   0  0  0  0  0  0  0  0  0  0  0  0
   67.8030    5.6717   32.4343 C   0  0  0  0  0  0  0  0  0  0  0  0
   70.8313    5.2226   30.5727 N   0  0  0  0  0  0  0  0  0  0  0  0
   71.5728    4.4843   29.5912 C   0  0  2  0  0  0  0  0  0  0  0  0
   71.3818    3.0309   29.5913 C   0  0  0  0  0  0  0  0  0  0  0  0
   71.4266    2.3050   30.6177 O   0  0  0  0  0  0  0  0  0  0  0  0
   73.0112    4.9071   29.8730 C   0  0  0  0  0  0  0  0  0  0  0  0
   72.8697    6.3735   30.2359 C   0  0  0  0  0  0  0  0  0  0  0  0
   71.3953    6.5671   30.5953 C   0  0  0  0  0  0  0  0  0  0  0  0
   71.1193    2.3767   28.3512 N   0  0  0  0  0  0  0  0  0  0  0  0
   70.8379    0.9980   28.1506 C   0  0  2  0  0  0  0  0  0  0  0  0
   71.1530    0.4748   26.8284 C   0  0  0  0  0  0  0  0  0  0  0  0
   70.9446    1.2043   25.8261 O   0  0  0  0  0  0  0  0  0  0  0  0
   69.3123    0.8492   28.3326 C   0  0  0  0  0  0  0  0  0  0  0  0
   68.8914   -0.5513   28.4562 C   0  0  0  0  0  0  0  0  0  0  0  0
   69.0023   -1.2124   29.6802 C   0  0  0  0  0  0  0  0  0  0  0  0
   68.3757   -1.3109   27.3992 C   0  0  0  0  0  0  0  0  0  0  0  0
   68.6327   -2.5266   29.8542 C   0  0  0  0  0  0  0  0  0  0  0  0
   68.0032   -2.6270   27.5668 C   0  0  0  0  0  0  0  0  0  0  0  0
   68.1344   -3.2277   28.7975 C   0  0  0  0  0  0  0  0  0  0  0  0
   71.6957   -0.8306   26.5679 N   0  0  0  0  0  0  0  0  0  0  0  0
   71.8827   -1.3048   25.2332 C   0  0  2  0  0  0  0  0  0  0  0  0
   70.6448   -1.1925   24.3888 C   0  0  0  0  0  0  0  0  0  0  0  0
   69.6119   -0.5926   24.7322 O   0  0  0  0  0  0  0  0  0  0  0  0
   72.4182   -2.6893   25.1815 C   0  0  0  0  0  0  0  0  0  0  0  0
   73.7781   -2.9230   25.7331 C   0  0  1  0  0  0  0  0  0  0  0  0
   74.1564   -4.3701   25.2802 C   0  0  0  0  0  0  0  0  0  0  0  0
   74.8864   -2.0804   25.1408 C   0  0  0  0  0  0  0  0  0  0  0  0
   70.7035   -1.8299   23.1114 N   0  0  0  0  0  0  0  0  0  0  0  0
   70.1388   -1.2843   21.9229 C   0  0  2  0  0  0  0  0  0  0  0  0
   70.2331   -2.1537   20.7584 C   0  0  0  0  0  0  0  0  0  0  0  0
   71.3962   -2.4204   20.2942 O   0  0  0  0  0  0  0  0  0  0  0  0
   70.6560    0.1220   21.7086 C   0  0  0  0  0  0  0  0  0  0  0  0
   69.8340    0.9019   20.9186 O   0  0  0  0  0  0  0  0  0  0  0  0
   69.1353   -2.7501   20.0665 N   0  0  0  0  0  0  0  0  0  0  0  0
   69.4227   -3.6468   18.9752 C   0  0  0  0  0  0  0  0  0  0  0  0
   68.2162   -4.1143   18.2675 C   0  0  0  0  0  0  0  0  0  0  0  0
   67.1319   -3.4678   18.3896 O   0  0  0  0  0  0  0  0  0  0  0  0
   68.2367   -5.2566   17.4671 N   0  0  0  0  0  0  0  0  0  0  0  0
   68.1726   -5.1894   15.9890 C   0  0  2  0  0  0  0  0  0  0  0  0
   68.1422   -6.5887   15.5253 C   0  0  0  0  0  0  0  0  0  0  0  0
   68.2776   -7.6214   16.3984 O   0  0  0  0  0  0  0  0  0  0  0  0
   69.3533   -4.3979   15.4957 C   0  0  0  0  0  0  0  0  0  0  0  0
   70.6699   -4.9651   15.8965 C   0  0  0  0  0  0  0  0  0  0  0  0
   71.8306   -4.1702   15.3290 C   0  0  0  0  0  0  0  0  0  0  0  0
   73.1296   -4.5026   16.0126 C   0  0  0  0  0  0  0  0  0  0  0  0
   73.6084   -5.8227   15.7215 N   0  0  0  0  0  4  0  0  0  0  0  0
   67.9912   -6.8423   14.3124 O   0  0  0  0  0  0  0  0  0  0  0  0
  2  1  1  1
  2  3  1  0
  2  5  1  0
  3  4  2  0
  3  8  1  0
  5  6  1  0
  5  7  1  1
  9  8  1  1
  9 10  1  0
  9 12  1  0
 10 11  2  0
 10 15  1  0
 12 13  1  0
 12 14  1  6
 15 16  1  0
 16 17  1  0
 16 19  1  6
 17 18  2  0
 17 20  1  0
 20 21  1  0
 20 26  1  0
 21 22  1  1
 21 24  1  0
 22 23  2  0
 22 27  1  0
 24 25  1  0
 25 26  1  0
 27 28  1  0
 28 29  1  0
 28 31  1  6
 29 30  2  0
 29 38  1  0
 31 32  1  0
 32 33  2  0
 32 34  1  0
 33 35  1  0
 34 36  2  0
 35 37  2  0
 36 37  1  0
 38 39  1  0
 39 40  1  0
 39 42  1  1
 40 41  2  0
 40 46  1  0
 42 43  1  0
 43 44  1  6
 43 45  1  0
 46 47  1  0
 47 48  1  0
 47 50  1  6
 48 49  2  0
 48 52  1  0
 50 51  1  0
 52 53  1  0
 53 54  1  0
 54 55  2  0
 54 56  1  0
 56 57  1  0
 57 58  1  0
 57 60  1  6
 58 59  1  0
 58 65  2  0
 60 61  1  0
 61 62  1  0
 62 63  1  0
 63 64  1  0
M  CHG  2   1   1  64   1
M  END
$$$$
