
     RDKit          3D

 65 66  0  0  0  0  0  0  0  0999 V2000
   69.3629   11.0740   37.2176 N   0  0  0  0  0  4  0  0  0  0  0  0
   68.7514   10.0367   36.4476 C   0  0  2  0  0  0  0  0  0  0  0  0
   69.6697    8.9142   36.2458 C   0  0  0  0  0  0  0  0  0  0  0  0
   70.9325    9.0952   36.1808 O   0  0  0  0  0  0  0  0  0  0  0  0
   68.2651   10.6258   35.1341 C   0  0  2  0  0  0  0  0  0  0  0  0
   68.6628    9.7871   34.1077 O   0  0  0  0  0  0  0  0  0  0  0  0
   68.8822   11.9894   34.8904 C   0  0  0  0  0  0  0  0  0  0  0  0
   69.2192    7.5909   36.1135 N   0  0  0  0  0  0  0  0  0  0  0  0
   70.1134    6.4512   36.0017 C   0  0  2  0  0  0  0  0  0  0  0  0
   70.8113    6.3923   34.7192 C   0  0  0  0  0  0  0  0  0  0  0  0
   70.5318    7.2230   33.8205 O   0  0  0  0  0  0  0  0  0  0  0  0
   69.4175    5.1665   36.3047 C   0  0  2  0  0  0  0  0  0  0  0  0
   68.3524    5.0136   35.4321 O   0  0  0  0  0  0  0  0  0  0  0  0
   68.9460    5.1109   37.7558 C   0  0  0  0  0  0  0  0  0  0  0  0
   71.8272    5.4409   34.3922 N   0  0  0  0  0  0  0  0  0  0  0  0
   72.4071    5.2581   33.1113 C   0  0  2  0  0  0  0  0  0  0  0  0
   71.5553    4.5569   32.1538 C   0  0  0  0  0  0  0  0  0  0  0  0
   71.2554    3.3157   32.4217 O   0  0  0  0  0  0  0  0  0  0  0  0
   73.7185    4.4576   33.2340 C   0  0  0  0  0  0  0  0  0  0  0  0
   70.9942    5.0291   30.9596 N   0  0  0  0  0  0  0  0  0  0  0  0
   70.6252    4.2746   29.7964 C   0  0  2  0  0  0  0  0  0  0  0  0
   71.0851    2.8834   29.7524 C   0  0  0  0  0  0  0  0  0  0  0  0
   72.1824    2.4791   30.2160 O   0  0  0  0  0  0  0  0  0  0  0  0
   71.1708    5.1302   28.6574 C   0  0  0  0  0  0  0  0  0  0  0  0
   70.9222    6.5451   29.1457 C   0  0  0  0  0  0  0  0  0  0  0  0
   70.7096    6.4267   30.6561 C   0  0  0  0  0  0  0  0  0  0  0  0
   70.2401    1.9037   29.1515 N   0  0  0  0  0  0  0  0  0  0  0  0
   70.5633    0.5488   28.8682 C   0  0  2  0  0  0  0  0  0  0  0  0
   71.1750    0.3037   27.5694 C   0  0  0  0  0  0  0  0  0  0  0  0
   70.6870    0.8674   26.5572 O   0  0  0  0  0  0  0  0  0  0  0  0
   69.2214   -0.2140   28.8757 C   0  0  0  0  0  0  0  0  0  0  0  0
   68.6573   -0.3527   30.2234 C   0  0  0  0  0  0  0  0  0  0  0  0
   67.4092   -0.9503   30.4041 C   0  0  0  0  0  0  0  0  0  0  0  0
   69.2924    0.0933   31.3886 C   0  0  0  0  0  0  0  0  0  0  0  0
   66.8260   -1.0997   31.6417 C   0  0  0  0  0  0  0  0  0  0  0  0
   68.7143   -0.0537   32.6308 C   0  0  0  0  0  0  0  0  0  0  0  0
   67.4810   -0.6516   32.7492 C   0  0  0  0  0  0  0  0  0  0  0  0
   72.3143   -0.5433   27.3431 N   0  0  0  0  0  0  0  0  0  0  0  0
   72.8412   -0.7451   26.0305 C   0  0  2  0  0  0  0  0  0  0  0  0
   71.7888   -1.1132   25.0230 C   0  0  0  0  0  0  0  0  0  0  0  0
   70.8822   -1.9394   25.2236 O   0  0  0  0  0  0  0  0  0  0  0  0
   73.9523   -1.7304   25.9990 C   0  0  0  0  0  0  0  0  0  0  0  0
   75.2973   -1.2659   26.4273 C   0  0  1  0  0  0  0  0  0  0  0  0
   75.1562   -0.9690   27.9552 C   0  0  0  0  0  0  0  0  0  0  0  0
   76.4002   -2.3007   26.3821 C   0  0  0  0  0  0  0  0  0  0  0  0
   71.8714   -0.4423   23.7642 N   0  0  0  0  0  0  0  0  0  0  0  0
   71.2625   -0.9178   22.5674 C   0  0  2  0  0  0  0  0  0  0  0  0
   71.5733   -2.3034   22.2442 C   0  0  0  0  0  0  0  0  0  0  0  0
   72.8014   -2.6261   22.0796 O   0  0  0  0  0  0  0  0  0  0  0  0
   71.5054    0.0660   21.4430 C   0  0  0  0  0  0  0  0  0  0  0  0
   70.8830   -0.2787   20.2590 O   0  0  0  0  0  0  0  0  0  0  0  0
   70.6258   -3.3603   22.0876 N   0  0  0  0  0  0  0  0  0  0  0  0
   69.4138   -3.0873   21.3566 C   0  0  0  0  0  0  0  0  0  0  0  0
   69.2219   -3.9686   20.1898 C   0  0  0  0  0  0  0  0  0  0  0  0
   69.7161   -5.1366   20.2025 O   0  0  0  0  0  0  0  0  0  0  0  0
   68.5110   -3.5467   19.0662 N   0  0  0  0  0  0  0  0  0  0  0  0
   67.7184   -4.4806   18.2336 C   0  0  2  0  0  0  0  0  0  0  0  0
   68.6873   -5.1415   17.3400 C   0  0  0  0  0  0  0  0  0  0  0  0
   69.9717   -4.7062   17.2512 O   0  0  0  0  0  0  0  0  0  0  0  0
   66.6515   -3.6956   17.5198 C   0  0  0  0  0  0  0  0  0  0  0  0
   67.1256   -2.3975   16.9668 C   0  0  0  0  0  0  0  0  0  0  0  0
   66.0192   -1.6418   16.2556 C   0  0  0  0  0  0  0  0  0  0  0  0
   66.5003   -1.0073   14.9783 C   0  0  0  0  0  0  0  0  0  0  0  0
   66.5520   -1.9172   13.8711 N   0  0  0  0  0  4  0  0  0  0  0  0
   68.3338   -6.1178   16.6471 O   0  0  0  0  0  0  0  0  0  0  0  0
  2  1  1  6
  2  3  1  0
  2  5  1  0
  3  4  2  0
  3  8  1  0
  5  6  1  0
  5  7  1  6
  9  8  1  6
  9 10  1  0
  9 12  1  0
 10 11  2  0
 10 15  1  0
 12 13  1  0
 12 14  1  1
 15 16  1  0
 16 17  1  0
 16 19  1  1
 17 18  2  0
 17 20  1  0
 20 21  1  0
 20 26  1  0
 21 22  1  1
 21 24  1  0
 22 23  2  0
 22 27  1  0
 24 25  1  0
 25 26  1  0
 27 28  1  0
 28 29  1  0
 28 31  1  6
 29 30  2  0
 29 38  1  0
 31 32  1  0
 32 33  2  0
 32 34  1  0
 33 35  1  0
 34 36  2  0
 35 37  2  0
 36 37  1  0
 38 39  1  0
 39 40  1  0
 39 42  1  1
 40 41  2  0
 40 46  1  0
 42 43  1  0
 43 44  1  1
 43 45  1  0
 46 47  1  0
 47 48  1  0
 47 50  1  6
 48 49  2  0
 48 52  1  0
 50 51  1  0
 52 53  1  0
 53 54  1  0
 54 55  2  0
 54 56  1  0
 56 57  1  0
 57 58  1  0
 57 60  1  6
 58 59  1  0
 58 65  2  0
 60 61  1  0
 61 62  1  0
 62 63  1  0
 63 64  1  0
M  CHG  2   1   1  64   1
M  END
$$$$
