
     RDKit          3D

 65 66  0  0  0  0  0  0  0  0999 V2000
   69.8126    7.6220   38.3713 N   0  0  0  0  0  4  0  0  0  0  0  0
   70.3452    8.1957   37.1755 C   0  0  2  0  0  0  0  0  0  0  0  0
   69.3679    8.1541   36.0860 C   0  0  0  0  0  0  0  0  0  0  0  0
   68.1312    8.3949   36.2964 O   0  0  0  0  0  0  0  0  0  0  0  0
   71.6344    7.4741   36.8201 C   0  0  2  0  0  0  0  0  0  0  0  0
   72.2746    8.1922   35.8254 O   0  0  0  0  0  0  0  0  0  0  0  0
   71.3475    6.0849   36.2840 C   0  0  0  0  0  0  0  0  0  0  0  0
   69.7306    7.8503   34.7640 N   0  0  0  0  0  0  0  0  0  0  0  0
   68.8893    8.1481   33.6175 C   0  0  2  0  0  0  0  0  0  0  0  0
   69.5019    7.7778   32.3437 C   0  0  0  0  0  0  0  0  0  0  0  0
   70.7495    7.6634   32.2637 O   0  0  0  0  0  0  0  0  0  0  0  0
   68.4376    9.5703   33.6137 C   0  0  2  0  0  0  0  0  0  0  0  0
   68.6153   10.0968   32.3446 O   0  0  0  0  0  0  0  0  0  0  0  0
   69.1820   10.3997   34.6573 C   0  0  0  0  0  0  0  0  0  0  0  0
   68.7754    7.5170   31.1403 N   0  0  0  0  0  0  0  0  0  0  0  0
   69.3472    7.2629   29.8679 C   0  0  2  0  0  0  0  0  0  0  0  0
   69.7024    5.8660   29.6300 C   0  0  0  0  0  0  0  0  0  0  0  0
   70.3361    5.5936   28.5226 O   0  0  0  0  0  0  0  0  0  0  0  0
   70.6277    8.1013   29.6867 C   0  0  0  0  0  0  0  0  0  0  0  0
   69.4611    4.7439   30.4341 N   0  0  0  0  0  0  0  0  0  0  0  0
   70.1706    3.4970   30.4488 C   0  0  2  0  0  0  0  0  0  0  0  0
   71.1167    3.2756   29.3512 C   0  0  0  0  0  0  0  0  0  0  0  0
   71.2845    4.0618   28.3836 O   0  0  0  0  0  0  0  0  0  0  0  0
   69.0417    2.4719   30.4928 C   0  0  0  0  0  0  0  0  0  0  0  0
   68.0142    3.1359   31.3902 C   0  0  0  0  0  0  0  0  0  0  0  0
   68.3832    4.6205   31.4084 C   0  0  0  0  0  0  0  0  0  0  0  0
   71.9167    2.0946   29.3672 N   0  0  0  0  0  0  0  0  0  0  0  0
   72.8792    1.6966   28.4001 C   0  0  2  0  0  0  0  0  0  0  0  0
   72.3618    0.9404   27.2681 C   0  0  0  0  0  0  0  0  0  0  0  0
   72.5716    1.3739   26.1070 O   0  0  0  0  0  0  0  0  0  0  0  0
   73.8609    0.7650   29.1423 C   0  0  0  0  0  0  0  0  0  0  0  0
   74.9570    0.2996   28.2845 C   0  0  0  0  0  0  0  0  0  0  0  0
   75.2676   -1.0592   28.2172 C   0  0  0  0  0  0  0  0  0  0  0  0
   75.7546    1.1451   27.5041 C   0  0  0  0  0  0  0  0  0  0  0  0
   76.2892   -1.5531   27.4384 C   0  0  0  0  0  0  0  0  0  0  0  0
   76.7785    0.6571   26.7216 C   0  0  0  0  0  0  0  0  0  0  0  0
   77.0394   -0.6934   26.6938 C   0  0  0  0  0  0  0  0  0  0  0  0
   71.6187   -0.2862   27.3685 N   0  0  0  0  0  0  0  0  0  0  0  0
   71.8496   -1.3708   26.4675 C   0  0  2  0  0  0  0  0  0  0  0  0
   71.7178   -0.9759   25.0237 C   0  0  0  0  0  0  0  0  0  0  0  0
   71.3468    0.1439   24.6324 O   0  0  0  0  0  0  0  0  0  0  0  0
   71.0002   -2.5541   26.7580 C   0  0  0  0  0  0  0  0  0  0  0  0
   69.5269   -2.3597   26.7647 C   0  0  1  0  0  0  0  0  0  0  0  0
   68.9337   -3.7667   27.0978 C   0  0  0  0  0  0  0  0  0  0  0  0
   68.9794   -1.4882   27.8737 C   0  0  0  0  0  0  0  0  0  0  0  0
   72.0548   -1.9849   24.0698 N   0  0  0  0  0  0  0  0  0  0  0  0
   72.0387   -1.7843   22.6596 C   0  0  2  0  0  0  0  0  0  0  0  0
   70.7088   -1.7938   22.0662 C   0  0  0  0  0  0  0  0  0  0  0  0
   69.8012   -2.5033   22.6250 O   0  0  0  0  0  0  0  0  0  0  0  0
   73.0353   -2.7122   21.9986 C   0  0  0  0  0  0  0  0  0  0  0  0
   72.5720   -4.0038   21.8410 O   0  0  0  0  0  0  0  0  0  0  0  0
   70.3072   -1.0775   20.8978 N   0  0  0  0  0  0  0  0  0  0  0  0
   69.1084   -1.4991   20.2174 C   0  0  0  0  0  0  0  0  0  0  0  0
   69.3563   -2.4883   19.1520 C   0  0  0  0  0  0  0  0  0  0  0  0
   70.4135   -3.1881   19.1845 O   0  0  0  0  0  0  0  0  0  0  0  0
   68.4553   -2.6714   18.1029 N   0  0  0  0  0  0  0  0  0  0  0  0
   68.7302   -3.5900   16.9740 C   0  0  2  0  0  0  0  0  0  0  0  0
   67.7317   -3.2634   15.9395 C   0  0  0  0  0  0  0  0  0  0  0  0
   67.8453   -3.7486   14.6751 O   0  0  0  0  0  0  0  0  0  0  0  0
   68.6577   -5.0046   17.4815 C   0  0  0  0  0  0  0  0  0  0  0  0
   68.8661   -6.0351   16.4277 C   0  0  0  0  0  0  0  0  0  0  0  0
   68.6233   -7.4396   16.9468 C   0  0  0  0  0  0  0  0  0  0  0  0
   68.9880   -8.4877   15.9299 C   0  0  0  0  0  0  0  0  0  0  0  0
   70.2911   -9.0516   16.1310 N   0  0  0  0  0  4  0  0  0  0  0  0
   66.7614   -2.5286   16.2169 O   0  0  0  0  0  0  0  0  0  0  0  0
  2  1  1  1
  2  3  1  0
  2  5  1  0
  3  4  2  0
  3  8  1  0
  5  6  1  0
  5  7  1  6
  9  8  1  1
  9 10  1  0
  9 12  1  0
 10 11  2  0
 10 15  1  0
 12 13  1  0
 12 14  1  1
 15 16  1  0
 16 17  1  0
 16 19  1  1
 17 18  2  0
 17 20  1  0
 20 21  1  0
 20 26  1  0
 21 22  1  6
 21 24  1  0
 22 23  2  0
 22 27  1  0
 24 25  1  0
 25 26  1  0
 27 28  1  0
 28 29  1  0
 28 31  1  1
 29 30  2  0
 29 38  1  0
 31 32  1  0
 32 33  2  0
 32 34  1  0
 33 35  1  0
 34 36  2  0
 35 37  2  0
 36 37  1  0
 38 39  1  0
 39 40  1  0
 39 42  1  1
 40 41  2  0
 40 46  1  0
 42 43  1  0
 43 44  1  1
 43 45  1  0
 46 47  1  0
 47 48  1  0
 47 50  1  6
 48 49  2  0
 48 52  1  0
 50 51  1  0
 52 53  1  0
 53 54  1  0
 54 55  2  0
 54 56  1  0
 56 57  1  0
 57 58  1  0
 57 60  1  1
 58 59  1  0
 58 65  2  0
 60 61  1  0
 61 62  1  0
 62 63  1  0
 63 64  1  0
M  CHG  2   1   1  64   1
M  END
$$$$
