
     RDKit          3D

 65 66  0  0  0  0  0  0  0  0999 V2000
   65.6153    8.1927   20.6090 N   0  0  0  0  0  4  0  0  0  0  0  0
   65.2460    6.8869   21.0577 C   0  0  2  0  0  0  0  0  0  0  0  0
   66.1931    6.3801   22.0527 C   0  0  0  0  0  0  0  0  0  0  0  0
   67.4413    6.6390   21.9708 O   0  0  0  0  0  0  0  0  0  0  0  0
   65.1329    5.9700   19.8513 C   0  0  2  0  0  0  0  0  0  0  0  0
   66.2831    6.1044   19.0937 O   0  0  0  0  0  0  0  0  0  0  0  0
   63.9522    6.3599   18.9833 C   0  0  0  0  0  0  0  0  0  0  0  0
   65.7876    5.5898   23.1401 N   0  0  0  0  0  0  0  0  0  0  0  0
   66.7129    5.0431   24.1178 C   0  0  2  0  0  0  0  0  0  0  0  0
   67.6482    4.0769   23.5462 C   0  0  0  0  0  0  0  0  0  0  0  0
   67.4284    3.5981   22.4067 O   0  0  0  0  0  0  0  0  0  0  0  0
   66.0015    4.4800   25.3025 C   0  0  2  0  0  0  0  0  0  0  0  0
   65.0688    5.4019   25.7490 O   0  0  0  0  0  0  0  0  0  0  0  0
   66.9750    4.1054   26.4175 C   0  0  0  0  0  0  0  0  0  0  0  0
   68.8387    3.6207   24.1931 N   0  0  0  0  0  0  0  0  0  0  0  0
   69.7383    2.6516   23.6813 C   0  0  2  0  0  0  0  0  0  0  0  0
   69.8856    1.4604   24.5140 C   0  0  0  0  0  0  0  0  0  0  0  0
   70.1536    1.6470   25.7772 O   0  0  0  0  0  0  0  0  0  0  0  0
   71.1397    3.2697   23.5092 C   0  0  0  0  0  0  0  0  0  0  0  0
   69.7773    0.1109   24.1522 N   0  0  0  0  0  0  0  0  0  0  0  0
   70.5068   -1.0072   24.6778 C   0  0  2  0  0  0  0  0  0  0  0  0
   71.6543   -0.6895   25.5330 C   0  0  0  0  0  0  0  0  0  0  0  0
   72.3836    0.3269   25.4007 O   0  0  0  0  0  0  0  0  0  0  0  0
   70.8846   -1.7802   23.4181 C   0  0  0  0  0  0  0  0  0  0  0  0
   69.6616   -1.6120   22.5362 C   0  0  0  0  0  0  0  0  0  0  0  0
   68.9013   -0.4159   23.1124 C   0  0  0  0  0  0  0  0  0  0  0  0
   71.9783   -1.5799   26.5993 N   0  0  0  0  0  0  0  0  0  0  0  0
   72.7562   -1.2903   27.7531 C   0  0  2  0  0  0  0  0  0  0  0  0
   72.1497   -1.6444   29.0289 C   0  0  0  0  0  0  0  0  0  0  0  0
   71.0988   -1.0518   29.3820 O   0  0  0  0  0  0  0  0  0  0  0  0
   72.9413    0.2421   27.7619 C   0  0  0  0  0  0  0  0  0  0  0  0
   73.8854    0.6917   28.7916 C   0  0  0  0  0  0  0  0  0  0  0  0
   75.2430    0.3885   28.6800 C   0  0  0  0  0  0  0  0  0  0  0  0
   73.5168    1.4217   29.9280 C   0  0  0  0  0  0  0  0  0  0  0  0
   76.1732    0.7751   29.6178 C   0  0  0  0  0  0  0  0  0  0  0  0
   74.4431    1.8124   30.8704 C   0  0  0  0  0  0  0  0  0  0  0  0
   75.7695    1.4855   30.7081 C   0  0  0  0  0  0  0  0  0  0  0  0
   72.6601   -2.6364   29.9356 N   0  0  0  0  0  0  0  0  0  0  0  0
   71.9101   -3.0561   31.0770 C   0  0  2  0  0  0  0  0  0  0  0  0
   72.4502   -2.5127   32.3696 C   0  0  0  0  0  0  0  0  0  0  0  0
   71.8097   -2.4636   33.4336 O   0  0  0  0  0  0  0  0  0  0  0  0
   71.7614   -4.5317   31.1600 C   0  0  0  0  0  0  0  0  0  0  0  0
   70.7973   -5.1802   30.2335 C   0  0  1  0  0  0  0  0  0  0  0  0
   71.5246   -5.2150   28.8507 C   0  0  0  0  0  0  0  0  0  0  0  0
   70.5031   -6.6402   30.5002 C   0  0  0  0  0  0  0  0  0  0  0  0
   73.7957   -2.0337   32.3288 N   0  0  0  0  0  0  0  0  0  0  0  0
   74.6249   -1.8907   33.4783 C   0  0  2  0  0  0  0  0  0  0  0  0
   74.7861   -0.5177   33.9363 C   0  0  0  0  0  0  0  0  0  0  0  0
   75.8761   -0.2008   34.5285 O   0  0  0  0  0  0  0  0  0  0  0  0
   75.9197   -2.6476   33.2735 C   0  0  0  0  0  0  0  0  0  0  0  0
   76.7500   -2.0816   32.3257 O   0  0  0  0  0  0  0  0  0  0  0  0
   73.8295    0.5325   33.7897 N   0  0  0  0  0  0  0  0  0  0  0  0
   74.3150    1.8805   33.6320 C   0  0  0  0  0  0  0  0  0  0  0  0
   73.3794    2.7592   32.9057 C   0  0  0  0  0  0  0  0  0  0  0  0
   72.8814    2.3675   31.8070 O   0  0  0  0  0  0  0  0  0  0  0  0
   73.0300    4.0173   33.3968 N   0  0  0  0  0  0  0  0  0  0  0  0
   71.8248    4.7422   32.9324 C   0  0  2  0  0  0  0  0  0  0  0  0
   72.0917    5.1051   31.5285 C   0  0  0  0  0  0  0  0  0  0  0  0
   71.2103    5.8561   30.8171 O   0  0  0  0  0  0  0  0  0  0  0  0
   71.5938    5.9169   33.8438 C   0  0  0  0  0  0  0  0  0  0  0  0
   72.6564    6.1029   34.8695 C   0  0  0  0  0  0  0  0  0  0  0  0
   72.0858    6.1965   36.2719 C   0  0  0  0  0  0  0  0  0  0  0  0
   71.0232    7.2572   36.3789 C   0  0  0  0  0  0  0  0  0  0  0  0
   70.9201    7.8344   37.6876 N   0  0  0  0  0  4  0  0  0  0  0  0
   73.1412    4.7211   30.9721 O   0  0  0  0  0  0  0  0  0  0  0  0
  2  1  1  6
  2  3  1  0
  2  5  1  0
  3  4  2  0
  3  8  1  0
  5  6  1  0
  5  7  1  6
  9  8  1  6
  9 10  1  0
  9 12  1  0
 10 11  2  0
 10 15  1  0
 12 13  1  0
 12 14  1  1
 15 16  1  0
 16 17  1  0
 16 19  1  1
 17 18  2  0
 17 20  1  0
 20 21  1  0
 20 26  1  0
 21 22  1  6
 21 24  1  0
 22 23  2  0
 22 27  1  0
 24 25  1  0
 25 26  1  0
 27 28  1  0
 28 29  1  0
 28 31  1  1
 29 30  2  0
 29 38  1  0
 31 32  1  0
 32 33  2  0
 32 34  1  0
 33 35  1  0
 34 36  2  0
 35 37  2  0
 36 37  1  0
 38 39  1  0
 39 40  1  0
 39 42  1  1
 40 41  2  0
 40 46  1  0
 42 43  1  0
 43 44  1  6
 43 45  1  0
 46 47  1  0
 47 48  1  0
 47 50  1  6
 48 49  2  0
 48 52  1  0
 50 51  1  0
 52 53  1  0
 53 54  1  0
 54 55  2  0
 54 56  1  0
 56 57  1  0
 57 58  1  0
 57 60  1  1
 58 59  1  0
 58 65  2  0
 60 61  1  0
 61 62  1  0
 62 63  1  0
 63 64  1  0
M  CHG  2   1   1  64   1
M  END
$$$$
