
     RDKit          3D

 26 29  0  0  0  0  0  0  0  0999 V2000
    9.1250   23.4758   20.6789 C   0  0  0  0  0  0  0  0  0  0  0  0
    9.8805   23.2839   21.8920 C   0  0  0  0  0  0  0  0  0  0  0  0
    7.6513   22.5699   22.1664 C   0  0  1  0  0  0  0  0  0  0  0  0
    8.9785   22.7475   22.7927 C   0  0  0  0  0  0  0  0  0  0  0  0
   11.1868   23.5475   22.2185 C   0  0  0  0  0  0  0  0  0  0  0  0
    6.6985   23.1023   19.8705 C   0  0  1  0  0  0  0  0  0  0  0  0
    5.4523   23.7543   20.2854 C   0  0  0  0  0  0  0  0  0  0  0  0
    7.7613   23.0619   20.8188 N   0  0  0  0  0  0  0  0  0  0  0  0
    6.3424   21.6706   19.4388 C   0  0  0  0  0  0  0  0  0  0  0  0
    4.3068   22.7709   20.3551 C   0  0  0  0  0  0  0  0  0  0  0  0
    5.2393   21.8702   18.3878 C   0  0  0  0  0  0  0  0  0  0  0  0
    3.5378   23.6848   17.2873 C   0  0  0  0  0  0  0  0  0  0  0  0
   12.1818   24.0822   21.3090 C   0  0  0  0  0  0  0  0  0  0  0  0
    2.5165   23.8905   16.1960 C   0  0  0  0  0  0  0  0  0  0  0  0
    1.2735   24.4903   18.2008 C   0  0  0  0  0  0  0  0  0  0  0  0
    1.1096   23.9484   16.8024 C   0  0  0  0  0  0  0  0  0  0  0  0
    9.5342   23.9362   19.6099 O   0  0  0  0  0  0  0  0  0  0  0  0
    2.9844   22.7468   18.3386 C   0  0  2  0  0  0  0  0  0  0  0  0
    9.3866   22.4631   24.0639 C   0  0  0  0  0  0  0  0  0  0  0  0
    7.2849   21.1147   22.2415 C   0  0  0  0  0  0  0  0  0  0  0  0
   11.5878   23.2460   23.5393 C   0  0  0  0  0  0  0  0  0  0  0  0
    1.9331   23.4463   19.1146 C   0  0  0  0  0  0  0  0  0  0  0  0
    4.0330   22.1259   19.0937 N   0  0  2  0  0  4  0  0  0  0  0  0
   10.6914   22.7192   24.4160 C   0  0  0  0  0  0  0  0  0  0  0  0
   13.4262   24.0540   21.6765 O   0  0  0  0  0  0  0  0  0  0  0  0
   11.9361   24.6334   20.0502 N   0  0  0  0  0  0  0  0  0  0  0  0
  1  2  1  0
  8  1  1  0
  1 17  2  0
  4  2  2  0
  2  5  1  0
  3  4  1  0
  8  3  1  0
  3 20  1  6
  4 19  1  0
  5 13  1  0
  5 21  2  0
  7  6  1  0
  6  8  1  1
  9  6  1  0
 10  7  1  0
 11  9  1  0
 23 10  1  1
 23 11  1  0
 12 14  1  0
 18 12  1  6
 13 25  2  0
 13 26  1  0
 14 16  1  0
 15 16  1  0
 22 15  1  0
 18 22  1  0
 18 23  1  0
 19 24  2  0
 21 24  1  0
M  CHG  1  23   1
M  END
$$$$
