
     RDKit          3D

 26 29  0  0  0  0  0  0  0  0999 V2000
    9.2874   23.5528   20.5448 C   0  0  0  0  0  0  0  0  0  0  0  0
   10.0527   23.2732   21.7345 C   0  0  0  0  0  0  0  0  0  0  0  0
    7.8269   22.5356   21.9723 C   0  0  1  0  0  0  0  0  0  0  0  0
    9.1587   22.6693   22.5999 C   0  0  0  0  0  0  0  0  0  0  0  0
   11.3611   23.5149   22.0696 C   0  0  0  0  0  0  0  0  0  0  0  0
    6.8553   23.2347   19.7297 C   0  0  1  0  0  0  0  0  0  0  0  0
    5.6024   23.8271   20.2088 C   0  0  0  0  0  0  0  0  0  0  0  0
    7.9256   23.1265   20.6641 N   0  0  0  0  0  0  0  0  0  0  0  0
    6.5179   21.8419   19.1736 C   0  0  0  0  0  0  0  0  0  0  0  0
    4.4725   22.8233   20.1970 C   0  0  0  0  0  0  0  0  0  0  0  0
    5.4042   22.1172   18.1513 C   0  0  0  0  0  0  0  0  0  0  0  0
    2.2388   21.9769   17.4714 C   0  0  0  0  0  0  0  0  0  0  0  0
   12.3480   24.1178   21.1947 C   0  0  0  0  0  0  0  0  0  0  0  0
    0.8867   22.6010   17.2294 C   0  0  0  0  0  0  0  0  0  0  0  0
    2.4022   24.2242   16.2331 C   0  0  0  0  0  0  0  0  0  0  0  0
    1.0513   24.0871   16.8905 C   0  0  0  0  0  0  0  0  0  0  0  0
    9.6874   24.0922   19.5098 O   0  0  0  0  0  0  0  0  0  0  0  0
    3.1358   22.9588   18.1943 C   0  0  2  0  0  0  0  0  0  0  0  0
    9.5773   22.2923   23.8432 C   0  0  0  0  0  0  0  0  0  0  0  0
    7.4637   21.0780   21.9420 C   0  0  0  0  0  0  0  0  0  0  0  0
   11.7729   23.1170   23.3612 C   0  0  0  0  0  0  0  0  0  0  0  0
    3.5284   24.0418   17.2618 C   0  0  0  0  0  0  0  0  0  0  0  0
    4.1994   22.2895   18.8845 N   0  0  2  0  0  4  0  0  0  0  0  0
   10.8843   22.5246   24.2033 C   0  0  0  0  0  0  0  0  0  0  0  0
   13.5530   24.2787   21.6489 O   0  0  0  0  0  0  0  0  0  0  0  0
   12.1336   24.5499   19.8847 N   0  0  0  0  0  0  0  0  0  0  0  0
  1  2  1  0
  8  1  1  0
  1 17  2  0
  4  2  2  0
  2  5  1  0
  3  4  1  0
  8  3  1  0
  3 20  1  6
  4 19  1  0
  5 13  1  0
  5 21  2  0
  7  6  1  0
  6  8  1  1
  9  6  1  0
 10  7  1  0
 11  9  1  0
 23 10  1  1
 23 11  1  0
 12 14  1  0
 18 12  1  6
 13 25  2  0
 13 26  1  0
 14 16  1  0
 15 16  1  0
 22 15  1  0
 18 22  1  0
 18 23  1  0
 19 24  2  0
 21 24  1  0
M  CHG  1  23   1
M  END
$$$$
