
     RDKit          3D

 26 29  0  0  0  0  0  0  0  0999 V2000
    9.4094   23.6520   20.4449 C   0  0  0  0  0  0  0  0  0  0  0  0
   10.1488   23.3837   21.6534 C   0  0  0  0  0  0  0  0  0  0  0  0
    7.9254   22.6245   21.8402 C   0  0  1  0  0  0  0  0  0  0  0  0
    9.2404   22.7734   22.4991 C   0  0  0  0  0  0  0  0  0  0  0  0
   11.4462   23.6394   22.0189 C   0  0  0  0  0  0  0  0  0  0  0  0
    7.0008   23.3072   19.5728 C   0  0  1  0  0  0  0  0  0  0  0  0
    5.6569   23.6127   20.0736 C   0  0  0  0  0  0  0  0  0  0  0  0
    8.0494   23.2124   20.5329 N   0  0  0  0  0  0  0  0  0  0  0  0
    6.9058   21.9899   18.7863 C   0  0  0  0  0  0  0  0  0  0  0  0
    4.7032   22.4630   19.8440 C   0  0  0  0  0  0  0  0  0  0  0  0
    5.7899   22.2551   17.7638 C   0  0  0  0  0  0  0  0  0  0  0  0
    3.6238   24.2019   17.5987 C   0  0  0  0  0  0  0  0  0  0  0  0
   12.4478   24.2496   21.1659 C   0  0  0  0  0  0  0  0  0  0  0  0
    2.7126   24.6875   16.4987 C   0  0  0  0  0  0  0  0  0  0  0  0
    1.1566   23.6316   18.0440 C   0  0  0  0  0  0  0  0  0  0  0  0
    1.3594   23.9725   16.5884 C   0  0  0  0  0  0  0  0  0  0  0  0
    9.8287   24.1924   19.4180 O   0  0  0  0  0  0  0  0  0  0  0  0
    3.4156   22.7191   17.8210 C   0  0  2  0  0  0  0  0  0  0  0  0
    9.6328   22.4043   23.7533 C   0  0  0  0  0  0  0  0  0  0  0  0
    7.5775   21.1633   21.8060 C   0  0  0  0  0  0  0  0  0  0  0  0
   11.8310   23.2496   23.3213 C   0  0  0  0  0  0  0  0  0  0  0  0
    2.1034   22.5012   18.4747 C   0  0  0  0  0  0  0  0  0  0  0  0
    4.5540   22.1170   18.4511 N   0  0  2  0  0  4  0  0  0  0  0  0
   10.9284   22.6508   24.1438 C   0  0  0  0  0  0  0  0  0  0  0  0
   13.6567   24.3629   21.6243 O   0  0  0  0  0  0  0  0  0  0  0  0
   12.2439   24.7359   19.8734 N   0  0  0  0  0  0  0  0  0  0  0  0
  1  2  1  0
  8  1  1  0
  1 17  2  0
  4  2  2  0
  2  5  1  0
  3  4  1  0
  8  3  1  0
  3 20  1  6
  4 19  1  0
  5 13  1  0
  5 21  2  0
  7  6  1  0
  6  8  1  1
  9  6  1  0
 10  7  1  0
 11  9  1  0
 23 10  1  1
 23 11  1  0
 12 14  1  0
 18 12  1  1
 13 25  2  0
 13 26  1  0
 14 16  1  0
 15 16  1  0
 22 15  1  0
 18 22  1  0
 18 23  1  0
 19 24  2  0
 21 24  1  0
M  CHG  1  23   1
M  END
$$$$
