
     RDKit          3D

 26 29  0  0  0  0  0  0  0  0999 V2000
    9.5425   23.3676   20.3539 C   0  0  0  0  0  0  0  0  0  0  0  0
   10.3007   23.0149   21.5287 C   0  0  0  0  0  0  0  0  0  0  0  0
    8.0533   22.3380   21.7421 C   0  0  1  0  0  0  0  0  0  0  0  0
    9.3896   22.4038   22.3708 C   0  0  0  0  0  0  0  0  0  0  0  0
   11.6165   23.2014   21.8697 C   0  0  0  0  0  0  0  0  0  0  0  0
    7.1003   23.1599   19.5334 C   0  0  1  0  0  0  0  0  0  0  0  0
    5.8199   23.6335   20.0685 C   0  0  0  0  0  0  0  0  0  0  0  0
    8.1682   22.9794   20.4594 N   0  0  0  0  0  0  0  0  0  0  0  0
    6.8272   21.8357   18.8021 C   0  0  0  0  0  0  0  0  0  0  0  0
    4.7347   22.5926   19.9167 C   0  0  0  0  0  0  0  0  0  0  0  0
    5.7093   22.1910   17.8095 C   0  0  0  0  0  0  0  0  0  0  0  0
    2.4505   21.9772   17.2377 C   0  0  0  0  0  0  0  0  0  0  0  0
   12.6204   23.8092   21.0177 C   0  0  0  0  0  0  0  0  0  0  0  0
    1.0998   22.6322   17.0875 C   0  0  0  0  0  0  0  0  0  0  0  0
    2.5891   24.2507   16.0452 C   0  0  0  0  0  0  0  0  0  0  0  0
    1.2748   24.1229   16.7748 C   0  0  0  0  0  0  0  0  0  0  0  0
    9.9576   23.9369   19.3411 O   0  0  0  0  0  0  0  0  0  0  0  0
    3.4063   22.9240   17.9314 C   0  0  2  0  0  0  0  0  0  0  0  0
    9.7982   21.9624   23.5962 C   0  0  0  0  0  0  0  0  0  0  0  0
    7.6445   20.8950   21.6524 C   0  0  0  0  0  0  0  0  0  0  0  0
   12.0178   22.7375   23.1425 C   0  0  0  0  0  0  0  0  0  0  0  0
    3.7675   24.0221   17.0038 C   0  0  0  0  0  0  0  0  0  0  0  0
    4.4934   22.2182   18.5442 N   0  0  2  0  0  4  0  0  0  0  0  0
   11.1125   22.1386   23.9618 C   0  0  0  0  0  0  0  0  0  0  0  0
   13.8203   23.9532   21.4909 O   0  0  0  0  0  0  0  0  0  0  0  0
   12.4278   24.2627   19.7116 N   0  0  0  0  0  0  0  0  0  0  0  0
  1  2  1  0
  8  1  1  0
  1 17  2  0
  4  2  2  0
  2  5  1  0
  3  4  1  0
  8  3  1  0
  3 20  1  6
  4 19  1  0
  5 13  1  0
  5 21  2  0
  7  6  1  0
  6  8  1  1
  9  6  1  0
 10  7  1  0
 11  9  1  0
 23 10  1  1
 23 11  1  0
 12 14  1  0
 18 12  1  6
 13 25  2  0
 13 26  1  0
 14 16  1  0
 15 16  1  0
 22 15  1  0
 18 22  1  0
 18 23  1  0
 19 24  2  0
 21 24  1  0
M  CHG  1  23   1
M  END
$$$$
