
     RDKit          3D

 26 29  0  0  0  0  0  0  0  0999 V2000
    9.0982   23.5728   20.7553 C   0  0  0  0  0  0  0  0  0  0  0  0
    9.9137   23.1764   21.8764 C   0  0  0  0  0  0  0  0  0  0  0  0
    7.6625   22.5662   22.2149 C   0  0  1  0  0  0  0  0  0  0  0  0
    9.0356   22.5794   22.7626 C   0  0  0  0  0  0  0  0  0  0  0  0
   11.2529   23.3158   22.1401 C   0  0  0  0  0  0  0  0  0  0  0  0
    6.6058   23.4556   20.0808 C   0  0  1  0  0  0  0  0  0  0  0  0
    5.2824   23.0726   20.5831 C   0  0  0  0  0  0  0  0  0  0  0  0
    7.7209   23.2259   20.9376 N   0  0  0  0  0  0  0  0  0  0  0  0
    6.8206   22.7152   18.7509 C   0  0  0  0  0  0  0  0  0  0  0  0
    4.6812   21.9512   19.7676 C   0  0  0  0  0  0  0  0  0  0  0  0
    5.5867   23.0960   17.9180 C   0  0  0  0  0  0  0  0  0  0  0  0
    2.9515   22.7210   16.5526 C   0  0  0  0  0  0  0  0  0  0  0  0
   12.2230   23.9067   21.2384 C   0  0  0  0  0  0  0  0  0  0  0  0
    1.4690   22.6800   16.2759 C   0  0  0  0  0  0  0  0  0  0  0  0
    1.6865   24.6470   17.6930 C   0  0  0  0  0  0  0  0  0  0  0  0
    0.7248   23.5567   17.2899 C   0  0  0  0  0  0  0  0  0  0  0  0
    9.4699   24.1464   19.7281 O   0  0  0  0  0  0  0  0  0  0  0  0
    3.1947   22.7533   18.0463 C   0  0  2  0  0  0  0  0  0  0  0  0
    9.5025   22.1043   23.9540 C   0  0  0  0  0  0  0  0  0  0  0  0
    7.2029   21.1384   22.1278 C   0  0  0  0  0  0  0  0  0  0  0  0
   11.7147   22.8176   23.3790 C   0  0  0  0  0  0  0  0  0  0  0  0
    2.8089   24.0823   18.5768 C   0  0  0  0  0  0  0  0  0  0  0  0
    4.5105   22.2886   18.3750 N   0  0  2  0  0  4  0  0  0  0  0  0
   10.8413   22.2330   24.2422 C   0  0  0  0  0  0  0  0  0  0  0  0
   13.4530   24.0050   21.6404 O   0  0  0  0  0  0  0  0  0  0  0  0
   11.9670   24.3886   19.9536 N   0  0  0  0  0  0  0  0  0  0  0  0
  1  2  1  0
  8  1  1  0
  1 17  2  0
  4  2  2  0
  2  5  1  0
  3  4  1  0
  8  3  1  0
  3 20  1  6
  4 19  1  0
  5 13  1  0
  5 21  2  0
  7  6  1  0
  6  8  1  1
  9  6  1  0
 10  7  1  0
 11  9  1  0
 23 10  1  1
 23 11  1  0
 12 14  1  0
 18 12  1  6
 13 25  2  0
 13 26  1  0
 14 16  1  0
 15 16  1  0
 22 15  1  0
 18 22  1  0
 18 23  1  0
 19 24  2  0
 21 24  1  0
M  CHG  1  23   1
M  END
$$$$
