
     RDKit          3D

 26 29  0  0  0  0  0  0  0  0999 V2000
    9.2867   23.1141   20.5533 C   0  0  0  0  0  0  0  0  0  0  0  0
   10.0764   22.8657   21.7338 C   0  0  0  0  0  0  0  0  0  0  0  0
    7.8788   22.0585   22.0054 C   0  0  1  0  0  0  0  0  0  0  0  0
    9.2139   22.2382   22.6143 C   0  0  0  0  0  0  0  0  0  0  0  0
   11.3807   23.1509   22.0500 C   0  0  0  0  0  0  0  0  0  0  0  0
    6.8554   22.7139   19.7727 C   0  0  1  0  0  0  0  0  0  0  0  0
    5.7742   23.6562   20.0782 C   0  0  0  0  0  0  0  0  0  0  0  0
    7.9409   22.6451   20.6931 N   0  0  0  0  0  0  0  0  0  0  0  0
    6.2194   21.3222   19.6256 C   0  0  0  0  0  0  0  0  0  0  0  0
    4.4724   22.9390   20.3522 C   0  0  0  0  0  0  0  0  0  0  0  0
    5.1182   21.5335   18.5749 C   0  0  0  0  0  0  0  0  0  0  0  0
    2.2170   21.8068   17.6333 C   0  0  0  0  0  0  0  0  0  0  0  0
   12.3360   23.7803   21.1588 C   0  0  0  0  0  0  0  0  0  0  0  0
    0.9244   22.4575   17.2070 C   0  0  0  0  0  0  0  0  0  0  0  0
    2.6005   23.9734   16.3033 C   0  0  0  0  0  0  0  0  0  0  0  0
    1.1807   23.9160   16.8101 C   0  0  0  0  0  0  0  0  0  0  0  0
    9.6553   23.6604   19.5102 O   0  0  0  0  0  0  0  0  0  0  0  0
    3.0639   22.8002   18.3996 C   0  0  2  0  0  0  0  0  0  0  0  0
    9.6610   21.8816   23.8537 C   0  0  0  0  0  0  0  0  0  0  0  0
    7.5622   20.5899   21.9875 C   0  0  0  0  0  0  0  0  0  0  0  0
   11.8223   22.7736   23.3379 C   0  0  0  0  0  0  0  0  0  0  0  0
    3.5978   23.8155   17.4611 C   0  0  0  0  0  0  0  0  0  0  0  0
    4.0185   22.1390   19.2404 N   0  0  2  0  0  4  0  0  0  0  0  0
   10.9645   22.1576   24.1949 C   0  0  0  0  0  0  0  0  0  0  0  0
   13.5899   23.7632   21.4932 O   0  0  0  0  0  0  0  0  0  0  0  0
   12.0419   24.4142   19.9503 N   0  0  0  0  0  0  0  0  0  0  0  0
  1  2  1  0
  8  1  1  0
  1 17  2  0
  4  2  2  0
  2  5  1  0
  3  4  1  0
  8  3  1  0
  3 20  1  6
  4 19  1  0
  5 13  1  0
  5 21  2  0
  7  6  1  0
  6  8  1  1
  9  6  1  0
 10  7  1  0
 11  9  1  0
 23 10  1  1
 23 11  1  0
 12 14  1  0
 18 12  1  6
 13 25  2  0
 13 26  1  0
 14 16  1  0
 15 16  1  0
 22 15  1  0
 18 22  1  0
 18 23  1  0
 19 24  2  0
 21 24  1  0
M  CHG  1  23   1
M  END
$$$$
