
     RDKit          3D

 26 29  0  0  0  0  0  0  0  0999 V2000
    9.4082   23.5725   20.6376 C   0  0  0  0  0  0  0  0  0  0  0  0
   10.1267   23.2462   21.8445 C   0  0  0  0  0  0  0  0  0  0  0  0
    7.8624   22.6149   22.0155 C   0  0  1  0  0  0  0  0  0  0  0  0
    9.1816   22.6789   22.6798 C   0  0  0  0  0  0  0  0  0  0  0  0
   11.4355   23.4217   22.2168 C   0  0  0  0  0  0  0  0  0  0  0  0
    6.9867   23.3790   19.7547 C   0  0  1  0  0  0  0  0  0  0  0  0
    5.6983   23.8853   20.2383 C   0  0  0  0  0  0  0  0  0  0  0  0
    8.0248   23.2113   20.7163 N   0  0  0  0  0  0  0  0  0  0  0  0
    6.7158   22.0378   19.0543 C   0  0  0  0  0  0  0  0  0  0  0  0
    4.6031   22.8551   20.0850 C   0  0  0  0  0  0  0  0  0  0  0  0
    5.6321   22.3789   18.0196 C   0  0  0  0  0  0  0  0  0  0  0  0
    2.0004   22.4709   18.2720 C   0  0  0  0  0  0  0  0  0  0  0  0
   12.4737   23.9837   21.3745 C   0  0  0  0  0  0  0  0  0  0  0  0
    0.8843   23.4622   18.0538 C   0  0  0  0  0  0  0  0  0  0  0  0
    2.1374   23.6131   15.9726 C   0  0  0  0  0  0  0  0  0  0  0  0
    1.2391   24.4004   16.8943 C   0  0  0  0  0  0  0  0  0  0  0  0
    9.8616   24.1007   19.6190 O   0  0  0  0  0  0  0  0  0  0  0  0
    3.3373   23.1461   18.0529 C   0  0  2  0  0  0  0  0  0  0  0  0
    9.5477   22.2716   23.9302 C   0  0  0  0  0  0  0  0  0  0  0  0
    7.4306   21.1768   21.9614 C   0  0  0  0  0  0  0  0  0  0  0  0
   11.7926   22.9936   23.5151 C   0  0  0  0  0  0  0  0  0  0  0  0
    3.5219   23.4094   16.6061 C   0  0  0  0  0  0  0  0  0  0  0  0
    4.3961   22.4439   18.7174 N   0  0  2  0  0  4  0  0  0  0  0  0
   10.8541   22.4376   24.3273 C   0  0  0  0  0  0  0  0  0  0  0  0
   13.6719   24.0841   21.8629 O   0  0  0  0  0  0  0  0  0  0  0  0
   12.3162   24.4351   20.0629 N   0  0  0  0  0  0  0  0  0  0  0  0
  1  2  1  0
  8  1  1  0
  1 17  2  0
  4  2  2  0
  2  5  1  0
  3  4  1  0
  8  3  1  0
  3 20  1  6
  4 19  1  0
  5 13  1  0
  5 21  2  0
  7  6  1  0
  6  8  1  1
  9  6  1  0
 10  7  1  0
 11  9  1  0
 23 10  1  1
 23 11  1  0
 12 14  1  0
 18 12  1  6
 13 25  2  0
 13 26  1  0
 14 16  1  0
 15 16  1  0
 22 15  1  0
 18 22  1  0
 18 23  1  0
 19 24  2  0
 21 24  1  0
M  CHG  1  23   1
M  END
$$$$
