
     RDKit          3D

 26 29  0  0  0  0  0  0  0  0999 V2000
    9.7105   23.5396   20.5679 C   0  0  0  0  0  0  0  0  0  0  0  0
   10.4758   23.2151   21.7462 C   0  0  0  0  0  0  0  0  0  0  0  0
    8.2286   22.5480   21.9913 C   0  0  1  0  0  0  0  0  0  0  0  0
    9.5692   22.6270   22.6094 C   0  0  0  0  0  0  0  0  0  0  0  0
   11.7941   23.4076   22.0738 C   0  0  0  0  0  0  0  0  0  0  0  0
    7.2626   23.3160   19.7689 C   0  0  1  0  0  0  0  0  0  0  0  0
    5.9310   23.5762   20.3253 C   0  0  0  0  0  0  0  0  0  0  0  0
    8.3362   23.1568   20.6921 N   0  0  0  0  0  0  0  0  0  0  0  0
    7.1521   22.0597   18.8901 C   0  0  0  0  0  0  0  0  0  0  0  0
    4.9761   22.4411   20.0361 C   0  0  0  0  0  0  0  0  0  0  0  0
    6.0089   22.3931   17.9189 C   0  0  0  0  0  0  0  0  0  0  0  0
    3.9860   23.6526   16.8446 C   0  0  0  0  0  0  0  0  0  0  0  0
   12.7935   23.9918   21.2002 C   0  0  0  0  0  0  0  0  0  0  0  0
    2.7561   23.8534   15.9944 C   0  0  0  0  0  0  0  0  0  0  0  0
    2.0386   24.6895   18.1647 C   0  0  0  0  0  0  0  0  0  0  0  0
    1.5300   24.0603   16.8913 C   0  0  0  0  0  0  0  0  0  0  0  0
   10.1198   24.0825   19.5384 O   0  0  0  0  0  0  0  0  0  0  0  0
    3.6352   22.8381   18.0713 C   0  0  2  0  0  0  0  0  0  0  0  0
    9.9851   22.2158   23.8427 C   0  0  0  0  0  0  0  0  0  0  0  0
    7.8167   21.1040   21.9405 C   0  0  0  0  0  0  0  0  0  0  0  0
   12.2030   22.9750   23.3552 C   0  0  0  0  0  0  0  0  0  0  0  0
    2.8295   23.6690   18.9971 C   0  0  0  0  0  0  0  0  0  0  0  0
    4.7919   22.1977   18.6257 N   0  0  2  0  0  4  0  0  0  0  0  0
   11.3020   22.3986   24.1952 C   0  0  0  0  0  0  0  0  0  0  0  0
   13.8297   24.5533   21.7436 O   0  0  0  0  0  0  0  0  0  0  0  0
   12.7582   24.0111   19.8048 N   0  0  0  0  0  0  0  0  0  0  0  0
  1  2  1  0
  8  1  1  0
  1 17  2  0
  4  2  2  0
  2  5  1  0
  3  4  1  0
  8  3  1  0
  3 20  1  6
  4 19  1  0
  5 13  1  0
  5 21  2  0
  7  6  1  0
  6  8  1  1
  9  6  1  0
 10  7  1  0
 11  9  1  0
 23 10  1  1
 23 11  1  0
 12 14  1  0
 18 12  1  6
 13 25  2  0
 13 26  1  0
 14 16  1  0
 15 16  1  0
 22 15  1  0
 18 22  1  0
 18 23  1  0
 19 24  2  0
 21 24  1  0
M  CHG  1  23   1
M  END
$$$$
