
     RDKit          3D

 26 29  0  0  0  0  0  0  0  0999 V2000
    9.4506   23.4377   20.4433 C   0  0  0  0  0  0  0  0  0  0  0  0
   10.1805   23.1209   21.6458 C   0  0  0  0  0  0  0  0  0  0  0  0
    7.9337   22.4303   21.8177 C   0  0  1  0  0  0  0  0  0  0  0  0
    9.2525   22.5232   22.4791 C   0  0  0  0  0  0  0  0  0  0  0  0
   11.4854   23.3272   22.0162 C   0  0  0  0  0  0  0  0  0  0  0  0
    7.0325   23.1887   19.5649 C   0  0  1  0  0  0  0  0  0  0  0  0
    5.7029   23.5445   20.0706 C   0  0  0  0  0  0  0  0  0  0  0  0
    8.0771   23.0405   20.5226 N   0  0  0  0  0  0  0  0  0  0  0  0
    6.8823   21.8847   18.7649 C   0  0  0  0  0  0  0  0  0  0  0  0
    4.7021   22.4378   19.8303 C   0  0  0  0  0  0  0  0  0  0  0  0
    5.7775   22.2067   17.7466 C   0  0  0  0  0  0  0  0  0  0  0  0
    2.1288   22.4684   18.5346 C   0  0  0  0  0  0  0  0  0  0  0  0
   12.5065   23.9220   21.1756 C   0  0  0  0  0  0  0  0  0  0  0  0
    1.1131   23.5420   18.2313 C   0  0  0  0  0  0  0  0  0  0  0  0
    1.7699   22.7952   16.0097 C   0  0  0  0  0  0  0  0  0  0  0  0
    1.2460   23.9881   16.7705 C   0  0  0  0  0  0  0  0  0  0  0  0
    9.8876   23.9852   19.4276 O   0  0  0  0  0  0  0  0  0  0  0  0
    3.4245   22.7682   17.8118 C   0  0  2  0  0  0  0  0  0  0  0  0
    9.6323   22.1160   23.7254 C   0  0  0  0  0  0  0  0  0  0  0  0
    7.5388   20.9821   21.7537 C   0  0  0  0  0  0  0  0  0  0  0  0
   11.8568   22.8986   23.3103 C   0  0  0  0  0  0  0  0  0  0  0  0
    3.2420   22.5307   16.3602 C   0  0  0  0  0  0  0  0  0  0  0  0
    4.5375   22.1128   18.4341 N   0  0  2  0  0  4  0  0  0  0  0  0
   10.9350   22.3125   24.1205 C   0  0  0  0  0  0  0  0  0  0  0  0
   13.7000   24.0606   21.6661 O   0  0  0  0  0  0  0  0  0  0  0  0
   12.3369   24.3683   19.8638 N   0  0  0  0  0  0  0  0  0  0  0  0
  1  2  1  0
  8  1  1  0
  1 17  2  0
  4  2  2  0
  2  5  1  0
  3  4  1  0
  8  3  1  0
  3 20  1  6
  4 19  1  0
  5 13  1  0
  5 21  2  0
  7  6  1  0
  6  8  1  1
  9  6  1  0
 10  7  1  0
 11  9  1  0
 23 10  1  1
 23 11  1  0
 12 14  1  0
 18 12  1  1
 13 25  2  0
 13 26  1  0
 14 16  1  0
 15 16  1  0
 22 15  1  0
 18 22  1  0
 18 23  1  0
 19 24  2  0
 21 24  1  0
M  CHG  1  23   1
M  END
$$$$
