
     RDKit          3D

 26 29  0  0  0  0  0  0  0  0999 V2000
    9.6956   23.5330   20.3896 C   0  0  0  0  0  0  0  0  0  0  0  0
   10.4418   23.2272   21.5850 C   0  0  0  0  0  0  0  0  0  0  0  0
    8.2028   22.5193   21.7856 C   0  0  1  0  0  0  0  0  0  0  0  0
    9.5283   22.6255   22.4313 C   0  0  0  0  0  0  0  0  0  0  0  0
   11.7492   23.4454   21.9394 C   0  0  0  0  0  0  0  0  0  0  0  0
    7.2697   23.2610   19.5403 C   0  0  1  0  0  0  0  0  0  0  0  0
    5.9749   23.7320   20.0421 C   0  0  0  0  0  0  0  0  0  0  0  0
    8.3264   23.1253   20.4864 N   0  0  0  0  0  0  0  0  0  0  0  0
    7.0263   21.9109   18.8469 C   0  0  0  0  0  0  0  0  0  0  0  0
    4.9070   22.6710   19.9076 C   0  0  0  0  0  0  0  0  0  0  0  0
    5.9180   22.2186   17.8280 C   0  0  0  0  0  0  0  0  0  0  0  0
    2.2703   22.3114   18.2726 C   0  0  0  0  0  0  0  0  0  0  0  0
   12.7557   24.0448   21.0846 C   0  0  0  0  0  0  0  0  0  0  0  0
    1.1656   23.3127   18.0424 C   0  0  0  0  0  0  0  0  0  0  0  0
    2.2625   23.2299   15.8712 C   0  0  0  0  0  0  0  0  0  0  0  0
    1.4555   24.1274   16.7763 C   0  0  0  0  0  0  0  0  0  0  0  0
   10.1165   24.0797   19.3667 O   0  0  0  0  0  0  0  0  0  0  0  0
    3.6032   22.9209   17.8943 C   0  0  2  0  0  0  0  0  0  0  0  0
    9.9257   22.2266   23.6748 C   0  0  0  0  0  0  0  0  0  0  0  0
    7.8188   21.0677   21.7320 C   0  0  0  0  0  0  0  0  0  0  0  0
   12.1389   23.0252   23.2308 C   0  0  0  0  0  0  0  0  0  0  0  0
    3.6853   23.0426   16.4195 C   0  0  0  0  0  0  0  0  0  0  0  0
    4.6913   22.2506   18.5442 N   0  0  2  0  0  4  0  0  0  0  0  0
   11.2313   22.4352   24.0541 C   0  0  0  0  0  0  0  0  0  0  0  0
   13.9520   24.2011   21.5630 O   0  0  0  0  0  0  0  0  0  0  0  0
   12.5692   24.4782   19.7708 N   0  0  0  0  0  0  0  0  0  0  0  0
  1  2  1  0
  8  1  1  0
  1 17  2  0
  4  2  2  0
  2  5  1  0
  3  4  1  0
  8  3  1  0
  3 20  1  6
  4 19  1  0
  5 13  1  0
  5 21  2  0
  7  6  1  0
  6  8  1  1
  9  6  1  0
 10  7  1  0
 11  9  1  0
 23 10  1  1
 23 11  1  0
 12 14  1  0
 18 12  1  6
 13 25  2  0
 13 26  1  0
 14 16  1  0
 15 16  1  0
 22 15  1  0
 18 22  1  0
 18 23  1  0
 19 24  2  0
 21 24  1  0
M  CHG  1  23   1
M  END
$$$$
