
     RDKit          3D

 26 29  0  0  0  0  0  0  0  0999 V2000
    9.2162   23.2851   20.5463 C   0  0  0  0  0  0  0  0  0  0  0  0
    9.9553   23.0409   21.7601 C   0  0  0  0  0  0  0  0  0  0  0  0
    7.7291   22.2948   21.9651 C   0  0  1  0  0  0  0  0  0  0  0  0
    9.0451   22.4532   22.6197 C   0  0  0  0  0  0  0  0  0  0  0  0
   11.2540   23.2996   22.1191 C   0  0  0  0  0  0  0  0  0  0  0  0
    6.8057   22.9304   19.6835 C   0  0  1  0  0  0  0  0  0  0  0  0
    5.5121   23.4481   20.1407 C   0  0  0  0  0  0  0  0  0  0  0  0
    7.8545   22.8530   20.6449 N   0  0  0  0  0  0  0  0  0  0  0  0
    6.5540   21.5365   19.0866 C   0  0  0  0  0  0  0  0  0  0  0  0
    4.4350   22.3900   20.0743 C   0  0  0  0  0  0  0  0  0  0  0  0
    5.4557   21.7806   18.0400 C   0  0  0  0  0  0  0  0  0  0  0  0
    3.6146   23.7472   17.3069 C   0  0  0  0  0  0  0  0  0  0  0  0
   12.2574   23.8866   21.2521 C   0  0  0  0  0  0  0  0  0  0  0  0
    2.6599   24.0693   16.1840 C   0  0  0  0  0  0  0  0  0  0  0  0
    1.1842   23.9649   18.1168 C   0  0  0  0  0  0  0  0  0  0  0  0
    1.2209   23.7711   16.6211 C   0  0  0  0  0  0  0  0  0  0  0  0
    9.6369   23.8008   19.5074 O   0  0  0  0  0  0  0  0  0  0  0  0
    3.1474   22.5071   18.0385 C   0  0  2  0  0  0  0  0  0  0  0  0
    9.4368   22.1106   23.8816 C   0  0  0  0  0  0  0  0  0  0  0  0
    7.3754   20.8346   21.9636 C   0  0  0  0  0  0  0  0  0  0  0  0
   11.6381   22.9374   23.4296 C   0  0  0  0  0  0  0  0  0  0  0  0
    1.9375   22.8322   18.8304 C   0  0  0  0  0  0  0  0  0  0  0  0
    4.2244   21.8751   18.7428 N   0  0  2  0  0  4  0  0  0  0  0  0
   10.7337   22.3606   24.2658 C   0  0  0  0  0  0  0  0  0  0  0  0
   13.5046   23.7712   21.5921 O   0  0  0  0  0  0  0  0  0  0  0  0
   12.0170   24.5756   20.0621 N   0  0  0  0  0  0  0  0  0  0  0  0
  1  2  1  0
  8  1  1  0
  1 17  2  0
  4  2  2  0
  2  5  1  0
  3  4  1  0
  8  3  1  0
  3 20  1  6
  4 19  1  0
  5 13  1  0
  5 21  2  0
  7  6  1  0
  6  8  1  1
  9  6  1  0
 10  7  1  0
 11  9  1  0
 23 10  1  1
 23 11  1  0
 12 14  1  0
 18 12  1  1
 13 25  2  0
 13 26  1  0
 14 16  1  0
 15 16  1  0
 22 15  1  0
 18 22  1  0
 18 23  1  0
 19 24  2  0
 21 24  1  0
M  CHG  1  23   1
M  END
$$$$
