
     RDKit          3D

 26 29  0  0  0  0  0  0  0  0999 V2000
    9.2080   23.4640   20.5086 C   0  0  0  0  0  0  0  0  0  0  0  0
    9.9154   23.2106   21.7392 C   0  0  0  0  0  0  0  0  0  0  0  0
    7.6647   22.5318   21.9066 C   0  0  1  0  0  0  0  0  0  0  0  0
    8.9715   22.6584   22.5860 C   0  0  0  0  0  0  0  0  0  0  0  0
   11.2138   23.4350   22.1217 C   0  0  0  0  0  0  0  0  0  0  0  0
    6.8057   23.1709   19.6010 C   0  0  1  0  0  0  0  0  0  0  0  0
    5.4967   23.6617   20.0436 C   0  0  0  0  0  0  0  0  0  0  0  0
    7.8326   23.0727   20.5840 N   0  0  0  0  0  0  0  0  0  0  0  0
    6.5819   21.7943   18.9547 C   0  0  0  0  0  0  0  0  0  0  0  0
    4.4320   22.5963   19.9185 C   0  0  0  0  0  0  0  0  0  0  0  0
    5.5059   22.0614   17.8907 C   0  0  0  0  0  0  0  0  0  0  0  0
    2.2193   23.4360   18.8053 C   0  0  0  0  0  0  0  0  0  0  0  0
   12.2510   23.9838   21.2696 C   0  0  0  0  0  0  0  0  0  0  0  0
    1.4593   24.5180   18.0788 C   0  0  0  0  0  0  0  0  0  0  0  0
    1.0523   22.5631   16.6871 C   0  0  0  0  0  0  0  0  0  0  0  0
    1.1528   24.0678   16.6457 C   0  0  0  0  0  0  0  0  0  0  0  0
    9.6641   23.9566   19.4735 O   0  0  0  0  0  0  0  0  0  0  0  0
    3.1911   22.7661   17.8577 C   0  0  2  0  0  0  0  0  0  0  0  0
    9.3281   22.3173   23.8587 C   0  0  0  0  0  0  0  0  0  0  0  0
    7.2685   21.0825   21.9120 C   0  0  0  0  0  0  0  0  0  0  0  0
   11.5611   23.0751   23.4432 C   0  0  0  0  0  0  0  0  0  0  0  0
    2.4375   21.9312   16.8924 C   0  0  0  0  0  0  0  0  0  0  0  0
    4.2577   22.1220   18.5669 N   0  0  2  0  0  4  0  0  0  0  0  0
   10.6238   22.5334   24.2664 C   0  0  0  0  0  0  0  0  0  0  0  0
   13.4387   24.1361   21.7700 O   0  0  0  0  0  0  0  0  0  0  0  0
   12.1029   24.3711   19.9366 N   0  0  0  0  0  0  0  0  0  0  0  0
  1  2  1  0
  8  1  1  0
  1 17  2  0
  4  2  2  0
  2  5  1  0
  3  4  1  0
  8  3  1  0
  3 20  1  6
  4 19  1  0
  5 13  1  0
  5 21  2  0
  7  6  1  0
  6  8  1  1
  9  6  1  0
 10  7  1  0
 11  9  1  0
 23 10  1  1
 23 11  1  0
 12 14  1  0
 18 12  1  1
 13 25  2  0
 13 26  1  0
 14 16  1  0
 15 16  1  0
 22 15  1  0
 18 22  1  0
 18 23  1  0
 19 24  2  0
 21 24  1  0
M  CHG  1  23   1
M  END
$$$$
