
     RDKit          3D

 26 29  0  0  0  0  0  0  0  0999 V2000
    9.2541   23.4786   20.3146 C   0  0  0  0  0  0  0  0  0  0  0  0
    9.9266   23.1853   21.5560 C   0  0  0  0  0  0  0  0  0  0  0  0
    7.6560   22.5624   21.6606 C   0  0  1  0  0  0  0  0  0  0  0  0
    8.9498   22.6431   22.3712 C   0  0  0  0  0  0  0  0  0  0  0  0
   11.2212   23.3692   21.9714 C   0  0  0  0  0  0  0  0  0  0  0  0
    6.8665   23.2639   19.3483 C   0  0  1  0  0  0  0  0  0  0  0  0
    5.5947   23.8736   19.7496 C   0  0  0  0  0  0  0  0  0  0  0  0
    7.8678   23.1218   20.3520 N   0  0  0  0  0  0  0  0  0  0  0  0
    6.5426   21.8859   18.7491 C   0  0  0  0  0  0  0  0  0  0  0  0
    4.4501   22.8922   19.6450 C   0  0  0  0  0  0  0  0  0  0  0  0
    5.5071   22.1970   17.6573 C   0  0  0  0  0  0  0  0  0  0  0  0
    1.9190   23.0646   18.2657 C   0  0  0  0  0  0  0  0  0  0  0  0
   12.2913   23.9058   21.1528 C   0  0  0  0  0  0  0  0  0  0  0  0
    1.0654   24.2075   17.7747 C   0  0  0  0  0  0  0  0  0  0  0  0
    1.6556   23.0650   15.7082 C   0  0  0  0  0  0  0  0  0  0  0  0
    1.2853   24.4146   16.2716 C   0  0  0  0  0  0  0  0  0  0  0  0
    9.7463   23.9773   19.2990 O   0  0  0  0  0  0  0  0  0  0  0  0
    3.2569   23.0817   17.5578 C   0  0  2  0  0  0  0  0  0  0  0  0
    9.2683   22.2706   23.6452 C   0  0  0  0  0  0  0  0  0  0  0  0
    7.2228   21.1240   21.6308 C   0  0  0  0  0  0  0  0  0  0  0  0
   11.5289   22.9773   23.2935 C   0  0  0  0  0  0  0  0  0  0  0  0
    3.0709   22.6617   16.1487 C   0  0  0  0  0  0  0  0  0  0  0  0
    4.2581   22.3823   18.3089 N   0  0  2  0  0  4  0  0  0  0  0  0
   10.5595   22.4457   24.0857 C   0  0  0  0  0  0  0  0  0  0  0  0
   13.4738   24.0055   21.6779 O   0  0  0  0  0  0  0  0  0  0  0  0
   12.1806   24.3329   19.8283 N   0  0  0  0  0  0  0  0  0  0  0  0
  1  2  1  0
  8  1  1  0
  1 17  2  0
  4  2  2  0
  2  5  1  0
  3  4  1  0
  8  3  1  0
  3 20  1  6
  4 19  1  0
  5 13  1  0
  5 21  2  0
  7  6  1  0
  6  8  1  1
  9  6  1  0
 10  7  1  0
 11  9  1  0
 23 10  1  1
 23 11  1  0
 12 14  1  0
 18 12  1  1
 13 25  2  0
 13 26  1  0
 14 16  1  0
 15 16  1  0
 22 15  1  0
 18 22  1  0
 18 23  1  0
 19 24  2  0
 21 24  1  0
M  CHG  1  23   1
M  END
$$$$
