
     RDKit          3D

 26 29  0  0  0  0  0  0  0  0999 V2000
    9.3354   23.4563   20.6205 C   0  0  0  0  0  0  0  0  0  0  0  0
   10.1051   23.1337   21.7964 C   0  0  0  0  0  0  0  0  0  0  0  0
    7.8589   22.4669   22.0509 C   0  0  1  0  0  0  0  0  0  0  0  0
    9.2018   22.5470   22.6639 C   0  0  0  0  0  0  0  0  0  0  0  0
   11.4246   23.3269   22.1188 C   0  0  0  0  0  0  0  0  0  0  0  0
    6.8846   23.2312   19.8308 C   0  0  1  0  0  0  0  0  0  0  0  0
    5.5473   23.4456   20.3929 C   0  0  0  0  0  0  0  0  0  0  0  0
    7.9616   23.0736   20.7503 N   0  0  0  0  0  0  0  0  0  0  0  0
    6.8037   21.9956   18.9199 C   0  0  0  0  0  0  0  0  0  0  0  0
    4.6193   22.2961   20.0740 C   0  0  0  0  0  0  0  0  0  0  0  0
    5.6530   22.3270   17.9570 C   0  0  0  0  0  0  0  0  0  0  0  0
    3.3624   22.8640   16.6161 C   0  0  0  0  0  0  0  0  0  0  0  0
   12.4207   23.9098   21.2406 C   0  0  0  0  0  0  0  0  0  0  0  0
    1.9796   23.0021   16.0289 C   0  0  0  0  0  0  0  0  0  0  0  0
    2.0235   24.7746   17.6964 C   0  0  0  0  0  0  0  0  0  0  0  0
    1.0965   23.8358   16.9646 C   0  0  0  0  0  0  0  0  0  0  0  0
    9.7409   23.9976   19.5885 O   0  0  0  0  0  0  0  0  0  0  0  0
    3.2695   22.7119   18.1192 C   0  0  2  0  0  0  0  0  0  0  0  0
    9.6223   22.1377   23.8964 C   0  0  0  0  0  0  0  0  0  0  0  0
    7.4470   21.0227   22.0040 C   0  0  0  0  0  0  0  0  0  0  0  0
   11.8383   22.8964   23.3993 C   0  0  0  0  0  0  0  0  0  0  0  0
    2.8761   24.0088   18.7194 C   0  0  0  0  0  0  0  0  0  0  0  0
    4.4409   22.0849   18.6578 N   0  0  2  0  0  4  0  0  0  0  0  0
   10.9405   22.3212   24.2436 C   0  0  0  0  0  0  0  0  0  0  0  0
   13.6400   24.0053   21.6747 O   0  0  0  0  0  0  0  0  0  0  0  0
   12.2009   24.3867   19.9472 N   0  0  0  0  0  0  0  0  0  0  0  0
  1  2  1  0
  8  1  1  0
  1 17  2  0
  4  2  2  0
  2  5  1  0
  3  4  1  0
  8  3  1  0
  3 20  1  6
  4 19  1  0
  5 13  1  0
  5 21  2  0
  7  6  1  0
  6  8  1  1
  9  6  1  0
 10  7  1  0
 11  9  1  0
 23 10  1  1
 23 11  1  0
 12 14  1  0
 18 12  1  6
 13 25  2  0
 13 26  1  0
 14 16  1  0
 15 16  1  0
 22 15  1  0
 18 22  1  0
 18 23  1  0
 19 24  2  0
 21 24  1  0
M  CHG  1  23   1
M  END
$$$$
