
     RDKit          3D

 26 29  0  0  0  0  0  0  0  0999 V2000
    9.6690   23.4341   20.3657 C   0  0  0  0  0  0  0  0  0  0  0  0
   10.4381   23.1696   21.5564 C   0  0  0  0  0  0  0  0  0  0  0  0
    8.2125   22.4372   21.8114 C   0  0  1  0  0  0  0  0  0  0  0  0
    9.5465   22.5780   22.4327 C   0  0  0  0  0  0  0  0  0  0  0  0
   11.7478   23.4144   21.8838 C   0  0  0  0  0  0  0  0  0  0  0  0
    7.2339   23.1075   19.5631 C   0  0  1  0  0  0  0  0  0  0  0  0
    5.9711   23.6730   20.0488 C   0  0  0  0  0  0  0  0  0  0  0  0
    8.3072   23.0106   20.4952 N   0  0  0  0  0  0  0  0  0  0  0  0
    6.9209   21.7136   18.9955 C   0  0  0  0  0  0  0  0  0  0  0  0
    4.8596   22.6492   20.0298 C   0  0  0  0  0  0  0  0  0  0  0  0
    5.8010   21.9775   17.9770 C   0  0  0  0  0  0  0  0  0  0  0  0
    3.9622   23.3254   16.6907 C   0  0  0  0  0  0  0  0  0  0  0  0
   12.7323   24.0048   20.9977 C   0  0  0  0  0  0  0  0  0  0  0  0
    2.7659   23.5076   15.7897 C   0  0  0  0  0  0  0  0  0  0  0  0
    2.1344   24.7782   17.7673 C   0  0  0  0  0  0  0  0  0  0  0  0
    1.5658   23.9971   16.6086 C   0  0  0  0  0  0  0  0  0  0  0  0
   10.0660   23.9594   19.3223 O   0  0  0  0  0  0  0  0  0  0  0  0
    3.5178   22.7775   18.0300 C   0  0  2  0  0  0  0  0  0  0  0  0
    9.9690   22.2171   23.6795 C   0  0  0  0  0  0  0  0  0  0  0  0
    7.8479   20.9797   21.8017 C   0  0  0  0  0  0  0  0  0  0  0  0
   12.1637   23.0334   23.1793 C   0  0  0  0  0  0  0  0  0  0  0  0
    2.8041   23.8376   18.7806 C   0  0  0  0  0  0  0  0  0  0  0  0
    4.5943   22.1217   18.7131 N   0  0  2  0  0  4  0  0  0  0  0  0
   11.2774   22.4529   24.0321 C   0  0  0  0  0  0  0  0  0  0  0  0
   13.9334   24.1906   21.4528 O   0  0  0  0  0  0  0  0  0  0  0  0
   12.5193   24.4001   19.6759 N   0  0  0  0  0  0  0  0  0  0  0  0
  1  2  1  0
  8  1  1  0
  1 17  2  0
  4  2  2  0
  2  5  1  0
  3  4  1  0
  8  3  1  0
  3 20  1  6
  4 19  1  0
  5 13  1  0
  5 21  2  0
  7  6  1  0
  6  8  1  1
  9  6  1  0
 10  7  1  0
 11  9  1  0
 23 10  1  1
 23 11  1  0
 12 14  1  0
 18 12  1  6
 13 25  2  0
 13 26  1  0
 14 16  1  0
 15 16  1  0
 22 15  1  0
 18 22  1  0
 18 23  1  0
 19 24  2  0
 21 24  1  0
M  CHG  1  23   1
M  END
$$$$
