
     RDKit          3D

 22 24  0  0  0  0  0  0  0  0999 V2000
   -6.7267   10.6587  -26.0976 N   0  0  0  0  0  0  0  0  0  0  0  0
   -6.6113   11.9498  -26.5106 C   0  0  0  0  0  0  0  0  0  0  0  0
   -5.5605    9.8541  -25.7421 C   0  0  0  0  0  0  0  0  0  0  0  0
   -8.5602    9.0278  -25.7093 C   0  0  0  0  0  0  0  0  0  0  0  0
  -10.1968   11.5022  -26.6481 C   0  0  0  0  0  0  0  0  0  0  0  0
  -10.0818    7.6126  -24.5077 C   0  0  0  0  0  0  0  0  0  0  0  0
   -8.0479    7.8511  -26.2215 C   0  0  0  0  0  0  0  0  0  0  0  0
  -12.2584   10.9507  -27.7706 C   0  0  0  0  0  0  0  0  0  0  0  0
  -12.3230   12.4153  -25.9263 C   0  0  0  0  0  0  0  0  0  0  0  0
  -10.2792   13.0433  -24.7109 C   0  0  0  0  0  0  0  0  0  0  0  0
  -14.4733   11.8560  -27.0772 C   0  0  0  0  0  0  0  0  0  0  0  0
   -8.5252    6.6128  -25.8962 C   0  0  0  0  0  0  0  0  0  0  0  0
  -10.8772   10.8288  -27.6418 C   0  0  0  0  0  0  0  0  0  0  0  0
  -12.9892   11.7478  -26.9096 C   0  0  0  0  0  0  0  0  0  0  0  0
  -10.9625   12.2872  -25.8096 C   0  0  0  0  0  0  0  0  0  0  0  0
  -10.1840    9.9644  -28.5967 C   0  0  0  0  0  0  0  0  0  0  0  0
   -8.0181   10.3116  -26.0861 C   0  0  0  0  0  0  0  0  0  0  0  0
   -8.7574   11.3884  -26.4966 C   0  0  0  0  0  0  0  0  0  0  0  0
   -9.6223    8.8710  -24.8165 C   0  0  0  0  0  0  0  0  0  0  0  0
   -9.5398    6.5128  -25.0400 N   0  0  0  0  0  0  0  0  0  0  0  0
  -14.8137   12.7943  -28.1058 N   0  0  0  0  0  4  0  0  0  0  0  0
   -7.8621   12.3847  -26.7517 N   0  0  0  0  0  0  0  0  0  0  0  0
  1  2  1  0
  1  3  1  0
 17  1  1  0
  2 22  2  0
  4  7  2  0
 17  4  1  0
  4 19  1  0
  5 13  1  0
  5 15  2  0
 18  5  1  0
 19  6  2  0
  6 20  1  0
  7 12  1  0
 13  8  2  0
  8 14  1  0
  9 14  2  0
 15  9  1  0
 15 10  1  0
 14 11  1  0
 11 21  1  0
 12 20  2  0
 13 16  1  0
 17 18  2  0
 18 22  1  0
M  CHG  1  21   1
M  END
$$$$
