
     RDKit          3D

 22 24  0  0  0  0  0  0  0  0999 V2000
  -10.7309   10.2208  -25.5756 N   0  0  0  0  0  0  0  0  0  0  0  0
  -10.7020   11.3448  -24.8097 C   0  0  0  0  0  0  0  0  0  0  0  0
   -9.5278    9.4366  -25.8427 C   0  0  0  0  0  0  0  0  0  0  0  0
  -12.4322    8.9149  -26.8297 C   0  0  0  0  0  0  0  0  0  0  0  0
  -14.2091   11.1947  -25.6774 C   0  0  0  0  0  0  0  0  0  0  0  0
  -12.4134    7.6071  -28.8424 C   0  0  0  0  0  0  0  0  0  0  0  0
  -13.4079    8.0352  -26.4015 C   0  0  0  0  0  0  0  0  0  0  0  0
  -16.0926   12.0019  -26.9482 C   0  0  0  0  0  0  0  0  0  0  0  0
  -16.4847   10.9378  -24.8832 C   0  0  0  0  0  0  0  0  0  0  0  0
  -14.6356   10.0783  -23.5081 C   0  0  0  0  0  0  0  0  0  0  0  0
  -18.4529   11.7684  -26.1862 C   0  0  0  0  0  0  0  0  0  0  0  0
  -13.8678    6.9906  -27.1527 C   0  0  0  0  0  0  0  0  0  0  0  0
  -14.7202   11.8224  -26.7949 C   0  0  0  0  0  0  0  0  0  0  0  0
  -16.9833   11.5584  -25.9889 C   0  0  0  0  0  0  0  0  0  0  0  0
  -15.1311   10.7669  -24.7434 C   0  0  0  0  0  0  0  0  0  0  0  0
  -13.8508   12.3235  -27.8591 C   0  0  0  0  0  0  0  0  0  0  0  0
  -11.9819   10.0037  -25.9955 C   0  0  0  0  0  0  0  0  0  0  0  0
  -12.7819   10.9974  -25.4986 C   0  0  0  0  0  0  0  0  0  0  0  0
  -11.9318    8.6656  -28.1093 C   0  0  0  0  0  0  0  0  0  0  0  0
  -13.3606    6.7922  -28.3676 N   0  0  0  0  0  0  0  0  0  0  0  0
  -18.7335   12.2882  -27.4921 N   0  0  0  0  0  4  0  0  0  0  0  0
  -11.9643   11.8104  -24.7706 N   0  0  0  0  0  0  0  0  0  0  0  0
  1  2  1  0
  1  3  1  0
 17  1  1  0
  2 22  2  0
  4  7  2  0
 17  4  1  0
  4 19  1  0
  5 13  1  0
  5 15  2  0
 18  5  1  0
 19  6  2  0
  6 20  1  0
  7 12  1  0
 13  8  2  0
  8 14  1  0
  9 14  2  0
 15  9  1  0
 15 10  1  0
 14 11  1  0
 11 21  1  0
 12 20  2  0
 13 16  1  0
 17 18  2  0
 18 22  1  0
M  CHG  1  21   1
M  END
$$$$
