
     RDKit          3D

 22 24  0  0  0  0  0  0  0  0999 V2000
   -4.0337    8.2048  -18.8243 N   0  0  0  0  0  0  0  0  0  0  0  0
   -5.3536    8.1519  -18.4990 C   0  0  0  0  0  0  0  0  0  0  0  0
   -3.0151    8.6063  -17.8573 C   0  0  0  0  0  0  0  0  0  0  0  0
   -2.6333    7.7693  -20.8297 C   0  0  0  0  0  0  0  0  0  0  0  0
   -5.4570    7.1150  -21.9616 C   0  0  0  0  0  0  0  0  0  0  0  0
   -0.4308    6.9009  -21.2258 C   0  0  0  0  0  0  0  0  0  0  0  0
   -2.3983    8.5598  -21.9384 C   0  0  0  0  0  0  0  0  0  0  0  0
   -6.1336    7.5756  -24.2297 C   0  0  0  0  0  0  0  0  0  0  0  0
   -5.7779    5.3392  -23.5799 C   0  0  0  0  0  0  0  0  0  0  0  0
   -5.0868    4.7594  -21.2918 C   0  0  0  0  0  0  0  0  0  0  0  0
   -6.4799    5.7956  -25.9379 C   0  0  0  0  0  0  0  0  0  0  0  0
   -1.2382    8.5268  -22.6594 C   0  0  0  0  0  0  0  0  0  0  0  0
   -5.8053    8.0135  -22.9492 C   0  0  0  0  0  0  0  0  0  0  0  0
   -6.1210    6.2313  -24.5508 C   0  0  0  0  0  0  0  0  0  0  0  0
   -5.4566    5.7826  -22.3224 C   0  0  0  0  0  0  0  0  0  0  0  0
   -5.8455    9.4538  -22.6973 C   0  0  0  0  0  0  0  0  0  0  0  0
   -3.8782    7.8438  -20.1025 C   0  0  0  0  0  0  0  0  0  0  0  0
   -5.1112    7.5509  -20.6206 C   0  0  0  0  0  0  0  0  0  0  0  0
   -1.5868    6.9127  -20.4818 C   0  0  0  0  0  0  0  0  0  0  0  0
   -0.2678    7.6935  -22.2897 N   0  0  0  0  0  0  0  0  0  0  0  0
   -7.5169    4.8065  -25.9206 N   0  0  0  0  0  4  0  0  0  0  0  0
   -6.0022    7.7501  -19.6079 N   0  0  0  0  0  0  0  0  0  0  0  0
  1  2  1  0
  1  3  1  0
 17  1  1  0
  2 22  2  0
  4  7  2  0
 17  4  1  0
  4 19  1  0
  5 13  1  0
  5 15  2  0
 18  5  1  0
 19  6  2  0
  6 20  1  0
  7 12  1  0
 13  8  2  0
  8 14  1  0
  9 14  2  0
 15  9  1  0
 15 10  1  0
 14 11  1  0
 11 21  1  0
 12 20  2  0
 13 16  1  0
 17 18  2  0
 18 22  1  0
M  CHG  1  21   1
M  END
$$$$
