
     RDKit          3D

 22 24  0  0  0  0  0  0  0  0999 V2000
   -8.7349    0.4739  -23.5626 N   0  0  0  0  0  0  0  0  0  0  0  0
  -10.0217    0.5522  -23.1280 C   0  0  0  0  0  0  0  0  0  0  0  0
   -8.2382    1.3009  -24.6594 C   0  0  0  0  0  0  0  0  0  0  0  0
   -6.6933   -0.8189  -22.9857 C   0  0  0  0  0  0  0  0  0  0  0  0
   -8.7015   -1.9831  -20.9134 C   0  0  0  0  0  0  0  0  0  0  0  0
   -4.7922   -1.5397  -24.2617 C   0  0  0  0  0  0  0  0  0  0  0  0
   -5.8330   -0.8389  -21.9045 C   0  0  0  0  0  0  0  0  0  0  0  0
   -8.3710   -2.6627  -18.6236 C   0  0  0  0  0  0  0  0  0  0  0  0
   -8.3229   -4.3014  -20.3156 C   0  0  0  0  0  0  0  0  0  0  0  0
   -8.6482   -3.7161  -22.6821 C   0  0  0  0  0  0  0  0  0  0  0  0
   -7.9775   -5.0275  -17.9460 C   0  0  0  0  0  0  0  0  0  0  0  0
   -4.5158   -1.1913  -21.9917 C   0  0  0  0  0  0  0  0  0  0  0  0
   -8.6049   -1.6710  -19.5728 C   0  0  0  0  0  0  0  0  0  0  0  0
   -8.2285   -3.9869  -18.9933 C   0  0  0  0  0  0  0  0  0  0  0  0
   -8.5535   -3.3159  -21.2410 C   0  0  0  0  0  0  0  0  0  0  0  0
   -8.7423   -0.2961  -19.0928 C   0  0  0  0  0  0  0  0  0  0  0  0
   -8.0782   -0.4386  -22.8386 C   0  0  0  0  0  0  0  0  0  0  0  0
   -8.9453   -0.9643  -21.9186 C   0  0  0  0  0  0  0  0  0  0  0  0
   -6.1205   -1.1899  -24.2039 C   0  0  0  0  0  0  0  0  0  0  0  0
   -4.0137   -1.5379  -23.1751 N   0  0  0  0  0  0  0  0  0  0  0  0
   -9.1095   -5.1774  -17.0797 N   0  0  0  0  0  4  0  0  0  0  0  0
  -10.1371   -0.3336  -22.1211 N   0  0  0  0  0  0  0  0  0  0  0  0
  1  2  1  0
  1  3  1  0
 17  1  1  0
  2 22  2  0
  4  7  2  0
 17  4  1  0
  4 19  1  0
  5 13  1  0
  5 15  2  0
 18  5  1  0
 19  6  2  0
  6 20  1  0
  7 12  1  0
 13  8  2  0
  8 14  1  0
  9 14  2  0
 15  9  1  0
 15 10  1  0
 14 11  1  0
 11 21  1  0
 12 20  2  0
 13 16  1  0
 17 18  2  0
 18 22  1  0
M  CHG  1  21   1
M  END
$$$$
