
     RDKit          3D

 22 24  0  0  0  0  0  0  0  0999 V2000
   -1.9741    7.4904  -20.1229 N   0  0  0  0  0  0  0  0  0  0  0  0
   -2.2862    8.6384  -19.4631 C   0  0  0  0  0  0  0  0  0  0  0  0
   -0.7195    6.7804  -19.8873 C   0  0  0  0  0  0  0  0  0  0  0  0
   -3.0251    6.0323  -21.8382 C   0  0  0  0  0  0  0  0  0  0  0  0
   -5.2141    8.2243  -21.5443 C   0  0  0  0  0  0  0  0  0  0  0  0
   -3.0268    4.9887  -23.9998 C   0  0  0  0  0  0  0  0  0  0  0  0
   -3.1421    4.7477  -21.3429 C   0  0  0  0  0  0  0  0  0  0  0  0
   -7.5780    7.7798  -21.7125 C   0  0  0  0  0  0  0  0  0  0  0  0
   -6.5176    8.9710  -23.4466 C   0  0  0  0  0  0  0  0  0  0  0  0
   -4.1119    9.4774  -23.3745 C   0  0  0  0  0  0  0  0  0  0  0  0
   -8.9712    8.5200  -23.6406 C   0  0  0  0  0  0  0  0  0  0  0  0
   -3.1991    3.6342  -22.1326 C   0  0  0  0  0  0  0  0  0  0  0  0
   -6.3705    7.6779  -21.0265 C   0  0  0  0  0  0  0  0  0  0  0  0
   -7.6561    8.4294  -22.9301 C   0  0  0  0  0  0  0  0  0  0  0  0
   -5.3343    8.8642  -22.7616 C   0  0  0  0  0  0  0  0  0  0  0  0
   -6.3796    6.9728  -19.7450 C   0  0  0  0  0  0  0  0  0  0  0  0
   -2.9695    7.1759  -20.9587 C   0  0  0  0  0  0  0  0  0  0  0  0
   -3.9453    8.1295  -20.8449 C   0  0  0  0  0  0  0  0  0  0  0  0
   -2.9672    6.1263  -23.2301 C   0  0  0  0  0  0  0  0  0  0  0  0
   -3.1402    3.7731  -23.4554 N   0  0  0  0  0  0  0  0  0  0  0  0
   -8.8698    8.0370  -24.9863 N   0  0  0  0  0  4  0  0  0  0  0  0
   -3.4958    9.0192  -19.9146 N   0  0  0  0  0  0  0  0  0  0  0  0
  1  2  1  0
  1  3  1  0
 17  1  1  0
  2 22  2  0
  4  7  2  0
 17  4  1  0
  4 19  1  0
  5 13  1  0
  5 15  2  0
 18  5  1  0
 19  6  2  0
  6 20  1  0
  7 12  1  0
 13  8  2  0
  8 14  1  0
  9 14  2  0
 15  9  1  0
 15 10  1  0
 14 11  1  0
 11 21  1  0
 12 20  2  0
 13 16  1  0
 17 18  2  0
 18 22  1  0
M  CHG  1  21   1
M  END
$$$$
