
     RDKit          3D

 22 24  0  0  0  0  0  0  0  0999 V2000
   -6.4808    1.8289  -26.1259 N   0  0  0  0  0  0  0  0  0  0  0  0
   -7.6332    2.5376  -25.9834 C   0  0  0  0  0  0  0  0  0  0  0  0
   -5.6655    1.9145  -27.3348 C   0  0  0  0  0  0  0  0  0  0  0  0
   -5.1570    0.2149  -24.7786 C   0  0  0  0  0  0  0  0  0  0  0  0
   -7.5114    0.7818  -22.8247 C   0  0  0  0  0  0  0  0  0  0  0  0
   -2.8756   -0.2516  -24.1960 C   0  0  0  0  0  0  0  0  0  0  0  0
   -5.2888   -1.1556  -24.8958 C   0  0  0  0  0  0  0  0  0  0  0  0
   -8.2005   -1.0102  -21.3659 C   0  0  0  0  0  0  0  0  0  0  0  0
   -7.4315    1.0021  -20.4121 C   0  0  0  0  0  0  0  0  0  0  0  0
   -6.7053    2.8919  -21.8086 C   0  0  0  0  0  0  0  0  0  0  0  0
   -8.1421   -0.8450  -18.8808 C   0  0  0  0  0  0  0  0  0  0  0  0
   -4.2674   -2.0359  -24.6752 C   0  0  0  0  0  0  0  0  0  0  0  0
   -8.0010   -0.4956  -22.6444 C   0  0  0  0  0  0  0  0  0  0  0  0
   -7.9152   -0.2600  -20.2406 C   0  0  0  0  0  0  0  0  0  0  0  0
   -7.2393    1.4979  -21.6763 C   0  0  0  0  0  0  0  0  0  0  0  0
   -8.3302   -1.3587  -23.7784 C   0  0  0  0  0  0  0  0  0  0  0  0
   -6.2695    1.1017  -25.0237 C   0  0  0  0  0  0  0  0  0  0  0  0
   -7.2960    1.3369  -24.1488 C   0  0  0  0  0  0  0  0  0  0  0  0
   -3.8844    0.6572  -24.4116 C   0  0  0  0  0  0  0  0  0  0  0  0
   -3.0708   -1.5675  -24.3270 N   0  0  0  0  0  0  0  0  0  0  0  0
   -7.1121   -1.7812  -18.5388 N   0  0  0  0  0  4  0  0  0  0  0  0
   -8.1224    2.2271  -24.7684 N   0  0  0  0  0  0  0  0  0  0  0  0
  1  2  1  0
  1  3  1  0
 17  1  1  0
  2 22  2  0
  4  7  2  0
 17  4  1  0
  4 19  1  0
  5 13  1  0
  5 15  2  0
 18  5  1  0
 19  6  2  0
  6 20  1  0
  7 12  1  0
 13  8  2  0
  8 14  1  0
  9 14  2  0
 15  9  1  0
 15 10  1  0
 14 11  1  0
 11 21  1  0
 12 20  2  0
 13 16  1  0
 17 18  2  0
 18 22  1  0
M  CHG  1  21   1
M  END
$$$$
