
     RDKit          3D

 22 24  0  0  0  0  0  0  0  0999 V2000
   -6.2095    6.3730  -22.9341 N   0  0  0  0  0  0  0  0  0  0  0  0
   -5.7845    5.0846  -23.0343 C   0  0  0  0  0  0  0  0  0  0  0  0
   -7.4492    6.8285  -23.5581 C   0  0  0  0  0  0  0  0  0  0  0  0
   -5.4176    8.4745  -21.8714 C   0  0  0  0  0  0  0  0  0  0  0  0
   -3.1402    6.5266  -21.0334 C   0  0  0  0  0  0  0  0  0  0  0  0
   -5.5220   10.8087  -22.4214 C   0  0  0  0  0  0  0  0  0  0  0  0
   -5.4852    8.8968  -20.5575 C   0  0  0  0  0  0  0  0  0  0  0  0
   -0.8539    7.2650  -20.8289 C   0  0  0  0  0  0  0  0  0  0  0  0
   -2.0228    6.6287  -18.8849 C   0  0  0  0  0  0  0  0  0  0  0  0
   -4.3571    5.8604  -18.9816 C   0  0  0  0  0  0  0  0  0  0  0  0
    0.3488    7.3916  -18.6509 C   0  0  0  0  0  0  0  0  0  0  0  0
   -5.5673   10.2096  -20.1876 C   0  0  0  0  0  0  0  0  0  0  0  0
   -1.9743    6.9890  -21.6085 C   0  0  0  0  0  0  0  0  0  0  0  0
   -0.8744    7.0850  -19.4586 C   0  0  0  0  0  0  0  0  0  0  0  0
   -3.1197    6.3604  -19.6632 C   0  0  0  0  0  0  0  0  0  0  0  0
   -1.8637    7.2076  -23.0505 C   0  0  0  0  0  0  0  0  0  0  0  0
   -5.3315    7.0733  -22.2080 C   0  0  0  0  0  0  0  0  0  0  0  0
   -4.3193    6.2333  -21.8282 C   0  0  0  0  0  0  0  0  0  0  0  0
   -5.4388    9.4964  -22.8227 C   0  0  0  0  0  0  0  0  0  0  0  0
   -5.5845   11.1496  -21.1304 N   0  0  0  0  0  0  0  0  0  0  0  0
    1.4687    6.6097  -19.0855 N   0  0  0  0  0  4  0  0  0  0  0  0
   -4.6260    5.0126  -22.3527 N   0  0  0  0  0  0  0  0  0  0  0  0
  1  2  1  0
  1  3  1  0
 17  1  1  0
  2 22  2  0
  4  7  2  0
 17  4  1  0
  4 19  1  0
  5 13  1  0
  5 15  2  0
 18  5  1  0
 19  6  2  0
  6 20  1  0
  7 12  1  0
 13  8  2  0
  8 14  1  0
  9 14  2  0
 15  9  1  0
 15 10  1  0
 14 11  1  0
 11 21  1  0
 12 20  2  0
 13 16  1  0
 17 18  2  0
 18 22  1  0
M  CHG  1  21   1
M  END
$$$$
