
     RDKit          3D

 22 24  0  0  0  0  0  0  0  0999 V2000
   -2.0475    8.2424  -21.0595 N   0  0  0  0  0  0  0  0  0  0  0  0
   -1.6185    8.4237  -22.3377 C   0  0  0  0  0  0  0  0  0  0  0  0
   -1.1771    8.4814  -19.9111 C   0  0  0  0  0  0  0  0  0  0  0  0
   -4.1408    7.5336  -19.9243 C   0  0  0  0  0  0  0  0  0  0  0  0
   -5.0258    7.3528  -22.9020 C   0  0  0  0  0  0  0  0  0  0  0  0
   -4.6010    6.4033  -17.8573 C   0  0  0  0  0  0  0  0  0  0  0  0
   -5.3756    8.1268  -19.7442 C   0  0  0  0  0  0  0  0  0  0  0  0
   -6.6417    5.6666  -23.5019 C   0  0  0  0  0  0  0  0  0  0  0  0
   -7.1863    7.9345  -23.8343 C   0  0  0  0  0  0  0  0  0  0  0  0
   -5.6113    9.7331  -23.2571 C   0  0  0  0  0  0  0  0  0  0  0  0
   -8.8770    6.2004  -24.4636 C   0  0  0  0  0  0  0  0  0  0  0  0
   -6.1879    7.8744  -18.6749 C   0  0  0  0  0  0  0  0  0  0  0  0
   -5.3953    6.0267  -22.9960 C   0  0  0  0  0  0  0  0  0  0  0  0
   -7.5453    6.6233  -23.9246 C   0  0  0  0  0  0  0  0  0  0  0  0
   -5.9559    8.2767  -23.3343 C   0  0  0  0  0  0  0  0  0  0  0  0
   -4.5017    4.9489  -22.5725 C   0  0  0  0  0  0  0  0  0  0  0  0
   -3.3213    7.8355  -21.0739 C   0  0  0  0  0  0  0  0  0  0  0  0
   -3.7315    7.7492  -22.3773 C   0  0  0  0  0  0  0  0  0  0  0  0
   -3.7634    6.6378  -18.9219 C   0  0  0  0  0  0  0  0  0  0  0  0
   -5.7855    7.0122  -17.7436 N   0  0  0  0  0  0  0  0  0  0  0  0
   -8.7390    5.5252  -25.7203 N   0  0  0  0  0  4  0  0  0  0  0  0
   -2.6593    8.1182  -23.1347 N   0  0  0  0  0  0  0  0  0  0  0  0
  1  2  1  0
  1  3  1  0
 17  1  1  0
  2 22  2  0
  4  7  2  0
 17  4  1  0
  4 19  1  0
  5 13  1  0
  5 15  2  0
 18  5  1  0
 19  6  2  0
  6 20  1  0
  7 12  1  0
 13  8  2  0
  8 14  1  0
  9 14  2  0
 15  9  1  0
 15 10  1  0
 14 11  1  0
 11 21  1  0
 12 20  2  0
 13 16  1  0
 17 18  2  0
 18 22  1  0
M  CHG  1  21   1
M  END
$$$$
