
     RDKit          3D

 22 24  0  0  0  0  0  0  0  0999 V2000
   -6.2921    8.2266  -21.0929 N   0  0  0  0  0  0  0  0  0  0  0  0
   -6.0593    9.5124  -20.7144 C   0  0  0  0  0  0  0  0  0  0  0  0
   -7.6435    7.7203  -21.3188 C   0  0  0  0  0  0  0  0  0  0  0  0
   -4.9417    6.2000  -21.5848 C   0  0  0  0  0  0  0  0  0  0  0  0
   -2.6854    8.2216  -20.8744 C   0  0  0  0  0  0  0  0  0  0  0  0
   -4.2915    3.9287  -21.1604 C   0  0  0  0  0  0  0  0  0  0  0  0
   -5.2587    5.7532  -22.8533 C   0  0  0  0  0  0  0  0  0  0  0  0
   -0.6588    7.5946  -19.7280 C   0  0  0  0  0  0  0  0  0  0  0  0
   -0.5420    8.1851  -22.0057 C   0  0  0  0  0  0  0  0  0  0  0  0
   -2.5481    8.8403  -23.2687 C   0  0  0  0  0  0  0  0  0  0  0  0
    1.5724    7.5379  -20.8346 C   0  0  0  0  0  0  0  0  0  0  0  0
   -5.1019    4.4586  -23.2611 C   0  0  0  0  0  0  0  0  0  0  0  0
   -2.0342    7.8123  -19.7287 C   0  0  0  0  0  0  0  0  0  0  0  0
    0.0952    7.7811  -20.8713 C   0  0  0  0  0  0  0  0  0  0  0  0
   -1.8971    8.3963  -21.9940 C   0  0  0  0  0  0  0  0  0  0  0  0
   -2.7533    7.5912  -18.4743 C   0  0  0  0  0  0  0  0  0  0  0  0
   -5.1267    7.5805  -21.2051 C   0  0  0  0  0  0  0  0  0  0  0  0
   -4.1184    8.4537  -20.8963 C   0  0  0  0  0  0  0  0  0  0  0  0
   -4.4386    5.2236  -20.7227 C   0  0  0  0  0  0  0  0  0  0  0  0
   -4.6182    3.5622  -22.4037 N   0  0  0  0  0  0  0  0  0  0  0  0
    1.8751    6.1471  -21.0030 N   0  0  0  0  0  4  0  0  0  0  0  0
   -4.7243    9.6381  -20.5976 N   0  0  0  0  0  0  0  0  0  0  0  0
  1  2  1  0
  1  3  1  0
 17  1  1  0
  2 22  2  0
  4  7  2  0
 17  4  1  0
  4 19  1  0
  5 13  1  0
  5 15  2  0
 18  5  1  0
 19  6  2  0
  6 20  1  0
  7 12  1  0
 13  8  2  0
  8 14  1  0
  9 14  2  0
 15  9  1  0
 15 10  1  0
 14 11  1  0
 11 21  1  0
 12 20  2  0
 13 16  1  0
 17 18  2  0
 18 22  1  0
M  CHG  1  21   1
M  END
$$$$
