
     RDKit          3D

 22 24  0  0  0  0  0  0  0  0999 V2000
   -5.7381    7.9287  -19.6842 N   0  0  0  0  0  0  0  0  0  0  0  0
   -6.5359    8.2167  -20.7478 C   0  0  0  0  0  0  0  0  0  0  0  0
   -6.2622    7.8547  -18.3227 C   0  0  0  0  0  0  0  0  0  0  0  0
   -3.3377    7.4209  -19.2928 C   0  0  0  0  0  0  0  0  0  0  0  0
   -3.3342    7.8146  -22.3795 C   0  0  0  0  0  0  0  0  0  0  0  0
   -1.1587    7.8609  -18.3873 C   0  0  0  0  0  0  0  0  0  0  0  0
   -3.2867    6.2562  -18.5512 C   0  0  0  0  0  0  0  0  0  0  0  0
   -1.5370    8.8121  -23.6401 C   0  0  0  0  0  0  0  0  0  0  0  0
   -1.8643    6.4827  -23.7726 C   0  0  0  0  0  0  0  0  0  0  0  0
   -3.6672    5.3648  -22.5281 C   0  0  0  0  0  0  0  0  0  0  0  0
    0.0062    7.4980  -25.0887 C   0  0  0  0  0  0  0  0  0  0  0  0
   -2.2262    5.9056  -17.7643 C   0  0  0  0  0  0  0  0  0  0  0  0
   -2.6138    8.9267  -22.7648 C   0  0  0  0  0  0  0  0  0  0  0  0
   -1.1568    7.5845  -24.1493 C   0  0  0  0  0  0  0  0  0  0  0  0
   -2.9229    6.6083  -22.9098 C   0  0  0  0  0  0  0  0  0  0  0  0
   -2.9466   10.2643  -22.2755 C   0  0  0  0  0  0  0  0  0  0  0  0
   -4.4837    7.7437  -20.1093 C   0  0  0  0  0  0  0  0  0  0  0  0
   -4.4598    7.9125  -21.4678 C   0  0  0  0  0  0  0  0  0  0  0  0
   -2.2112    8.2391  -19.1868 C   0  0  0  0  0  0  0  0  0  0  0  0
   -1.1735    6.7178  -17.6945 N   0  0  0  0  0  0  0  0  0  0  0  0
    1.2458    7.4070  -24.3750 N   0  0  0  0  0  4  0  0  0  0  0  0
   -5.7407    8.2036  -21.8337 N   0  0  0  0  0  0  0  0  0  0  0  0
  1  2  1  0
  1  3  1  0
 17  1  1  0
  2 22  2  0
  4  7  2  0
 17  4  1  0
  4 19  1  0
  5 13  1  0
  5 15  2  0
 18  5  1  0
 19  6  2  0
  6 20  1  0
  7 12  1  0
 13  8  2  0
  8 14  1  0
  9 14  2  0
 15  9  1  0
 15 10  1  0
 14 11  1  0
 11 21  1  0
 12 20  2  0
 13 16  1  0
 17 18  2  0
 18 22  1  0
M  CHG  1  21   1
M  END
$$$$
