
     RDKit          3D

 22 24  0  0  0  0  0  0  0  0999 V2000
   -4.6973    9.2442  -21.1656 N   0  0  0  0  0  0  0  0  0  0  0  0
   -5.3530    9.3702  -22.3509 C   0  0  0  0  0  0  0  0  0  0  0  0
   -4.4747   10.3848  -20.2806 C   0  0  0  0  0  0  0  0  0  0  0  0
   -3.6152    7.4230  -19.8675 C   0  0  0  0  0  0  0  0  0  0  0  0
   -4.5926    5.8351  -22.3587 C   0  0  0  0  0  0  0  0  0  0  0  0
   -1.7695    7.3436  -18.3349 C   0  0  0  0  0  0  0  0  0  0  0  0
   -4.1109    6.3514  -19.1497 C   0  0  0  0  0  0  0  0  0  0  0  0
   -5.4497    3.5827  -22.4382 C   0  0  0  0  0  0  0  0  0  0  0  0
   -3.2222    3.9769  -23.0965 C   0  0  0  0  0  0  0  0  0  0  0  0
   -2.2492    6.2353  -23.0532 C   0  0  0  0  0  0  0  0  0  0  0  0
   -4.0920    1.6324  -23.1862 C   0  0  0  0  0  0  0  0  0  0  0  0
   -3.4715    5.7988  -18.0761 C   0  0  0  0  0  0  0  0  0  0  0  0
   -5.6231    4.9376  -22.1674 C   0  0  0  0  0  0  0  0  0  0  0  0
   -4.2435    3.0956  -22.9056 C   0  0  0  0  0  0  0  0  0  0  0  0
   -3.4051    5.3090  -22.8262 C   0  0  0  0  0  0  0  0  0  0  0  0
   -6.9324    5.3654  -21.6754 C   0  0  0  0  0  0  0  0  0  0  0  0
   -4.3316    7.9692  -20.9957 C   0  0  0  0  0  0  0  0  0  0  0  0
   -4.7530    7.2514  -22.0827 C   0  0  0  0  0  0  0  0  0  0  0  0
   -2.3901    7.9197  -19.4180 C   0  0  0  0  0  0  0  0  0  0  0  0
   -2.3049    6.3063  -17.6837 N   0  0  0  0  0  0  0  0  0  0  0  0
   -4.9770    1.2086  -24.2309 N   0  0  0  0  0  4  0  0  0  0  0  0
   -5.3802    8.1426  -22.9023 N   0  0  0  0  0  0  0  0  0  0  0  0
  1  2  1  0
  1  3  1  0
 17  1  1  0
  2 22  2  0
  4  7  2  0
 17  4  1  0
  4 19  1  0
  5 13  1  0
  5 15  2  0
 18  5  1  0
 19  6  2  0
  6 20  1  0
  7 12  1  0
 13  8  2  0
  8 14  1  0
  9 14  2  0
 15  9  1  0
 15 10  1  0
 14 11  1  0
 11 21  1  0
 12 20  2  0
 13 16  1  0
 17 18  2  0
 18 22  1  0
M  CHG  1  21   1
M  END
$$$$
