
     RDKit          3D

 22 24  0  0  0  0  0  0  0  0999 V2000
   -7.6966   14.8398  -28.5518 N   0  0  0  0  0  0  0  0  0  0  0  0
   -8.9649   14.3553  -28.6375 C   0  0  0  0  0  0  0  0  0  0  0  0
   -6.6158   14.3286  -29.3910 C   0  0  0  0  0  0  0  0  0  0  0  0
   -6.4901   16.5606  -27.2267 C   0  0  0  0  0  0  0  0  0  0  0  0
   -9.3565   16.8522  -26.0515 C   0  0  0  0  0  0  0  0  0  0  0  0
   -4.7844   18.2098  -27.5909 C   0  0  0  0  0  0  0  0  0  0  0  0
   -5.8904   16.3760  -25.9957 C   0  0  0  0  0  0  0  0  0  0  0  0
   -9.8785   17.3478  -23.7502 C   0  0  0  0  0  0  0  0  0  0  0  0
  -10.1534   19.0372  -25.3690 C   0  0  0  0  0  0  0  0  0  0  0  0
   -9.6503   18.6374  -27.7430 C   0  0  0  0  0  0  0  0  0  0  0  0
  -10.7008   19.5720  -22.9866 C   0  0  0  0  0  0  0  0  0  0  0  0
   -4.7912   17.0715  -25.5772 C   0  0  0  0  0  0  0  0  0  0  0  0
   -9.4431   16.4606  -24.7312 C   0  0  0  0  0  0  0  0  0  0  0  0
  -10.2367   18.6446  -24.0670 C   0  0  0  0  0  0  0  0  0  0  0  0
   -9.7231   18.1544  -26.3263 C   0  0  0  0  0  0  0  0  0  0  0  0
   -9.0849   15.1075  -24.3067 C   0  0  0  0  0  0  0  0  0  0  0  0
   -7.6511   15.7981  -27.6202 C   0  0  0  0  0  0  0  0  0  0  0  0
   -8.9048   15.9429  -27.0893 C   0  0  0  0  0  0  0  0  0  0  0  0
   -5.8897   17.5254  -28.0381 C   0  0  0  0  0  0  0  0  0  0  0  0
   -4.2529   17.9821  -26.3858 N   0  0  0  0  0  0  0  0  0  0  0  0
   -9.6585   20.4727  -22.5909 N   0  0  0  0  0  4  0  0  0  0  0  0
   -9.6946   15.0393  -27.7367 N   0  0  0  0  0  0  0  0  0  0  0  0
  1  2  1  0
  1  3  1  0
 17  1  1  0
  2 22  2  0
  4  7  2  0
 17  4  1  0
  4 19  1  0
  5 13  1  0
  5 15  2  0
 18  5  1  0
 19  6  2  0
  6 20  1  0
  7 12  1  0
 13  8  2  0
  8 14  1  0
  9 14  2  0
 15  9  1  0
 15 10  1  0
 14 11  1  0
 11 21  1  0
 12 20  2  0
 13 16  1  0
 17 18  2  0
 18 22  1  0
M  CHG  1  21   1
M  END
$$$$
