
     RDKit          3D

 22 24  0  0  0  0  0  0  0  0999 V2000
   -4.7961    8.7882  -23.3885 N   0  0  0  0  0  0  0  0  0  0  0  0
   -5.7474    9.5757  -22.8178 C   0  0  0  0  0  0  0  0  0  0  0  0
   -4.4591    8.8881  -24.8063 C   0  0  0  0  0  0  0  0  0  0  0  0
   -3.2454    6.9883  -22.6616 C   0  0  0  0  0  0  0  0  0  0  0  0
   -4.6848    7.6111  -19.9740 C   0  0  0  0  0  0  0  0  0  0  0  0
   -1.0244    6.1229  -22.3793 C   0  0  0  0  0  0  0  0  0  0  0  0
   -3.4773    5.8413  -23.3964 C   0  0  0  0  0  0  0  0  0  0  0  0
   -3.6807    7.5754  -17.7821 C   0  0  0  0  0  0  0  0  0  0  0  0
   -5.0930    5.7995  -18.4162 C   0  0  0  0  0  0  0  0  0  0  0  0
   -6.1672    5.7377  -20.6278 C   0  0  0  0  0  0  0  0  0  0  0  0
   -4.0609    5.7432  -16.1374 C   0  0  0  0  0  0  0  0  0  0  0  0
   -2.5326    4.8787  -23.6153 C   0  0  0  0  0  0  0  0  0  0  0  0
   -3.8746    8.1879  -19.0175 C   0  0  0  0  0  0  0  0  0  0  0  0
   -4.2918    6.3741  -17.4758 C   0  0  0  0  0  0  0  0  0  0  0  0
   -5.2762    6.4124  -19.6294 C   0  0  0  0  0  0  0  0  0  0  0  0
   -3.1886    9.4574  -19.2566 C   0  0  0  0  0  0  0  0  0  0  0  0
   -4.2797    7.9753  -22.4607 C   0  0  0  0  0  0  0  0  0  0  0  0
   -4.9003    8.2334  -21.2679 C   0  0  0  0  0  0  0  0  0  0  0  0
   -1.9545    7.1073  -22.1429 C   0  0  0  0  0  0  0  0  0  0  0  0
   -1.3148    5.0356  -23.1005 N   0  0  0  0  0  0  0  0  0  0  0  0
   -5.2704    5.6938  -15.3700 N   0  0  0  0  0  4  0  0  0  0  0  0
   -5.8012    9.2257  -21.5191 N   0  0  0  0  0  0  0  0  0  0  0  0
  1  2  1  0
  1  3  1  0
 17  1  1  0
  2 22  2  0
  4  7  2  0
 17  4  1  0
  4 19  1  0
  5 13  1  0
  5 15  2  0
 18  5  1  0
 19  6  2  0
  6 20  1  0
  7 12  1  0
 13  8  2  0
  8 14  1  0
  9 14  2  0
 15  9  1  0
 15 10  1  0
 14 11  1  0
 11 21  1  0
 12 20  2  0
 13 16  1  0
 17 18  2  0
 18 22  1  0
M  CHG  1  21   1
M  END
$$$$
