
     RDKit          3D

 22 24  0  0  0  0  0  0  0  0999 V2000
   -6.2428    8.2863  -22.0847 N   0  0  0  0  0  0  0  0  0  0  0  0
   -6.0819    9.5843  -21.7106 C   0  0  0  0  0  0  0  0  0  0  0  0
   -7.3618    7.8556  -22.9189 C   0  0  0  0  0  0  0  0  0  0  0  0
   -5.0570    6.1308  -21.7380 C   0  0  0  0  0  0  0  0  0  0  0  0
   -3.2200    8.0509  -20.1190 C   0  0  0  0  0  0  0  0  0  0  0  0
   -5.6877    3.8340  -21.4398 C   0  0  0  0  0  0  0  0  0  0  0  0
   -3.9616    5.6248  -22.4113 C   0  0  0  0  0  0  0  0  0  0  0  0
   -2.0999    7.2108  -18.1558 C   0  0  0  0  0  0  0  0  0  0  0  0
   -0.8023    7.9506  -19.9778 C   0  0  0  0  0  0  0  0  0  0  0  0
   -1.8437    8.8256  -22.0269 C   0  0  0  0  0  0  0  0  0  0  0  0
    0.3795    7.0828  -17.9501 C   0  0  0  0  0  0  0  0  0  0  0  0
   -3.7351    4.2897  -22.5931 C   0  0  0  0  0  0  0  0  0  0  0  0
   -3.2690    7.5196  -18.8464 C   0  0  0  0  0  0  0  0  0  0  0  0
   -0.8573    7.4262  -18.7215 C   0  0  0  0  0  0  0  0  0  0  0  0
   -1.9607    8.2506  -20.6479 C   0  0  0  0  0  0  0  0  0  0  0  0
   -4.5404    7.2596  -18.1715 C   0  0  0  0  0  0  0  0  0  0  0  0
   -5.2487    7.5522  -21.5735 C   0  0  0  0  0  0  0  0  0  0  0  0
   -4.4270    8.3794  -20.8560 C   0  0  0  0  0  0  0  0  0  0  0  0
   -5.9412    5.1706  -21.2418 C   0  0  0  0  0  0  0  0  0  0  0  0
   -4.6063    3.4109  -22.1018 N   0  0  0  0  0  0  0  0  0  0  0  0
    0.1754    7.2446  -16.5407 N   0  0  0  0  0  4  0  0  0  0  0  0
   -4.9664    9.6275  -20.9586 N   0  0  0  0  0  0  0  0  0  0  0  0
  1  2  1  0
  1  3  1  0
 17  1  1  0
  2 22  2  0
  4  7  2  0
 17  4  1  0
  4 19  1  0
  5 13  1  0
  5 15  2  0
 18  5  1  0
 19  6  2  0
  6 20  1  0
  7 12  1  0
 13  8  2  0
  8 14  1  0
  9 14  2  0
 15  9  1  0
 15 10  1  0
 14 11  1  0
 11 21  1  0
 12 20  2  0
 13 16  1  0
 17 18  2  0
 18 22  1  0
M  CHG  1  21   1
M  END
$$$$
