
     RDKit          3D

 22 24  0  0  0  0  0  0  0  0999 V2000
   -2.2516    7.6607  -19.2866 N   0  0  0  0  0  0  0  0  0  0  0  0
   -1.0724    8.2317  -19.6529 C   0  0  0  0  0  0  0  0  0  0  0  0
   -2.4032    6.9437  -18.0230 C   0  0  0  0  0  0  0  0  0  0  0  0
   -4.5365    7.4318  -20.2349 C   0  0  0  0  0  0  0  0  0  0  0  0
   -3.1517    9.0681  -22.4906 C   0  0  0  0  0  0  0  0  0  0  0  0
   -6.9080    7.8008  -20.2737 C   0  0  0  0  0  0  0  0  0  0  0  0
   -4.8602    6.0898  -20.1772 C   0  0  0  0  0  0  0  0  0  0  0  0
   -4.1305   10.8062  -23.8452 C   0  0  0  0  0  0  0  0  0  0  0  0
   -3.8497    8.6602  -24.7757 C   0  0  0  0  0  0  0  0  0  0  0  0
   -2.8625    6.8166  -23.4813 C   0  0  0  0  0  0  0  0  0  0  0  0
   -4.8675   10.4496  -26.1981 C   0  0  0  0  0  0  0  0  0  0  0  0
   -6.1433    5.6203  -20.1678 C   0  0  0  0  0  0  0  0  0  0  0  0
   -3.5781   10.3715  -22.6431 C   0  0  0  0  0  0  0  0  0  0  0  0
   -4.2688    9.9484  -24.9201 C   0  0  0  0  0  0  0  0  0  0  0  0
   -3.3072    8.2437  -23.5869 C   0  0  0  0  0  0  0  0  0  0  0  0
   -3.4703   11.3465  -21.5581 C   0  0  0  0  0  0  0  0  0  0  0  0
   -3.1626    7.8750  -20.2418 C   0  0  0  0  0  0  0  0  0  0  0  0
   -2.5729    8.5951  -21.2460 C   0  0  0  0  0  0  0  0  0  0  0  0
   -5.6278    8.3016  -20.2845 C   0  0  0  0  0  0  0  0  0  0  0  0
   -7.1521    6.4878  -20.2165 N   0  0  0  0  0  0  0  0  0  0  0  0
   -4.1080   11.5396  -26.7360 N   0  0  0  0  0  4  0  0  0  0  0  0
   -1.2829    8.8004  -20.8546 N   0  0  0  0  0  0  0  0  0  0  0  0
  1  2  1  0
  1  3  1  0
 17  1  1  0
  2 22  2  0
  4  7  2  0
 17  4  1  0
  4 19  1  0
  5 13  1  0
  5 15  2  0
 18  5  1  0
 19  6  2  0
  6 20  1  0
  7 12  1  0
 13  8  2  0
  8 14  1  0
  9 14  2  0
 15  9  1  0
 15 10  1  0
 14 11  1  0
 11 21  1  0
 12 20  2  0
 13 16  1  0
 17 18  2  0
 18 22  1  0
M  CHG  1  21   1
M  END
$$$$
