
     RDKit          3D

 22 24  0  0  0  0  0  0  0  0999 V2000
   -6.5339    7.8419  -21.4614 N   0  0  0  0  0  0  0  0  0  0  0  0
   -6.5458    9.1276  -21.0169 C   0  0  0  0  0  0  0  0  0  0  0  0
   -7.7394    7.1861  -21.9620 C   0  0  0  0  0  0  0  0  0  0  0  0
   -4.8653    6.0192  -21.7184 C   0  0  0  0  0  0  0  0  0  0  0  0
   -3.0681    8.2648  -20.5310 C   0  0  0  0  0  0  0  0  0  0  0  0
   -3.5623    4.4650  -23.0024 C   0  0  0  0  0  0  0  0  0  0  0  0
   -5.3754    4.8989  -21.0906 C   0  0  0  0  0  0  0  0  0  0  0  0
   -0.7677    8.7469  -21.0696 C   0  0  0  0  0  0  0  0  0  0  0  0
   -1.2516    7.5928  -19.0735 C   0  0  0  0  0  0  0  0  0  0  0  0
   -3.5626    7.0506  -18.4296 C   0  0  0  0  0  0  0  0  0  0  0  0
    1.1419    8.0829  -19.6140 C   0  0  0  0  0  0  0  0  0  0  0  0
   -5.0011    3.6217  -21.3995 C   0  0  0  0  0  0  0  0  0  0  0  0
   -2.1245    8.8117  -21.3763 C   0  0  0  0  0  0  0  0  0  0  0  0
   -0.3247    8.1346  -19.9123 C   0  0  0  0  0  0  0  0  0  0  0  0
   -2.5851    7.6628  -19.3865 C   0  0  0  0  0  0  0  0  0  0  0  0
   -2.5039    9.4778  -22.6220 C   0  0  0  0  0  0  0  0  0  0  0  0
   -5.2959    7.3480  -21.3536 C   0  0  0  0  0  0  0  0  0  0  0  0
   -4.4872    8.3220  -20.8321 C   0  0  0  0  0  0  0  0  0  0  0  0
   -3.9198    5.7605  -22.7129 C   0  0  0  0  0  0  0  0  0  0  0  0
   -4.0957    3.4240  -22.3555 N   0  0  0  0  0  0  0  0  0  0  0  0
    1.5784    6.7377  -19.3813 N   0  0  0  0  0  4  0  0  0  0  0  0
   -5.2863    9.4090  -20.6345 N   0  0  0  0  0  0  0  0  0  0  0  0
  1  2  1  0
  1  3  1  0
 17  1  1  0
  2 22  2  0
  4  7  2  0
 17  4  1  0
  4 19  1  0
  5 13  1  0
  5 15  2  0
 18  5  1  0
 19  6  2  0
  6 20  1  0
  7 12  1  0
 13  8  2  0
  8 14  1  0
  9 14  2  0
 15  9  1  0
 15 10  1  0
 14 11  1  0
 11 21  1  0
 12 20  2  0
 13 16  1  0
 17 18  2  0
 18 22  1  0
M  CHG  1  21   1
M  END
$$$$
