
     RDKit          3D

 22 24  0  0  0  0  0  0  0  0999 V2000
   -4.7083    7.5020  -18.6491 N   0  0  0  0  0  0  0  0  0  0  0  0
   -3.9024    8.4477  -18.0952 C   0  0  0  0  0  0  0  0  0  0  0  0
   -5.6553    6.7292  -17.8493 C   0  0  0  0  0  0  0  0  0  0  0  0
   -5.1204    6.5574  -20.9097 C   0  0  0  0  0  0  0  0  0  0  0  0
   -2.9084    8.6452  -21.5662 C   0  0  0  0  0  0  0  0  0  0  0  0
   -5.1755    4.6739  -22.3966 C   0  0  0  0  0  0  0  0  0  0  0  0
   -6.4333    6.7547  -21.2927 C   0  0  0  0  0  0  0  0  0  0  0  0
   -1.1453    8.4062  -23.1937 C   0  0  0  0  0  0  0  0  0  0  0  0
   -2.9896    9.7795  -23.7068 C   0  0  0  0  0  0  0  0  0  0  0  0
   -4.8412   10.0922  -22.1185 C   0  0  0  0  0  0  0  0  0  0  0  0
   -1.1707    9.5452  -25.4092 C   0  0  0  0  0  0  0  0  0  0  0  0
   -7.0904    5.9539  -22.1838 C   0  0  0  0  0  0  0  0  0  0  0  0
   -1.6966    8.1084  -21.9501 C   0  0  0  0  0  0  0  0  0  0  0  0
   -1.7926    9.2464  -24.0801 C   0  0  0  0  0  0  0  0  0  0  0  0
   -3.5224    9.4788  -22.4793 C   0  0  0  0  0  0  0  0  0  0  0  0
   -0.9429    7.2107  -21.0752 C   0  0  0  0  0  0  0  0  0  0  0  0
   -4.4725    7.4346  -19.9637 C   0  0  0  0  0  0  0  0  0  0  0  0
   -3.5004    8.3472  -20.2745 C   0  0  0  0  0  0  0  0  0  0  0  0
   -4.4895    5.4623  -21.5034 C   0  0  0  0  0  0  0  0  0  0  0  0
   -6.4476    4.9208  -22.7244 N   0  0  0  0  0  0  0  0  0  0  0  0
   -1.6327    8.6357  -26.4160 N   0  0  0  0  0  4  0  0  0  0  0  0
   -3.1679    8.9575  -19.1014 N   0  0  0  0  0  0  0  0  0  0  0  0
  1  2  1  0
  1  3  1  0
 17  1  1  0
  2 22  2  0
  4  7  2  0
 17  4  1  0
  4 19  1  0
  5 13  1  0
  5 15  2  0
 18  5  1  0
 19  6  2  0
  6 20  1  0
  7 12  1  0
 13  8  2  0
  8 14  1  0
  9 14  2  0
 15  9  1  0
 15 10  1  0
 14 11  1  0
 11 21  1  0
 12 20  2  0
 13 16  1  0
 17 18  2  0
 18 22  1  0
M  CHG  1  21   1
M  END
$$$$
