
     RDKit          3D

 22 24  0  0  0  0  0  0  0  0999 V2000
  -10.7196   11.9113  -26.6390 N   0  0  0  0  0  0  0  0  0  0  0  0
  -11.8176   12.7101  -26.5544 C   0  0  0  0  0  0  0  0  0  0  0  0
  -10.8250   10.4550  -26.6820 C   0  0  0  0  0  0  0  0  0  0  0  0
   -8.2560   12.2088  -26.7591 C   0  0  0  0  0  0  0  0  0  0  0  0
   -9.1753   15.1779  -26.6114 C   0  0  0  0  0  0  0  0  0  0  0  0
   -5.9679   12.1318  -26.0375 C   0  0  0  0  0  0  0  0  0  0  0  0
   -7.8611   11.3111  -27.7325 C   0  0  0  0  0  0  0  0  0  0  0  0
   -7.9896   16.9363  -25.4641 C   0  0  0  0  0  0  0  0  0  0  0  0
   -7.9520   16.8867  -27.8192 C   0  0  0  0  0  0  0  0  0  0  0  0
   -9.1276   15.1378  -29.0874 C   0  0  0  0  0  0  0  0  0  0  0  0
   -6.7154   18.7198  -26.6480 C   0  0  0  0  0  0  0  0  0  0  0  0
   -6.5834   10.8432  -27.8572 C   0  0  0  0  0  0  0  0  0  0  0  0
   -8.7842   15.7930  -25.4398 C   0  0  0  0  0  0  0  0  0  0  0  0
   -7.5690   17.4895  -26.6589 C   0  0  0  0  0  0  0  0  0  0  0  0
   -8.7346   15.7610  -27.7824 C   0  0  0  0  0  0  0  0  0  0  0  0
   -9.1837   15.2763  -24.1310 C   0  0  0  0  0  0  0  0  0  0  0  0
   -9.6205   12.6722  -26.6717 C   0  0  0  0  0  0  0  0  0  0  0  0
  -10.0032   13.9852  -26.6078 C   0  0  0  0  0  0  0  0  0  0  0  0
   -7.2447   12.6194  -25.8882 C   0  0  0  0  0  0  0  0  0  0  0  0
   -5.6523   11.2632  -27.0032 N   0  0  0  0  0  0  0  0  0  0  0  0
   -7.4918   19.8891  -26.3579 N   0  0  0  0  0  4  0  0  0  0  0  0
  -11.3648   13.9775  -26.5361 N   0  0  0  0  0  0  0  0  0  0  0  0
  1  2  1  0
  1  3  1  0
 17  1  1  0
  2 22  2  0
  4  7  2  0
 17  4  1  0
  4 19  1  0
  5 13  1  0
  5 15  2  0
 18  5  1  0
 19  6  2  0
  6 20  1  0
  7 12  1  0
 13  8  2  0
  8 14  1  0
  9 14  2  0
 15  9  1  0
 15 10  1  0
 14 11  1  0
 11 21  1  0
 12 20  2  0
 13 16  1  0
 17 18  2  0
 18 22  1  0
M  CHG  1  21   1
M  END
$$$$
