
     RDKit          3D

 61 62  0  0  0  0  0  0  0  0999 V2000
   60.8149  117.0755   13.8234 N   0  0  0  0  0  4  0  0  0  0  0  0
   60.2248  117.3301   15.1454 C   0  0  2  0  0  0  0  0  0  0  0  0
   59.9497  116.0709   15.8571 C   0  0  0  0  0  0  0  0  0  0  0  0
   60.0420  114.9443   15.3096 O   0  0  0  0  0  0  0  0  0  0  0  0
   58.9514  118.1020   14.8458 C   0  0  0  0  0  0  0  0  0  0  0  0
   58.4540  117.8636   13.4662 C   0  0  0  0  0  0  0  0  0  0  0  0
   58.9387  118.8419   12.4987 C   0  0  0  0  0  0  0  0  0  0  0  0
   59.3804  119.9611   12.8959 O   0  0  0  0  0  0  0  0  0  0  0  0
   58.9277  118.5737   11.1438 O   0  0  0  0  0  0  0  0  0  0  0  0
   59.5574  116.1477   17.2516 N   0  0  0  0  0  0  0  0  0  0  0  0
   59.3085  114.9513   17.9781 C   0  0  2  0  0  0  0  0  0  0  0  0
   58.0786  114.2588   17.6236 C   0  0  0  0  0  0  0  0  0  0  0  0
   57.2688  115.0039   16.9090 O   0  0  0  0  0  0  0  0  0  0  0  0
   59.3208  115.2093   19.4931 C   0  0  0  0  0  0  0  0  0  0  0  0
   60.6380  114.8332   20.0241 C   0  0  0  0  0  0  0  0  0  0  0  0
   61.5657  114.1784   19.1918 O   0  0  0  0  0  0  0  0  0  0  0  0
   60.9398  115.0879   21.1989 O   0  0  0  0  0  0  0  0  0  0  0  0
   57.5830  112.9785   17.8774 N   0  0  0  0  0  0  0  0  0  0  0  0
   56.2394  112.5105   17.5179 C   0  0  2  0  0  0  0  0  0  0  0  0
   55.3777  112.4112   18.7468 C   0  0  0  0  0  0  0  0  0  0  0  0
   54.1683  112.0678   18.6988 O   0  0  0  0  0  0  0  0  0  0  0  0
   56.5127  111.0978   17.0690 C   0  0  0  0  0  0  0  0  0  0  0  0
   57.3871  110.6323   18.2457 C   0  0  0  0  0  0  0  0  0  0  0  0
   58.2472  111.8825   18.5138 C   0  0  0  0  0  0  0  0  0  0  0  0
   55.9452  112.7114   19.9977 N   0  0  0  0  0  0  0  0  0  0  0  0
   55.1760  112.7560   21.2482 C   0  0  2  0  0  0  0  0  0  0  0  0
   54.6760  114.1034   21.4239 C   0  0  0  0  0  0  0  0  0  0  0  0
   53.6146  114.2924   22.1439 O   0  0  0  0  0  0  0  0  0  0  0  0
   56.0993  112.2007   22.2863 C   0  0  0  0  0  0  0  0  0  0  0  0
   55.6245  112.1394   23.6619 C   0  0  0  0  0  0  0  0  0  0  0  0
   55.5478  113.2961   24.4404 C   0  0  0  0  0  0  0  0  0  0  0  0
   55.2131  110.9421   24.2593 C   0  0  0  0  0  0  0  0  0  0  0  0
   55.0863  113.2464   25.7359 C   0  0  0  0  0  0  0  0  0  0  0  0
   54.7574  110.9244   25.5526 C   0  0  0  0  0  0  0  0  0  0  0  0
   54.6791  112.0754   26.3333 C   0  0  0  0  0  0  0  0  0  0  0  0
   54.2136  112.0430   27.6479 O   0  0  0  0  0  0  0  0  0  0  0  0
   55.2241  115.2673   20.8888 N   0  0  0  0  0  0  0  0  0  0  0  0
   54.4770  116.5633   21.0589 C   0  0  2  0  0  0  0  0  0  0  0  0
   53.2142  116.4343   20.3158 C   0  0  0  0  0  0  0  0  0  0  0  0
   52.2222  117.1166   20.8037 O   0  0  0  0  0  0  0  0  0  0  0  0
   55.4220  117.6177   20.7457 C   0  0  0  0  0  0  0  0  0  0  0  0
   56.6979  117.7643   21.4048 C   0  0  0  0  0  0  0  0  0  0  0  0
   57.2001  118.7915   21.8582 O   0  0  0  0  0  0  0  0  0  0  0  0
   57.4862  116.5958   21.5611 O   0  0  0  0  0  0  0  0  0  0  0  0
   52.9175  115.7098   19.1719 N   0  0  0  0  0  0  0  0  0  0  0  0
   51.6351  115.9035   18.4074 C   0  0  2  0  0  0  0  0  0  0  0  0
   50.5829  115.3001   19.2054 C   0  0  0  0  0  0  0  0  0  0  0  0
   49.3935  115.1300   18.8109 O   0  0  0  0  0  0  0  0  0  0  0  0
   51.8501  115.4898   17.0161 C   0  0  0  0  0  0  0  0  0  0  0  0
   50.8140  115.5299   15.9915 C   0  0  1  0  0  0  0  0  0  0  0  0
   50.6007  114.0419   15.5584 C   0  0  0  0  0  0  0  0  0  0  0  0
   49.4822  116.0986   16.2600 C   0  0  0  0  0  0  0  0  0  0  0  0
   50.8030  114.8280   20.5604 N   0  0  0  0  0  0  0  0  0  0  0  0
   49.7152  114.3204   21.3299 C   0  0  2  0  0  0  0  0  0  0  0  0
   49.1550  115.3846   22.2431 C   0  0  0  0  0  0  0  0  0  0  0  0
   49.7145  116.6404   22.3260 O   0  0  0  0  0  0  0  0  0  0  0  0
   49.9918  113.1448   22.1880 C   0  0  0  0  0  0  0  0  0  0  0  0
   50.3685  111.9053   21.4481 C   0  0  0  0  0  0  0  0  0  0  0  0
   49.8718  111.6404   20.3043 O   0  0  0  0  0  0  0  0  0  0  0  0
   51.2899  110.9716   21.9788 N   0  0  0  0  0  0  0  0  0  0  0  0
   48.1559  115.1030   22.9370 O   0  0  0  0  0  0  0  0  0  0  0  0
  2  1  1  6
  2  3  1  0
  2  5  1  0
  3  4  2  0
  3 10  1  0
  5  6  1  0
  6  7  1  0
  7  8  2  0
  7  9  1  0
 10 11  1  0
 11 12  1  0
 11 14  1  1
 12 13  2  0
 12 18  1  0
 14 15  1  0
 15 16  1  0
 15 17  2  0
 18 19  1  0
 18 24  1  0
 19 20  1  1
 19 22  1  0
 20 21  2  0
 20 25  1  0
 22 23  1  0
 23 24  1  0
 25 26  1  0
 26 27  1  0
 26 29  1  1
 27 28  2  0
 27 37  1  0
 29 30  1  0
 30 31  2  0
 30 32  1  0
 31 33  1  0
 32 34  2  0
 33 35  2  0
 34 35  1  0
 35 36  1  0
 37 38  1  0
 38 39  1  0
 38 41  1  6
 39 40  2  0
 39 45  1  0
 41 42  1  0
 42 43  2  0
 42 44  1  0
 45 46  1  0
 46 47  1  0
 46 49  1  6
 47 48  2  0
 47 53  1  0
 49 50  1  0
 50 51  1  1
 50 52  1  0
 53 54  1  0
 54 55  1  0
 54 57  1  1
 55 56  1  0
 55 61  2  0
 57 58  1  0
 58 59  2  0
 58 60  1  0
M  CHG  1   1   1
M  END
$$$$
