
     RDKit          3D

 61 62  0  0  0  0  0  0  0  0999 V2000
   62.6630  121.3531   16.3885 N   0  0  0  0  0  4  0  0  0  0  0  0
   61.8636  120.3573   15.6603 C   0  0  2  0  0  0  0  0  0  0  0  0
   62.0916  119.0020   16.1886 C   0  0  0  0  0  0  0  0  0  0  0  0
   63.1834  118.6425   16.6949 O   0  0  0  0  0  0  0  0  0  0  0  0
   62.3231  120.4886   14.2185 C   0  0  0  0  0  0  0  0  0  0  0  0
   61.4939  119.6859   13.2829 C   0  0  0  0  0  0  0  0  0  0  0  0
   60.1457  120.2139   13.1049 C   0  0  0  0  0  0  0  0  0  0  0  0
   59.1562  119.6121   13.6189 O   0  0  0  0  0  0  0  0  0  0  0  0
   59.9195  121.3683   12.3809 O   0  0  0  0  0  0  0  0  0  0  0  0
   60.9994  118.0499   16.1170 N   0  0  0  0  0  0  0  0  0  0  0  0
   60.8375  117.0879   17.1511 C   0  0  2  0  0  0  0  0  0  0  0  0
   59.7957  116.0992   16.9164 C   0  0  0  0  0  0  0  0  0  0  0  0
   58.5901  116.6133   16.9782 O   0  0  0  0  0  0  0  0  0  0  0  0
   60.5889  117.7672   18.5071 C   0  0  0  0  0  0  0  0  0  0  0  0
   60.3289  116.7287   19.5133 C   0  0  0  0  0  0  0  0  0  0  0  0
   60.4311  115.3703   19.1578 O   0  0  0  0  0  0  0  0  0  0  0  0
   60.0204  117.0384   20.6730 O   0  0  0  0  0  0  0  0  0  0  0  0
   59.8069  114.7312   16.6379 N   0  0  0  0  0  0  0  0  0  0  0  0
   59.2385  114.1135   15.4343 C   0  0  2  0  0  0  0  0  0  0  0  0
   57.9571  113.4014   15.7712 C   0  0  0  0  0  0  0  0  0  0  0  0
   57.3667  112.6487   14.9541 O   0  0  0  0  0  0  0  0  0  0  0  0
   60.2555  113.0452   15.1240 C   0  0  0  0  0  0  0  0  0  0  0  0
   60.3924  112.4240   16.5245 C   0  0  0  0  0  0  0  0  0  0  0  0
   60.3549  113.6717   17.4282 C   0  0  0  0  0  0  0  0  0  0  0  0
   57.3982  113.5817   17.0487 N   0  0  0  0  0  0  0  0  0  0  0  0
   56.1460  112.9487   17.4835 C   0  0  2  0  0  0  0  0  0  0  0  0
   55.2368  113.9913   17.9108 C   0  0  0  0  0  0  0  0  0  0  0  0
   55.4074  115.1970   17.4657 O   0  0  0  0  0  0  0  0  0  0  0  0
   56.5646  111.9181   18.4841 C   0  0  0  0  0  0  0  0  0  0  0  0
   57.1105  110.6630   17.9860 C   0  0  0  0  0  0  0  0  0  0  0  0
   57.4881  109.6505   18.8703 C   0  0  0  0  0  0  0  0  0  0  0  0
   57.2676  110.4051   16.6191 C   0  0  0  0  0  0  0  0  0  0  0  0
   57.9908  108.4570   18.4047 C   0  0  0  0  0  0  0  0  0  0  0  0
   57.7713  109.2055   16.1854 C   0  0  0  0  0  0  0  0  0  0  0  0
   58.1494  108.1924   17.0635 C   0  0  0  0  0  0  0  0  0  0  0  0
   58.6606  106.9767   16.6087 O   0  0  0  0  0  0  0  0  0  0  0  0
   54.1566  113.8449   18.7785 N   0  0  0  0  0  0  0  0  0  0  0  0
   53.3406  115.0606   19.1294 C   0  0  2  0  0  0  0  0  0  0  0  0
   52.3225  114.6314   20.1004 C   0  0  0  0  0  0  0  0  0  0  0  0
   51.5893  115.5900   20.5812 O   0  0  0  0  0  0  0  0  0  0  0  0
   52.9596  115.6682   17.8690 C   0  0  0  0  0  0  0  0  0  0  0  0
   52.0136  116.7533   17.7626 C   0  0  0  0  0  0  0  0  0  0  0  0
   51.6904  117.3771   16.7530 O   0  0  0  0  0  0  0  0  0  0  0  0
   51.3646  117.1682   18.9534 O   0  0  0  0  0  0  0  0  0  0  0  0
   52.0138  113.3662   20.5751 N   0  0  0  0  0  0  0  0  0  0  0  0
   50.6883  113.0484   21.2142 C   0  0  2  0  0  0  0  0  0  0  0  0
   50.4397  114.0927   22.1918 C   0  0  0  0  0  0  0  0  0  0  0  0
   49.2926  114.5271   22.4992 O   0  0  0  0  0  0  0  0  0  0  0  0
   50.6840  111.6357   21.6104 C   0  0  0  0  0  0  0  0  0  0  0  0
   50.5869  110.5310   20.6643 C   0  0  1  0  0  0  0  0  0  0  0  0
   49.0597  110.3756   20.3630 C   0  0  0  0  0  0  0  0  0  0  0  0
   51.2842  110.5598   19.3673 C   0  0  0  0  0  0  0  0  0  0  0  0
   51.5085  114.7507   22.9212 N   0  0  0  0  0  0  0  0  0  0  0  0
   51.2124  115.8069   23.8322 C   0  0  2  0  0  0  0  0  0  0  0  0
   49.8625  115.6028   24.4774 C   0  0  0  0  0  0  0  0  0  0  0  0
   49.4004  116.4313   25.4760 O   0  0  0  0  0  0  0  0  0  0  0  0
   51.2031  117.1830   23.2834 C   0  0  0  0  0  0  0  0  0  0  0  0
   49.9887  117.5316   22.4901 C   0  0  0  0  0  0  0  0  0  0  0  0
   49.8279  118.6992   22.0044 O   0  0  0  0  0  0  0  0  0  0  0  0
   48.9649  116.5871   22.2410 N   0  0  0  0  0  0  0  0  0  0  0  0
   49.1564  114.6509   24.0843 O   0  0  0  0  0  0  0  0  0  0  0  0
  2  1  1  1
  2  3  1  0
  2  5  1  0
  3  4  2  0
  3 10  1  0
  5  6  1  0
  6  7  1  0
  7  8  2  0
  7  9  1  0
 10 11  1  0
 11 12  1  0
 11 14  1  1
 12 13  2  0
 12 18  1  0
 14 15  1  0
 15 16  1  0
 15 17  2  0
 18 19  1  0
 18 24  1  0
 19 20  1  1
 19 22  1  0
 20 21  2  0
 20 25  1  0
 22 23  1  0
 23 24  1  0
 25 26  1  0
 26 27  1  0
 26 29  1  1
 27 28  2  0
 27 37  1  0
 29 30  1  0
 30 31  2  0
 30 32  1  0
 31 33  1  0
 32 34  2  0
 33 35  2  0
 34 35  1  0
 35 36  1  0
 37 38  1  0
 38 39  1  0
 38 41  1  6
 39 40  2  0
 39 45  1  0
 41 42  1  0
 42 43  2  0
 42 44  1  0
 45 46  1  0
 46 47  1  0
 46 49  1  1
 47 48  2  0
 47 53  1  0
 49 50  1  0
 50 51  1  6
 50 52  1  0
 53 54  1  0
 54 55  1  0
 54 57  1  6
 55 56  1  0
 55 61  2  0
 57 58  1  0
 58 59  2  0
 58 60  1  0
M  CHG  1   1   1
M  END
$$$$
