
     RDKit          3D

 61 62  0  0  0  0  0  0  0  0999 V2000
   61.8529  121.1904   12.7411 N   0  0  0  0  0  4  0  0  0  0  0  0
   60.6701  120.8648   13.5511 C   0  0  2  0  0  0  0  0  0  0  0  0
   60.9335  119.7234   14.4431 C   0  0  0  0  0  0  0  0  0  0  0  0
   61.9029  118.9413   14.2812 O   0  0  0  0  0  0  0  0  0  0  0  0
   59.5911  120.5491   12.5298 C   0  0  0  0  0  0  0  0  0  0  0  0
   59.9827  120.9393   11.1507 C   0  0  0  0  0  0  0  0  0  0  0  0
   59.1058  121.9458   10.5624 C   0  0  0  0  0  0  0  0  0  0  0  0
   59.1791  122.2047    9.3243 O   0  0  0  0  0  0  0  0  0  0  0  0
   58.1863  122.6311   11.3322 O   0  0  0  0  0  0  0  0  0  0  0  0
   60.0278  119.5040   15.5548 N   0  0  0  0  0  0  0  0  0  0  0  0
   60.1289  118.3087   16.3177 C   0  0  2  0  0  0  0  0  0  0  0  0
   60.0426  117.0765   15.5483 C   0  0  0  0  0  0  0  0  0  0  0  0
   59.3359  117.2157   14.4515 O   0  0  0  0  0  0  0  0  0  0  0  0
   59.0783  118.2753   17.4389 C   0  0  0  0  0  0  0  0  0  0  0  0
   59.4211  117.1947   18.3734 C   0  0  0  0  0  0  0  0  0  0  0  0
   59.4504  115.8621   17.9201 O   0  0  0  0  0  0  0  0  0  0  0  0
   59.6853  117.4464   19.5579 O   0  0  0  0  0  0  0  0  0  0  0  0
   60.5514  115.7886   15.7261 N   0  0  0  0  0  0  0  0  0  0  0  0
   60.4154  114.6903   14.7624 C   0  0  2  0  0  0  0  0  0  0  0  0
   59.4080  113.6880   15.2556 C   0  0  0  0  0  0  0  0  0  0  0  0
   59.3114  112.5313   14.7702 O   0  0  0  0  0  0  0  0  0  0  0  0
   61.7649  114.0258   14.8567 C   0  0  0  0  0  0  0  0  0  0  0  0
   61.8812  113.9249   16.3871 C   0  0  0  0  0  0  0  0  0  0  0  0
   61.2908  115.2749   16.8382 C   0  0  0  0  0  0  0  0  0  0  0  0
   58.5422  114.0563   16.3004 N   0  0  0  0  0  0  0  0  0  0  0  0
   57.4816  113.1838   16.8213 C   0  0  2  0  0  0  0  0  0  0  0  0
   56.7269  113.9285   17.8073 C   0  0  0  0  0  0  0  0  0  0  0  0
   57.2733  114.1884   18.9540 O   0  0  0  0  0  0  0  0  0  0  0  0
   58.1887  111.9403   17.2595 C   0  0  0  0  0  0  0  0  0  0  0  0
   57.4216  110.9362   17.9839 C   0  0  0  0  0  0  0  0  0  0  0  0
   56.9070  109.8196   17.3219 C   0  0  0  0  0  0  0  0  0  0  0  0
   57.1779  111.0286   19.3593 C   0  0  0  0  0  0  0  0  0  0  0  0
   56.1939  108.8603   18.0040 C   0  0  0  0  0  0  0  0  0  0  0  0
   56.4639  110.0563   20.0116 C   0  0  0  0  0  0  0  0  0  0  0  0
   55.9485  108.9406   19.3558 C   0  0  0  0  0  0  0  0  0  0  0  0
   55.2237  107.9589   20.0318 O   0  0  0  0  0  0  0  0  0  0  0  0
   55.4308  114.4187   17.6624 N   0  0  0  0  0  0  0  0  0  0  0  0
   54.7901  115.1253   18.8273 C   0  0  2  0  0  0  0  0  0  0  0  0
   53.3590  114.7863   18.8037 C   0  0  0  0  0  0  0  0  0  0  0  0
   52.6701  115.3932   17.8846 O   0  0  0  0  0  0  0  0  0  0  0  0
   55.2308  116.5050   18.7540 C   0  0  0  0  0  0  0  0  0  0  0  0
   54.8895  117.5027   19.7398 C   0  0  0  0  0  0  0  0  0  0  0  0
   54.0247  118.3741   19.6642 O   0  0  0  0  0  0  0  0  0  0  0  0
   55.6265  117.4974   20.9514 O   0  0  0  0  0  0  0  0  0  0  0  0
   52.6314  113.9143   19.5983 N   0  0  0  0  0  0  0  0  0  0  0  0
   51.2739  113.4024   19.1963 C   0  0  2  0  0  0  0  0  0  0  0  0
   50.3055  114.1176   20.0079 C   0  0  0  0  0  0  0  0  0  0  0  0
   49.0523  114.0506   19.8521 O   0  0  0  0  0  0  0  0  0  0  0  0
   51.3075  111.9356   19.1898 C   0  0  0  0  0  0  0  0  0  0  0  0
   50.7667  111.1098   20.2625 C   0  0  1  0  0  0  0  0  0  0  0  0
   50.3906  112.1088   21.4061 C   0  0  0  0  0  0  0  0  0  0  0  0
   49.6019  110.2333   20.0518 C   0  0  0  0  0  0  0  0  0  0  0  0
   50.6946  114.9966   21.0957 N   0  0  0  0  0  0  0  0  0  0  0  0
   49.9211  116.1568   21.3937 C   0  0  2  0  0  0  0  0  0  0  0  0
   50.8114  117.3318   21.7208 C   0  0  0  0  0  0  0  0  0  0  0  0
   51.6549  117.3246   22.8097 O   0  0  0  0  0  0  0  0  0  0  0  0
   48.9537  116.0491   22.5107 C   0  0  0  0  0  0  0  0  0  0  0  0
   48.1199  114.8120   22.4986 C   0  0  0  0  0  0  0  0  0  0  0  0
   47.0993  114.7089   21.7417 O   0  0  0  0  0  0  0  0  0  0  0  0
   48.4222  113.7016   23.3220 N   0  0  0  0  0  0  0  0  0  0  0  0
   50.7704  118.3315   20.9739 O   0  0  0  0  0  0  0  0  0  0  0  0
  2  1  1  6
  2  3  1  0
  2  5  1  0
  3  4  2  0
  3 10  1  0
  5  6  1  0
  6  7  1  0
  7  8  2  0
  7  9  1  0
 10 11  1  0
 11 12  1  0
 11 14  1  1
 12 13  2  0
 12 18  1  0
 14 15  1  0
 15 16  1  0
 15 17  2  0
 18 19  1  0
 18 24  1  0
 19 20  1  1
 19 22  1  0
 20 21  2  0
 20 25  1  0
 22 23  1  0
 23 24  1  0
 25 26  1  0
 26 27  1  0
 26 29  1  1
 27 28  2  0
 27 37  1  0
 29 30  1  0
 30 31  2  0
 30 32  1  0
 31 33  1  0
 32 34  2  0
 33 35  2  0
 34 35  1  0
 35 36  1  0
 37 38  1  0
 38 39  1  0
 38 41  1  6
 39 40  2  0
 39 45  1  0
 41 42  1  0
 42 43  2  0
 42 44  1  0
 45 46  1  0
 46 47  1  0
 46 49  1  1
 47 48  2  0
 47 53  1  0
 49 50  1  0
 50 51  1  1
 50 52  1  0
 53 54  1  0
 54 55  1  0
 54 57  1  1
 55 56  1  0
 55 61  2  0
 57 58  1  0
 58 59  2  0
 58 60  1  0
M  CHG  1   1   1
M  END
$$$$
