
     RDKit          3D

 61 62  0  0  0  0  0  0  0  0999 V2000
   61.6570  117.2641   15.0088 N   0  0  0  0  0  4  0  0  0  0  0  0
   60.5307  117.5937   15.8940 C   0  0  2  0  0  0  0  0  0  0  0  0
   59.7726  116.3865   16.2629 C   0  0  0  0  0  0  0  0  0  0  0  0
   59.2198  115.6431   15.4148 O   0  0  0  0  0  0  0  0  0  0  0  0
   59.6897  118.5663   15.0853 C   0  0  0  0  0  0  0  0  0  0  0  0
   58.5446  119.1083   15.8613 C   0  0  0  0  0  0  0  0  0  0  0  0
   58.7156  120.5047   16.2472 C   0  0  0  0  0  0  0  0  0  0  0  0
   58.1977  120.9336   17.3212 O   0  0  0  0  0  0  0  0  0  0  0  0
   59.4375  121.3808   15.4605 O   0  0  0  0  0  0  0  0  0  0  0  0
   59.6682  116.0509   17.6703 N   0  0  0  0  0  0  0  0  0  0  0  0
   58.8507  114.9598   18.0734 C   0  0  2  0  0  0  0  0  0  0  0  0
   57.5188  114.9375   17.4875 C   0  0  0  0  0  0  0  0  0  0  0  0
   57.0269  116.1406   17.3081 O   0  0  0  0  0  0  0  0  0  0  0  0
   58.7273  114.8945   19.6039 C   0  0  0  0  0  0  0  0  0  0  0  0
   57.8198  113.7943   19.9565 C   0  0  0  0  0  0  0  0  0  0  0  0
   57.5067  113.5527   21.3077 O   0  0  0  0  0  0  0  0  0  0  0  0
   57.3270  113.0767   19.0742 O   0  0  0  0  0  0  0  0  0  0  0  0
   56.6614  113.9156   17.0755 N   0  0  0  0  0  0  0  0  0  0  0  0
   55.3208  114.1179   16.5141 C   0  0  2  0  0  0  0  0  0  0  0  0
   54.2720  113.7428   17.5251 C   0  0  0  0  0  0  0  0  0  0  0  0
   53.0492  113.6740   17.2373 O   0  0  0  0  0  0  0  0  0  0  0  0
   55.2740  113.0663   15.4354 C   0  0  0  0  0  0  0  0  0  0  0  0
   55.7819  111.8619   16.2462 C   0  0  0  0  0  0  0  0  0  0  0  0
   56.8900  112.5034   17.1036 C   0  0  0  0  0  0  0  0  0  0  0  0
   54.6730  113.4558   18.8418 N   0  0  0  0  0  0  0  0  0  0  0  0
   53.7386  113.0799   19.9111 C   0  0  2  0  0  0  0  0  0  0  0  0
   53.6679  114.1751   20.8555 C   0  0  0  0  0  0  0  0  0  0  0  0
   52.5825  114.8811   20.9211 O   0  0  0  0  0  0  0  0  0  0  0  0
   54.2278  111.7528   20.3987 C   0  0  0  0  0  0  0  0  0  0  0  0
   53.3039  110.6274   20.3619 C   0  0  0  0  0  0  0  0  0  0  0  0
   53.7594  109.3422   20.0610 C   0  0  0  0  0  0  0  0  0  0  0  0
   51.9387  110.7704   20.6366 C   0  0  0  0  0  0  0  0  0  0  0  0
   52.8934  108.2729   20.0391 C   0  0  0  0  0  0  0  0  0  0  0  0
   51.1003  109.6855   20.6074 C   0  0  0  0  0  0  0  0  0  0  0  0
   51.5498  108.4015   20.3077 C   0  0  0  0  0  0  0  0  0  0  0  0
   50.6859  107.3065   20.2814 O   0  0  0  0  0  0  0  0  0  0  0  0
   54.6695  114.5749   21.7377 N   0  0  0  0  0  0  0  0  0  0  0  0
   54.4088  115.7483   22.6444 C   0  0  2  0  0  0  0  0  0  0  0  0
   54.4970  116.9611   21.8168 C   0  0  0  0  0  0  0  0  0  0  0  0
   55.4396  117.7871   22.1587 O   0  0  0  0  0  0  0  0  0  0  0  0
   55.2711  115.5673   23.7962 C   0  0  0  0  0  0  0  0  0  0  0  0
   55.1441  114.4652   24.7198 C   0  0  0  0  0  0  0  0  0  0  0  0
   54.1697  114.1648   25.4078 O   0  0  0  0  0  0  0  0  0  0  0  0
   56.2658  113.6103   24.8689 O   0  0  0  0  0  0  0  0  0  0  0  0
   53.7421  117.3571   20.7239 N   0  0  0  0  0  0  0  0  0  0  0  0
   53.8858  118.7187   20.0980 C   0  0  2  0  0  0  0  0  0  0  0  0
   52.8667  119.5599   20.6996 C   0  0  0  0  0  0  0  0  0  0  0  0
   52.7328  120.7965   20.4714 O   0  0  0  0  0  0  0  0  0  0  0  0
   53.9622  118.5609   18.6413 C   0  0  0  0  0  0  0  0  0  0  0  0
   55.1348  118.0469   17.9442 C   0  0  1  0  0  0  0  0  0  0  0  0
   54.6383  117.6900   16.5043 C   0  0  0  0  0  0  0  0  0  0  0  0
   56.3596  118.8510   17.7939 C   0  0  0  0  0  0  0  0  0  0  0  0
   51.8870  119.0485   21.6409 N   0  0  0  0  0  0  0  0  0  0  0  0
   50.7169  119.8057   21.9424 C   0  0  2  0  0  0  0  0  0  0  0  0
   50.1324  119.3925   23.2720 C   0  0  0  0  0  0  0  0  0  0  0  0
   50.9260  118.9749   24.3174 O   0  0  0  0  0  0  0  0  0  0  0  0
   49.6053  119.7401   20.9651 C   0  0  0  0  0  0  0  0  0  0  0  0
   49.3851  118.3952   20.3580 C   0  0  0  0  0  0  0  0  0  0  0  0
   50.2620  117.8569   19.6055 O   0  0  0  0  0  0  0  0  0  0  0  0
   48.1990  117.6587   20.5888 N   0  0  0  0  0  0  0  0  0  0  0  0
   48.8924  119.4353   23.4124 O   0  0  0  0  0  0  0  0  0  0  0  0
  2  1  1  6
  2  3  1  0
  2  5  1  0
  3  4  2  0
  3 10  1  0
  5  6  1  0
  6  7  1  0
  7  8  2  0
  7  9  1  0
 10 11  1  0
 11 12  1  0
 11 14  1  1
 12 13  2  0
 12 18  1  0
 14 15  1  0
 15 16  1  0
 15 17  2  0
 18 19  1  0
 18 24  1  0
 19 20  1  1
 19 22  1  0
 20 21  2  0
 20 25  1  0
 22 23  1  0
 23 24  1  0
 25 26  1  0
 26 27  1  0
 26 29  1  1
 27 28  2  0
 27 37  1  0
 29 30  1  0
 30 31  2  0
 30 32  1  0
 31 33  1  0
 32 34  2  0
 33 35  2  0
 34 35  1  0
 35 36  1  0
 37 38  1  0
 38 39  1  0
 38 41  1  1
 39 40  2  0
 39 45  1  0
 41 42  1  0
 42 43  2  0
 42 44  1  0
 45 46  1  0
 46 47  1  0
 46 49  1  6
 47 48  2  0
 47 53  1  0
 49 50  1  0
 50 51  1  6
 50 52  1  0
 53 54  1  0
 54 55  1  0
 54 57  1  6
 55 56  1  0
 55 61  2  0
 57 58  1  0
 58 59  2  0
 58 60  1  0
M  CHG  1   1   1
M  END
$$$$
