
     RDKit          3D

 61 62  0  0  0  0  0  0  0  0999 V2000
   58.8831  120.6199   13.8836 N   0  0  0  0  0  4  0  0  0  0  0  0
   59.6649  119.7532   14.7773 C   0  0  2  0  0  0  0  0  0  0  0  0
   59.5459  118.3389   14.3856 C   0  0  0  0  0  0  0  0  0  0  0  0
   58.4616  117.8223   14.0181 O   0  0  0  0  0  0  0  0  0  0  0  0
   59.0809  120.0110   16.1556 C   0  0  0  0  0  0  0  0  0  0  0  0
   57.6670  120.4633   16.0978 C   0  0  0  0  0  0  0  0  0  0  0  0
   57.0411  120.5770   17.4106 C   0  0  0  0  0  0  0  0  0  0  0  0
   56.5360  121.6792   17.7788 O   0  0  0  0  0  0  0  0  0  0  0  0
   56.9849  119.4987   18.2719 O   0  0  0  0  0  0  0  0  0  0  0  0
   60.7404  117.5169   14.4286 N   0  0  0  0  0  0  0  0  0  0  0  0
   60.7659  116.2782   13.7314 C   0  0  2  0  0  0  0  0  0  0  0  0
   59.9307  115.2319   14.3018 C   0  0  0  0  0  0  0  0  0  0  0  0
   59.0190  114.8011   13.4623 O   0  0  0  0  0  0  0  0  0  0  0  0
   62.2026  115.7516   13.5880 C   0  0  0  0  0  0  0  0  0  0  0  0
   62.1691  114.4917   12.8331 C   0  0  0  0  0  0  0  0  0  0  0  0
   60.9409  113.9956   12.3560 O   0  0  0  0  0  0  0  0  0  0  0  0
   63.2133  113.8616   12.6122 O   0  0  0  0  0  0  0  0  0  0  0  0
   59.8963  114.5914   15.5419 N   0  0  0  0  0  0  0  0  0  0  0  0
   58.9653  113.5180   15.9084 C   0  0  2  0  0  0  0  0  0  0  0  0
   57.9131  114.0409   16.8476 C   0  0  0  0  0  0  0  0  0  0  0  0
   57.9794  113.8815   18.0938 O   0  0  0  0  0  0  0  0  0  0  0  0
   59.8487  112.6040   16.7182 C   0  0  0  0  0  0  0  0  0  0  0  0
   60.4937  113.6471   17.6467 C   0  0  0  0  0  0  0  0  0  0  0  0
   60.7281  114.8259   16.6824 C   0  0  0  0  0  0  0  0  0  0  0  0
   56.8141  114.7364   16.3134 N   0  0  0  0  0  0  0  0  0  0  0  0
   55.4178  114.4310   16.6522 C   0  0  2  0  0  0  0  0  0  0  0  0
   55.3306  114.2449   18.0854 C   0  0  0  0  0  0  0  0  0  0  0  0
   55.2836  113.0402   18.5623 O   0  0  0  0  0  0  0  0  0  0  0  0
   55.0496  113.2848   15.7639 C   0  0  0  0  0  0  0  0  0  0  0  0
   53.6666  112.8279   15.7745 C   0  0  0  0  0  0  0  0  0  0  0  0
   53.2693  111.7438   14.9893 C   0  0  0  0  0  0  0  0  0  0  0  0
   52.6850  113.4309   16.5699 C   0  0  0  0  0  0  0  0  0  0  0  0
   51.9673  111.2986   15.0064 C   0  0  0  0  0  0  0  0  0  0  0  0
   51.3954  112.9643   16.5659 C   0  0  0  0  0  0  0  0  0  0  0  0
   50.9941  111.8834   15.7843 C   0  0  0  0  0  0  0  0  0  0  0  0
   49.6787  111.4191   15.7898 O   0  0  0  0  0  0  0  0  0  0  0  0
   55.2901  115.2487   19.0508 N   0  0  0  0  0  0  0  0  0  0  0  0
   54.9193  114.8800   20.4627 C   0  0  2  0  0  0  0  0  0  0  0  0
   53.5845  114.2642   20.4115 C   0  0  0  0  0  0  0  0  0  0  0  0
   52.8630  114.6108   19.3883 O   0  0  0  0  0  0  0  0  0  0  0  0
   55.1647  116.0622   21.2659 C   0  0  0  0  0  0  0  0  0  0  0  0
   56.4857  116.5661   21.5571 C   0  0  0  0  0  0  0  0  0  0  0  0
   56.9971  117.6146   21.1670 O   0  0  0  0  0  0  0  0  0  0  0  0
   57.3133  115.7739   22.3931 O   0  0  0  0  0  0  0  0  0  0  0  0
   52.9787  113.3648   21.2749 N   0  0  0  0  0  0  0  0  0  0  0  0
   51.5459  112.9329   21.1109 C   0  0  2  0  0  0  0  0  0  0  0  0
   50.7308  113.9581   21.7375 C   0  0  0  0  0  0  0  0  0  0  0  0
   49.4665  113.9771   21.7203 O   0  0  0  0  0  0  0  0  0  0  0  0
   51.4282  111.5289   21.5204 C   0  0  0  0  0  0  0  0  0  0  0  0
   51.6704  110.4031   20.6266 C   0  0  1  0  0  0  0  0  0  0  0  0
   51.5407  109.1269   21.5220 C   0  0  0  0  0  0  0  0  0  0  0  0
   50.8466  110.1768   19.4268 C   0  0  0  0  0  0  0  0  0  0  0  0
   51.3043  115.0819   22.4555 N   0  0  0  0  0  0  0  0  0  0  0  0
   50.5105  115.8262   23.3771 C   0  0  2  0  0  0  0  0  0  0  0  0
   51.3020  116.9632   23.9780 C   0  0  0  0  0  0  0  0  0  0  0  0
   52.6759  117.0157   23.8976 O   0  0  0  0  0  0  0  0  0  0  0  0
   49.9301  115.0798   24.5177 C   0  0  0  0  0  0  0  0  0  0  0  0
   48.6695  114.3448   24.2074 C   0  0  0  0  0  0  0  0  0  0  0  0
   48.0640  113.6634   25.0985 O   0  0  0  0  0  0  0  0  0  0  0  0
   48.0906  114.3704   22.9164 N   0  0  0  0  0  0  0  0  0  0  0  0
   50.6790  117.8743   24.5619 O   0  0  0  0  0  0  0  0  0  0  0  0
  2  1  1  6
  2  3  1  0
  2  5  1  0
  3  4  2  0
  3 10  1  0
  5  6  1  0
  6  7  1  0
  7  8  2  0
  7  9  1  0
 10 11  1  0
 11 12  1  0
 11 14  1  1
 12 13  2  0
 12 18  1  0
 14 15  1  0
 15 16  1  0
 15 17  2  0
 18 19  1  0
 18 24  1  0
 19 20  1  1
 19 22  1  0
 20 21  2  0
 20 25  1  0
 22 23  1  0
 23 24  1  0
 25 26  1  0
 26 27  1  0
 26 29  1  6
 27 28  2  0
 27 37  1  0
 29 30  1  0
 30 31  2  0
 30 32  1  0
 31 33  1  0
 32 34  2  0
 33 35  2  0
 34 35  1  0
 35 36  1  0
 37 38  1  0
 38 39  1  0
 38 41  1  1
 39 40  2  0
 39 45  1  0
 41 42  1  0
 42 43  2  0
 42 44  1  0
 45 46  1  0
 46 47  1  0
 46 49  1  1
 47 48  2  0
 47 53  1  0
 49 50  1  0
 50 51  1  1
 50 52  1  0
 53 54  1  0
 54 55  1  0
 54 57  1  1
 55 56  1  0
 55 61  2  0
 57 58  1  0
 58 59  2  0
 58 60  1  0
M  CHG  1   1   1
M  END
$$$$
