
     RDKit          3D

 61 62  0  0  0  0  0  0  0  0999 V2000
   63.6505  118.7633   13.7524 N   0  0  0  0  0  4  0  0  0  0  0  0
   62.2178  118.6945   14.0739 C   0  0  2  0  0  0  0  0  0  0  0  0
   62.0022  118.1858   15.4386 C   0  0  0  0  0  0  0  0  0  0  0  0
   62.5722  117.1575   15.8807 O   0  0  0  0  0  0  0  0  0  0  0  0
   61.6417  117.7611   13.0231 C   0  0  0  0  0  0  0  0  0  0  0  0
   60.1956  117.4927   13.2334 C   0  0  0  0  0  0  0  0  0  0  0  0
   59.6757  116.4245   12.3869 C   0  0  0  0  0  0  0  0  0  0  0  0
   59.1435  115.4016   12.9123 O   0  0  0  0  0  0  0  0  0  0  0  0
   59.7503  116.5027   11.0099 O   0  0  0  0  0  0  0  0  0  0  0  0
   61.0907  118.9134   16.3013 N   0  0  0  0  0  0  0  0  0  0  0  0
   60.8403  118.4391   17.6178 C   0  0  2  0  0  0  0  0  0  0  0  0
   60.0173  117.2414   17.6960 C   0  0  0  0  0  0  0  0  0  0  0  0
   59.1279  117.1775   16.7334 O   0  0  0  0  0  0  0  0  0  0  0  0
   60.2146  119.5363   18.4934 C   0  0  0  0  0  0  0  0  0  0  0  0
   60.0080  118.9993   19.8452 C   0  0  0  0  0  0  0  0  0  0  0  0
   58.9198  119.4493   20.6169 O   0  0  0  0  0  0  0  0  0  0  0  0
   60.7836  118.1529   20.3122 O   0  0  0  0  0  0  0  0  0  0  0  0
   59.9761  116.1526   18.5688 N   0  0  0  0  0  0  0  0  0  0  0  0
   60.0046  114.7441   18.1581 C   0  0  2  0  0  0  0  0  0  0  0  0
   58.6415  114.1284   18.3179 C   0  0  0  0  0  0  0  0  0  0  0  0
   58.3793  112.9580   17.9381 O   0  0  0  0  0  0  0  0  0  0  0  0
   60.8813  114.1292   19.2188 C   0  0  0  0  0  0  0  0  0  0  0  0
   60.2137  114.7313   20.4668 C   0  0  0  0  0  0  0  0  0  0  0  0
   59.9039  116.1661   19.9978 C   0  0  0  0  0  0  0  0  0  0  0  0
   57.6213  114.8886   18.9164 N   0  0  0  0  0  0  0  0  0  0  0  0
   56.2929  115.0776   18.3188 C   0  0  2  0  0  0  0  0  0  0  0  0
   55.6377  113.7880   18.2558 C   0  0  0  0  0  0  0  0  0  0  0  0
   56.3339  112.7165   18.4749 O   0  0  0  0  0  0  0  0  0  0  0  0
   56.5491  115.8068   17.0377 C   0  0  0  0  0  0  0  0  0  0  0  0
   55.7197  116.9643   16.7317 C   0  0  0  0  0  0  0  0  0  0  0  0
   55.8579  117.6374   15.5161 C   0  0  0  0  0  0  0  0  0  0  0  0
   54.7479  117.4442   17.6177 C   0  0  0  0  0  0  0  0  0  0  0  0
   55.0670  118.7228   15.2156 C   0  0  0  0  0  0  0  0  0  0  0  0
   53.9744  118.5282   17.2898 C   0  0  0  0  0  0  0  0  0  0  0  0
   54.1084  119.2030   16.0786 C   0  0  0  0  0  0  0  0  0  0  0  0
   53.3150  120.3047   15.7579 O   0  0  0  0  0  0  0  0  0  0  0  0
   54.2928  113.5543   17.9768 N   0  0  0  0  0  0  0  0  0  0  0  0
   53.5819  112.4512   18.7149 C   0  0  2  0  0  0  0  0  0  0  0  0
   52.4710  113.0717   19.4527 C   0  0  0  0  0  0  0  0  0  0  0  0
   51.6833  113.8114   18.7315 O   0  0  0  0  0  0  0  0  0  0  0  0
   54.6113  111.7017   19.4088 C   0  0  0  0  0  0  0  0  0  0  0  0
   54.3282  110.6371   20.3417 C   0  0  0  0  0  0  0  0  0  0  0  0
   54.5102  110.6307   21.5582 O   0  0  0  0  0  0  0  0  0  0  0  0
   53.7715  109.4435   19.8157 O   0  0  0  0  0  0  0  0  0  0  0  0
   52.1246  112.9837   20.7919 N   0  0  0  0  0  0  0  0  0  0  0  0
   50.8895  113.6406   21.3480 C   0  0  2  0  0  0  0  0  0  0  0  0
   51.2609  115.0039   21.6818 C   0  0  0  0  0  0  0  0  0  0  0  0
   51.0343  115.5549   22.7973 O   0  0  0  0  0  0  0  0  0  0  0  0
   50.3015  112.7558   22.3600 C   0  0  0  0  0  0  0  0  0  0  0  0
   49.6445  111.4929   22.0462 C   0  0  1  0  0  0  0  0  0  0  0  0
   49.1788  110.9140   23.4229 C   0  0  0  0  0  0  0  0  0  0  0  0
   48.4891  111.4275   21.1350 C   0  0  0  0  0  0  0  0  0  0  0  0
   51.9398  115.8806   20.7448 N   0  0  0  0  0  0  0  0  0  0  0  0
   52.4503  117.1392   21.1791 C   0  0  2  0  0  0  0  0  0  0  0  0
   53.1183  117.8740   20.0416 C   0  0  0  0  0  0  0  0  0  0  0  0
   53.6383  119.1397   20.1987 O   0  0  0  0  0  0  0  0  0  0  0  0
   53.4315  117.1180   22.2889 C   0  0  0  0  0  0  0  0  0  0  0  0
   53.5574  118.4027   23.0369 C   0  0  0  0  0  0  0  0  0  0  0  0
   52.6030  118.8461   23.7564 O   0  0  0  0  0  0  0  0  0  0  0  0
   54.7360  119.1840   22.9828 N   0  0  0  0  0  0  0  0  0  0  0  0
   53.1935  117.3052   18.9326 O   0  0  0  0  0  0  0  0  0  0  0  0
  2  1  1  6
  2  3  1  0
  2  5  1  0
  3  4  2  0
  3 10  1  0
  5  6  1  0
  6  7  1  0
  7  8  2  0
  7  9  1  0
 10 11  1  0
 11 12  1  0
 11 14  1  1
 12 13  2  0
 12 18  1  0
 14 15  1  0
 15 16  1  0
 15 17  2  0
 18 19  1  0
 18 24  1  0
 19 20  1  1
 19 22  1  0
 20 21  2  0
 20 25  1  0
 22 23  1  0
 23 24  1  0
 25 26  1  0
 26 27  1  0
 26 29  1  6
 27 28  2  0
 27 37  1  0
 29 30  1  0
 30 31  2  0
 30 32  1  0
 31 33  1  0
 32 34  2  0
 33 35  2  0
 34 35  1  0
 35 36  1  0
 37 38  1  0
 38 39  1  0
 38 41  1  1
 39 40  2  0
 39 45  1  0
 41 42  1  0
 42 43  2  0
 42 44  1  0
 45 46  1  0
 46 47  1  0
 46 49  1  1
 47 48  2  0
 47 53  1  0
 49 50  1  0
 50 51  1  1
 50 52  1  0
 53 54  1  0
 54 55  1  0
 54 57  1  1
 55 56  1  0
 55 61  2  0
 57 58  1  0
 58 59  2  0
 58 60  1  0
M  CHG  1   1   1
M  END
$$$$
