
     RDKit          3D

 61 62  0  0  0  0  0  0  0  0999 V2000
   62.4539  118.9638   15.4825 N   0  0  0  0  0  4  0  0  0  0  0  0
   61.0858  118.4378   15.3702 C   0  0  2  0  0  0  0  0  0  0  0  0
   60.9104  117.2301   16.1940 C   0  0  0  0  0  0  0  0  0  0  0  0
   61.8419  116.4187   16.4210 O   0  0  0  0  0  0  0  0  0  0  0  0
   60.9170  118.1438   13.8896 C   0  0  0  0  0  0  0  0  0  0  0  0
   59.4896  118.0524   13.4879 C   0  0  0  0  0  0  0  0  0  0  0  0
   58.8620  119.3527   13.2797 C   0  0  0  0  0  0  0  0  0  0  0  0
   59.5639  120.4073   13.3093 O   0  0  0  0  0  0  0  0  0  0  0  0
   57.5049  119.4630   13.0479 O   0  0  0  0  0  0  0  0  0  0  0  0
   59.6005  116.9783   16.7641 N   0  0  0  0  0  0  0  0  0  0  0  0
   59.4024  115.8406   17.5934 C   0  0  2  0  0  0  0  0  0  0  0  0
   58.3742  114.9169   17.1381 C   0  0  0  0  0  0  0  0  0  0  0  0
   57.6103  115.4334   16.2047 O   0  0  0  0  0  0  0  0  0  0  0  0
   59.0991  116.2556   19.0417 C   0  0  0  0  0  0  0  0  0  0  0  0
   58.8921  115.0433   19.8453 C   0  0  0  0  0  0  0  0  0  0  0  0
   59.8803  114.0407   19.8646 O   0  0  0  0  0  0  0  0  0  0  0  0
   57.8545  114.8957   20.5070 O   0  0  0  0  0  0  0  0  0  0  0  0
   58.0330  113.6066   17.4786 N   0  0  0  0  0  0  0  0  0  0  0  0
   56.8947  112.8634   16.9260 C   0  0  2  0  0  0  0  0  0  0  0  0
   55.7989  112.7540   17.9506 C   0  0  0  0  0  0  0  0  0  0  0  0
   54.6015  112.5265   17.6385 O   0  0  0  0  0  0  0  0  0  0  0  0
   57.4742  111.4813   16.7668 C   0  0  0  0  0  0  0  0  0  0  0  0
   58.1149  111.3234   18.1562 C   0  0  0  0  0  0  0  0  0  0  0  0
   58.6912  112.7316   18.3998 C   0  0  0  0  0  0  0  0  0  0  0  0
   56.1246  112.9098   19.3095 N   0  0  0  0  0  0  0  0  0  0  0  0
   55.1387  113.2365   20.3481 C   0  0  2  0  0  0  0  0  0  0  0  0
   54.8000  114.6388   20.2249 C   0  0  0  0  0  0  0  0  0  0  0  0
   54.5970  115.3345   21.2999 O   0  0  0  0  0  0  0  0  0  0  0  0
   55.7578  112.7656   21.6262 C   0  0  0  0  0  0  0  0  0  0  0  0
   55.9360  111.3321   21.8125 C   0  0  0  0  0  0  0  0  0  0  0  0
   54.9278  110.5590   22.3919 C   0  0  0  0  0  0  0  0  0  0  0  0
   57.0999  110.6643   21.4135 C   0  0  0  0  0  0  0  0  0  0  0  0
   55.0849  109.2019   22.5571 C   0  0  0  0  0  0  0  0  0  0  0  0
   57.2270  109.3104   21.5910 C   0  0  0  0  0  0  0  0  0  0  0  0
   56.2243  108.5348   22.1685 C   0  0  0  0  0  0  0  0  0  0  0  0
   56.3669  107.1582   22.3433 O   0  0  0  0  0  0  0  0  0  0  0  0
   54.6617  115.3572   19.0391 N   0  0  0  0  0  0  0  0  0  0  0  0
   54.0789  116.7442   19.0973 C   0  0  2  0  0  0  0  0  0  0  0  0
   52.7075  116.6584   18.5726 C   0  0  0  0  0  0  0  0  0  0  0  0
   52.4715  115.6182   17.8311 O   0  0  0  0  0  0  0  0  0  0  0  0
   55.0588  117.6194   18.4834 C   0  0  0  0  0  0  0  0  0  0  0  0
   56.2620  118.0579   19.1495 C   0  0  0  0  0  0  0  0  0  0  0  0
   56.4121  118.3214   20.3416 O   0  0  0  0  0  0  0  0  0  0  0  0
   57.4260  118.2103   18.3539 O   0  0  0  0  0  0  0  0  0  0  0  0
   51.6245  117.5046   18.7526 N   0  0  0  0  0  0  0  0  0  0  0  0
   50.2144  117.0851   18.4331 C   0  0  2  0  0  0  0  0  0  0  0  0
   49.6827  116.4719   19.6370 C   0  0  0  0  0  0  0  0  0  0  0  0
   48.6143  115.7970   19.6846 O   0  0  0  0  0  0  0  0  0  0  0  0
   50.2179  116.3555   17.1602 C   0  0  0  0  0  0  0  0  0  0  0  0
   50.9054  116.8224   15.9626 C   0  0  1  0  0  0  0  0  0  0  0  0
   50.6429  115.7253   14.8788 C   0  0  0  0  0  0  0  0  0  0  0  0
   50.5911  118.1234   15.3478 C   0  0  0  0  0  0  0  0  0  0  0  0
   50.3414  116.5810   20.9259 N   0  0  0  0  0  0  0  0  0  0  0  0
   49.6872  116.1249   22.1080 C   0  0  2  0  0  0  0  0  0  0  0  0
   49.9040  117.0865   23.2520 C   0  0  0  0  0  0  0  0  0  0  0  0
   49.3534  116.8731   24.4963 O   0  0  0  0  0  0  0  0  0  0  0  0
   50.0735  114.7875   22.6148 C   0  0  0  0  0  0  0  0  0  0  0  0
   49.0837  114.1583   23.5368 C   0  0  0  0  0  0  0  0  0  0  0  0
   47.9185  113.8328   23.1351 O   0  0  0  0  0  0  0  0  0  0  0  0
   49.3912  113.8948   24.8927 N   0  0  0  0  0  0  0  0  0  0  0  0
   50.6045  118.1000   23.0486 O   0  0  0  0  0  0  0  0  0  0  0  0
  2  1  1  6
  2  3  1  0
  2  5  1  0
  3  4  2  0
  3 10  1  0
  5  6  1  0
  6  7  1  0
  7  8  2  0
  7  9  1  0
 10 11  1  0
 11 12  1  0
 11 14  1  1
 12 13  2  0
 12 18  1  0
 14 15  1  0
 15 16  1  0
 15 17  2  0
 18 19  1  0
 18 24  1  0
 19 20  1  1
 19 22  1  0
 20 21  2  0
 20 25  1  0
 22 23  1  0
 23 24  1  0
 25 26  1  0
 26 27  1  0
 26 29  1  1
 27 28  2  0
 27 37  1  0
 29 30  1  0
 30 31  2  0
 30 32  1  0
 31 33  1  0
 32 34  2  0
 33 35  2  0
 34 35  1  0
 35 36  1  0
 37 38  1  0
 38 39  1  0
 38 41  1  6
 39 40  2  0
 39 45  1  0
 41 42  1  0
 42 43  2  0
 42 44  1  0
 45 46  1  0
 46 47  1  0
 46 49  1  6
 47 48  2  0
 47 53  1  0
 49 50  1  0
 50 51  1  6
 50 52  1  0
 53 54  1  0
 54 55  1  0
 54 57  1  1
 55 56  1  0
 55 61  2  0
 57 58  1  0
 58 59  2  0
 58 60  1  0
M  CHG  1   1   1
M  END
$$$$
