
     RDKit          3D

 61 62  0  0  0  0  0  0  0  0999 V2000
   60.5968  120.5401   13.6348 N   0  0  0  0  0  4  0  0  0  0  0  0
   59.6280  119.4850   13.9650 C   0  0  2  0  0  0  0  0  0  0  0  0
   60.0082  118.7810   15.2010 C   0  0  0  0  0  0  0  0  0  0  0  0
   60.7788  119.2782   16.0592 O   0  0  0  0  0  0  0  0  0  0  0  0
   59.6505  118.5635   12.7577 C   0  0  0  0  0  0  0  0  0  0  0  0
   60.1664  119.2375   11.5383 C   0  0  0  0  0  0  0  0  0  0  0  0
   60.1570  118.3828   10.3562 C   0  0  0  0  0  0  0  0  0  0  0  0
   59.4557  118.7004    9.3498 O   0  0  0  0  0  0  0  0  0  0  0  0
   60.9038  117.2219   10.3071 O   0  0  0  0  0  0  0  0  0  0  0  0
   59.4611  117.4566   15.4269 N   0  0  0  0  0  0  0  0  0  0  0  0
   59.3861  116.9441   16.7508 C   0  0  2  0  0  0  0  0  0  0  0  0
   58.8470  115.5969   16.8613 C   0  0  0  0  0  0  0  0  0  0  0  0
   57.6756  115.4739   16.2830 O   0  0  0  0  0  0  0  0  0  0  0  0
   58.5827  117.8830   17.6647 C   0  0  0  0  0  0  0  0  0  0  0  0
   58.4178  117.2379   18.9742 C   0  0  0  0  0  0  0  0  0  0  0  0
   58.3023  118.0290   20.1331 O   0  0  0  0  0  0  0  0  0  0  0  0
   58.3791  116.0026   19.0677 O   0  0  0  0  0  0  0  0  0  0  0  0
   59.3098  114.4157   17.4443 N   0  0  0  0  0  0  0  0  0  0  0  0
   59.1332  113.0733   16.8784 C   0  0  2  0  0  0  0  0  0  0  0  0
   58.0914  112.3151   17.6547 C   0  0  0  0  0  0  0  0  0  0  0  0
   57.9119  111.0777   17.5155 O   0  0  0  0  0  0  0  0  0  0  0  0
   60.4583  112.4274   17.1923 C   0  0  0  0  0  0  0  0  0  0  0  0
   60.5733  112.8145   18.6765 C   0  0  0  0  0  0  0  0  0  0  0  0
   60.0322  114.2573   18.6692 C   0  0  0  0  0  0  0  0  0  0  0  0
   57.2887  113.0149   18.5726 N   0  0  0  0  0  0  0  0  0  0  0  0
   56.1006  112.4386   19.2161 C   0  0  2  0  0  0  0  0  0  0  0  0
   55.3841  113.5062   19.8816 C   0  0  0  0  0  0  0  0  0  0  0  0
   54.5583  113.2109   20.8364 O   0  0  0  0  0  0  0  0  0  0  0  0
   56.6241  111.3097   20.0468 C   0  0  0  0  0  0  0  0  0  0  0  0
   55.6678  110.5263   20.8169 C   0  0  0  0  0  0  0  0  0  0  0  0
   55.7283  109.1312   20.8188 C   0  0  0  0  0  0  0  0  0  0  0  0
   54.6661  111.1206   21.5935 C   0  0  0  0  0  0  0  0  0  0  0  0
   54.8364  108.3864   21.5561 C   0  0  0  0  0  0  0  0  0  0  0  0
   53.7919  110.3516   22.3181 C   0  0  0  0  0  0  0  0  0  0  0  0
   53.8481  108.9597   22.3233 C   0  0  0  0  0  0  0  0  0  0  0  0
   52.9522  108.1895   23.0650 O   0  0  0  0  0  0  0  0  0  0  0  0
   55.4823  114.8684   19.6056 N   0  0  0  0  0  0  0  0  0  0  0  0
   54.6662  115.8331   20.4242 C   0  0  2  0  0  0  0  0  0  0  0  0
   53.4444  116.1231   19.6583 C   0  0  0  0  0  0  0  0  0  0  0  0
   52.8762  117.2553   19.9463 O   0  0  0  0  0  0  0  0  0  0  0  0
   55.5713  116.8966   20.8149 C   0  0  0  0  0  0  0  0  0  0  0  0
   55.1338  118.1305   21.4232 C   0  0  0  0  0  0  0  0  0  0  0  0
   55.3691  118.5370   22.5600 O   0  0  0  0  0  0  0  0  0  0  0  0
   54.3350  118.9963   20.6337 O   0  0  0  0  0  0  0  0  0  0  0  0
   52.8097  115.3862   18.6707 N   0  0  0  0  0  0  0  0  0  0  0  0
   51.4636  115.7728   18.1185 C   0  0  2  0  0  0  0  0  0  0  0  0
   50.5203  115.6674   19.2173 C   0  0  0  0  0  0  0  0  0  0  0  0
   49.3561  116.1610   19.2110 O   0  0  0  0  0  0  0  0  0  0  0  0
   51.2404  115.0397   16.8673 C   0  0  0  0  0  0  0  0  0  0  0  0
   51.9725  115.3028   15.6346 C   0  0  1  0  0  0  0  0  0  0  0  0
   51.5783  114.1427   14.6620 C   0  0  0  0  0  0  0  0  0  0  0  0
   51.8101  116.5648   14.8927 C   0  0  0  0  0  0  0  0  0  0  0  0
   50.8340  114.9723   20.4525 N   0  0  0  0  0  0  0  0  0  0  0  0
   49.8013  114.6669   21.3872 C   0  0  2  0  0  0  0  0  0  0  0  0
   49.6117  115.7955   22.3723 C   0  0  0  0  0  0  0  0  0  0  0  0
   50.4392  116.8965   22.3856 O   0  0  0  0  0  0  0  0  0  0  0  0
   49.9714  113.4376   22.1964 C   0  0  0  0  0  0  0  0  0  0  0  0
   49.0003  113.2887   23.3191 C   0  0  0  0  0  0  0  0  0  0  0  0
   47.7597  113.0940   23.0999 O   0  0  0  0  0  0  0  0  0  0  0  0
   49.4095  113.3560   24.6721 N   0  0  0  0  0  0  0  0  0  0  0  0
   48.6738  115.7138   23.1925 O   0  0  0  0  0  0  0  0  0  0  0  0
  2  1  1  6
  2  3  1  0
  2  5  1  0
  3  4  2  0
  3 10  1  0
  5  6  1  0
  6  7  1  0
  7  8  2  0
  7  9  1  0
 10 11  1  0
 11 12  1  0
 11 14  1  1
 12 13  2  0
 12 18  1  0
 14 15  1  0
 15 16  1  0
 15 17  2  0
 18 19  1  0
 18 24  1  0
 19 20  1  1
 19 22  1  0
 20 21  2  0
 20 25  1  0
 22 23  1  0
 23 24  1  0
 25 26  1  0
 26 27  1  0
 26 29  1  1
 27 28  2  0
 27 37  1  0
 29 30  1  0
 30 31  2  0
 30 32  1  0
 31 33  1  0
 32 34  2  0
 33 35  2  0
 34 35  1  0
 35 36  1  0
 37 38  1  0
 38 39  1  0
 38 41  1  6
 39 40  2  0
 39 45  1  0
 41 42  1  0
 42 43  2  0
 42 44  1  0
 45 46  1  0
 46 47  1  0
 46 49  1  6
 47 48  2  0
 47 53  1  0
 49 50  1  0
 50 51  1  6
 50 52  1  0
 53 54  1  0
 54 55  1  0
 54 57  1  1
 55 56  1  0
 55 61  2  0
 57 58  1  0
 58 59  2  0
 58 60  1  0
M  CHG  1   1   1
M  END
$$$$
