
     RDKit          3D

 61 62  0  0  0  0  0  0  0  0999 V2000
   62.6255  118.7831   18.6634 N   0  0  0  0  0  4  0  0  0  0  0  0
   62.1136  117.5421   18.0645 C   0  0  2  0  0  0  0  0  0  0  0  0
   60.6573  117.6117   17.8583 C   0  0  0  0  0  0  0  0  0  0  0  0
   59.9677  118.6055   18.1964 O   0  0  0  0  0  0  0  0  0  0  0  0
   62.4942  116.4600   19.0601 C   0  0  0  0  0  0  0  0  0  0  0  0
   62.7308  115.1461   18.4080 C   0  0  0  0  0  0  0  0  0  0  0  0
   61.7982  114.1100   18.8379 C   0  0  0  0  0  0  0  0  0  0  0  0
   61.0775  114.2918   19.8640 O   0  0  0  0  0  0  0  0  0  0  0  0
   61.6805  112.9213   18.1444 O   0  0  0  0  0  0  0  0  0  0  0  0
   60.0022  116.4773   17.2350 N   0  0  0  0  0  0  0  0  0  0  0  0
   58.6724  116.6131   16.7510 C   0  0  2  0  0  0  0  0  0  0  0  0
   57.6359  116.5570   17.7710 C   0  0  0  0  0  0  0  0  0  0  0  0
   58.0784  116.0884   18.9139 O   0  0  0  0  0  0  0  0  0  0  0  0
   58.3670  115.5678   15.6667 C   0  0  0  0  0  0  0  0  0  0  0  0
   57.9981  114.3050   16.3206 C   0  0  0  0  0  0  0  0  0  0  0  0
   57.1637  114.3232   17.4545 O   0  0  0  0  0  0  0  0  0  0  0  0
   58.4151  113.2233   15.8823 O   0  0  0  0  0  0  0  0  0  0  0  0
   56.2819  116.8969   17.7924 N   0  0  0  0  0  0  0  0  0  0  0  0
   55.4841  117.0959   19.0079 C   0  0  2  0  0  0  0  0  0  0  0  0
   54.5554  115.9311   19.2163 C   0  0  0  0  0  0  0  0  0  0  0  0
   54.1103  115.6156   20.3500 O   0  0  0  0  0  0  0  0  0  0  0  0
   54.6213  118.2706   18.6239 C   0  0  0  0  0  0  0  0  0  0  0  0
   54.1352  117.7780   17.2502 C   0  0  0  0  0  0  0  0  0  0  0  0
   55.4081  117.1214   16.6818 C   0  0  0  0  0  0  0  0  0  0  0  0
   54.1677  115.1666   18.1019 N   0  0  0  0  0  0  0  0  0  0  0  0
   53.7186  113.7709   18.1917 C   0  0  2  0  0  0  0  0  0  0  0  0
   54.7738  112.9952   18.8089 C   0  0  0  0  0  0  0  0  0  0  0  0
   54.4715  112.1596   19.7529 O   0  0  0  0  0  0  0  0  0  0  0  0
   53.2955  113.4141   16.8017 C   0  0  0  0  0  0  0  0  0  0  0  0
   52.0889  114.0354   16.2731 C   0  0  0  0  0  0  0  0  0  0  0  0
   50.8268  113.6046   16.6869 C   0  0  0  0  0  0  0  0  0  0  0  0
   52.1311  115.0881   15.3512 C   0  0  0  0  0  0  0  0  0  0  0  0
   49.6836  114.1977   16.2019 C   0  0  0  0  0  0  0  0  0  0  0  0
   50.9743  115.6593   14.8860 C   0  0  0  0  0  0  0  0  0  0  0  0
   49.7130  115.2332   15.2957 C   0  0  0  0  0  0  0  0  0  0  0  0
   48.5442  115.8232   14.8143 O   0  0  0  0  0  0  0  0  0  0  0  0
   56.1303  113.0428   18.4943 N   0  0  0  0  0  0  0  0  0  0  0  0
   57.0742  112.1219   19.2207 C   0  0  2  0  0  0  0  0  0  0  0  0
   57.1493  112.5913   20.6127 C   0  0  0  0  0  0  0  0  0  0  0  0
   57.6857  111.7492   21.4438 O   0  0  0  0  0  0  0  0  0  0  0  0
   58.2652  112.0344   18.3981 C   0  0  0  0  0  0  0  0  0  0  0  0
   59.4712  111.3586   18.8133 C   0  0  0  0  0  0  0  0  0  0  0  0
   60.5199  111.2298   18.1835 O   0  0  0  0  0  0  0  0  0  0  0  0
   59.4717  110.7631   20.1005 O   0  0  0  0  0  0  0  0  0  0  0  0
   56.7493  113.7929   21.1761 N   0  0  0  0  0  0  0  0  0  0  0  0
   57.0057  114.1284   22.6211 C   0  0  2  0  0  0  0  0  0  0  0  0
   55.7068  114.3493   23.2310 C   0  0  0  0  0  0  0  0  0  0  0  0
   55.5318  114.8114   24.3950 O   0  0  0  0  0  0  0  0  0  0  0  0
   58.0484  115.1586   22.6867 C   0  0  0  0  0  0  0  0  0  0  0  0
   59.4553  114.9041   22.4024 C   0  0  1  0  0  0  0  0  0  0  0  0
   59.5127  114.5426   20.8815 C   0  0  0  0  0  0  0  0  0  0  0  0
   60.4903  115.9235   22.6453 C   0  0  0  0  0  0  0  0  0  0  0  0
   54.4615  114.0515   22.5469 N   0  0  0  0  0  0  0  0  0  0  0  0
   53.2124  114.2930   23.1910 C   0  0  2  0  0  0  0  0  0  0  0  0
   52.7049  113.0450   23.8730 C   0  0  0  0  0  0  0  0  0  0  0  0
   53.4333  111.8762   23.8872 O   0  0  0  0  0  0  0  0  0  0  0  0
   52.1015  114.7782   22.3393 C   0  0  0  0  0  0  0  0  0  0  0  0
   51.9765  116.2628   22.2604 C   0  0  0  0  0  0  0  0  0  0  0  0
   51.7568  116.9648   23.3015 O   0  0  0  0  0  0  0  0  0  0  0  0
   52.0959  116.9564   21.0329 N   0  0  0  0  0  0  0  0  0  0  0  0
   51.5909  113.0893   24.4353 O   0  0  0  0  0  0  0  0  0  0  0  0
  2  1  1  1
  2  3  1  0
  2  5  1  0
  3  4  2  0
  3 10  1  0
  5  6  1  0
  6  7  1  0
  7  8  2  0
  7  9  1  0
 10 11  1  0
 11 12  1  0
 11 14  1  6
 12 13  2  0
 12 18  1  0
 14 15  1  0
 15 16  1  0
 15 17  2  0
 18 19  1  0
 18 24  1  0
 19 20  1  6
 19 22  1  0
 20 21  2  0
 20 25  1  0
 22 23  1  0
 23 24  1  0
 25 26  1  0
 26 27  1  0
 26 29  1  6
 27 28  2  0
 27 37  1  0
 29 30  1  0
 30 31  2  0
 30 32  1  0
 31 33  1  0
 32 34  2  0
 33 35  2  0
 34 35  1  0
 35 36  1  0
 37 38  1  0
 38 39  1  0
 38 41  1  6
 39 40  2  0
 39 45  1  0
 41 42  1  0
 42 43  2  0
 42 44  1  0
 45 46  1  0
 46 47  1  0
 46 49  1  6
 47 48  2  0
 47 53  1  0
 49 50  1  0
 50 51  1  6
 50 52  1  0
 53 54  1  0
 54 55  1  0
 54 57  1  6
 55 56  1  0
 55 61  2  0
 57 58  1  0
 58 59  2  0
 58 60  1  0
M  CHG  1   1   1
M  END
$$$$
