
     RDKit          3D

 61 62  0  0  0  0  0  0  0  0999 V2000
   62.4049  118.3514   15.5225 N   0  0  0  0  0  4  0  0  0  0  0  0
   61.0195  117.8750   15.6430 C   0  0  2  0  0  0  0  0  0  0  0  0
   60.9364  116.6963   16.5214 C   0  0  0  0  0  0  0  0  0  0  0  0
   61.8964  115.9045   16.6924 O   0  0  0  0  0  0  0  0  0  0  0  0
   60.6091  117.5497   14.2172 C   0  0  0  0  0  0  0  0  0  0  0  0
   59.3082  116.8352   14.1496 C   0  0  0  0  0  0  0  0  0  0  0  0
   58.1757  117.7174   13.8904 C   0  0  0  0  0  0  0  0  0  0  0  0
   58.3469  118.7974   13.2502 O   0  0  0  0  0  0  0  0  0  0  0  0
   56.9059  117.3994   14.3311 O   0  0  0  0  0  0  0  0  0  0  0  0
   59.6866  116.4503   17.2155 N   0  0  0  0  0  0  0  0  0  0  0  0
   59.5805  115.3419   18.0995 C   0  0  2  0  0  0  0  0  0  0  0  0
   58.7226  114.2621   17.6348 C   0  0  0  0  0  0  0  0  0  0  0  0
   57.9245  114.6354   16.6626 O   0  0  0  0  0  0  0  0  0  0  0  0
   59.1157  115.7874   19.4949 C   0  0  0  0  0  0  0  0  0  0  0  0
   58.5074  117.1202   19.3853 C   0  0  0  0  0  0  0  0  0  0  0  0
   57.1877  117.2489   18.9119 O   0  0  0  0  0  0  0  0  0  0  0  0
   59.1460  118.1326   19.7065 O   0  0  0  0  0  0  0  0  0  0  0  0
   58.5725  112.9226   17.9985 N   0  0  0  0  0  0  0  0  0  0  0  0
   57.8461  111.9153   17.2167 C   0  0  2  0  0  0  0  0  0  0  0  0
   56.5321  111.5948   17.8750 C   0  0  0  0  0  0  0  0  0  0  0  0
   56.0618  110.4286   17.9139 O   0  0  0  0  0  0  0  0  0  0  0  0
   58.7206  110.6997   17.3879 C   0  0  0  0  0  0  0  0  0  0  0  0
   58.9108  110.7483   18.9135 C   0  0  0  0  0  0  0  0  0  0  0  0
   59.0750  112.2601   19.1630 C   0  0  0  0  0  0  0  0  0  0  0  0
   55.8018  112.6376   18.4718 N   0  0  0  0  0  0  0  0  0  0  0  0
   54.7375  112.4207   19.4607 C   0  0  2  0  0  0  0  0  0  0  0  0
   54.1853  113.7098   19.8208 C   0  0  0  0  0  0  0  0  0  0  0  0
   53.4728  113.8107   20.8991 O   0  0  0  0  0  0  0  0  0  0  0  0
   55.3742  111.5964   20.5347 C   0  0  0  0  0  0  0  0  0  0  0  0
   55.0474  110.1782   20.5929 C   0  0  0  0  0  0  0  0  0  0  0  0
   54.2079  109.6016   19.6377 C   0  0  0  0  0  0  0  0  0  0  0  0
   55.5609  109.3316   21.5825 C   0  0  0  0  0  0  0  0  0  0  0  0
   53.9073  108.2593   19.6793 C   0  0  0  0  0  0  0  0  0  0  0  0
   55.2434  107.9975   21.5976 C   0  0  0  0  0  0  0  0  0  0  0  0
   54.4065  107.4176   20.6471 C   0  0  0  0  0  0  0  0  0  0  0  0
   54.0916  106.0589   20.6744 O   0  0  0  0  0  0  0  0  0  0  0  0
   54.3364  114.9024   19.1163 N   0  0  0  0  0  0  0  0  0  0  0  0
   54.2646  116.2028   19.8717 C   0  0  2  0  0  0  0  0  0  0  0  0
   54.3307  117.2841   18.8767 C   0  0  0  0  0  0  0  0  0  0  0  0
   54.5823  118.4608   19.3662 O   0  0  0  0  0  0  0  0  0  0  0  0
   55.2465  116.1066   20.9345 C   0  0  0  0  0  0  0  0  0  0  0  0
   55.6077  117.2142   21.7868 C   0  0  0  0  0  0  0  0  0  0  0  0
   54.8999  118.1549   22.1434 O   0  0  0  0  0  0  0  0  0  0  0  0
   56.9346  117.2432   22.2867 O   0  0  0  0  0  0  0  0  0  0  0  0
   54.1785  117.2452   17.4995 N   0  0  0  0  0  0  0  0  0  0  0  0
   52.9948  117.8623   16.8035 C   0  0  2  0  0  0  0  0  0  0  0  0
   52.9836  119.2663   17.1733 C   0  0  0  0  0  0  0  0  0  0  0  0
   52.1718  120.1207   16.7148 O   0  0  0  0  0  0  0  0  0  0  0  0
   51.8186  117.0170   17.0375 C   0  0  0  0  0  0  0  0  0  0  0  0
   51.8185  115.5685   16.8737 C   0  0  1  0  0  0  0  0  0  0  0  0
   50.5052  115.0728   17.5642 C   0  0  0  0  0  0  0  0  0  0  0  0
   51.8722  114.9406   15.5425 C   0  0  0  0  0  0  0  0  0  0  0  0
   53.9249  119.8319   18.1227 N   0  0  0  0  0  0  0  0  0  0  0  0
   53.9225  121.2327   18.3891 C   0  0  2  0  0  0  0  0  0  0  0  0
   54.0447  122.0270   17.1106 C   0  0  0  0  0  0  0  0  0  0  0  0
   54.7610  121.5614   16.0303 O   0  0  0  0  0  0  0  0  0  0  0  0
   54.9769  121.7448   19.2950 C   0  0  0  0  0  0  0  0  0  0  0  0
   54.9930  121.1223   20.6507 C   0  0  0  0  0  0  0  0  0  0  0  0
   53.9122  120.7912   21.2400 O   0  0  0  0  0  0  0  0  0  0  0  0
   56.2025  120.8715   21.3411 N   0  0  0  0  0  0  0  0  0  0  0  0
   53.4750  123.1362   17.0463 O   0  0  0  0  0  0  0  0  0  0  0  0
  2  1  1  6
  2  3  1  0
  2  5  1  0
  3  4  2  0
  3 10  1  0
  5  6  1  0
  6  7  1  0
  7  8  2  0
  7  9  1  0
 10 11  1  0
 11 12  1  0
 11 14  1  1
 12 13  2  0
 12 18  1  0
 14 15  1  0
 15 16  1  0
 15 17  2  0
 18 19  1  0
 18 24  1  0
 19 20  1  1
 19 22  1  0
 20 21  2  0
 20 25  1  0
 22 23  1  0
 23 24  1  0
 25 26  1  0
 26 27  1  0
 26 29  1  1
 27 28  2  0
 27 37  1  0
 29 30  1  0
 30 31  2  0
 30 32  1  0
 31 33  1  0
 32 34  2  0
 33 35  2  0
 34 35  1  0
 35 36  1  0
 37 38  1  0
 38 39  1  0
 38 41  1  1
 39 40  2  0
 39 45  1  0
 41 42  1  0
 42 43  2  0
 42 44  1  0
 45 46  1  0
 46 47  1  0
 46 49  1  1
 47 48  2  0
 47 53  1  0
 49 50  1  0
 50 51  1  6
 50 52  1  0
 53 54  1  0
 54 55  1  0
 54 57  1  1
 55 56  1  0
 55 61  2  0
 57 58  1  0
 58 59  2  0
 58 60  1  0
M  CHG  1   1   1
M  END
$$$$
