
     RDKit          3D

 61 62  0  0  0  0  0  0  0  0999 V2000
   60.5261  120.5043   14.1057 N   0  0  0  0  0  4  0  0  0  0  0  0
   59.5310  120.0112   15.0688 C   0  0  2  0  0  0  0  0  0  0  0  0
   59.8904  118.6732   15.5675 C   0  0  0  0  0  0  0  0  0  0  0  0
   60.3950  117.7858   14.8358 O   0  0  0  0  0  0  0  0  0  0  0  0
   58.2286  119.9941   14.2874 C   0  0  0  0  0  0  0  0  0  0  0  0
   57.0920  120.5504   15.0658 C   0  0  0  0  0  0  0  0  0  0  0  0
   57.2199  121.9779   15.3378 C   0  0  0  0  0  0  0  0  0  0  0  0
   56.4709  122.5287   16.1987 O   0  0  0  0  0  0  0  0  0  0  0  0
   58.1494  122.7524   14.6716 O   0  0  0  0  0  0  0  0  0  0  0  0
   59.6478  118.3798   16.9673 N   0  0  0  0  0  0  0  0  0  0  0  0
   59.9530  117.0884   17.4773 C   0  0  2  0  0  0  0  0  0  0  0  0
   59.2055  115.9947   16.8748 C   0  0  0  0  0  0  0  0  0  0  0  0
   58.0021  116.3553   16.4960 O   0  0  0  0  0  0  0  0  0  0  0  0
   59.7749  117.0378   19.0030 C   0  0  0  0  0  0  0  0  0  0  0  0
   60.0882  115.6802   19.4689 C   0  0  0  0  0  0  0  0  0  0  0  0
   61.2960  115.0698   19.0808 O   0  0  0  0  0  0  0  0  0  0  0  0
   59.2980  115.0674   20.2012 O   0  0  0  0  0  0  0  0  0  0  0  0
   59.4962  114.6545   16.6130 N   0  0  0  0  0  0  0  0  0  0  0  0
   58.5892  113.7117   15.9482 C   0  0  2  0  0  0  0  0  0  0  0  0
   58.0181  112.7459   16.9500 C   0  0  0  0  0  0  0  0  0  0  0  0
   57.2489  111.8062   16.6210 O   0  0  0  0  0  0  0  0  0  0  0  0
   59.5398  112.9233   15.0843 C   0  0  0  0  0  0  0  0  0  0  0  0
   60.6196  112.6083   16.1335 C   0  0  0  0  0  0  0  0  0  0  0  0
   60.6936  113.9328   16.9177 C   0  0  0  0  0  0  0  0  0  0  0  0
   58.3580  112.8970   18.3059 N   0  0  0  0  0  0  0  0  0  0  0  0
   57.6320  112.2427   19.4025 C   0  0  2  0  0  0  0  0  0  0  0  0
   56.5675  113.1260   19.8305 C   0  0  0  0  0  0  0  0  0  0  0  0
   55.8243  112.7766   20.8337 O   0  0  0  0  0  0  0  0  0  0  0  0
   58.6887  111.8721   20.3946 C   0  0  0  0  0  0  0  0  0  0  0  0
   58.3046  111.7650   21.7954 C   0  0  0  0  0  0  0  0  0  0  0  0
   57.9724  110.5272   22.3497 C   0  0  0  0  0  0  0  0  0  0  0  0
   58.2641  112.8750   22.6475 C   0  0  0  0  0  0  0  0  0  0  0  0
   57.6228  110.4179   23.6762 C   0  0  0  0  0  0  0  0  0  0  0  0
   57.9121  112.7344   23.9655 C   0  0  0  0  0  0  0  0  0  0  0  0
   57.5799  111.5019   24.5231 C   0  0  0  0  0  0  0  0  0  0  0  0
   57.2234  111.3732   25.8656 O   0  0  0  0  0  0  0  0  0  0  0  0
   56.2354  114.3569   19.2685 N   0  0  0  0  0  0  0  0  0  0  0  0
   55.1391  115.1701   19.9039 C   0  0  2  0  0  0  0  0  0  0  0  0
   53.8839  114.8030   19.2306 C   0  0  0  0  0  0  0  0  0  0  0  0
   54.0187  113.9719   18.2413 O   0  0  0  0  0  0  0  0  0  0  0  0
   55.6075  116.5424   19.9115 C   0  0  0  0  0  0  0  0  0  0  0  0
   54.7849  117.6618   20.3041 C   0  0  0  0  0  0  0  0  0  0  0  0
   54.2683  117.8714   21.4006 O   0  0  0  0  0  0  0  0  0  0  0  0
   54.5275  118.6540   19.3241 O   0  0  0  0  0  0  0  0  0  0  0  0
   52.5798  115.1940   19.4907 N   0  0  0  0  0  0  0  0  0  0  0  0
   51.4120  114.6829   18.6899 C   0  0  2  0  0  0  0  0  0  0  0  0
   50.2302  115.3434   19.2144 C   0  0  0  0  0  0  0  0  0  0  0  0
   49.1864  115.5833   18.5420 O   0  0  0  0  0  0  0  0  0  0  0  0
   51.4871  113.2187   18.6308 C   0  0  0  0  0  0  0  0  0  0  0  0
   52.1734  112.4864   17.5736 C   0  0  1  0  0  0  0  0  0  0  0  0
   52.0933  110.9811   17.9919 C   0  0  0  0  0  0  0  0  0  0  0  0
   51.7404  112.5697   16.1682 C   0  0  0  0  0  0  0  0  0  0  0  0
   50.1362  115.8016   20.5886 N   0  0  0  0  0  0  0  0  0  0  0  0
   49.0384  116.6122   21.0023 C   0  0  2  0  0  0  0  0  0  0  0  0
   48.4036  117.3072   19.8215 C   0  0  0  0  0  0  0  0  0  0  0  0
   47.0736  117.1380   19.5064 O   0  0  0  0  0  0  0  0  0  0  0  0
   49.3242  117.6705   21.9988 C   0  0  0  0  0  0  0  0  0  0  0  0
   48.1159  118.2963   22.6103 C   0  0  0  0  0  0  0  0  0  0  0  0
   47.0703  118.5306   21.9196 O   0  0  0  0  0  0  0  0  0  0  0  0
   48.0746  118.6564   23.9782 N   0  0  0  0  0  0  0  0  0  0  0  0
   49.1179  118.0532   19.1197 O   0  0  0  0  0  0  0  0  0  0  0  0
  2  1  1  6
  2  3  1  0
  2  5  1  0
  3  4  2  0
  3 10  1  0
  5  6  1  0
  6  7  1  0
  7  8  2  0
  7  9  1  0
 10 11  1  0
 11 12  1  0
 11 14  1  1
 12 13  2  0
 12 18  1  0
 14 15  1  0
 15 16  1  0
 15 17  2  0
 18 19  1  0
 18 24  1  0
 19 20  1  1
 19 22  1  0
 20 21  2  0
 20 25  1  0
 22 23  1  0
 23 24  1  0
 25 26  1  0
 26 27  1  0
 26 29  1  1
 27 28  2  0
 27 37  1  0
 29 30  1  0
 30 31  2  0
 30 32  1  0
 31 33  1  0
 32 34  2  0
 33 35  2  0
 34 35  1  0
 35 36  1  0
 37 38  1  0
 38 39  1  0
 38 41  1  6
 39 40  2  0
 39 45  1  0
 41 42  1  0
 42 43  2  0
 42 44  1  0
 45 46  1  0
 46 47  1  0
 46 49  1  1
 47 48  2  0
 47 53  1  0
 49 50  1  0
 50 51  1  1
 50 52  1  0
 53 54  1  0
 54 55  1  0
 54 57  1  1
 55 56  1  0
 55 61  2  0
 57 58  1  0
 58 59  2  0
 58 60  1  0
M  CHG  1   1   1
M  END
$$$$
