
     RDKit          3D

 61 62  0  0  0  0  0  0  0  0999 V2000
   59.6117  118.4817   15.1324 N   0  0  0  0  0  4  0  0  0  0  0  0
   59.1281  118.2613   16.5030 C   0  0  2  0  0  0  0  0  0  0  0  0
   58.9346  116.8273   16.7751 C   0  0  0  0  0  0  0  0  0  0  0  0
   58.0696  116.1324   16.1863 O   0  0  0  0  0  0  0  0  0  0  0  0
   57.8211  119.0324   16.5685 C   0  0  0  0  0  0  0  0  0  0  0  0
   57.3216  119.1864   17.9592 C   0  0  0  0  0  0  0  0  0  0  0  0
   56.5102  120.3829   18.1540 C   0  0  0  0  0  0  0  0  0  0  0  0
   56.4338  121.2534   17.2364 O   0  0  0  0  0  0  0  0  0  0  0  0
   55.8146  120.5918   19.3288 O   0  0  0  0  0  0  0  0  0  0  0  0
   59.7872  116.2007   17.7674 N   0  0  0  0  0  0  0  0  0  0  0  0
   59.5191  114.8678   18.1827 C   0  0  2  0  0  0  0  0  0  0  0  0
   58.2267  114.3412   17.7703 C   0  0  0  0  0  0  0  0  0  0  0  0
   57.3162  115.2782   17.6491 O   0  0  0  0  0  0  0  0  0  0  0  0
   59.6573  114.7229   19.7065 C   0  0  0  0  0  0  0  0  0  0  0  0
   61.0262  115.0914   20.0922 C   0  0  0  0  0  0  0  0  0  0  0  0
   61.7513  116.0065   19.3055 O   0  0  0  0  0  0  0  0  0  0  0  0
   61.5483  114.6036   21.1050 O   0  0  0  0  0  0  0  0  0  0  0  0
   57.7546  113.0610   17.4748 N   0  0  0  0  0  0  0  0  0  0  0  0
   56.3528  112.7241   17.2011 C   0  0  2  0  0  0  0  0  0  0  0  0
   55.7543  111.9975   18.3745 C   0  0  0  0  0  0  0  0  0  0  0  0
   54.5782  111.5508   18.3649 O   0  0  0  0  0  0  0  0  0  0  0  0
   56.4875  111.7124   16.0921 C   0  0  0  0  0  0  0  0  0  0  0  0
   57.5672  110.8105   16.7139 C   0  0  0  0  0  0  0  0  0  0  0  0
   58.5006  111.8442   17.3733 C   0  0  0  0  0  0  0  0  0  0  0  0
   56.5392  111.8082   19.5255 N   0  0  0  0  0  0  0  0  0  0  0  0
   55.9768  111.6070   20.8674 C   0  0  2  0  0  0  0  0  0  0  0  0
   54.9734  112.6258   21.0945 C   0  0  0  0  0  0  0  0  0  0  0  0
   53.7495  112.2645   21.3233 O   0  0  0  0  0  0  0  0  0  0  0  0
   57.1632  111.5638   21.7779 C   0  0  0  0  0  0  0  0  0  0  0  0
   58.4137  112.1374   21.2998 C   0  0  0  0  0  0  0  0  0  0  0  0
   58.9639  113.2613   21.9195 C   0  0  0  0  0  0  0  0  0  0  0  0
   59.1242  111.5925   20.2238 C   0  0  0  0  0  0  0  0  0  0  0  0
   60.1526  113.7988   21.4813 C   0  0  0  0  0  0  0  0  0  0  0  0
   60.3068  112.1504   19.8101 C   0  0  0  0  0  0  0  0  0  0  0  0
   60.8597  113.2714   20.4249 C   0  0  0  0  0  0  0  0  0  0  0  0
   62.0636  113.8289   19.9937 O   0  0  0  0  0  0  0  0  0  0  0  0
   55.1772  114.0041   21.0968 N   0  0  0  0  0  0  0  0  0  0  0  0
   53.9944  114.9100   21.3139 C   0  0  2  0  0  0  0  0  0  0  0  0
   53.3077  115.0409   20.0198 C   0  0  0  0  0  0  0  0  0  0  0  0
   54.0956  115.1723   18.9953 O   0  0  0  0  0  0  0  0  0  0  0  0
   54.5022  116.0765   22.0099 C   0  0  0  0  0  0  0  0  0  0  0  0
   55.6168  116.0338   22.9262 C   0  0  0  0  0  0  0  0  0  0  0  0
   56.3515  116.9601   23.2655 O   0  0  0  0  0  0  0  0  0  0  0  0
   55.9212  114.7827   23.5208 O   0  0  0  0  0  0  0  0  0  0  0  0
   51.9547  115.0349   19.7185 N   0  0  0  0  0  0  0  0  0  0  0  0
   51.4452  115.1249   18.3048 C   0  0  2  0  0  0  0  0  0  0  0  0
   51.7484  116.4669   17.8408 C   0  0  0  0  0  0  0  0  0  0  0  0
   51.4009  116.9313   16.7171 O   0  0  0  0  0  0  0  0  0  0  0  0
   50.0709  114.6124   18.2667 C   0  0  0  0  0  0  0  0  0  0  0  0
   49.7382  113.1939   18.2193 C   0  0  1  0  0  0  0  0  0  0  0  0
   48.1866  113.1250   18.4067 C   0  0  0  0  0  0  0  0  0  0  0  0
   50.0716  112.3597   17.0521 C   0  0  0  0  0  0  0  0  0  0  0  0
   52.4968  117.4198   18.6404 N   0  0  0  0  0  0  0  0  0  0  0  0
   52.6714  118.7596   18.1847 C   0  0  2  0  0  0  0  0  0  0  0  0
   54.1142  119.0262   17.8275 C   0  0  0  0  0  0  0  0  0  0  0  0
   55.0651  118.0300   17.8491 O   0  0  0  0  0  0  0  0  0  0  0  0
   52.2699  119.8416   19.1136 C   0  0  0  0  0  0  0  0  0  0  0  0
   50.7996  119.9607   19.3367 C   0  0  0  0  0  0  0  0  0  0  0  0
   49.9893  120.0797   18.3598 O   0  0  0  0  0  0  0  0  0  0  0  0
   50.2396  119.9466   20.6361 N   0  0  0  0  0  0  0  0  0  0  0  0
   54.4394  120.1880   17.5061 O   0  0  0  0  0  0  0  0  0  0  0  0
  2  1  1  6
  2  3  1  0
  2  5  1  0
  3  4  2  0
  3 10  1  0
  5  6  1  0
  6  7  1  0
  7  8  2  0
  7  9  1  0
 10 11  1  0
 11 12  1  0
 11 14  1  1
 12 13  2  0
 12 18  1  0
 14 15  1  0
 15 16  1  0
 15 17  2  0
 18 19  1  0
 18 24  1  0
 19 20  1  1
 19 22  1  0
 20 21  2  0
 20 25  1  0
 22 23  1  0
 23 24  1  0
 25 26  1  0
 26 27  1  0
 26 29  1  1
 27 28  2  0
 27 37  1  0
 29 30  1  0
 30 31  2  0
 30 32  1  0
 31 33  1  0
 32 34  2  0
 33 35  2  0
 34 35  1  0
 35 36  1  0
 37 38  1  0
 38 39  1  0
 38 41  1  6
 39 40  2  0
 39 45  1  0
 41 42  1  0
 42 43  2  0
 42 44  1  0
 45 46  1  0
 46 47  1  0
 46 49  1  1
 47 48  2  0
 47 53  1  0
 49 50  1  0
 50 51  1  6
 50 52  1  0
 53 54  1  0
 54 55  1  0
 54 57  1  1
 55 56  1  0
 55 61  2  0
 57 58  1  0
 58 59  2  0
 58 60  1  0
M  CHG  1   1   1
M  END
$$$$
