
     RDKit          3D

 61 62  0  0  0  0  0  0  0  0999 V2000
   56.7894  121.9623   17.4551 N   0  0  0  0  0  4  0  0  0  0  0  0
   56.6269  120.5361   17.1379 C   0  0  2  0  0  0  0  0  0  0  0  0
   55.4677  119.9629   17.8419 C   0  0  0  0  0  0  0  0  0  0  0  0
   54.7290  120.6381   18.6008 O   0  0  0  0  0  0  0  0  0  0  0  0
   57.9324  119.9010   17.5844 C   0  0  0  0  0  0  0  0  0  0  0  0
   59.1176  120.5317   16.9480 C   0  0  0  0  0  0  0  0  0  0  0  0
   60.3866  119.9955   17.4278 C   0  0  0  0  0  0  0  0  0  0  0  0
   61.4300  120.1043   16.7171 O   0  0  0  0  0  0  0  0  0  0  0  0
   60.4790  119.3648   18.6531 O   0  0  0  0  0  0  0  0  0  0  0  0
   55.1755  118.5563   17.6409 N   0  0  0  0  0  0  0  0  0  0  0  0
   54.0065  117.9920   18.2207 C   0  0  2  0  0  0  0  0  0  0  0  0
   54.1941  117.4023   19.5378 C   0  0  0  0  0  0  0  0  0  0  0  0
   55.3148  117.7818   20.1049 O   0  0  0  0  0  0  0  0  0  0  0  0
   53.3734  116.9472   17.2882 C   0  0  0  0  0  0  0  0  0  0  0  0
   52.1061  116.4957   17.8785 C   0  0  0  0  0  0  0  0  0  0  0  0
   50.9315  116.5049   17.1024 O   0  0  0  0  0  0  0  0  0  0  0  0
   52.0621  116.1063   19.0543 O   0  0  0  0  0  0  0  0  0  0  0  0
   53.4387  116.5281   20.3216 N   0  0  0  0  0  0  0  0  0  0  0  0
   53.8986  115.9058   21.5685 C   0  0  2  0  0  0  0  0  0  0  0  0
   54.2016  114.4499   21.3417 C   0  0  0  0  0  0  0  0  0  0  0  0
   54.1398  113.5949   22.2625 O   0  0  0  0  0  0  0  0  0  0  0  0
   52.6552  115.9589   22.4188 C   0  0  0  0  0  0  0  0  0  0  0  0
   51.6424  115.3983   21.4059 C   0  0  0  0  0  0  0  0  0  0  0  0
   52.1033  116.0664   20.0961 C   0  0  0  0  0  0  0  0  0  0  0  0
   54.5660  114.0273   20.0512 N   0  0  0  0  0  0  0  0  0  0  0  0
   54.9338  112.6434   19.7240 C   0  0  2  0  0  0  0  0  0  0  0  0
   55.4418  112.6190   18.3684 C   0  0  0  0  0  0  0  0  0  0  0  0
   54.9684  111.7469   17.5340 O   0  0  0  0  0  0  0  0  0  0  0  0
   53.7133  111.8375   20.0391 C   0  0  0  0  0  0  0  0  0  0  0  0
   52.5168  112.0673   19.2410 C   0  0  0  0  0  0  0  0  0  0  0  0
   51.3589  111.3191   19.4629 C   0  0  0  0  0  0  0  0  0  0  0  0
   52.4615  113.0430   18.2387 C   0  0  0  0  0  0  0  0  0  0  0  0
   50.2210  111.5419   18.7217 C   0  0  0  0  0  0  0  0  0  0  0  0
   51.3126  113.2420   17.5168 C   0  0  0  0  0  0  0  0  0  0  0  0
   50.1550  112.4983   17.7343 C   0  0  0  0  0  0  0  0  0  0  0  0
   48.9929  112.7111   16.9923 O   0  0  0  0  0  0  0  0  0  0  0  0
   56.4184  113.4568   17.8339 N   0  0  0  0  0  0  0  0  0  0  0  0
   57.6695  112.8399   17.2671 C   0  0  2  0  0  0  0  0  0  0  0  0
   58.6860  113.9015   17.2090 C   0  0  0  0  0  0  0  0  0  0  0  0
   59.5015  113.8208   16.2011 O   0  0  0  0  0  0  0  0  0  0  0  0
   57.2626  112.1309   16.0693 C   0  0  0  0  0  0  0  0  0  0  0  0
   56.5095  112.7420   15.0000 C   0  0  0  0  0  0  0  0  0  0  0  0
   56.1594  112.2333   13.9363 O   0  0  0  0  0  0  0  0  0  0  0  0
   56.1132  114.0925   15.1742 O   0  0  0  0  0  0  0  0  0  0  0  0
   58.9048  114.9798   18.0520 N   0  0  0  0  0  0  0  0  0  0  0  0
   59.9594  116.0174   17.7733 C   0  0  2  0  0  0  0  0  0  0  0  0
   59.8602  117.0031   18.8347 C   0  0  0  0  0  0  0  0  0  0  0  0
   60.5036  118.0913   18.8634 O   0  0  0  0  0  0  0  0  0  0  0  0
   59.8622  116.4204   16.3659 C   0  0  0  0  0  0  0  0  0  0  0  0
   60.4072  115.6399   15.2619 C   0  0  1  0  0  0  0  0  0  0  0  0
   61.1010  116.6796   14.3212 C   0  0  0  0  0  0  0  0  0  0  0  0
   61.3704  114.5487   15.4876 C   0  0  0  0  0  0  0  0  0  0  0  0
   58.9959  116.8258   19.9875 N   0  0  0  0  0  0  0  0  0  0  0  0
   58.8594  117.8687   20.9503 C   0  0  2  0  0  0  0  0  0  0  0  0
   58.5937  117.3044   22.3256 C   0  0  0  0  0  0  0  0  0  0  0  0
   59.4885  117.4596   23.3611 O   0  0  0  0  0  0  0  0  0  0  0  0
   57.7986  118.8733   20.7049 C   0  0  0  0  0  0  0  0  0  0  0  0
   56.6667  118.8374   21.6762 C   0  0  0  0  0  0  0  0  0  0  0  0
   56.8279  118.4065   22.8650 O   0  0  0  0  0  0  0  0  0  0  0  0
   55.3689  119.2783   21.3245 N   0  0  0  0  0  0  0  0  0  0  0  0
   57.5283  116.6812   22.5139 O   0  0  0  0  0  0  0  0  0  0  0  0
  2  1  1  1
  2  3  1  0
  2  5  1  0
  3  4  2  0
  3 10  1  0
  5  6  1  0
  6  7  1  0
  7  8  2  0
  7  9  1  0
 10 11  1  0
 11 12  1  0
 11 14  1  6
 12 13  2  0
 12 18  1  0
 14 15  1  0
 15 16  1  0
 15 17  2  0
 18 19  1  0
 18 24  1  0
 19 20  1  6
 19 22  1  0
 20 21  2  0
 20 25  1  0
 22 23  1  0
 23 24  1  0
 25 26  1  0
 26 27  1  0
 26 29  1  6
 27 28  2  0
 27 37  1  0
 29 30  1  0
 30 31  2  0
 30 32  1  0
 31 33  1  0
 32 34  2  0
 33 35  2  0
 34 35  1  0
 35 36  1  0
 37 38  1  0
 38 39  1  0
 38 41  1  6
 39 40  2  0
 39 45  1  0
 41 42  1  0
 42 43  2  0
 42 44  1  0
 45 46  1  0
 46 47  1  0
 46 49  1  6
 47 48  2  0
 47 53  1  0
 49 50  1  0
 50 51  1  6
 50 52  1  0
 53 54  1  0
 54 55  1  0
 54 57  1  6
 55 56  1  0
 55 61  2  0
 57 58  1  0
 58 59  2  0
 58 60  1  0
M  CHG  1   1   1
M  END
$$$$
