
     RDKit          3D

 61 62  0  0  0  0  0  0  0  0999 V2000
   63.9032  117.2220   15.3240 N   0  0  0  0  0  4  0  0  0  0  0  0
   62.9084  117.5517   16.3548 C   0  0  2  0  0  0  0  0  0  0  0  0
   61.5386  117.3270   15.8638 C   0  0  0  0  0  0  0  0  0  0  0  0
   61.2435  117.3264   14.6429 O   0  0  0  0  0  0  0  0  0  0  0  0
   63.1650  119.0152   16.6698 C   0  0  0  0  0  0  0  0  0  0  0  0
   62.3613  119.4974   17.8226 C   0  0  0  0  0  0  0  0  0  0  0  0
   62.5753  120.9077   18.1284 C   0  0  0  0  0  0  0  0  0  0  0  0
   63.7486  121.3419   18.3291 O   0  0  0  0  0  0  0  0  0  0  0  0
   61.5166  121.7915   18.2048 O   0  0  0  0  0  0  0  0  0  0  0  0
   60.4931  117.0957   16.8426 N   0  0  0  0  0  0  0  0  0  0  0  0
   59.3486  116.3337   16.4809 C   0  0  2  0  0  0  0  0  0  0  0  0
   58.0735  116.9046   16.8881 C   0  0  0  0  0  0  0  0  0  0  0  0
   58.0469  117.2221   18.1609 O   0  0  0  0  0  0  0  0  0  0  0  0
   59.4482  114.8958   17.0141 C   0  0  0  0  0  0  0  0  0  0  0  0
   58.1190  114.2741   16.9428 C   0  0  0  0  0  0  0  0  0  0  0  0
   57.0386  114.9954   16.3998 O   0  0  0  0  0  0  0  0  0  0  0  0
   57.9405  113.1194   17.3564 O   0  0  0  0  0  0  0  0  0  0  0  0
   56.8829  117.1876   16.2161 N   0  0  0  0  0  0  0  0  0  0  0  0
   55.7927  118.0133   16.7483 C   0  0  2  0  0  0  0  0  0  0  0  0
   54.6320  117.1451   17.1505 C   0  0  0  0  0  0  0  0  0  0  0  0
   53.4829  117.2808   16.6566 O   0  0  0  0  0  0  0  0  0  0  0  0
   55.3553  118.7763   15.5243 C   0  0  0  0  0  0  0  0  0  0  0  0
   55.2500  117.6060   14.5316 C   0  0  0  0  0  0  0  0  0  0  0  0
   56.4785  116.7574   14.9127 C   0  0  0  0  0  0  0  0  0  0  0  0
   54.8388  116.1420   18.1138 N   0  0  0  0  0  0  0  0  0  0  0  0
   53.7708  115.2690   18.6186 C   0  0  2  0  0  0  0  0  0  0  0  0
   54.2921  114.5207   19.7431 C   0  0  0  0  0  0  0  0  0  0  0  0
   55.2642  115.0236   20.4380 O   0  0  0  0  0  0  0  0  0  0  0  0
   53.2970  114.5100   17.4194 C   0  0  0  0  0  0  0  0  0  0  0  0
   52.1466  115.0286   16.6921 C   0  0  0  0  0  0  0  0  0  0  0  0
   50.9059  115.1556   17.3201 C   0  0  0  0  0  0  0  0  0  0  0  0
   52.2271  115.4340   15.3546 C   0  0  0  0  0  0  0  0  0  0  0  0
   49.8191  115.6586   16.6421 C   0  0  0  0  0  0  0  0  0  0  0  0
   51.1263  115.9317   14.7055 C   0  0  0  0  0  0  0  0  0  0  0  0
   49.8866  116.0603   15.3275 C   0  0  0  0  0  0  0  0  0  0  0  0
   48.7748  116.5683   14.6552 O   0  0  0  0  0  0  0  0  0  0  0  0
   53.8535  113.2739   20.1841 N   0  0  0  0  0  0  0  0  0  0  0  0
   54.2373  112.8196   21.5673 C   0  0  2  0  0  0  0  0  0  0  0  0
   55.6819  112.5437   21.5455 C   0  0  0  0  0  0  0  0  0  0  0  0
   56.3025  112.7990   22.6579 O   0  0  0  0  0  0  0  0  0  0  0  0
   53.2863  111.7870   21.9310 C   0  0  0  0  0  0  0  0  0  0  0  0
   53.3803  111.0103   23.1441 C   0  0  0  0  0  0  0  0  0  0  0  0
   53.3165  111.4121   24.3049 O   0  0  0  0  0  0  0  0  0  0  0  0
   53.5687  109.6115   23.0067 O   0  0  0  0  0  0  0  0  0  0  0  0
   56.4838  112.0442   20.5312 N   0  0  0  0  0  0  0  0  0  0  0  0
   57.9573  111.7988   20.7179 C   0  0  2  0  0  0  0  0  0  0  0  0
   58.5813  113.1039   20.8420 C   0  0  0  0  0  0  0  0  0  0  0  0
   59.7790  113.2934   21.2008 O   0  0  0  0  0  0  0  0  0  0  0  0
   58.4086  110.8473   19.6963 C   0  0  0  0  0  0  0  0  0  0  0  0
   59.6197  110.0450   19.8176 C   0  0  1  0  0  0  0  0  0  0  0  0
   59.5211  108.9708   18.6846 C   0  0  0  0  0  0  0  0  0  0  0  0
   60.9600  110.6490   19.7271 C   0  0  0  0  0  0  0  0  0  0  0  0
   57.8720  114.3390   20.5616 N   0  0  0  0  0  0  0  0  0  0  0  0
   58.2583  115.5514   21.2051 C   0  0  2  0  0  0  0  0  0  0  0  0
   58.7218  115.2903   22.6183 C   0  0  0  0  0  0  0  0  0  0  0  0
   59.3731  116.2510   23.3597 O   0  0  0  0  0  0  0  0  0  0  0  0
   57.2338  116.6175   21.2976 C   0  0  0  0  0  0  0  0  0  0  0  0
   57.4508  117.7745   20.3810 C   0  0  0  0  0  0  0  0  0  0  0  0
   57.4464  118.9730   20.8154 O   0  0  0  0  0  0  0  0  0  0  0  0
   57.6707  117.5958   18.9947 N   0  0  0  0  0  0  0  0  0  0  0  0
   58.5015  114.1662   23.1152 O   0  0  0  0  0  0  0  0  0  0  0  0
  2  1  1  6
  2  3  1  0
  2  5  1  0
  3  4  2  0
  3 10  1  0
  5  6  1  0
  6  7  1  0
  7  8  2  0
  7  9  1  0
 10 11  1  0
 11 12  1  0
 11 14  1  1
 12 13  2  0
 12 18  1  0
 14 15  1  0
 15 16  1  0
 15 17  2  0
 18 19  1  0
 18 24  1  0
 19 20  1  6
 19 22  1  0
 20 21  2  0
 20 25  1  0
 22 23  1  0
 23 24  1  0
 25 26  1  0
 26 27  1  0
 26 29  1  6
 27 28  2  0
 27 37  1  0
 29 30  1  0
 30 31  2  0
 30 32  1  0
 31 33  1  0
 32 34  2  0
 33 35  2  0
 34 35  1  0
 35 36  1  0
 37 38  1  0
 38 39  1  0
 38 41  1  6
 39 40  2  0
 39 45  1  0
 41 42  1  0
 42 43  2  0
 42 44  1  0
 45 46  1  0
 46 47  1  0
 46 49  1  6
 47 48  2  0
 47 53  1  0
 49 50  1  0
 50 51  1  6
 50 52  1  0
 53 54  1  0
 54 55  1  0
 54 57  1  1
 55 56  1  0
 55 61  2  0
 57 58  1  0
 58 59  2  0
 58 60  1  0
M  CHG  1   1   1
M  END
$$$$
