
     RDKit          3D

 61 62  0  0  0  0  0  0  0  0999 V2000
   65.8269  116.4967   14.6616 N   0  0  0  0  0  4  0  0  0  0  0  0
   65.0099  116.5411   13.4404 C   0  0  2  0  0  0  0  0  0  0  0  0
   63.5767  116.4162   13.7538 C   0  0  0  0  0  0  0  0  0  0  0  0
   62.6764  116.9286   13.0435 O   0  0  0  0  0  0  0  0  0  0  0  0
   65.5126  115.3730   12.6097 C   0  0  0  0  0  0  0  0  0  0  0  0
   66.4643  115.7972   11.5507 C   0  0  0  0  0  0  0  0  0  0  0  0
   65.8155  116.1217   10.2851 C   0  0  0  0  0  0  0  0  0  0  0  0
   66.2629  117.0648    9.5668 O   0  0  0  0  0  0  0  0  0  0  0  0
   64.7122  115.4165    9.8456 O   0  0  0  0  0  0  0  0  0  0  0  0
   63.2006  115.6647   14.9363 N   0  0  0  0  0  0  0  0  0  0  0  0
   61.8305  115.5750   15.3051 C   0  0  2  0  0  0  0  0  0  0  0  0
   61.2639  116.7889   15.8736 C   0  0  0  0  0  0  0  0  0  0  0  0
   62.0866  117.3898   16.7005 O   0  0  0  0  0  0  0  0  0  0  0  0
   61.5923  114.4073   16.2755 C   0  0  0  0  0  0  0  0  0  0  0  0
   60.1662  114.3702   16.6265 C   0  0  0  0  0  0  0  0  0  0  0  0
   59.2527  115.1795   15.9245 O   0  0  0  0  0  0  0  0  0  0  0  0
   59.7601  113.6320   17.5355 O   0  0  0  0  0  0  0  0  0  0  0  0
   60.0415  117.4467   15.7242 N   0  0  0  0  0  0  0  0  0  0  0  0
   59.7419  118.7900   16.2332 C   0  0  2  0  0  0  0  0  0  0  0  0
   58.8391  118.7016   17.4332 C   0  0  0  0  0  0  0  0  0  0  0  0
   58.5689  119.6988   18.1510 O   0  0  0  0  0  0  0  0  0  0  0  0
   58.9143  119.3685   15.1141 C   0  0  0  0  0  0  0  0  0  0  0  0
   57.9343  118.2013   14.9065 C   0  0  0  0  0  0  0  0  0  0  0  0
   58.8598  116.9797   15.0662 C   0  0  0  0  0  0  0  0  0  0  0  0
   58.2736  117.4578   17.7647 N   0  0  0  0  0  0  0  0  0  0  0  0
   56.8269  117.2258   17.8684 C   0  0  2  0  0  0  0  0  0  0  0  0
   56.6172  115.8517   18.2737 C   0  0  0  0  0  0  0  0  0  0  0  0
   56.8199  114.9034   17.4133 O   0  0  0  0  0  0  0  0  0  0  0  0
   56.2719  117.6700   16.5519 C   0  0  0  0  0  0  0  0  0  0  0  0
   55.5267  118.9206   16.5105 C   0  0  0  0  0  0  0  0  0  0  0  0
   56.0480  120.0792   17.0899 C   0  0  0  0  0  0  0  0  0  0  0  0
   54.2786  119.0281   15.8857 C   0  0  0  0  0  0  0  0  0  0  0  0
   55.3549  121.2671   17.0411 C   0  0  0  0  0  0  0  0  0  0  0  0
   53.6118  120.2260   15.8530 C   0  0  0  0  0  0  0  0  0  0  0  0
   54.1276  121.3845   16.4294 C   0  0  0  0  0  0  0  0  0  0  0  0
   53.4385  122.5967   16.3890 O   0  0  0  0  0  0  0  0  0  0  0  0
   56.2072  115.4115   19.5304 N   0  0  0  0  0  0  0  0  0  0  0  0
   56.0462  113.9325   19.7619 C   0  0  2  0  0  0  0  0  0  0  0  0
   54.6576  113.5905   19.4181 C   0  0  0  0  0  0  0  0  0  0  0  0
   54.0591  114.4493   18.6486 O   0  0  0  0  0  0  0  0  0  0  0  0
   56.5717  113.6723   21.0882 C   0  0  0  0  0  0  0  0  0  0  0  0
   56.9876  112.3648   21.5369 C   0  0  0  0  0  0  0  0  0  0  0  0
   57.4451  112.0536   22.6354 O   0  0  0  0  0  0  0  0  0  0  0  0
   56.8625  111.2924   20.6174 O   0  0  0  0  0  0  0  0  0  0  0  0
   53.8902  112.4929   19.7752 N   0  0  0  0  0  0  0  0  0  0  0  0
   52.4557  112.3402   19.3449 C   0  0  2  0  0  0  0  0  0  0  0  0
   51.6484  112.9986   20.3563 C   0  0  0  0  0  0  0  0  0  0  0  0
   50.5067  112.6035   20.7298 O   0  0  0  0  0  0  0  0  0  0  0  0
   52.2169  110.9357   18.9940 C   0  0  0  0  0  0  0  0  0  0  0  0
   50.9436  110.4327   18.4932 C   0  0  1  0  0  0  0  0  0  0  0  0
   51.1795  108.9118   18.2127 C   0  0  0  0  0  0  0  0  0  0  0  0
   49.7048  110.5411   19.2823 C   0  0  0  0  0  0  0  0  0  0  0  0
   52.0858  114.1989   21.0458 N   0  0  0  0  0  0  0  0  0  0  0  0
   51.2354  114.8286   22.0016 C   0  0  2  0  0  0  0  0  0  0  0  0
   51.0200  116.2834   21.6591 C   0  0  0  0  0  0  0  0  0  0  0  0
   50.8924  116.7131   20.3568 O   0  0  0  0  0  0  0  0  0  0  0  0
   51.6779  114.7990   23.4152 C   0  0  0  0  0  0  0  0  0  0  0  0
   51.5205  113.4788   24.0921 C   0  0  0  0  0  0  0  0  0  0  0  0
   50.4114  112.8509   24.0688 O   0  0  0  0  0  0  0  0  0  0  0  0
   52.5898  112.8658   24.7872 N   0  0  0  0  0  0  0  0  0  0  0  0
   50.9586  117.1087   22.5941 O   0  0  0  0  0  0  0  0  0  0  0  0
  2  1  1  1
  2  3  1  0
  2  5  1  0
  3  4  2  0
  3 10  1  0
  5  6  1  0
  6  7  1  0
  7  8  2  0
  7  9  1  0
 10 11  1  0
 11 12  1  0
 11 14  1  1
 12 13  2  0
 12 18  1  0
 14 15  1  0
 15 16  1  0
 15 17  2  0
 18 19  1  0
 18 24  1  0
 19 20  1  1
 19 22  1  0
 20 21  2  0
 20 25  1  0
 22 23  1  0
 23 24  1  0
 25 26  1  0
 26 27  1  0
 26 29  1  6
 27 28  2  0
 27 37  1  0
 29 30  1  0
 30 31  2  0
 30 32  1  0
 31 33  1  0
 32 34  2  0
 33 35  2  0
 34 35  1  0
 35 36  1  0
 37 38  1  0
 38 39  1  0
 38 41  1  1
 39 40  2  0
 39 45  1  0
 41 42  1  0
 42 43  2  0
 42 44  1  0
 45 46  1  0
 46 47  1  0
 46 49  1  1
 47 48  2  0
 47 53  1  0
 49 50  1  0
 50 51  1  1
 50 52  1  0
 53 54  1  0
 54 55  1  0
 54 57  1  1
 55 56  1  0
 55 61  2  0
 57 58  1  0
 58 59  2  0
 58 60  1  0
M  CHG  1   1   1
M  END
$$$$
