
     RDKit          3D

 13 13  0  0  0  0  0  0  0  0999 V2000
  -22.8528   14.6690  -11.7236 C   0  0  0  0  0  0  0  0  0  0  0  0
  -22.6733   15.6244  -12.7008 C   0  0  0  0  0  0  0  0  0  0  0  0
  -22.7839   16.9877  -12.3999 C   0  0  0  0  0  0  0  0  0  0  0  0
  -22.6074   17.9469  -13.3638 O   0  0  0  0  0  0  0  0  0  0  0  0
  -23.0753   17.4091  -11.1179 C   0  0  0  0  0  0  0  0  0  0  0  0
  -23.1891   18.7616  -10.8007 O   0  0  0  0  0  0  0  0  0  0  0  0
  -23.2546   16.4575  -10.1422 C   0  0  0  0  0  0  0  0  0  0  0  0
  -23.1474   15.1165  -10.4307 C   0  0  0  0  0  0  0  0  0  0  0  0
  -22.7490   13.2493  -11.9843 C   0  0  0  0  0  0  0  0  0  0  0  0
  -22.4875   12.7264  -13.1528 C   0  0  0  0  0  0  0  0  0  0  0  0
  -22.3169   11.2866  -13.3264 C   0  0  0  0  0  0  0  0  0  0  0  0
  -22.3303   10.7634  -14.4537 O   0  0  0  0  0  0  0  0  0  0  0  0
  -22.7407   17.7559  -14.7418 C   0  0  0  0  0  0  0  0  0  0  0  0
  1  2  2  0
  1  8  1  0
  1  9  1  0
  2  3  1  0
  3  4  1  0
  3  5  2  0
  4 13  1  0
  5  6  1  0
  5  7  1  0
  7  8  2  0
  9 10  2  0
 10 11  1  0
 11 12  2  0
M  END
$$$$
