
     RDKit          3D

 13 13  0  0  0  0  0  0  0  0999 V2000
  -22.3896   15.4170  -13.0638 C   0  0  0  0  0  0  0  0  0  0  0  0
  -22.4414   16.5737  -12.3158 C   0  0  0  0  0  0  0  0  0  0  0  0
  -22.4040   17.8298  -12.9339 C   0  0  0  0  0  0  0  0  0  0  0  0
  -22.4548   18.9871  -12.2001 O   0  0  0  0  0  0  0  0  0  0  0  0
  -22.3144   17.9415  -14.3071 C   0  0  0  0  0  0  0  0  0  0  0  0
  -22.2760   19.1834  -14.9388 O   0  0  0  0  0  0  0  0  0  0  0  0
  -22.2627   16.7890  -15.0544 C   0  0  0  0  0  0  0  0  0  0  0  0
  -22.2989   15.5517  -14.4538 C   0  0  0  0  0  0  0  0  0  0  0  0
  -22.4251   14.0967  -12.4724 C   0  0  0  0  0  0  0  0  0  0  0  0
  -22.1719   12.9881  -13.1158 C   0  0  0  0  0  0  0  0  0  0  0  0
  -22.3491   11.6813  -12.4887 C   0  0  0  0  0  0  0  0  0  0  0  0
  -22.2272   10.6287  -13.1381 O   0  0  0  0  0  0  0  0  0  0  0  0
  -23.1975   19.1832  -11.0326 C   0  0  0  0  0  0  0  0  0  0  0  0
  1  2  2  0
  1  8  1  0
  1  9  1  0
  2  3  1  0
  3  4  1  0
  3  5  2  0
  4 13  1  0
  5  6  1  0
  5  7  1  0
  7  8  2  0
  9 10  2  0
 10 11  1  0
 11 12  2  0
M  END
$$$$
