
     RDKit          3D

 13 13  0  0  0  0  0  0  0  0999 V2000
  -22.6672   13.6583  -12.9889 C   0  0  0  0  0  0  0  0  0  0  0  0
  -22.4730   13.6621  -14.3536 C   0  0  0  0  0  0  0  0  0  0  0  0
  -22.4080   12.4618  -15.0721 C   0  0  0  0  0  0  0  0  0  0  0  0
  -22.2153   12.4534  -16.4298 O   0  0  0  0  0  0  0  0  0  0  0  0
  -22.5366   11.2451  -14.4325 C   0  0  0  0  0  0  0  0  0  0  0  0
  -22.4745   10.0410  -15.1319 O   0  0  0  0  0  0  0  0  0  0  0  0
  -22.7303   11.2395  -13.0716 C   0  0  0  0  0  0  0  0  0  0  0  0
  -22.7951   12.4149  -12.3594 C   0  0  0  0  0  0  0  0  0  0  0  0
  -22.7414   14.8708  -12.2025 C   0  0  0  0  0  0  0  0  0  0  0  0
  -22.8227   16.0755  -12.7017 C   0  0  0  0  0  0  0  0  0  0  0  0
  -22.9149   17.2546  -11.8452 C   0  0  0  0  0  0  0  0  0  0  0  0
  -22.6545   18.3909  -12.2762 O   0  0  0  0  0  0  0  0  0  0  0  0
  -21.9806   13.5752  -17.2294 C   0  0  0  0  0  0  0  0  0  0  0  0
  1  2  2  0
  1  8  1  0
  1  9  1  0
  2  3  1  0
  3  4  1  0
  3  5  2  0
  4 13  1  0
  5  6  1  0
  5  7  1  0
  7  8  2  0
  9 10  2  0
 10 11  1  0
 11 12  2  0
M  END
$$$$
