
     RDKit          3D

 13 13  0  0  0  0  0  0  0  0999 V2000
  -22.8590   14.8452  -12.6948 C   0  0  0  0  0  0  0  0  0  0  0  0
  -22.8447   16.1597  -13.1097 C   0  0  0  0  0  0  0  0  0  0  0  0
  -23.1358   17.1973  -12.2154 C   0  0  0  0  0  0  0  0  0  0  0  0
  -23.1246   18.5084  -12.6168 O   0  0  0  0  0  0  0  0  0  0  0  0
  -23.4444   16.9304  -10.8964 C   0  0  0  0  0  0  0  0  0  0  0  0
  -23.7367   17.9506   -9.9928 O   0  0  0  0  0  0  0  0  0  0  0  0
  -23.4591   15.6201  -10.4811 C   0  0  0  0  0  0  0  0  0  0  0  0
  -23.1741   14.5958  -11.3543 C   0  0  0  0  0  0  0  0  0  0  0  0
  -22.5655   13.7387  -13.5800 C   0  0  0  0  0  0  0  0  0  0  0  0
  -22.5490   12.4833  -13.2186 C   0  0  0  0  0  0  0  0  0  0  0  0
  -22.1550   11.4251  -14.1446 C   0  0  0  0  0  0  0  0  0  0  0  0
  -22.9108   10.4720  -14.3995 O   0  0  0  0  0  0  0  0  0  0  0  0
  -23.0164   18.9591  -13.9352 C   0  0  0  0  0  0  0  0  0  0  0  0
  1  2  2  0
  1  8  1  0
  1  9  1  0
  2  3  1  0
  3  4  1  0
  3  5  2  0
  4 13  1  0
  5  6  1  0
  5  7  1  0
  7  8  2  0
  9 10  2  0
 10 11  1  0
 11 12  2  0
M  END
$$$$
