
     RDKit          3D

 13 13  0  0  0  0  0  0  0  0999 V2000
  -22.6712   14.9455  -12.5247 C   0  0  0  0  0  0  0  0  0  0  0  0
  -22.5730   15.7825  -13.6155 C   0  0  0  0  0  0  0  0  0  0  0  0
  -22.7469   17.1652  -13.4766 C   0  0  0  0  0  0  0  0  0  0  0  0
  -22.6516   18.0074  -14.5545 O   0  0  0  0  0  0  0  0  0  0  0  0
  -23.0210   17.7247  -12.2445 C   0  0  0  0  0  0  0  0  0  0  0  0
  -23.1970   19.0985  -12.0880 O   0  0  0  0  0  0  0  0  0  0  0  0
  -23.1192   16.8914  -11.1557 C   0  0  0  0  0  0  0  0  0  0  0  0
  -22.9495   15.5321  -11.2850 C   0  0  0  0  0  0  0  0  0  0  0  0
  -22.4998   13.5115  -12.6168 C   0  0  0  0  0  0  0  0  0  0  0  0
  -22.4917   12.8352  -13.7347 C   0  0  0  0  0  0  0  0  0  0  0  0
  -22.0124   11.4571  -13.7923 C   0  0  0  0  0  0  0  0  0  0  0  0
  -22.4513   10.6526  -14.6318 O   0  0  0  0  0  0  0  0  0  0  0  0
  -21.9153   17.7668  -15.7177 C   0  0  0  0  0  0  0  0  0  0  0  0
  1  2  2  0
  1  8  1  0
  1  9  1  0
  2  3  1  0
  3  4  1  0
  3  5  2  0
  4 13  1  0
  5  6  1  0
  5  7  1  0
  7  8  2  0
  9 10  2  0
 10 11  1  0
 11 12  2  0
M  END
$$$$
