
     RDKit          3D

 13 13  0  0  0  0  0  0  0  0999 V2000
  -22.9626   14.0724  -13.4274 C   0  0  0  0  0  0  0  0  0  0  0  0
  -22.8337   13.6922  -14.7461 C   0  0  0  0  0  0  0  0  0  0  0  0
  -22.7406   12.3396  -15.0968 C   0  0  0  0  0  0  0  0  0  0  0  0
  -22.6121   11.9497  -16.4051 O   0  0  0  0  0  0  0  0  0  0  0  0
  -22.7756   11.3532  -14.1314 C   0  0  0  0  0  0  0  0  0  0  0  0
  -22.6842   10.0023  -14.4625 O   0  0  0  0  0  0  0  0  0  0  0  0
  -22.9041   11.7306  -12.8159 C   0  0  0  0  0  0  0  0  0  0  0  0
  -22.9961   13.0576  -12.4642 C   0  0  0  0  0  0  0  0  0  0  0  0
  -23.0624   15.4559  -13.0147 C   0  0  0  0  0  0  0  0  0  0  0  0
  -23.6434   15.8631  -11.9176 C   0  0  0  0  0  0  0  0  0  0  0  0
  -23.8005   17.2833  -11.6162 C   0  0  0  0  0  0  0  0  0  0  0  0
  -23.2678   17.7969  -10.6178 O   0  0  0  0  0  0  0  0  0  0  0  0
  -21.9130   12.6397  -17.3992 C   0  0  0  0  0  0  0  0  0  0  0  0
  1  2  2  0
  1  8  1  0
  1  9  1  0
  2  3  1  0
  3  4  1  0
  3  5  2  0
  4 13  1  0
  5  6  1  0
  5  7  1  0
  7  8  2  0
  9 10  2  0
 10 11  1  0
 11 12  2  0
M  END
$$$$
