
     RDKit          3D

 13 13  0  0  0  0  0  0  0  0999 V2000
  -23.0391   14.7429  -12.2527 C   0  0  0  0  0  0  0  0  0  0  0  0
  -22.8598   15.5826  -13.3310 C   0  0  0  0  0  0  0  0  0  0  0  0
  -22.9045   16.9733  -13.1722 C   0  0  0  0  0  0  0  0  0  0  0  0
  -22.7275   17.8184  -14.2376 O   0  0  0  0  0  0  0  0  0  0  0  0
  -23.1290   17.5382  -11.9326 C   0  0  0  0  0  0  0  0  0  0  0  0
  -23.1766   18.9201  -11.7564 O   0  0  0  0  0  0  0  0  0  0  0  0
  -23.3080   16.7022  -10.8563 C   0  0  0  0  0  0  0  0  0  0  0  0
  -23.2654   15.3350  -11.0050 C   0  0  0  0  0  0  0  0  0  0  0  0
  -23.0019   13.3006  -12.3654 C   0  0  0  0  0  0  0  0  0  0  0  0
  -22.3807   12.6457  -13.3100 C   0  0  0  0  0  0  0  0  0  0  0  0
  -22.3685   11.1860  -13.3489 C   0  0  0  0  0  0  0  0  0  0  0  0
  -22.3061   10.5666  -14.4246 O   0  0  0  0  0  0  0  0  0  0  0  0
  -23.1459   17.5793  -15.5494 C   0  0  0  0  0  0  0  0  0  0  0  0
  1  2  2  0
  1  8  1  0
  1  9  1  0
  2  3  1  0
  3  4  1  0
  3  5  2  0
  4 13  1  0
  5  6  1  0
  5  7  1  0
  7  8  2  0
  9 10  2  0
 10 11  1  0
 11 12  2  0
M  END
$$$$
