
     RDKit          3D

 13 13  0  0  0  0  0  0  0  0999 V2000
  -22.9103   14.5937  -12.2076 C   0  0  0  0  0  0  0  0  0  0  0  0
  -22.8079   15.4425  -13.2889 C   0  0  0  0  0  0  0  0  0  0  0  0
  -22.8633   16.8314  -13.1181 C   0  0  0  0  0  0  0  0  0  0  0  0
  -22.7626   17.6855  -14.1862 O   0  0  0  0  0  0  0  0  0  0  0  0
  -23.0216   17.3854  -11.8634 C   0  0  0  0  0  0  0  0  0  0  0  0
  -23.0788   18.7653  -11.6751 O   0  0  0  0  0  0  0  0  0  0  0  0
  -23.1239   16.5403  -10.7842 C   0  0  0  0  0  0  0  0  0  0  0  0
  -23.0703   15.1748  -10.9446 C   0  0  0  0  0  0  0  0  0  0  0  0
  -22.8589   13.1528  -12.3324 C   0  0  0  0  0  0  0  0  0  0  0  0
  -22.5642   12.5131  -13.4328 C   0  0  0  0  0  0  0  0  0  0  0  0
  -22.3897   11.0634  -13.4523 C   0  0  0  0  0  0  0  0  0  0  0  0
  -22.5889   10.4003  -14.4844 O   0  0  0  0  0  0  0  0  0  0  0  0
  -22.1084   18.9204  -14.1870 C   0  0  0  0  0  0  0  0  0  0  0  0
  1  2  2  0
  1  8  1  0
  1  9  1  0
  2  3  1  0
  3  4  1  0
  3  5  2  0
  4 13  1  0
  5  6  1  0
  5  7  1  0
  7  8  2  0
  9 10  2  0
 10 11  1  0
 11 12  2  0
M  END
$$$$
