
     RDKit          3D

 13 13  0  0  0  0  0  0  0  0999 V2000
  -22.8380   14.6891  -11.8706 C   0  0  0  0  0  0  0  0  0  0  0  0
  -22.7137   15.7539  -12.7372 C   0  0  0  0  0  0  0  0  0  0  0  0
  -22.9129   17.0670  -12.2931 C   0  0  0  0  0  0  0  0  0  0  0  0
  -22.7920   18.1339  -13.1461 O   0  0  0  0  0  0  0  0  0  0  0  0
  -23.2385   17.3284  -10.9772 C   0  0  0  0  0  0  0  0  0  0  0  0
  -23.4402   18.6290  -10.5181 O   0  0  0  0  0  0  0  0  0  0  0  0
  -23.3628   16.2677  -10.1117 C   0  0  0  0  0  0  0  0  0  0  0  0
  -23.1685   14.9751  -10.5411 C   0  0  0  0  0  0  0  0  0  0  0  0
  -22.6423   13.3152  -12.2809 C   0  0  0  0  0  0  0  0  0  0  0  0
  -22.2997   12.9418  -13.4852 C   0  0  0  0  0  0  0  0  0  0  0  0
  -21.9611   11.5543  -13.7893 C   0  0  0  0  0  0  0  0  0  0  0  0
  -22.6347   10.8831  -14.5895 O   0  0  0  0  0  0  0  0  0  0  0  0
  -22.3068   18.0830  -14.4557 C   0  0  0  0  0  0  0  0  0  0  0  0
  1  2  2  0
  1  8  1  0
  1  9  1  0
  2  3  1  0
  3  4  1  0
  3  5  2  0
  4 13  1  0
  5  6  1  0
  5  7  1  0
  7  8  2  0
  9 10  2  0
 10 11  1  0
 11 12  2  0
M  END
$$$$
