
     RDKit          3D

 13 13  0  0  0  0  0  0  0  0999 V2000
  -22.8742   14.5724  -11.9398 C   0  0  0  0  0  0  0  0  0  0  0  0
  -22.7497   15.6277  -12.8179 C   0  0  0  0  0  0  0  0  0  0  0  0
  -22.8993   16.9486  -12.3775 C   0  0  0  0  0  0  0  0  0  0  0  0
  -22.7776   18.0062  -13.2419 O   0  0  0  0  0  0  0  0  0  0  0  0
  -23.1750   17.2274  -11.0537 C   0  0  0  0  0  0  0  0  0  0  0  0
  -23.3270   18.5359  -10.5982 O   0  0  0  0  0  0  0  0  0  0  0  0
  -23.2994   16.1762  -10.1768 C   0  0  0  0  0  0  0  0  0  0  0  0
  -23.1538   14.8760  -10.6026 C   0  0  0  0  0  0  0  0  0  0  0  0
  -22.7286   13.1910  -12.3459 C   0  0  0  0  0  0  0  0  0  0  0  0
  -22.0422   12.7907  -13.3830 C   0  0  0  0  0  0  0  0  0  0  0  0
  -21.7523   11.3776  -13.6102 C   0  0  0  0  0  0  0  0  0  0  0  0
  -22.2095   10.7721  -14.5945 O   0  0  0  0  0  0  0  0  0  0  0  0
  -22.4536   17.9204  -14.5986 C   0  0  0  0  0  0  0  0  0  0  0  0
  1  2  2  0
  1  8  1  0
  1  9  1  0
  2  3  1  0
  3  4  1  0
  3  5  2  0
  4 13  1  0
  5  6  1  0
  5  7  1  0
  7  8  2  0
  9 10  2  0
 10 11  1  0
 11 12  2  0
M  END
$$$$
