
     RDKit          3D

 13 13  0  0  0  0  0  0  0  0999 V2000
  -22.8786   13.9124  -12.7913 C   0  0  0  0  0  0  0  0  0  0  0  0
  -22.6468   13.6816  -14.1303 C   0  0  0  0  0  0  0  0  0  0  0  0
  -22.4907   12.3777  -14.6169 C   0  0  0  0  0  0  0  0  0  0  0  0
  -22.2597   12.1361  -15.9468 O   0  0  0  0  0  0  0  0  0  0  0  0
  -22.5648   11.2911  -13.7684 C   0  0  0  0  0  0  0  0  0  0  0  0
  -22.4119    9.9867  -14.2354 O   0  0  0  0  0  0  0  0  0  0  0  0
  -22.7959   11.5196  -12.4328 C   0  0  0  0  0  0  0  0  0  0  0  0
  -22.9503   12.7979  -11.9479 C   0  0  0  0  0  0  0  0  0  0  0  0
  -23.0465   15.2401  -12.2404 C   0  0  0  0  0  0  0  0  0  0  0  0
  -23.0745   16.3387  -12.9470 C   0  0  0  0  0  0  0  0  0  0  0  0
  -23.4043   17.6278  -12.3452 C   0  0  0  0  0  0  0  0  0  0  0  0
  -22.5240   18.4654  -12.0840 O   0  0  0  0  0  0  0  0  0  0  0  0
  -21.8544   13.0826  -16.8916 C   0  0  0  0  0  0  0  0  0  0  0  0
  1  2  2  0
  1  8  1  0
  1  9  1  0
  2  3  1  0
  3  4  1  0
  3  5  2  0
  4 13  1  0
  5  6  1  0
  5  7  1  0
  7  8  2  0
  9 10  2  0
 10 11  1  0
 11 12  2  0
M  END
$$$$
