
     RDKit          3D

 13 13  0  0  0  0  0  0  0  0999 V2000
  -22.9017   13.7624  -12.7319 C   0  0  0  0  0  0  0  0  0  0  0  0
  -22.7082   13.7064  -14.0955 C   0  0  0  0  0  0  0  0  0  0  0  0
  -22.6023   12.4755  -14.7550 C   0  0  0  0  0  0  0  0  0  0  0  0
  -22.4097   12.4076  -16.1109 O   0  0  0  0  0  0  0  0  0  0  0  0
  -22.6889   11.2877  -14.0566 C   0  0  0  0  0  0  0  0  0  0  0  0
  -22.5857   10.0538  -14.6967 O   0  0  0  0  0  0  0  0  0  0  0  0
  -22.8819   11.3418  -12.6967 C   0  0  0  0  0  0  0  0  0  0  0  0
  -22.9868   12.5476  -12.0424 C   0  0  0  0  0  0  0  0  0  0  0  0
  -23.0172   15.0086  -12.0053 C   0  0  0  0  0  0  0  0  0  0  0  0
  -22.6304   16.1711  -12.4592 C   0  0  0  0  0  0  0  0  0  0  0  0
  -22.7247   17.3805  -11.6462 C   0  0  0  0  0  0  0  0  0  0  0  0
  -22.8635   18.5012  -12.1651 O   0  0  0  0  0  0  0  0  0  0  0  0
  -22.2375   13.4978  -16.9681 C   0  0  0  0  0  0  0  0  0  0  0  0
  1  2  2  0
  1  8  1  0
  1  9  1  0
  2  3  1  0
  3  4  1  0
  3  5  2  0
  4 13  1  0
  5  6  1  0
  5  7  1  0
  7  8  2  0
  9 10  2  0
 10 11  1  0
 11 12  2  0
M  END
$$$$
