
     RDKit          3D

 13 13  0  0  0  0  0  0  0  0999 V2000
  -23.1120   14.7350  -12.4265 C   0  0  0  0  0  0  0  0  0  0  0  0
  -22.9525   15.9266  -13.1008 C   0  0  0  0  0  0  0  0  0  0  0  0
  -22.9206   17.1437  -12.4087 C   0  0  0  0  0  0  0  0  0  0  0  0
  -22.7624   18.3351  -13.0688 O   0  0  0  0  0  0  0  0  0  0  0  0
  -23.0480   17.1809  -11.0344 C   0  0  0  0  0  0  0  0  0  0  0  0
  -23.0185   18.3830  -10.3295 O   0  0  0  0  0  0  0  0  0  0  0  0
  -23.2071   15.9934  -10.3605 C   0  0  0  0  0  0  0  0  0  0  0  0
  -23.2394   14.7942  -11.0341 C   0  0  0  0  0  0  0  0  0  0  0  0
  -23.1513   13.4526  -13.0960 C   0  0  0  0  0  0  0  0  0  0  0  0
  -22.5321   12.3795  -12.6813 C   0  0  0  0  0  0  0  0  0  0  0  0
  -22.7247   11.0855  -13.3301 C   0  0  0  0  0  0  0  0  0  0  0  0
  -22.2848   10.8601  -14.4704 O   0  0  0  0  0  0  0  0  0  0  0  0
  -22.5846   18.4895  -14.4463 C   0  0  0  0  0  0  0  0  0  0  0  0
  1  2  2  0
  1  8  1  0
  1  9  1  0
  2  3  1  0
  3  4  1  0
  3  5  2  0
  4 13  1  0
  5  6  1  0
  5  7  1  0
  7  8  2  0
  9 10  2  0
 10 11  1  0
 11 12  2  0
M  END
$$$$
