
     RDKit          3D

 13 13  0  0  0  0  0  0  0  0999 V2000
  -22.5777   14.6994  -11.7620 C   0  0  0  0  0  0  0  0  0  0  0  0
  -22.4583   15.6563  -12.7470 C   0  0  0  0  0  0  0  0  0  0  0  0
  -22.6214   17.0152  -12.4503 C   0  0  0  0  0  0  0  0  0  0  0  0
  -22.5050   17.9759  -13.4218 O   0  0  0  0  0  0  0  0  0  0  0  0
  -22.9058   17.4307  -11.1647 C   0  0  0  0  0  0  0  0  0  0  0  0
  -23.0713   18.7788  -10.8516 O   0  0  0  0  0  0  0  0  0  0  0  0
  -23.0251   16.4777  -10.1814 C   0  0  0  0  0  0  0  0  0  0  0  0
  -22.8661   15.1409  -10.4657 C   0  0  0  0  0  0  0  0  0  0  0  0
  -22.4181   13.2840  -12.0182 C   0  0  0  0  0  0  0  0  0  0  0  0
  -22.1979   12.7632  -13.1960 C   0  0  0  0  0  0  0  0  0  0  0  0
  -21.9434   11.3353  -13.3663 C   0  0  0  0  0  0  0  0  0  0  0  0
  -22.2192   10.7497  -14.4272 O   0  0  0  0  0  0  0  0  0  0  0  0
  -22.1824   17.7483  -14.7624 C   0  0  0  0  0  0  0  0  0  0  0  0
  1  2  2  0
  1  8  1  0
  1  9  1  0
  2  3  1  0
  3  4  1  0
  3  5  2  0
  4 13  1  0
  5  6  1  0
  5  7  1  0
  7  8  2  0
  9 10  2  0
 10 11  1  0
 11 12  2  0
M  END
$$$$
