
     RDKit          3D

 13 13  0  0  0  0  0  0  0  0999 V2000
  -22.5686   14.7730  -11.8800 C   0  0  0  0  0  0  0  0  0  0  0  0
  -22.5332   15.7602  -12.8415 C   0  0  0  0  0  0  0  0  0  0  0  0
  -22.6862   17.1076  -12.4919 C   0  0  0  0  0  0  0  0  0  0  0  0
  -22.6527   18.0981  -13.4397 O   0  0  0  0  0  0  0  0  0  0  0  0
  -22.8764   17.4813  -11.1765 C   0  0  0  0  0  0  0  0  0  0  0  0
  -23.0306   18.8175  -10.8108 O   0  0  0  0  0  0  0  0  0  0  0  0
  -22.9120   16.4981  -10.2166 C   0  0  0  0  0  0  0  0  0  0  0  0
  -22.7623   15.1723  -10.5528 C   0  0  0  0  0  0  0  0  0  0  0  0
  -22.4155   13.3679  -12.1907 C   0  0  0  0  0  0  0  0  0  0  0  0
  -21.9248   12.9042  -13.3093 C   0  0  0  0  0  0  0  0  0  0  0  0
  -21.6579   11.4808  -13.4964 C   0  0  0  0  0  0  0  0  0  0  0  0
  -21.8019   10.9342  -14.6032 O   0  0  0  0  0  0  0  0  0  0  0  0
  -21.9950   18.0299  -14.6708 C   0  0  0  0  0  0  0  0  0  0  0  0
  1  2  2  0
  1  8  1  0
  1  9  1  0
  2  3  1  0
  3  4  1  0
  3  5  2  0
  4 13  1  0
  5  6  1  0
  5  7  1  0
  7  8  2  0
  9 10  2  0
 10 11  1  0
 11 12  2  0
M  END
$$$$
