
     RDKit          3D

 13 13  0  0  0  0  0  0  0  0999 V2000
  -22.9234   14.4861  -12.0465 C   0  0  0  0  0  0  0  0  0  0  0  0
  -22.8151   15.4980  -12.9763 C   0  0  0  0  0  0  0  0  0  0  0  0
  -22.8456   16.8413  -12.5814 C   0  0  0  0  0  0  0  0  0  0  0  0
  -22.7388   17.8561  -13.4973 O   0  0  0  0  0  0  0  0  0  0  0  0
  -22.9848   17.1860  -11.2517 C   0  0  0  0  0  0  0  0  0  0  0  0
  -23.0172   18.5176  -10.8409 O   0  0  0  0  0  0  0  0  0  0  0  0
  -23.0929   16.1781  -10.3233 C   0  0  0  0  0  0  0  0  0  0  0  0
  -23.0637   14.8563  -10.7043 C   0  0  0  0  0  0  0  0  0  0  0  0
  -22.8973   13.0842  -12.4045 C   0  0  0  0  0  0  0  0  0  0  0  0
  -22.1162   12.5647  -13.3139 C   0  0  0  0  0  0  0  0  0  0  0  0
  -22.0046   11.1197  -13.4926 C   0  0  0  0  0  0  0  0  0  0  0  0
  -22.3364   10.5706  -14.5571 O   0  0  0  0  0  0  0  0  0  0  0  0
  -22.2728   17.7285  -14.8086 C   0  0  0  0  0  0  0  0  0  0  0  0
  1  2  2  0
  1  8  1  0
  1  9  1  0
  2  3  1  0
  3  4  1  0
  3  5  2  0
  4 13  1  0
  5  6  1  0
  5  7  1  0
  7  8  2  0
  9 10  2  0
 10 11  1  0
 11 12  2  0
M  END
$$$$
