
     RDKit          3D

 13 13  0  0  0  0  0  0  0  0999 V2000
  -22.4569   13.7949  -12.5663 C   0  0  0  0  0  0  0  0  0  0  0  0
  -22.2841   14.0073  -13.9173 C   0  0  0  0  0  0  0  0  0  0  0  0
  -22.3152   12.9380  -14.8212 C   0  0  0  0  0  0  0  0  0  0  0  0
  -22.1446   13.1373  -16.1671 O   0  0  0  0  0  0  0  0  0  0  0  0
  -22.5195   11.6450  -14.3825 C   0  0  0  0  0  0  0  0  0  0  0  0
  -22.5534   10.5691  -15.2680 O   0  0  0  0  0  0  0  0  0  0  0  0
  -22.6920   11.4316  -13.0356 C   0  0  0  0  0  0  0  0  0  0  0  0
  -22.6626   12.4773  -12.1420 C   0  0  0  0  0  0  0  0  0  0  0  0
  -22.4331   14.8659  -11.5933 C   0  0  0  0  0  0  0  0  0  0  0  0
  -22.6728   16.1212  -11.8652 C   0  0  0  0  0  0  0  0  0  0  0  0
  -22.6367   17.1494  -10.8289 C   0  0  0  0  0  0  0  0  0  0  0  0
  -23.5713   17.9554  -10.6824 O   0  0  0  0  0  0  0  0  0  0  0  0
  -21.5361   14.2475  -16.7588 C   0  0  0  0  0  0  0  0  0  0  0  0
  1  2  2  0
  1  8  1  0
  1  9  1  0
  2  3  1  0
  3  4  1  0
  3  5  2  0
  4 13  1  0
  5  6  1  0
  5  7  1  0
  7  8  2  0
  9 10  2  0
 10 11  1  0
 11 12  2  0
M  END
$$$$
