
     RDKit          3D

 13 13  0  0  0  0  0  0  0  0999 V2000
  -23.0607   15.2032  -13.6063 C   0  0  0  0  0  0  0  0  0  0  0  0
  -22.8898   15.6469  -12.3125 C   0  0  0  0  0  0  0  0  0  0  0  0
  -22.8204   17.0162  -12.0271 C   0  0  0  0  0  0  0  0  0  0  0  0
  -22.6506   17.4692  -10.7440 O   0  0  0  0  0  0  0  0  0  0  0  0
  -22.9214   17.9559  -13.0335 C   0  0  0  0  0  0  0  0  0  0  0  0
  -22.8545   19.3225  -12.7676 O   0  0  0  0  0  0  0  0  0  0  0  0
  -23.0919   17.5151  -14.3243 C   0  0  0  0  0  0  0  0  0  0  0  0
  -23.1609   16.1713  -14.6119 C   0  0  0  0  0  0  0  0  0  0  0  0
  -23.1383   13.8001  -13.9519 C   0  0  0  0  0  0  0  0  0  0  0  0
  -22.1885   12.9291  -13.7370 C   0  0  0  0  0  0  0  0  0  0  0  0
  -22.2890   11.5530  -14.2152 C   0  0  0  0  0  0  0  0  0  0  0  0
  -21.9890   10.5905  -13.4884 O   0  0  0  0  0  0  0  0  0  0  0  0
  -22.7579   16.6979   -9.5835 C   0  0  0  0  0  0  0  0  0  0  0  0
  1  2  2  0
  1  8  1  0
  1  9  1  0
  2  3  1  0
  3  4  1  0
  3  5  2  0
  4 13  1  0
  5  6  1  0
  5  7  1  0
  7  8  2  0
  9 10  2  0
 10 11  1  0
 11 12  2  0
M  END
$$$$
