
     RDKit          3D

 13 13  0  0  0  0  0  0  0  0999 V2000
  -22.7385   14.7846  -11.9160 C   0  0  0  0  0  0  0  0  0  0  0  0
  -22.6394   15.7951  -12.8483 C   0  0  0  0  0  0  0  0  0  0  0  0
  -22.7844   17.1359  -12.4710 C   0  0  0  0  0  0  0  0  0  0  0  0
  -22.6878   18.1493  -13.3896 O   0  0  0  0  0  0  0  0  0  0  0  0
  -23.0300   17.4795  -11.1566 C   0  0  0  0  0  0  0  0  0  0  0  0
  -23.1771   18.8087  -10.7633 O   0  0  0  0  0  0  0  0  0  0  0  0
  -23.1291   16.4730  -10.2256 C   0  0  0  0  0  0  0  0  0  0  0  0
  -22.9877   15.1537  -10.5893 C   0  0  0  0  0  0  0  0  0  0  0  0
  -22.5964   13.3851  -12.2561 C   0  0  0  0  0  0  0  0  0  0  0  0
  -22.0697   12.9408  -13.3661 C   0  0  0  0  0  0  0  0  0  0  0  0
  -21.8010   11.5202  -13.5711 C   0  0  0  0  0  0  0  0  0  0  0  0
  -22.0393   10.9655  -14.6575 O   0  0  0  0  0  0  0  0  0  0  0  0
  -22.0774   18.0610  -14.6437 C   0  0  0  0  0  0  0  0  0  0  0  0
  1  2  2  0
  1  8  1  0
  1  9  1  0
  2  3  1  0
  3  4  1  0
  3  5  2  0
  4 13  1  0
  5  6  1  0
  5  7  1  0
  7  8  2  0
  9 10  2  0
 10 11  1  0
 11 12  2  0
M  END
$$$$
