
     RDKit          3D

 13 13  0  0  0  0  0  0  0  0999 V2000
  -22.6973   13.5663  -12.6580 C   0  0  0  0  0  0  0  0  0  0  0  0
  -22.5106   13.7228  -14.0147 C   0  0  0  0  0  0  0  0  0  0  0  0
  -22.4220   12.6094  -14.8596 C   0  0  0  0  0  0  0  0  0  0  0  0
  -22.2364   12.7529  -16.2107 O   0  0  0  0  0  0  0  0  0  0  0  0
  -22.5194   11.3278  -14.3556 C   0  0  0  0  0  0  0  0  0  0  0  0
  -22.4335   10.2085  -15.1819 O   0  0  0  0  0  0  0  0  0  0  0  0
  -22.7056   11.1701  -13.0029 C   0  0  0  0  0  0  0  0  0  0  0  0
  -22.7935   12.2594  -12.1670 C   0  0  0  0  0  0  0  0  0  0  0  0
  -22.7950   14.6843  -11.7443 C   0  0  0  0  0  0  0  0  0  0  0  0
  -23.0535   15.9142  -12.1013 C   0  0  0  0  0  0  0  0  0  0  0  0
  -23.2506   16.9725  -11.1146 C   0  0  0  0  0  0  0  0  0  0  0  0
  -22.6698   18.0669  -11.2129 O   0  0  0  0  0  0  0  0  0  0  0  0
  -21.9883   13.9550  -16.8789 C   0  0  0  0  0  0  0  0  0  0  0  0
  1  2  2  0
  1  8  1  0
  1  9  1  0
  2  3  1  0
  3  4  1  0
  3  5  2  0
  4 13  1  0
  5  6  1  0
  5  7  1  0
  7  8  2  0
  9 10  2  0
 10 11  1  0
 11 12  2  0
M  END
$$$$
