
     RDKit          3D

 13 13  0  0  0  0  0  0  0  0999 V2000
  -23.1746   14.7907  -12.5873 C   0  0  0  0  0  0  0  0  0  0  0  0
  -22.9702   16.0258  -13.1643 C   0  0  0  0  0  0  0  0  0  0  0  0
  -22.9768   17.1906  -12.3869 C   0  0  0  0  0  0  0  0  0  0  0  0
  -22.7746   18.4244  -12.9499 O   0  0  0  0  0  0  0  0  0  0  0  0
  -23.1881   17.1316  -11.0238 C   0  0  0  0  0  0  0  0  0  0  0  0
  -23.1980   18.2807  -10.2349 O   0  0  0  0  0  0  0  0  0  0  0  0
  -23.3922   15.9008  -10.4468 C   0  0  0  0  0  0  0  0  0  0  0  0
  -23.3870   14.7524  -11.2045 C   0  0  0  0  0  0  0  0  0  0  0  0
  -23.1770   13.5591  -13.3472 C   0  0  0  0  0  0  0  0  0  0  0  0
  -22.6801   12.4264  -12.9265 C   0  0  0  0  0  0  0  0  0  0  0  0
  -22.8489   11.1885  -13.6825 C   0  0  0  0  0  0  0  0  0  0  0  0
  -21.8954   10.6561  -14.2758 O   0  0  0  0  0  0  0  0  0  0  0  0
  -22.9131   18.7377  -14.3048 C   0  0  0  0  0  0  0  0  0  0  0  0
  1  2  2  0
  1  8  1  0
  1  9  1  0
  2  3  1  0
  3  4  1  0
  3  5  2  0
  4 13  1  0
  5  6  1  0
  5  7  1  0
  7  8  2  0
  9 10  2  0
 10 11  1  0
 11 12  2  0
M  END
$$$$
