
     RDKit          3D

 13 13  0  0  0  0  0  0  0  0999 V2000
  -22.7809   14.8049  -11.9588 C   0  0  0  0  0  0  0  0  0  0  0  0
  -22.6859   15.7963  -12.9118 C   0  0  0  0  0  0  0  0  0  0  0  0
  -22.8087   17.1457  -12.5578 C   0  0  0  0  0  0  0  0  0  0  0  0
  -22.7159   18.1403  -13.4973 O   0  0  0  0  0  0  0  0  0  0  0  0
  -23.0279   17.5171  -11.2463 C   0  0  0  0  0  0  0  0  0  0  0  0
  -23.1526   18.8552  -10.8762 O   0  0  0  0  0  0  0  0  0  0  0  0
  -23.1229   16.5298  -10.2947 C   0  0  0  0  0  0  0  0  0  0  0  0
  -23.0032   15.2021  -10.6354 C   0  0  0  0  0  0  0  0  0  0  0  0
  -22.6611   13.3977  -12.2743 C   0  0  0  0  0  0  0  0  0  0  0  0
  -22.3826   12.9239  -13.4596 C   0  0  0  0  0  0  0  0  0  0  0  0
  -22.6231   11.5245  -13.8006 C   0  0  0  0  0  0  0  0  0  0  0  0
  -21.9921   10.9615  -14.7114 O   0  0  0  0  0  0  0  0  0  0  0  0
  -22.2981   17.9785  -14.8210 C   0  0  0  0  0  0  0  0  0  0  0  0
  1  2  2  0
  1  8  1  0
  1  9  1  0
  2  3  1  0
  3  4  1  0
  3  5  2  0
  4 13  1  0
  5  6  1  0
  5  7  1  0
  7  8  2  0
  9 10  2  0
 10 11  1  0
 11 12  2  0
M  END
$$$$
