
     RDKit          3D

 49 50  0  0  0  0  0  0  0  0999 V2000
   60.9119  118.0111   13.1033 N   0  0  0  0  0  4  0  0  0  0  0  0
   60.4328  117.6789   14.4029 C   0  0  2  0  0  0  0  0  0  0  0  0
   59.9528  116.2565   14.4493 C   0  0  0  0  0  0  0  0  0  0  0  0
   59.4499  115.7470   13.3974 O   0  0  0  0  0  0  0  0  0  0  0  0
   59.2808  118.6221   14.7603 C   0  0  0  0  0  0  0  0  0  0  0  0
   59.7241  120.0456   14.6782 C   0  0  0  0  0  0  0  0  0  0  0  0
   60.8837  120.3519   15.0541 O   0  0  0  0  0  0  0  0  0  0  0  0
   58.8767  120.9975   14.1999 O   0  0  0  0  0  0  0  0  0  0  0  0
   60.0436  115.4749   15.6145 N   0  0  0  0  0  0  0  0  0  0  0  0
   59.6075  114.1251   15.7882 C   0  0  2  0  0  0  0  0  0  0  0  0
   58.2030  114.0044   16.2508 C   0  0  0  0  0  0  0  0  0  0  0  0
   57.7800  114.8668   17.0588 O   0  0  0  0  0  0  0  0  0  0  0  0
   60.5547  113.3999   16.7192 C   0  0  0  0  0  0  0  0  0  0  0  0
   61.9202  113.5123   16.1780 C   0  0  0  0  0  0  0  0  0  0  0  0
   62.2060  113.1581   14.8694 O   0  0  0  0  0  0  0  0  0  0  0  0
   62.8432  113.9323   16.9008 O   0  0  0  0  0  0  0  0  0  0  0  0
   57.3039  112.9845   15.8504 N   0  0  0  0  0  0  0  0  0  0  0  0
   55.9446  112.9125   16.3610 C   0  0  2  0  0  0  0  0  0  0  0  0
   55.9052  112.6545   17.8197 C   0  0  0  0  0  0  0  0  0  0  0  0
   56.6997  111.8206   18.2902 O   0  0  0  0  0  0  0  0  0  0  0  0
   55.1193  111.9012   15.5909 C   0  0  0  0  0  0  0  0  0  0  0  0
   53.7537  111.7182   16.0701 C   0  0  0  0  0  0  0  0  0  0  0  0
   52.8116  112.6741   15.7567 C   0  0  0  0  0  0  0  0  0  0  0  0
   53.3901  110.6271   16.8133 C   0  0  0  0  0  0  0  0  0  0  0  0
   51.4994  112.6075   16.1492 C   0  0  0  0  0  0  0  0  0  0  0  0
   52.0623  110.5433   17.2207 C   0  0  0  0  0  0  0  0  0  0  0  0
   51.1200  111.4985   16.9085 C   0  0  0  0  0  0  0  0  0  0  0  0
   49.7968  111.4024   17.3219 O   0  0  0  0  0  0  0  0  0  0  0  0
   55.0228  113.3028   18.7025 N   0  0  0  0  0  0  0  0  0  0  0  0
   54.6947  112.8786   20.0497 C   0  0  2  0  0  0  0  0  0  0  0  0
   53.3255  112.4015   20.0952 C   0  0  0  0  0  0  0  0  0  0  0  0
   52.7191  112.4194   18.9437 O   0  0  0  0  0  0  0  0  0  0  0  0
   54.9278  114.0306   21.0229 C   0  0  2  0  0  0  0  0  0  0  0  0
   54.1504  115.0921   20.6134 O   0  0  0  0  0  0  0  0  0  0  0  0
   56.3725  114.4753   21.0121 C   0  0  0  0  0  0  0  0  0  0  0  0
   52.5412  111.9274   21.1484 N   0  0  0  0  0  0  0  0  0  0  0  0
   51.1459  111.5583   21.0351 C   0  0  2  0  0  0  0  0  0  0  0  0
   50.2229  112.3474   21.8412 C   0  0  0  0  0  0  0  0  0  0  0  0
   49.1060  111.9721   22.3022 O   0  0  0  0  0  0  0  0  0  0  0  0
   51.2041  110.1556   21.6637 C   0  0  0  0  0  0  0  0  0  0  0  0
   52.2000  110.3379   22.7866 C   0  0  0  0  0  0  0  0  0  0  0  0
   52.9351  111.6616   22.4952 C   0  0  0  0  0  0  0  0  0  0  0  0
   50.6102  113.7014   22.1594 N   0  0  0  0  0  0  0  0  0  0  0  0
   49.7332  114.5293   22.9683 C   0  0  2  0  0  0  0  0  0  0  0  0
   50.0001  115.9529   22.7110 C   0  0  0  0  0  0  0  0  0  0  0  0
   49.6083  116.9124   23.6793 O   0  0  0  0  0  0  0  0  0  0  0  0
   50.0421  114.2768   24.4488 C   0  0  0  0  0  0  0  0  0  0  0  0
   49.1919  115.0943   25.1882 O   0  0  0  0  0  0  0  0  0  0  0  0
   50.5618  116.3924   21.6772 O   0  0  0  0  0  0  0  0  0  0  0  0
  2  1  1  6
  2  3  1  0
  2  5  1  0
  3  4  2  0
  3  9  1  0
  5  6  1  0
  6  7  2  0
  6  8  1  0
  9 10  1  0
 10 11  1  0
 10 13  1  1
 11 12  2  0
 11 17  1  0
 13 14  1  0
 14 15  1  0
 14 16  2  0
 17 18  1  0
 18 19  1  0
 18 21  1  6
 19 20  2  0
 19 29  1  0
 21 22  1  0
 22 23  2  0
 22 24  1  0
 23 25  1  0
 24 26  2  0
 25 27  2  0
 26 27  1  0
 27 28  1  0
 30 29  1  6
 30 31  1  0
 30 33  1  0
 31 32  2  0
 31 36  1  0
 33 34  1  0
 33 35  1  6
 36 37  1  0
 36 42  1  0
 37 38  1  1
 37 40  1  0
 38 39  2  0
 38 43  1  0
 40 41  1  0
 41 42  1  0
 43 44  1  0
 44 45  1  0
 44 47  1  1
 45 46  1  0
 45 49  2  0
 47 48  1  0
M  CHG  1   1   1
M  END
$$$$
