
     RDKit          3D

 49 50  0  0  0  0  0  0  0  0999 V2000
   59.1592  117.0421   13.1989 N   0  0  0  0  0  4  0  0  0  0  0  0
   59.4195  116.9356   14.5953 C   0  0  2  0  0  0  0  0  0  0  0  0
   58.9892  115.5955   15.1196 C   0  0  0  0  0  0  0  0  0  0  0  0
   57.9822  115.0267   14.5890 O   0  0  0  0  0  0  0  0  0  0  0  0
   58.6550  118.0431   15.3258 C   0  0  0  0  0  0  0  0  0  0  0  0
   59.1822  119.3859   14.9405 C   0  0  0  0  0  0  0  0  0  0  0  0
   58.4016  120.2321   14.4361 O   0  0  0  0  0  0  0  0  0  0  0  0
   60.4956  119.6851   15.1361 O   0  0  0  0  0  0  0  0  0  0  0  0
   59.6636  114.9538   16.1732 N   0  0  0  0  0  0  0  0  0  0  0  0
   59.3378  113.6981   16.7727 C   0  0  2  0  0  0  0  0  0  0  0  0
   58.0973  113.7267   17.5861 C   0  0  0  0  0  0  0  0  0  0  0  0
   58.1283  114.3532   18.6734 O   0  0  0  0  0  0  0  0  0  0  0  0
   60.5138  113.2016   17.5854 C   0  0  0  0  0  0  0  0  0  0  0  0
   60.1384  111.9268   18.2212 C   0  0  0  0  0  0  0  0  0  0  0  0
   58.9154  111.3286   17.9645 O   0  0  0  0  0  0  0  0  0  0  0  0
   60.9269  111.3671   19.0057 O   0  0  0  0  0  0  0  0  0  0  0  0
   56.8799  113.0957   17.2277 N   0  0  0  0  0  0  0  0  0  0  0  0
   55.7453  113.0401   18.1351 C   0  0  2  0  0  0  0  0  0  0  0  0
   56.1239  112.5416   19.4783 C   0  0  0  0  0  0  0  0  0  0  0  0
   56.8106  111.5065   19.5483 O   0  0  0  0  0  0  0  0  0  0  0  0
   54.6036  112.2394   17.5417 C   0  0  0  0  0  0  0  0  0  0  0  0
   53.9535  112.8459   16.3851 C   0  0  0  0  0  0  0  0  0  0  0  0
   54.4635  112.5869   15.1312 C   0  0  0  0  0  0  0  0  0  0  0  0
   52.8566  113.6552   16.5161 C   0  0  0  0  0  0  0  0  0  0  0  0
   53.9355  113.0984   13.9737 C   0  0  0  0  0  0  0  0  0  0  0  0
   52.3078  114.1834   15.3518 C   0  0  0  0  0  0  0  0  0  0  0  0
   52.8173  113.9257   14.0981 C   0  0  0  0  0  0  0  0  0  0  0  0
   52.2591  114.4599   12.9431 O   0  0  0  0  0  0  0  0  0  0  0  0
   55.7537  113.1755   20.6779 N   0  0  0  0  0  0  0  0  0  0  0  0
   55.1546  112.5370   21.8338 C   0  0  2  0  0  0  0  0  0  0  0  0
   53.8006  112.1217   21.5195 C   0  0  0  0  0  0  0  0  0  0  0  0
   53.4299  112.3986   20.3030 O   0  0  0  0  0  0  0  0  0  0  0  0
   55.1947  113.4890   23.0258 C   0  0  2  0  0  0  0  0  0  0  0  0
   54.4106  114.5801   22.7204 O   0  0  0  0  0  0  0  0  0  0  0  0
   56.5998  113.9801   23.2897 C   0  0  0  0  0  0  0  0  0  0  0  0
   52.8245  111.4798   22.2838 N   0  0  0  0  0  0  0  0  0  0  0  0
   51.4484  111.2934   21.8743 C   0  0  2  0  0  0  0  0  0  0  0  0
   50.4519  111.9436   22.7160 C   0  0  0  0  0  0  0  0  0  0  0  0
   50.4426  111.9945   23.9803 O   0  0  0  0  0  0  0  0  0  0  0  0
   51.3175  109.7793   22.1120 C   0  0  0  0  0  0  0  0  0  0  0  0
   52.1204  109.5727   23.3764 C   0  0  0  0  0  0  0  0  0  0  0  0
   52.9710  110.8462   23.5554 C   0  0  0  0  0  0  0  0  0  0  0  0
   49.3547  112.6079   22.0532 N   0  0  0  0  0  0  0  0  0  0  0  0
   49.0158  113.9729   22.4149 C   0  0  2  0  0  0  0  0  0  0  0  0
   47.9020  114.4561   21.5844 C   0  0  0  0  0  0  0  0  0  0  0  0
   47.2596  115.6712   21.9340 O   0  0  0  0  0  0  0  0  0  0  0  0
   50.2191  114.8759   22.1186 C   0  0  0  0  0  0  0  0  0  0  0  0
   50.4067  115.6854   23.2355 O   0  0  0  0  0  0  0  0  0  0  0  0
   47.4682  113.8619   20.5664 O   0  0  0  0  0  0  0  0  0  0  0  0
  2  1  1  6
  2  3  1  0
  2  5  1  0
  3  4  2  0
  3  9  1  0
  5  6  1  0
  6  7  2  0
  6  8  1  0
  9 10  1  0
 10 11  1  0
 10 13  1  1
 11 12  2  0
 11 17  1  0
 13 14  1  0
 14 15  1  0
 14 16  2  0
 17 18  1  0
 18 19  1  0
 18 21  1  6
 19 20  2  0
 19 29  1  0
 21 22  1  0
 22 23  2  0
 22 24  1  0
 23 25  1  0
 24 26  2  0
 25 27  2  0
 26 27  1  0
 27 28  1  0
 30 29  1  6
 30 31  1  0
 30 33  1  0
 31 32  2  0
 31 36  1  0
 33 34  1  0
 33 35  1  6
 36 37  1  0
 36 42  1  0
 37 38  1  1
 37 40  1  0
 38 39  2  0
 38 43  1  0
 40 41  1  0
 41 42  1  0
 43 44  1  0
 44 45  1  0
 44 47  1  6
 45 46  1  0
 45 49  2  0
 47 48  1  0
M  CHG  1   1   1
M  END
$$$$
