
     RDKit          3D

 49 50  0  0  0  0  0  0  0  0999 V2000
   62.4480  117.4182   12.8817 N   0  0  0  0  0  4  0  0  0  0  0  0
   61.2907  117.3276   13.7071 C   0  0  2  0  0  0  0  0  0  0  0  0
   60.8966  115.8942   13.9213 C   0  0  0  0  0  0  0  0  0  0  0  0
   61.5760  114.9821   13.3508 O   0  0  0  0  0  0  0  0  0  0  0  0
   60.1419  118.0810   13.0309 C   0  0  0  0  0  0  0  0  0  0  0  0
   58.9731  118.1923   13.9534 C   0  0  0  0  0  0  0  0  0  0  0  0
   57.8095  118.1658   13.4788 O   0  0  0  0  0  0  0  0  0  0  0  0
   59.1717  118.3204   15.2940 O   0  0  0  0  0  0  0  0  0  0  0  0
   59.8053  115.5322   14.7306 N   0  0  0  0  0  0  0  0  0  0  0  0
   59.6813  114.3654   15.5464 C   0  0  2  0  0  0  0  0  0  0  0  0
   58.3852  114.2701   16.2622 C   0  0  0  0  0  0  0  0  0  0  0  0
   58.0373  115.2473   16.9690 O   0  0  0  0  0  0  0  0  0  0  0  0
   60.8456  114.2920   16.5102 C   0  0  0  0  0  0  0  0  0  0  0  0
   61.9332  113.5295   15.8730 C   0  0  0  0  0  0  0  0  0  0  0  0
   63.1557  113.3593   16.5021 O   0  0  0  0  0  0  0  0  0  0  0  0
   61.7620  113.0238   14.7480 O   0  0  0  0  0  0  0  0  0  0  0  0
   57.5119  113.1551   16.2097 N   0  0  0  0  0  0  0  0  0  0  0  0
   56.3316  113.0613   17.0535 C   0  0  2  0  0  0  0  0  0  0  0  0
   56.6696  113.0754   18.4962 C   0  0  0  0  0  0  0  0  0  0  0  0
   57.7187  112.5135   18.8589 O   0  0  0  0  0  0  0  0  0  0  0  0
   55.4869  111.8573   16.6877 C   0  0  0  0  0  0  0  0  0  0  0  0
   54.1069  112.1542   16.3194 C   0  0  0  0  0  0  0  0  0  0  0  0
   53.1028  111.8229   17.2034 C   0  0  0  0  0  0  0  0  0  0  0  0
   53.7908  112.7523   15.1288 C   0  0  0  0  0  0  0  0  0  0  0  0
   51.7724  112.0554   16.9668 C   0  0  0  0  0  0  0  0  0  0  0  0
   52.4452  112.9955   14.8717 C   0  0  0  0  0  0  0  0  0  0  0  0
   51.4408  112.6641   15.7544 C   0  0  0  0  0  0  0  0  0  0  0  0
   50.1004  112.9129   15.4850 O   0  0  0  0  0  0  0  0  0  0  0  0
   55.8728  113.6919   19.4775 N   0  0  0  0  0  0  0  0  0  0  0  0
   55.4099  113.0843   20.7101 C   0  0  2  0  0  0  0  0  0  0  0  0
   54.0130  112.7146   20.5817 C   0  0  0  0  0  0  0  0  0  0  0  0
   53.4681  113.0827   19.4585 O   0  0  0  0  0  0  0  0  0  0  0  0
   55.6392  114.0438   21.8744 C   0  0  2  0  0  0  0  0  0  0  0  0
   55.1492  113.4464   23.0154 O   0  0  0  0  0  0  0  0  0  0  0  0
   54.8960  115.3440   21.6693 C   0  0  0  0  0  0  0  0  0  0  0  0
   53.1483  112.0367   21.4429 N   0  0  0  0  0  0  0  0  0  0  0  0
   51.7570  111.7545   21.1591 C   0  0  2  0  0  0  0  0  0  0  0  0
   50.7966  112.3667   22.0686 C   0  0  0  0  0  0  0  0  0  0  0  0
   49.6104  111.9856   22.2890 O   0  0  0  0  0  0  0  0  0  0  0  0
   51.7432  110.2428   21.4430 C   0  0  0  0  0  0  0  0  0  0  0  0
   52.6625  110.1226   22.6374 C   0  0  0  0  0  0  0  0  0  0  0  0
   53.4426  111.4504   22.7116 C   0  0  0  0  0  0  0  0  0  0  0  0
   51.2296  113.5296   22.8066 N   0  0  0  0  0  0  0  0  0  0  0  0
   50.4238  114.0228   23.9096 C   0  0  2  0  0  0  0  0  0  0  0  0
   51.0468  115.2186   24.4977 C   0  0  0  0  0  0  0  0  0  0  0  0
   50.2511  116.3721   24.7164 O   0  0  0  0  0  0  0  0  0  0  0  0
   50.3825  112.9539   25.0081 C   0  0  0  0  0  0  0  0  0  0  0  0
   51.2911  113.3414   25.9890 O   0  0  0  0  0  0  0  0  0  0  0  0
   52.2557  115.2968   24.8292 O   0  0  0  0  0  0  0  0  0  0  0  0
  2  1  1  6
  2  3  1  0
  2  5  1  0
  3  4  2  0
  3  9  1  0
  5  6  1  0
  6  7  2  0
  6  8  1  0
  9 10  1  0
 10 11  1  0
 10 13  1  1
 11 12  2  0
 11 17  1  0
 13 14  1  0
 14 15  1  0
 14 16  2  0
 17 18  1  0
 18 19  1  0
 18 21  1  6
 19 20  2  0
 19 29  1  0
 21 22  1  0
 22 23  2  0
 22 24  1  0
 23 25  1  0
 24 26  2  0
 25 27  2  0
 26 27  1  0
 27 28  1  0
 30 29  1  6
 30 31  1  0
 30 33  1  0
 31 32  2  0
 31 36  1  0
 33 34  1  0
 33 35  1  6
 36 37  1  0
 36 42  1  0
 37 38  1  1
 37 40  1  0
 38 39  2  0
 38 43  1  0
 40 41  1  0
 41 42  1  0
 43 44  1  0
 44 45  1  0
 44 47  1  1
 45 46  1  0
 45 49  2  0
 47 48  1  0
M  CHG  1   1   1
M  END
$$$$
