
     RDKit          3D

 49 50  0  0  0  0  0  0  0  0999 V2000
   59.9437  116.9299   12.9332 N   0  0  0  0  0  4  0  0  0  0  0  0
   59.3492  116.9598   14.2273 C   0  0  2  0  0  0  0  0  0  0  0  0
   58.5825  115.6961   14.4938 C   0  0  0  0  0  0  0  0  0  0  0  0
   57.4955  115.4967   13.8632 O   0  0  0  0  0  0  0  0  0  0  0  0
   58.4038  118.1615   14.3085 C   0  0  0  0  0  0  0  0  0  0  0  0
   58.0377  118.4456   15.7279 C   0  0  0  0  0  0  0  0  0  0  0  0
   56.9169  118.9533   15.9848 O   0  0  0  0  0  0  0  0  0  0  0  0
   58.9127  118.1552   16.7294 O   0  0  0  0  0  0  0  0  0  0  0  0
   59.0289  114.7312   15.4139 N   0  0  0  0  0  0  0  0  0  0  0  0
   58.3798  113.5090   15.7707 C   0  0  2  0  0  0  0  0  0  0  0  0
   57.2732  113.6807   16.7438 C   0  0  0  0  0  0  0  0  0  0  0  0
   57.2399  114.7468   17.4056 O   0  0  0  0  0  0  0  0  0  0  0  0
   59.4047  112.5173   16.2766 C   0  0  0  0  0  0  0  0  0  0  0  0
   60.2559  113.1908   17.2725 C   0  0  0  0  0  0  0  0  0  0  0  0
   60.0410  114.5135   17.6245 O   0  0  0  0  0  0  0  0  0  0  0  0
   61.1890  112.5699   17.8151 O   0  0  0  0  0  0  0  0  0  0  0  0
   56.2519  112.7278   16.9843 N   0  0  0  0  0  0  0  0  0  0  0  0
   55.1904  112.9639   17.9493 C   0  0  2  0  0  0  0  0  0  0  0  0
   55.7170  113.3063   19.2914 C   0  0  0  0  0  0  0  0  0  0  0  0
   55.3335  114.3652   19.8201 O   0  0  0  0  0  0  0  0  0  0  0  0
   54.2277  111.7947   18.0067 C   0  0  0  0  0  0  0  0  0  0  0  0
   53.2935  111.7026   16.8901 C   0  0  0  0  0  0  0  0  0  0  0  0
   51.9722  112.0287   17.1076 C   0  0  0  0  0  0  0  0  0  0  0  0
   53.6969  111.3072   15.6427 C   0  0  0  0  0  0  0  0  0  0  0  0
   51.0063  111.9822   16.1354 C   0  0  0  0  0  0  0  0  0  0  0  0
   52.7298  111.2539   14.6438 C   0  0  0  0  0  0  0  0  0  0  0  0
   51.4088  111.5790   14.8603 C   0  0  0  0  0  0  0  0  0  0  0  0
   50.4529  111.5215   13.8533 O   0  0  0  0  0  0  0  0  0  0  0  0
   56.6229  112.4990   20.0026 N   0  0  0  0  0  0  0  0  0  0  0  0
   56.7060  112.3714   21.4446 C   0  0  2  0  0  0  0  0  0  0  0  0
   57.5743  113.4028   21.9802 C   0  0  0  0  0  0  0  0  0  0  0  0
   57.7956  113.2987   23.2584 O   0  0  0  0  0  0  0  0  0  0  0  0
   57.1930  110.9722   21.8102 C   0  0  2  0  0  0  0  0  0  0  0  0
   57.2499  110.8915   23.1846 O   0  0  0  0  0  0  0  0  0  0  0  0
   58.5798  110.7138   21.2671 C   0  0  0  0  0  0  0  0  0  0  0  0
   58.2149  114.4852   21.3742 N   0  0  0  0  0  0  0  0  0  0  0  0
   59.1361  115.3781   22.0450 C   0  0  2  0  0  0  0  0  0  0  0  0
   58.7170  116.7723   22.1143 C   0  0  0  0  0  0  0  0  0  0  0  0
   57.7324  117.2994   21.5196 O   0  0  0  0  0  0  0  0  0  0  0  0
   60.3145  115.3123   21.0587 C   0  0  0  0  0  0  0  0  0  0  0  0
   59.6199  115.2632   19.7167 C   0  0  0  0  0  0  0  0  0  0  0  0
   58.1500  114.9010   20.0093 C   0  0  0  0  0  0  0  0  0  0  0  0
   59.4943  117.6584   22.9479 N   0  0  0  0  0  0  0  0  0  0  0  0
   58.8934  118.8784   23.4576 C   0  0  2  0  0  0  0  0  0  0  0  0
   58.0885  118.5859   24.6536 C   0  0  0  0  0  0  0  0  0  0  0  0
   57.8210  119.6303   25.5753 O   0  0  0  0  0  0  0  0  0  0  0  0
   57.9350  119.4368   22.3990 C   0  0  0  0  0  0  0  0  0  0  0  0
   57.2898  120.5307   22.9691 O   0  0  0  0  0  0  0  0  0  0  0  0
   57.6088  117.4575   24.9258 O   0  0  0  0  0  0  0  0  0  0  0  0
  2  1  1  6
  2  3  1  0
  2  5  1  0
  3  4  2  0
  3  9  1  0
  5  6  1  0
  6  7  2  0
  6  8  1  0
  9 10  1  0
 10 11  1  0
 10 13  1  1
 11 12  2  0
 11 17  1  0
 13 14  1  0
 14 15  1  0
 14 16  2  0
 17 18  1  0
 18 19  1  0
 18 21  1  1
 19 20  2  0
 19 29  1  0
 21 22  1  0
 22 23  2  0
 22 24  1  0
 23 25  1  0
 24 26  2  0
 25 27  2  0
 26 27  1  0
 27 28  1  0
 30 29  1  6
 30 31  1  0
 30 33  1  0
 31 32  2  0
 31 36  1  0
 33 34  1  0
 33 35  1  6
 36 37  1  0
 36 42  1  0
 37 38  1  6
 37 40  1  0
 38 39  2  0
 38 43  1  0
 40 41  1  0
 41 42  1  0
 43 44  1  0
 44 45  1  0
 44 47  1  6
 45 46  1  0
 45 49  2  0
 47 48  1  0
M  CHG  1   1   1
M  END
$$$$
