
     RDKit          3D

 49 50  0  0  0  0  0  0  0  0999 V2000
   64.5898  114.1901   14.6802 N   0  0  0  0  0  4  0  0  0  0  0  0
   63.2780  114.2650   14.1300 C   0  0  2  0  0  0  0  0  0  0  0  0
   62.2543  114.4622   15.2113 C   0  0  0  0  0  0  0  0  0  0  0  0
   62.3530  113.7762   16.2783 O   0  0  0  0  0  0  0  0  0  0  0  0
   62.9844  112.9657   13.3750 C   0  0  0  0  0  0  0  0  0  0  0  0
   61.7999  113.1346   12.4818 C   0  0  0  0  0  0  0  0  0  0  0  0
   61.5098  112.2241   11.6652 O   0  0  0  0  0  0  0  0  0  0  0  0
   61.0452  114.2651   12.5558 O   0  0  0  0  0  0  0  0  0  0  0  0
   61.1962  115.3789   15.0803 N   0  0  0  0  0  0  0  0  0  0  0  0
   60.2050  115.7029   16.0574 C   0  0  2  0  0  0  0  0  0  0  0  0
   59.1145  114.7020   16.1589 C   0  0  0  0  0  0  0  0  0  0  0  0
   58.9972  113.8720   15.2245 O   0  0  0  0  0  0  0  0  0  0  0  0
   59.6548  117.0860   15.7851 C   0  0  0  0  0  0  0  0  0  0  0  0
   58.7763  117.4687   16.9040 C   0  0  0  0  0  0  0  0  0  0  0  0
   59.1708  117.2921   18.2203 O   0  0  0  0  0  0  0  0  0  0  0  0
   57.6558  117.9613   16.6747 O   0  0  0  0  0  0  0  0  0  0  0  0
   58.1926  114.6157   17.2319 N   0  0  0  0  0  0  0  0  0  0  0  0
   57.4824  113.3850   17.5397 C   0  0  2  0  0  0  0  0  0  0  0  0
   56.6472  113.5077   18.7576 C   0  0  0  0  0  0  0  0  0  0  0  0
   56.9046  112.7666   19.7232 O   0  0  0  0  0  0  0  0  0  0  0  0
   58.4327  112.2077   17.6284 C   0  0  0  0  0  0  0  0  0  0  0  0
   58.3606  111.2648   16.5176 C   0  0  0  0  0  0  0  0  0  0  0  0
   57.4068  111.4658   15.5433 C   0  0  0  0  0  0  0  0  0  0  0  0
   59.2135  110.1979   16.4205 C   0  0  0  0  0  0  0  0  0  0  0  0
   57.2468  110.6484   14.4540 C   0  0  0  0  0  0  0  0  0  0  0  0
   59.0652  109.3575   15.3215 C   0  0  0  0  0  0  0  0  0  0  0  0
   58.1117  109.5571   14.3475 C   0  0  0  0  0  0  0  0  0  0  0  0
   57.9746  108.7098   13.2547 O   0  0  0  0  0  0  0  0  0  0  0  0
   55.5826  114.4180   18.8842 N   0  0  0  0  0  0  0  0  0  0  0  0
   54.7540  114.6078   20.0589 C   0  0  2  0  0  0  0  0  0  0  0  0
   53.5185  113.8612   19.9149 C   0  0  0  0  0  0  0  0  0  0  0  0
   53.3010  113.4233   18.7088 O   0  0  0  0  0  0  0  0  0  0  0  0
   54.4966  116.0968   20.2718 C   0  0  2  0  0  0  0  0  0  0  0  0
   53.8147  116.5682   19.1711 O   0  0  0  0  0  0  0  0  0  0  0  0
   55.7920  116.8674   20.3867 C   0  0  0  0  0  0  0  0  0  0  0  0
   52.5219  113.5276   20.8340 N   0  0  0  0  0  0  0  0  0  0  0  0
   51.2869  112.8499   20.5000 C   0  0  2  0  0  0  0  0  0  0  0  0
   50.0686  113.6072   20.7582 C   0  0  0  0  0  0  0  0  0  0  0  0
   48.8817  113.1701   20.7252 O   0  0  0  0  0  0  0  0  0  0  0  0
   51.3357  111.7124   21.5342 C   0  0  0  0  0  0  0  0  0  0  0  0
   51.9131  112.3975   22.7520 C   0  0  0  0  0  0  0  0  0  0  0  0
   52.5219  113.7217   22.2489 C   0  0  0  0  0  0  0  0  0  0  0  0
   50.2137  115.0044   21.0918 N   0  0  0  0  0  0  0  0  0  0  0  0
   49.0310  115.8212   21.2994 C   0  0  2  0  0  0  0  0  0  0  0  0
   49.4187  117.2085   21.5975 C   0  0  0  0  0  0  0  0  0  0  0  0
   50.6748  117.6849   21.1427 O   0  0  0  0  0  0  0  0  0  0  0  0
   48.2758  115.2945   22.5255 C   0  0  0  0  0  0  0  0  0  0  0  0
   47.1714  116.1215   22.7107 O   0  0  0  0  0  0  0  0  0  0  0  0
   48.7057  118.0211   22.2370 O   0  0  0  0  0  0  0  0  0  0  0  0
  2  1  1  1
  2  3  1  0
  2  5  1  0
  3  4  2  0
  3  9  1  0
  5  6  1  0
  6  7  2  0
  6  8  1  0
  9 10  1  0
 10 11  1  0
 10 13  1  6
 11 12  2  0
 11 17  1  0
 13 14  1  0
 14 15  1  0
 14 16  2  0
 17 18  1  0
 18 19  1  0
 18 21  1  1
 19 20  2  0
 19 29  1  0
 21 22  1  0
 22 23  2  0
 22 24  1  0
 23 25  1  0
 24 26  2  0
 25 27  2  0
 26 27  1  0
 27 28  1  0
 30 29  1  6
 30 31  1  0
 30 33  1  0
 31 32  2  0
 31 36  1  0
 33 34  1  0
 33 35  1  6
 36 37  1  0
 36 42  1  0
 37 38  1  1
 37 40  1  0
 38 39  2  0
 38 43  1  0
 40 41  1  0
 41 42  1  0
 43 44  1  0
 44 45  1  0
 44 47  1  1
 45 46  1  0
 45 49  2  0
 47 48  1  0
M  CHG  1   1   1
M  END
$$$$
