
     RDKit          3D

 49 50  0  0  0  0  0  0  0  0999 V2000
   61.4978  118.3847   16.4440 N   0  0  0  0  0  4  0  0  0  0  0  0
   61.0055  118.4707   15.1101 C   0  0  2  0  0  0  0  0  0  0  0  0
   60.2440  117.2303   14.7393 C   0  0  0  0  0  0  0  0  0  0  0  0
   60.0018  117.0068   13.5104 O   0  0  0  0  0  0  0  0  0  0  0  0
   62.1906  118.6505   14.1573 C   0  0  0  0  0  0  0  0  0  0  0  0
   61.7167  118.7538   12.7451 C   0  0  0  0  0  0  0  0  0  0  0  0
   62.4529  118.3349   11.8165 O   0  0  0  0  0  0  0  0  0  0  0  0
   60.4986  119.2968   12.4721 O   0  0  0  0  0  0  0  0  0  0  0  0
   59.7943  116.3129   15.7053 N   0  0  0  0  0  0  0  0  0  0  0  0
   59.5150  114.9241   15.5170 C   0  0  2  0  0  0  0  0  0  0  0  0
   58.9553  114.2575   16.7185 C   0  0  0  0  0  0  0  0  0  0  0  0
   59.3951  113.1187   17.0105 O   0  0  0  0  0  0  0  0  0  0  0  0
   60.7600  114.2162   15.0283 C   0  0  0  0  0  0  0  0  0  0  0  0
   60.4474  112.7873   14.8530 C   0  0  0  0  0  0  0  0  0  0  0  0
   61.0981  111.8134   15.5930 O   0  0  0  0  0  0  0  0  0  0  0  0
   59.5841  112.4362   14.0272 O   0  0  0  0  0  0  0  0  0  0  0  0
   57.9575  114.8104   17.5596 N   0  0  0  0  0  0  0  0  0  0  0  0
   57.4512  114.1004   18.7230 C   0  0  2  0  0  0  0  0  0  0  0  0
   56.4386  113.0805   18.3620 C   0  0  0  0  0  0  0  0  0  0  0  0
   55.9946  113.0795   17.1998 O   0  0  0  0  0  0  0  0  0  0  0  0
   56.9288  115.0621   19.7714 C   0  0  0  0  0  0  0  0  0  0  0  0
   55.9716  116.0506   19.2870 C   0  0  0  0  0  0  0  0  0  0  0  0
   54.7955  116.2260   19.9839 C   0  0  0  0  0  0  0  0  0  0  0  0
   56.2150  116.8032   18.1692 C   0  0  0  0  0  0  0  0  0  0  0  0
   53.8246  117.1254   19.6251 C   0  0  0  0  0  0  0  0  0  0  0  0
   55.2403  117.7210   17.7903 C   0  0  0  0  0  0  0  0  0  0  0  0
   54.0642  117.8965   18.4857 C   0  0  0  0  0  0  0  0  0  0  0  0
   53.0988  118.8170   18.0961 O   0  0  0  0  0  0  0  0  0  0  0  0
   55.9544  112.1113   19.2588 N   0  0  0  0  0  0  0  0  0  0  0  0
   54.7112  111.3754   19.1345 C   0  0  2  0  0  0  0  0  0  0  0  0
   53.5935  112.2997   19.1045 C   0  0  0  0  0  0  0  0  0  0  0  0
   53.9422  113.5508   19.0204 O   0  0  0  0  0  0  0  0  0  0  0  0
   54.5896  110.3737   20.2794 C   0  0  2  0  0  0  0  0  0  0  0  0
   54.9325  111.0228   21.4455 O   0  0  0  0  0  0  0  0  0  0  0  0
   55.5365  109.2101   20.0942 C   0  0  0  0  0  0  0  0  0  0  0  0
   52.2138  112.0913   19.1495 N   0  0  0  0  0  0  0  0  0  0  0  0
   51.2261  113.1411   19.2846 C   0  0  2  0  0  0  0  0  0  0  0  0
   50.4062  113.0772   20.4879 C   0  0  0  0  0  0  0  0  0  0  0  0
   49.7092  112.0968   20.8803 O   0  0  0  0  0  0  0  0  0  0  0  0
   50.3130  112.7824   18.0998 C   0  0  0  0  0  0  0  0  0  0  0  0
   50.3139  111.2707   18.1279 C   0  0  0  0  0  0  0  0  0  0  0  0
   51.5001  110.8606   19.0234 C   0  0  0  0  0  0  0  0  0  0  0  0
   50.3779  114.2462   21.3347 N   0  0  0  0  0  0  0  0  0  0  0  0
   49.5063  114.2723   22.4961 C   0  0  2  0  0  0  0  0  0  0  0  0
   48.1617  114.7279   22.1109 C   0  0  0  0  0  0  0  0  0  0  0  0
   47.7621  114.6233   20.7541 O   0  0  0  0  0  0  0  0  0  0  0  0
   50.0533  115.2926   23.5015 C   0  0  0  0  0  0  0  0  0  0  0  0
   50.1578  116.5090   22.8326 O   0  0  0  0  0  0  0  0  0  0  0  0
   47.3221  115.2118   22.9100 O   0  0  0  0  0  0  0  0  0  0  0  0
  2  1  1  1
  2  3  1  0
  2  5  1  0
  3  4  2  0
  3  9  1  0
  5  6  1  0
  6  7  2  0
  6  8  1  0
  9 10  1  0
 10 11  1  0
 10 13  1  1
 11 12  2  0
 11 17  1  0
 13 14  1  0
 14 15  1  0
 14 16  2  0
 17 18  1  0
 18 19  1  0
 18 21  1  1
 19 20  2  0
 19 29  1  0
 21 22  1  0
 22 23  2  0
 22 24  1  0
 23 25  1  0
 24 26  2  0
 25 27  2  0
 26 27  1  0
 27 28  1  0
 30 29  1  1
 30 31  1  0
 30 33  1  0
 31 32  2  0
 31 36  1  0
 33 34  1  0
 33 35  1  6
 36 37  1  0
 36 42  1  0
 37 38  1  1
 37 40  1  0
 38 39  2  0
 38 43  1  0
 40 41  1  0
 41 42  1  0
 43 44  1  0
 44 45  1  0
 44 47  1  1
 45 46  1  0
 45 49  2  0
 47 48  1  0
M  CHG  1   1   1
M  END
$$$$
