
     RDKit          3D

 49 50  0  0  0  0  0  0  0  0999 V2000
   61.9230  116.5024   13.6101 N   0  0  0  0  0  4  0  0  0  0  0  0
   60.7391  116.8257   14.3333 C   0  0  2  0  0  0  0  0  0  0  0  0
   60.0968  115.5874   14.8900 C   0  0  0  0  0  0  0  0  0  0  0  0
   59.7370  114.6709   14.0841 O   0  0  0  0  0  0  0  0  0  0  0  0
   59.7617  117.5319   13.3897 C   0  0  0  0  0  0  0  0  0  0  0  0
   58.6153  118.1052   14.1556 C   0  0  0  0  0  0  0  0  0  0  0  0
   57.6435  118.6002   13.5308 O   0  0  0  0  0  0  0  0  0  0  0  0
   58.6280  118.0890   15.5167 O   0  0  0  0  0  0  0  0  0  0  0  0
   59.8837  115.4115   16.2686 N   0  0  0  0  0  0  0  0  0  0  0  0
   59.2281  114.3161   16.9109 C   0  0  2  0  0  0  0  0  0  0  0  0
   57.7479  114.3718   16.8273 C   0  0  0  0  0  0  0  0  0  0  0  0
   57.2409  115.1710   16.0026 O   0  0  0  0  0  0  0  0  0  0  0  0
   59.6918  114.2169   18.3479 C   0  0  0  0  0  0  0  0  0  0  0  0
   60.8968  115.0489   18.5092 C   0  0  0  0  0  0  0  0  0  0  0  0
   61.4551  115.7211   17.4340 O   0  0  0  0  0  0  0  0  0  0  0  0
   61.4325  115.1576   19.6281 O   0  0  0  0  0  0  0  0  0  0  0  0
   56.8630  113.5914   17.6127 N   0  0  0  0  0  0  0  0  0  0  0  0
   55.4190  113.7047   17.4877 C   0  0  2  0  0  0  0  0  0  0  0  0
   54.7018  112.8140   18.4301 C   0  0  0  0  0  0  0  0  0  0  0  0
   53.4581  112.8070   18.4003 O   0  0  0  0  0  0  0  0  0  0  0  0
   54.9706  113.4839   16.0570 C   0  0  0  0  0  0  0  0  0  0  0  0
   53.5282  113.3773   15.8664 C   0  0  0  0  0  0  0  0  0  0  0  0
   52.8110  114.5254   15.6074 C   0  0  0  0  0  0  0  0  0  0  0  0
   52.8785  112.1738   15.9344 C   0  0  0  0  0  0  0  0  0  0  0  0
   51.4543  114.5474   15.4090 C   0  0  0  0  0  0  0  0  0  0  0  0
   51.5013  112.1774   15.7359 C   0  0  0  0  0  0  0  0  0  0  0  0
   50.7834  113.3245   15.4777 C   0  0  0  0  0  0  0  0  0  0  0  0
   49.4078  113.3138   15.2813 O   0  0  0  0  0  0  0  0  0  0  0  0
   55.3488  111.9733   19.3535 N   0  0  0  0  0  0  0  0  0  0  0  0
   54.7043  111.0602   20.2774 C   0  0  2  0  0  0  0  0  0  0  0  0
   53.4073  111.5841   20.6620 C   0  0  0  0  0  0  0  0  0  0  0  0
   53.1800  112.7959   20.2452 O   0  0  0  0  0  0  0  0  0  0  0  0
   55.6059  110.8307   21.4870 C   0  0  2  0  0  0  0  0  0  0  0  0
   55.8751  112.0588   22.0510 O   0  0  0  0  0  0  0  0  0  0  0  0
   56.9197  110.2024   21.0817 C   0  0  0  0  0  0  0  0  0  0  0  0
   52.3602  111.0252   21.3971 N   0  0  0  0  0  0  0  0  0  0  0  0
   51.1322  111.7134   21.7356 C   0  0  2  0  0  0  0  0  0  0  0  0
   50.8906  111.8964   23.1612 C   0  0  0  0  0  0  0  0  0  0  0  0
   50.8650  110.9949   24.0486 O   0  0  0  0  0  0  0  0  0  0  0  0
   50.1145  110.6730   21.2378 C   0  0  0  0  0  0  0  0  0  0  0  0
   50.7728  109.3633   21.6085 C   0  0  0  0  0  0  0  0  0  0  0  0
   52.2481  109.6962   21.9080 C   0  0  0  0  0  0  0  0  0  0  0  0
   50.6575  113.2428   23.6275 N   0  0  0  0  0  0  0  0  0  0  0  0
   51.2877  113.6987   24.8539 C   0  0  2  0  0  0  0  0  0  0  0  0
   50.9514  115.1089   25.1029 C   0  0  0  0  0  0  0  0  0  0  0  0
   50.7293  115.5383   26.4363 O   0  0  0  0  0  0  0  0  0  0  0  0
   52.8097  113.6251   24.6842 C   0  0  0  0  0  0  0  0  0  0  0  0
   53.3749  114.0410   25.8865 O   0  0  0  0  0  0  0  0  0  0  0  0
   50.8449  115.9807   24.2051 O   0  0  0  0  0  0  0  0  0  0  0  0
  2  1  1  6
  2  3  1  0
  2  5  1  0
  3  4  2  0
  3  9  1  0
  5  6  1  0
  6  7  2  0
  6  8  1  0
  9 10  1  0
 10 11  1  0
 10 13  1  1
 11 12  2  0
 11 17  1  0
 13 14  1  0
 14 15  1  0
 14 16  2  0
 17 18  1  0
 18 19  1  0
 18 21  1  6
 19 20  2  0
 19 29  1  0
 21 22  1  0
 22 23  2  0
 22 24  1  0
 23 25  1  0
 24 26  2  0
 25 27  2  0
 26 27  1  0
 27 28  1  0
 30 29  1  6
 30 31  1  0
 30 33  1  0
 31 32  2  0
 31 36  1  0
 33 34  1  0
 33 35  1  6
 36 37  1  0
 36 42  1  0
 37 38  1  1
 37 40  1  0
 38 39  2  0
 38 43  1  0
 40 41  1  0
 41 42  1  0
 43 44  1  0
 44 45  1  0
 44 47  1  6
 45 46  1  0
 45 49  2  0
 47 48  1  0
M  CHG  1   1   1
M  END
$$$$
