
     RDKit          3D

 49 50  0  0  0  0  0  0  0  0999 V2000
   63.4751  112.3238   15.2545 N   0  0  0  0  0  4  0  0  0  0  0  0
   63.1332  113.6016   15.7831 C   0  0  2  0  0  0  0  0  0  0  0  0
   61.6792  113.9028   15.5574 C   0  0  0  0  0  0  0  0  0  0  0  0
   60.9711  113.0562   14.9243 O   0  0  0  0  0  0  0  0  0  0  0  0
   63.9916  114.6664   15.0947 C   0  0  0  0  0  0  0  0  0  0  0  0
   65.4413  114.4178   15.3519 C   0  0  0  0  0  0  0  0  0  0  0  0
   66.1278  115.3072   15.9154 O   0  0  0  0  0  0  0  0  0  0  0  0
   66.0081  113.2381   14.9781 O   0  0  0  0  0  0  0  0  0  0  0  0
   61.0801  115.0862   16.0239 N   0  0  0  0  0  0  0  0  0  0  0  0
   59.7107  115.4735   15.8934 C   0  0  2  0  0  0  0  0  0  0  0  0
   58.7498  114.3742   16.1568 C   0  0  0  0  0  0  0  0  0  0  0  0
   59.2014  113.2038   16.1991 O   0  0  0  0  0  0  0  0  0  0  0  0
   59.4824  116.0846   14.5280 C   0  0  0  0  0  0  0  0  0  0  0  0
   58.1262  116.6585   14.4930 C   0  0  0  0  0  0  0  0  0  0  0  0
   57.9014  117.9430   14.0251 O   0  0  0  0  0  0  0  0  0  0  0  0
   57.1557  115.9860   14.8888 O   0  0  0  0  0  0  0  0  0  0  0  0
   57.3580  114.5476   16.3610 N   0  0  0  0  0  0  0  0  0  0  0  0
   56.5694  113.6012   17.1331 C   0  0  2  0  0  0  0  0  0  0  0  0
   55.1659  114.0456   17.3023 C   0  0  0  0  0  0  0  0  0  0  0  0
   54.9605  115.1578   17.8207 O   0  0  0  0  0  0  0  0  0  0  0  0
   57.2245  113.2953   18.4651 C   0  0  0  0  0  0  0  0  0  0  0  0
   57.7926  111.9571   18.5862 C   0  0  0  0  0  0  0  0  0  0  0  0
   57.5354  111.0393   17.5907 C   0  0  0  0  0  0  0  0  0  0  0  0
   58.5709  111.5977   19.6540 C   0  0  0  0  0  0  0  0  0  0  0  0
   58.0168  109.7553   17.5958 C   0  0  0  0  0  0  0  0  0  0  0  0
   59.0677  110.2982   19.6758 C   0  0  0  0  0  0  0  0  0  0  0  0
   58.8107  109.3799   18.6817 C   0  0  0  0  0  0  0  0  0  0  0  0
   59.3134  108.0849   18.7160 O   0  0  0  0  0  0  0  0  0  0  0  0
   54.0533  113.2820   16.9058 N   0  0  0  0  0  0  0  0  0  0  0  0
   52.6638  113.6891   16.9850 C   0  0  2  0  0  0  0  0  0  0  0  0
   52.3734  114.1904   18.3150 C   0  0  0  0  0  0  0  0  0  0  0  0
   53.3004  113.9352   19.1921 O   0  0  0  0  0  0  0  0  0  0  0  0
   51.7620  112.5164   16.6103 C   0  0  2  0  0  0  0  0  0  0  0  0
   52.0254  111.4856   17.4860 O   0  0  0  0  0  0  0  0  0  0  0  0
   52.0506  112.0272   15.2094 C   0  0  0  0  0  0  0  0  0  0  0  0
   51.2815  114.8959   18.8242 N   0  0  0  0  0  0  0  0  0  0  0  0
   51.2031  115.4373   20.1646 C   0  0  2  0  0  0  0  0  0  0  0  0
   50.1407  114.8900   20.9989 C   0  0  0  0  0  0  0  0  0  0  0  0
   49.3899  113.9090   20.7254 O   0  0  0  0  0  0  0  0  0  0  0  0
   50.8090  116.8857   19.8290 C   0  0  0  0  0  0  0  0  0  0  0  0
   49.8625  116.7090   18.6632 C   0  0  0  0  0  0  0  0  0  0  0  0
   50.0784  115.2706   18.1518 C   0  0  0  0  0  0  0  0  0  0  0  0
   49.9096  115.5199   22.2773 N   0  0  0  0  0  0  0  0  0  0  0  0
   49.1058  114.8416   23.2787 C   0  0  2  0  0  0  0  0  0  0  0  0
   48.9988  115.6701   24.4895 C   0  0  0  0  0  0  0  0  0  0  0  0
   50.0184  116.6156   24.7686 O   0  0  0  0  0  0  0  0  0  0  0  0
   49.8147  113.5443   23.6857 C   0  0  0  0  0  0  0  0  0  0  0  0
   50.8150  113.8920   24.5892 O   0  0  0  0  0  0  0  0  0  0  0  0
   48.0519  115.6031   25.3119 O   0  0  0  0  0  0  0  0  0  0  0  0
  2  1  1  6
  2  3  1  0
  2  5  1  0
  3  4  2  0
  3  9  1  0
  5  6  1  0
  6  7  2  0
  6  8  1  0
  9 10  1  0
 10 11  1  0
 10 13  1  6
 11 12  2  0
 11 17  1  0
 13 14  1  0
 14 15  1  0
 14 16  2  0
 17 18  1  0
 18 19  1  0
 18 21  1  1
 19 20  2  0
 19 29  1  0
 21 22  1  0
 22 23  2  0
 22 24  1  0
 23 25  1  0
 24 26  2  0
 25 27  2  0
 26 27  1  0
 27 28  1  0
 30 29  1  1
 30 31  1  0
 30 33  1  0
 31 32  2  0
 31 36  1  0
 33 34  1  0
 33 35  1  6
 36 37  1  0
 36 42  1  0
 37 38  1  1
 37 40  1  0
 38 39  2  0
 38 43  1  0
 40 41  1  0
 41 42  1  0
 43 44  1  0
 44 45  1  0
 44 47  1  1
 45 46  1  0
 45 49  2  0
 47 48  1  0
M  CHG  1   1   1
M  END
$$$$
