
     RDKit          3D

 49 50  0  0  0  0  0  0  0  0999 V2000
   61.4445  116.6218   11.7865 N   0  0  0  0  0  4  0  0  0  0  0  0
   61.9096  115.3899   12.3297 C   0  0  2  0  0  0  0  0  0  0  0  0
   61.5957  115.2986   13.7956 C   0  0  0  0  0  0  0  0  0  0  0  0
   62.0114  116.2205   14.5679 O   0  0  0  0  0  0  0  0  0  0  0  0
   63.4239  115.2992   12.1216 C   0  0  0  0  0  0  0  0  0  0  0  0
   63.9413  113.9840   12.6034 C   0  0  0  0  0  0  0  0  0  0  0  0
   64.8723  113.9606   13.4475 O   0  0  0  0  0  0  0  0  0  0  0  0
   63.4061  112.8254   12.1300 O   0  0  0  0  0  0  0  0  0  0  0  0
   60.8585  114.2306   14.3368 N   0  0  0  0  0  0  0  0  0  0  0  0
   60.5746  113.9850   15.7157 C   0  0  2  0  0  0  0  0  0  0  0  0
   59.1264  113.8738   16.0182 C   0  0  0  0  0  0  0  0  0  0  0  0
   58.4406  114.9244   15.9772 O   0  0  0  0  0  0  0  0  0  0  0  0
   61.2316  115.0488   16.5680 C   0  0  0  0  0  0  0  0  0  0  0  0
   61.0793  114.6736   17.9845 C   0  0  0  0  0  0  0  0  0  0  0  0
   59.9632  115.0531   18.7123 O   0  0  0  0  0  0  0  0  0  0  0  0
   61.9638  114.0030   18.5489 O   0  0  0  0  0  0  0  0  0  0  0  0
   58.4600  112.6687   16.3538 N   0  0  0  0  0  0  0  0  0  0  0  0
   57.0433  112.6371   16.6787 C   0  0  2  0  0  0  0  0  0  0  0  0
   56.7561  113.2441   17.9997 C   0  0  0  0  0  0  0  0  0  0  0  0
   57.7144  113.6587   18.6762 O   0  0  0  0  0  0  0  0  0  0  0  0
   56.4851  111.2319   16.5747 C   0  0  0  0  0  0  0  0  0  0  0  0
   55.0736  111.0962   16.9172 C   0  0  0  0  0  0  0  0  0  0  0  0
   54.1353  111.2543   15.9201 C   0  0  0  0  0  0  0  0  0  0  0  0
   54.6647  110.8141   18.1932 C   0  0  0  0  0  0  0  0  0  0  0  0
   52.7834  111.1473   16.1227 C   0  0  0  0  0  0  0  0  0  0  0  0
   53.2960  110.7022   18.4172 C   0  0  0  0  0  0  0  0  0  0  0  0
   52.3574  110.8608   17.4214 C   0  0  0  0  0  0  0  0  0  0  0  0
   50.9930  110.7463   17.6590 O   0  0  0  0  0  0  0  0  0  0  0  0
   55.4605  113.3814   18.5294 N   0  0  0  0  0  0  0  0  0  0  0  0
   55.1125  114.0145   19.7867 C   0  0  2  0  0  0  0  0  0  0  0  0
   53.6726  113.9994   19.9628 C   0  0  0  0  0  0  0  0  0  0  0  0
   53.0036  114.3009   18.8879 O   0  0  0  0  0  0  0  0  0  0  0  0
   55.6743  115.4329   19.8213 C   0  0  2  0  0  0  0  0  0  0  0  0
   57.0492  115.3415   19.8300 O   0  0  0  0  0  0  0  0  0  0  0  0
   55.2448  116.1636   21.0730 C   0  0  0  0  0  0  0  0  0  0  0  0
   52.8753  113.7205   21.0744 N   0  0  0  0  0  0  0  0  0  0  0  0
   51.4311  113.6222   21.0485 C   0  0  2  0  0  0  0  0  0  0  0  0
   50.7231  114.6006   21.8645 C   0  0  0  0  0  0  0  0  0  0  0  0
   51.1440  115.1548   22.9212 O   0  0  0  0  0  0  0  0  0  0  0  0
   51.2588  112.2566   21.7349 C   0  0  0  0  0  0  0  0  0  0  0  0
   52.3349  112.2824   22.7967 C   0  0  0  0  0  0  0  0  0  0  0  0
   53.2894  113.4298   22.4100 C   0  0  0  0  0  0  0  0  0  0  0  0
   49.4020  114.9926   21.4337 N   0  0  0  0  0  0  0  0  0  0  0  0
   48.7632  116.1501   22.0347 C   0  0  2  0  0  0  0  0  0  0  0  0
   47.4404  116.3703   21.4300 C   0  0  0  0  0  0  0  0  0  0  0  0
   46.4466  117.0517   22.1782 O   0  0  0  0  0  0  0  0  0  0  0  0
   49.6068  117.3937   21.7301 C   0  0  0  0  0  0  0  0  0  0  0  0
   49.6407  117.5348   20.3456 O   0  0  0  0  0  0  0  0  0  0  0  0
   47.1177  115.9936   20.2761 O   0  0  0  0  0  0  0  0  0  0  0  0
  2  1  1  1
  2  3  1  0
  2  5  1  0
  3  4  2  0
  3  9  1  0
  5  6  1  0
  6  7  2  0
  6  8  1  0
  9 10  1  0
 10 11  1  0
 10 13  1  1
 11 12  2  0
 11 17  1  0
 13 14  1  0
 14 15  1  0
 14 16  2  0
 17 18  1  0
 18 19  1  0
 18 21  1  1
 19 20  2  0
 19 29  1  0
 21 22  1  0
 22 23  2  0
 22 24  1  0
 23 25  1  0
 24 26  2  0
 25 27  2  0
 26 27  1  0
 27 28  1  0
 30 29  1  6
 30 31  1  0
 30 33  1  0
 31 32  2  0
 31 36  1  0
 33 34  1  0
 33 35  1  1
 36 37  1  0
 36 42  1  0
 37 38  1  1
 37 40  1  0
 38 39  2  0
 38 43  1  0
 40 41  1  0
 41 42  1  0
 43 44  1  0
 44 45  1  0
 44 47  1  6
 45 46  1  0
 45 49  2  0
 47 48  1  0
M  CHG  1   1   1
M  END
$$$$
