
     RDKit          3D

 49 50  0  0  0  0  0  0  0  0999 V2000
   64.5643  115.0287   14.0798 N   0  0  0  0  0  4  0  0  0  0  0  0
   63.2632  114.5770   13.7160 C   0  0  2  0  0  0  0  0  0  0  0  0
   62.2055  115.3156   14.4852 C   0  0  0  0  0  0  0  0  0  0  0  0
   62.3161  116.5760   14.6197 O   0  0  0  0  0  0  0  0  0  0  0  0
   63.1608  113.0779   14.0108 C   0  0  0  0  0  0  0  0  0  0  0  0
   63.8979  112.2893   12.9793 C   0  0  0  0  0  0  0  0  0  0  0  0
   63.6657  111.0595   12.8625 O   0  0  0  0  0  0  0  0  0  0  0  0
   64.8108  112.9013   12.1761 O   0  0  0  0  0  0  0  0  0  0  0  0
   61.1016  114.6587   15.0569 N   0  0  0  0  0  0  0  0  0  0  0  0
   59.9894  115.2565   15.7262 C   0  0  2  0  0  0  0  0  0  0  0  0
   58.9501  114.2844   16.1459 C   0  0  0  0  0  0  0  0  0  0  0  0
   59.2061  113.0631   16.0095 O   0  0  0  0  0  0  0  0  0  0  0  0
   59.4000  116.3477   14.8592 C   0  0  0  0  0  0  0  0  0  0  0  0
   59.9158  117.6462   15.3261 C   0  0  0  0  0  0  0  0  0  0  0  0
   59.6988  118.8077   14.6027 O   0  0  0  0  0  0  0  0  0  0  0  0
   60.5603  117.7135   16.3895 O   0  0  0  0  0  0  0  0  0  0  0  0
   57.6872  114.6330   16.6866 N   0  0  0  0  0  0  0  0  0  0  0  0
   56.7766  113.6339   17.2218 C   0  0  2  0  0  0  0  0  0  0  0  0
   55.5125  114.2314   17.7128 C   0  0  0  0  0  0  0  0  0  0  0  0
   55.4327  115.4717   17.7701 O   0  0  0  0  0  0  0  0  0  0  0  0
   57.4480  112.7901   18.2866 C   0  0  0  0  0  0  0  0  0  0  0  0
   58.1365  111.6013   17.7959 C   0  0  0  0  0  0  0  0  0  0  0  0
   59.4998  111.5079   17.9753 C   0  0  0  0  0  0  0  0  0  0  0  0
   57.4645  110.5848   17.1712 C   0  0  0  0  0  0  0  0  0  0  0  0
   60.2513  110.4392   17.5590 C   0  0  0  0  0  0  0  0  0  0  0  0
   58.2115  109.4923   16.7416 C   0  0  0  0  0  0  0  0  0  0  0  0
   59.5742  109.3983   16.9198 C   0  0  0  0  0  0  0  0  0  0  0  0
   60.3082  108.3011   16.4858 O   0  0  0  0  0  0  0  0  0  0  0  0
   54.3968  113.4748   18.1137 N   0  0  0  0  0  0  0  0  0  0  0  0
   53.1417  114.0002   18.6149 C   0  0  2  0  0  0  0  0  0  0  0  0
   53.0440  113.7618   20.0426 C   0  0  0  0  0  0  0  0  0  0  0  0
   53.6558  112.6854   20.4436 O   0  0  0  0  0  0  0  0  0  0  0  0
   51.9792  113.3705   17.8528 C   0  0  2  0  0  0  0  0  0  0  0  0
   52.1583  112.0043   17.8648 O   0  0  0  0  0  0  0  0  0  0  0  0
   51.9547  113.8279   16.4122 C   0  0  0  0  0  0  0  0  0  0  0  0
   52.4139  114.4764   21.0630 N   0  0  0  0  0  0  0  0  0  0  0  0
   52.3144  114.0345   22.4381 C   0  0  2  0  0  0  0  0  0  0  0  0
   50.9592  113.8167   22.9284 C   0  0  0  0  0  0  0  0  0  0  0  0
   50.5420  113.9925   24.1099 O   0  0  0  0  0  0  0  0  0  0  0  0
   52.8513  115.2900   23.1461 C   0  0  0  0  0  0  0  0  0  0  0  0
   52.2738  116.4117   22.3128 C   0  0  0  0  0  0  0  0  0  0  0  0
   51.8036  115.7659   20.9940 C   0  0  0  0  0  0  0  0  0  0  0  0
   49.9756  113.3551   21.9777 N   0  0  0  0  0  0  0  0  0  0  0  0
   48.5744  113.6809   22.1766 C   0  0  2  0  0  0  0  0  0  0  0  0
   47.7585  113.0859   21.1069 C   0  0  0  0  0  0  0  0  0  0  0  0
   46.6141  112.3248   21.4568 O   0  0  0  0  0  0  0  0  0  0  0  0
   48.4017  115.2012   22.0777 C   0  0  0  0  0  0  0  0  0  0  0  0
   48.1338  115.6659   23.3623 O   0  0  0  0  0  0  0  0  0  0  0  0
   48.0032  113.2045   19.8807 O   0  0  0  0  0  0  0  0  0  0  0  0
  2  1  1  1
  2  3  1  0
  2  5  1  0
  3  4  2  0
  3  9  1  0
  5  6  1  0
  6  7  2  0
  6  8  1  0
  9 10  1  0
 10 11  1  0
 10 13  1  6
 11 12  2  0
 11 17  1  0
 13 14  1  0
 14 15  1  0
 14 16  2  0
 17 18  1  0
 18 19  1  0
 18 21  1  1
 19 20  2  0
 19 29  1  0
 21 22  1  0
 22 23  2  0
 22 24  1  0
 23 25  1  0
 24 26  2  0
 25 27  2  0
 26 27  1  0
 27 28  1  0
 30 29  1  6
 30 31  1  0
 30 33  1  0
 31 32  2  0
 31 36  1  0
 33 34  1  0
 33 35  1  6
 36 37  1  0
 36 42  1  0
 37 38  1  1
 37 40  1  0
 38 39  2  0
 38 43  1  0
 40 41  1  0
 41 42  1  0
 43 44  1  0
 44 45  1  0
 44 47  1  6
 45 46  1  0
 45 49  2  0
 47 48  1  0
M  CHG  1   1   1
M  END
$$$$
