
     RDKit          3D

 49 50  0  0  0  0  0  0  0  0999 V2000
   64.5021  114.2146   16.0930 N   0  0  0  0  0  4  0  0  0  0  0  0
   63.1757  113.7824   15.8049 C   0  0  2  0  0  0  0  0  0  0  0  0
   62.1666  114.6536   16.4966 C   0  0  0  0  0  0  0  0  0  0  0  0
   62.5754  115.6829   17.1230 O   0  0  0  0  0  0  0  0  0  0  0  0
   63.0148  112.3348   16.2771 C   0  0  0  0  0  0  0  0  0  0  0  0
   63.9944  111.4456   15.5849 C   0  0  0  0  0  0  0  0  0  0  0  0
   64.6027  110.5670   16.2466 O   0  0  0  0  0  0  0  0  0  0  0  0
   64.2221  111.5895   14.2506 O   0  0  0  0  0  0  0  0  0  0  0  0
   60.7902  114.3674   16.4715 N   0  0  0  0  0  0  0  0  0  0  0  0
   59.7391  115.2093   15.9934 C   0  0  2  0  0  0  0  0  0  0  0  0
   58.3829  114.6357   16.1749 C   0  0  0  0  0  0  0  0  0  0  0  0
   57.3997  115.3796   15.9390 O   0  0  0  0  0  0  0  0  0  0  0  0
   59.9925  115.5675   14.5452 C   0  0  0  0  0  0  0  0  0  0  0  0
   60.5011  116.9488   14.4869 C   0  0  0  0  0  0  0  0  0  0  0  0
   60.6877  117.6951   15.6392 O   0  0  0  0  0  0  0  0  0  0  0  0
   60.7719  117.4661   13.3870 O   0  0  0  0  0  0  0  0  0  0  0  0
   58.1151  113.3100   16.5987 N   0  0  0  0  0  0  0  0  0  0  0  0
   56.7594  112.8257   16.8016 C   0  0  2  0  0  0  0  0  0  0  0  0
   55.8884  113.8429   17.4360 C   0  0  0  0  0  0  0  0  0  0  0  0
   56.1529  115.0436   17.2456 O   0  0  0  0  0  0  0  0  0  0  0  0
   56.7498  111.5208   17.5724 C   0  0  0  0  0  0  0  0  0  0  0  0
   57.5690  110.4562   17.0035 C   0  0  0  0  0  0  0  0  0  0  0  0
   57.2977  109.1531   17.3612 C   0  0  0  0  0  0  0  0  0  0  0  0
   58.5883  110.7198   16.1279 C   0  0  0  0  0  0  0  0  0  0  0  0
   57.9977  108.0724   16.8895 C   0  0  0  0  0  0  0  0  0  0  0  0
   59.3097  109.6349   15.6394 C   0  0  0  0  0  0  0  0  0  0  0  0
   59.0397  108.3322   15.9968 C   0  0  0  0  0  0  0  0  0  0  0  0
   59.7683  107.2577   15.5011 O   0  0  0  0  0  0  0  0  0  0  0  0
   54.7771  113.5267   18.2380 N   0  0  0  0  0  0  0  0  0  0  0  0
   53.8270  114.4703   18.7944 C   0  0  2  0  0  0  0  0  0  0  0  0
   52.7803  113.7557   19.5003 C   0  0  0  0  0  0  0  0  0  0  0  0
   51.5852  113.9639   19.0288 O   0  0  0  0  0  0  0  0  0  0  0  0
   53.2638  115.3499   17.6819 C   0  0  2  0  0  0  0  0  0  0  0  0
   54.2750  116.1792   17.2476 O   0  0  0  0  0  0  0  0  0  0  0  0
   52.1313  116.2151   18.1857 C   0  0  0  0  0  0  0  0  0  0  0  0
   52.8221  112.8864   20.5920 N   0  0  0  0  0  0  0  0  0  0  0  0
   51.9808  111.7185   20.7477 C   0  0  2  0  0  0  0  0  0  0  0  0
   51.0861  111.7412   21.8980 C   0  0  0  0  0  0  0  0  0  0  0  0
   50.3501  110.7963   22.3060 O   0  0  0  0  0  0  0  0  0  0  0  0
   53.0629  110.6655   21.0415 C   0  0  0  0  0  0  0  0  0  0  0  0
   54.0432  111.4304   21.9016 C   0  0  0  0  0  0  0  0  0  0  0  0
   53.6991  112.9221   21.7186 C   0  0  0  0  0  0  0  0  0  0  0  0
   51.0238  112.9619   22.6664 N   0  0  0  0  0  0  0  0  0  0  0  0
   49.7458  113.4271   23.1756 C   0  0  2  0  0  0  0  0  0  0  0  0
   49.1683  114.4245   22.2614 C   0  0  0  0  0  0  0  0  0  0  0  0
   47.7664  114.6391   22.2737 O   0  0  0  0  0  0  0  0  0  0  0  0
   49.9753  114.1310   24.5183 C   0  0  0  0  0  0  0  0  0  0  0  0
   50.0996  113.1365   25.4844 O   0  0  0  0  0  0  0  0  0  0  0  0
   49.8373  115.1163   21.4543 O   0  0  0  0  0  0  0  0  0  0  0  0
  2  1  1  1
  2  3  1  0
  2  5  1  0
  3  4  2  0
  3  9  1  0
  5  6  1  0
  6  7  2  0
  6  8  1  0
  9 10  1  0
 10 11  1  0
 10 13  1  6
 11 12  2  0
 11 17  1  0
 13 14  1  0
 14 15  1  0
 14 16  2  0
 17 18  1  0
 18 19  1  0
 18 21  1  1
 19 20  2  0
 19 29  1  0
 21 22  1  0
 22 23  2  0
 22 24  1  0
 23 25  1  0
 24 26  2  0
 25 27  2  0
 26 27  1  0
 27 28  1  0
 30 29  1  6
 30 31  1  0
 30 33  1  0
 31 32  2  0
 31 36  1  0
 33 34  1  0
 33 35  1  1
 36 37  1  0
 36 42  1  0
 37 38  1  1
 37 40  1  0
 38 39  2  0
 38 43  1  0
 40 41  1  0
 41 42  1  0
 43 44  1  0
 44 45  1  0
 44 47  1  1
 45 46  1  0
 45 49  2  0
 47 48  1  0
M  CHG  1   1   1
M  END
$$$$
