
     RDKit          3D

 49 50  0  0  0  0  0  0  0  0999 V2000
   60.9227  118.3338   13.4665 N   0  0  0  0  0  4  0  0  0  0  0  0
   60.5495  117.7240   14.6985 C   0  0  2  0  0  0  0  0  0  0  0  0
   60.3382  116.2474   14.5227 C   0  0  0  0  0  0  0  0  0  0  0  0
   60.9506  115.6506   13.5805 O   0  0  0  0  0  0  0  0  0  0  0  0
   59.2557  118.3726   15.1983 C   0  0  0  0  0  0  0  0  0  0  0  0
   58.3965  118.7827   14.0481 C   0  0  0  0  0  0  0  0  0  0  0  0
   57.9777  119.9661   13.9837 O   0  0  0  0  0  0  0  0  0  0  0  0
   58.0737  117.8801   13.0817 O   0  0  0  0  0  0  0  0  0  0  0  0
   59.4890  115.5086   15.3653 N   0  0  0  0  0  0  0  0  0  0  0  0
   59.3662  114.0868   15.4403 C   0  0  2  0  0  0  0  0  0  0  0  0
   58.3573  113.6239   16.4246 C   0  0  0  0  0  0  0  0  0  0  0  0
   58.4644  114.0356   17.6056 O   0  0  0  0  0  0  0  0  0  0  0  0
   60.7215  113.4727   15.7157 C   0  0  0  0  0  0  0  0  0  0  0  0
   61.2971  113.0171   14.4384 C   0  0  0  0  0  0  0  0  0  0  0  0
   60.4875  112.6243   13.3849 O   0  0  0  0  0  0  0  0  0  0  0  0
   62.5331  112.9801   14.2911 O   0  0  0  0  0  0  0  0  0  0  0  0
   57.2826  112.7478   16.1308 N   0  0  0  0  0  0  0  0  0  0  0  0
   55.9140  113.0521   16.5157 C   0  0  2  0  0  0  0  0  0  0  0  0
   55.4806  112.2823   17.7055 C   0  0  0  0  0  0  0  0  0  0  0  0
   55.7491  111.0683   17.7492 O   0  0  0  0  0  0  0  0  0  0  0  0
   54.9604  112.8688   15.3521 C   0  0  0  0  0  0  0  0  0  0  0  0
   53.7159  112.1776   15.6705 C   0  0  0  0  0  0  0  0  0  0  0  0
   53.4943  111.7854   16.9731 C   0  0  0  0  0  0  0  0  0  0  0  0
   52.7709  111.9162   14.7146 C   0  0  0  0  0  0  0  0  0  0  0  0
   52.3630  111.1323   17.3898 C   0  0  0  0  0  0  0  0  0  0  0  0
   51.6164  111.2537   15.1196 C   0  0  0  0  0  0  0  0  0  0  0  0
   51.3943  110.8606   16.4212 C   0  0  0  0  0  0  0  0  0  0  0  0
   50.2363  110.1995   16.8122 O   0  0  0  0  0  0  0  0  0  0  0  0
   54.7863  112.8484   18.7897 N   0  0  0  0  0  0  0  0  0  0  0  0
   54.4671  112.1878   20.0405 C   0  0  2  0  0  0  0  0  0  0  0  0
   53.6674  113.0681   20.8713 C   0  0  0  0  0  0  0  0  0  0  0  0
   54.3656  113.8276   21.6647 O   0  0  0  0  0  0  0  0  0  0  0  0
   55.7544  111.7607   20.7399 C   0  0  2  0  0  0  0  0  0  0  0  0
   56.6560  112.7973   20.6330 O   0  0  0  0  0  0  0  0  0  0  0  0
   56.3597  110.5425   20.0805 C   0  0  0  0  0  0  0  0  0  0  0  0
   52.2868  113.2481   20.9741 N   0  0  0  0  0  0  0  0  0  0  0  0
   51.5635  114.3880   20.4513 C   0  0  2  0  0  0  0  0  0  0  0  0
   50.8755  115.2017   21.4457 C   0  0  0  0  0  0  0  0  0  0  0  0
   50.0415  116.1270   21.2242 O   0  0  0  0  0  0  0  0  0  0  0  0
   50.4794  113.6514   19.6463 C   0  0  0  0  0  0  0  0  0  0  0  0
   50.1621  112.4648   20.5281 C   0  0  0  0  0  0  0  0  0  0  0  0
   51.3190  112.3647   21.5424 C   0  0  0  0  0  0  0  0  0  0  0  0
   51.1615  114.9341   22.8354 N   0  0  0  0  0  0  0  0  0  0  0  0
   50.9759  115.9826   23.8229 C   0  0  2  0  0  0  0  0  0  0  0  0
   52.2363  116.2339   24.5387 C   0  0  0  0  0  0  0  0  0  0  0  0
   53.3159  116.8335   23.8412 O   0  0  0  0  0  0  0  0  0  0  0  0
   49.9574  115.5054   24.8649 C   0  0  0  0  0  0  0  0  0  0  0  0
   48.7264  115.4158   24.2211 O   0  0  0  0  0  0  0  0  0  0  0  0
   52.4326  115.9528   25.7470 O   0  0  0  0  0  0  0  0  0  0  0  0
  2  1  1  6
  2  3  1  0
  2  5  1  0
  3  4  2  0
  3  9  1  0
  5  6  1  0
  6  7  2  0
  6  8  1  0
  9 10  1  0
 10 11  1  0
 10 13  1  1
 11 12  2  0
 11 17  1  0
 13 14  1  0
 14 15  1  0
 14 16  2  0
 17 18  1  0
 18 19  1  0
 18 21  1  6
 19 20  2  0
 19 29  1  0
 21 22  1  0
 22 23  2  0
 22 24  1  0
 23 25  1  0
 24 26  2  0
 25 27  2  0
 26 27  1  0
 27 28  1  0
 30 29  1  6
 30 31  1  0
 30 33  1  0
 31 32  2  0
 31 36  1  0
 33 34  1  0
 33 35  1  6
 36 37  1  0
 36 42  1  0
 37 38  1  1
 37 40  1  0
 38 39  2  0
 38 43  1  0
 40 41  1  0
 41 42  1  0
 43 44  1  0
 44 45  1  0
 44 47  1  1
 45 46  1  0
 45 49  2  0
 47 48  1  0
M  CHG  1   1   1
M  END
$$$$
