
     RDKit          3D

 49 50  0  0  0  0  0  0  0  0999 V2000
   62.5466  114.9216   12.7237 N   0  0  0  0  0  4  0  0  0  0  0  0
   61.3914  115.6067   13.1983 C   0  0  2  0  0  0  0  0  0  0  0  0
   60.7806  114.8826   14.3639 C   0  0  0  0  0  0  0  0  0  0  0  0
   60.6929  113.6141   14.3170 O   0  0  0  0  0  0  0  0  0  0  0  0
   60.3713  115.7015   12.0603 C   0  0  0  0  0  0  0  0  0  0  0  0
   60.8496  116.6430   11.0048 C   0  0  0  0  0  0  0  0  0  0  0  0
   60.3615  117.7998   10.9446 O   0  0  0  0  0  0  0  0  0  0  0  0
   61.8051  116.2474   10.1196 O   0  0  0  0  0  0  0  0  0  0  0  0
   60.3063  115.5617   15.5001 N   0  0  0  0  0  0  0  0  0  0  0  0
   59.7032  114.9892   16.6623 C   0  0  2  0  0  0  0  0  0  0  0  0
   58.3407  114.4515   16.4267 C   0  0  0  0  0  0  0  0  0  0  0  0
   57.9581  114.3358   15.2368 O   0  0  0  0  0  0  0  0  0  0  0  0
   59.7053  116.0009   17.7876 C   0  0  0  0  0  0  0  0  0  0  0  0
   59.3834  115.3034   19.0446 C   0  0  0  0  0  0  0  0  0  0  0  0
   59.1861  113.9324   19.0754 O   0  0  0  0  0  0  0  0  0  0  0  0
   59.2842  115.9476   20.1057 O   0  0  0  0  0  0  0  0  0  0  0  0
   57.4370  114.0617   17.4466 N   0  0  0  0  0  0  0  0  0  0  0  0
   56.0878  113.6096   17.1482 C   0  0  2  0  0  0  0  0  0  0  0  0
   55.2823  113.3977   18.3739 C   0  0  0  0  0  0  0  0  0  0  0  0
   54.0685  113.6676   18.3327 O   0  0  0  0  0  0  0  0  0  0  0  0
   56.1019  112.3767   16.2670 C   0  0  0  0  0  0  0  0  0  0  0  0
   54.8102  111.7212   16.0934 C   0  0  0  0  0  0  0  0  0  0  0  0
   53.7744  112.4422   15.5395 C   0  0  0  0  0  0  0  0  0  0  0  0
   54.6075  110.4178   16.4610 C   0  0  0  0  0  0  0  0  0  0  0  0
   52.5197  111.9316   15.3264 C   0  0  0  0  0  0  0  0  0  0  0  0
   53.3400  109.8833   16.2522 C   0  0  0  0  0  0  0  0  0  0  0  0
   52.3037  110.6032   15.6994 C   0  0  0  0  0  0  0  0  0  0  0  0
   51.0423  110.0569   15.4963 O   0  0  0  0  0  0  0  0  0  0  0  0
   55.8126  112.9046   19.5796 N   0  0  0  0  0  0  0  0  0  0  0  0
   55.0839  112.7069   20.8175 C   0  0  2  0  0  0  0  0  0  0  0  0
   53.6673  112.9257   20.5945 C   0  0  0  0  0  0  0  0  0  0  0  0
   53.4043  113.7380   19.6123 O   0  0  0  0  0  0  0  0  0  0  0  0
   55.6393  113.6337   21.8951 C   0  0  2  0  0  0  0  0  0  0  0  0
   56.9811  113.3553   22.0398 O   0  0  0  0  0  0  0  0  0  0  0  0
   54.9644  113.3948   23.2265 C   0  0  0  0  0  0  0  0  0  0  0  0
   52.5364  112.4238   21.2413 N   0  0  0  0  0  0  0  0  0  0  0  0
   51.1750  112.8166   20.9440 C   0  0  2  0  0  0  0  0  0  0  0  0
   50.4562  113.4577   22.0379 C   0  0  0  0  0  0  0  0  0  0  0  0
   49.2385  113.8014   22.0477 O   0  0  0  0  0  0  0  0  0  0  0  0
   50.5479  111.4257   20.7492 C   0  0  0  0  0  0  0  0  0  0  0  0
   51.2417  110.5992   21.8082 C   0  0  0  0  0  0  0  0  0  0  0  0
   52.4690  111.4191   22.2542 C   0  0  0  0  0  0  0  0  0  0  0  0
   51.1959  113.7337   23.2467 N   0  0  0  0  0  0  0  0  0  0  0  0
   50.8176  114.8612   24.0802 C   0  0  2  0  0  0  0  0  0  0  0  0
   51.6555  116.0284   23.7651 C   0  0  0  0  0  0  0  0  0  0  0  0
   51.2842  116.8709   22.6862 O   0  0  0  0  0  0  0  0  0  0  0  0
   51.0836  114.5025   25.5470 C   0  0  0  0  0  0  0  0  0  0  0  0
   52.4281  114.1552   25.6448 O   0  0  0  0  0  0  0  0  0  0  0  0
   52.6965  116.3430   24.3933 O   0  0  0  0  0  0  0  0  0  0  0  0
  2  1  1  6
  2  3  1  0
  2  5  1  0
  3  4  2  0
  3  9  1  0
  5  6  1  0
  6  7  2  0
  6  8  1  0
  9 10  1  0
 10 11  1  0
 10 13  1  1
 11 12  2  0
 11 17  1  0
 13 14  1  0
 14 15  1  0
 14 16  2  0
 17 18  1  0
 18 19  1  0
 18 21  1  1
 19 20  2  0
 19 29  1  0
 21 22  1  0
 22 23  2  0
 22 24  1  0
 23 25  1  0
 24 26  2  0
 25 27  2  0
 26 27  1  0
 27 28  1  0
 30 29  1  6
 30 31  1  0
 30 33  1  0
 31 32  2  0
 31 36  1  0
 33 34  1  0
 33 35  1  1
 36 37  1  0
 36 42  1  0
 37 38  1  1
 37 40  1  0
 38 39  2  0
 38 43  1  0
 40 41  1  0
 41 42  1  0
 43 44  1  0
 44 45  1  0
 44 47  1  1
 45 46  1  0
 45 49  2  0
 47 48  1  0
M  CHG  1   1   1
M  END
$$$$
