
     RDKit          3D

 49 50  0  0  0  0  0  0  0  0999 V2000
   61.9513  116.8654   13.8935 N   0  0  0  0  0  4  0  0  0  0  0  0
   60.6462  116.8636   14.4641 C   0  0  2  0  0  0  0  0  0  0  0  0
   60.1592  115.4597   14.6826 C   0  0  0  0  0  0  0  0  0  0  0  0
   60.7129  114.5136   14.0365 O   0  0  0  0  0  0  0  0  0  0  0  0
   59.6924  117.5971   13.5171 C   0  0  0  0  0  0  0  0  0  0  0  0
   58.3438  117.7433   14.1411 C   0  0  0  0  0  0  0  0  0  0  0  0
   58.1468  117.2867   15.2955 O   0  0  0  0  0  0  0  0  0  0  0  0
   57.3417  118.3661   13.4622 O   0  0  0  0  0  0  0  0  0  0  0  0
   59.1156  115.1614   15.5764 N   0  0  0  0  0  0  0  0  0  0  0  0
   58.8495  113.9084   16.2100 C   0  0  2  0  0  0  0  0  0  0  0  0
   57.5872  113.8877   16.9894 C   0  0  0  0  0  0  0  0  0  0  0  0
   57.4204  114.7846   17.8516 O   0  0  0  0  0  0  0  0  0  0  0  0
   60.0300  113.5118   17.0696 C   0  0  0  0  0  0  0  0  0  0  0  0
   60.0915  114.4199   18.2280 C   0  0  0  0  0  0  0  0  0  0  0  0
   59.2168  115.4871   18.3516 O   0  0  0  0  0  0  0  0  0  0  0  0
   60.9414  114.2347   19.1191 O   0  0  0  0  0  0  0  0  0  0  0  0
   56.5564  112.9273   16.8347 N   0  0  0  0  0  0  0  0  0  0  0  0
   55.3658  112.9346   17.6691 C   0  0  2  0  0  0  0  0  0  0  0  0
   55.6440  112.4720   19.0491 C   0  0  0  0  0  0  0  0  0  0  0  0
   56.2268  111.3828   19.1970 O   0  0  0  0  0  0  0  0  0  0  0  0
   54.2401  112.1462   17.0302 C   0  0  0  0  0  0  0  0  0  0  0  0
   53.7133  112.7069   15.7907 C   0  0  0  0  0  0  0  0  0  0  0  0
   52.6430  113.5724   15.8614 C   0  0  0  0  0  0  0  0  0  0  0  0
   54.2556  112.3987   14.5717 C   0  0  0  0  0  0  0  0  0  0  0  0
   52.0665  114.1615   14.7656 C   0  0  0  0  0  0  0  0  0  0  0  0
   53.6828  112.9873   13.4487 C   0  0  0  0  0  0  0  0  0  0  0  0
   52.6126  113.8519   13.5181 C   0  0  0  0  0  0  0  0  0  0  0  0
   52.0500  114.4330   12.3881 O   0  0  0  0  0  0  0  0  0  0  0  0
   55.2895  113.1973   20.2008 N   0  0  0  0  0  0  0  0  0  0  0  0
   55.1761  112.6666   21.5454 C   0  0  2  0  0  0  0  0  0  0  0  0
   53.9433  111.9128   21.6741 C   0  0  0  0  0  0  0  0  0  0  0  0
   53.4641  111.4828   20.5430 O   0  0  0  0  0  0  0  0  0  0  0  0
   55.2533  113.8067   22.5568 C   0  0  2  0  0  0  0  0  0  0  0  0
   54.3682  114.7846   22.1578 O   0  0  0  0  0  0  0  0  0  0  0  0
   56.6371  114.4139   22.5957 C   0  0  0  0  0  0  0  0  0  0  0  0
   53.1786  111.5654   22.7893 N   0  0  0  0  0  0  0  0  0  0  0  0
   51.7542  111.3080   22.7637 C   0  0  2  0  0  0  0  0  0  0  0  0
   50.9403  112.2152   23.5631 C   0  0  0  0  0  0  0  0  0  0  0  0
   49.9073  111.9193   24.2311 O   0  0  0  0  0  0  0  0  0  0  0  0
   51.7318  109.9428   23.4720 C   0  0  0  0  0  0  0  0  0  0  0  0
   52.7955  110.1042   24.5342 C   0  0  0  0  0  0  0  0  0  0  0  0
   53.6187  111.3437   24.1299 C   0  0  0  0  0  0  0  0  0  0  0  0
   51.3436  113.6006   23.6116 N   0  0  0  0  0  0  0  0  0  0  0  0
   50.6196  114.5314   24.4593 C   0  0  2  0  0  0  0  0  0  0  0  0
   50.6400  115.8778   23.8671 C   0  0  0  0  0  0  0  0  0  0  0  0
   50.2820  116.9892   24.6722 O   0  0  0  0  0  0  0  0  0  0  0  0
   51.3351  114.6270   25.8120 C   0  0  0  0  0  0  0  0  0  0  0  0
   50.9873  113.4917   26.5387 O   0  0  0  0  0  0  0  0  0  0  0  0
   50.9584  116.1232   22.6772 O   0  0  0  0  0  0  0  0  0  0  0  0
  2  1  1  6
  2  3  1  0
  2  5  1  0
  3  4  2  0
  3  9  1  0
  5  6  1  0
  6  7  2  0
  6  8  1  0
  9 10  1  0
 10 11  1  0
 10 13  1  1
 11 12  2  0
 11 17  1  0
 13 14  1  0
 14 15  1  0
 14 16  2  0
 17 18  1  0
 18 19  1  0
 18 21  1  6
 19 20  2  0
 19 29  1  0
 21 22  1  0
 22 23  2  0
 22 24  1  0
 23 25  1  0
 24 26  2  0
 25 27  2  0
 26 27  1  0
 27 28  1  0
 30 29  1  6
 30 31  1  0
 30 33  1  0
 31 32  2  0
 31 36  1  0
 33 34  1  0
 33 35  1  6
 36 37  1  0
 36 42  1  0
 37 38  1  1
 37 40  1  0
 38 39  2  0
 38 43  1  0
 40 41  1  0
 41 42  1  0
 43 44  1  0
 44 45  1  0
 44 47  1  1
 45 46  1  0
 45 49  2  0
 47 48  1  0
M  CHG  1   1   1
M  END
$$$$
