
     RDKit          3D

 23 24  0  0  0  0  0  0  0  0999 V2000
   -7.4128  -34.0165  -15.6139 C   0  0  1  0  0  0  0  0  0  0  0  0
   -8.0468  -35.2498  -15.0202 C   0  0  1  0  0  0  0  0  0  0  0  0
   -7.7709  -36.4881  -15.8274 C   0  0  2  0  0  0  0  0  0  0  0  0
   -6.3065  -36.6476  -16.1612 C   0  0  1  0  0  0  0  0  0  0  0  0
   -5.5938  -35.3411  -16.0199 C   0  0  1  0  0  0  0  0  0  0  0  0
   -4.2708  -35.3981  -16.7175 C   0  0  0  0  0  0  0  0  0  0  0  0
   -6.9272  -33.1496  -14.6560 O   0  0  0  0  0  0  0  0  0  0  0  0
   -7.6260  -35.4810  -13.7143 O   0  0  0  0  0  0  0  0  0  0  0  0
   -8.5600  -36.4871  -16.9748 O   0  0  0  0  0  0  0  0  0  0  0  0
   -5.6732  -37.5973  -15.3858 O   0  0  0  0  0  0  0  0  0  0  0  0
   -6.4125  -34.3434  -16.5396 O   0  0  0  0  0  0  0  0  0  0  0  0
   -4.3687  -35.5785  -18.0790 O   0  0  0  0  0  0  0  0  0  0  0  0
   -7.3587  -29.1376  -14.5052 C   0  0  1  0  0  0  0  0  0  0  0  0
   -8.5013  -29.9144  -13.8944 C   0  0  1  0  0  0  0  0  0  0  0  0
   -8.2681  -31.3951  -13.9167 C   0  0  2  0  0  0  0  0  0  0  0  0
   -7.2305  -31.8026  -14.9423 C   0  0  1  0  0  0  0  0  0  0  0  0
   -6.0200  -30.9319  -14.9456 C   0  0  1  0  0  0  0  0  0  0  0  0
   -5.5617  -30.5850  -16.3627 C   0  0  0  0  0  0  0  0  0  0  0  0
   -7.3411  -27.8622  -13.9159 O   0  0  0  0  0  0  0  0  0  0  0  0
   -8.5828  -29.5269  -12.5495 O   0  0  0  0  0  0  0  0  0  0  0  0
   -9.4633  -32.0478  -14.2809 O   0  0  0  0  0  0  0  0  0  0  0  0
   -6.1626  -29.7494  -14.2231 O   0  0  0  0  0  0  0  0  0  0  0  0
   -6.3356  -31.3050  -17.2704 O   0  0  0  0  0  0  0  0  0  0  0  0
  1  2  1  0
  1  7  1  1
  1 11  1  0
  2  3  1  0
  2  8  1  1
  3  4  1  0
  3  9  1  6
  5  4  1  0
  4 10  1  1
  5  6  1  6
 11  5  1  0
  6 12  1  0
 16  7  1  1
 13 14  1  0
 13 19  1  1
 22 13  1  0
 15 14  1  0
 14 20  1  1
 16 15  1  0
 15 21  1  6
 17 16  1  0
 17 18  1  6
 17 22  1  0
 23 18  1  0
M  END
$$$$
