
     RDKit          3D

 23 24  0  0  0  0  0  0  0  0999 V2000
   -7.3476  -32.6499  -14.2101 C   0  0  1  0  0  0  0  0  0  0  0  0
   -8.3027  -31.7700  -13.4425 C   0  0  1  0  0  0  0  0  0  0  0  0
   -7.7220  -30.4180  -13.1327 C   0  0  2  0  0  0  0  0  0  0  0  0
   -7.1147  -29.7563  -14.3470 C   0  0  1  0  0  0  0  0  0  0  0  0
   -6.8292  -30.7716  -15.4065 C   0  0  1  0  0  0  0  0  0  0  0  0
   -5.8849  -30.2060  -16.4207 C   0  0  0  0  0  0  0  0  0  0  0  0
   -7.9802  -33.4277  -15.1587 O   0  0  0  0  0  0  0  0  0  0  0  0
   -9.5036  -31.5813  -14.1192 O   0  0  0  0  0  0  0  0  0  0  0  0
   -6.7996  -30.5287  -12.0953 O   0  0  0  0  0  0  0  0  0  0  0  0
   -7.9081  -28.7585  -14.8753 O   0  0  0  0  0  0  0  0  0  0  0  0
   -6.3108  -31.9060  -14.7899 O   0  0  0  0  0  0  0  0  0  0  0  0
   -4.6300  -29.9377  -15.9216 O   0  0  0  0  0  0  0  0  0  0  0  0
   -6.5879  -36.7803  -16.9268 C   0  0  1  0  0  0  0  0  0  0  0  0
   -7.2036  -36.9992  -15.5648 C   0  0  1  0  0  0  0  0  0  0  0  0
   -7.7622  -35.7389  -14.9758 C   0  0  2  0  0  0  0  0  0  0  0  0
   -7.1746  -34.4941  -15.6081 C   0  0  1  0  0  0  0  0  0  0  0  0
   -7.0926  -34.5616  -17.0955 C   0  0  1  0  0  0  0  0  0  0  0  0
   -5.7635  -34.0224  -17.6259 C   0  0  0  0  0  0  0  0  0  0  0  0
   -6.6693  -37.9905  -17.6360 O   0  0  0  0  0  0  0  0  0  0  0  0
   -8.2751  -37.8859  -15.7411 O   0  0  0  0  0  0  0  0  0  0  0  0
   -7.4333  -35.6810  -13.6063 O   0  0  0  0  0  0  0  0  0  0  0  0
   -7.2979  -35.8344  -17.6236 O   0  0  0  0  0  0  0  0  0  0  0  0
   -5.9040  -33.7483  -18.9847 O   0  0  0  0  0  0  0  0  0  0  0  0
  1  2  1  0
  1  7  1  6
  1 11  1  0
  2  3  1  0
  2  8  1  6
  3  4  1  0
  3  9  1  1
  5  4  1  0
  4 10  1  6
  5  6  1  6
 11  5  1  0
  6 12  1  0
 16  7  1  6
 13 14  1  0
 13 19  1  6
 22 13  1  0
 15 14  1  0
 14 20  1  6
 16 15  1  0
 15 21  1  1
 17 16  1  0
 17 18  1  1
 17 22  1  0
 23 18  1  0
M  END
$$$$
