
     RDKit          3D

 23 24  0  0  0  0  0  0  0  0999 V2000
   -7.5329  -34.4599  -15.4546 C   0  0  1  0  0  0  0  0  0  0  0  0
   -7.6118  -35.4688  -14.3359 C   0  0  1  0  0  0  0  0  0  0  0  0
   -7.5461  -36.8873  -14.8303 C   0  0  2  0  0  0  0  0  0  0  0  0
   -6.3990  -37.1151  -15.7861 C   0  0  1  0  0  0  0  0  0  0  0  0
   -5.9228  -35.8147  -16.3490 C   0  0  1  0  0  0  0  0  0  0  0  0
   -5.0839  -36.0561  -17.5649 C   0  0  0  0  0  0  0  0  0  0  0  0
   -6.8055  -33.3376  -15.1137 O   0  0  0  0  0  0  0  0  0  0  0  0
   -6.6028  -35.2906  -13.3946 O   0  0  0  0  0  0  0  0  0  0  0  0
   -8.7656  -37.2437  -15.4005 O   0  0  0  0  0  0  0  0  0  0  0  0
   -5.3350  -37.7778  -15.2091 O   0  0  0  0  0  0  0  0  0  0  0  0
   -7.0376  -35.0325  -16.6340 O   0  0  0  0  0  0  0  0  0  0  0  0
   -5.8082  -36.4390  -18.6715 O   0  0  0  0  0  0  0  0  0  0  0  0
   -7.7147  -29.4803  -15.8881 C   0  0  1  0  0  0  0  0  0  0  0  0
   -8.4072  -30.0564  -14.6753 C   0  0  1  0  0  0  0  0  0  0  0  0
   -7.9913  -31.4683  -14.3910 C   0  0  2  0  0  0  0  0  0  0  0  0
   -7.3856  -32.1485  -15.6014 C   0  0  1  0  0  0  0  0  0  0  0  0
   -6.4093  -31.2964  -16.3391 C   0  0  1  0  0  0  0  0  0  0  0  0
   -6.5909  -31.3893  -17.8546 C   0  0  0  0  0  0  0  0  0  0  0  0
   -7.6530  -28.0859  -15.7272 O   0  0  0  0  0  0  0  0  0  0  0  0
   -8.0156  -29.2787  -13.5765 O   0  0  0  0  0  0  0  0  0  0  0  0
   -9.1274  -32.2247  -14.0383 O   0  0  0  0  0  0  0  0  0  0  0  0
   -6.4286  -29.9528  -15.9711 O   0  0  0  0  0  0  0  0  0  0  0  0
   -6.2596  -32.6788  -18.2652 O   0  0  0  0  0  0  0  0  0  0  0  0
  1  2  1  0
  1  7  1  1
  1 11  1  0
  2  3  1  0
  2  8  1  1
  3  4  1  0
  3  9  1  6
  5  4  1  0
  4 10  1  1
  5  6  1  6
 11  5  1  0
  6 12  1  0
 16  7  1  1
 13 14  1  0
 13 19  1  1
 22 13  1  0
 15 14  1  0
 14 20  1  1
 16 15  1  0
 15 21  1  6
 17 16  1  0
 17 18  1  6
 17 22  1  0
 23 18  1  0
M  END
$$$$
