
     RDKit          3D

 23 24  0  0  0  0  0  0  0  0999 V2000
   -7.5910  -32.9881  -14.2807 C   0  0  1  0  0  0  0  0  0  0  0  0
   -8.1055  -31.5846  -14.0777 C   0  0  1  0  0  0  0  0  0  0  0  0
   -7.3205  -30.8244  -13.0447 C   0  0  2  0  0  0  0  0  0  0  0  0
   -5.8298  -30.9075  -13.2731 C   0  0  1  0  0  0  0  0  0  0  0  0
   -5.5009  -32.0698  -14.1539 C   0  0  1  0  0  0  0  0  0  0  0  0
   -4.0422  -32.3916  -14.0585 C   0  0  0  0  0  0  0  0  0  0  0  0
   -7.6459  -33.3934  -15.5990 O   0  0  0  0  0  0  0  0  0  0  0  0
   -8.0992  -30.8462  -15.2569 O   0  0  0  0  0  0  0  0  0  0  0  0
   -7.6683  -31.2660  -11.7707 O   0  0  0  0  0  0  0  0  0  0  0  0
   -5.2996  -29.7573  -13.8210 O   0  0  0  0  0  0  0  0  0  0  0  0
   -6.2962  -33.1440  -13.7675 O   0  0  0  0  0  0  0  0  0  0  0  0
   -3.6510  -32.8300  -12.8133 O   0  0  0  0  0  0  0  0  0  0  0  0
   -7.0593  -37.1070  -17.0721 C   0  0  1  0  0  0  0  0  0  0  0  0
   -8.5100  -36.7257  -16.8923 C   0  0  1  0  0  0  0  0  0  0  0  0
   -8.6795  -35.3185  -16.4038 C   0  0  2  0  0  0  0  0  0  0  0  0
   -7.4254  -34.7780  -15.7485 C   0  0  1  0  0  0  0  0  0  0  0  0
   -6.1775  -35.0799  -16.5070 C   0  0  1  0  0  0  0  0  0  0  0  0
   -5.0382  -35.5276  -15.5904 C   0  0  0  0  0  0  0  0  0  0  0  0
   -6.9953  -38.1051  -18.0588 O   0  0  0  0  0  0  0  0  0  0  0  0
   -9.1095  -36.8013  -18.1574 O   0  0  0  0  0  0  0  0  0  0  0  0
   -9.6868  -35.2876  -15.4181 O   0  0  0  0  0  0  0  0  0  0  0  0
   -6.3351  -36.0284  -17.5152 O   0  0  0  0  0  0  0  0  0  0  0  0
   -4.3830  -36.6032  -16.1863 O   0  0  0  0  0  0  0  0  0  0  0  0
  1  2  1  0
  1  7  1  6
  1 11  1  0
  2  3  1  0
  2  8  1  6
  3  4  1  0
  3  9  1  1
  5  4  1  0
  4 10  1  6
  5  6  1  1
 11  5  1  0
  6 12  1  0
 16  7  1  6
 13 14  1  0
 13 19  1  6
 22 13  1  0
 15 14  1  0
 14 20  1  6
 16 15  1  0
 15 21  1  1
 17 16  1  0
 17 18  1  1
 17 22  1  0
 23 18  1  0
M  END
$$$$
