
     RDKit          3D

 23 24  0  0  0  0  0  0  0  0999 V2000
   -7.4606  -33.6230  -14.7320 C   0  0  1  0  0  0  0  0  0  0  0  0
   -7.3061  -34.3819  -13.4374 C   0  0  1  0  0  0  0  0  0  0  0  0
   -7.2468  -35.8703  -13.6428 C   0  0  2  0  0  0  0  0  0  0  0  0
   -6.2578  -36.2685  -14.7127 C   0  0  1  0  0  0  0  0  0  0  0  0
   -5.9466  -35.1029  -15.5954 C   0  0  1  0  0  0  0  0  0  0  0  0
   -5.3024  -35.5735  -16.8619 C   0  0  0  0  0  0  0  0  0  0  0  0
   -6.7474  -32.4414  -14.7488 O   0  0  0  0  0  0  0  0  0  0  0  0
   -6.1697  -33.9958  -12.7337 O   0  0  0  0  0  0  0  0  0  0  0  0
   -8.5217  -36.3584  -13.9175 O   0  0  0  0  0  0  0  0  0  0  0  0
   -5.0818  -36.7789  -14.2020 O   0  0  0  0  0  0  0  0  0  0  0  0
   -7.1319  -34.4165  -15.8395 O   0  0  0  0  0  0  0  0  0  0  0  0
   -6.1667  -36.2194  -17.7172 O   0  0  0  0  0  0  0  0  0  0  0  0
   -7.7298  -28.9831  -16.5872 C   0  0  1  0  0  0  0  0  0  0  0  0
   -8.2849  -29.1300  -15.1899 C   0  0  1  0  0  0  0  0  0  0  0  0
   -7.8426  -30.3987  -14.5248 C   0  0  2  0  0  0  0  0  0  0  0  0
   -7.3758  -31.4416  -15.5193 C   0  0  1  0  0  0  0  0  0  0  0  0
   -6.4855  -30.8956  -16.5837 C   0  0  1  0  0  0  0  0  0  0  0  0
   -6.8339  -31.4464  -17.9671 C   0  0  0  0  0  0  0  0  0  0  0  0
   -7.6481  -27.6105  -16.8762 O   0  0  0  0  0  0  0  0  0  0  0  0
   -7.7727  -28.0651  -14.4354 O   0  0  0  0  0  0  0  0  0  0  0  0
   -8.9340  -30.9671  -13.8372 O   0  0  0  0  0  0  0  0  0  0  0  0
   -6.4616  -29.5043  -16.6528 O   0  0  0  0  0  0  0  0  0  0  0  0
   -5.6503  -31.7311  -18.6447 O   0  0  0  0  0  0  0  0  0  0  0  0
  1  2  1  0
  1  7  1  1
  1 11  1  0
  2  3  1  0
  2  8  1  6
  3  4  1  0
  3  9  1  6
  5  4  1  0
  4 10  1  1
  5  6  1  6
 11  5  1  0
  6 12  1  0
 16  7  1  1
 13 14  1  0
 13 19  1  1
 22 13  1  0
 15 14  1  0
 14 20  1  1
 16 15  1  0
 15 21  1  6
 17 16  1  0
 17 18  1  6
 17 22  1  0
 23 18  1  0
M  END
$$$$
