
     RDKit          3D

 23 24  0  0  0  0  0  0  0  0999 V2000
   -7.8184  -34.1997  -15.6468 C   0  0  1  0  0  0  0  0  0  0  0  0
   -8.7079  -35.4069  -15.4826 C   0  0  1  0  0  0  0  0  0  0  0  0
   -8.2708  -36.5676  -16.3327 C   0  0  2  0  0  0  0  0  0  0  0  0
   -6.7965  -36.8648  -16.1935 C   0  0  1  0  0  0  0  0  0  0  0  0
   -6.0760  -35.6803  -15.6346 C   0  0  1  0  0  0  0  0  0  0  0  0
   -4.6035  -35.8170  -15.8657 C   0  0  0  0  0  0  0  0  0  0  0  0
   -7.6204  -33.5153  -14.4647 O   0  0  0  0  0  0  0  0  0  0  0  0
   -8.7721  -35.8373  -14.1611 O   0  0  0  0  0  0  0  0  0  0  0  0
   -8.6232  -36.3376  -17.6601 O   0  0  0  0  0  0  0  0  0  0  0  0
   -6.5371  -37.9680  -15.4062 O   0  0  0  0  0  0  0  0  0  0  0  0
   -6.5921  -34.5367  -16.2360 O   0  0  0  0  0  0  0  0  0  0  0  0
   -4.2819  -36.3574  -17.0906 O   0  0  0  0  0  0  0  0  0  0  0  0
   -6.5203  -29.6594  -13.9886 C   0  0  1  0  0  0  0  0  0  0  0  0
   -8.0123  -29.8942  -13.9566 C   0  0  1  0  0  0  0  0  0  0  0  0
   -8.3696  -31.3454  -14.0737 C   0  0  2  0  0  0  0  0  0  0  0  0
   -7.2503  -32.1709  -14.6738 C   0  0  1  0  0  0  0  0  0  0  0  0
   -5.9063  -31.8534  -14.1112 C   0  0  1  0  0  0  0  0  0  0  0  0
   -4.8306  -31.7722  -15.1952 C   0  0  0  0  0  0  0  0  0  0  0  0
   -6.2554  -28.4741  -13.2822 O   0  0  0  0  0  0  0  0  0  0  0  0
   -8.4658  -29.4544  -12.7050 O   0  0  0  0  0  0  0  0  0  0  0  0
   -9.4726  -31.4833  -14.9406 O   0  0  0  0  0  0  0  0  0  0  0  0
   -5.8634  -30.6844  -13.3546 O   0  0  0  0  0  0  0  0  0  0  0  0
   -3.5796  -31.7616  -14.5819 O   0  0  0  0  0  0  0  0  0  0  0  0
  1  2  1  0
  1  7  1  1
  1 11  1  0
  2  3  1  0
  2  8  1  1
  3  4  1  0
  3  9  1  6
  5  4  1  0
  4 10  1  1
  5  6  1  6
 11  5  1  0
  6 12  1  0
 16  7  1  1
 13 14  1  0
 13 19  1  1
 22 13  1  0
 15 14  1  0
 14 20  1  1
 16 15  1  0
 15 21  1  6
 17 16  1  0
 17 18  1  6
 17 22  1  0
 23 18  1  0
M  END
$$$$
