
     RDKit          3D

 23 24  0  0  0  0  0  0  0  0999 V2000
   -7.5243  -34.1664  -15.7070 C   0  0  1  0  0  0  0  0  0  0  0  0
   -8.3476  -35.3540  -15.2740 C   0  0  1  0  0  0  0  0  0  0  0  0
   -8.0601  -36.5851  -16.0880 C   0  0  2  0  0  0  0  0  0  0  0  0
   -6.5814  -36.8699  -16.2052 C   0  0  1  0  0  0  0  0  0  0  0  0
   -5.7874  -35.6413  -15.8971 C   0  0  1  0  0  0  0  0  0  0  0  0
   -4.3829  -35.7987  -16.3898 C   0  0  0  0  0  0  0  0  0  0  0  0
   -7.1180  -33.3811  -14.6472 O   0  0  0  0  0  0  0  0  0  0  0  0
   -8.1546  -35.6668  -13.9321 O   0  0  0  0  0  0  0  0  0  0  0  0
   -8.6600  -36.4722  -17.3396 O   0  0  0  0  0  0  0  0  0  0  0  0
   -6.1606  -37.8999  -15.3890 O   0  0  0  0  0  0  0  0  0  0  0  0
   -6.4259  -34.5546  -16.4863 O   0  0  0  0  0  0  0  0  0  0  0  0
   -4.2797  -35.8599  -17.7615 O   0  0  0  0  0  0  0  0  0  0  0  0
   -6.9882  -29.3497  -14.4576 C   0  0  1  0  0  0  0  0  0  0  0  0
   -8.2851  -29.9584  -13.9784 C   0  0  1  0  0  0  0  0  0  0  0  0
   -8.2635  -31.4571  -14.0078 C   0  0  2  0  0  0  0  0  0  0  0  0
   -7.1966  -32.0028  -14.9344 C   0  0  1  0  0  0  0  0  0  0  0  0
   -5.8805  -31.3146  -14.8006 C   0  0  1  0  0  0  0  0  0  0  0  0
   -5.2376  -31.0282  -16.1583 C   0  0  0  0  0  0  0  0  0  0  0  0
   -6.8490  -28.0937  -13.8434 O   0  0  0  0  0  0  0  0  0  0  0  0
   -8.4454  -29.5715  -12.6404 O   0  0  0  0  0  0  0  0  0  0  0  0
   -9.4966  -31.9294  -14.5014 O   0  0  0  0  0  0  0  0  0  0  0  0
   -5.9257  -30.1283  -14.0716 O   0  0  0  0  0  0  0  0  0  0  0  0
   -5.9546  -30.0115  -16.7855 O   0  0  0  0  0  0  0  0  0  0  0  0
  1  2  1  0
  1  7  1  1
  1 11  1  0
  2  3  1  0
  2  8  1  1
  3  4  1  0
  3  9  1  6
  5  4  1  0
  4 10  1  1
  5  6  1  6
 11  5  1  0
  6 12  1  0
 16  7  1  1
 13 14  1  0
 13 19  1  1
 22 13  1  0
 15 14  1  0
 14 20  1  1
 16 15  1  0
 15 21  1  6
 17 16  1  0
 17 18  1  6
 17 22  1  0
 23 18  1  0
M  END
$$$$
