
     RDKit          3D

 23 24  0  0  0  0  0  0  0  0999 V2000
   -6.7147  -33.4612  -16.4856 C   0  0  1  0  0  0  0  0  0  0  0  0
   -7.3983  -34.1338  -17.6501 C   0  0  1  0  0  0  0  0  0  0  0  0
   -6.5417  -35.1892  -18.2929 C   0  0  2  0  0  0  0  0  0  0  0  0
   -5.9516  -36.1485  -17.2866 C   0  0  1  0  0  0  0  0  0  0  0  0
   -5.9781  -35.5498  -15.9171 C   0  0  1  0  0  0  0  0  0  0  0  0
   -5.0562  -36.3013  -15.0085 C   0  0  0  0  0  0  0  0  0  0  0  0
   -7.5805  -33.1716  -15.4505 O   0  0  0  0  0  0  0  0  0  0  0  0
   -8.6062  -34.7194  -17.2842 O   0  0  0  0  0  0  0  0  0  0  0  0
   -5.5527  -34.5859  -19.0657 O   0  0  0  0  0  0  0  0  0  0  0  0
   -6.5921  -37.3705  -17.2612 O   0  0  0  0  0  0  0  0  0  0  0  0
   -5.6227  -34.2089  -16.0243 O   0  0  0  0  0  0  0  0  0  0  0  0
   -3.7329  -35.9457  -15.1431 O   0  0  0  0  0  0  0  0  0  0  0  0
   -7.7268  -29.7536  -13.3055 C   0  0  1  0  0  0  0  0  0  0  0  0
   -8.1712  -29.6116  -14.7423 C   0  0  1  0  0  0  0  0  0  0  0  0
   -8.1601  -30.9164  -15.4804 C   0  0  2  0  0  0  0  0  0  0  0  0
   -7.2748  -31.9502  -14.8156 C   0  0  1  0  0  0  0  0  0  0  0  0
   -7.4426  -32.0172  -13.3354 C   0  0  1  0  0  0  0  0  0  0  0  0
   -6.1030  -32.1304  -12.6066 C   0  0  0  0  0  0  0  0  0  0  0  0
   -8.3302  -28.7239  -12.5641 O   0  0  0  0  0  0  0  0  0  0  0  0
   -9.4987  -29.1616  -14.7142 O   0  0  0  0  0  0  0  0  0  0  0  0
   -7.6328  -30.7146  -16.7720 O   0  0  0  0  0  0  0  0  0  0  0  0
   -8.1558  -30.9516  -12.7907 O   0  0  0  0  0  0  0  0  0  0  0  0
   -6.1681  -33.2015  -11.7178 O   0  0  0  0  0  0  0  0  0  0  0  0
  1  2  1  0
  1  7  1  1
  1 11  1  0
  2  3  1  0
  2  8  1  1
  3  4  1  0
  3  9  1  1
  5  4  1  0
  4 10  1  1
  5  6  1  1
 11  5  1  0
  6 12  1  0
 16  7  1  6
 13 14  1  0
 13 19  1  1
 22 13  1  0
 15 14  1  0
 14 20  1  1
 16 15  1  0
 15 21  1  6
 17 16  1  0
 17 18  1  1
 17 22  1  0
 23 18  1  0
M  END
$$$$
