
     RDKit          3D

 23 24  0  0  0  0  0  0  0  0999 V2000
   -7.6121  -33.8131  -14.9428 C   0  0  1  0  0  0  0  0  0  0  0  0
   -7.7516  -34.9244  -13.9323 C   0  0  1  0  0  0  0  0  0  0  0  0
   -7.5993  -36.2881  -14.5473 C   0  0  2  0  0  0  0  0  0  0  0  0
   -6.3697  -36.3971  -15.4175 C   0  0  1  0  0  0  0  0  0  0  0  0
   -5.8901  -35.0383  -15.8157 C   0  0  1  0  0  0  0  0  0  0  0  0
   -4.9453  -35.1439  -16.9717 C   0  0  0  0  0  0  0  0  0  0  0  0
   -6.9520  -32.7106  -14.4390 O   0  0  0  0  0  0  0  0  0  0  0  0
   -6.8310  -34.8112  -12.8953 O   0  0  0  0  0  0  0  0  0  0  0  0
   -8.7548  -36.6187  -15.2507 O   0  0  0  0  0  0  0  0  0  0  0  0
   -5.3369  -37.0852  -14.8142 O   0  0  0  0  0  0  0  0  0  0  0  0
   -7.0018  -34.2600  -16.1227 O   0  0  0  0  0  0  0  0  0  0  0  0
   -5.4649  -35.8197  -18.0530 O   0  0  0  0  0  0  0  0  0  0  0  0
   -7.7077  -28.8159  -15.1911 C   0  0  1  0  0  0  0  0  0  0  0  0
   -8.3206  -29.3380  -13.9129 C   0  0  1  0  0  0  0  0  0  0  0  0
   -7.9613  -30.7684  -13.6441 C   0  0  2  0  0  0  0  0  0  0  0  0
   -7.5054  -31.4954  -14.8923 C   0  0  1  0  0  0  0  0  0  0  0  0
   -6.5522  -30.7090  -15.7269 C   0  0  1  0  0  0  0  0  0  0  0  0
   -6.8733  -30.8075  -17.2188 C   0  0  0  0  0  0  0  0  0  0  0  0
   -7.5533  -27.4257  -15.0585 O   0  0  0  0  0  0  0  0  0  0  0  0
   -7.7894  -28.5724  -12.8654 O   0  0  0  0  0  0  0  0  0  0  0  0
   -9.1023  -31.4543  -13.1803 O   0  0  0  0  0  0  0  0  0  0  0  0
   -6.4628  -29.3626  -15.3800 O   0  0  0  0  0  0  0  0  0  0  0  0
   -5.7624  -30.3804  -17.9431 O   0  0  0  0  0  0  0  0  0  0  0  0
  1  2  1  0
  1  7  1  1
  1 11  1  0
  2  3  1  0
  2  8  1  1
  3  4  1  0
  3  9  1  6
  5  4  1  0
  4 10  1  1
  5  6  1  6
 11  5  1  0
  6 12  1  0
 16  7  1  1
 13 14  1  0
 13 19  1  1
 22 13  1  0
 15 14  1  0
 14 20  1  1
 16 15  1  0
 15 21  1  6
 17 16  1  0
 17 18  1  6
 17 22  1  0
 23 18  1  0
M  END
$$$$
