
     RDKit          3D

 23 24  0  0  0  0  0  0  0  0999 V2000
   -7.4192  -32.6557  -14.3359 C   0  0  1  0  0  0  0  0  0  0  0  0
   -8.2456  -31.4616  -13.9278 C   0  0  1  0  0  0  0  0  0  0  0  0
   -7.4931  -30.5156  -13.0335 C   0  0  2  0  0  0  0  0  0  0  0  0
   -6.1293  -30.1639  -13.5789 C   0  0  1  0  0  0  0  0  0  0  0  0
   -5.6953  -31.1753  -14.5906 C   0  0  1  0  0  0  0  0  0  0  0  0
   -4.2222  -31.0641  -14.8309 C   0  0  0  0  0  0  0  0  0  0  0  0
   -7.6530  -33.0494  -15.6380 O   0  0  0  0  0  0  0  0  0  0  0  0
   -8.7103  -30.7435  -15.0252 O   0  0  0  0  0  0  0  0  0  0  0  0
   -7.4089  -31.0485  -11.7497 O   0  0  0  0  0  0  0  0  0  0  0  0
   -6.0780  -28.9056  -14.1429 O   0  0  0  0  0  0  0  0  0  0  0  0
   -6.0515  -32.4361  -14.1222 O   0  0  0  0  0  0  0  0  0  0  0  0
   -3.4569  -31.3256  -13.7166 O   0  0  0  0  0  0  0  0  0  0  0  0
   -6.9843  -36.6796  -17.2749 C   0  0  1  0  0  0  0  0  0  0  0  0
   -8.2838  -36.5651  -16.5130 C   0  0  1  0  0  0  0  0  0  0  0  0
   -8.5181  -35.1845  -15.9779 C   0  0  2  0  0  0  0  0  0  0  0  0
   -7.2410  -34.3753  -15.8842 C   0  0  1  0  0  0  0  0  0  0  0  0
   -6.3717  -34.4895  -17.0904 C   0  0  1  0  0  0  0  0  0  0  0  0
   -4.8956  -34.6523  -16.7254 C   0  0  0  0  0  0  0  0  0  0  0  0
   -7.1262  -37.7133  -18.2158 O   0  0  0  0  0  0  0  0  0  0  0  0
   -9.3140  -36.8380  -17.4239 O   0  0  0  0  0  0  0  0  0  0  0  0
   -9.0271  -35.2752  -14.6664 O   0  0  0  0  0  0  0  0  0  0  0  0
   -6.7301  -35.5174  -17.9598 O   0  0  0  0  0  0  0  0  0  0  0  0
   -4.6809  -35.9652  -16.3113 O   0  0  0  0  0  0  0  0  0  0  0  0
  1  2  1  0
  1  7  1  6
  1 11  1  0
  2  3  1  0
  2  8  1  6
  3  4  1  0
  3  9  1  1
  5  4  1  0
  4 10  1  6
  5  6  1  1
 11  5  1  0
  6 12  1  0
 16  7  1  6
 13 14  1  0
 13 19  1  6
 22 13  1  0
 15 14  1  0
 14 20  1  6
 16 15  1  0
 15 21  1  1
 17 16  1  0
 17 18  1  1
 17 22  1  0
 23 18  1  0
M  END
$$$$
