
     RDKit          3D

 23 24  0  0  0  0  0  0  0  0999 V2000
   -7.1706  -32.8316  -14.3638 C   0  0  1  0  0  0  0  0  0  0  0  0
   -8.1467  -32.0668  -13.5047 C   0  0  1  0  0  0  0  0  0  0  0  0
   -7.6949  -30.6595  -13.2282 C   0  0  2  0  0  0  0  0  0  0  0  0
   -7.2734  -29.9296  -14.4815 C   0  0  1  0  0  0  0  0  0  0  0  0
   -6.9707  -30.9027  -15.5752 C   0  0  1  0  0  0  0  0  0  0  0  0
   -6.1875  -30.2313  -16.6597 C   0  0  0  0  0  0  0  0  0  0  0  0
   -7.7935  -33.6717  -15.2644 O   0  0  0  0  0  0  0  0  0  0  0  0
   -9.4157  -32.0110  -14.0723 O   0  0  0  0  0  0  0  0  0  0  0  0
   -6.6787  -30.6702  -12.2761 O   0  0  0  0  0  0  0  0  0  0  0  0
   -8.2159  -29.0248  -14.9257 O   0  0  0  0  0  0  0  0  0  0  0  0
   -6.2776  -31.9744  -15.0211 O   0  0  0  0  0  0  0  0  0  0  0  0
   -4.9469  -29.7906  -16.2566 O   0  0  0  0  0  0  0  0  0  0  0  0
   -6.1977  -36.8391  -17.1947 C   0  0  1  0  0  0  0  0  0  0  0  0
   -6.6721  -37.1342  -15.7911 C   0  0  1  0  0  0  0  0  0  0  0  0
   -7.3132  -35.9468  -15.1382 C   0  0  2  0  0  0  0  0  0  0  0  0
   -6.9173  -34.6406  -15.7952 C   0  0  1  0  0  0  0  0  0  0  0  0
   -6.9510  -34.6873  -17.2852 C   0  0  1  0  0  0  0  0  0  0  0  0
   -5.7359  -34.0025  -17.9124 C   0  0  0  0  0  0  0  0  0  0  0  0
   -6.2061  -38.0455  -17.9149 O   0  0  0  0  0  0  0  0  0  0  0  0
   -7.6526  -38.1309  -15.8950 O   0  0  0  0  0  0  0  0  0  0  0  0
   -6.8809  -35.8639  -13.7989 O   0  0  0  0  0  0  0  0  0  0  0  0
   -7.0605  -35.9707  -17.8160 O   0  0  0  0  0  0  0  0  0  0  0  0
   -6.0133  -33.7421  -19.2527 O   0  0  0  0  0  0  0  0  0  0  0  0
  1  2  1  0
  1  7  1  6
  1 11  1  0
  2  3  1  0
  2  8  1  6
  3  4  1  0
  3  9  1  1
  5  4  1  0
  4 10  1  6
  5  6  1  6
 11  5  1  0
  6 12  1  0
 16  7  1  1
 13 14  1  0
 13 19  1  6
 22 13  1  0
 15 14  1  0
 14 20  1  6
 16 15  1  0
 15 21  1  1
 17 16  1  0
 17 18  1  6
 17 22  1  0
 23 18  1  0
M  END
$$$$
