
     RDKit          3D

 23 24  0  0  0  0  0  0  0  0999 V2000
   -7.5279  -32.9011  -14.1587 C   0  0  1  0  0  0  0  0  0  0  0  0
   -8.0990  -31.5300  -13.8955 C   0  0  1  0  0  0  0  0  0  0  0  0
   -7.3361  -30.7782  -12.8401 C   0  0  2  0  0  0  0  0  0  0  0  0
   -5.8457  -30.7887  -13.0847 C   0  0  1  0  0  0  0  0  0  0  0  0
   -5.4772  -31.9003  -14.0138 C   0  0  1  0  0  0  0  0  0  0  0  0
   -4.0054  -32.1632  -13.9441 C   0  0  0  0  0  0  0  0  0  0  0  0
   -7.5794  -33.2562  -15.4915 O   0  0  0  0  0  0  0  0  0  0  0  0
   -8.1363  -30.7462  -15.0444 O   0  0  0  0  0  0  0  0  0  0  0  0
   -7.6515  -31.2840  -11.5815 O   0  0  0  0  0  0  0  0  0  0  0  0
   -5.3702  -29.5963  -13.5910 O   0  0  0  0  0  0  0  0  0  0  0  0
   -6.2224  -33.0218  -13.6634 O   0  0  0  0  0  0  0  0  0  0  0  0
   -3.6515  -33.0876  -12.9870 O   0  0  0  0  0  0  0  0  0  0  0  0
   -7.3721  -36.9669  -17.0704 C   0  0  1  0  0  0  0  0  0  0  0  0
   -8.7554  -36.5496  -16.6292 C   0  0  1  0  0  0  0  0  0  0  0  0
   -8.7946  -35.1442  -16.1090 C   0  0  2  0  0  0  0  0  0  0  0  0
   -7.4283  -34.6444  -15.6873 C   0  0  1  0  0  0  0  0  0  0  0  0
   -6.3466  -34.9703  -16.6606 C   0  0  1  0  0  0  0  0  0  0  0  0
   -5.0737  -35.4584  -15.9678 C   0  0  0  0  0  0  0  0  0  0  0  0
   -7.5150  -37.9550  -18.0590 O   0  0  0  0  0  0  0  0  0  0  0  0
   -9.5751  -36.5949  -17.7657 O   0  0  0  0  0  0  0  0  0  0  0  0
   -9.6064  -35.0980  -14.9574 O   0  0  0  0  0  0  0  0  0  0  0  0
   -6.7098  -35.9027  -17.6300 O   0  0  0  0  0  0  0  0  0  0  0  0
   -4.0236  -35.4151  -16.8824 O   0  0  0  0  0  0  0  0  0  0  0  0
  1  2  1  0
  1  7  1  6
  1 11  1  0
  2  3  1  0
  2  8  1  6
  3  4  1  0
  3  9  1  1
  5  4  1  0
  4 10  1  6
  5  6  1  1
 11  5  1  0
  6 12  1  0
 16  7  1  6
 13 14  1  0
 13 19  1  6
 22 13  1  0
 15 14  1  0
 14 20  1  6
 16 15  1  0
 15 21  1  1
 17 16  1  0
 17 18  1  1
 17 22  1  0
 23 18  1  0
M  END
$$$$
