
     RDKit          3D

 23 24  0  0  0  0  0  0  0  0999 V2000
   -7.6130  -33.6616  -14.8799 C   0  0  1  0  0  0  0  0  0  0  0  0
   -7.5088  -34.8897  -14.0101 C   0  0  1  0  0  0  0  0  0  0  0  0
   -7.4200  -36.1597  -14.8103 C   0  0  2  0  0  0  0  0  0  0  0  0
   -6.3769  -36.0859  -15.9001 C   0  0  1  0  0  0  0  0  0  0  0  0
   -6.0405  -34.6616  -16.2048 C   0  0  1  0  0  0  0  0  0  0  0  0
   -5.3317  -34.5698  -17.5199 C   0  0  0  0  0  0  0  0  0  0  0  0
   -6.9156  -32.5844  -14.3716 O   0  0  0  0  0  0  0  0  0  0  0  0
   -6.4118  -34.8380  -13.1559 O   0  0  0  0  0  0  0  0  0  0  0  0
   -8.6741  -36.4811  -15.3234 O   0  0  0  0  0  0  0  0  0  0  0  0
   -5.2193  -36.7704  -15.5909 O   0  0  0  0  0  0  0  0  0  0  0  0
   -7.2223  -33.9273  -16.1994 O   0  0  0  0  0  0  0  0  0  0  0  0
   -6.1285  -34.8702  -18.6019 O   0  0  0  0  0  0  0  0  0  0  0  0
   -7.6165  -28.6621  -15.0267 C   0  0  1  0  0  0  0  0  0  0  0  0
   -8.4877  -29.2853  -13.9614 C   0  0  1  0  0  0  0  0  0  0  0  0
   -8.1490  -30.7237  -13.7091 C   0  0  2  0  0  0  0  0  0  0  0  0
   -7.3929  -31.3515  -14.8618 C   0  0  1  0  0  0  0  0  0  0  0  0
   -6.3022  -30.4893  -15.4007 C   0  0  1  0  0  0  0  0  0  0  0  0
   -6.2682  -30.4885  -16.9295 C   0  0  0  0  0  0  0  0  0  0  0  0
   -7.5463  -27.2819  -14.7730 O   0  0  0  0  0  0  0  0  0  0  0  0
   -8.2389  -28.5852  -12.7725 O   0  0  0  0  0  0  0  0  0  0  0  0
   -9.3408  -31.4631  -13.5672 O   0  0  0  0  0  0  0  0  0  0  0  0
   -6.3428  -29.1693  -14.9568 O   0  0  0  0  0  0  0  0  0  0  0  0
   -7.3663  -29.7713  -17.3995 O   0  0  0  0  0  0  0  0  0  0  0  0
  1  2  1  0
  1  7  1  1
  1 11  1  0
  2  3  1  0
  2  8  1  6
  3  4  1  0
  3  9  1  6
  5  4  1  0
  4 10  1  1
  5  6  1  6
 11  5  1  0
  6 12  1  0
 16  7  1  1
 13 14  1  0
 13 19  1  1
 22 13  1  0
 15 14  1  0
 14 20  1  1
 16 15  1  0
 15 21  1  6
 17 16  1  0
 17 18  1  6
 17 22  1  0
 23 18  1  0
M  END
$$$$
