
     RDKit          3D

 23 24  0  0  0  0  0  0  0  0999 V2000
   -7.3644  -33.9130  -16.0293 C   0  0  1  0  0  0  0  0  0  0  0  0
   -8.3057  -34.9803  -16.5297 C   0  0  1  0  0  0  0  0  0  0  0  0
   -7.6007  -36.0518  -17.3144 C   0  0  2  0  0  0  0  0  0  0  0  0
   -6.3844  -36.5892  -16.5980 C   0  0  1  0  0  0  0  0  0  0  0  0
   -5.9307  -35.6276  -15.5471 C   0  0  1  0  0  0  0  0  0  0  0  0
   -4.5329  -35.9519  -15.1214 C   0  0  0  0  0  0  0  0  0  0  0  0
   -7.6953  -33.4542  -14.7703 O   0  0  0  0  0  0  0  0  0  0  0  0
   -9.0066  -35.5911  -15.4946 O   0  0  0  0  0  0  0  0  0  0  0  0
   -7.2779  -35.5719  -18.5812 O   0  0  0  0  0  0  0  0  0  0  0  0
   -6.5954  -37.8255  -16.0226 O   0  0  0  0  0  0  0  0  0  0  0  0
   -6.0303  -34.3407  -16.0664 O   0  0  0  0  0  0  0  0  0  0  0  0
   -3.5990  -35.8006  -16.1218 O   0  0  0  0  0  0  0  0  0  0  0  0
   -7.0198  -29.7821  -13.2327 C   0  0  1  0  0  0  0  0  0  0  0  0
   -8.2233  -29.8695  -14.1415 C   0  0  1  0  0  0  0  0  0  0  0  0
   -8.4709  -31.2626  -14.6371 C   0  0  2  0  0  0  0  0  0  0  0  0
   -7.2403  -32.1401  -14.5368 C   0  0  1  0  0  0  0  0  0  0  0  0
   -6.5161  -32.0074  -13.2401 C   0  0  1  0  0  0  0  0  0  0  0  0
   -5.0001  -31.9401  -13.4292 C   0  0  0  0  0  0  0  0  0  0  0  0
   -7.2134  -28.6944  -12.3646 O   0  0  0  0  0  0  0  0  0  0  0  0
   -9.3376  -29.4966  -13.3767 O   0  0  0  0  0  0  0  0  0  0  0  0
   -8.8137  -31.2149  -16.0036 O   0  0  0  0  0  0  0  0  0  0  0  0
   -6.9162  -30.9181  -12.4692 O   0  0  0  0  0  0  0  0  0  0  0  0
   -4.3937  -31.9453  -12.1749 O   0  0  0  0  0  0  0  0  0  0  0  0
  1  2  1  0
  1  7  1  1
  1 11  1  0
  2  3  1  0
  2  8  1  1
  3  4  1  0
  3  9  1  6
  5  4  1  0
  4 10  1  1
  5  6  1  6
 11  5  1  0
  6 12  1  0
 16  7  1  1
 13 14  1  0
 13 19  1  1
 22 13  1  0
 15 14  1  0
 14 20  1  1
 16 15  1  0
 15 21  1  6
 17 16  1  0
 17 18  1  6
 17 22  1  0
 23 18  1  0
M  END
$$$$
