
     RDKit          3D

 23 24  0  0  0  0  0  0  0  0999 V2000
   -7.1877  -33.4113  -14.5702 C   0  0  1  0  0  0  0  0  0  0  0  0
   -7.1189  -33.4920  -13.0654 C   0  0  1  0  0  0  0  0  0  0  0  0
   -7.1615  -34.9072  -12.5593 C   0  0  2  0  0  0  0  0  0  0  0  0
   -6.1783  -35.8066  -13.2704 C   0  0  1  0  0  0  0  0  0  0  0  0
   -5.7634  -35.2000  -14.5722 C   0  0  1  0  0  0  0  0  0  0  0  0
   -5.1246  -36.2363  -15.4429 C   0  0  0  0  0  0  0  0  0  0  0  0
   -6.3914  -32.4110  -15.0901 O   0  0  0  0  0  0  0  0  0  0  0  0
   -5.9749  -32.8843  -12.5577 O   0  0  0  0  0  0  0  0  0  0  0  0
   -8.4612  -35.3993  -12.6472 O   0  0  0  0  0  0  0  0  0  0  0  0
   -5.0545  -36.0838  -12.5191 O   0  0  0  0  0  0  0  0  0  0  0  0
   -6.8904  -34.6433  -15.1686 O   0  0  0  0  0  0  0  0  0  0  0  0
   -5.9138  -37.3441  -15.6572 O   0  0  0  0  0  0  0  0  0  0  0  0
   -6.7614  -30.5727  -18.6662 C   0  0  1  0  0  0  0  0  0  0  0  0
   -7.6646  -30.0278  -17.5848 C   0  0  1  0  0  0  0  0  0  0  0  0
   -7.4474  -30.6976  -16.2613 C   0  0  2  0  0  0  0  0  0  0  0  0
   -6.7687  -32.0448  -16.3985 C   0  0  1  0  0  0  0  0  0  0  0  0
   -5.6169  -32.0396  -17.3456 C   0  0  1  0  0  0  0  0  0  0  0  0
   -5.6097  -33.2703  -18.2532 C   0  0  0  0  0  0  0  0  0  0  0  0
   -6.5676  -29.5573  -19.6179 O   0  0  0  0  0  0  0  0  0  0  0  0
   -7.3355  -28.6745  -17.4244 O   0  0  0  0  0  0  0  0  0  0  0  0
   -8.6961  -30.9427  -15.6547 O   0  0  0  0  0  0  0  0  0  0  0  0
   -5.5354  -30.8997  -18.1425 O   0  0  0  0  0  0  0  0  0  0  0  0
   -6.7008  -33.1943  -19.1162 O   0  0  0  0  0  0  0  0  0  0  0  0
  1  2  1  0
  1  7  1  6
  1 11  1  0
  2  3  1  0
  2  8  1  6
  3  4  1  0
  3  9  1  6
  5  4  1  0
  4 10  1  1
  5  6  1  6
 11  5  1  0
  6 12  1  0
 16  7  1  1
 13 14  1  0
 13 19  1  6
 22 13  1  0
 15 14  1  0
 14 20  1  1
 16 15  1  0
 15 21  1  6
 17 16  1  0
 17 18  1  6
 17 22  1  0
 23 18  1  0
M  END
$$$$
