
     RDKit          3D

 23 24  0  0  0  0  0  0  0  0999 V2000
   -7.6213  -33.3046  -14.3194 C   0  0  1  0  0  0  0  0  0  0  0  0
   -7.3021  -34.2043  -13.1514 C   0  0  1  0  0  0  0  0  0  0  0  0
   -7.1855  -35.6497  -13.5493 C   0  0  2  0  0  0  0  0  0  0  0  0
   -6.2858  -35.8503  -14.7458 C   0  0  1  0  0  0  0  0  0  0  0  0
   -6.1233  -34.5683  -15.4972 C   0  0  1  0  0  0  0  0  0  0  0  0
   -5.5818  -34.8387  -16.8661 C   0  0  0  0  0  0  0  0  0  0  0  0
   -6.9758  -32.0867  -14.2497 O   0  0  0  0  0  0  0  0  0  0  0  0
   -6.1244  -33.8350  -12.5093 O   0  0  0  0  0  0  0  0  0  0  0  0
   -8.4539  -36.1812  -13.7680 O   0  0  0  0  0  0  0  0  0  0  0  0
   -5.0407  -36.3430  -14.4123 O   0  0  0  0  0  0  0  0  0  0  0  0
   -7.3610  -33.9345  -15.5441 O   0  0  0  0  0  0  0  0  0  0  0  0
   -6.4460  -35.5410  -17.6759 O   0  0  0  0  0  0  0  0  0  0  0  0
   -7.7663  -28.7395  -16.3655 C   0  0  1  0  0  0  0  0  0  0  0  0
   -8.4232  -28.7917  -15.0061 C   0  0  1  0  0  0  0  0  0  0  0  0
   -8.0508  -30.0211  -14.2332 C   0  0  2  0  0  0  0  0  0  0  0  0
   -7.5305  -31.1299  -15.1245 C   0  0  1  0  0  0  0  0  0  0  0  0
   -6.5569  -30.6625  -16.1527 C   0  0  1  0  0  0  0  0  0  0  0  0
   -6.8135  -31.2951  -17.5211 C   0  0  0  0  0  0  0  0  0  0  0  0
   -7.6416  -27.3889  -16.7322 O   0  0  0  0  0  0  0  0  0  0  0  0
   -7.9496  -27.6875  -14.2835 O   0  0  0  0  0  0  0  0  0  0  0  0
   -9.1982  -30.5323  -13.5933 O   0  0  0  0  0  0  0  0  0  0  0  0
   -6.5054  -29.2787  -16.3058 O   0  0  0  0  0  0  0  0  0  0  0  0
   -6.5948  -30.3331  -18.5050 O   0  0  0  0  0  0  0  0  0  0  0  0
  1  2  1  0
  1  7  1  1
  1 11  1  0
  2  3  1  0
  2  8  1  6
  3  4  1  0
  3  9  1  6
  5  4  1  0
  4 10  1  1
  5  6  1  6
 11  5  1  0
  6 12  1  0
 16  7  1  1
 13 14  1  0
 13 19  1  1
 22 13  1  0
 15 14  1  0
 14 20  1  1
 16 15  1  0
 15 21  1  6
 17 16  1  0
 17 18  1  6
 17 22  1  0
 23 18  1  0
M  END
$$$$
