
     RDKit          3D

 23 24  0  0  0  0  0  0  0  0999 V2000
   -7.4776  -33.3543  -14.9308 C   0  0  1  0  0  0  0  0  0  0  0  0
   -7.5675  -33.9020  -13.5281 C   0  0  1  0  0  0  0  0  0  0  0  0
   -7.8063  -35.3863  -13.5007 C   0  0  2  0  0  0  0  0  0  0  0  0
   -6.8556  -36.1427  -14.3980 C   0  0  1  0  0  0  0  0  0  0  0  0
   -6.2527  -35.2242  -15.4118 C   0  0  1  0  0  0  0  0  0  0  0  0
   -5.6411  -36.0161  -16.5249 C   0  0  0  0  0  0  0  0  0  0  0  0
   -6.5344  -32.3545  -15.0562 O   0  0  0  0  0  0  0  0  0  0  0  0
   -6.4230  -33.6332  -12.7840 O   0  0  0  0  0  0  0  0  0  0  0  0
   -9.1347  -35.6550  -13.8206 O   0  0  0  0  0  0  0  0  0  0  0  0
   -5.8468  -36.7804  -13.7053 O   0  0  0  0  0  0  0  0  0  0  0  0
   -7.2512  -34.3701  -15.8695 O   0  0  0  0  0  0  0  0  0  0  0  0
   -5.9589  -35.5465  -17.7796 O   0  0  0  0  0  0  0  0  0  0  0  0
   -6.6533  -29.1475  -17.5070 C   0  0  1  0  0  0  0  0  0  0  0  0
   -7.4474  -28.9916  -16.2313 C   0  0  1  0  0  0  0  0  0  0  0  0
   -7.3225  -30.1800  -15.3261 C   0  0  2  0  0  0  0  0  0  0  0  0
   -6.8647  -31.4226  -16.0615 C   0  0  1  0  0  0  0  0  0  0  0  0
   -5.7375  -31.1763  -17.0061 C   0  0  1  0  0  0  0  0  0  0  0  0
   -5.9336  -31.8974  -18.3403 C   0  0  0  0  0  0  0  0  0  0  0  0
   -6.3140  -27.8627  -17.9631 O   0  0  0  0  0  0  0  0  0  0  0  0
   -6.9086  -27.8915  -15.5494 O   0  0  0  0  0  0  0  0  0  0  0  0
   -8.5870  -30.4842  -14.7824 O   0  0  0  0  0  0  0  0  0  0  0  0
   -5.4877  -29.8298  -17.2616 O   0  0  0  0  0  0  0  0  0  0  0  0
   -4.6967  -32.0117  -18.9714 O   0  0  0  0  0  0  0  0  0  0  0  0
  1  2  1  0
  1  7  1  1
  1 11  1  0
  2  3  1  0
  2  8  1  1
  3  4  1  0
  3  9  1  6
  5  4  1  0
  4 10  1  1
  5  6  1  6
 11  5  1  0
  6 12  1  0
 16  7  1  1
 13 14  1  0
 13 19  1  1
 22 13  1  0
 15 14  1  0
 14 20  1  1
 16 15  1  0
 15 21  1  6
 17 16  1  0
 17 18  1  6
 17 22  1  0
 23 18  1  0
M  END
$$$$
