
     RDKit          3D

 23 24  0  0  0  0  0  0  0  0999 V2000
   -7.7297  -33.6506  -14.7094 C   0  0  1  0  0  0  0  0  0  0  0  0
   -7.6516  -34.7747  -13.7065 C   0  0  1  0  0  0  0  0  0  0  0  0
   -7.5453  -36.1255  -14.3585 C   0  0  2  0  0  0  0  0  0  0  0  0
   -6.4738  -36.1726  -15.4220 C   0  0  1  0  0  0  0  0  0  0  0  0
   -6.1258  -34.7908  -15.8737 C   0  0  1  0  0  0  0  0  0  0  0  0
   -5.3827  -34.8451  -17.1718 C   0  0  0  0  0  0  0  0  0  0  0  0
   -7.0430  -32.5235  -14.3054 O   0  0  0  0  0  0  0  0  0  0  0  0
   -6.5771  -34.6284  -12.8347 O   0  0  0  0  0  0  0  0  0  0  0  0
   -8.7864  -36.5021  -14.8656 O   0  0  0  0  0  0  0  0  0  0  0  0
   -5.3266  -36.8184  -15.0086 O   0  0  0  0  0  0  0  0  0  0  0  0
   -7.3054  -34.0607  -15.9806 O   0  0  0  0  0  0  0  0  0  0  0  0
   -6.1798  -35.1377  -18.2556 O   0  0  0  0  0  0  0  0  0  0  0  0
   -7.7315  -28.6890  -15.3674 C   0  0  1  0  0  0  0  0  0  0  0  0
   -8.4563  -29.1336  -14.1187 C   0  0  1  0  0  0  0  0  0  0  0  0
   -8.1213  -30.5418  -13.7287 C   0  0  2  0  0  0  0  0  0  0  0  0
   -7.5545  -31.3430  -14.8825 C   0  0  1  0  0  0  0  0  0  0  0  0
   -6.5310  -30.6044  -15.6766 C   0  0  1  0  0  0  0  0  0  0  0  0
   -6.7167  -30.7990  -17.1820 C   0  0  0  0  0  0  0  0  0  0  0  0
   -7.5910  -27.2923  -15.3098 O   0  0  0  0  0  0  0  0  0  0  0  0
   -8.0219  -28.3000  -13.0785 O   0  0  0  0  0  0  0  0  0  0  0  0
   -9.2987  -31.2045  -13.3264 O   0  0  0  0  0  0  0  0  0  0  0  0
   -6.4742  -29.2384  -15.4091 O   0  0  0  0  0  0  0  0  0  0  0  0
   -5.5391  -30.4287  -17.8280 O   0  0  0  0  0  0  0  0  0  0  0  0
  1  2  1  0
  1  7  1  1
  1 11  1  0
  2  3  1  0
  2  8  1  1
  3  4  1  0
  3  9  1  6
  5  4  1  0
  4 10  1  1
  5  6  1  6
 11  5  1  0
  6 12  1  0
 16  7  1  1
 13 14  1  0
 13 19  1  1
 22 13  1  0
 15 14  1  0
 14 20  1  1
 16 15  1  0
 15 21  1  6
 17 16  1  0
 17 18  1  6
 17 22  1  0
 23 18  1  0
M  END
$$$$
