
     RDKit          3D

 23 24  0  0  0  0  0  0  0  0999 V2000
   -7.6539  -32.9479  -14.3305 C   0  0  1  0  0  0  0  0  0  0  0  0
   -8.2463  -31.5670  -14.1976 C   0  0  1  0  0  0  0  0  0  0  0  0
   -7.6683  -30.7982  -13.0418 C   0  0  2  0  0  0  0  0  0  0  0  0
   -6.1583  -30.8254  -13.0252 C   0  0  1  0  0  0  0  0  0  0  0  0
   -5.6477  -31.9599  -13.8540 C   0  0  1  0  0  0  0  0  0  0  0  0
   -4.2130  -32.2325  -13.5260 C   0  0  0  0  0  0  0  0  0  0  0  0
   -7.4788  -33.3317  -15.6447 O   0  0  0  0  0  0  0  0  0  0  0  0
   -8.0760  -30.8083  -15.3514 O   0  0  0  0  0  0  0  0  0  0  0  0
   -8.2018  -31.2739  -11.8467 O   0  0  0  0  0  0  0  0  0  0  0  0
   -5.5892  -29.6481  -13.4658 O   0  0  0  0  0  0  0  0  0  0  0  0
   -6.4548  -33.0678  -13.6150 O   0  0  0  0  0  0  0  0  0  0  0  0
   -3.7171  -33.3751  -14.1128 O   0  0  0  0  0  0  0  0  0  0  0  0
   -7.5432  -37.0836  -17.1360 C   0  0  1  0  0  0  0  0  0  0  0  0
   -8.9065  -36.4994  -16.8492 C   0  0  1  0  0  0  0  0  0  0  0  0
   -8.8353  -35.0850  -16.3576 C   0  0  2  0  0  0  0  0  0  0  0  0
   -7.4708  -34.7329  -15.8023 C   0  0  1  0  0  0  0  0  0  0  0  0
   -6.3401  -35.2066  -16.6512 C   0  0  1  0  0  0  0  0  0  0  0  0
   -5.2105  -35.8174  -15.8208 C   0  0  0  0  0  0  0  0  0  0  0  0
   -7.6976  -38.0758  -18.1188 O   0  0  0  0  0  0  0  0  0  0  0  0
   -9.6048  -36.4821  -18.0648 O   0  0  0  0  0  0  0  0  0  0  0  0
   -9.7503  -34.9150  -15.2988 O   0  0  0  0  0  0  0  0  0  0  0  0
   -6.7077  -36.1177  -17.6390 O   0  0  0  0  0  0  0  0  0  0  0  0
   -4.0913  -35.9722  -16.6360 O   0  0  0  0  0  0  0  0  0  0  0  0
  1  2  1  0
  1  7  1  6
  1 11  1  0
  2  3  1  0
  2  8  1  6
  3  4  1  0
  3  9  1  1
  5  4  1  0
  4 10  1  6
  5  6  1  1
 11  5  1  0
  6 12  1  0
 16  7  1  6
 13 14  1  0
 13 19  1  6
 22 13  1  0
 15 14  1  0
 14 20  1  6
 16 15  1  0
 15 21  1  1
 17 16  1  0
 17 18  1  1
 17 22  1  0
 23 18  1  0
M  END
$$$$
