
     RDKit          3D

 69 70  0  0  0  0  0  0  0  0999 V2000
   97.3470  219.3949  320.5915 C   0  0  2  0  0  0  0  0  0  0  0  0
   96.5983  220.5539  321.2794 C   0  0  1  0  0  0  0  0  0  0  0  0
   95.5293  220.0244  322.2336 C   0  0  2  0  0  0  0  0  0  0  0  0
   96.7114  217.9060  322.4764 O   0  0  0  0  0  0  0  0  0  0  0  0
   99.1085  218.4512  322.2722 C   0  0  0  0  0  0  0  0  0  0  0  0
   80.7208  206.9354  326.0946 C   0  0  0  0  0  0  0  0  0  0  0  0
   81.9440  207.8364  326.0589 C   0  0  0  0  0  0  0  0  0  0  0  0
   82.1736  208.4179  324.6627 C   0  0  0  0  0  0  0  0  0  0  0  0
   83.4928  209.1898  324.5983 C   0  0  0  0  0  0  0  0  0  0  0  0
   83.5608  210.3577  325.5875 C   0  0  0  0  0  0  0  0  0  0  0  0
   83.8050  211.7113  324.9150 C   0  0  0  0  0  0  0  0  0  0  0  0
   84.9926  212.4720  325.5150 C   0  0  0  0  0  0  0  0  0  0  0  0
   85.4898  213.6670  324.6948 C   0  0  0  0  0  0  0  0  0  0  0  0
   86.9999  213.7008  324.4335 C   0  0  0  0  0  0  0  0  0  0  0  0
   87.7140  215.0038  324.8115 C   0  0  0  0  0  0  0  0  0  0  0  0
   87.4535  216.2005  323.8920 C   0  0  0  0  0  0  0  0  0  0  0  0
   88.6746  216.6391  323.0844 C   0  0  0  0  0  0  0  0  0  0  0  0
   89.1049  218.0615  323.4642 C   0  0  0  0  0  0  0  0  0  0  0  0
   89.2921  218.9322  322.2218 C   0  0  0  0  0  0  0  0  0  0  0  0
   90.7523  219.1277  321.7888 C   0  0  1  0  0  0  0  0  0  0  0  0
   90.7150  219.9774  320.6344 O   0  0  0  0  0  0  0  0  0  0  0  0
   91.6980  219.7368  322.8607 C   0  0  1  0  0  0  0  0  0  0  0  0
   90.8876  220.3351  323.8864 O   0  0  0  0  0  0  0  0  0  0  0  0
   92.7150  218.7255  323.4559 C   0  0  2  0  0  0  0  0  0  0  0  0
   93.9524  219.3603  324.1316 C   0  0  0  0  0  0  0  0  0  0  0  0
   95.1245  218.5196  324.0741 O   0  0  0  0  0  0  0  0  0  0  0  0
   96.1589  219.0093  323.2083 C   0  0  2  0  0  0  0  0  0  0  0  0
   94.4807  219.4133  321.4563 O   0  0  0  0  0  0  0  0  0  0  0  0
   97.4600  221.4511  321.9804 O   0  0  0  0  0  0  0  0  0  0  0  0
   97.7565  218.2666  321.5609 C   0  0  2  0  0  0  0  0  0  0  0  0
   99.4937  217.3039  323.0216 O   0  0  0  0  0  0  0  0  0  0  0  0
   98.5064  219.8779  319.8970 O   0  0  0  0  0  0  0  0  0  0  0  0
   99.0563  218.9493  318.9636 C   0  0  0  0  0  0  0  0  0  0  0  0
   98.0984  218.7708  317.8119 C   0  0  0  0  0  0  0  0  0  0  0  0
   96.7557  218.4431  318.0568 C   0  0  0  0  0  0  0  0  0  0  0  0
   95.8475  218.3098  317.0007 C   0  0  0  0  0  0  0  0  0  0  0  0
   94.2121  217.9153  317.3911 Cl  0  0  0  0  0  0  0  0  0  0  0  0
   96.2799  218.4985  315.6839 C   0  0  0  0  0  0  0  0  0  0  0  0
   95.2204  218.3584  314.3286 Cl  0  0  0  0  0  0  0  0  0  0  0  0
   97.6187  218.8151  315.4318 C   0  0  0  0  0  0  0  0  0  0  0  0
   98.5234  218.9491  316.4890 C   0  0  0  0  0  0  0  0  0  0  0  0
   93.1495  217.6848  322.5008 N   0  0  0  0  0  0  0  0  0  0  0  0
   93.1003  216.3335  322.7614 C   0  0  0  0  0  0  0  0  0  0  0  0
   92.9995  215.8647  323.8865 O   0  0  0  0  0  0  0  0  0  0  0  0
   93.2987  215.5044  321.5056 C   0  0  0  0  0  0  0  0  0  0  0  0
   91.9973  215.0387  320.8568 C   0  0  0  0  0  0  0  0  0  0  0  0
   91.6270  213.6503  321.3901 C   0  0  0  0  0  0  0  0  0  0  0  0
   91.8034  212.5164  320.3765 C   0  0  0  0  0  0  0  0  0  0  0  0
   90.7669  212.4527  319.2493 C   0  0  0  0  0  0  0  0  0  0  0  0
   89.8292  211.2478  319.3500 C   0  0  0  0  0  0  0  0  0  0  0  0
   88.3417  211.6038  319.2315 C   0  0  0  0  0  0  0  0  0  0  0  0
   87.7923  211.8082  317.8156 C   0  0  0  0  0  0  0  0  0  0  0  0
   86.2709  211.9621  317.7131 C   0  0  0  0  0  0  0  0  0  0  0  0
   85.7602  212.2390  316.3023 C   0  0  0  0  0  0  0  0  0  0  0  0
   84.3693  212.8825  316.3283 C   0  0  0  0  0  0  0  0  0  0  0  0
   84.4089  214.3938  316.0840 C   0  0  0  0  0  0  0  0  0  0  0  0
   83.4998  214.8952  314.9585 C   0  0  0  0  0  0  0  0  0  0  0  0
   83.2849  216.4103  314.9022 C   0  0  0  0  0  0  0  0  0  0  0  0
   83.8760  217.0511  313.6445 C   0  0  0  0  0  0  0  0  0  0  0  0
   82.8491  217.9310  312.9258 C   0  0  0  0  0  0  0  0  0  0  0  0
   83.0583  217.9629  311.4080 C   0  0  0  0  0  0  0  0  0  0  0  0
   83.6548  219.2902  310.9247 C   0  0  0  0  0  0  0  0  0  0  0  0
   82.6188  220.4147  310.9781 C   0  0  0  0  0  0  0  0  0  0  0  0
   83.0981  221.6553  311.7395 C   0  0  0  0  0  0  0  0  0  0  0  0
   82.3263  222.9550  311.4730 C   0  0  0  0  0  0  0  0  0  0  0  0
   82.5107  224.0106  312.5674 C   0  0  0  0  0  0  0  0  0  0  0  0
   81.2901  224.1524  313.4808 C   0  0  0  0  0  0  0  0  0  0  0  0
   81.5102  225.1300  314.6330 C   0  0  0  0  0  0  0  0  0  0  0  0
   80.2556  225.2789  315.4788 C   0  0  0  0  0  0  0  0  0  0  0  0
  2  1  1  0
 30  1  1  0
  1 32  1  1
  3  2  1  0
  2 29  1  1
 27  3  1  0
  3 28  1  6
 27  4  1  0
  4 30  1  0
 30  5  1  1
  5 31  1  0
  7  6  1  0
  8  7  1  0
  9  8  1  0
 10  9  1  0
 11 10  1  0
 12 11  1  0
 13 12  1  0
 14 13  1  0
 15 14  1  0
 16 15  1  0
 17 16  1  0
 18 17  1  0
 19 18  1  0
 20 19  1  0
 20 21  1  6
 22 20  1  0
 22 23  1  1
 24 22  1  0
 24 25  1  6
 24 42  1  0
 26 25  1  0
 27 26  1  1
 32 33  1  0
 33 34  1  0
 34 35  2  0
 34 41  1  0
 35 36  1  0
 36 37  1  0
 36 38  2  0
 38 39  1  0
 38 40  1  0
 40 41  2  0
 42 43  1  0
 43 44  2  0
 43 45  1  0
 45 46  1  0
 46 47  1  0
 47 48  1  0
 48 49  1  0
 49 50  1  0
 50 51  1  0
 51 52  1  0
 52 53  1  0
 53 54  1  0
 54 55  1  0
 55 56  1  0
 56 57  1  0
 57 58  1  0
 58 59  1  0
 59 60  1  0
 60 61  1  0
 61 62  1  0
 62 63  1  0
 63 64  1  0
 64 65  1  0
 65 66  1  0
 66 67  1  0
 67 68  1  0
 68 69  1  0
M  END
$$$$
