
     RDKit          3D

 69 70  0  0  0  0  0  0  0  0999 V2000
   93.3393  222.0615  323.4849 C   0  0  2  0  0  0  0  0  0  0  0  0
   94.7074  221.9008  322.7922 C   0  0  1  0  0  0  0  0  0  0  0  0
   94.8160  220.5407  322.1055 C   0  0  2  0  0  0  0  0  0  0  0  0
   92.3901  220.3664  321.9360 O   0  0  0  0  0  0  0  0  0  0  0  0
   91.5715  222.6775  321.6644 C   0  0  0  0  0  0  0  0  0  0  0  0
   81.2485  206.8674  325.6135 C   0  0  0  0  0  0  0  0  0  0  0  0
   82.6719  206.6131  326.0808 C   0  0  0  0  0  0  0  0  0  0  0  0
   83.3232  207.8881  326.6196 C   0  0  0  0  0  0  0  0  0  0  0  0
   84.7515  207.6172  327.0961 C   0  0  0  0  0  0  0  0  0  0  0  0
   85.7760  208.6089  326.5357 C   0  0  0  0  0  0  0  0  0  0  0  0
   87.1882  208.4033  327.0901 C   0  0  0  0  0  0  0  0  0  0  0  0
   88.1880  209.4490  326.5838 C   0  0  0  0  0  0  0  0  0  0  0  0
   88.7615  209.1878  325.1871 C   0  0  0  0  0  0  0  0  0  0  0  0
   89.8556  210.1613  324.7345 C   0  0  0  0  0  0  0  0  0  0  0  0
   90.5670  209.8040  323.4242 C   0  0  0  0  0  0  0  0  0  0  0  0
   91.7300  210.7166  323.0240 C   0  0  0  0  0  0  0  0  0  0  0  0
   91.3402  211.8257  322.0475 C   0  0  0  0  0  0  0  0  0  0  0  0
   92.3658  212.9659  322.0701 C   0  0  0  0  0  0  0  0  0  0  0  0
   92.0132  214.0463  321.0477 C   0  0  0  0  0  0  0  0  0  0  0  0
   93.2223  214.7409  320.4048 C   0  0  1  0  0  0  0  0  0  0  0  0
   93.1076  214.5144  318.9936 O   0  0  0  0  0  0  0  0  0  0  0  0
   93.3531  216.2637  320.6848 C   0  0  1  0  0  0  0  0  0  0  0  0
   94.6415  216.6971  320.2171 O   0  0  0  0  0  0  0  0  0  0  0  0
   92.2090  217.1198  320.0768 C   0  0  2  0  0  0  0  0  0  0  0  0
   92.5575  218.6074  319.8404 C   0  0  0  0  0  0  0  0  0  0  0  0
   93.7308  219.0376  320.5632 O   0  0  0  0  0  0  0  0  0  0  0  0
   93.6054  220.3299  321.1744 C   0  0  2  0  0  0  0  0  0  0  0  0
   94.8738  219.5171  323.1184 O   0  0  0  0  0  0  0  0  0  0  0  0
   94.9924  222.9345  321.8493 O   0  0  0  0  0  0  0  0  0  0  0  0
   92.1509  221.6108  322.6102 C   0  0  2  0  0  0  0  0  0  0  0  0
   91.6657  222.3033  320.2943 O   0  0  0  0  0  0  0  0  0  0  0  0
   93.1386  223.4181  323.9084 O   0  0  0  0  0  0  0  0  0  0  0  0
   93.8910  223.7859  325.0637 C   0  0  0  0  0  0  0  0  0  0  0  0
   93.7213  225.2623  325.3224 C   0  0  0  0  0  0  0  0  0  0  0  0
   92.4492  225.8501  325.2411 C   0  0  0  0  0  0  0  0  0  0  0  0
   92.2709  227.2108  325.5138 C   0  0  0  0  0  0  0  0  0  0  0  0
   90.6708  227.8509  325.4011 Cl  0  0  0  0  0  0  0  0  0  0  0  0
   93.3713  227.9994  325.8658 C   0  0  0  0  0  0  0  0  0  0  0  0
   93.2325  229.6823  326.2232 Cl  0  0  0  0  0  0  0  0  0  0  0  0
   94.6434  227.4226  325.9387 C   0  0  0  0  0  0  0  0  0  0  0  0
   94.8182  226.0626  325.6672 C   0  0  0  0  0  0  0  0  0  0  0  0
   90.9326  217.0197  320.8150 N   0  0  0  0  0  0  0  0  0  0  0  0
   89.7836  216.4694  320.2923 C   0  0  0  0  0  0  0  0  0  0  0  0
   89.5154  216.4695  319.0991 O   0  0  0  0  0  0  0  0  0  0  0  0
   88.8477  215.9692  321.3777 C   0  0  0  0  0  0  0  0  0  0  0  0
   87.7644  215.0183  320.8740 C   0  0  0  0  0  0  0  0  0  0  0  0
   86.7257  215.8058  320.0678 C   0  0  0  0  0  0  0  0  0  0  0  0
   85.3062  215.7475  320.6387 C   0  0  0  0  0  0  0  0  0  0  0  0
   84.2671  216.6424  319.9541 C   0  0  0  0  0  0  0  0  0  0  0  0
   84.8832  217.8018  319.1683 C   0  0  0  0  0  0  0  0  0  0  0  0
   84.4334  217.8706  317.7033 C   0  0  0  0  0  0  0  0  0  0  0  0
   85.5274  218.1069  316.6566 C   0  0  0  0  0  0  0  0  0  0  0  0
   85.6506  219.5454  316.1426 C   0  0  0  0  0  0  0  0  0  0  0  0
   85.8826  219.6587  314.6389 C   0  0  0  0  0  0  0  0  0  0  0  0
   84.9096  220.6542  313.9973 C   0  0  0  0  0  0  0  0  0  0  0  0
   85.6185  221.7228  313.1602 C   0  0  0  0  0  0  0  0  0  0  0  0
   85.5736  221.4993  311.6460 C   0  0  0  0  0  0  0  0  0  0  0  0
   84.3764  220.6975  311.1272 C   0  0  0  0  0  0  0  0  0  0  0  0
   84.4870  220.3542  309.6400 C   0  0  0  0  0  0  0  0  0  0  0  0
   85.1271  218.9795  309.4264 C   0  0  0  0  0  0  0  0  0  0  0  0
   86.0971  218.9579  308.2401 C   0  0  0  0  0  0  0  0  0  0  0  0
   87.1301  217.8297  308.3459 C   0  0  0  0  0  0  0  0  0  0  0  0
   86.5190  216.5773  308.9777 C   0  0  0  0  0  0  0  0  0  0  0  0
   87.5540  215.5103  309.3501 C   0  0  0  0  0  0  0  0  0  0  0  0
   87.8160  215.3136  310.8496 C   0  0  0  0  0  0  0  0  0  0  0  0
   88.0123  213.8478  311.2486 C   0  0  0  0  0  0  0  0  0  0  0  0
   88.5607  213.6772  312.6678 C   0  0  0  0  0  0  0  0  0  0  0  0
   89.5178  212.4953  312.8059 C   0  0  0  0  0  0  0  0  0  0  0  0
   89.9700  212.3156  314.2462 C   0  0  0  0  0  0  0  0  0  0  0  0
  2  1  1  0
 30  1  1  0
  1 32  1  6
  3  2  1  0
  2 29  1  6
 27  3  1  0
  3 28  1  1
 27  4  1  0
  4 30  1  0
 30  5  1  6
  5 31  1  0
  7  6  1  0
  8  7  1  0
  9  8  1  0
 10  9  1  0
 11 10  1  0
 12 11  1  0
 13 12  1  0
 14 13  1  0
 15 14  1  0
 16 15  1  0
 17 16  1  0
 18 17  1  0
 19 18  1  0
 20 19  1  0
 20 21  1  6
 22 20  1  0
 22 23  1  6
 24 22  1  0
 24 25  1  1
 24 42  1  0
 26 25  1  0
 27 26  1  1
 32 33  1  0
 33 34  1  0
 34 35  2  0
 34 41  1  0
 35 36  1  0
 36 37  1  0
 36 38  2  0
 38 39  1  0
 38 40  1  0
 40 41  2  0
 42 43  1  0
 43 44  2  0
 43 45  1  0
 45 46  1  0
 46 47  1  0
 47 48  1  0
 48 49  1  0
 49 50  1  0
 50 51  1  0
 51 52  1  0
 52 53  1  0
 53 54  1  0
 54 55  1  0
 55 56  1  0
 56 57  1  0
 57 58  1  0
 58 59  1  0
 59 60  1  0
 60 61  1  0
 61 62  1  0
 62 63  1  0
 63 64  1  0
 64 65  1  0
 65 66  1  0
 66 67  1  0
 67 68  1  0
 68 69  1  0
M  END
$$$$
