
     RDKit          3D

 69 70  0  0  0  0  0  0  0  0999 V2000
   98.7110  217.1263  324.2646 C   0  0  2  0  0  0  0  0  0  0  0  0
   98.9589  218.5717  323.7886 C   0  0  1  0  0  0  0  0  0  0  0  0
   97.6749  219.1964  323.2459 C   0  0  2  0  0  0  0  0  0  0  0  0
   96.3051  217.6700  324.5642 O   0  0  0  0  0  0  0  0  0  0  0  0
   97.5914  217.2253  326.6216 C   0  0  0  0  0  0  0  0  0  0  0  0
   78.7058  212.9122  322.1140 C   0  0  0  0  0  0  0  0  0  0  0  0
   79.7794  213.1669  321.0692 C   0  0  0  0  0  0  0  0  0  0  0  0
   80.1359  214.6519  320.9797 C   0  0  0  0  0  0  0  0  0  0  0  0
   81.1706  214.9041  319.8815 C   0  0  0  0  0  0  0  0  0  0  0  0
   81.6628  216.3541  319.8337 C   0  0  0  0  0  0  0  0  0  0  0  0
   82.7211  216.6022  318.7554 C   0  0  0  0  0  0  0  0  0  0  0  0
   83.1165  218.0781  318.6334 C   0  0  0  0  0  0  0  0  0  0  0  0
   84.3226  218.5071  319.4754 C   0  0  0  0  0  0  0  0  0  0  0  0
   85.6921  218.1245  318.9029 C   0  0  0  0  0  0  0  0  0  0  0  0
   86.9074  218.7156  319.6271 C   0  0  0  0  0  0  0  0  0  0  0  0
   88.2135  218.7443  318.8279 C   0  0  0  0  0  0  0  0  0  0  0  0
   89.4686  218.5845  319.6853 C   0  0  0  0  0  0  0  0  0  0  0  0
   89.1250  218.6294  321.1794 C   0  0  0  0  0  0  0  0  0  0  0  0
   90.3256  219.0851  322.0088 C   0  0  0  0  0  0  0  0  0  0  0  0
   91.6786  218.9826  321.2899 C   0  0  1  0  0  0  0  0  0  0  0  0
   91.5677  219.7967  320.1148 O   0  0  0  0  0  0  0  0  0  0  0  0
   92.9177  219.4203  322.1189 C   0  0  1  0  0  0  0  0  0  0  0  0
   92.8594  220.8458  322.2950 O   0  0  0  0  0  0  0  0  0  0  0  0
   93.0622  218.6840  323.4784 C   0  0  2  0  0  0  0  0  0  0  0  0
   94.1423  219.2584  324.4240 C   0  0  0  0  0  0  0  0  0  0  0  0
   95.3552  219.6353  323.7380 O   0  0  0  0  0  0  0  0  0  0  0  0
   96.5476  219.0569  324.2883 C   0  0  2  0  0  0  0  0  0  0  0  0
   97.3256  218.5339  322.0145 O   0  0  0  0  0  0  0  0  0  0  0  0
   99.5094  219.4169  324.7993 O   0  0  0  0  0  0  0  0  0  0  0  0
   97.4316  216.9695  325.1126 C   0  0  2  0  0  0  0  0  0  0  0  0
   97.1135  216.1435  327.4137 O   0  0  0  0  0  0  0  0  0  0  0  0
   99.8399  216.6311  324.9996 O   0  0  0  0  0  0  0  0  0  0  0  0
  100.2086  215.2926  324.6703 C   0  0  0  0  0  0  0  0  0  0  0  0
  101.1736  214.7702  325.7056 C   0  0  0  0  0  0  0  0  0  0  0  0
  102.0898  215.6402  326.3171 C   0  0  0  0  0  0  0  0  0  0  0  0
  102.9663  215.1777  327.3048 C   0  0  0  0  0  0  0  0  0  0  0  0
  104.0536  216.3172  328.0131 Cl  0  0  0  0  0  0  0  0  0  0  0  0
  102.9365  213.8321  327.6859 C   0  0  0  0  0  0  0  0  0  0  0  0
  103.9798  213.1867  328.9000 Cl  0  0  0  0  0  0  0  0  0  0  0  0
  102.0333  212.9573  327.0734 C   0  0  0  0  0  0  0  0  0  0  0  0
  101.1579  213.4226  326.0881 C   0  0  0  0  0  0  0  0  0  0  0  0
   93.2413  217.2227  323.3490 N   0  0  0  0  0  0  0  0  0  0  0  0
   92.4571  216.4199  322.5509 C   0  0  0  0  0  0  0  0  0  0  0  0
   91.2601  216.2475  322.7329 O   0  0  0  0  0  0  0  0  0  0  0  0
   93.2739  215.6939  321.4973 C   0  0  0  0  0  0  0  0  0  0  0  0
   92.4941  215.3610  320.2274 C   0  0  0  0  0  0  0  0  0  0  0  0
   91.3554  214.3921  320.5645 C   0  0  0  0  0  0  0  0  0  0  0  0
   90.0524  214.6603  319.8063 C   0  0  0  0  0  0  0  0  0  0  0  0
   88.9184  213.6558  320.0388 C   0  0  0  0  0  0  0  0  0  0  0  0
   87.7972  213.7504  319.0020 C   0  0  0  0  0  0  0  0  0  0  0  0
   87.9610  212.7897  317.8172 C   0  0  0  0  0  0  0  0  0  0  0  0
   86.9026  212.8710  316.7121 C   0  0  0  0  0  0  0  0  0  0  0  0
   86.6315  214.2742  316.1587 C   0  0  0  0  0  0  0  0  0  0  0  0
   85.2308  214.4644  315.5846 C   0  0  0  0  0  0  0  0  0  0  0  0
   85.0720  215.8491  314.9468 C   0  0  0  0  0  0  0  0  0  0  0  0
   83.6902  216.0607  314.3215 C   0  0  0  0  0  0  0  0  0  0  0  0
   83.1358  217.4836  314.4339 C   0  0  0  0  0  0  0  0  0  0  0  0
   83.6176  218.4713  313.3674 C   0  0  0  0  0  0  0  0  0  0  0  0
   82.4686  219.1280  312.5989 C   0  0  0  0  0  0  0  0  0  0  0  0
   82.9830  220.1656  311.5969 C   0  0  0  0  0  0  0  0  0  0  0  0
   83.2405  219.5688  310.2090 C   0  0  0  0  0  0  0  0  0  0  0  0
   84.6705  219.8214  309.7166 C   0  0  0  0  0  0  0  0  0  0  0  0
   84.8972  219.2046  308.3349 C   0  0  0  0  0  0  0  0  0  0  0  0
   86.2297  219.6070  307.6942 C   0  0  0  0  0  0  0  0  0  0  0  0
   86.2345  220.9273  306.9113 C   0  0  0  0  0  0  0  0  0  0  0  0
   87.6106  221.5971  306.8512 C   0  0  0  0  0  0  0  0  0  0  0  0
   87.5956  222.9423  306.1202 C   0  0  0  0  0  0  0  0  0  0  0  0
   86.8832  224.0444  306.9010 C   0  0  0  0  0  0  0  0  0  0  0  0
   86.9829  225.3818  306.1850 C   0  0  0  0  0  0  0  0  0  0  0  0
  2  1  1  0
 30  1  1  0
  1 32  1  1
  3  2  1  0
  2 29  1  1
 27  3  1  0
  3 28  1  6
 27  4  1  0
  4 30  1  0
 30  5  1  1
  5 31  1  0
  7  6  1  0
  8  7  1  0
  9  8  1  0
 10  9  1  0
 11 10  1  0
 12 11  1  0
 13 12  1  0
 14 13  1  0
 15 14  1  0
 16 15  1  0
 17 16  1  0
 18 17  1  0
 19 18  1  0
 20 19  1  0
 20 21  1  6
 22 20  1  0
 22 23  1  1
 24 22  1  0
 24 25  1  6
 24 42  1  0
 26 25  1  0
 27 26  1  6
 32 33  1  0
 33 34  1  0
 34 35  2  0
 34 41  1  0
 35 36  1  0
 36 37  1  0
 36 38  2  0
 38 39  1  0
 38 40  1  0
 40 41  2  0
 42 43  1  0
 43 44  2  0
 43 45  1  0
 45 46  1  0
 46 47  1  0
 47 48  1  0
 48 49  1  0
 49 50  1  0
 50 51  1  0
 51 52  1  0
 52 53  1  0
 53 54  1  0
 54 55  1  0
 55 56  1  0
 56 57  1  0
 57 58  1  0
 58 59  1  0
 59 60  1  0
 60 61  1  0
 61 62  1  0
 62 63  1  0
 63 64  1  0
 64 65  1  0
 65 66  1  0
 66 67  1  0
 67 68  1  0
 68 69  1  0
M  END
$$$$
