
     RDKit          3D

 69 70  0  0  0  0  0  0  0  0999 V2000
   95.7016  217.6584  326.1760 C   0  0  2  0  0  0  0  0  0  0  0  0
   94.3551  217.1497  325.6235 C   0  0  1  0  0  0  0  0  0  0  0  0
   94.5272  216.5533  324.2278 C   0  0  2  0  0  0  0  0  0  0  0  0
   96.8840  216.0941  324.6501 O   0  0  0  0  0  0  0  0  0  0  0  0
   97.0475  215.6037  327.0621 C   0  0  0  0  0  0  0  0  0  0  0  0
   81.4182  209.3964  326.3376 C   0  0  0  0  0  0  0  0  0  0  0  0
   81.0547  210.6018  325.4868 C   0  0  0  0  0  0  0  0  0  0  0  0
   81.7839  210.5815  324.1421 C   0  0  0  0  0  0  0  0  0  0  0  0
   81.3835  211.7807  323.2808 C   0  0  0  0  0  0  0  0  0  0  0  0
   82.2425  211.9367  322.0219 C   0  0  0  0  0  0  0  0  0  0  0  0
   83.3525  212.9810  322.1681 C   0  0  0  0  0  0  0  0  0  0  0  0
   84.2148  213.1181  320.9083 C   0  0  0  0  0  0  0  0  0  0  0  0
   85.2959  212.0466  320.7320 C   0  0  0  0  0  0  0  0  0  0  0  0
   86.6726  212.4032  321.3040 C   0  0  0  0  0  0  0  0  0  0  0  0
   87.7387  212.8040  320.2776 C   0  0  0  0  0  0  0  0  0  0  0  0
   88.9994  213.4627  320.8452 C   0  0  0  0  0  0  0  0  0  0  0  0
   90.1179  213.6467  319.8201 C   0  0  0  0  0  0  0  0  0  0  0  0
   91.0199  214.8294  320.1945 C   0  0  0  0  0  0  0  0  0  0  0  0
   92.0745  215.0825  319.1172 C   0  0  0  0  0  0  0  0  0  0  0  0
   93.4141  214.3691  319.3500 C   0  0  1  0  0  0  0  0  0  0  0  0
   94.2653  214.7556  318.2628 O   0  0  0  0  0  0  0  0  0  0  0  0
   94.1154  214.6753  320.7023 C   0  0  1  0  0  0  0  0  0  0  0  0
   94.5761  213.4332  321.2605 O   0  0  0  0  0  0  0  0  0  0  0  0
   95.2649  215.7142  320.5985 C   0  0  2  0  0  0  0  0  0  0  0  0
   96.0366  215.9722  321.9132 C   0  0  0  0  0  0  0  0  0  0  0  0
   95.7917  214.9687  322.9216 O   0  0  0  0  0  0  0  0  0  0  0  0
   95.6450  215.4917  324.2499 C   0  0  2  0  0  0  0  0  0  0  0  0
   94.8425  217.6174  323.3083 O   0  0  0  0  0  0  0  0  0  0  0  0
   93.7152  216.1969  326.4730 O   0  0  0  0  0  0  0  0  0  0  0  0
   96.8658  216.6680  325.9657 C   0  0  2  0  0  0  0  0  0  0  0  0
   98.3419  215.6421  327.6530 O   0  0  0  0  0  0  0  0  0  0  0  0
   95.5908  217.9828  327.5698 O   0  0  0  0  0  0  0  0  0  0  0  0
   94.2476  218.1100  328.0340 C   0  0  0  0  0  0  0  0  0  0  0  0
   93.4003  218.7303  326.9510 C   0  0  0  0  0  0  0  0  0  0  0  0
   92.9613  220.0579  327.0737 C   0  0  0  0  0  0  0  0  0  0  0  0
   92.2053  220.6582  326.0608 C   0  0  0  0  0  0  0  0  0  0  0  0
   91.7152  222.2986  326.2876 Cl  0  0  0  0  0  0  0  0  0  0  0  0
   91.8759  219.9285  324.9138 C   0  0  0  0  0  0  0  0  0  0  0  0
   90.9533  220.5993  323.6184 Cl  0  0  0  0  0  0  0  0  0  0  0  0
   92.3012  218.6019  324.7894 C   0  0  0  0  0  0  0  0  0  0  0  0
   93.0576  218.0054  325.8023 C   0  0  0  0  0  0  0  0  0  0  0  0
   94.8522  217.0025  320.0035 N   0  0  0  0  0  0  0  0  0  0  0  0
   95.0899  218.2284  320.5841 C   0  0  0  0  0  0  0  0  0  0  0  0
   96.1169  218.5031  321.1886 O   0  0  0  0  0  0  0  0  0  0  0  0
   93.8876  219.1493  320.4808 C   0  0  0  0  0  0  0  0  0  0  0  0
   94.0447  220.2623  319.4473 C   0  0  0  0  0  0  0  0  0  0  0  0
   93.8422  219.6879  318.0409 C   0  0  0  0  0  0  0  0  0  0  0  0
   94.1977  220.6534  316.9070 C   0  0  0  0  0  0  0  0  0  0  0  0
   93.0926  221.6246  316.4774 C   0  0  0  0  0  0  0  0  0  0  0  0
   92.4288  221.2462  315.1518 C   0  0  0  0  0  0  0  0  0  0  0  0
   91.4359  222.2930  314.6306 C   0  0  0  0  0  0  0  0  0  0  0  0
   90.0899  221.7709  314.1167 C   0  0  0  0  0  0  0  0  0  0  0  0
   89.5682  222.4352  312.8380 C   0  0  0  0  0  0  0  0  0  0  0  0
   88.3949  223.3857  313.0563 C   0  0  0  0  0  0  0  0  0  0  0  0
   87.2790  223.1390  312.0349 C   0  0  0  0  0  0  0  0  0  0  0  0
   85.9825  222.6402  312.6798 C   0  0  0  0  0  0  0  0  0  0  0  0
   84.6945  223.0974  311.9895 C   0  0  0  0  0  0  0  0  0  0  0  0
   83.3892  222.6402  312.6470 C   0  0  0  0  0  0  0  0  0  0  0  0
   83.1585  221.1318  312.5312 C   0  0  0  0  0  0  0  0  0  0  0  0
   81.6707  220.7815  312.6264 C   0  0  0  0  0  0  0  0  0  0  0  0
   81.2806  219.6106  311.7179 C   0  0  0  0  0  0  0  0  0  0  0  0
   81.3790  218.2561  312.4298 C   0  0  0  0  0  0  0  0  0  0  0  0
   81.0357  217.1059  311.4812 C   0  0  0  0  0  0  0  0  0  0  0  0
   80.7842  217.5548  310.0378 C   0  0  0  0  0  0  0  0  0  0  0  0
   80.0758  216.5430  309.1265 C   0  0  0  0  0  0  0  0  0  0  0  0
   78.6277  216.9222  308.8019 C   0  0  0  0  0  0  0  0  0  0  0  0
   78.3820  217.1411  307.3066 C   0  0  0  0  0  0  0  0  0  0  0  0
   76.9010  217.2361  306.9470 C   0  0  0  0  0  0  0  0  0  0  0  0
   76.6778  217.0128  305.4598 C   0  0  0  0  0  0  0  0  0  0  0  0
  2  1  1  0
 30  1  1  0
  1 32  1  1
  3  2  1  0
  2 29  1  1
 27  3  1  0
  3 28  1  6
 27  4  1  0
  4 30  1  0
 30  5  1  1
  5 31  1  0
  7  6  1  0
  8  7  1  0
  9  8  1  0
 10  9  1  0
 11 10  1  0
 12 11  1  0
 13 12  1  0
 14 13  1  0
 15 14  1  0
 16 15  1  0
 17 16  1  0
 18 17  1  0
 19 18  1  0
 20 19  1  0
 20 21  1  6
 22 20  1  0
 22 23  1  6
 24 22  1  0
 24 25  1  1
 24 42  1  0
 26 25  1  0
 27 26  1  6
 32 33  1  0
 33 34  1  0
 34 35  2  0
 34 41  1  0
 35 36  1  0
 36 37  1  0
 36 38  2  0
 38 39  1  0
 38 40  1  0
 40 41  2  0
 42 43  1  0
 43 44  2  0
 43 45  1  0
 45 46  1  0
 46 47  1  0
 47 48  1  0
 48 49  1  0
 49 50  1  0
 50 51  1  0
 51 52  1  0
 52 53  1  0
 53 54  1  0
 54 55  1  0
 55 56  1  0
 56 57  1  0
 57 58  1  0
 58 59  1  0
 59 60  1  0
 60 61  1  0
 61 62  1  0
 62 63  1  0
 63 64  1  0
 64 65  1  0
 65 66  1  0
 66 67  1  0
 67 68  1  0
 68 69  1  0
M  END
$$$$
