
     RDKit          3D

 69 70  0  0  0  0  0  0  0  0999 V2000
   94.4288  220.2189  315.4509 C   0  0  2  0  0  0  0  0  0  0  0  0
   94.7197  221.5091  316.2434 C   0  0  1  0  0  0  0  0  0  0  0  0
   93.9568  221.5215  317.5668 C   0  0  2  0  0  0  0  0  0  0  0  0
   93.8162  219.0876  317.5766 O   0  0  0  0  0  0  0  0  0  0  0  0
   95.8723  218.2950  316.4677 C   0  0  0  0  0  0  0  0  0  0  0  0
   84.0486  213.3184  331.5416 C   0  0  0  0  0  0  0  0  0  0  0  0
   84.6403  213.9626  330.2990 C   0  0  0  0  0  0  0  0  0  0  0  0
   83.7140  213.8102  329.0912 C   0  0  0  0  0  0  0  0  0  0  0  0
   84.3233  214.4559  327.8455 C   0  0  0  0  0  0  0  0  0  0  0  0
   83.8793  213.7905  326.5388 C   0  0  0  0  0  0  0  0  0  0  0  0
   82.7655  214.5525  325.8157 C   0  0  0  0  0  0  0  0  0  0  0  0
   83.1602  214.9887  324.4004 C   0  0  0  0  0  0  0  0  0  0  0  0
   84.5925  215.5114  324.2491 C   0  0  0  0  0  0  0  0  0  0  0  0
   84.8733  216.2927  322.9604 C   0  0  0  0  0  0  0  0  0  0  0  0
   86.1498  217.1420  322.9593 C   0  0  0  0  0  0  0  0  0  0  0  0
   87.1021  216.9199  324.1378 C   0  0  0  0  0  0  0  0  0  0  0  0
   88.5527  217.3006  323.8432 C   0  0  0  0  0  0  0  0  0  0  0  0
   88.7072  218.8206  323.7081 C   0  0  0  0  0  0  0  0  0  0  0  0
   90.1672  219.2087  323.4744 C   0  0  0  0  0  0  0  0  0  0  0  0
   90.4434  219.8858  322.1241 C   0  0  1  0  0  0  0  0  0  0  0  0
   89.5801  221.0293  322.0683 O   0  0  0  0  0  0  0  0  0  0  0  0
   91.9137  220.3233  321.8770 C   0  0  1  0  0  0  0  0  0  0  0  0
   92.3048  221.2052  322.9428 O   0  0  0  0  0  0  0  0  0  0  0  0
   92.9085  219.1410  321.7221 C   0  0  2  0  0  0  0  0  0  0  0  0
   93.8931  219.2634  320.5363 C   0  0  0  0  0  0  0  0  0  0  0  0
   93.4968  220.2595  319.5696 O   0  0  0  0  0  0  0  0  0  0  0  0
   94.2433  220.2216  318.3446 C   0  0  2  0  0  0  0  0  0  0  0  0
   92.5497  221.6565  317.2855 O   0  0  0  0  0  0  0  0  0  0  0  0
   96.1093  221.7222  316.4928 O   0  0  0  0  0  0  0  0  0  0  0  0
   94.4843  218.9415  316.3145 C   0  0  2  0  0  0  0  0  0  0  0  0
   95.8048  216.9698  316.9827 O   0  0  0  0  0  0  0  0  0  0  0  0
   95.3286  220.0891  314.3403 O   0  0  0  0  0  0  0  0  0  0  0  0
   94.8081  220.5830  313.1071 C   0  0  0  0  0  0  0  0  0  0  0  0
   93.5791  219.7934  312.7304 C   0  0  0  0  0  0  0  0  0  0  0  0
   92.3743  220.4567  312.4498 C   0  0  0  0  0  0  0  0  0  0  0  0
   91.2360  219.7403  312.0640 C   0  0  0  0  0  0  0  0  0  0  0  0
   89.7981  220.6355  311.7269 Cl  0  0  0  0  0  0  0  0  0  0  0  0
   91.2934  218.3465  311.9615 C   0  0  0  0  0  0  0  0  0  0  0  0
   89.9357  217.3928  311.4859 Cl  0  0  0  0  0  0  0  0  0  0  0  0
   92.4877  217.6781  312.2496 C   0  0  0  0  0  0  0  0  0  0  0  0
   93.6237  218.3966  312.6332 C   0  0  0  0  0  0  0  0  0  0  0  0
   92.2579  217.8143  321.6929 N   0  0  0  0  0  0  0  0  0  0  0  0
   92.5819  216.7806  322.5431 C   0  0  0  0  0  0  0  0  0  0  0  0
   93.3769  216.8876  323.4662 O   0  0  0  0  0  0  0  0  0  0  0  0
   91.9247  215.4764  322.1290 C   0  0  0  0  0  0  0  0  0  0  0  0
   90.4966  215.3100  322.6429 C   0  0  0  0  0  0  0  0  0  0  0  0
   90.3943  214.0198  323.4637 C   0  0  0  0  0  0  0  0  0  0  0  0
   89.1600  213.1690  323.1523 C   0  0  0  0  0  0  0  0  0  0  0  0
   89.0258  211.8620  323.9415 C   0  0  0  0  0  0  0  0  0  0  0  0
   87.5973  211.3152  323.9782 C   0  0  0  0  0  0  0  0  0  0  0  0
   87.4326  210.0591  324.8435 C   0  0  0  0  0  0  0  0  0  0  0  0
   86.2377  210.0342  325.8025 C   0  0  0  0  0  0  0  0  0  0  0  0
   86.0902  208.7601  326.6414 C   0  0  0  0  0  0  0  0  0  0  0  0
   85.1437  208.8957  327.8304 C   0  0  0  0  0  0  0  0  0  0  0  0
   84.9200  207.5466  328.5226 C   0  0  0  0  0  0  0  0  0  0  0  0
   85.4986  206.3696  327.7320 C   0  0  0  0  0  0  0  0  0  0  0  0
   85.3102  204.9950  328.3799 C   0  0  0  0  0  0  0  0  0  0  0  0
   85.9456  203.8165  327.6367 C   0  0  0  0  0  0  0  0  0  0  0  0
   84.9394  202.7169  327.2893 C   0  0  0  0  0  0  0  0  0  0  0  0
   85.1898  202.1472  325.8900 C   0  0  0  0  0  0  0  0  0  0  0  0
   84.3959  200.8635  325.6247 C   0  0  0  0  0  0  0  0  0  0  0  0
   84.5514  200.3636  324.1835 C   0  0  0  0  0  0  0  0  0  0  0  0
   83.6642  199.1449  323.9216 C   0  0  0  0  0  0  0  0  0  0  0  0
   83.3012  198.9558  322.4449 C   0  0  0  0  0  0  0  0  0  0  0  0
   81.8575  199.2979  322.0521 C   0  0  0  0  0  0  0  0  0  0  0  0
   81.5504  199.0452  320.5729 C   0  0  0  0  0  0  0  0  0  0  0  0
   80.1031  199.3696  320.1931 C   0  0  0  0  0  0  0  0  0  0  0  0
   79.2157  198.1314  320.0882 C   0  0  0  0  0  0  0  0  0  0  0  0
   77.8016  198.4989  319.6679 C   0  0  0  0  0  0  0  0  0  0  0  0
  2  1  1  0
 30  1  1  0
  1 32  1  6
  3  2  1  0
  2 29  1  1
 27  3  1  0
  3 28  1  6
 27  4  1  0
  4 30  1  0
 30  5  1  1
  5 31  1  0
  7  6  1  0
  8  7  1  0
  9  8  1  0
 10  9  1  0
 11 10  1  0
 12 11  1  0
 13 12  1  0
 14 13  1  0
 15 14  1  0
 16 15  1  0
 17 16  1  0
 18 17  1  0
 19 18  1  0
 20 19  1  0
 20 21  1  1
 22 20  1  0
 22 23  1  1
 24 22  1  0
 24 25  1  6
 24 42  1  0
 26 25  1  0
 27 26  1  1
 32 33  1  0
 33 34  1  0
 34 35  2  0
 34 41  1  0
 35 36  1  0
 36 37  1  0
 36 38  2  0
 38 39  1  0
 38 40  1  0
 40 41  2  0
 42 43  1  0
 43 44  2  0
 43 45  1  0
 45 46  1  0
 46 47  1  0
 47 48  1  0
 48 49  1  0
 49 50  1  0
 50 51  1  0
 51 52  1  0
 52 53  1  0
 53 54  1  0
 54 55  1  0
 55 56  1  0
 56 57  1  0
 57 58  1  0
 58 59  1  0
 59 60  1  0
 60 61  1  0
 61 62  1  0
 62 63  1  0
 63 64  1  0
 64 65  1  0
 65 66  1  0
 66 67  1  0
 67 68  1  0
 68 69  1  0
M  END
$$$$
