
     RDKit          3D

 69 70  0  0  0  0  0  0  0  0999 V2000
   98.3319  218.2539  324.5695 C   0  0  2  0  0  0  0  0  0  0  0  0
   97.2223  217.6789  325.4725 C   0  0  1  0  0  0  0  0  0  0  0  0
   95.8451  217.8846  324.8446 C   0  0  2  0  0  0  0  0  0  0  0  0
   96.8178  218.0224  322.6133 O   0  0  0  0  0  0  0  0  0  0  0  0
   98.7906  216.5421  322.6517 C   0  0  0  0  0  0  0  0  0  0  0  0
   83.6416  225.9030  309.0301 C   0  0  0  0  0  0  0  0  0  0  0  0
   83.7732  224.8611  310.1284 C   0  0  0  0  0  0  0  0  0  0  0  0
   84.9597  223.9281  309.8794 C   0  0  0  0  0  0  0  0  0  0  0  0
   85.5389  223.4108  311.1973 C   0  0  0  0  0  0  0  0  0  0  0  0
   85.8532  221.9114  311.1745 C   0  0  0  0  0  0  0  0  0  0  0  0
   86.3527  221.3739  312.5182 C   0  0  0  0  0  0  0  0  0  0  0  0
   87.6819  220.6193  312.4041 C   0  0  0  0  0  0  0  0  0  0  0  0
   87.6098  219.1147  312.6845 C   0  0  0  0  0  0  0  0  0  0  0  0
   87.4061  218.7301  314.1544 C   0  0  0  0  0  0  0  0  0  0  0  0
   88.6464  218.8338  315.0497 C   0  0  0  0  0  0  0  0  0  0  0  0
   88.4277  218.5254  316.5338 C   0  0  0  0  0  0  0  0  0  0  0  0
   89.5814  218.9646  317.4348 C   0  0  0  0  0  0  0  0  0  0  0  0
   89.2747  218.6668  318.9078 C   0  0  0  0  0  0  0  0  0  0  0  0
   90.5210  218.8362  319.7767 C   0  0  0  0  0  0  0  0  0  0  0  0
   91.7185  219.4799  319.0630 C   0  0  1  0  0  0  0  0  0  0  0  0
   91.5487  220.8971  319.1998 O   0  0  0  0  0  0  0  0  0  0  0  0
   93.1203  219.0644  319.5887 C   0  0  1  0  0  0  0  0  0  0  0  0
   94.0291  220.1531  319.3531 O   0  0  0  0  0  0  0  0  0  0  0  0
   93.1330  218.6240  321.0778 C   0  0  2  0  0  0  0  0  0  0  0  0
   94.5384  218.4341  321.6937 C   0  0  0  0  0  0  0  0  0  0  0  0
   94.5417  217.5590  322.8419 O   0  0  0  0  0  0  0  0  0  0  0  0
   95.8416  217.3314  323.4055 C   0  0  2  0  0  0  0  0  0  0  0  0
   95.5389  219.2929  324.8580 O   0  0  0  0  0  0  0  0  0  0  0  0
   97.4018  216.2971  325.7844 O   0  0  0  0  0  0  0  0  0  0  0  0
   98.1674  217.8820  323.0812 C   0  0  2  0  0  0  0  0  0  0  0  0
   99.7124  216.6871  321.5767 O   0  0  0  0  0  0  0  0  0  0  0  0
   99.6276  217.8415  325.0289 O   0  0  0  0  0  0  0  0  0  0  0  0
   99.5942  216.8812  326.0836 C   0  0  0  0  0  0  0  0  0  0  0  0
   99.5538  215.4926  325.4953 C   0  0  0  0  0  0  0  0  0  0  0  0
   99.7582  214.3732  326.3171 C   0  0  0  0  0  0  0  0  0  0  0  0
   99.6878  213.0779  325.7926 C   0  0  0  0  0  0  0  0  0  0  0  0
   99.9412  211.7567  326.8755 Cl  0  0  0  0  0  0  0  0  0  0  0  0
   99.4170  212.8923  324.4329 C   0  0  0  0  0  0  0  0  0  0  0  0
   99.3074  211.3277  323.7122 Cl  0  0  0  0  0  0  0  0  0  0  0  0
   99.2226  214.0035  323.6060 C   0  0  0  0  0  0  0  0  0  0  0  0
   99.2919  215.2962  324.1332 C   0  0  0  0  0  0  0  0  0  0  0  0
   92.3043  217.4319  321.3540 N   0  0  0  0  0  0  0  0  0  0  0  0
   91.2296  217.0476  320.5834 C   0  0  0  0  0  0  0  0  0  0  0  0
   90.1636  217.6466  320.5622 O   0  0  0  0  0  0  0  0  0  0  0  0
   91.4886  215.7395  319.8582 C   0  0  0  0  0  0  0  0  0  0  0  0
   90.2385  214.8889  319.6461 C   0  0  0  0  0  0  0  0  0  0  0  0
   90.1207  213.8603  320.7762 C   0  0  0  0  0  0  0  0  0  0  0  0
   90.9075  212.5683  320.5391 C   0  0  0  0  0  0  0  0  0  0  0  0
   90.0799  211.3351  320.1603 C   0  0  0  0  0  0  0  0  0  0  0  0
   90.2625  210.1588  321.1216 C   0  0  0  0  0  0  0  0  0  0  0  0
   89.0084  209.2919  321.2913 C   0  0  0  0  0  0  0  0  0  0  0  0
   88.6997  208.7955  322.7079 C   0  0  0  0  0  0  0  0  0  0  0  0
   87.2833  209.0857  323.2158 C   0  0  0  0  0  0  0  0  0  0  0  0
   86.1749  208.4276  322.3995 C   0  0  0  0  0  0  0  0  0  0  0  0
   84.8742  208.3259  323.2039 C   0  0  0  0  0  0  0  0  0  0  0  0
   83.6245  208.3501  322.3191 C   0  0  0  0  0  0  0  0  0  0  0  0
   82.9096  209.7019  322.2396 C   0  0  0  0  0  0  0  0  0  0  0  0
   81.3801  209.6497  322.2945 C   0  0  0  0  0  0  0  0  0  0  0  0
   80.7781  210.7237  323.2035 C   0  0  0  0  0  0  0  0  0  0  0  0
   80.5290  210.1889  324.6168 C   0  0  0  0  0  0  0  0  0  0  0  0
   80.4344  211.3055  325.6623 C   0  0  0  0  0  0  0  0  0  0  0  0
   80.3097  210.7636  327.0913 C   0  0  0  0  0  0  0  0  0  0  0  0
   81.5864  210.0387  327.5218 C   0  0  0  0  0  0  0  0  0  0  0  0
   81.5399  209.5163  328.9615 C   0  0  0  0  0  0  0  0  0  0  0  0
   82.7139  208.6303  329.4000 C   0  0  0  0  0  0  0  0  0  0  0  0
   82.2830  207.2478  329.8993 C   0  0  0  0  0  0  0  0  0  0  0  0
   82.1841  207.1609  331.4247 C   0  0  0  0  0  0  0  0  0  0  0  0
   83.3647  206.4342  332.0647 C   0  0  0  0  0  0  0  0  0  0  0  0
   83.1569  206.2517  333.5597 C   0  0  0  0  0  0  0  0  0  0  0  0
  2  1  1  0
 30  1  1  0
  1 32  1  1
  3  2  1  0
  2 29  1  6
 27  3  1  0
  3 28  1  6
 27  4  1  0
  4 30  1  0
 30  5  1  1
  5 31  1  0
  7  6  1  0
  8  7  1  0
  9  8  1  0
 10  9  1  0
 11 10  1  0
 12 11  1  0
 13 12  1  0
 14 13  1  0
 15 14  1  0
 16 15  1  0
 17 16  1  0
 18 17  1  0
 19 18  1  0
 20 19  1  0
 20 21  1  1
 22 20  1  0
 22 23  1  1
 24 22  1  0
 24 25  1  6
 24 42  1  0
 26 25  1  0
 27 26  1  6
 32 33  1  0
 33 34  1  0
 34 35  2  0
 34 41  1  0
 35 36  1  0
 36 37  1  0
 36 38  2  0
 38 39  1  0
 38 40  1  0
 40 41  2  0
 42 43  1  0
 43 44  2  0
 43 45  1  0
 45 46  1  0
 46 47  1  0
 47 48  1  0
 48 49  1  0
 49 50  1  0
 50 51  1  0
 51 52  1  0
 52 53  1  0
 53 54  1  0
 54 55  1  0
 55 56  1  0
 56 57  1  0
 57 58  1  0
 58 59  1  0
 59 60  1  0
 60 61  1  0
 61 62  1  0
 62 63  1  0
 63 64  1  0
 64 65  1  0
 65 66  1  0
 66 67  1  0
 67 68  1  0
 68 69  1  0
M  END
$$$$
