
     RDKit          3D

 69 70  0  0  0  0  0  0  0  0999 V2000
   95.6341  217.0453  322.8497 C   0  0  2  0  0  0  0  0  0  0  0  0
   95.7329  218.5323  322.4545 C   0  0  1  0  0  0  0  0  0  0  0  0
   94.3785  219.0662  321.9919 C   0  0  2  0  0  0  0  0  0  0  0  0
   93.2019  217.3469  323.2581 O   0  0  0  0  0  0  0  0  0  0  0  0
   94.5986  216.9051  325.2428 C   0  0  0  0  0  0  0  0  0  0  0  0
   90.6765  225.4551  307.5034 C   0  0  0  0  0  0  0  0  0  0  0  0
   90.3082  223.9871  307.6386 C   0  0  0  0  0  0  0  0  0  0  0  0
   89.2375  223.7722  308.7099 C   0  0  0  0  0  0  0  0  0  0  0  0
   88.8586  222.2942  308.8204 C   0  0  0  0  0  0  0  0  0  0  0  0
   87.6642  222.0420  309.7460 C   0  0  0  0  0  0  0  0  0  0  0  0
   87.6829  220.6579  310.4002 C   0  0  0  0  0  0  0  0  0  0  0  0
   86.6710  220.5227  311.5435 C   0  0  0  0  0  0  0  0  0  0  0  0
   86.3489  219.0867  311.9698 C   0  0  0  0  0  0  0  0  0  0  0  0
   85.3697  218.9539  313.1416 C   0  0  0  0  0  0  0  0  0  0  0  0
   85.9433  219.2631  314.5294 C   0  0  0  0  0  0  0  0  0  0  0  0
   86.5587  218.0773  315.2781 C   0  0  0  0  0  0  0  0  0  0  0  0
   87.0260  218.4131  316.6940 C   0  0  0  0  0  0  0  0  0  0  0  0
   88.5005  218.0393  316.8911 C   0  0  0  0  0  0  0  0  0  0  0  0
   89.0235  218.5453  318.2354 C   0  0  0  0  0  0  0  0  0  0  0  0
   90.3749  219.2713  318.1664 C   0  0  1  0  0  0  0  0  0  0  0  0
   90.0814  220.6245  317.7939 O   0  0  0  0  0  0  0  0  0  0  0  0
   91.2166  219.2553  319.4724 C   0  0  1  0  0  0  0  0  0  0  0  0
   91.8481  220.5389  319.6152 O   0  0  0  0  0  0  0  0  0  0  0  0
   90.4081  218.8740  320.7421 C   0  0  2  0  0  0  0  0  0  0  0  0
   91.2444  218.2772  321.8976 C   0  0  0  0  0  0  0  0  0  0  0  0
   92.0486  219.2605  322.5832 O   0  0  0  0  0  0  0  0  0  0  0  0
   93.3079  218.7637  323.0592 C   0  0  2  0  0  0  0  0  0  0  0  0
   94.0447  218.4462  320.7343 O   0  0  0  0  0  0  0  0  0  0  0  0
   96.2423  219.3651  323.4965 O   0  0  0  0  0  0  0  0  0  0  0  0
   94.4064  216.7228  323.7269 C   0  0  2  0  0  0  0  0  0  0  0  0
   93.7222  216.0851  326.0081 O   0  0  0  0  0  0  0  0  0  0  0  0
   96.8296  216.6147  323.5170 O   0  0  0  0  0  0  0  0  0  0  0  0
   97.8208  216.0722  322.6458 C   0  0  0  0  0  0  0  0  0  0  0  0
   97.2940  214.8074  322.0143 C   0  0  0  0  0  0  0  0  0  0  0  0
   96.8229  213.7604  322.8217 C   0  0  0  0  0  0  0  0  0  0  0  0
   96.2980  212.5962  322.2498 C   0  0  0  0  0  0  0  0  0  0  0  0
   95.7305  211.3616  323.3158 Cl  0  0  0  0  0  0  0  0  0  0  0  0
   96.2460  212.4679  320.8579 C   0  0  0  0  0  0  0  0  0  0  0  0
   95.6075  211.0674  320.0769 Cl  0  0  0  0  0  0  0  0  0  0  0  0
   96.7231  213.5030  320.0473 C   0  0  0  0  0  0  0  0  0  0  0  0
   97.2455  214.6654  320.6215 C   0  0  0  0  0  0  0  0  0  0  0  0
   89.2451  218.0038  320.4694 N   0  0  0  0  0  0  0  0  0  0  0  0
   87.9755  218.2466  320.9441 C   0  0  0  0  0  0  0  0  0  0  0  0
   87.6125  219.3291  321.3824 O   0  0  0  0  0  0  0  0  0  0  0  0
   87.1248  216.9895  320.9618 C   0  0  0  0  0  0  0  0  0  0  0  0
   86.3365  216.7912  322.2543 C   0  0  0  0  0  0  0  0  0  0  0  0
   84.9095  217.3194  322.0703 C   0  0  0  0  0  0  0  0  0  0  0  0
   83.8186  216.2540  322.2090 C   0  0  0  0  0  0  0  0  0  0  0  0
   83.1077  216.1900  323.5653 C   0  0  0  0  0  0  0  0  0  0  0  0
   82.0087  215.1273  323.6288 C   0  0  0  0  0  0  0  0  0  0  0  0
   82.5200  213.7213  323.9676 C   0  0  0  0  0  0  0  0  0  0  0  0
   81.6564  212.8835  324.9166 C   0  0  0  0  0  0  0  0  0  0  0  0
   82.3358  211.6433  325.5073 C   0  0  0  0  0  0  0  0  0  0  0  0
   82.3349  210.4266  324.5867 C   0  0  0  0  0  0  0  0  0  0  0  0
   81.9164  209.1581  325.3383 C   0  0  0  0  0  0  0  0  0  0  0  0
   82.8829  208.7903  326.4680 C   0  0  0  0  0  0  0  0  0  0  0  0
   83.6719  207.4956  326.2536 C   0  0  0  0  0  0  0  0  0  0  0  0
   84.3438  206.9121  327.4998 C   0  0  0  0  0  0  0  0  0  0  0  0
   84.3661  205.3819  327.5052 C   0  0  0  0  0  0  0  0  0  0  0  0
   85.0821  204.8344  328.7433 C   0  0  0  0  0  0  0  0  0  0  0  0
   85.1948  203.3060  328.7323 C   0  0  0  0  0  0  0  0  0  0  0  0
   86.2746  202.7894  329.6907 C   0  0  0  0  0  0  0  0  0  0  0  0
   87.6416  203.3924  329.3611 C   0  0  0  0  0  0  0  0  0  0  0  0
   88.7860  202.8142  330.2003 C   0  0  0  0  0  0  0  0  0  0  0  0
   88.8358  203.2502  331.6711 C   0  0  0  0  0  0  0  0  0  0  0  0
   90.2166  203.7413  332.1166 C   0  0  0  0  0  0  0  0  0  0  0  0
   90.2378  204.2554  333.5586 C   0  0  0  0  0  0  0  0  0  0  0  0
   90.8632  205.6419  333.6948 C   0  0  0  0  0  0  0  0  0  0  0  0
   90.6073  206.2308  335.0728 C   0  0  0  0  0  0  0  0  0  0  0  0
  2  1  1  0
 30  1  1  0
  1 32  1  1
  3  2  1  0
  2 29  1  1
 27  3  1  0
  3 28  1  6
 27  4  1  0
  4 30  1  0
 30  5  1  1
  5 31  1  0
  7  6  1  0
  8  7  1  0
  9  8  1  0
 10  9  1  0
 11 10  1  0
 12 11  1  0
 13 12  1  0
 14 13  1  0
 15 14  1  0
 16 15  1  0
 17 16  1  0
 18 17  1  0
 19 18  1  0
 20 19  1  0
 20 21  1  1
 22 20  1  0
 22 23  1  1
 24 22  1  0
 24 25  1  1
 24 42  1  0
 26 25  1  0
 27 26  1  6
 32 33  1  0
 33 34  1  0
 34 35  2  0
 34 41  1  0
 35 36  1  0
 36 37  1  0
 36 38  2  0
 38 39  1  0
 38 40  1  0
 40 41  2  0
 42 43  1  0
 43 44  2  0
 43 45  1  0
 45 46  1  0
 46 47  1  0
 47 48  1  0
 48 49  1  0
 49 50  1  0
 50 51  1  0
 51 52  1  0
 52 53  1  0
 53 54  1  0
 54 55  1  0
 55 56  1  0
 56 57  1  0
 57 58  1  0
 58 59  1  0
 59 60  1  0
 60 61  1  0
 61 62  1  0
 62 63  1  0
 63 64  1  0
 64 65  1  0
 65 66  1  0
 66 67  1  0
 67 68  1  0
 68 69  1  0
M  END
$$$$
