
     RDKit          3D

 69 70  0  0  0  0  0  0  0  0999 V2000
   91.9891  214.7427  322.4666 C   0  0  2  0  0  0  0  0  0  0  0  0
   92.5310  214.9308  323.8977 C   0  0  1  0  0  0  0  0  0  0  0  0
   93.2926  216.2489  324.0251 C   0  0  2  0  0  0  0  0  0  0  0  0
   92.0700  217.2051  322.1450 O   0  0  0  0  0  0  0  0  0  0  0  0
   89.8257  216.1839  322.2184 C   0  0  0  0  0  0  0  0  0  0  0  0
   94.0267  231.5657  324.2540 C   0  0  0  0  0  0  0  0  0  0  0  0
   93.7417  231.3830  322.7725 C   0  0  0  0  0  0  0  0  0  0  0  0
   94.9532  231.7567  321.9165 C   0  0  0  0  0  0  0  0  0  0  0  0
   94.6547  231.5668  320.4281 C   0  0  0  0  0  0  0  0  0  0  0  0
   95.3264  230.3274  319.8283 C   0  0  0  0  0  0  0  0  0  0  0  0
   96.4762  229.7853  320.6818 C   0  0  0  0  0  0  0  0  0  0  0  0
   97.0477  228.4671  320.1481 C   0  0  0  0  0  0  0  0  0  0  0  0
   98.4568  228.5547  319.5528 C   0  0  0  0  0  0  0  0  0  0  0  0
   99.1534  227.2102  319.3146 C   0  0  0  0  0  0  0  0  0  0  0  0
   98.5365  226.0025  320.0299 C   0  0  0  0  0  0  0  0  0  0  0  0
   99.1985  224.6500  319.7512 C   0  0  0  0  0  0  0  0  0  0  0  0
   98.2075  223.5016  319.5638 C   0  0  0  0  0  0  0  0  0  0  0  0
   97.9922  222.7393  320.8772 C   0  0  0  0  0  0  0  0  0  0  0  0
   96.5124  222.4261  321.0978 C   0  0  0  0  0  0  0  0  0  0  0  0
   96.1872  220.9327  321.2450 C   0  0  1  0  0  0  0  0  0  0  0  0
   97.4274  220.2839  321.5563 O   0  0  0  0  0  0  0  0  0  0  0  0
   95.1226  220.5768  322.3194 C   0  0  1  0  0  0  0  0  0  0  0  0
   94.9709  221.7083  323.1931 O   0  0  0  0  0  0  0  0  0  0  0  0
   93.7582  220.1233  321.7328 C   0  0  2  0  0  0  0  0  0  0  0  0
   92.7054  219.6910  322.7793 C   0  0  0  0  0  0  0  0  0  0  0  0
   93.1637  218.6259  323.6393 O   0  0  0  0  0  0  0  0  0  0  0  0
   92.4108  217.4097  323.5235 C   0  0  2  0  0  0  0  0  0  0  0  0
   94.5085  216.1538  323.2571 O   0  0  0  0  0  0  0  0  0  0  0  0
   91.5184  214.8670  324.9024 O   0  0  0  0  0  0  0  0  0  0  0  0
   91.3192  216.0082  321.8919 C   0  0  2  0  0  0  0  0  0  0  0  0
   89.0702  216.6346  321.0994 O   0  0  0  0  0  0  0  0  0  0  0  0
   91.0688  213.6427  322.4105 O   0  0  0  0  0  0  0  0  0  0  0  0
   91.6902  212.3710  322.2297 C   0  0  0  0  0  0  0  0  0  0  0  0
   90.6341  211.2939  322.2268 C   0  0  0  0  0  0  0  0  0  0  0  0
   89.2964  211.6196  321.9536 C   0  0  0  0  0  0  0  0  0  0  0  0
   88.3120  210.6261  321.9117 C   0  0  0  0  0  0  0  0  0  0  0  0
   86.6930  211.1122  321.5579 Cl  0  0  0  0  0  0  0  0  0  0  0  0
   88.6598  209.2924  322.1504 C   0  0  0  0  0  0  0  0  0  0  0  0
   87.5058  208.0096  322.1102 Cl  0  0  0  0  0  0  0  0  0  0  0  0
   89.9890  208.9619  322.4335 C   0  0  0  0  0  0  0  0  0  0  0  0
   90.9704  209.9564  322.4731 C   0  0  0  0  0  0  0  0  0  0  0  0
   93.8742  219.0857  320.6868 N   0  0  0  0  0  0  0  0  0  0  0  0
   94.0770  219.3589  319.3524 C   0  0  0  0  0  0  0  0  0  0  0  0
   93.9891  220.4794  318.8701 O   0  0  0  0  0  0  0  0  0  0  0  0
   94.3088  218.0964  318.5422 C   0  0  0  0  0  0  0  0  0  0  0  0
   93.4846  218.0219  317.2589 C   0  0  0  0  0  0  0  0  0  0  0  0
   92.4862  216.8634  317.3576 C   0  0  0  0  0  0  0  0  0  0  0  0
   91.3159  216.9523  316.3743 C   0  0  0  0  0  0  0  0  0  0  0  0
   90.1175  216.0435  316.6689 C   0  0  0  0  0  0  0  0  0  0  0  0
   88.9486  216.2422  315.7018 C   0  0  0  0  0  0  0  0  0  0  0  0
   87.7825  217.0468  316.2902 C   0  0  0  0  0  0  0  0  0  0  0  0
   86.9136  217.8275  315.2984 C   0  0  0  0  0  0  0  0  0  0  0  0
   85.7587  218.6236  315.9158 C   0  0  0  0  0  0  0  0  0  0  0  0
   84.9258  219.4089  314.9072 C   0  0  0  0  0  0  0  0  0  0  0  0
   83.7981  218.5496  314.3248 C   0  0  0  0  0  0  0  0  0  0  0  0
   83.1328  219.1902  313.1031 C   0  0  0  0  0  0  0  0  0  0  0  0
   82.1212  220.2957  313.4179 C   0  0  0  0  0  0  0  0  0  0  0  0
   81.4022  220.9030  312.2099 C   0  0  0  0  0  0  0  0  0  0  0  0
   80.3537  221.9467  312.6015 C   0  0  0  0  0  0  0  0  0  0  0  0
   79.6783  222.5552  311.3690 C   0  0  0  0  0  0  0  0  0  0  0  0
   80.6585  223.3282  310.4800 C   0  0  0  0  0  0  0  0  0  0  0  0
   79.9591  224.0450  309.3190 C   0  0  0  0  0  0  0  0  0  0  0  0
   79.8683  223.1435  308.0861 C   0  0  0  0  0  0  0  0  0  0  0  0
   80.5229  223.7436  306.8372 C   0  0  0  0  0  0  0  0  0  0  0  0
   82.0207  224.0623  306.9432 C   0  0  0  0  0  0  0  0  0  0  0  0
   82.6177  224.6288  305.6514 C   0  0  0  0  0  0  0  0  0  0  0  0
   84.0991  224.9938  305.7807 C   0  0  0  0  0  0  0  0  0  0  0  0
   84.4246  226.3882  305.2505 C   0  0  0  0  0  0  0  0  0  0  0  0
   84.7428  227.3501  306.3841 C   0  0  0  0  0  0  0  0  0  0  0  0
  2  1  1  0
 30  1  1  0
  1 32  1  1
  3  2  1  0
  2 29  1  1
 27  3  1  0
  3 28  1  6
 27  4  1  0
  4 30  1  0
 30  5  1  1
  5 31  1  0
  7  6  1  0
  8  7  1  0
  9  8  1  0
 10  9  1  0
 11 10  1  0
 12 11  1  0
 13 12  1  0
 14 13  1  0
 15 14  1  0
 16 15  1  0
 17 16  1  0
 18 17  1  0
 19 18  1  0
 20 19  1  0
 20 21  1  1
 22 20  1  0
 22 23  1  1
 24 22  1  0
 24 25  1  1
 24 42  1  0
 26 25  1  0
 27 26  1  6
 32 33  1  0
 33 34  1  0
 34 35  2  0
 34 41  1  0
 35 36  1  0
 36 37  1  0
 36 38  2  0
 38 39  1  0
 38 40  1  0
 40 41  2  0
 42 43  1  0
 43 44  2  0
 43 45  1  0
 45 46  1  0
 46 47  1  0
 47 48  1  0
 48 49  1  0
 49 50  1  0
 50 51  1  0
 51 52  1  0
 52 53  1  0
 53 54  1  0
 54 55  1  0
 55 56  1  0
 56 57  1  0
 57 58  1  0
 58 59  1  0
 59 60  1  0
 60 61  1  0
 61 62  1  0
 62 63  1  0
 63 64  1  0
 64 65  1  0
 65 66  1  0
 66 67  1  0
 67 68  1  0
 68 69  1  0
M  END
$$$$
