
     RDKit          3D

 69 70  0  0  0  0  0  0  0  0999 V2000
   95.6746  221.3096  323.5040 C   0  0  2  0  0  0  0  0  0  0  0  0
   96.2226  220.7668  324.8390 C   0  0  1  0  0  0  0  0  0  0  0  0
   96.1375  219.2424  324.8855 C   0  0  2  0  0  0  0  0  0  0  0  0
   96.1449  219.1087  322.4512 O   0  0  0  0  0  0  0  0  0  0  0  0
   97.5204  221.0065  321.6819 C   0  0  0  0  0  0  0  0  0  0  0  0
   79.1404  207.6843  323.5940 C   0  0  0  0  0  0  0  0  0  0  0  0
   79.7157  209.0370  323.2087 C   0  0  0  0  0  0  0  0  0  0  0  0
   81.1835  209.1620  323.6212 C   0  0  0  0  0  0  0  0  0  0  0  0
   81.7621  210.5121  323.1934 C   0  0  0  0  0  0  0  0  0  0  0  0
   83.2327  210.6925  323.5833 C   0  0  0  0  0  0  0  0  0  0  0  0
   83.4339  211.6163  324.7875 C   0  0  0  0  0  0  0  0  0  0  0  0
   84.9082  211.7885  325.1698 C   0  0  0  0  0  0  0  0  0  0  0  0
   85.5448  213.1180  324.7515 C   0  0  0  0  0  0  0  0  0  0  0  0
   87.0093  213.0332  324.3070 C   0  0  0  0  0  0  0  0  0  0  0  0
   87.9421  212.2391  325.2289 C   0  0  0  0  0  0  0  0  0  0  0  0
   89.4418  212.4747  325.0269 C   0  0  0  0  0  0  0  0  0  0  0  0
   89.7820  213.2458  323.7520 C   0  0  0  0  0  0  0  0  0  0  0  0
   91.2160  212.9506  323.2950 C   0  0  0  0  0  0  0  0  0  0  0  0
   92.1002  214.1919  323.4142 C   0  0  0  0  0  0  0  0  0  0  0  0
   93.6088  213.9151  323.3401 C   0  0  1  0  0  0  0  0  0  0  0  0
   93.8686  213.4812  321.9984 O   0  0  0  0  0  0  0  0  0  0  0  0
   94.5326  215.1131  323.6943 C   0  0  1  0  0  0  0  0  0  0  0  0
   95.7297  214.5939  324.2976 O   0  0  0  0  0  0  0  0  0  0  0  0
   94.8571  216.0398  322.4912 C   0  0  2  0  0  0  0  0  0  0  0  0
   96.3000  216.5944  322.4608 C   0  0  0  0  0  0  0  0  0  0  0  0
   96.6954  217.2166  323.7019 O   0  0  0  0  0  0  0  0  0  0  0  0
   96.8115  218.6453  323.6340 C   0  0  2  0  0  0  0  0  0  0  0  0
   94.7495  218.8609  324.9572 O   0  0  0  0  0  0  0  0  0  0  0  0
   97.5624  221.1776  325.1129 O   0  0  0  0  0  0  0  0  0  0  0  0
   96.1800  220.5323  322.2708 C   0  0  2  0  0  0  0  0  0  0  0  0
   97.4567  221.2156  320.2754 O   0  0  0  0  0  0  0  0  0  0  0  0
   95.9837  222.7032  323.3550 O   0  0  0  0  0  0  0  0  0  0  0  0
   95.3149  223.3357  322.2648 C   0  0  0  0  0  0  0  0  0  0  0  0
   95.4930  224.8302  322.3675 C   0  0  0  0  0  0  0  0  0  0  0  0
   95.1826  225.4960  323.5635 C   0  0  0  0  0  0  0  0  0  0  0  0
   95.3769  226.8764  323.6854 C   0  0  0  0  0  0  0  0  0  0  0  0
   94.9793  227.6144  325.1953 Cl  0  0  0  0  0  0  0  0  0  0  0  0
   95.8802  227.6058  322.6033 C   0  0  0  0  0  0  0  0  0  0  0  0
   96.1538  229.3084  322.6768 Cl  0  0  0  0  0  0  0  0  0  0  0  0
   96.1819  226.9506  321.4050 C   0  0  0  0  0  0  0  0  0  0  0  0
   95.9883  225.5713  321.2867 C   0  0  0  0  0  0  0  0  0  0  0  0
   93.8950  217.1480  322.3158 N   0  0  0  0  0  0  0  0  0  0  0  0
   93.2979  217.4646  321.1161 C   0  0  0  0  0  0  0  0  0  0  0  0
   93.8729  218.0461  320.2066 O   0  0  0  0  0  0  0  0  0  0  0  0
   91.8223  217.1089  321.1038 C   0  0  0  0  0  0  0  0  0  0  0  0
   91.1338  217.3610  319.7644 C   0  0  0  0  0  0  0  0  0  0  0  0
   90.7986  216.0210  319.1003 C   0  0  0  0  0  0  0  0  0  0  0  0
   90.6864  216.0826  317.5745 C   0  0  0  0  0  0  0  0  0  0  0  0
   89.5746  215.2356  316.9457 C   0  0  0  0  0  0  0  0  0  0  0  0
   88.3362  216.0457  316.5566 C   0  0  0  0  0  0  0  0  0  0  0  0
   87.2392  215.2186  315.8743 C   0  0  0  0  0  0  0  0  0  0  0  0
   87.0392  215.4443  314.3719 C   0  0  0  0  0  0  0  0  0  0  0  0
   87.8657  216.5797  313.7585 C   0  0  0  0  0  0  0  0  0  0  0  0
   87.5047  216.9113  312.3136 C   0  0  0  0  0  0  0  0  0  0  0  0
   87.2928  218.4172  312.1225 C   0  0  0  0  0  0  0  0  0  0  0  0
   85.8365  218.8436  312.3295 C   0  0  0  0  0  0  0  0  0  0  0  0
   85.5700  220.3439  312.1786 C   0  0  0  0  0  0  0  0  0  0  0  0
   85.0104  220.7870  310.8237 C   0  0  0  0  0  0  0  0  0  0  0  0
   83.4809  220.8291  310.7940 C   0  0  0  0  0  0  0  0  0  0  0  0
   82.9644  222.2079  310.3730 C   0  0  0  0  0  0  0  0  0  0  0  0
   81.5426  222.4839  310.8739 C   0  0  0  0  0  0  0  0  0  0  0  0
   80.6069  222.9569  309.7550 C   0  0  0  0  0  0  0  0  0  0  0  0
   79.1853  223.1746  310.2774 C   0  0  0  0  0  0  0  0  0  0  0  0
   78.1022  222.9715  309.2126 C   0  0  0  0  0  0  0  0  0  0  0  0
   76.6489  223.0402  309.7015 C   0  0  0  0  0  0  0  0  0  0  0  0
   75.6763  222.2254  308.8433 C   0  0  0  0  0  0  0  0  0  0  0  0
   75.9278  220.7168  308.9137 C   0  0  0  0  0  0  0  0  0  0  0  0
   75.0435  219.9134  307.9627 C   0  0  0  0  0  0  0  0  0  0  0  0
   75.4102  218.4382  307.9801 C   0  0  0  0  0  0  0  0  0  0  0  0
  2  1  1  0
 30  1  1  0
  1 32  1  6
  3  2  1  0
  2 29  1  6
 27  3  1  0
  3 28  1  6
 27  4  1  0
  4 30  1  0
 30  5  1  1
  5 31  1  0
  7  6  1  0
  8  7  1  0
  9  8  1  0
 10  9  1  0
 11 10  1  0
 12 11  1  0
 13 12  1  0
 14 13  1  0
 15 14  1  0
 16 15  1  0
 17 16  1  0
 18 17  1  0
 19 18  1  0
 20 19  1  0
 20 21  1  6
 22 20  1  0
 22 23  1  6
 24 22  1  0
 24 25  1  1
 24 42  1  0
 26 25  1  0
 27 26  1  1
 32 33  1  0
 33 34  1  0
 34 35  2  0
 34 41  1  0
 35 36  1  0
 36 37  1  0
 36 38  2  0
 38 39  1  0
 38 40  1  0
 40 41  2  0
 42 43  1  0
 43 44  2  0
 43 45  1  0
 45 46  1  0
 46 47  1  0
 47 48  1  0
 48 49  1  0
 49 50  1  0
 50 51  1  0
 51 52  1  0
 52 53  1  0
 53 54  1  0
 54 55  1  0
 55 56  1  0
 56 57  1  0
 57 58  1  0
 58 59  1  0
 59 60  1  0
 60 61  1  0
 61 62  1  0
 62 63  1  0
 63 64  1  0
 64 65  1  0
 65 66  1  0
 66 67  1  0
 67 68  1  0
 68 69  1  0
M  END
$$$$
