
     RDKit          3D

 69 70  0  0  0  0  0  0  0  0999 V2000
   97.5331  216.8541  325.4576 C   0  0  2  0  0  0  0  0  0  0  0  0
   98.5691  217.5828  324.5784 C   0  0  1  0  0  0  0  0  0  0  0  0
   97.9661  217.9687  323.2290 C   0  0  2  0  0  0  0  0  0  0  0  0
   95.7135  217.9409  324.1610 O   0  0  0  0  0  0  0  0  0  0  0  0
   95.9544  218.6468  326.5124 C   0  0  0  0  0  0  0  0  0  0  0  0
   85.1522  217.8059  306.8857 C   0  0  0  0  0  0  0  0  0  0  0  0
   84.2752  217.7937  308.1265 C   0  0  0  0  0  0  0  0  0  0  0  0
   84.8238  216.8447  309.1936 C   0  0  0  0  0  0  0  0  0  0  0  0
   86.2553  217.2206  309.5807 C   0  0  0  0  0  0  0  0  0  0  0  0
   86.7316  216.5456  310.8710 C   0  0  0  0  0  0  0  0  0  0  0  0
   86.5128  217.4011  312.1218 C   0  0  0  0  0  0  0  0  0  0  0  0
   86.5848  216.5909  313.4210 C   0  0  0  0  0  0  0  0  0  0  0  0
   86.7502  217.4158  314.7016 C   0  0  0  0  0  0  0  0  0  0  0  0
   88.1629  217.4281  315.2964 C   0  0  0  0  0  0  0  0  0  0  0  0
   88.2966  216.8541  316.7118 C   0  0  0  0  0  0  0  0  0  0  0  0
   89.6635  217.0315  317.3792 C   0  0  0  0  0  0  0  0  0  0  0  0
   90.4226  218.2746  316.9166 C   0  0  0  0  0  0  0  0  0  0  0  0
   90.5542  219.2953  318.0539 C   0  0  0  0  0  0  0  0  0  0  0  0
   91.6110  218.8586  319.0684 C   0  0  0  0  0  0  0  0  0  0  0  0
   91.7447  219.7769  320.2918 C   0  0  1  0  0  0  0  0  0  0  0  0
   91.0111  219.1425  321.3479 O   0  0  0  0  0  0  0  0  0  0  0  0
   93.1970  220.0686  320.7609 C   0  0  1  0  0  0  0  0  0  0  0  0
   93.3283  221.4863  320.9598 O   0  0  0  0  0  0  0  0  0  0  0  0
   93.6260  219.2741  322.0242 C   0  0  2  0  0  0  0  0  0  0  0  0
   94.8827  218.3909  321.8484 C   0  0  0  0  0  0  0  0  0  0  0  0
   96.1106  219.0814  322.1637 O   0  0  0  0  0  0  0  0  0  0  0  0
   96.6576  218.7536  323.4493 C   0  0  2  0  0  0  0  0  0  0  0  0
   97.7268  216.7664  322.4712 O   0  0  0  0  0  0  0  0  0  0  0  0
   99.1276  218.7411  325.1991 O   0  0  0  0  0  0  0  0  0  0  0  0
   96.1483  217.5342  325.4671 C   0  0  2  0  0  0  0  0  0  0  0  0
   95.3400  218.1748  327.7065 O   0  0  0  0  0  0  0  0  0  0  0  0
   98.0124  216.7182  326.8036 O   0  0  0  0  0  0  0  0  0  0  0  0
   99.0981  215.8034  326.9466 C   0  0  0  0  0  0  0  0  0  0  0  0
   98.6590  214.4315  326.4980 C   0  0  0  0  0  0  0  0  0  0  0  0
   98.3021  213.4609  327.4470 C   0  0  0  0  0  0  0  0  0  0  0  0
   97.8585  212.1962  327.0450 C   0  0  0  0  0  0  0  0  0  0  0  0
   97.4290  211.0652  328.2775 Cl  0  0  0  0  0  0  0  0  0  0  0  0
   97.7741  211.8896  325.6829 C   0  0  0  0  0  0  0  0  0  0  0  0
   97.2305  210.3558  325.1074 Cl  0  0  0  0  0  0  0  0  0  0  0  0
   98.1380  212.8484  324.7319 C   0  0  0  0  0  0  0  0  0  0  0  0
   98.5794  214.1115  325.1365 C   0  0  0  0  0  0  0  0  0  0  0  0
   92.5370  218.4750  322.6242 N   0  0  0  0  0  0  0  0  0  0  0  0
   91.2395  218.9180  322.7524 C   0  0  0  0  0  0  0  0  0  0  0  0
   90.9347  219.9728  323.2911 O   0  0  0  0  0  0  0  0  0  0  0  0
   90.2370  217.8949  322.2499 C   0  0  0  0  0  0  0  0  0  0  0  0
   88.7947  218.3958  322.2314 C   0  0  0  0  0  0  0  0  0  0  0  0
   88.0866  217.9670  323.5212 C   0  0  0  0  0  0  0  0  0  0  0  0
   87.9232  216.4529  323.6789 C   0  0  0  0  0  0  0  0  0  0  0  0
   87.1508  215.9836  324.9167 C   0  0  0  0  0  0  0  0  0  0  0  0
   85.7150  215.5509  324.6125 C   0  0  0  0  0  0  0  0  0  0  0  0
   85.4691  214.0459  324.7787 C   0  0  0  0  0  0  0  0  0  0  0  0
   84.0479  213.5446  324.5013 C   0  0  0  0  0  0  0  0  0  0  0  0
   83.6590  212.2388  325.2031 C   0  0  0  0  0  0  0  0  0  0  0  0
   82.2770  212.2592  325.8492 C   0  0  0  0  0  0  0  0  0  0  0  0
   82.0009  210.9622  326.6178 C   0  0  0  0  0  0  0  0  0  0  0  0
   82.7577  209.7597  326.0461 C   0  0  0  0  0  0  0  0  0  0  0  0
   83.5243  208.9241  327.0751 C   0  0  0  0  0  0  0  0  0  0  0  0
   83.0120  207.4967  327.2874 C   0  0  0  0  0  0  0  0  0  0  0  0
   83.9682  206.4321  326.7448 C   0  0  0  0  0  0  0  0  0  0  0  0
   84.7998  206.9669  325.5753 C   0  0  0  0  0  0  0  0  0  0  0  0
   85.9034  205.9954  325.1428 C   0  0  0  0  0  0  0  0  0  0  0  0
   85.3438  204.6872  324.5713 C   0  0  0  0  0  0  0  0  0  0  0  0
   85.5702  204.6017  323.0605 C   0  0  0  0  0  0  0  0  0  0  0  0
   84.3252  204.1732  322.2766 C   0  0  0  0  0  0  0  0  0  0  0  0
   84.2942  202.7155  321.7968 C   0  0  0  0  0  0  0  0  0  0  0  0
   83.8842  202.5640  320.3286 C   0  0  0  0  0  0  0  0  0  0  0  0
   84.0149  201.1292  319.8108 C   0  0  0  0  0  0  0  0  0  0  0  0
   82.7069  200.3439  319.8748 C   0  0  0  0  0  0  0  0  0  0  0  0
   81.5173  201.2217  319.5204 C   0  0  0  0  0  0  0  0  0  0  0  0
  2  1  1  0
 30  1  1  0
  1 32  1  1
  3  2  1  0
  2 29  1  1
 27  3  1  0
  3 28  1  6
 27  4  1  0
  4 30  1  0
 30  5  1  1
  5 31  1  0
  7  6  1  0
  8  7  1  0
  9  8  1  0
 10  9  1  0
 11 10  1  0
 12 11  1  0
 13 12  1  0
 14 13  1  0
 15 14  1  0
 16 15  1  0
 17 16  1  0
 18 17  1  0
 19 18  1  0
 20 19  1  0
 20 21  1  1
 22 20  1  0
 22 23  1  1
 24 22  1  0
 24 25  1  6
 24 42  1  0
 26 25  1  0
 27 26  1  6
 32 33  1  0
 33 34  1  0
 34 35  2  0
 34 41  1  0
 35 36  1  0
 36 37  1  0
 36 38  2  0
 38 39  1  0
 38 40  1  0
 40 41  2  0
 42 43  1  0
 43 44  2  0
 43 45  1  0
 45 46  1  0
 46 47  1  0
 47 48  1  0
 48 49  1  0
 49 50  1  0
 50 51  1  0
 51 52  1  0
 52 53  1  0
 53 54  1  0
 54 55  1  0
 55 56  1  0
 56 57  1  0
 57 58  1  0
 58 59  1  0
 59 60  1  0
 60 61  1  0
 61 62  1  0
 62 63  1  0
 63 64  1  0
 64 65  1  0
 65 66  1  0
 66 67  1  0
 67 68  1  0
 68 69  1  0
M  END
$$$$
