
     RDKit          3D

 69 70  0  0  0  0  0  0  0  0999 V2000
   92.8605  216.6947  320.4909 C   0  0  2  0  0  0  0  0  0  0  0  0
   92.9489  217.8218  319.4425 C   0  0  1  0  0  0  0  0  0  0  0  0
   92.0565  218.9997  319.8295 C   0  0  2  0  0  0  0  0  0  0  0  0
   92.1399  218.3660  322.1823 O   0  0  0  0  0  0  0  0  0  0  0  0
   94.3628  217.3524  322.5230 C   0  0  0  0  0  0  0  0  0  0  0  0
   94.5207  209.2304  324.4809 C   0  0  0  0  0  0  0  0  0  0  0  0
   93.1149  209.7841  324.6437 C   0  0  0  0  0  0  0  0  0  0  0  0
   92.0683  208.6684  324.6494 C   0  0  0  0  0  0  0  0  0  0  0  0
   91.3187  208.6241  325.9823 C   0  0  0  0  0  0  0  0  0  0  0  0
   89.8098  208.4126  325.8227 C   0  0  0  0  0  0  0  0  0  0  0  0
   88.9685  209.3465  326.6967 C   0  0  0  0  0  0  0  0  0  0  0  0
   88.2020  210.3968  325.8850 C   0  0  0  0  0  0  0  0  0  0  0  0
   86.7173  210.5425  326.2344 C   0  0  0  0  0  0  0  0  0  0  0  0
   86.1144  211.9273  325.9727 C   0  0  0  0  0  0  0  0  0  0  0  0
   85.3260  212.0764  324.6662 C   0  0  0  0  0  0  0  0  0  0  0  0
   85.8407  213.1399  323.6920 C   0  0  0  0  0  0  0  0  0  0  0  0
   86.0015  214.5260  324.3155 C   0  0  0  0  0  0  0  0  0  0  0  0
   87.0105  215.3712  323.5280 C   0  0  0  0  0  0  0  0  0  0  0  0
   87.6519  216.4363  324.4173 C   0  0  0  0  0  0  0  0  0  0  0  0
   87.9723  217.7588  323.7058 C   0  0  1  0  0  0  0  0  0  0  0  0
   87.7306  218.7961  324.6658 O   0  0  0  0  0  0  0  0  0  0  0  0
   89.4140  217.8891  323.1413 C   0  0  1  0  0  0  0  0  0  0  0  0
   89.7995  216.6160  322.5962 O   0  0  0  0  0  0  0  0  0  0  0  0
   89.5862  219.0295  322.1015 C   0  0  2  0  0  0  0  0  0  0  0  0
   90.4809  220.2047  322.5588 C   0  0  0  0  0  0  0  0  0  0  0  0
   91.5115  220.5384  321.6047 O   0  0  0  0  0  0  0  0  0  0  0  0
   92.3799  219.4463  321.2693 C   0  0  2  0  0  0  0  0  0  0  0  0
   90.6792  218.5917  319.7117 O   0  0  0  0  0  0  0  0  0  0  0  0
   94.2802  218.2867  319.2180 O   0  0  0  0  0  0  0  0  0  0  0  0
   92.9443  217.2010  321.9459 C   0  0  2  0  0  0  0  0  0  0  0  0
   94.3988  217.1888  323.9366 O   0  0  0  0  0  0  0  0  0  0  0  0
   93.8775  215.7075  320.2649 O   0  0  0  0  0  0  0  0  0  0  0  0
   93.6001  214.8219  319.1811 C   0  0  0  0  0  0  0  0  0  0  0  0
   92.6150  213.7722  319.6320 C   0  0  0  0  0  0  0  0  0  0  0  0
   92.8481  213.0478  320.8115 C   0  0  0  0  0  0  0  0  0  0  0  0
   91.9256  212.0967  321.2614 C   0  0  0  0  0  0  0  0  0  0  0  0
   92.2851  211.2583  322.7278 Cl  0  0  0  0  0  0  0  0  0  0  0  0
   90.7594  211.8577  320.5270 C   0  0  0  0  0  0  0  0  0  0  0  0
   89.5708  210.7068  321.0188 Cl  0  0  0  0  0  0  0  0  0  0  0  0
   90.5255  212.5684  319.3453 C   0  0  0  0  0  0  0  0  0  0  0  0
   91.4482  213.5190  318.8992 C   0  0  0  0  0  0  0  0  0  0  0  0
   88.3088  219.5534  321.5742 N   0  0  0  0  0  0  0  0  0  0  0  0
   87.8154  219.2589  320.3228 C   0  0  0  0  0  0  0  0  0  0  0  0
   88.2452  218.3536  319.6217 O   0  0  0  0  0  0  0  0  0  0  0  0
   86.7607  220.2559  319.8781 C   0  0  0  0  0  0  0  0  0  0  0  0
   85.4723  219.6124  319.3708 C   0  0  0  0  0  0  0  0  0  0  0  0
   85.2712  219.9643  317.8927 C   0  0  0  0  0  0  0  0  0  0  0  0
   83.8717  219.6546  317.3543 C   0  0  0  0  0  0  0  0  0  0  0  0
   83.7867  218.5526  316.2925 C   0  0  0  0  0  0  0  0  0  0  0  0
   83.7977  219.0850  314.8582 C   0  0  0  0  0  0  0  0  0  0  0  0
   84.7521  218.3334  313.9214 C   0  0  0  0  0  0  0  0  0  0  0  0
   84.2120  217.0585  313.2648 C   0  0  0  0  0  0  0  0  0  0  0  0
   84.4558  216.9378  311.7566 C   0  0  0  0  0  0  0  0  0  0  0  0
   85.6891  217.6840  311.2567 C   0  0  0  0  0  0  0  0  0  0  0  0
   85.8457  217.5495  309.7379 C   0  0  0  0  0  0  0  0  0  0  0  0
   87.0532  218.3188  309.1944 C   0  0  0  0  0  0  0  0  0  0  0  0
   86.7975  219.7965  308.8843 C   0  0  0  0  0  0  0  0  0  0  0  0
   88.0335  220.7006  308.8889 C   0  0  0  0  0  0  0  0  0  0  0  0
   87.7058  222.1616  308.5723 C   0  0  0  0  0  0  0  0  0  0  0  0
   88.7375  223.1144  309.1833 C   0  0  0  0  0  0  0  0  0  0  0  0
   88.2999  224.5814  309.1142 C   0  0  0  0  0  0  0  0  0  0  0  0
   89.0307  225.4614  310.1353 C   0  0  0  0  0  0  0  0  0  0  0  0
   88.5012  226.8967  310.1083 C   0  0  0  0  0  0  0  0  0  0  0  0
   89.6057  227.9588  310.1244 C   0  0  0  0  0  0  0  0  0  0  0  0
   90.2773  228.2594  308.7773 C   0  0  0  0  0  0  0  0  0  0  0  0
   91.2687  229.4258  308.8356 C   0  0  0  0  0  0  0  0  0  0  0  0
   92.2176  229.3516  310.0349 C   0  0  0  0  0  0  0  0  0  0  0  0
   93.1684  230.5431  310.1255 C   0  0  0  0  0  0  0  0  0  0  0  0
   92.4130  231.8601  310.0475 C   0  0  0  0  0  0  0  0  0  0  0  0
  2  1  1  0
 30  1  1  0
  1 32  1  6
  3  2  1  0
  2 29  1  1
 27  3  1  0
  3 28  1  1
 27  4  1  0
  4 30  1  0
 30  5  1  6
  5 31  1  0
  7  6  1  0
  8  7  1  0
  9  8  1  0
 10  9  1  0
 11 10  1  0
 12 11  1  0
 13 12  1  0
 14 13  1  0
 15 14  1  0
 16 15  1  0
 17 16  1  0
 18 17  1  0
 19 18  1  0
 20 19  1  0
 20 21  1  1
 22 20  1  0
 22 23  1  6
 24 22  1  0
 24 25  1  1
 24 42  1  0
 26 25  1  0
 27 26  1  1
 32 33  1  0
 33 34  1  0
 34 35  2  0
 34 41  1  0
 35 36  1  0
 36 37  1  0
 36 38  2  0
 38 39  1  0
 38 40  1  0
 40 41  2  0
 42 43  1  0
 43 44  2  0
 43 45  1  0
 45 46  1  0
 46 47  1  0
 47 48  1  0
 48 49  1  0
 49 50  1  0
 50 51  1  0
 51 52  1  0
 52 53  1  0
 53 54  1  0
 54 55  1  0
 55 56  1  0
 56 57  1  0
 57 58  1  0
 58 59  1  0
 59 60  1  0
 60 61  1  0
 61 62  1  0
 62 63  1  0
 63 64  1  0
 64 65  1  0
 65 66  1  0
 66 67  1  0
 67 68  1  0
 68 69  1  0
M  END
$$$$
