
     RDKit          3D

 69 70  0  0  0  0  0  0  0  0999 V2000
   88.2591  215.7105  321.7004 C   0  0  2  0  0  0  0  0  0  0  0  0
   88.5462  216.6659  320.5248 C   0  0  1  0  0  0  0  0  0  0  0  0
   89.9373  217.2843  320.6502 C   0  0  2  0  0  0  0  0  0  0  0  0
   90.7056  215.4229  322.0244 O   0  0  0  0  0  0  0  0  0  0  0  0
   89.4675  213.4453  321.2234 C   0  0  0  0  0  0  0  0  0  0  0  0
   90.8597  210.3557  327.2402 C   0  0  0  0  0  0  0  0  0  0  0  0
   89.9868  210.2356  326.0021 C   0  0  0  0  0  0  0  0  0  0  0  0
   90.6179  210.9386  324.7988 C   0  0  0  0  0  0  0  0  0  0  0  0
   92.1184  210.6517  324.7187 C   0  0  0  0  0  0  0  0  0  0  0  0
   92.7538  211.1095  323.4019 C   0  0  0  0  0  0  0  0  0  0  0  0
   94.2840  211.1400  323.4428 C   0  0  0  0  0  0  0  0  0  0  0  0
   94.8354  212.1125  324.4915 C   0  0  0  0  0  0  0  0  0  0  0  0
   96.3464  212.0318  324.7326 C   0  0  0  0  0  0  0  0  0  0  0  0
   96.9237  213.1172  325.6483 C   0  0  0  0  0  0  0  0  0  0  0  0
   97.1166  214.4972  325.0088 C   0  0  0  0  0  0  0  0  0  0  0  0
   98.4555  215.1844  325.2921 C   0  0  0  0  0  0  0  0  0  0  0  0
   98.7610  216.3556  324.3589 C   0  0  0  0  0  0  0  0  0  0  0  0
   97.6717  216.5075  323.2899 C   0  0  0  0  0  0  0  0  0  0  0  0
   97.6384  217.9309  322.7336 C   0  0  0  0  0  0  0  0  0  0  0  0
   96.2565  218.4023  322.2582 C   0  0  1  0  0  0  0  0  0  0  0  0
   96.1483  217.9990  320.8865 O   0  0  0  0  0  0  0  0  0  0  0  0
   95.0443  217.8588  323.0641 C   0  0  1  0  0  0  0  0  0  0  0  0
   95.1650  218.3180  324.4211 O   0  0  0  0  0  0  0  0  0  0  0  0
   93.6635  218.2297  322.4581 C   0  0  2  0  0  0  0  0  0  0  0  0
   92.6664  217.0550  322.3302 C   0  0  0  0  0  0  0  0  0  0  0  0
   92.2759  216.7876  320.9665 O   0  0  0  0  0  0  0  0  0  0  0  0
   90.9873  216.1703  320.8327 C   0  0  2  0  0  0  0  0  0  0  0  0
   89.9401  218.1868  321.7739 O   0  0  0  0  0  0  0  0  0  0  0  0
   88.4133  216.0481  319.2444 O   0  0  0  0  0  0  0  0  0  0  0  0
   89.4320  214.7608  322.0211 C   0  0  2  0  0  0  0  0  0  0  0  0
   90.2202  212.4292  321.8770 O   0  0  0  0  0  0  0  0  0  0  0  0
   87.0712  214.9432  321.4552 O   0  0  0  0  0  0  0  0  0  0  0  0
   87.1507  214.0946  320.3109 C   0  0  0  0  0  0  0  0  0  0  0  0
   86.6256  214.8315  319.1038 C   0  0  0  0  0  0  0  0  0  0  0  0
   85.4211  215.5478  319.1847 C   0  0  0  0  0  0  0  0  0  0  0  0
   84.9401  216.2657  318.0843 C   0  0  0  0  0  0  0  0  0  0  0  0
   83.4558  217.1281  318.2729 Cl  0  0  0  0  0  0  0  0  0  0  0  0
   85.6616  216.2672  316.8860 C   0  0  0  0  0  0  0  0  0  0  0  0
   85.1386  217.1328  315.4872 Cl  0  0  0  0  0  0  0  0  0  0  0  0
   86.8574  215.5474  316.7950 C   0  0  0  0  0  0  0  0  0  0  0  0
   87.3362  214.8324  317.8965 C   0  0  0  0  0  0  0  0  0  0  0  0
   93.7516  218.9491  321.1701 N   0  0  0  0  0  0  0  0  0  0  0  0
   94.2468  220.2271  321.0359 C   0  0  0  0  0  0  0  0  0  0  0  0
   94.7119  220.8734  321.9641 O   0  0  0  0  0  0  0  0  0  0  0  0
   94.0431  220.7717  319.6338 C   0  0  0  0  0  0  0  0  0  0  0  0
   92.6036  221.1796  319.3290 C   0  0  0  0  0  0  0  0  0  0  0  0
   92.5990  222.5005  318.5516 C   0  0  0  0  0  0  0  0  0  0  0  0
   91.3334  222.7425  317.7246 C   0  0  0  0  0  0  0  0  0  0  0  0
   91.4056  223.8791  316.6990 C   0  0  0  0  0  0  0  0  0  0  0  0
   90.0354  224.3233  316.1829 C   0  0  0  0  0  0  0  0  0  0  0  0
   89.5624  223.5640  314.9366 C   0  0  0  0  0  0  0  0  0  0  0  0
   90.0823  224.0652  313.5851 C   0  0  0  0  0  0  0  0  0  0  0  0
   89.9846  223.0657  312.4276 C   0  0  0  0  0  0  0  0  0  0  0  0
   88.8350  222.0702  312.5511 C   0  0  0  0  0  0  0  0  0  0  0  0
   88.6100  221.3112  311.2386 C   0  0  0  0  0  0  0  0  0  0  0  0
   87.4649  221.8927  310.4044 C   0  0  0  0  0  0  0  0  0  0  0  0
   86.2728  220.9554  310.1926 C   0  0  0  0  0  0  0  0  0  0  0  0
   85.5578  220.4906  311.4645 C   0  0  0  0  0  0  0  0  0  0  0  0
   84.3708  219.5678  311.1792 C   0  0  0  0  0  0  0  0  0  0  0  0
   83.7378  219.0493  312.4737 C   0  0  0  0  0  0  0  0  0  0  0  0
   83.0282  217.7040  312.2861 C   0  0  0  0  0  0  0  0  0  0  0  0
   81.6137  217.8603  311.7151 C   0  0  0  0  0  0  0  0  0  0  0  0
   81.5233  219.0712  310.7842 C   0  0  0  0  0  0  0  0  0  0  0  0
   80.1488  219.2397  310.1281 C   0  0  0  0  0  0  0  0  0  0  0  0
   80.1424  219.4217  308.6040 C   0  0  0  0  0  0  0  0  0  0  0  0
   79.9643  220.8777  308.1632 C   0  0  0  0  0  0  0  0  0  0  0  0
   79.7795  221.0321  306.6511 C   0  0  0  0  0  0  0  0  0  0  0  0
   79.4664  222.4649  306.2256 C   0  0  0  0  0  0  0  0  0  0  0  0
   80.4332  222.9476  305.1562 C   0  0  0  0  0  0  0  0  0  0  0  0
  2  1  1  0
 30  1  1  0
  1 32  1  6
  3  2  1  0
  2 29  1  6
 27  3  1  0
  3 28  1  1
 27  4  1  0
  4 30  1  0
 30  5  1  6
  5 31  1  0
  7  6  1  0
  8  7  1  0
  9  8  1  0
 10  9  1  0
 11 10  1  0
 12 11  1  0
 13 12  1  0
 14 13  1  0
 15 14  1  0
 16 15  1  0
 17 16  1  0
 18 17  1  0
 19 18  1  0
 20 19  1  0
 20 21  1  6
 22 20  1  0
 22 23  1  1
 24 22  1  0
 24 25  1  6
 24 42  1  0
 26 25  1  0
 27 26  1  1
 32 33  1  0
 33 34  1  0
 34 35  2  0
 34 41  1  0
 35 36  1  0
 36 37  1  0
 36 38  2  0
 38 39  1  0
 38 40  1  0
 40 41  2  0
 42 43  1  0
 43 44  2  0
 43 45  1  0
 45 46  1  0
 46 47  1  0
 47 48  1  0
 48 49  1  0
 49 50  1  0
 50 51  1  0
 51 52  1  0
 52 53  1  0
 53 54  1  0
 54 55  1  0
 55 56  1  0
 56 57  1  0
 57 58  1  0
 58 59  1  0
 59 60  1  0
 60 61  1  0
 61 62  1  0
 62 63  1  0
 63 64  1  0
 64 65  1  0
 65 66  1  0
 66 67  1  0
 67 68  1  0
 68 69  1  0
M  END
$$$$
