
     RDKit          3D

 69 70  0  0  0  0  0  0  0  0999 V2000
   94.4432  214.4695  324.2798 C   0  0  2  0  0  0  0  0  0  0  0  0
   95.1820  214.4082  322.9279 C   0  0  1  0  0  0  0  0  0  0  0  0
   94.5292  215.3366  321.9055 C   0  0  2  0  0  0  0  0  0  0  0  0
   93.5904  216.7240  323.6769 O   0  0  0  0  0  0  0  0  0  0  0  0
   95.2133  216.6275  325.5322 C   0  0  0  0  0  0  0  0  0  0  0  0
   90.1048  226.7598  306.0309 C   0  0  0  0  0  0  0  0  0  0  0  0
   90.9168  225.4766  306.0866 C   0  0  0  0  0  0  0  0  0  0  0  0
   91.4834  225.2300  307.4860 C   0  0  0  0  0  0  0  0  0  0  0  0
   91.5029  223.7363  307.8163 C   0  0  0  0  0  0  0  0  0  0  0  0
   92.6137  223.3467  308.7969 C   0  0  0  0  0  0  0  0  0  0  0  0
   92.1028  223.0544  310.2104 C   0  0  0  0  0  0  0  0  0  0  0  0
   92.2277  221.5768  310.5981 C   0  0  0  0  0  0  0  0  0  0  0  0
   93.4548  221.2206  311.4438 C   0  0  0  0  0  0  0  0  0  0  0  0
   93.1515  220.5871  312.8062 C   0  0  0  0  0  0  0  0  0  0  0  0
   91.7621  220.8802  313.3844 C   0  0  0  0  0  0  0  0  0  0  0  0
   91.7103  221.9225  314.5053 C   0  0  0  0  0  0  0  0  0  0  0  0
   92.3948  221.4778  315.7974 C   0  0  0  0  0  0  0  0  0  0  0  0
   91.8788  220.1066  316.2511 C   0  0  0  0  0  0  0  0  0  0  0  0
   91.5311  220.1122  317.7397 C   0  0  0  0  0  0  0  0  0  0  0  0
   92.5170  220.8866  318.6263 C   0  0  1  0  0  0  0  0  0  0  0  0
   91.7322  221.8391  319.3564 O   0  0  0  0  0  0  0  0  0  0  0  0
   93.3547  220.0276  319.6134 C   0  0  1  0  0  0  0  0  0  0  0  0
   94.6273  220.6701  319.7993 O   0  0  0  0  0  0  0  0  0  0  0  0
   92.6508  219.7551  320.9705 C   0  0  2  0  0  0  0  0  0  0  0  0
   93.4756  218.9274  321.9829 C   0  0  0  0  0  0  0  0  0  0  0  0
   93.7711  217.5929  321.5182 O   0  0  0  0  0  0  0  0  0  0  0  0
   94.4046  216.7553  322.4961 C   0  0  2  0  0  0  0  0  0  0  0  0
   93.2348  214.8043  321.5610 O   0  0  0  0  0  0  0  0  0  0  0  0
   96.5738  214.7115  323.0261 O   0  0  0  0  0  0  0  0  0  0  0  0
   94.1124  215.9062  324.7347 C   0  0  2  0  0  0  0  0  0  0  0  0
   94.7056  217.3041  326.6770 O   0  0  0  0  0  0  0  0  0  0  0  0
   95.1961  213.8014  325.3029 O   0  0  0  0  0  0  0  0  0  0  0  0
   94.5313  212.6763  325.8757 C   0  0  0  0  0  0  0  0  0  0  0  0
   95.4664  211.9743  326.8289 C   0  0  0  0  0  0  0  0  0  0  0  0
   95.6526  212.4724  328.1279 C   0  0  0  0  0  0  0  0  0  0  0  0
   96.4886  211.8117  329.0347 C   0  0  0  0  0  0  0  0  0  0  0  0
   96.6531  212.4865  330.6159 Cl  0  0  0  0  0  0  0  0  0  0  0  0
   97.1531  210.6444  328.6443 C   0  0  0  0  0  0  0  0  0  0  0  0
   98.1952  209.7688  329.7057 Cl  0  0  0  0  0  0  0  0  0  0  0  0
   96.9803  210.1480  327.3481 C   0  0  0  0  0  0  0  0  0  0  0  0
   96.1433  210.8094  326.4449 C   0  0  0  0  0  0  0  0  0  0  0  0
   91.2999  219.1711  320.8347 N   0  0  0  0  0  0  0  0  0  0  0  0
   90.4207  219.0160  321.8832 C   0  0  0  0  0  0  0  0  0  0  0  0
   90.4091  219.7395  322.8692 O   0  0  0  0  0  0  0  0  0  0  0  0
   89.5525  217.7817  321.7196 C   0  0  0  0  0  0  0  0  0  0  0  0
   88.0553  218.0547  321.8433 C   0  0  0  0  0  0  0  0  0  0  0  0
   87.2728  216.7792  321.5121 C   0  0  0  0  0  0  0  0  0  0  0  0
   85.7753  216.8584  321.8214 C   0  0  0  0  0  0  0  0  0  0  0  0
   84.9859  215.5534  321.6701 C   0  0  0  0  0  0  0  0  0  0  0  0
   83.4867  215.7134  321.9310 C   0  0  0  0  0  0  0  0  0  0  0  0
   83.0989  215.6258  323.4127 C   0  0  0  0  0  0  0  0  0  0  0  0
   82.2935  214.3953  323.8432 C   0  0  0  0  0  0  0  0  0  0  0  0
   82.2513  214.1276  325.3516 C   0  0  0  0  0  0  0  0  0  0  0  0
   81.2094  213.0982  325.7790 C   0  0  0  0  0  0  0  0  0  0  0  0
   80.3943  212.5983  324.5811 C   0  0  0  0  0  0  0  0  0  0  0  0
   78.8899  212.8327  324.7465 C   0  0  0  0  0  0  0  0  0  0  0  0
   78.0520  212.5952  323.4870 C   0  0  0  0  0  0  0  0  0  0  0  0
   77.0702  211.4219  323.5527 C   0  0  0  0  0  0  0  0  0  0  0  0
   75.7659  211.7739  324.2718 C   0  0  0  0  0  0  0  0  0  0  0  0
   74.5810  211.8086  323.3023 C   0  0  0  0  0  0  0  0  0  0  0  0
   73.6794  213.0294  323.5154 C   0  0  0  0  0  0  0  0  0  0  0  0
   72.5082  212.7373  324.4609 C   0  0  0  0  0  0  0  0  0  0  0  0
   71.4410  213.8302  324.3741 C   0  0  0  0  0  0  0  0  0  0  0  0
   70.0083  213.2877  324.3375 C   0  0  0  0  0  0  0  0  0  0  0  0
   68.9533  214.1066  325.0939 C   0  0  0  0  0  0  0  0  0  0  0  0
   67.7736  213.2684  325.5959 C   0  0  0  0  0  0  0  0  0  0  0  0
   66.9282  213.9873  326.6507 C   0  0  0  0  0  0  0  0  0  0  0  0
   66.7942  213.2018  327.9533 C   0  0  0  0  0  0  0  0  0  0  0  0
   65.6202  212.2375  327.8988 C   0  0  0  0  0  0  0  0  0  0  0  0
  2  1  1  0
 30  1  1  0
  1 32  1  1
  3  2  1  0
  2 29  1  1
 27  3  1  0
  3 28  1  1
 27  4  1  0
  4 30  1  0
 30  5  1  6
  5 31  1  0
  7  6  1  0
  8  7  1  0
  9  8  1  0
 10  9  1  0
 11 10  1  0
 12 11  1  0
 13 12  1  0
 14 13  1  0
 15 14  1  0
 16 15  1  0
 17 16  1  0
 18 17  1  0
 19 18  1  0
 20 19  1  0
 20 21  1  1
 22 20  1  0
 22 23  1  1
 24 22  1  0
 24 25  1  1
 24 42  1  0
 26 25  1  0
 27 26  1  6
 32 33  1  0
 33 34  1  0
 34 35  2  0
 34 41  1  0
 35 36  1  0
 36 37  1  0
 36 38  2  0
 38 39  1  0
 38 40  1  0
 40 41  2  0
 42 43  1  0
 43 44  2  0
 43 45  1  0
 45 46  1  0
 46 47  1  0
 47 48  1  0
 48 49  1  0
 49 50  1  0
 50 51  1  0
 51 52  1  0
 52 53  1  0
 53 54  1  0
 54 55  1  0
 55 56  1  0
 56 57  1  0
 57 58  1  0
 58 59  1  0
 59 60  1  0
 60 61  1  0
 61 62  1  0
 62 63  1  0
 63 64  1  0
 64 65  1  0
 65 66  1  0
 66 67  1  0
 67 68  1  0
 68 69  1  0
M  END
$$$$
