
     RDKit          3D

 19 20  0  0  0  0  0  0  0  0999 V2000
  108.5843  -49.9331   42.8966 N   0  0  0  0  0  0  0  0  0  0  0  0
  107.3763  -49.3837   43.1455 C   0  0  0  0  0  0  0  0  0  0  0  0
  106.6772  -49.7848   44.1303 O   0  0  0  0  0  0  0  0  0  0  0  0
  106.8419  -48.4080   42.3990 N   0  0  0  0  0  0  0  0  0  0  0  0
  107.4983  -47.9082   41.3304 C   0  0  0  0  0  0  0  0  0  0  0  0
  107.0003  -46.9846   40.6180 O   0  0  0  0  0  0  0  0  0  0  0  0
  108.7340  -48.4552   41.0582 C   0  0  0  0  0  0  0  0  0  0  0  0
  109.2611  -49.4613   41.8457 C   0  0  0  0  0  0  0  0  0  0  0  0
  109.0294  -50.9623   43.7714 C   0  0  1  0  0  0  0  0  0  0  0  0
  109.2997  -52.2778   43.1091 C   0  0  1  0  0  0  0  0  0  0  0  0
  110.3727  -52.8619   44.0391 C   0  0  2  0  0  0  0  0  0  0  0  0
  108.1244  -53.0932   43.1827 N   0  0  0  0  0  0  0  0  0  0  0  0
  109.8649  -53.9168   44.7869 O   0  0  0  0  0  0  0  0  0  0  0  0
  110.6442  -51.7236   44.9816 C   0  0  2  0  0  0  0  0  0  0  0  0
  107.1454  -52.8600   43.8622 N   0  0  0  0  0  4  0  0  0  0  0  0
  110.3234  -50.6038   44.2158 O   0  0  0  0  0  0  0  0  0  0  0  0
  112.0709  -51.6446   45.4297 C   0  0  0  0  0  0  0  0  0  0  0  0
  106.0558  -52.8035   44.4236 N   0  0  0  0  0  2  0  0  0  0  0  0
  112.8760  -51.3693   44.3465 O   0  0  0  0  0  0  0  0  0  0  0  0
  1  2  1  0
  1  8  1  0
  9  1  1  6
  2  3  2  0
  2  4  1  0
  4  5  1  0
  5  6  2  0
  5  7  1  0
  7  8  2  0
  9 10  1  0
  9 16  1  0
 10 11  1  0
 10 12  1  1
 11 13  1  1
 11 14  1  0
 12 15  2  3
 14 16  1  0
 14 17  1  6
 15 18  2  0
 17 19  1  0
M  CHG  2  15   1  18  -1
M  END
$$$$
