
     RDKit          3D

 19 20  0  0  0  0  0  0  0  0999 V2000
  107.6691  -49.9854   42.7053 N   0  0  0  0  0  0  0  0  0  0  0  0
  106.4810  -49.9548   42.0645 C   0  0  0  0  0  0  0  0  0  0  0  0
  106.0529  -50.9851   41.4524 O   0  0  0  0  0  0  0  0  0  0  0  0
  105.6912  -48.8734   42.0268 N   0  0  0  0  0  0  0  0  0  0  0  0
  106.0486  -47.7266   42.6427 C   0  0  0  0  0  0  0  0  0  0  0  0
  105.3073  -46.6979   42.6123 O   0  0  0  0  0  0  0  0  0  0  0  0
  107.2585  -47.7360   43.3033 C   0  0  0  0  0  0  0  0  0  0  0  0
  108.0534  -48.8664   43.3258 C   0  0  0  0  0  0  0  0  0  0  0  0
  108.4052  -51.2017   42.6642 C   0  0  1  0  0  0  0  0  0  0  0  0
  109.4538  -51.2667   41.5972 C   0  0  1  0  0  0  0  0  0  0  0  0
  110.4630  -52.2333   42.2332 C   0  0  2  0  0  0  0  0  0  0  0  0
  108.8981  -51.8762   40.4261 N   0  0  0  0  0  0  0  0  0  0  0  0
  110.4506  -53.4637   41.5882 O   0  0  0  0  0  0  0  0  0  0  0  0
  109.8996  -52.4350   43.6114 C   0  0  2  0  0  0  0  0  0  0  0  0
  108.9822  -53.0522   40.1355 N   0  0  0  0  0  4  0  0  0  0  0  0
  109.1967  -51.2521   43.8352 O   0  0  0  0  0  0  0  0  0  0  0  0
  110.9473  -52.6142   44.6662 C   0  0  0  0  0  0  0  0  0  0  0  0
  108.8312  -54.2444   39.8877 N   0  0  0  0  0  2  0  0  0  0  0  0
  111.6405  -51.4349   44.8274 O   0  0  0  0  0  0  0  0  0  0  0  0
  1  2  1  0
  1  8  1  0
  9  1  1  1
  2  3  2  0
  2  4  1  0
  4  5  1  0
  5  6  2  0
  5  7  1  0
  7  8  2  0
  9 10  1  0
  9 16  1  0
 10 11  1  0
 10 12  1  6
 11 13  1  6
 11 14  1  0
 12 15  2  3
 14 16  1  0
 14 17  1  1
 15 18  2  0
 17 19  1  0
M  CHG  2  15   1  18  -1
M  END
$$$$
