
     RDKit          3D

 19 20  0  0  0  0  0  0  0  0999 V2000
  107.8252  -49.7021   42.3966 N   0  0  0  0  0  0  0  0  0  0  0  0
  108.2317  -48.5086   42.8799 C   0  0  0  0  0  0  0  0  0  0  0  0
  109.4568  -48.3121   43.1627 O   0  0  0  0  0  0  0  0  0  0  0  0
  107.4031  -47.4772   43.0904 N   0  0  0  0  0  0  0  0  0  0  0  0
  106.0834  -47.5771   42.8244 C   0  0  0  0  0  0  0  0  0  0  0  0
  105.2914  -46.6061   43.0206 O   0  0  0  0  0  0  0  0  0  0  0  0
  105.6468  -48.7876   42.3300 C   0  0  0  0  0  0  0  0  0  0  0  0
  106.5244  -49.8350   42.1225 C   0  0  0  0  0  0  0  0  0  0  0  0
  108.8134  -50.7100   42.2222 C   0  0  1  0  0  0  0  0  0  0  0  0
  108.7251  -51.8513   43.1875 C   0  0  1  0  0  0  0  0  0  0  0  0
  109.3319  -52.9898   42.3550 C   0  0  2  0  0  0  0  0  0  0  0  0
  109.5768  -51.5879   44.3086 N   0  0  0  0  0  0  0  0  0  0  0  0
  110.5872  -53.3440   42.8334 O   0  0  0  0  0  0  0  0  0  0  0  0
  109.5208  -52.3475   41.0099 C   0  0  2  0  0  0  0  0  0  0  0  0
  109.6486  -52.2646   45.3143 N   0  0  0  0  0  4  0  0  0  0  0  0
  108.5368  -51.3601   40.9970 O   0  0  0  0  0  0  0  0  0  0  0  0
  109.3159  -53.2883   39.8630 C   0  0  0  0  0  0  0  0  0  0  0  0
  109.8322  -52.7565   46.4234 N   0  0  0  0  0  2  0  0  0  0  0  0
  110.4106  -54.1165   39.7496 O   0  0  0  0  0  0  0  0  0  0  0  0
  1  2  1  0
  1  8  1  0
  9  1  1  1
  2  3  2  0
  2  4  1  0
  4  5  1  0
  5  6  2  0
  5  7  1  0
  7  8  2  0
  9 10  1  0
  9 16  1  0
 10 11  1  0
 10 12  1  1
 11 13  1  1
 11 14  1  0
 12 15  2  3
 14 16  1  0
 14 17  1  6
 15 18  2  0
 17 19  1  0
M  CHG  2  15   1  18  -1
M  END
$$$$
