
     RDKit          3D

 19 20  0  0  0  0  0  0  0  0999 V2000
  107.4327  -50.1443   42.4975 N   0  0  0  0  0  0  0  0  0  0  0  0
  106.2269  -50.1017   41.8914 C   0  0  0  0  0  0  0  0  0  0  0  0
  105.8028  -51.1031   41.2305 O   0  0  0  0  0  0  0  0  0  0  0  0
  105.4146  -49.0374   41.9394 N   0  0  0  0  0  0  0  0  0  0  0  0
  105.7659  -47.9216   42.6131 C   0  0  0  0  0  0  0  0  0  0  0  0
  105.0034  -46.9093   42.6639 O   0  0  0  0  0  0  0  0  0  0  0  0
  106.9936  -47.9437   43.2396 C   0  0  0  0  0  0  0  0  0  0  0  0
  107.8115  -49.0559   43.1734 C   0  0  0  0  0  0  0  0  0  0  0  0
  108.1918  -51.3397   42.3642 C   0  0  1  0  0  0  0  0  0  0  0  0
  109.1681  -51.3417   41.2289 C   0  0  1  0  0  0  0  0  0  0  0  0
  110.2390  -52.3041   41.7618 C   0  0  2  0  0  0  0  0  0  0  0  0
  108.5495  -51.9241   40.0757 N   0  0  0  0  0  0  0  0  0  0  0  0
  110.2116  -53.5115   41.0751 O   0  0  0  0  0  0  0  0  0  0  0  0
  109.7735  -52.5672   43.1660 C   0  0  2  0  0  0  0  0  0  0  0  0
  108.5643  -53.1036   39.7873 N   0  0  0  0  0  4  0  0  0  0  0  0
  109.0605  -51.4106   43.4780 O   0  0  0  0  0  0  0  0  0  0  0  0
  110.8930  -52.7565   44.1424 C   0  0  0  0  0  0  0  0  0  0  0  0
  108.6162  -54.2160   39.2719 N   0  0  0  0  0  2  0  0  0  0  0  0
  111.3861  -51.5261   44.5170 O   0  0  0  0  0  0  0  0  0  0  0  0
  1  2  1  0
  1  8  1  0
  9  1  1  1
  2  3  2  0
  2  4  1  0
  4  5  1  0
  5  6  2  0
  5  7  1  0
  7  8  2  0
  9 10  1  0
  9 16  1  0
 10 11  1  0
 10 12  1  6
 11 13  1  6
 11 14  1  0
 12 15  2  3
 14 16  1  0
 14 17  1  1
 15 18  2  0
 17 19  1  0
M  CHG  2  15   1  18  -1
M  END
$$$$
