
     RDKit          3D

 19 20  0  0  0  0  0  0  0  0999 V2000
  105.3599  -51.0816   40.0454 N   0  0  0  0  0  0  0  0  0  0  0  0
  104.8430  -51.4236   38.8457 C   0  0  0  0  0  0  0  0  0  0  0  0
  105.4692  -52.2238   38.0795 O   0  0  0  0  0  0  0  0  0  0  0  0
  103.6717  -50.9613   38.3885 N   0  0  0  0  0  0  0  0  0  0  0  0
  102.9254  -50.1070   39.1202 C   0  0  0  0  0  0  0  0  0  0  0  0
  101.8153  -49.6642   38.6956 O   0  0  0  0  0  0  0  0  0  0  0  0
  103.4347  -49.7445   40.3489 C   0  0  0  0  0  0  0  0  0  0  0  0
  104.6463  -50.2371   40.7955 C   0  0  0  0  0  0  0  0  0  0  0  0
  106.6141  -51.6479   40.4045 C   0  0  1  0  0  0  0  0  0  0  0  0
  107.7804  -50.7154   40.2932 C   0  0  1  0  0  0  0  0  0  0  0  0
  108.7233  -51.2932   41.3584 C   0  0  2  0  0  0  0  0  0  0  0  0
  108.3845  -50.8674   39.0034 N   0  0  0  0  0  0  0  0  0  0  0  0
  109.8156  -51.9196   40.7715 O   0  0  0  0  0  0  0  0  0  0  0  0
  107.8787  -52.3566   42.0014 C   0  0  2  0  0  0  0  0  0  0  0  0
  109.5437  -51.1655   38.7980 N   0  0  0  0  0  4  0  0  0  0  0  0
  106.5818  -51.8875   41.7980 O   0  0  0  0  0  0  0  0  0  0  0  0
  108.1382  -52.5225   43.4669 C   0  0  0  0  0  0  0  0  0  0  0  0
  110.6271  -51.5784   38.3966 N   0  0  0  0  0  2  0  0  0  0  0  0
  107.6106  -51.4486   44.1493 O   0  0  0  0  0  0  0  0  0  0  0  0
  1  2  1  0
  1  8  1  0
  9  1  1  1
  2  3  2  0
  2  4  1  0
  4  5  1  0
  5  6  2  0
  5  7  1  0
  7  8  2  0
  9 10  1  0
  9 16  1  0
 10 11  1  0
 10 12  1  6
 11 13  1  6
 11 14  1  0
 12 15  2  3
 14 16  1  0
 14 17  1  1
 15 18  2  0
 17 19  1  0
M  CHG  2  15   1  18  -1
M  END
$$$$
