
     RDKit          3D

 19 20  0  0  0  0  0  0  0  0999 V2000
  107.0221  -50.7142   42.0700 N   0  0  0  0  0  0  0  0  0  0  0  0
  106.6980  -50.3808   40.8023 C   0  0  0  0  0  0  0  0  0  0  0  0
  107.4293  -50.7562   39.8308 O   0  0  0  0  0  0  0  0  0  0  0  0
  105.6184  -49.6542   40.4839 N   0  0  0  0  0  0  0  0  0  0  0  0
  104.7744  -49.2045   41.4366 C   0  0  0  0  0  0  0  0  0  0  0  0
  103.7500  -48.5161   41.1446 O   0  0  0  0  0  0  0  0  0  0  0  0
  105.0867  -49.5336   42.7384 C   0  0  0  0  0  0  0  0  0  0  0  0
  106.2075  -50.2848   43.0379 C   0  0  0  0  0  0  0  0  0  0  0  0
  108.1980  -51.4905   42.2636 C   0  0  1  0  0  0  0  0  0  0  0  0
  109.3962  -50.7150   42.7166 C   0  0  1  0  0  0  0  0  0  0  0  0
  110.1672  -51.7906   43.4950 C   0  0  2  0  0  0  0  0  0  0  0  0
  110.1656  -50.3250   41.5731 N   0  0  0  0  0  0  0  0  0  0  0  0
  111.3099  -52.1813   42.8082 O   0  0  0  0  0  0  0  0  0  0  0  0
  109.2112  -52.9497   43.4865 C   0  0  2  0  0  0  0  0  0  0  0  0
  110.9126  -51.0480   40.9455 N   0  0  0  0  0  4  0  0  0  0  0  0
  107.9688  -52.3261   43.3814 O   0  0  0  0  0  0  0  0  0  0  0  0
  109.2634  -53.7781   44.7329 C   0  0  0  0  0  0  0  0  0  0  0  0
  111.6604  -51.6033   40.1468 N   0  0  0  0  0  2  0  0  0  0  0  0
  108.8513  -53.0177   45.8050 O   0  0  0  0  0  0  0  0  0  0  0  0
  1  2  1  0
  1  8  1  0
  9  1  1  1
  2  3  2  0
  2  4  1  0
  4  5  1  0
  5  6  2  0
  5  7  1  0
  7  8  2  0
  9 10  1  0
  9 16  1  0
 10 11  1  0
 10 12  1  6
 11 13  1  6
 11 14  1  0
 12 15  2  3
 14 16  1  0
 14 17  1  1
 15 18  2  0
 17 19  1  0
M  CHG  2  15   1  18  -1
M  END
$$$$
