
     RDKit          3D

 19 20  0  0  0  0  0  0  0  0999 V2000
  107.3339  -50.4061   42.1862 N   0  0  0  0  0  0  0  0  0  0  0  0
  107.1296  -49.7025   41.0521 C   0  0  0  0  0  0  0  0  0  0  0  0
  107.5765  -50.1300   39.9399 O   0  0  0  0  0  0  0  0  0  0  0  0
  106.4634  -48.5408   41.0148 N   0  0  0  0  0  0  0  0  0  0  0  0
  105.9470  -47.9964   42.1370 C   0  0  0  0  0  0  0  0  0  0  0  0
  105.3149  -46.8971   42.1113 O   0  0  0  0  0  0  0  0  0  0  0  0
  106.1441  -48.6987   43.3067 C   0  0  0  0  0  0  0  0  0  0  0  0
  106.8356  -49.8953   43.3158 C   0  0  0  0  0  0  0  0  0  0  0  0
  108.0589  -51.6250   42.0801 C   0  0  1  0  0  0  0  0  0  0  0  0
  109.4685  -51.5643   42.5815 C   0  0  1  0  0  0  0  0  0  0  0  0
  109.6922  -53.0211   43.0116 C   0  0  2  0  0  0  0  0  0  0  0  0
  110.3448  -51.2602   41.4900 N   0  0  0  0  0  0  0  0  0  0  0  0
  110.5640  -53.6692   42.1455 O   0  0  0  0  0  0  0  0  0  0  0  0
  108.3307  -53.6295   42.8282 C   0  0  2  0  0  0  0  0  0  0  0  0
  111.5572  -51.2238   41.5478 N   0  0  0  0  0  4  0  0  0  0  0  0
  107.4789  -52.5381   42.9913 O   0  0  0  0  0  0  0  0  0  0  0  0
  108.0061  -54.6864   43.8382 C   0  0  0  0  0  0  0  0  0  0  0  0
  112.7538  -51.3288   41.7982 N   0  0  0  0  0  2  0  0  0  0  0  0
  108.0292  -54.1353   45.1004 O   0  0  0  0  0  0  0  0  0  0  0  0
  1  2  1  0
  1  8  1  0
  9  1  1  1
  2  3  2  0
  2  4  1  0
  4  5  1  0
  5  6  2  0
  5  7  1  0
  7  8  2  0
  9 10  1  0
  9 16  1  0
 10 11  1  0
 10 12  1  6
 11 13  1  6
 11 14  1  0
 12 15  2  3
 14 16  1  0
 14 17  1  1
 15 18  2  0
 17 19  1  0
M  CHG  2  15   1  18  -1
M  END
$$$$
