
     RDKit          3D

 19 20  0  0  0  0  0  0  0  0999 V2000
  106.6764  -50.2966   41.8128 N   0  0  0  0  0  0  0  0  0  0  0  0
  106.1352  -49.3069   42.5550 C   0  0  0  0  0  0  0  0  0  0  0  0
  106.7988  -48.7760   43.5022 O   0  0  0  0  0  0  0  0  0  0  0  0
  104.9005  -48.8266   42.3558 N   0  0  0  0  0  0  0  0  0  0  0  0
  104.1102  -49.3179   41.3779 C   0  0  0  0  0  0  0  0  0  0  0  0
  102.9401  -48.8694   41.1821 O   0  0  0  0  0  0  0  0  0  0  0  0
  104.6434  -50.3294   40.6079 C   0  0  0  0  0  0  0  0  0  0  0  0
  105.9206  -50.8057   40.8358 C   0  0  0  0  0  0  0  0  0  0  0  0
  107.9989  -50.7093   42.1345 C   0  0  1  0  0  0  0  0  0  0  0  0
  108.0876  -51.9816   42.9192 C   0  0  1  0  0  0  0  0  0  0  0  0
  109.4622  -52.5050   42.4790 C   0  0  2  0  0  0  0  0  0  0  0  0
  108.1319  -51.6717   44.3169 N   0  0  0  0  0  0  0  0  0  0  0  0
  110.3896  -52.3993   43.5080 O   0  0  0  0  0  0  0  0  0  0  0  0
  109.8567  -51.5286   41.4072 C   0  0  2  0  0  0  0  0  0  0  0  0
  109.0290  -51.9727   45.0781 N   0  0  0  0  0  4  0  0  0  0  0  0
  108.6266  -51.0849   40.9241 O   0  0  0  0  0  0  0  0  0  0  0  0
  110.6492  -52.1461   40.2969 C   0  0  0  0  0  0  0  0  0  0  0  0
  109.9780  -52.0403   45.8529 N   0  0  0  0  0  2  0  0  0  0  0  0
  109.9238  -53.1724   39.7330 O   0  0  0  0  0  0  0  0  0  0  0  0
  1  2  1  0
  1  8  1  0
  9  1  1  6
  2  3  2  0
  2  4  1  0
  4  5  1  0
  5  6  2  0
  5  7  1  0
  7  8  2  0
  9 10  1  0
  9 16  1  0
 10 11  1  0
 10 12  1  1
 11 13  1  1
 11 14  1  0
 12 15  2  3
 14 16  1  0
 14 17  1  6
 15 18  2  0
 17 19  1  0
M  CHG  2  15   1  18  -1
M  END
$$$$
