
     RDKit          3D

 19 20  0  0  0  0  0  0  0  0999 V2000
  107.3277  -50.2677   42.3408 N   0  0  0  0  0  0  0  0  0  0  0  0
  106.5967  -50.1390   41.2128 C   0  0  0  0  0  0  0  0  0  0  0  0
  106.6673  -51.0187   40.2960 O   0  0  0  0  0  0  0  0  0  0  0  0
  105.7704  -49.1099   40.9830 N   0  0  0  0  0  0  0  0  0  0  0  0
  105.6195  -48.1205   41.8889 C   0  0  0  0  0  0  0  0  0  0  0  0
  104.8396  -47.1424   41.6800 O   0  0  0  0  0  0  0  0  0  0  0  0
  106.3570  -48.2322   43.0483 C   0  0  0  0  0  0  0  0  0  0  0  0
  107.2020  -49.3054   43.2589 C   0  0  0  0  0  0  0  0  0  0  0  0
  108.1646  -51.4122   42.4527 C   0  0  1  0  0  0  0  0  0  0  0  0
  109.6232  -51.1480   42.2410 C   0  0  1  0  0  0  0  0  0  0  0  0
  110.2516  -52.2584   43.0951 C   0  0  2  0  0  0  0  0  0  0  0  0
  109.9492  -51.3767   40.8651 N   0  0  0  0  0  0  0  0  0  0  0  0
  110.8304  -53.2362   42.2958 O   0  0  0  0  0  0  0  0  0  0  0  0
  109.0559  -52.8693   43.7695 C   0  0  2  0  0  0  0  0  0  0  0  0
  111.0332  -51.1788   40.3546 N   0  0  0  0  0  4  0  0  0  0  0  0
  108.1486  -51.8117   43.8093 O   0  0  0  0  0  0  0  0  0  0  0  0
  109.3351  -53.3557   45.1580 C   0  0  0  0  0  0  0  0  0  0  0  0
  112.0153  -50.8006   39.7237 N   0  0  0  0  0  2  0  0  0  0  0  0
  109.6046  -52.2793   45.9742 O   0  0  0  0  0  0  0  0  0  0  0  0
  1  2  1  0
  1  8  1  0
  9  1  1  1
  2  3  2  0
  2  4  1  0
  4  5  1  0
  5  6  2  0
  5  7  1  0
  7  8  2  0
  9 10  1  0
  9 16  1  0
 10 11  1  0
 10 12  1  6
 11 13  1  6
 11 14  1  0
 12 15  2  3
 14 16  1  0
 14 17  1  1
 15 18  2  0
 17 19  1  0
M  CHG  2  15   1  18  -1
M  END
$$$$
