
     RDKit          3D

 19 20  0  0  0  0  0  0  0  0999 V2000
  107.3274  -50.2483   42.3771 N   0  0  0  0  0  0  0  0  0  0  0  0
  106.2460  -50.2366   41.5686 C   0  0  0  0  0  0  0  0  0  0  0  0
  106.0293  -51.2029   40.7693 O   0  0  0  0  0  0  0  0  0  0  0  0
  105.3509  -49.2401   41.5485 N   0  0  0  0  0  0  0  0  0  0  0  0
  105.4843  -48.1662   42.3556 C   0  0  0  0  0  0  0  0  0  0  0  0
  104.6419  -47.2181   42.3434 O   0  0  0  0  0  0  0  0  0  0  0  0
  106.5818  -48.1578   43.1896 C   0  0  0  0  0  0  0  0  0  0  0  0
  107.4896  -49.1999   43.1892 C   0  0  0  0  0  0  0  0  0  0  0  0
  108.1961  -51.3713   42.2941 C   0  0  1  0  0  0  0  0  0  0  0  0
  109.3213  -51.2253   41.3170 C   0  0  1  0  0  0  0  0  0  0  0  0
  110.3827  -52.1361   41.9504 C   0  0  2  0  0  0  0  0  0  0  0  0
  108.9255  -51.7772   40.0558 N   0  0  0  0  0  0  0  0  0  0  0  0
  110.5561  -53.2950   41.2041 O   0  0  0  0  0  0  0  0  0  0  0  0
  109.7453  -52.5244   43.2544 C   0  0  2  0  0  0  0  0  0  0  0  0
  109.3910  -52.7759   39.5455 N   0  0  0  0  0  4  0  0  0  0  0  0
  108.8996  -51.4481   43.5186 O   0  0  0  0  0  0  0  0  0  0  0  0
  110.7256  -52.6909   44.3741 C   0  0  0  0  0  0  0  0  0  0  0  0
  110.0352  -53.6371   38.9548 N   0  0  0  0  0  2  0  0  0  0  0  0
  111.0692  -51.4523   44.8691 O   0  0  0  0  0  0  0  0  0  0  0  0
  1  2  1  0
  1  8  1  0
  9  1  1  1
  2  3  2  0
  2  4  1  0
  4  5  1  0
  5  6  2  0
  5  7  1  0
  7  8  2  0
  9 10  1  0
  9 16  1  0
 10 11  1  0
 10 12  1  6
 11 13  1  6
 11 14  1  0
 12 15  2  3
 14 16  1  0
 14 17  1  1
 15 18  2  0
 17 19  1  0
M  CHG  2  15   1  18  -1
M  END
$$$$
