
     RDKit          3D

 19 20  0  0  0  0  0  0  0  0999 V2000
  105.5125  -50.6221   39.8990 N   0  0  0  0  0  0  0  0  0  0  0  0
  104.5014  -49.8370   40.3287 C   0  0  0  0  0  0  0  0  0  0  0  0
  104.6774  -49.0354   41.3013 O   0  0  0  0  0  0  0  0  0  0  0  0
  103.2788  -49.8435   39.7811 N   0  0  0  0  0  0  0  0  0  0  0  0
  102.9832  -50.6555   38.7440 C   0  0  0  0  0  0  0  0  0  0  0  0
  101.8286  -50.6685   38.2193 O   0  0  0  0  0  0  0  0  0  0  0  0
  104.0015  -51.4659   38.2893 C   0  0  0  0  0  0  0  0  0  0  0  0
  105.2538  -51.4383   38.8734 C   0  0  0  0  0  0  0  0  0  0  0  0
  106.7600  -50.5122   40.5730 C   0  0  1  0  0  0  0  0  0  0  0  0
  106.9167  -51.4145   41.7577 C   0  0  1  0  0  0  0  0  0  0  0  0
  108.4391  -51.6118   41.7795 C   0  0  2  0  0  0  0  0  0  0  0  0
  106.5203  -50.7120   42.9414 N   0  0  0  0  0  0  0  0  0  0  0  0
  109.0143  -50.9413   42.8517 O   0  0  0  0  0  0  0  0  0  0  0  0
  108.8774  -50.9194   40.5201 C   0  0  2  0  0  0  0  0  0  0  0  0
  107.2740  -50.2622   43.7806 N   0  0  0  0  0  4  0  0  0  0  0  0
  107.7524  -51.0208   39.7031 O   0  0  0  0  0  0  0  0  0  0  0  0
  110.0514  -51.5701   39.8564 C   0  0  0  0  0  0  0  0  0  0  0  0
  107.9408  -49.5958   44.5659 N   0  0  0  0  0  2  0  0  0  0  0  0
  109.7102  -52.8489   39.4747 O   0  0  0  0  0  0  0  0  0  0  0  0
  1  2  1  0
  1  8  1  0
  9  1  1  6
  2  3  2  0
  2  4  1  0
  4  5  1  0
  5  6  2  0
  5  7  1  0
  7  8  2  0
  9 10  1  0
  9 16  1  0
 10 11  1  0
 10 12  1  1
 11 13  1  1
 11 14  1  0
 12 15  2  3
 14 16  1  0
 14 17  1  6
 15 18  2  0
 17 19  1  0
M  CHG  2  15   1  18  -1
M  END
$$$$
