
     RDKit          3D

 19 20  0  0  0  0  0  0  0  0999 V2000
  107.7710  -49.5962   43.0498 N   0  0  0  0  0  0  0  0  0  0  0  0
  106.4377  -49.5894   42.8365 C   0  0  0  0  0  0  0  0  0  0  0  0
  105.8054  -50.6825   42.6787 O   0  0  0  0  0  0  0  0  0  0  0  0
  105.7061  -48.4687   42.7771 N   0  0  0  0  0  0  0  0  0  0  0  0
  106.2759  -47.2547   42.9311 C   0  0  0  0  0  0  0  0  0  0  0  0
  105.5913  -46.1884   42.8764 O   0  0  0  0  0  0  0  0  0  0  0  0
  107.6369  -47.2387   43.1500 C   0  0  0  0  0  0  0  0  0  0  0  0
  108.3669  -48.4108   43.2065 C   0  0  0  0  0  0  0  0  0  0  0  0
  108.4224  -50.8600   43.0890 C   0  0  1  0  0  0  0  0  0  0  0  0
  109.1700  -51.2212   41.8429 C   0  0  1  0  0  0  0  0  0  0  0  0
  110.2640  -52.1372   42.4099 C   0  0  2  0  0  0  0  0  0  0  0  0
  108.3164  -51.9888   40.9863 N   0  0  0  0  0  0  0  0  0  0  0  0
  110.0408  -53.4614   42.0537 O   0  0  0  0  0  0  0  0  0  0  0  0
  110.0520  -52.0217   43.8929 C   0  0  2  0  0  0  0  0  0  0  0  0
  107.7248  -53.0009   41.3032 N   0  0  0  0  0  4  0  0  0  0  0  0
  109.4766  -50.7589   44.0263 O   0  0  0  0  0  0  0  0  0  0  0  0
  111.3200  -52.0919   44.6863 C   0  0  0  0  0  0  0  0  0  0  0  0
  106.9313  -53.8841   41.6128 N   0  0  0  0  0  2  0  0  0  0  0  0
  112.1697  -51.0865   44.2807 O   0  0  0  0  0  0  0  0  0  0  0  0
  1  2  1  0
  1  8  1  0
  9  1  1  6
  2  3  2  0
  2  4  1  0
  4  5  1  0
  5  6  2  0
  5  7  1  0
  7  8  2  0
  9 10  1  0
  9 16  1  0
 10 11  1  0
 10 12  1  6
 11 13  1  6
 11 14  1  0
 12 15  2  3
 14 16  1  0
 14 17  1  1
 15 18  2  0
 17 19  1  0
M  CHG  2  15   1  18  -1
M  END
$$$$
