
     RDKit          3D

 19 20  0  0  0  0  0  0  0  0999 V2000
  106.1724  -50.4176   41.2712 N   0  0  0  0  0  0  0  0  0  0  0  0
  105.7483  -49.3046   41.9072 C   0  0  0  0  0  0  0  0  0  0  0  0
  106.5388  -48.6542   42.6631 O   0  0  0  0  0  0  0  0  0  0  0  0
  104.5050  -48.8186   41.7932 N   0  0  0  0  0  0  0  0  0  0  0  0
  103.5853  -49.4302   41.0171 C   0  0  0  0  0  0  0  0  0  0  0  0
  102.4061  -48.9775   40.9032 O   0  0  0  0  0  0  0  0  0  0  0  0
  103.9976  -50.5689   40.3584 C   0  0  0  0  0  0  0  0  0  0  0  0
  105.2869  -51.0478   40.4944 C   0  0  0  0  0  0  0  0  0  0  0  0
  107.5199  -50.8205   41.4828 C   0  0  1  0  0  0  0  0  0  0  0  0
  107.7015  -51.8936   42.5113 C   0  0  1  0  0  0  0  0  0  0  0  0
  108.9819  -52.5736   42.0059 C   0  0  2  0  0  0  0  0  0  0  0  0
  107.9650  -51.2888   43.7827 N   0  0  0  0  0  0  0  0  0  0  0  0
  110.0575  -52.2958   42.8401 O   0  0  0  0  0  0  0  0  0  0  0  0
  109.2279  -51.8775   40.6972 C   0  0  2  0  0  0  0  0  0  0  0  0
  108.8353  -51.6283   44.5585 N   0  0  0  0  0  4  0  0  0  0  0  0
  107.9477  -51.4846   40.3097 O   0  0  0  0  0  0  0  0  0  0  0  0
  109.8289  -52.7643   39.6509 C   0  0  0  0  0  0  0  0  0  0  0  0
  109.6622  -52.1936   45.2672 N   0  0  0  0  0  2  0  0  0  0  0  0
  108.9424  -53.7720   39.3412 O   0  0  0  0  0  0  0  0  0  0  0  0
  1  2  1  0
  1  8  1  0
  9  1  1  6
  2  3  2  0
  2  4  1  0
  4  5  1  0
  5  6  2  0
  5  7  1  0
  7  8  2  0
  9 10  1  0
  9 16  1  0
 10 11  1  0
 10 12  1  1
 11 13  1  1
 11 14  1  0
 12 15  2  3
 14 16  1  0
 14 17  1  6
 15 18  2  0
 17 19  1  0
M  CHG  2  15   1  18  -1
M  END
$$$$
