
     RDKit          3D

 19 20  0  0  0  0  0  0  0  0999 V2000
  109.0227  -49.2782   42.9368 N   0  0  0  0  0  0  0  0  0  0  0  0
  108.6312  -48.3472   42.0406 C   0  0  0  0  0  0  0  0  0  0  0  0
  108.0317  -48.6934   40.9728 O   0  0  0  0  0  0  0  0  0  0  0  0
  108.8381  -47.0336   42.2038 N   0  0  0  0  0  0  0  0  0  0  0  0
  109.4648  -46.5570   43.3003 C   0  0  0  0  0  0  0  0  0  0  0  0
  109.6650  -45.3152   43.4632 O   0  0  0  0  0  0  0  0  0  0  0  0
  109.8731  -47.4908   44.2285 C   0  0  0  0  0  0  0  0  0  0  0  0
  109.6464  -48.8403   44.0342 C   0  0  0  0  0  0  0  0  0  0  0  0
  108.7382  -50.6387   42.6357 C   0  0  1  0  0  0  0  0  0  0  0  0
  109.8624  -51.3888   41.9909 C   0  0  1  0  0  0  0  0  0  0  0  0
  109.5679  -52.8214   42.4579 C   0  0  2  0  0  0  0  0  0  0  0  0
  109.7181  -51.3231   40.5673 N   0  0  0  0  0  0  0  0  0  0  0  0
  109.1128  -53.6061   41.4057 O   0  0  0  0  0  0  0  0  0  0  0  0
  108.4225  -52.6266   43.4105 C   0  0  2  0  0  0  0  0  0  0  0  0
  108.8422  -51.8620   39.9214 N   0  0  0  0  0  4  0  0  0  0  0  0
  108.6171  -51.3238   43.8670 O   0  0  0  0  0  0  0  0  0  0  0  0
  108.4351  -53.5799   44.5652 C   0  0  0  0  0  0  0  0  0  0  0  0
  107.9052  -52.5171   39.4759 N   0  0  0  0  0  2  0  0  0  0  0  0
  109.6264  -53.4581   45.2459 O   0  0  0  0  0  0  0  0  0  0  0  0
  1  2  1  0
  1  8  1  0
  9  1  1  1
  2  3  2  0
  2  4  1  0
  4  5  1  0
  5  6  2  0
  5  7  1  0
  7  8  2  0
  9 10  1  0
  9 16  1  0
 10 11  1  0
 10 12  1  6
 11 13  1  6
 11 14  1  0
 12 15  2  3
 14 16  1  0
 14 17  1  1
 15 18  2  0
 17 19  1  0
M  CHG  2  15   1  18  -1
M  END
$$$$
