
     RDKit          3D

 26 28  0  0  0  0  0  0  0  0999 V2000
  -17.6963  -26.4773   20.9400 C   0  0  0  0  0  0  0  0  0  0  0  0
  -18.8746  -27.2042   21.3570 C   0  0  0  0  0  0  0  0  0  0  0  0
  -20.9891  -27.4591   22.5245 C   0  0  0  0  0  0  0  0  0  0  0  0
  -19.8575  -26.7010   22.1518 C   0  0  0  0  0  0  0  0  0  0  0  0
  -19.0617  -28.5297   20.9322 C   0  0  0  0  0  0  0  0  0  0  0  0
  -20.1549  -29.2817   21.2844 C   0  0  0  0  0  0  0  0  0  0  0  0
  -21.1311  -28.7527   22.0855 C   0  0  0  0  0  0  0  0  0  0  0  0
  -21.9808  -26.8352   23.3735 C   0  0  0  0  0  0  0  0  0  0  0  0
  -23.8829  -25.6371   25.0001 C   0  0  0  0  0  0  0  0  0  0  0  0
  -23.4864  -25.0535   23.8337 C   0  0  0  0  0  0  0  0  0  0  0  0
  -22.5321  -25.6373   23.0004 C   0  0  0  0  0  0  0  0  0  0  0  0
  -23.3273  -26.8393   25.3713 C   0  0  0  0  0  0  0  0  0  0  0  0
  -22.3684  -27.4350   24.5430 C   0  0  0  0  0  0  0  0  0  0  0  0
  -19.7730  -25.4394   22.6146 F   0  0  0  0  0  0  0  0  0  0  0  0
  -16.6754  -27.1439   20.5114 O   0  0  0  0  0  0  0  0  0  0  0  0
  -17.5095  -25.0859   20.9400 N   0  0  0  0  0  0  0  0  0  0  0  0
  -16.2866  -24.5034   20.4747 N   0  0  0  0  0  0  0  0  0  0  0  0
  -15.7083  -23.5018   21.7563 S   0  0  1  0  0  6  0  0  0  0  0  0
  -14.4935  -22.7437   21.2421 O   0  0  0  0  0  0  0  0  0  0  0  0
  -16.7033  -22.4951   22.1825 O   0  0  0  0  0  0  0  0  0  0  0  0
  -15.1991  -24.5533   23.0532 C   0  0  0  0  0  0  0  0  0  0  0  0
  -14.0662  -25.3231   22.9130 C   0  0  0  0  0  0  0  0  0  0  0  0
  -13.6590  -26.1662   23.9544 C   0  0  0  0  0  0  0  0  0  0  0  0
  -14.4278  -26.1945   25.1113 C   0  0  0  0  0  0  0  0  0  0  0  0
  -15.5657  -25.4333   25.2754 C   0  0  0  0  0  0  0  0  0  0  0  0
  -15.9329  -24.6098   24.2143 C   0  0  0  0  0  0  0  0  0  0  0  0
  2  1  1  0
  1 15  2  0
  1 16  1  0
  4  2  2  0
  2  5  1  0
  3  4  1  0
  3  7  2  0
  8  3  1  0
  4 14  1  0
  6  5  2  0
  7  6  1  0
 11  8  2  0
  8 13  1  0
 10  9  2  0
  9 12  1  0
 10 11  1  0
 12 13  2  0
 16 17  1  0
 18 17  1  6
 18 19  2  0
 18 20  2  0
 18 21  1  0
 21 22  2  0
 21 26  1  0
 22 23  1  0
 23 24  2  0
 24 25  1  0
 25 26  2  0
M  END
$$$$
