
     RDKit          3D

 26 28  0  0  0  0  0  0  0  0999 V2000
  -16.1662  -22.9538   21.3058 C   0  0  0  0  0  0  0  0  0  0  0  0
  -17.5415  -23.3075   21.0333 C   0  0  0  0  0  0  0  0  0  0  0  0
  -19.7657  -22.9153   20.1401 C   0  0  0  0  0  0  0  0  0  0  0  0
  -18.4332  -22.5144   20.3802 C   0  0  0  0  0  0  0  0  0  0  0  0
  -18.0364  -24.5530   21.4530 C   0  0  0  0  0  0  0  0  0  0  0  0
  -19.3283  -24.9597   21.2286 C   0  0  0  0  0  0  0  0  0  0  0  0
  -20.2072  -24.1433   20.5687 C   0  0  0  0  0  0  0  0  0  0  0  0
  -20.6388  -22.0009   19.4366 C   0  0  0  0  0  0  0  0  0  0  0  0
  -22.3146  -20.2472   18.0891 C   0  0  0  0  0  0  0  0  0  0  0  0
  -22.6737  -20.7796   19.2915 C   0  0  0  0  0  0  0  0  0  0  0  0
  -21.8476  -21.6629   19.9866 C   0  0  0  0  0  0  0  0  0  0  0  0
  -21.1006  -20.5886   17.5400 C   0  0  0  0  0  0  0  0  0  0  0  0
  -20.2629  -21.4744   18.2286 C   0  0  0  0  0  0  0  0  0  0  0  0
  -18.0593  -21.2989   19.9378 F   0  0  0  0  0  0  0  0  0  0  0  0
  -15.7925  -21.7302   21.1236 O   0  0  0  0  0  0  0  0  0  0  0  0
  -15.1432  -23.8006   21.7609 N   0  0  0  0  0  0  0  0  0  0  0  0
  -13.8643  -23.2788   22.1398 N   0  0  0  0  0  0  0  0  0  0  0  0
  -12.7422  -23.8355   20.9518 S   0  0  1  0  0  6  0  0  0  0  0  0
  -13.1804  -25.2250   20.5134 O   0  0  0  0  0  0  0  0  0  0  0  0
  -12.7239  -22.9821   19.7450 O   0  0  0  0  0  0  0  0  0  0  0  0
  -11.1822  -23.9627   21.7245 C   0  0  0  0  0  0  0  0  0  0  0  0
  -10.2717  -22.9358   21.6141 C   0  0  0  0  0  0  0  0  0  0  0  0
   -9.0206  -23.0394   22.2347 C   0  0  0  0  0  0  0  0  0  0  0  0
   -8.7400  -24.1960   22.9516 C   0  0  0  0  0  0  0  0  0  0  0  0
   -9.6349  -25.2376   23.0765 C   0  0  0  0  0  0  0  0  0  0  0  0
  -10.8664  -25.0913   22.4431 C   0  0  0  0  0  0  0  0  0  0  0  0
  2  1  1  0
  1 15  2  0
  1 16  1  0
  4  2  2  0
  2  5  1  0
  3  4  1  0
  3  7  2  0
  8  3  1  0
  4 14  1  0
  6  5  2  0
  7  6  1  0
 11  8  2  0
  8 13  1  0
 10  9  2  0
  9 12  1  0
 10 11  1  0
 12 13  2  0
 16 17  1  0
 18 17  1  1
 18 19  2  0
 18 20  2  0
 18 21  1  0
 21 22  2  0
 21 26  1  0
 22 23  1  0
 23 24  2  0
 24 25  1  0
 25 26  2  0
M  END
$$$$
