
     RDKit          3D

 26 28  0  0  0  0  0  0  0  0999 V2000
  -16.9554  -23.0824   21.8838 C   0  0  0  0  0  0  0  0  0  0  0  0
  -16.0677  -23.5569   20.8456 C   0  0  0  0  0  0  0  0  0  0  0  0
  -15.2397  -23.6881   18.5661 C   0  0  0  0  0  0  0  0  0  0  0  0
  -16.1380  -23.1929   19.5366 C   0  0  0  0  0  0  0  0  0  0  0  0
  -15.0405  -24.4592   21.1665 C   0  0  0  0  0  0  0  0  0  0  0  0
  -14.1582  -24.9511   20.2368 C   0  0  0  0  0  0  0  0  0  0  0  0
  -14.2494  -24.5696   18.9250 C   0  0  0  0  0  0  0  0  0  0  0  0
  -15.3957  -23.2414   17.1988 C   0  0  0  0  0  0  0  0  0  0  0  0
  -15.6971  -22.3847   14.5769 C   0  0  0  0  0  0  0  0  0  0  0  0
  -16.7812  -22.6595   15.3563 C   0  0  0  0  0  0  0  0  0  0  0  0
  -16.6538  -23.0913   16.6765 C   0  0  0  0  0  0  0  0  0  0  0  0
  -14.4360  -22.5365   15.1044 C   0  0  0  0  0  0  0  0  0  0  0  0
  -14.2955  -22.9693   16.4285 C   0  0  0  0  0  0  0  0  0  0  0  0
  -17.0886  -22.3332   19.1242 F   0  0  0  0  0  0  0  0  0  0  0  0
  -17.0460  -21.8097   22.0887 O   0  0  0  0  0  0  0  0  0  0  0  0
  -17.7642  -23.8554   22.7317 N   0  0  0  0  0  0  0  0  0  0  0  0
  -18.2532  -23.3288   23.9706 N   0  0  0  0  0  0  0  0  0  0  0  0
  -19.2586  -24.5538   24.6551 S   0  0  1  0  0  6  0  0  0  0  0  0
  -18.5195  -25.8789   24.5420 O   0  0  0  0  0  0  0  0  0  0  0  0
  -19.5319  -24.3271   26.0900 O   0  0  0  0  0  0  0  0  0  0  0  0
  -20.7087  -24.6420   23.6873 C   0  0  0  0  0  0  0  0  0  0  0  0
  -21.6934  -23.6905   23.8314 C   0  0  0  0  0  0  0  0  0  0  0  0
  -22.8560  -23.7626   23.0542 C   0  0  0  0  0  0  0  0  0  0  0  0
  -22.9742  -24.8109   22.1502 C   0  0  0  0  0  0  0  0  0  0  0  0
  -22.0024  -25.7754   21.9877 C   0  0  0  0  0  0  0  0  0  0  0  0
  -20.8635  -25.6642   22.7812 C   0  0  0  0  0  0  0  0  0  0  0  0
  2  1  1  0
  1 15  2  0
  1 16  1  0
  4  2  2  0
  2  5  1  0
  3  4  1  0
  3  7  2  0
  8  3  1  0
  4 14  1  0
  6  5  2  0
  7  6  1  0
 11  8  2  0
  8 13  1  0
 10  9  2  0
  9 12  1  0
 10 11  1  0
 12 13  2  0
 16 17  1  0
 18 17  1  6
 18 19  2  0
 18 20  2  0
 18 21  1  0
 21 22  2  0
 21 26  1  0
 22 23  1  0
 23 24  2  0
 24 25  1  0
 25 26  2  0
M  END
$$$$
