
     RDKit          3D

 26 28  0  0  0  0  0  0  0  0999 V2000
   -5.3543  -13.4005   15.7642 C   0  0  0  0  0  0  0  0  0  0  0  0
   -6.1555  -13.8499   14.6475 C   0  0  0  0  0  0  0  0  0  0  0  0
   -8.1928  -14.6589   13.6017 C   0  0  0  0  0  0  0  0  0  0  0  0
   -7.4589  -14.2309   14.7296 C   0  0  0  0  0  0  0  0  0  0  0  0
   -5.5888  -13.9112   13.3640 C   0  0  0  0  0  0  0  0  0  0  0  0
   -6.2865  -14.3246   12.2563 C   0  0  0  0  0  0  0  0  0  0  0  0
   -7.5978  -14.7032   12.3646 C   0  0  0  0  0  0  0  0  0  0  0  0
   -9.5746  -15.0442   13.7908 C   0  0  0  0  0  0  0  0  0  0  0  0
  -12.2238  -15.7844   14.1553 C   0  0  0  0  0  0  0  0  0  0  0  0
  -11.2326  -16.3152   14.9260 C   0  0  0  0  0  0  0  0  0  0  0  0
   -9.8944  -15.9580   14.7607 C   0  0  0  0  0  0  0  0  0  0  0  0
  -11.8991  -14.8676   13.1828 C   0  0  0  0  0  0  0  0  0  0  0  0
  -10.5591  -14.5013   13.0075 C   0  0  0  0  0  0  0  0  0  0  0  0
   -8.0957  -14.2105   15.9159 F   0  0  0  0  0  0  0  0  0  0  0  0
   -4.0730  -13.3197   15.6157 O   0  0  0  0  0  0  0  0  0  0  0  0
   -5.8052  -13.0252   17.0395 N   0  0  0  0  0  0  0  0  0  0  0  0
   -4.8889  -12.8477   18.1259 N   0  0  0  0  0  0  0  0  0  0  0  0
   -5.8515  -12.6635   19.5470 S   0  0  1  0  0  6  0  0  0  0  0  0
   -4.9099  -12.4378   20.7206 O   0  0  0  0  0  0  0  0  0  0  0  0
   -6.7495  -11.4915   19.4758 O   0  0  0  0  0  0  0  0  0  0  0  0
   -6.7044  -14.1654   19.7997 C   0  0  0  0  0  0  0  0  0  0  0  0
   -6.2112  -15.0986   20.6838 C   0  0  0  0  0  0  0  0  0  0  0  0
   -6.8966  -16.3031   20.8854 C   0  0  0  0  0  0  0  0  0  0  0  0
   -8.0702  -16.5148   20.1726 C   0  0  0  0  0  0  0  0  0  0  0  0
   -8.5839  -15.5959   19.2820 C   0  0  0  0  0  0  0  0  0  0  0  0
   -7.8694  -14.4127   19.1132 C   0  0  0  0  0  0  0  0  0  0  0  0
  2  1  1  0
  1 15  2  0
  1 16  1  0
  4  2  2  0
  2  5  1  0
  3  4  1  0
  3  7  2  0
  8  3  1  0
  4 14  1  0
  6  5  2  0
  7  6  1  0
 11  8  2  0
  8 13  1  0
 10  9  2  0
  9 12  1  0
 10 11  1  0
 12 13  2  0
 16 17  1  0
 18 17  1  6
 18 19  2  0
 18 20  2  0
 18 21  1  0
 21 22  2  0
 21 26  1  0
 22 23  1  0
 23 24  2  0
 24 25  1  0
 25 26  2  0
M  END
$$$$
