
     RDKit          3D

 26 28  0  0  0  0  0  0  0  0999 V2000
  -16.3693  -24.6985   22.6257 C   0  0  0  0  0  0  0  0  0  0  0  0
  -17.3804  -23.8780   21.9971 C   0  0  0  0  0  0  0  0  0  0  0  0
  -19.6629  -23.1824   21.5438 C   0  0  0  0  0  0  0  0  0  0  0  0
  -18.7208  -24.0169   22.1841 C   0  0  0  0  0  0  0  0  0  0  0  0
  -16.9969  -22.8477   21.1232 C   0  0  0  0  0  0  0  0  0  0  0  0
  -17.8981  -22.0268   20.4920 C   0  0  0  0  0  0  0  0  0  0  0  0
  -19.2425  -22.1864   20.6965 C   0  0  0  0  0  0  0  0  0  0  0  0
  -21.0675  -23.4089   21.8069 C   0  0  0  0  0  0  0  0  0  0  0  0
  -23.7608  -23.8455   22.3115 C   0  0  0  0  0  0  0  0  0  0  0  0
  -22.9050  -24.8871   22.1092 C   0  0  0  0  0  0  0  0  0  0  0  0
  -21.5476  -24.6915   21.8540 C   0  0  0  0  0  0  0  0  0  0  0  0
  -23.2753  -22.5595   22.2634 C   0  0  0  0  0  0  0  0  0  0  0  0
  -21.9146  -22.3507   22.0081 C   0  0  0  0  0  0  0  0  0  0  0  0
  -19.1933  -24.9766   23.0019 F   0  0  0  0  0  0  0  0  0  0  0  0
  -15.3595  -25.0884   21.9196 O   0  0  0  0  0  0  0  0  0  0  0  0
  -16.3404  -25.1442   23.9566 N   0  0  0  0  0  0  0  0  0  0  0  0
  -15.2546  -25.9388   24.4476 N   0  0  0  0  0  0  0  0  0  0  0  0
  -15.8757  -27.5368   24.6493 S   0  0  1  0  0  6  0  0  0  0  0  0
  -17.1233  -27.6631   23.7875 O   0  0  0  0  0  0  0  0  0  0  0  0
  -14.9259  -28.5757   24.1979 O   0  0  0  0  0  0  0  0  0  0  0  0
  -16.3370  -27.7115   26.3237 C   0  0  0  0  0  0  0  0  0  0  0  0
  -15.4989  -27.2647   27.3205 C   0  0  0  0  0  0  0  0  0  0  0  0
  -15.8705  -27.4054   28.6634 C   0  0  0  0  0  0  0  0  0  0  0  0
  -17.0935  -28.0017   28.9443 C   0  0  0  0  0  0  0  0  0  0  0  0
  -17.9497  -28.4570   27.9640 C   0  0  0  0  0  0  0  0  0  0  0  0
  -17.5394  -28.2963   26.6431 C   0  0  0  0  0  0  0  0  0  0  0  0
  2  1  1  0
  1 15  2  0
  1 16  1  0
  4  2  2  0
  2  5  1  0
  3  4  1  0
  3  7  2  0
  8  3  1  0
  4 14  1  0
  6  5  2  0
  7  6  1  0
 11  8  2  0
  8 13  1  0
 10  9  2  0
  9 12  1  0
 10 11  1  0
 12 13  2  0
 16 17  1  0
 18 17  1  1
 18 19  2  0
 18 20  2  0
 18 21  1  0
 21 22  2  0
 21 26  1  0
 22 23  1  0
 23 24  2  0
 24 25  1  0
 25 26  2  0
M  END
$$$$
