
     RDKit          3D

 26 28  0  0  0  0  0  0  0  0999 V2000
  -15.9308  -22.9504   18.3873 C   0  0  0  0  0  0  0  0  0  0  0  0
  -17.0229  -22.3081   17.6906 C   0  0  0  0  0  0  0  0  0  0  0  0
  -18.8965  -20.7742   17.5008 C   0  0  0  0  0  0  0  0  0  0  0  0
  -17.8459  -21.3699   18.2325 C   0  0  0  0  0  0  0  0  0  0  0  0
  -17.2894  -22.6441   16.3533 C   0  0  0  0  0  0  0  0  0  0  0  0
  -18.3059  -22.0757   15.6265 C   0  0  0  0  0  0  0  0  0  0  0  0
  -19.1209  -21.1334   16.1943 C   0  0  0  0  0  0  0  0  0  0  0  0
  -19.7178  -19.7856   18.1654 C   0  0  0  0  0  0  0  0  0  0  0  0
  -21.2946  -17.8908   19.4392 C   0  0  0  0  0  0  0  0  0  0  0  0
  -21.8551  -18.9029   18.7182 C   0  0  0  0  0  0  0  0  0  0  0  0
  -21.0824  -19.8663   18.0697 C   0  0  0  0  0  0  0  0  0  0  0  0
  -19.9246  -17.8130   19.5330 C   0  0  0  0  0  0  0  0  0  0  0  0
  -19.1386  -18.7744   18.8863 C   0  0  0  0  0  0  0  0  0  0  0  0
  -17.6762  -20.9785   19.5096 F   0  0  0  0  0  0  0  0  0  0  0  0
  -14.9430  -23.4166   17.6966 O   0  0  0  0  0  0  0  0  0  0  0  0
  -15.7985  -23.1410   19.7718 N   0  0  0  0  0  0  0  0  0  0  0  0
  -14.6688  -23.8305   20.3194 N   0  0  0  0  0  0  0  0  0  0  0  0
  -14.9427  -23.9354   22.0205 S   0  0  1  0  0  6  0  0  0  0  0  0
  -14.4559  -22.6390   22.6508 O   0  0  0  0  0  0  0  0  0  0  0  0
  -16.3755  -24.0736   22.3569 O   0  0  0  0  0  0  0  0  0  0  0  0
  -13.9669  -25.2493   22.6276 C   0  0  0  0  0  0  0  0  0  0  0  0
  -12.5949  -25.1356   22.6523 C   0  0  0  0  0  0  0  0  0  0  0  0
  -11.8135  -26.1905   23.1397 C   0  0  0  0  0  0  0  0  0  0  0  0
  -12.4641  -27.3332   23.5883 C   0  0  0  0  0  0  0  0  0  0  0  0
  -13.8360  -27.4707   23.5738 C   0  0  0  0  0  0  0  0  0  0  0  0
  -14.5729  -26.3970   23.0808 C   0  0  0  0  0  0  0  0  0  0  0  0
  2  1  1  0
  1 15  2  0
  1 16  1  0
  4  2  2  0
  2  5  1  0
  3  4  1  0
  3  7  2  0
  8  3  1  0
  4 14  1  0
  6  5  2  0
  7  6  1  0
 11  8  2  0
  8 13  1  0
 10  9  2  0
  9 12  1  0
 10 11  1  0
 12 13  2  0
 16 17  1  0
 18 17  1  6
 18 19  2  0
 18 20  2  0
 18 21  1  0
 21 22  2  0
 21 26  1  0
 22 23  1  0
 23 24  2  0
 24 25  1  0
 25 26  2  0
M  END
$$$$
