
     RDKit          3D

 26 28  0  0  0  0  0  0  0  0999 V2000
  -15.2960  -23.5454   18.7279 C   0  0  0  0  0  0  0  0  0  0  0  0
  -16.3447  -22.6935   18.2128 C   0  0  0  0  0  0  0  0  0  0  0  0
  -18.2742  -21.2323   18.4157 C   0  0  0  0  0  0  0  0  0  0  0  0
  -17.2731  -22.0557   18.9759 C   0  0  0  0  0  0  0  0  0  0  0  0
  -16.4496  -22.4773   16.8291 C   0  0  0  0  0  0  0  0  0  0  0  0
  -17.4158  -21.6805   16.2667 C   0  0  0  0  0  0  0  0  0  0  0  0
  -18.3393  -21.0490   17.0561 C   0  0  0  0  0  0  0  0  0  0  0  0
  -19.2168  -20.5967   19.3107 C   0  0  0  0  0  0  0  0  0  0  0  0
  -21.0243  -19.3794   21.0283 C   0  0  0  0  0  0  0  0  0  0  0  0
  -20.6256  -20.6681   21.2246 C   0  0  0  0  0  0  0  0  0  0  0  0
  -19.7183  -21.3002   20.3744 C   0  0  0  0  0  0  0  0  0  0  0  0
  -20.5189  -18.6763   19.9597 C   0  0  0  0  0  0  0  0  0  0  0  0
  -19.6074  -19.3003   19.0993 C   0  0  0  0  0  0  0  0  0  0  0  0
  -17.2612  -22.1985   20.3147 F   0  0  0  0  0  0  0  0  0  0  0  0
  -14.5432  -24.1783   17.8896 O   0  0  0  0  0  0  0  0  0  0  0  0
  -14.9764  -23.7837   20.0739 N   0  0  0  0  0  0  0  0  0  0  0  0
  -13.9980  -24.7636   20.4399 N   0  0  0  0  0  0  0  0  0  0  0  0
  -13.5931  -24.4520   22.0888 S   0  0  1  0  0  6  0  0  0  0  0  0
  -14.8676  -24.0411   22.8111 O   0  0  0  0  0  0  0  0  0  0  0  0
  -13.0659  -25.6480   22.7792 O   0  0  0  0  0  0  0  0  0  0  0  0
  -12.4836  -23.1045   22.1096 C   0  0  0  0  0  0  0  0  0  0  0  0
  -12.8616  -21.8913   21.5796 C   0  0  0  0  0  0  0  0  0  0  0  0
  -11.9703  -20.8112   21.5971 C   0  0  0  0  0  0  0  0  0  0  0  0
  -10.7151  -21.0083   22.1590 C   0  0  0  0  0  0  0  0  0  0  0  0
  -10.3135  -22.2133   22.6957 C   0  0  0  0  0  0  0  0  0  0  0  0
  -11.2320  -23.2592   22.6567 C   0  0  0  0  0  0  0  0  0  0  0  0
  2  1  1  0
  1 15  2  0
  1 16  1  0
  4  2  2  0
  2  5  1  0
  3  4  1  0
  3  7  2  0
  8  3  1  0
  4 14  1  0
  6  5  2  0
  7  6  1  0
 11  8  2  0
  8 13  1  0
 10  9  2  0
  9 12  1  0
 10 11  1  0
 12 13  2  0
 16 17  1  0
 18 17  1  6
 18 19  2  0
 18 20  2  0
 18 21  1  0
 21 22  2  0
 21 26  1  0
 22 23  1  0
 23 24  2  0
 24 25  1  0
 25 26  2  0
M  END
$$$$
