
     RDKit          3D

 26 28  0  0  0  0  0  0  0  0999 V2000
  -17.5562  -23.0689   19.2341 C   0  0  0  0  0  0  0  0  0  0  0  0
  -18.0906  -21.9362   19.9567 C   0  0  0  0  0  0  0  0  0  0  0  0
  -19.4241  -19.9194   20.1873 C   0  0  0  0  0  0  0  0  0  0  0  0
  -18.9313  -21.0050   19.4305 C   0  0  0  0  0  0  0  0  0  0  0  0
  -17.7457  -21.7445   21.3046 C   0  0  0  0  0  0  0  0  0  0  0  0
  -18.2148  -20.6955   22.0558 C   0  0  0  0  0  0  0  0  0  0  0  0
  -19.0602  -19.7710   21.5034 C   0  0  0  0  0  0  0  0  0  0  0  0
  -20.3137  -18.9811   19.5379 C   0  0  0  0  0  0  0  0  0  0  0  0
  -22.0184  -17.1816   18.2909 C   0  0  0  0  0  0  0  0  0  0  0  0
  -20.8815  -17.6153   17.6764 C   0  0  0  0  0  0  0  0  0  0  0  0
  -20.0100  -18.5193   18.2840 C   0  0  0  0  0  0  0  0  0  0  0  0
  -22.3200  -17.6473   19.5494 C   0  0  0  0  0  0  0  0  0  0  0  0
  -21.4528  -18.5550   20.1694 C   0  0  0  0  0  0  0  0  0  0  0  0
  -19.3220  -21.0965   18.1453 F   0  0  0  0  0  0  0  0  0  0  0  0
  -16.6626  -23.8054   19.8080 O   0  0  0  0  0  0  0  0  0  0  0  0
  -17.8955  -23.4897   17.9386 N   0  0  0  0  0  0  0  0  0  0  0  0
  -17.4054  -24.7275   17.4103 N   0  0  0  0  0  0  0  0  0  0  0  0
  -16.9194  -24.4029   15.7860 S   0  0  1  0  0  6  0  0  0  0  0  0
  -17.3376  -25.5889   14.9296 O   0  0  0  0  0  0  0  0  0  0  0  0
  -17.5792  -23.2049   15.2252 O   0  0  0  0  0  0  0  0  0  0  0  0
  -15.1772  -24.2948   15.7727 C   0  0  0  0  0  0  0  0  0  0  0  0
  -14.4150  -25.4408   15.7344 C   0  0  0  0  0  0  0  0  0  0  0  0
  -13.0175  -25.3522   15.7237 C   0  0  0  0  0  0  0  0  0  0  0  0
  -12.4421  -24.0880   15.7527 C   0  0  0  0  0  0  0  0  0  0  0  0
  -13.1838  -22.9262   15.7912 C   0  0  0  0  0  0  0  0  0  0  0  0
  -14.5696  -23.0619   15.8005 C   0  0  0  0  0  0  0  0  0  0  0  0
  2  1  1  0
  1 15  2  0
  1 16  1  0
  4  2  2  0
  2  5  1  0
  3  4  1  0
  3  7  2  0
  8  3  1  0
  4 14  1  0
  6  5  2  0
  7  6  1  0
 11  8  2  0
  8 13  1  0
 10  9  2  0
  9 12  1  0
 10 11  1  0
 12 13  2  0
 16 17  1  0
 18 17  1  1
 18 19  2  0
 18 20  2  0
 18 21  1  0
 21 22  2  0
 21 26  1  0
 22 23  1  0
 23 24  2  0
 24 25  1  0
 25 26  2  0
M  END
$$$$
