
     RDKit          3D

 26 28  0  0  0  0  0  0  0  0999 V2000
  -18.5024  -31.5259    9.2681 C   0  0  0  0  0  0  0  0  0  0  0  0
  -19.3354  -30.4149    9.6711 C   0  0  0  0  0  0  0  0  0  0  0  0
  -19.7503  -28.2430   10.6760 C   0  0  0  0  0  0  0  0  0  0  0  0
  -18.8882  -29.2993   10.3088 C   0  0  0  0  0  0  0  0  0  0  0  0
  -20.7136  -30.4446    9.4027 C   0  0  0  0  0  0  0  0  0  0  0  0
  -21.5667  -29.4274    9.7521 C   0  0  0  0  0  0  0  0  0  0  0  0
  -21.0925  -28.3145   10.3934 C   0  0  0  0  0  0  0  0  0  0  0  0
  -19.1794  -27.0977   11.3512 C   0  0  0  0  0  0  0  0  0  0  0  0
  -18.0828  -24.9014   12.6447 C   0  0  0  0  0  0  0  0  0  0  0  0
  -17.4024  -25.5478   11.6561 C   0  0  0  0  0  0  0  0  0  0  0  0
  -17.9337  -26.6536   10.9922 C   0  0  0  0  0  0  0  0  0  0  0  0
  -19.3328  -25.3500   13.0024 C   0  0  0  0  0  0  0  0  0  0  0  0
  -19.8766  -26.4591   12.3431 C   0  0  0  0  0  0  0  0  0  0  0  0
  -17.5829  -29.1728   10.6140 F   0  0  0  0  0  0  0  0  0  0  0  0
  -19.0660  -32.5702    8.7563 O   0  0  0  0  0  0  0  0  0  0  0  0
  -17.1052  -31.6216    9.3642 N   0  0  0  0  0  0  0  0  0  0  0  0
  -16.4140  -32.8050    8.9479 N   0  0  0  0  0  0  0  0  0  0  0  0
  -15.3705  -33.2411   10.2520 S   0  0  1  0  0  6  0  0  0  0  0  0
  -14.3499  -34.2355    9.7185 O   0  0  0  0  0  0  0  0  0  0  0  0
  -14.6176  -32.0867   10.7864 O   0  0  0  0  0  0  0  0  0  0  0  0
  -16.3466  -34.0400   11.4587 C   0  0  0  0  0  0  0  0  0  0  0  0
  -17.0890  -35.1495   11.1216 C   0  0  0  0  0  0  0  0  0  0  0  0
  -17.8716  -35.7893   12.0909 C   0  0  0  0  0  0  0  0  0  0  0  0
  -17.8693  -35.2708   13.3798 C   0  0  0  0  0  0  0  0  0  0  0  0
  -17.1345  -34.1615   13.7415 C   0  0  0  0  0  0  0  0  0  0  0  0
  -16.3712  -33.5576   12.7457 C   0  0  0  0  0  0  0  0  0  0  0  0
  2  1  1  0
  1 15  2  0
  1 16  1  0
  4  2  2  0
  2  5  1  0
  3  4  1  0
  3  7  2  0
  8  3  1  0
  4 14  1  0
  6  5  2  0
  7  6  1  0
 11  8  2  0
  8 13  1  0
 10  9  2  0
  9 12  1  0
 10 11  1  0
 12 13  2  0
 16 17  1  0
 18 17  1  6
 18 19  2  0
 18 20  2  0
 18 21  1  0
 21 22  2  0
 21 26  1  0
 22 23  1  0
 23 24  2  0
 24 25  1  0
 25 26  2  0
M  END
$$$$
