
     RDKit          3D

 26 28  0  0  0  0  0  0  0  0999 V2000
  -18.0659  -21.9426   20.5470 C   0  0  0  0  0  0  0  0  0  0  0  0
  -19.2114  -22.5876   21.1490 C   0  0  0  0  0  0  0  0  0  0  0  0
  -20.3015  -24.1892   22.6139 C   0  0  0  0  0  0  0  0  0  0  0  0
  -19.1460  -23.5987   22.0570 C   0  0  0  0  0  0  0  0  0  0  0  0
  -20.5071  -22.1707   20.8028 C   0  0  0  0  0  0  0  0  0  0  0  0
  -21.6416  -22.7327   21.3337 C   0  0  0  0  0  0  0  0  0  0  0  0
  -21.5497  -23.7494   22.2461 C   0  0  0  0  0  0  0  0  0  0  0  0
  -20.1285  -25.2591   23.5724 C   0  0  0  0  0  0  0  0  0  0  0  0
  -19.7982  -27.3100   25.4120 C   0  0  0  0  0  0  0  0  0  0  0  0
  -20.5768  -26.2280   25.6969 C   0  0  0  0  0  0  0  0  0  0  0  0
  -20.7573  -25.1855   24.7878 C   0  0  0  0  0  0  0  0  0  0  0  0
  -19.1686  -27.3805   24.1911 C   0  0  0  0  0  0  0  0  0  0  0  0
  -19.3423  -26.3400   23.2704 C   0  0  0  0  0  0  0  0  0  0  0  0
  -17.9505  -24.0735   22.4549 F   0  0  0  0  0  0  0  0  0  0  0  0
  -18.2608  -21.1113   19.5768 O   0  0  0  0  0  0  0  0  0  0  0  0
  -16.7156  -22.1082   20.8933 N   0  0  0  0  0  0  0  0  0  0  0  0
  -15.6854  -21.3646   20.2322 N   0  0  0  0  0  0  0  0  0  0  0  0
  -14.3176  -22.4131   20.1338 S   0  0  1  0  0  6  0  0  0  0  0  0
  -13.0659  -21.5486   20.1623 O   0  0  0  0  0  0  0  0  0  0  0  0
  -14.2323  -23.3432   21.2795 O   0  0  0  0  0  0  0  0  0  0  0  0
  -14.3939  -23.2297   18.5929 C   0  0  0  0  0  0  0  0  0  0  0  0
  -14.7844  -24.5485   18.5295 C   0  0  0  0  0  0  0  0  0  0  0  0
  -14.8452  -25.2022   17.2925 C   0  0  0  0  0  0  0  0  0  0  0  0
  -14.5028  -24.4819   16.1548 C   0  0  0  0  0  0  0  0  0  0  0  0
  -14.1088  -23.1611   16.1927 C   0  0  0  0  0  0  0  0  0  0  0  0
  -14.0629  -22.5515   17.4439 C   0  0  0  0  0  0  0  0  0  0  0  0
  2  1  1  0
  1 15  2  0
  1 16  1  0
  4  2  2  0
  2  5  1  0
  3  4  1  0
  3  7  2  0
  8  3  1  0
  4 14  1  0
  6  5  2  0
  7  6  1  0
 11  8  2  0
  8 13  1  0
 10  9  2  0
  9 12  1  0
 10 11  1  0
 12 13  2  0
 16 17  1  0
 18 17  1  1
 18 19  2  0
 18 20  2  0
 18 21  1  0
 21 22  2  0
 21 26  1  0
 22 23  1  0
 23 24  2  0
 24 25  1  0
 25 26  2  0
M  END
$$$$
