
     RDKit          3D

 26 28  0  0  0  0  0  0  0  0999 V2000
  -17.8951  -29.8444    9.3438 C   0  0  0  0  0  0  0  0  0  0  0  0
  -19.0526  -30.6273    9.7154 C   0  0  0  0  0  0  0  0  0  0  0  0
  -21.0630  -31.0871   10.9982 C   0  0  0  0  0  0  0  0  0  0  0  0
  -19.9473  -30.2820   10.6803 C   0  0  0  0  0  0  0  0  0  0  0  0
  -19.3138  -31.8397    9.0565 C   0  0  0  0  0  0  0  0  0  0  0  0
  -20.3929  -32.6353    9.3520 C   0  0  0  0  0  0  0  0  0  0  0  0
  -21.2797  -32.2660   10.3276 C   0  0  0  0  0  0  0  0  0  0  0  0
  -21.9583  -30.6342   12.0407 C   0  0  0  0  0  0  0  0  0  0  0  0
  -23.6770  -29.7659   14.0385 C   0  0  0  0  0  0  0  0  0  0  0  0
  -24.1404  -30.0608   12.7909 C   0  0  0  0  0  0  0  0  0  0  0  0
  -23.2951  -30.4988   11.7713 C   0  0  0  0  0  0  0  0  0  0  0  0
  -22.3347  -29.9030   14.3052 C   0  0  0  0  0  0  0  0  0  0  0  0
  -21.4765  -30.3419   13.2897 C   0  0  0  0  0  0  0  0  0  0  0  0
  -19.7867  -29.1387   11.3731 F   0  0  0  0  0  0  0  0  0  0  0  0
  -16.8224  -30.4613    8.9712 O   0  0  0  0  0  0  0  0  0  0  0  0
  -17.7805  -28.4453    9.3346 N   0  0  0  0  0  0  0  0  0  0  0  0
  -16.5650  -27.8050    8.9296 N   0  0  0  0  0  0  0  0  0  0  0  0
  -16.4156  -26.3877    9.9039 S   0  0  1  0  0  6  0  0  0  0  0  0
  -15.5979  -25.3701    9.1223 O   0  0  0  0  0  0  0  0  0  0  0  0
  -17.7221  -25.7631   10.2007 O   0  0  0  0  0  0  0  0  0  0  0  0
  -15.5264  -26.8307   11.3392 C   0  0  0  0  0  0  0  0  0  0  0  0
  -15.1978  -28.1480   11.5682 C   0  0  0  0  0  0  0  0  0  0  0  0
  -14.4843  -28.5018   12.7201 C   0  0  0  0  0  0  0  0  0  0  0  0
  -14.1285  -27.4914   13.6048 C   0  0  0  0  0  0  0  0  0  0  0  0
  -14.4459  -26.1657   13.3976 C   0  0  0  0  0  0  0  0  0  0  0  0
  -15.1558  -25.8601   12.2393 C   0  0  0  0  0  0  0  0  0  0  0  0
  2  1  1  0
  1 15  2  0
  1 16  1  0
  4  2  2  0
  2  5  1  0
  3  4  1  0
  3  7  2  0
  8  3  1  0
  4 14  1  0
  6  5  2  0
  7  6  1  0
 11  8  2  0
  8 13  1  0
 10  9  2  0
  9 12  1  0
 10 11  1  0
 12 13  2  0
 16 17  1  0
 18 17  1  6
 18 19  2  0
 18 20  2  0
 18 21  1  0
 21 22  2  0
 21 26  1  0
 22 23  1  0
 23 24  2  0
 24 25  1  0
 25 26  2  0
M  END
$$$$
