
     RDKit          3D

 26 28  0  0  0  0  0  0  0  0999 V2000
  -17.8496  -22.7496   21.3999 C   0  0  0  0  0  0  0  0  0  0  0  0
  -18.0602  -22.1696   20.0922 C   0  0  0  0  0  0  0  0  0  0  0  0
  -17.5826  -21.8670   17.7302 C   0  0  0  0  0  0  0  0  0  0  0  0
  -17.3283  -22.4646   18.9840 C   0  0  0  0  0  0  0  0  0  0  0  0
  -19.0866  -21.2295   19.9046 C   0  0  0  0  0  0  0  0  0  0  0  0
  -19.3485  -20.6383   18.6935 C   0  0  0  0  0  0  0  0  0  0  0  0
  -18.5976  -20.9520   17.5924 C   0  0  0  0  0  0  0  0  0  0  0  0
  -16.7488  -22.2462   16.6102 C   0  0  0  0  0  0  0  0  0  0  0  0
  -15.1502  -22.9756   14.4627 C   0  0  0  0  0  0  0  0  0  0  0  0
  -15.6881  -23.9155   15.2905 C   0  0  0  0  0  0  0  0  0  0  0  0
  -16.4944  -23.5722   16.3758 C   0  0  0  0  0  0  0  0  0  0  0  0
  -15.4076  -21.6456   14.7010 C   0  0  0  0  0  0  0  0  0  0  0  0
  -16.2156  -21.2889   15.7874 C   0  0  0  0  0  0  0  0  0  0  0  0
  -16.3190  -23.3529   19.0573 F   0  0  0  0  0  0  0  0  0  0  0  0
  -18.6033  -22.3664   22.3772 O   0  0  0  0  0  0  0  0  0  0  0  0
  -16.8950  -23.7137   21.7602 N   0  0  0  0  0  0  0  0  0  0  0  0
  -16.8823  -24.2885   23.0721 N   0  0  0  0  0  0  0  0  0  0  0  0
  -15.8316  -25.6559   22.9922 S   0  0  1  0  0  6  0  0  0  0  0  0
  -15.7415  -26.2553   24.3877 O   0  0  0  0  0  0  0  0  0  0  0  0
  -16.3437  -26.7130   22.0948 O   0  0  0  0  0  0  0  0  0  0  0  0
  -14.2507  -25.0749   22.5337 C   0  0  0  0  0  0  0  0  0  0  0  0
  -13.4908  -24.3604   23.4325 C   0  0  0  0  0  0  0  0  0  0  0  0
  -12.2226  -23.8951   23.0632 C   0  0  0  0  0  0  0  0  0  0  0  0
  -11.7707  -24.1773   21.7800 C   0  0  0  0  0  0  0  0  0  0  0  0
  -12.5128  -24.8906   20.8626 C   0  0  0  0  0  0  0  0  0  0  0  0
  -13.7676  -25.3335   21.2729 C   0  0  0  0  0  0  0  0  0  0  0  0
  2  1  1  0
  1 15  2  0
  1 16  1  0
  4  2  2  0
  2  5  1  0
  3  4  1  0
  3  7  2  0
  8  3  1  0
  4 14  1  0
  6  5  2  0
  7  6  1  0
 11  8  2  0
  8 13  1  0
 10  9  2  0
  9 12  1  0
 10 11  1  0
 12 13  2  0
 16 17  1  0
 18 17  1  1
 18 19  2  0
 18 20  2  0
 18 21  1  0
 21 22  2  0
 21 26  1  0
 22 23  1  0
 23 24  2  0
 24 25  1  0
 25 26  2  0
M  END
$$$$
