
     RDKit          3D

 26 28  0  0  0  0  0  0  0  0999 V2000
  -17.2590  -23.8562   22.1790 C   0  0  0  0  0  0  0  0  0  0  0  0
  -17.7591  -22.7601   21.3796 C   0  0  0  0  0  0  0  0  0  0  0  0
  -17.9672  -21.4550   19.3418 C   0  0  0  0  0  0  0  0  0  0  0  0
  -17.4445  -22.5436   20.0738 C   0  0  0  0  0  0  0  0  0  0  0  0
  -18.6395  -21.8267   21.9507 C   0  0  0  0  0  0  0  0  0  0  0  0
  -19.1574  -20.7626   21.2549 C   0  0  0  0  0  0  0  0  0  0  0  0
  -18.8257  -20.5660   19.9412 C   0  0  0  0  0  0  0  0  0  0  0  0
  -17.5729  -21.3095   17.9573 C   0  0  0  0  0  0  0  0  0  0  0  0
  -16.8160  -21.0286   15.3026 C   0  0  0  0  0  0  0  0  0  0  0  0
  -16.7122  -19.9886   16.1776 C   0  0  0  0  0  0  0  0  0  0  0  0
  -17.0865  -20.1067   17.5162 C   0  0  0  0  0  0  0  0  0  0  0  0
  -17.3046  -22.2344   15.7489 C   0  0  0  0  0  0  0  0  0  0  0  0
  -17.6835  -22.3650   17.0904 C   0  0  0  0  0  0  0  0  0  0  0  0
  -16.6065  -23.3801   19.4327 F   0  0  0  0  0  0  0  0  0  0  0  0
  -17.6798  -23.9800   23.3946 O   0  0  0  0  0  0  0  0  0  0  0  0
  -16.3391  -24.8431   21.7908 N   0  0  0  0  0  0  0  0  0  0  0  0
  -16.0104  -25.9319   22.6614 N   0  0  0  0  0  0  0  0  0  0  0  0
  -14.6478  -26.7227   21.9556 S   0  0  1  0  0  6  0  0  0  0  0  0
  -14.3341  -27.9498   22.7986 O   0  0  0  0  0  0  0  0  0  0  0  0
  -14.9152  -27.1941   20.5803 O   0  0  0  0  0  0  0  0  0  0  0  0
  -13.2963  -25.6221   22.0517 C   0  0  0  0  0  0  0  0  0  0  0  0
  -12.4704  -25.6382   23.1532 C   0  0  0  0  0  0  0  0  0  0  0  0
  -11.3865  -24.7546   23.2288 C   0  0  0  0  0  0  0  0  0  0  0  0
  -11.1818  -23.8789   22.1698 C   0  0  0  0  0  0  0  0  0  0  0  0
  -11.9946  -23.8438   21.0565 C   0  0  0  0  0  0  0  0  0  0  0  0
  -13.0600  -24.7400   21.0242 C   0  0  0  0  0  0  0  0  0  0  0  0
  2  1  1  0
  1 15  2  0
  1 16  1  0
  4  2  2  0
  2  5  1  0
  3  4  1  0
  3  7  2  0
  8  3  1  0
  4 14  1  0
  6  5  2  0
  7  6  1  0
 11  8  2  0
  8 13  1  0
 10  9  2  0
  9 12  1  0
 10 11  1  0
 12 13  2  0
 16 17  1  0
 18 17  1  1
 18 19  2  0
 18 20  2  0
 18 21  1  0
 21 22  2  0
 21 26  1  0
 22 23  1  0
 23 24  2  0
 24 25  1  0
 25 26  2  0
M  END
$$$$
