
     RDKit          3D

 26 28  0  0  0  0  0  0  0  0999 V2000
  -13.4183  -22.9929   20.4349 C   0  0  0  0  0  0  0  0  0  0  0  0
  -14.8172  -22.6649   20.2732 C   0  0  0  0  0  0  0  0  0  0  0  0
  -16.7905  -22.0687   18.9887 C   0  0  0  0  0  0  0  0  0  0  0  0
  -15.4166  -22.3800   19.0855 C   0  0  0  0  0  0  0  0  0  0  0  0
  -15.6583  -22.6282   21.3974 C   0  0  0  0  0  0  0  0  0  0  0  0
  -16.9957  -22.3276   21.3226 C   0  0  0  0  0  0  0  0  0  0  0  0
  -17.5760  -22.0444   20.1152 C   0  0  0  0  0  0  0  0  0  0  0  0
  -17.3357  -21.7799   17.6800 C   0  0  0  0  0  0  0  0  0  0  0  0
  -18.3830  -21.2272   15.1706 C   0  0  0  0  0  0  0  0  0  0  0  0
  -19.0224  -22.0706   16.0297 C   0  0  0  0  0  0  0  0  0  0  0  0
  -18.5147  -22.3630   17.2956 C   0  0  0  0  0  0  0  0  0  0  0  0
  -17.1999  -20.6437   15.5598 C   0  0  0  0  0  0  0  0  0  0  0  0
  -16.6804  -20.9296   16.8282 C   0  0  0  0  0  0  0  0  0  0  0  0
  -14.6977  -22.3863   17.9470 F   0  0  0  0  0  0  0  0  0  0  0  0
  -12.8152  -23.6248   19.4824 O   0  0  0  0  0  0  0  0  0  0  0  0
  -12.5972  -22.7026   21.5358 N   0  0  0  0  0  0  0  0  0  0  0  0
  -11.2013  -23.0233   21.5229 N   0  0  0  0  0  0  0  0  0  0  0  0
  -10.3622  -21.5495   21.8453 S   0  0  1  0  0  6  0  0  0  0  0  0
  -11.0497  -20.8704   23.0206 O   0  0  0  0  0  0  0  0  0  0  0  0
   -8.9531  -21.7721   22.2326 O   0  0  0  0  0  0  0  0  0  0  0  0
  -10.5330  -20.5313   20.4377 C   0  0  0  0  0  0  0  0  0  0  0  0
  -11.4164  -19.4754   20.4531 C   0  0  0  0  0  0  0  0  0  0  0  0
  -11.5522  -18.6595   19.3230 C   0  0  0  0  0  0  0  0  0  0  0  0
  -10.7760  -18.9518   18.2084 C   0  0  0  0  0  0  0  0  0  0  0  0
   -9.8848  -20.0032   18.1688 C   0  0  0  0  0  0  0  0  0  0  0  0
   -9.7826  -20.7877   19.3148 C   0  0  0  0  0  0  0  0  0  0  0  0
  2  1  1  0
  1 15  2  0
  1 16  1  0
  4  2  2  0
  2  5  1  0
  3  4  1  0
  3  7  2  0
  8  3  1  0
  4 14  1  0
  6  5  2  0
  7  6  1  0
 11  8  2  0
  8 13  1  0
 10  9  2  0
  9 12  1  0
 10 11  1  0
 12 13  2  0
 16 17  1  0
 18 17  1  6
 18 19  2  0
 18 20  2  0
 18 21  1  0
 21 22  2  0
 21 26  1  0
 22 23  1  0
 23 24  2  0
 24 25  1  0
 25 26  2  0
M  END
$$$$
