
     RDKit          3D

 23 26  0  0  0  0  0  0  0  0999 V2000
   34.6396   -0.4175   36.2439 C   0  0  0  0  0  0  0  0  0  0  0  0
   32.8466   -1.7924   36.3836 C   0  0  0  0  0  0  0  0  0  0  0  0
   30.7551   -1.4619   37.5917 C   0  0  0  0  0  0  0  0  0  0  0  0
   27.4808    0.0346   35.3446 C   0  0  0  0  0  0  0  0  0  0  0  0
   28.1193    0.8330   36.2453 C   0  0  0  0  0  0  0  0  0  0  0  0
   28.5537    2.3104   37.9225 C   0  0  0  0  0  0  0  0  0  0  0  0
   29.1824    0.3229   36.9667 C   0  0  0  0  0  0  0  0  0  0  0  0
   35.0061   -1.1019   35.1117 C   0  0  0  0  0  0  0  0  0  0  0  0
   36.1723   -0.8942   34.2411 C   0  0  0  0  0  0  0  0  0  0  0  0
   36.1548   -0.9443   32.8554 C   0  0  0  0  0  0  0  0  0  0  0  0
   37.4360   -0.7018   32.3998 C   0  0  0  0  0  0  0  0  0  0  0  0
   39.6437   -0.2225   33.4794 C   0  0  0  0  0  0  0  0  0  0  0  0
   38.2012   -0.5109   33.4991 N   0  0  0  0  0  0  0  0  0  0  0  0
   37.4398   -0.6278   34.5783 N   0  0  0  0  0  0  0  0  0  0  0  0
   33.7493   -2.2537   34.9943 S   0  0  0  0  0  0  0  0  0  0  0  0
   33.5605   -0.7906   36.8476 N   0  0  0  0  0  0  0  0  0  0  0  0
   35.5063    0.7313   36.7277 C   0  0  0  0  0  0  0  0  0  0  0  0
   31.6219   -2.3652   36.8990 N   0  0  0  0  0  0  0  0  0  0  0  0
   29.6321   -0.9669   36.8174 C   0  0  0  0  0  0  0  0  0  0  0  0
   28.9810   -1.7657   35.9061 C   0  0  0  0  0  0  0  0  0  0  0  0
   27.9279    2.1722   36.6437 O   0  0  0  0  0  0  0  0  0  0  0  0
   29.6174    1.3654   37.7916 O   0  0  0  0  0  0  0  0  0  0  0  0
   27.9025   -1.2811   35.1603 C   0  0  0  0  0  0  0  0  0  0  0  0
  1  8  2  0
 16  1  1  0
  1 17  1  0
  2 15  1  0
  2 16  2  0
 18  2  1  0
  3 18  1  0
 19  3  1  0
  5  4  2  0
  4 23  1  0
  7  5  1  0
  5 21  1  0
 21  6  1  0
  6 22  1  0
 19  7  2  0
  7 22  1  0
  8  9  1  0
 15  8  1  0
  9 10  1  0
  9 14  2  0
 10 11  2  0
 11 13  1  0
 13 12  1  0
 14 13  1  0
 19 20  1  0
 20 23  2  0
M  END
$$$$
