
     RDKit          3D

 23 26  0  0  0  0  0  0  0  0999 V2000
   35.4896   -1.9157   36.0342 C   0  0  0  0  0  0  0  0  0  0  0  0
   33.3382   -1.3353   36.4334 C   0  0  0  0  0  0  0  0  0  0  0  0
   31.1126   -0.3663   36.2076 C   0  0  0  0  0  0  0  0  0  0  0  0
   26.9143   -0.9854   36.2387 C   0  0  0  0  0  0  0  0  0  0  0  0
   27.4484    0.1370   36.7967 C   0  0  0  0  0  0  0  0  0  0  0  0
   27.9164    1.8494   38.2225 C   0  0  0  0  0  0  0  0  0  0  0  0
   28.8190    0.3160   36.7758 C   0  0  0  0  0  0  0  0  0  0  0  0
   35.8206   -0.5955   36.2133 C   0  0  0  0  0  0  0  0  0  0  0  0
   37.1406    0.0467   36.1358 C   0  0  0  0  0  0  0  0  0  0  0  0
   37.3618    1.4136   36.0589 C   0  0  0  0  0  0  0  0  0  0  0  0
   38.7252    1.6262   35.9993 C   0  0  0  0  0  0  0  0  0  0  0  0
   40.7533    0.1579   35.9996 C   0  0  0  0  0  0  0  0  0  0  0  0
   39.3034    0.4038   36.0402 N   0  0  0  0  0  0  0  0  0  0  0  0
   38.3538   -0.5181   36.1209 N   0  0  0  0  0  0  0  0  0  0  0  0
   34.2915    0.0919   36.5441 S   0  0  0  0  0  0  0  0  0  0  0  0
   34.2459   -2.2437   36.1516 N   0  0  0  0  0  0  0  0  0  0  0  0
   36.5848   -2.9164   35.7118 C   0  0  0  0  0  0  0  0  0  0  0  0
   31.9095   -1.4857   36.6064 N   0  0  0  0  0  0  0  0  0  0  0  0
   29.6796   -0.5949   36.2123 C   0  0  0  0  0  0  0  0  0  0  0  0
   29.1314   -1.7252   35.6518 C   0  0  0  0  0  0  0  0  0  0  0  0
   26.8756    1.2507   37.4451 O   0  0  0  0  0  0  0  0  0  0  0  0
   29.0525    1.5387   37.4137 O   0  0  0  0  0  0  0  0  0  0  0  0
   27.7496   -1.9370   35.6559 C   0  0  0  0  0  0  0  0  0  0  0  0
  1  8  2  0
 16  1  1  0
  1 17  1  0
  2 15  1  0
  2 16  2  0
 18  2  1  0
  3 18  1  0
 19  3  1  0
  5  4  2  0
  4 23  1  0
  7  5  1  0
  5 21  1  0
 21  6  1  0
  6 22  1  0
 19  7  2  0
  7 22  1  0
  8  9  1  0
 15  8  1  0
  9 10  1  0
  9 14  2  0
 10 11  2  0
 11 13  1  0
 13 12  1  0
 14 13  1  0
 19 20  1  0
 20 23  2  0
M  END
$$$$
