
     RDKit          3D

 23 26  0  0  0  0  0  0  0  0999 V2000
   34.9858   -1.7108   35.4243 C   0  0  0  0  0  0  0  0  0  0  0  0
   33.0631   -1.7923   36.6166 C   0  0  0  0  0  0  0  0  0  0  0  0
   30.9599   -1.3712   37.7752 C   0  0  0  0  0  0  0  0  0  0  0  0
   27.6491   -0.0791   35.4558 C   0  0  0  0  0  0  0  0  0  0  0  0
   28.1867    0.7392   36.4033 C   0  0  0  0  0  0  0  0  0  0  0  0
   28.4371    2.1907   38.1396 C   0  0  0  0  0  0  0  0  0  0  0  0
   29.2640    0.2958   37.1474 C   0  0  0  0  0  0  0  0  0  0  0  0
   35.1772   -0.4469   35.9247 C   0  0  0  0  0  0  0  0  0  0  0  0
   36.2819    0.4902   35.6749 C   0  0  0  0  0  0  0  0  0  0  0  0
   36.3201    1.8116   36.0941 C   0  0  0  0  0  0  0  0  0  0  0  0
   37.5127    2.3637   35.6690 C   0  0  0  0  0  0  0  0  0  0  0  0
   39.4941    1.5353   34.3819 C   0  0  0  0  0  0  0  0  0  0  0  0
   38.1713    1.3842   35.0079 N   0  0  0  0  0  0  0  0  0  0  0  0
   37.4310    0.2843   35.0205 N   0  0  0  0  0  0  0  0  0  0  0  0
   33.7905   -0.2608   36.9057 S   0  0  0  0  0  0  0  0  0  0  0  0
   33.9234   -2.3470   35.7915 N   0  0  0  0  0  0  0  0  0  0  0  0
   36.0172   -2.2957   34.4762 C   0  0  0  0  0  0  0  0  0  0  0  0
   31.8258   -2.3219   37.1478 N   0  0  0  0  0  0  0  0  0  0  0  0
   29.8261   -0.9462   36.9755 C   0  0  0  0  0  0  0  0  0  0  0  0
   29.2764   -1.7656   36.0170 C   0  0  0  0  0  0  0  0  0  0  0  0
   27.8691    2.0436   36.8351 O   0  0  0  0  0  0  0  0  0  0  0  0
   29.5808    1.3428   38.0191 O   0  0  0  0  0  0  0  0  0  0  0  0
   28.1868   -1.3481   35.2472 C   0  0  0  0  0  0  0  0  0  0  0  0
  1  8  2  0
 16  1  1  0
  1 17  1  0
  2 15  1  0
  2 16  2  0
 18  2  1  0
  3 18  1  0
 19  3  1  0
  5  4  2  0
  4 23  1  0
  7  5  1  0
  5 21  1  0
 21  6  1  0
  6 22  1  0
 19  7  2  0
  7 22  1  0
  8  9  1  0
 15  8  1  0
  9 10  1  0
  9 14  2  0
 10 11  2  0
 11 13  1  0
 13 12  1  0
 14 13  1  0
 19 20  1  0
 20 23  2  0
M  END
$$$$
