
     RDKit          3D

 23 26  0  0  0  0  0  0  0  0999 V2000
   35.4123   -0.9775   36.3250 C   0  0  0  0  0  0  0  0  0  0  0  0
   33.2159   -1.4883   36.5239 C   0  0  0  0  0  0  0  0  0  0  0  0
   30.8259   -1.8876   36.2565 C   0  0  0  0  0  0  0  0  0  0  0  0
   28.6057    1.4858   37.5608 C   0  0  0  0  0  0  0  0  0  0  0  0
   28.1128    0.6733   36.5844 C   0  0  0  0  0  0  0  0  0  0  0  0
   27.1622   -0.0928   34.6625 C   0  0  0  0  0  0  0  0  0  0  0  0
   28.8549   -0.4188   36.1750 C   0  0  0  0  0  0  0  0  0  0  0  0
   35.0480   -0.0073   35.4247 C   0  0  0  0  0  0  0  0  0  0  0  0
   35.8991    0.9357   34.6847 C   0  0  0  0  0  0  0  0  0  0  0  0
   35.4432    1.8902   33.7879 C   0  0  0  0  0  0  0  0  0  0  0  0
   36.5366    2.5776   33.2983 C   0  0  0  0  0  0  0  0  0  0  0  0
   39.0113    2.4701   33.6638 C   0  0  0  0  0  0  0  0  0  0  0  0
   37.6241    2.0384   33.8959 N   0  0  0  0  0  0  0  0  0  0  0  0
   37.2303    1.0702   34.7117 N   0  0  0  0  0  0  0  0  0  0  0  0
   33.3499   -0.1963   35.3966 S   0  0  0  0  0  0  0  0  0  0  0  0
   34.4733   -1.6926   36.8493 N   0  0  0  0  0  0  0  0  0  0  0  0
   36.8816   -1.1627   36.6596 C   0  0  0  0  0  0  0  0  0  0  0  0
   32.0246   -2.1669   36.9861 N   0  0  0  0  0  0  0  0  0  0  0  0
   30.0811   -0.7285   36.7120 C   0  0  0  0  0  0  0  0  0  0  0  0
   30.5709    0.0977   37.6968 C   0  0  0  0  0  0  0  0  0  0  0  0
   26.9197    0.6931   35.8328 O   0  0  0  0  0  0  0  0  0  0  0  0
   28.0956   -1.0429   35.1798 O   0  0  0  0  0  0  0  0  0  0  0  0
   29.8460    1.2102   38.1340 C   0  0  0  0  0  0  0  0  0  0  0  0
  1  8  2  0
 16  1  1  0
  1 17  1  0
  2 15  1  0
  2 16  2  0
 18  2  1  0
  3 18  1  0
 19  3  1  0
  5  4  2  0
  4 23  1  0
  7  5  1  0
  5 21  1  0
 21  6  1  0
  6 22  1  0
 19  7  2  0
  7 22  1  0
  8  9  1  0
 15  8  1  0
  9 10  1  0
  9 14  2  0
 10 11  2  0
 11 13  1  0
 13 12  1  0
 14 13  1  0
 19 20  1  0
 20 23  2  0
M  END
$$$$
