
     RDKit          3D

 23 26  0  0  0  0  0  0  0  0999 V2000
   35.3057   -1.0467   36.3718 C   0  0  0  0  0  0  0  0  0  0  0  0
   33.1139   -1.6076   36.4491 C   0  0  0  0  0  0  0  0  0  0  0  0
   30.7445   -2.0195   36.0499 C   0  0  0  0  0  0  0  0  0  0  0  0
   28.5803    1.3429   37.4715 C   0  0  0  0  0  0  0  0  0  0  0  0
   28.1156    0.6234   36.4119 C   0  0  0  0  0  0  0  0  0  0  0  0
   27.2519    0.0365   34.3886 C   0  0  0  0  0  0  0  0  0  0  0  0
   28.8387   -0.4671   35.9658 C   0  0  0  0  0  0  0  0  0  0  0  0
   34.9442    0.0374   35.6112 C   0  0  0  0  0  0  0  0  0  0  0  0
   35.7950    1.0866   35.0314 C   0  0  0  0  0  0  0  0  0  0  0  0
   35.3359    2.2659   34.4640 C   0  0  0  0  0  0  0  0  0  0  0  0
   36.4299    2.9895   34.0311 C   0  0  0  0  0  0  0  0  0  0  0  0
   38.9095    2.6431   34.0518 C   0  0  0  0  0  0  0  0  0  0  0  0
   37.5208    2.2502   34.3372 N   0  0  0  0  0  0  0  0  0  0  0  0
   37.1286    1.1296   34.9275 N   0  0  0  0  0  0  0  0  0  0  0  0
   33.2500   -0.1664   35.5203 S   0  0  0  0  0  0  0  0  0  0  0  0
   34.3676   -1.8408   36.7689 N   0  0  0  0  0  0  0  0  0  0  0  0
   36.7708   -1.2597   36.7079 C   0  0  0  0  0  0  0  0  0  0  0  0
   31.9242   -2.3597   36.7845 N   0  0  0  0  0  0  0  0  0  0  0  0
   30.0184   -0.8655   36.5467 C   0  0  0  0  0  0  0  0  0  0  0  0
   30.4800   -0.1327   37.6155 C   0  0  0  0  0  0  0  0  0  0  0  0
   26.9706    0.7467   35.5979 O   0  0  0  0  0  0  0  0  0  0  0  0
   28.1164   -0.9864   34.8864 O   0  0  0  0  0  0  0  0  0  0  0  0
   29.7732    0.9754   38.0917 C   0  0  0  0  0  0  0  0  0  0  0  0
  1  8  2  0
 16  1  1  0
  1 17  1  0
  2 15  1  0
  2 16  2  0
 18  2  1  0
  3 18  1  0
 19  3  1  0
  5  4  2  0
  4 23  1  0
  7  5  1  0
  5 21  1  0
 21  6  1  0
  6 22  1  0
 19  7  2  0
  7 22  1  0
  8  9  1  0
 15  8  1  0
  9 10  1  0
  9 14  2  0
 10 11  2  0
 11 13  1  0
 13 12  1  0
 14 13  1  0
 19 20  1  0
 20 23  2  0
M  END
$$$$
