
     RDKit          3D

 23 26  0  0  0  0  0  0  0  0999 V2000
   35.4875   -1.4572   36.6927 C   0  0  0  0  0  0  0  0  0  0  0  0
   33.2342   -1.4620   36.4754 C   0  0  0  0  0  0  0  0  0  0  0  0
   31.0028   -1.5162   35.4950 C   0  0  0  0  0  0  0  0  0  0  0  0
   27.1628   -0.2121   36.7455 C   0  0  0  0  0  0  0  0  0  0  0  0
   28.2432    0.6083   36.8724 C   0  0  0  0  0  0  0  0  0  0  0  0
   29.7834    2.0701   37.6941 C   0  0  0  0  0  0  0  0  0  0  0  0
   29.4842    0.1609   36.4594 C   0  0  0  0  0  0  0  0  0  0  0  0
   35.4807   -0.1932   36.1571 C   0  0  0  0  0  0  0  0  0  0  0  0
   36.6136    0.7031   35.8850 C   0  0  0  0  0  0  0  0  0  0  0  0
   37.9432    0.3144   35.8197 C   0  0  0  0  0  0  0  0  0  0  0  0
   38.7059    1.4335   35.5481 C   0  0  0  0  0  0  0  0  0  0  0  0
   38.2253    3.8620   35.1736 C   0  0  0  0  0  0  0  0  0  0  0  0
   37.8413    2.4698   35.4538 N   0  0  0  0  0  0  0  0  0  0  0  0
   36.6098    2.0216   35.6553 N   0  0  0  0  0  0  0  0  0  0  0  0
   33.8102    0.0499   35.8920 S   0  0  0  0  0  0  0  0  0  0  0  0
   34.3513   -2.0547   36.8348 N   0  0  0  0  0  0  0  0  0  0  0  0
   36.8112   -2.0862   37.0888 C   0  0  0  0  0  0  0  0  0  0  0  0
   31.8724   -1.9457   36.5469 N   0  0  0  0  0  0  0  0  0  0  0  0
   29.6835   -1.0871   35.9203 C   0  0  0  0  0  0  0  0  0  0  0  0
   28.5871   -1.9086   35.7965 C   0  0  0  0  0  0  0  0  0  0  0  0
   28.3984    1.9186   37.3704 O   0  0  0  0  0  0  0  0  0  0  0  0
   30.3716    1.2114   36.7153 O   0  0  0  0  0  0  0  0  0  0  0  0
   27.3180   -1.4871   36.2042 C   0  0  0  0  0  0  0  0  0  0  0  0
  1  8  2  0
 16  1  1  0
  1 17  1  0
  2 15  1  0
  2 16  2  0
 18  2  1  0
  3 18  1  0
 19  3  1  0
  5  4  2  0
  4 23  1  0
  7  5  1  0
  5 21  1  0
 21  6  1  0
  6 22  1  0
 19  7  2  0
  7 22  1  0
  8  9  1  0
 15  8  1  0
  9 10  1  0
  9 14  2  0
 10 11  2  0
 11 13  1  0
 13 12  1  0
 14 13  1  0
 19 20  1  0
 20 23  2  0
M  END
$$$$
