
     RDKit          3D

 23 26  0  0  0  0  0  0  0  0999 V2000
   35.3108   -1.6786   35.4777 C   0  0  0  0  0  0  0  0  0  0  0  0
   33.1963   -1.7538   36.2827 C   0  0  0  0  0  0  0  0  0  0  0  0
   31.0677   -1.4575   37.4335 C   0  0  0  0  0  0  0  0  0  0  0  0
   27.6489    0.0801   35.4440 C   0  0  0  0  0  0  0  0  0  0  0  0
   28.3768    0.8763   36.2762 C   0  0  0  0  0  0  0  0  0  0  0  0
   28.9802    2.3661   37.8889 C   0  0  0  0  0  0  0  0  0  0  0  0
   29.4856    0.3527   36.9144 C   0  0  0  0  0  0  0  0  0  0  0  0
   35.3239   -0.3425   35.7929 C   0  0  0  0  0  0  0  0  0  0  0  0
   36.3995    0.6421   35.6071 C   0  0  0  0  0  0  0  0  0  0  0  0
   37.7396    0.3372   35.4221 C   0  0  0  0  0  0  0  0  0  0  0  0
   38.4360    1.5224   35.2878 C   0  0  0  0  0  0  0  0  0  0  0  0
   37.8284    3.9513   35.3077 C   0  0  0  0  0  0  0  0  0  0  0  0
   37.5223    2.5148   35.3916 N   0  0  0  0  0  0  0  0  0  0  0  0
   36.3246    1.9780   35.5799 N   0  0  0  0  0  0  0  0  0  0  0  0
   33.7601   -0.1377   36.4508 S   0  0  0  0  0  0  0  0  0  0  0  0
   34.2354   -2.3456   35.7362 N   0  0  0  0  0  0  0  0  0  0  0  0
   36.5437   -2.3030   34.8494 C   0  0  0  0  0  0  0  0  0  0  0  0
   31.9108   -2.3072   36.6497 N   0  0  0  0  0  0  0  0  0  0  0  0
   29.8945   -0.9485   36.7478 C   0  0  0  0  0  0  0  0  0  0  0  0
   29.1532   -1.7450   35.9061 C   0  0  0  0  0  0  0  0  0  0  0  0
   28.2471    2.2246   36.6688 O   0  0  0  0  0  0  0  0  0  0  0  0
   30.0094    1.3964   37.6843 O   0  0  0  0  0  0  0  0  0  0  0  0
   28.0265   -1.2469   35.2453 C   0  0  0  0  0  0  0  0  0  0  0  0
  1  8  2  0
 16  1  1  0
  1 17  1  0
  2 15  1  0
  2 16  2  0
 18  2  1  0
  3 18  1  0
 19  3  1  0
  5  4  2  0
  4 23  1  0
  7  5  1  0
  5 21  1  0
 21  6  1  0
  6 22  1  0
 19  7  2  0
  7 22  1  0
  8  9  1  0
 15  8  1  0
  9 10  1  0
  9 14  2  0
 10 11  2  0
 11 13  1  0
 13 12  1  0
 14 13  1  0
 19 20  1  0
 20 23  2  0
M  END
$$$$
