
     RDKit          3D

 23 26  0  0  0  0  0  0  0  0999 V2000
   34.9119   -1.7381   35.3277 C   0  0  0  0  0  0  0  0  0  0  0  0
   33.0092   -1.6888   36.5533 C   0  0  0  0  0  0  0  0  0  0  0  0
   30.9032   -1.1318   37.6476 C   0  0  0  0  0  0  0  0  0  0  0  0
   27.5897   -0.1435   35.1870 C   0  0  0  0  0  0  0  0  0  0  0  0
   28.0133    0.7215   36.1507 C   0  0  0  0  0  0  0  0  0  0  0  0
   28.0626    2.1937   37.8869 C   0  0  0  0  0  0  0  0  0  0  0  0
   29.0940    0.3770   36.9409 C   0  0  0  0  0  0  0  0  0  0  0  0
   35.1353   -0.4432   35.7250 C   0  0  0  0  0  0  0  0  0  0  0  0
   36.2526    0.4497   35.3853 C   0  0  0  0  0  0  0  0  0  0  0  0
   36.9447    0.4433   34.1836 C   0  0  0  0  0  0  0  0  0  0  0  0
   37.9198    1.4198   34.2434 C   0  0  0  0  0  0  0  0  0  0  0  0
   38.6557    3.0922   35.9553 C   0  0  0  0  0  0  0  0  0  0  0  0
   37.8072    1.9962   35.4622 N   0  0  0  0  0  0  0  0  0  0  0  0
   36.8180    1.4119   36.1241 N   0  0  0  0  0  0  0  0  0  0  0  0
   33.7696   -0.1542   36.7105 S   0  0  0  0  0  0  0  0  0  0  0  0
   33.8445   -2.3227   35.7602 N   0  0  0  0  0  0  0  0  0  0  0  0
   35.9156   -2.4151   34.4116 C   0  0  0  0  0  0  0  0  0  0  0  0
   31.7718   -2.1511   37.1438 N   0  0  0  0  0  0  0  0  0  0  0  0
   29.7702   -0.8108   36.7997 C   0  0  0  0  0  0  0  0  0  0  0  0
   29.3351   -1.6780   35.8245 C   0  0  0  0  0  0  0  0  0  0  0  0
   27.5643    1.9938   36.5612 O   0  0  0  0  0  0  0  0  0  0  0  0
   29.2808    1.4501   37.8185 O   0  0  0  0  0  0  0  0  0  0  0  0
   28.2456   -1.3604   35.0082 C   0  0  0  0  0  0  0  0  0  0  0  0
  1  8  2  0
 16  1  1  0
  1 17  1  0
  2 15  1  0
  2 16  2  0
 18  2  1  0
  3 18  1  0
 19  3  1  0
  5  4  2  0
  4 23  1  0
  7  5  1  0
  5 21  1  0
 21  6  1  0
  6 22  1  0
 19  7  2  0
  7 22  1  0
  8  9  1  0
 15  8  1  0
  9 10  1  0
  9 14  2  0
 10 11  2  0
 11 13  1  0
 13 12  1  0
 14 13  1  0
 19 20  1  0
 20 23  2  0
M  END
$$$$
