
     RDKit          3D

 23 26  0  0  0  0  0  0  0  0999 V2000
   35.0348   -0.0677   36.6118 C   0  0  0  0  0  0  0  0  0  0  0  0
   33.0023   -1.0121   36.9307 C   0  0  0  0  0  0  0  0  0  0  0  0
   30.7810   -2.0000   36.7495 C   0  0  0  0  0  0  0  0  0  0  0  0
   27.3358    0.2517   35.7150 C   0  0  0  0  0  0  0  0  0  0  0  0
   28.3203    0.8098   36.4737 C   0  0  0  0  0  0  0  0  0  0  0  0
   29.4367    1.9428   38.1028 C   0  0  0  0  0  0  0  0  0  0  0  0
   29.4325    0.0562   36.7991 C   0  0  0  0  0  0  0  0  0  0  0  0
   35.1466   -0.8259   35.4728 C   0  0  0  0  0  0  0  0  0  0  0  0
   36.2530   -0.8880   34.5069 C   0  0  0  0  0  0  0  0  0  0  0  0
   36.1362   -1.2774   33.1810 C   0  0  0  0  0  0  0  0  0  0  0  0
   37.3876   -1.2083   32.6004 C   0  0  0  0  0  0  0  0  0  0  0  0
   39.6774   -0.5702   33.3869 C   0  0  0  0  0  0  0  0  0  0  0  0
   38.2332   -0.7844   33.5677 N   0  0  0  0  0  0  0  0  0  0  0  0
   37.5474   -0.5998   34.6874 N   0  0  0  0  0  0  0  0  0  0  0  0
   33.6627   -1.6732   35.4868 S   0  0  0  0  0  0  0  0  0  0  0  0
   33.9545   -0.1884   37.3093 N   0  0  0  0  0  0  0  0  0  0  0  0
   36.1694    0.8659   36.9940 C   0  0  0  0  0  0  0  0  0  0  0  0
   31.7294   -1.2962   37.5572 N   0  0  0  0  0  0  0  0  0  0  0  0
   29.5952   -1.2451   36.3893 C   0  0  0  0  0  0  0  0  0  0  0  0
   28.5959   -1.8003   35.6241 C   0  0  0  0  0  0  0  0  0  0  0  0
   28.4776    2.0867   37.0515 O   0  0  0  0  0  0  0  0  0  0  0  0
   30.2461    0.8926   37.5705 O   0  0  0  0  0  0  0  0  0  0  0  0
   27.4582   -1.0659   35.2771 C   0  0  0  0  0  0  0  0  0  0  0  0
  1  8  2  0
 16  1  1  0
  1 17  1  0
  2 15  1  0
  2 16  2  0
 18  2  1  0
  3 18  1  0
 19  3  1  0
  5  4  2  0
  4 23  1  0
  7  5  1  0
  5 21  1  0
 21  6  1  0
  6 22  1  0
 19  7  2  0
  7 22  1  0
  8  9  1  0
 15  8  1  0
  9 10  1  0
  9 14  2  0
 10 11  2  0
 11 13  1  0
 13 12  1  0
 14 13  1  0
 19 20  1  0
 20 23  2  0
M  END
$$$$
