
     RDKit          3D

 23 26  0  0  0  0  0  0  0  0999 V2000
   35.1520   -0.0628   36.3563 C   0  0  0  0  0  0  0  0  0  0  0  0
   33.0573   -0.8370   36.7270 C   0  0  0  0  0  0  0  0  0  0  0  0
   30.8305   -1.8285   36.6918 C   0  0  0  0  0  0  0  0  0  0  0  0
   27.4191    0.2827   35.3080 C   0  0  0  0  0  0  0  0  0  0  0  0
   28.2340    0.8342   36.2504 C   0  0  0  0  0  0  0  0  0  0  0  0
   29.0054    1.8904   38.1143 C   0  0  0  0  0  0  0  0  0  0  0  0
   29.3386    0.1268   36.6868 C   0  0  0  0  0  0  0  0  0  0  0  0
   35.1645   -0.8100   35.2047 C   0  0  0  0  0  0  0  0  0  0  0  0
   36.2317   -0.9503   34.2036 C   0  0  0  0  0  0  0  0  0  0  0  0
   37.1499    0.0340   33.8700 C   0  0  0  0  0  0  0  0  0  0  0  0
   37.9863   -0.4708   32.8936 C   0  0  0  0  0  0  0  0  0  0  0  0
   38.1815   -2.6493   31.6749 C   0  0  0  0  0  0  0  0  0  0  0  0
   37.5699   -1.7352   32.6521 N   0  0  0  0  0  0  0  0  0  0  0  0
   36.5331   -2.0029   33.4340 N   0  0  0  0  0  0  0  0  0  0  0  0
   33.6151   -1.5290   35.2546 S   0  0  0  0  0  0  0  0  0  0  0  0
   34.0871   -0.1026   37.0859 N   0  0  0  0  0  0  0  0  0  0  0  0
   36.3729    0.7655   36.7145 C   0  0  0  0  0  0  0  0  0  0  0  0
   31.7845   -1.0222   37.3896 N   0  0  0  0  0  0  0  0  0  0  0  0
   29.6585   -1.1215   36.2099 C   0  0  0  0  0  0  0  0  0  0  0  0
   28.8298   -1.6704   35.2590 C   0  0  0  0  0  0  0  0  0  0  0  0
   28.2063    2.0637   36.9406 O   0  0  0  0  0  0  0  0  0  0  0  0
   29.9622    0.9431   37.6362 O   0  0  0  0  0  0  0  0  0  0  0  0
   27.7047   -0.9819   34.7961 C   0  0  0  0  0  0  0  0  0  0  0  0
  1  8  2  0
 16  1  1  0
  1 17  1  0
  2 15  1  0
  2 16  2  0
 18  2  1  0
  3 18  1  0
 19  3  1  0
  5  4  2  0
  4 23  1  0
  7  5  1  0
  5 21  1  0
 21  6  1  0
  6 22  1  0
 19  7  2  0
  7 22  1  0
  8  9  1  0
 15  8  1  0
  9 10  1  0
  9 14  2  0
 10 11  2  0
 11 13  1  0
 13 12  1  0
 14 13  1  0
 19 20  1  0
 20 23  2  0
M  END
$$$$
