
     RDKit          3D

 23 26  0  0  0  0  0  0  0  0999 V2000
   35.0527    0.1371   36.1935 C   0  0  0  0  0  0  0  0  0  0  0  0
   33.0699   -0.6989   36.8965 C   0  0  0  0  0  0  0  0  0  0  0  0
   30.8560   -1.6953   37.1167 C   0  0  0  0  0  0  0  0  0  0  0  0
   27.4669    0.2019   35.4063 C   0  0  0  0  0  0  0  0  0  0  0  0
   28.1847    0.8250   36.3825 C   0  0  0  0  0  0  0  0  0  0  0  0
   28.7686    1.9838   38.2535 C   0  0  0  0  0  0  0  0  0  0  0  0
   29.2840    0.1866   36.9255 C   0  0  0  0  0  0  0  0  0  0  0  0
   35.1417   -0.9380   35.3444 C   0  0  0  0  0  0  0  0  0  0  0  0
   36.2069   -1.2786   34.3904 C   0  0  0  0  0  0  0  0  0  0  0  0
   36.9300   -0.3644   33.6390 C   0  0  0  0  0  0  0  0  0  0  0  0
   37.8338   -1.0640   32.8634 C   0  0  0  0  0  0  0  0  0  0  0  0
   38.4052   -3.4810   32.5467 C   0  0  0  0  0  0  0  0  0  0  0  0
   37.6490   -2.3730   33.1508 N   0  0  0  0  0  0  0  0  0  0  0  0
   36.6849   -2.4826   34.0543 N   0  0  0  0  0  0  0  0  0  0  0  0
   33.6901   -1.7668   35.6994 S   0  0  0  0  0  0  0  0  0  0  0  0
   34.0084    0.2204   36.9488 N   0  0  0  0  0  0  0  0  0  0  0  0
   36.1697    1.1653   36.2055 C   0  0  0  0  0  0  0  0  0  0  0  0
   31.8358   -0.7967   37.6454 N   0  0  0  0  0  0  0  0  0  0  0  0
   29.6929   -1.0620   36.5234 C   0  0  0  0  0  0  0  0  0  0  0  0
   28.9619   -1.6836   35.5377 C   0  0  0  0  0  0  0  0  0  0  0  0
   28.0519    2.0764   37.0191 O   0  0  0  0  0  0  0  0  0  0  0  0
   29.7990    1.0654   37.8842 O   0  0  0  0  0  0  0  0  0  0  0  0
   27.8450   -1.0659   34.9674 C   0  0  0  0  0  0  0  0  0  0  0  0
  1  8  2  0
 16  1  1  0
  1 17  1  0
  2 15  1  0
  2 16  2  0
 18  2  1  0
  3 18  1  0
 19  3  1  0
  5  4  2  0
  4 23  1  0
  7  5  1  0
  5 21  1  0
 21  6  1  0
  6 22  1  0
 19  7  2  0
  7 22  1  0
  8  9  1  0
 15  8  1  0
  9 10  1  0
  9 14  2  0
 10 11  2  0
 11 13  1  0
 13 12  1  0
 14 13  1  0
 19 20  1  0
 20 23  2  0
M  END
$$$$
