
     RDKit          3D

 23 26  0  0  0  0  0  0  0  0999 V2000
   34.5165   -1.8088   35.6348 C   0  0  0  0  0  0  0  0  0  0  0  0
   32.8400   -1.2429   37.0468 C   0  0  0  0  0  0  0  0  0  0  0  0
   30.5803   -2.1515   37.1538 C   0  0  0  0  0  0  0  0  0  0  0  0
   27.5461    0.0527   35.1674 C   0  0  0  0  0  0  0  0  0  0  0  0
   28.2793    0.6312   36.1594 C   0  0  0  0  0  0  0  0  0  0  0  0
   28.8955    1.7989   38.0145 C   0  0  0  0  0  0  0  0  0  0  0  0
   29.2613   -0.1072   36.7930 C   0  0  0  0  0  0  0  0  0  0  0  0
   35.1305   -0.6307   35.9806 C   0  0  0  0  0  0  0  0  0  0  0  0
   36.4102   -0.0809   35.5105 C   0  0  0  0  0  0  0  0  0  0  0  0
   37.1653   -0.5930   34.4660 C   0  0  0  0  0  0  0  0  0  0  0  0
   38.2950    0.1896   34.3276 C   0  0  0  0  0  0  0  0  0  0  0  0
   39.2101    2.2089   35.4914 C   0  0  0  0  0  0  0  0  0  0  0  0
   38.2107    1.1509   35.2758 N   0  0  0  0  0  0  0  0  0  0  0  0
   37.0918    0.9771   35.9657 N   0  0  0  0  0  0  0  0  0  0  0  0
   34.0085    0.0182   37.0942 S   0  0  0  0  0  0  0  0  0  0  0  0
   33.3796   -2.0772   36.1859 N   0  0  0  0  0  0  0  0  0  0  0  0
   35.1922   -2.7303   34.6352 C   0  0  0  0  0  0  0  0  0  0  0  0
   31.5911   -1.3478   37.7699 N   0  0  0  0  0  0  0  0  0  0  0  0
   29.5373   -1.4130   36.4665 C   0  0  0  0  0  0  0  0  0  0  0  0
   28.7917   -1.9889   35.4641 C   0  0  0  0  0  0  0  0  0  0  0  0
   28.2645    1.9180   36.7363 O   0  0  0  0  0  0  0  0  0  0  0  0
   29.8255    0.7482   37.7451 O   0  0  0  0  0  0  0  0  0  0  0  0
   27.7912   -1.2702   34.8031 C   0  0  0  0  0  0  0  0  0  0  0  0
  1  8  2  0
 16  1  1  0
  1 17  1  0
  2 15  1  0
  2 16  2  0
 18  2  1  0
  3 18  1  0
 19  3  1  0
  5  4  2  0
  4 23  1  0
  7  5  1  0
  5 21  1  0
 21  6  1  0
  6 22  1  0
 19  7  2  0
  7 22  1  0
  8  9  1  0
 15  8  1  0
  9 10  1  0
  9 14  2  0
 10 11  2  0
 11 13  1  0
 13 12  1  0
 14 13  1  0
 19 20  1  0
 20 23  2  0
M  END
$$$$
