
     RDKit          3D

 23 26  0  0  0  0  0  0  0  0999 V2000
   35.1231    0.7712   36.1407 C   0  0  0  0  0  0  0  0  0  0  0  0
   33.2565    0.1174   37.2421 C   0  0  0  0  0  0  0  0  0  0  0  0
   31.0660   -0.8196   37.7588 C   0  0  0  0  0  0  0  0  0  0  0  0
   27.5409    0.2941   35.6745 C   0  0  0  0  0  0  0  0  0  0  0  0
   28.1262   -0.9138   35.4403 C   0  0  0  0  0  0  0  0  0  0  0  0
   29.0003   -2.7477   34.4121 C   0  0  0  0  0  0  0  0  0  0  0  0
   29.2747   -1.2539   36.1302 C   0  0  0  0  0  0  0  0  0  0  0  0
   35.4126   -0.5580   35.9563 C   0  0  0  0  0  0  0  0  0  0  0  0
   36.5613   -1.1691   35.2722 C   0  0  0  0  0  0  0  0  0  0  0  0
   37.5777   -0.4715   34.6371 C   0  0  0  0  0  0  0  0  0  0  0  0
   38.4681   -1.3890   34.1145 C   0  0  0  0  0  0  0  0  0  0  0  0
   38.6241   -3.8876   34.0734 C   0  0  0  0  0  0  0  0  0  0  0  0
   37.9866   -2.6120   34.4352 N   0  0  0  0  0  0  0  0  0  0  0  0
   36.8601   -2.4646   35.1188 N   0  0  0  0  0  0  0  0  0  0  0  0
   34.0862   -1.3016   36.7360 S   0  0  0  0  0  0  0  0  0  0  0  0
   34.0430    1.0663   36.7846 N   0  0  0  0  0  0  0  0  0  0  0  0
   36.0715    1.8192   35.5866 C   0  0  0  0  0  0  0  0  0  0  0  0
   32.0165    0.2268   37.9797 N   0  0  0  0  0  0  0  0  0  0  0  0
   29.8622   -0.4220   37.0527 C   0  0  0  0  0  0  0  0  0  0  0  0
   29.2646    0.7956   37.2822 C   0  0  0  0  0  0  0  0  0  0  0  0
   27.8018   -1.9860   34.5834 O   0  0  0  0  0  0  0  0  0  0  0  0
   29.6265   -2.5298   35.6777 O   0  0  0  0  0  0  0  0  0  0  0  0
   28.1025    1.1704   36.6016 C   0  0  0  0  0  0  0  0  0  0  0  0
  1  8  2  0
 16  1  1  0
  1 17  1  0
  2 15  1  0
  2 16  2  0
 18  2  1  0
  3 18  1  0
 19  3  1  0
  5  4  2  0
  4 23  1  0
  7  5  1  0
  5 21  1  0
 21  6  1  0
  6 22  1  0
 19  7  2  0
  7 22  1  0
  8  9  1  0
 15  8  1  0
  9 10  1  0
  9 14  2  0
 10 11  2  0
 11 13  1  0
 13 12  1  0
 14 13  1  0
 19 20  1  0
 20 23  2  0
M  END
$$$$
