
     RDKit          3D

  8  8  0  0  0  0  0  0  0  0999 V2000
   51.0405   43.3487  475.0388 O   0  0  0  0  0  0  0  0  0  0  0  0
   50.4963   43.5515  473.9594 C   0  0  0  0  0  0  0  0  0  0  0  0
   49.4054   42.6646  473.5385 C   0  0  0  0  0  0  0  0  0  0  0  0
   50.9393   44.6809  473.0934 C   0  0  0  0  0  0  0  0  0  0  0  0
   49.7592   45.5148  472.6831 C   0  0  0  0  0  0  0  0  0  0  0  0
   48.5588   44.6933  472.3629 C   0  0  0  0  0  0  0  0  0  0  0  0
   47.5695   45.2881  471.9866 O   0  0  0  0  0  0  0  0  0  0  0  0
   48.5168   43.2313  472.4781 C   0  0  0  0  0  0  0  0  0  0  0  0
  1  2  2  0
  2  3  1  0
  2  4  1  0
  3  8  1  0
  4  5  1  0
  5  6  1  0
  6  7  2  0
  6  8  1  0
M  END
$$$$
