
     RDKit          3D

  8  8  0  0  0  0  0  0  0  0999 V2000
   27.2270   50.4044  480.3313 O   0  0  0  0  0  0  0  0  0  0  0  0
   26.1234   50.6844  479.8774 C   0  0  0  0  0  0  0  0  0  0  0  0
   25.8972   52.0340  479.3470 C   0  0  0  0  0  0  0  0  0  0  0  0
   25.0336   49.6675  479.8670 C   0  0  0  0  0  0  0  0  0  0  0  0
   24.4352   49.5614  478.4933 C   0  0  0  0  0  0  0  0  0  0  0  0
   24.2915   50.8849  477.8255 C   0  0  0  0  0  0  0  0  0  0  0  0
   23.7815   50.8926  476.7236 O   0  0  0  0  0  0  0  0  0  0  0  0
   24.7276   52.1517  478.4234 C   0  0  0  0  0  0  0  0  0  0  0  0
  1  2  2  0
  2  3  1  0
  2  4  1  0
  3  8  1  0
  4  5  1  0
  5  6  1  0
  6  7  2  0
  6  8  1  0
M  END
$$$$
