
     RDKit          3D

  8  8  0  0  0  0  0  0  0  0999 V2000
   56.7161   48.5443  472.0115 O   0  0  0  0  0  0  0  0  0  0  0  0
   57.4560   47.6347  472.3685 C   0  0  0  0  0  0  0  0  0  0  0  0
   57.2080   46.2797  471.8622 C   0  0  0  0  0  0  0  0  0  0  0  0
   58.5867   47.9060  473.3011 C   0  0  0  0  0  0  0  0  0  0  0  0
   59.8652   47.3484  472.7437 C   0  0  0  0  0  0  0  0  0  0  0  0
   59.6772   46.0237  472.0895 C   0  0  0  0  0  0  0  0  0  0  0  0
   60.6694   45.4847  471.6432 O   0  0  0  0  0  0  0  0  0  0  0  0
   58.3779   45.3543  471.9619 C   0  0  0  0  0  0  0  0  0  0  0  0
  1  2  2  0
  2  3  1  0
  2  4  1  0
  3  8  1  0
  4  5  1  0
  5  6  1  0
  6  7  2  0
  6  8  1  0
M  END
$$$$
