
     RDKit          3D

  8  8  0  0  0  0  0  0  0  0999 V2000
   57.3605   46.9176  470.5548 O   0  0  0  0  0  0  0  0  0  0  0  0
   58.2984   47.3883  471.1880 C   0  0  0  0  0  0  0  0  0  0  0  0
   58.1323   48.6958  471.8336 C   0  0  0  0  0  0  0  0  0  0  0  0
   59.5834   46.6408  471.2972 C   0  0  0  0  0  0  0  0  0  0  0  0
   60.0023   46.5350  472.7359 C   0  0  0  0  0  0  0  0  0  0  0  0
   59.7445   47.7855  473.5027 C   0  0  0  0  0  0  0  0  0  0  0  0
   60.0878   47.7974  474.6673 O   0  0  0  0  0  0  0  0  0  0  0  0
   59.1093   48.9773  472.9295 C   0  0  0  0  0  0  0  0  0  0  0  0
  1  2  2  0
  2  3  1  0
  2  4  1  0
  3  8  1  0
  4  5  1  0
  5  6  1  0
  6  7  2  0
  6  8  1  0
M  END
$$$$
