
     RDKit          3D

  8  8  0  0  0  0  0  0  0  0999 V2000
   41.3313   59.4059  471.2272 O   0  0  0  0  0  0  0  0  0  0  0  0
   42.0272   59.0141  470.2975 C   0  0  0  0  0  0  0  0  0  0  0  0
   42.9903   57.9335  470.5399 C   0  0  0  0  0  0  0  0  0  0  0  0
   41.8933   59.6283  468.9460 C   0  0  0  0  0  0  0  0  0  0  0  0
   41.7053   58.5604  467.9064 C   0  0  0  0  0  0  0  0  0  0  0  0
   42.5558   57.3629  468.1526 C   0  0  0  0  0  0  0  0  0  0  0  0
   42.4917   56.4655  467.3372 O   0  0  0  0  0  0  0  0  0  0  0  0
   43.4478   57.2198  469.3086 C   0  0  0  0  0  0  0  0  0  0  0  0
  1  2  2  0
  2  3  1  0
  2  4  1  0
  3  8  1  0
  4  5  1  0
  5  6  1  0
  6  7  2  0
  6  8  1  0
M  END
$$$$
