
     RDKit          3D

  8  8  0  0  0  0  0  0  0  0999 V2000
   53.7732   55.5312  445.8051 O   0  0  0  0  0  0  0  0  0  0  0  0
   54.3672   56.3386  445.0998 C   0  0  0  0  0  0  0  0  0  0  0  0
   55.3508   57.2332  445.7211 C   0  0  0  0  0  0  0  0  0  0  0  0
   54.0911   56.4061  443.6365 C   0  0  0  0  0  0  0  0  0  0  0  0
   55.3761   56.3371  442.8617 C   0  0  0  0  0  0  0  0  0  0  0  0
   56.4735   57.1170  443.4985 C   0  0  0  0  0  0  0  0  0  0  0  0
   57.5387   57.1440  442.9164 O   0  0  0  0  0  0  0  0  0  0  0  0
   56.3309   57.8383  444.7681 C   0  0  0  0  0  0  0  0  0  0  0  0
  1  2  2  0
  2  3  1  0
  2  4  1  0
  3  8  1  0
  4  5  1  0
  5  6  1  0
  6  7  2  0
  6  8  1  0
M  END
$$$$
