
     RDKit          3D

  8  8  0  0  0  0  0  0  0  0999 V2000
   55.7989   46.1345  446.1812 O   0  0  0  0  0  0  0  0  0  0  0  0
   54.8751   46.4549  445.4421 C   0  0  0  0  0  0  0  0  0  0  0  0
   55.1267   46.5643  444.0003 C   0  0  0  0  0  0  0  0  0  0  0  0
   53.5215   46.7275  446.0037 C   0  0  0  0  0  0  0  0  0  0  0  0
   52.4824   45.9356  445.2623 C   0  0  0  0  0  0  0  0  0  0  0  0
   52.7371   45.8845  443.7958 C   0  0  0  0  0  0  0  0  0  0  0  0
   51.9228   45.2934  443.1163 O   0  0  0  0  0  0  0  0  0  0  0  0
   53.9001   46.5014  443.1481 C   0  0  0  0  0  0  0  0  0  0  0  0
  1  2  2  0
  2  3  1  0
  2  4  1  0
  3  8  1  0
  4  5  1  0
  5  6  1  0
  6  7  2  0
  6  8  1  0
M  END
$$$$
