
     RDKit          3D

  8  8  0  0  0  0  0  0  0  0999 V2000
   44.6574   50.0491  463.5077 O   0  0  0  0  0  0  0  0  0  0  0  0
   43.5995   49.6582  463.0277 C   0  0  0  0  0  0  0  0  0  0  0  0
   42.3445   49.9969  463.7089 C   0  0  0  0  0  0  0  0  0  0  0  0
   43.5941   48.8531  461.7733 C   0  0  0  0  0  0  0  0  0  0  0  0
   42.6402   49.4490  460.7776 C   0  0  0  0  0  0  0  0  0  0  0  0
   41.3846   49.9422  461.4090 C   0  0  0  0  0  0  0  0  0  0  0  0
   40.5421   50.4069  460.6684 O   0  0  0  0  0  0  0  0  0  0  0  0
   41.1239   49.8938  462.8520 C   0  0  0  0  0  0  0  0  0  0  0  0
  1  2  2  0
  2  3  1  0
  2  4  1  0
  3  8  1  0
  4  5  1  0
  5  6  1  0
  6  7  2  0
  6  8  1  0
M  END
$$$$
