
     RDKit          3D

  8  8  0  0  0  0  0  0  0  0999 V2000
   57.1369   45.6154  447.0347 O   0  0  0  0  0  0  0  0  0  0  0  0
   56.1367   46.3230  447.0718 C   0  0  0  0  0  0  0  0  0  0  0  0
   55.6998   46.9969  445.8435 C   0  0  0  0  0  0  0  0  0  0  0  0
   55.3812   46.4922  448.3456 C   0  0  0  0  0  0  0  0  0  0  0  0
   53.9218   46.2134  448.1249 C   0  0  0  0  0  0  0  0  0  0  0  0
   53.4232   46.7530  446.8293 C   0  0  0  0  0  0  0  0  0  0  0  0
   52.2428   46.6024  446.5884 O   0  0  0  0  0  0  0  0  0  0  0  0
   54.2729   47.4428  445.8523 C   0  0  0  0  0  0  0  0  0  0  0  0
  1  2  2  0
  2  3  1  0
  2  4  1  0
  3  8  1  0
  4  5  1  0
  5  6  1  0
  6  7  2  0
  6  8  1  0
M  END
$$$$
