
     RDKit          3D

  8  8  0  0  0  0  0  0  0  0999 V2000
   51.5408   47.7681  447.9258 O   0  0  0  0  0  0  0  0  0  0  0  0
   52.4575   47.0456  447.5518 C   0  0  0  0  0  0  0  0  0  0  0  0
   53.2052   47.4173  446.3448 C   0  0  0  0  0  0  0  0  0  0  0  0
   52.8026   45.8119  448.3138 C   0  0  0  0  0  0  0  0  0  0  0  0
   54.2731   45.7839  448.6189 C   0  0  0  0  0  0  0  0  0  0  0  0
   55.1046   46.2741  447.4846 C   0  0  0  0  0  0  0  0  0  0  0  0
   56.3092   46.2504  447.6351 O   0  0  0  0  0  0  0  0  0  0  0  0
   54.5486   46.7731  446.2220 C   0  0  0  0  0  0  0  0  0  0  0  0
  1  2  2  0
  2  3  1  0
  2  4  1  0
  3  8  1  0
  4  5  1  0
  5  6  1  0
  6  7  2  0
  6  8  1  0
M  END
$$$$
