
     RDKit          3D

  8  8  0  0  0  0  0  0  0  0999 V2000
   30.5516   64.8302  469.8481 O   0  0  0  0  0  0  0  0  0  0  0  0
   30.3604   63.8308  470.5314 C   0  0  0  0  0  0  0  0  0  0  0  0
   30.9946   62.5686  470.1335 C   0  0  0  0  0  0  0  0  0  0  0  0
   29.4975   63.9023  471.7448 C   0  0  0  0  0  0  0  0  0  0  0  0
   30.2157   63.3190  472.9281 C   0  0  0  0  0  0  0  0  0  0  0  0
   30.9978   62.0998  472.5818 C   0  0  0  0  0  0  0  0  0  0  0  0
   31.5807   61.5436  473.4901 O   0  0  0  0  0  0  0  0  0  0  0  0
   31.0947   61.5514  471.2244 C   0  0  0  0  0  0  0  0  0  0  0  0
  1  2  2  0
  2  3  1  0
  2  4  1  0
  3  8  1  0
  4  5  1  0
  5  6  1  0
  6  7  2  0
  6  8  1  0
M  END
$$$$
