
     RDKit          3D

  8  8  0  0  0  0  0  0  0  0999 V2000
   31.8616   60.7262  471.8983 O   0  0  0  0  0  0  0  0  0  0  0  0
   31.6209   61.8940  471.6143 C   0  0  0  0  0  0  0  0  0  0  0  0
   32.0640   62.4128  470.3149 C   0  0  0  0  0  0  0  0  0  0  0  0
   30.8902   62.7674  472.5761 C   0  0  0  0  0  0  0  0  0  0  0  0
   29.7315   63.4364  471.8933 C   0  0  0  0  0  0  0  0  0  0  0  0
   30.0582   63.8799  470.5095 C   0  0  0  0  0  0  0  0  0  0  0  0
   29.1862   64.4637  469.8986 O   0  0  0  0  0  0  0  0  0  0  0  0
   31.3555   63.6496  469.8643 C   0  0  0  0  0  0  0  0  0  0  0  0
  1  2  2  0
  2  3  1  0
  2  4  1  0
  3  8  1  0
  4  5  1  0
  5  6  1  0
  6  7  2  0
  6  8  1  0
M  END
$$$$
