
     RDKit          3D

  8  8  0  0  0  0  0  0  0  0999 V2000
   55.3468   43.3016  455.3121 O   0  0  0  0  0  0  0  0  0  0  0  0
   56.5721   43.2889  455.3410 C   0  0  0  0  0  0  0  0  0  0  0  0
   57.2728   44.3128  456.1249 C   0  0  0  0  0  0  0  0  0  0  0  0
   57.3320   42.2490  454.5907 C   0  0  0  0  0  0  0  0  0  0  0  0
   58.3274   41.5795  455.4948 C   0  0  0  0  0  0  0  0  0  0  0  0
   58.9947   42.5350  456.4222 C   0  0  0  0  0  0  0  0  0  0  0  0
   59.8419   42.0808  457.1640 O   0  0  0  0  0  0  0  0  0  0  0  0
   58.6834   43.9675  456.4799 C   0  0  0  0  0  0  0  0  0  0  0  0
  1  2  2  0
  2  3  1  0
  2  4  1  0
  3  8  1  0
  4  5  1  0
  5  6  1  0
  6  7  2  0
  6  8  1  0
M  END
$$$$
