
     RDKit          3D

  8  8  0  0  0  0  0  0  0  0999 V2000
   44.7933   47.4196  462.1541 O   0  0  0  0  0  0  0  0  0  0  0  0
   43.6930   46.9505  461.8867 C   0  0  0  0  0  0  0  0  0  0  0  0
   42.6433   46.9770  462.9121 C   0  0  0  0  0  0  0  0  0  0  0  0
   43.4313   46.3645  460.5414 C   0  0  0  0  0  0  0  0  0  0  0  0
   42.1829   46.9556  459.9511 C   0  0  0  0  0  0  0  0  0  0  0  0
   41.1025   47.1406  460.9594 C   0  0  0  0  0  0  0  0  0  0  0  0
   40.0445   47.5806  460.5577 O   0  0  0  0  0  0  0  0  0  0  0  0
   41.2533   46.8231  462.3838 C   0  0  0  0  0  0  0  0  0  0  0  0
  1  2  2  0
  2  3  1  0
  2  4  1  0
  3  8  1  0
  4  5  1  0
  5  6  1  0
  6  7  2  0
  6  8  1  0
M  END
$$$$
