
     RDKit          3D

  8  8  0  0  0  0  0  0  0  0999 V2000
   51.5684   46.0519  446.4860 O   0  0  0  0  0  0  0  0  0  0  0  0
   52.6716   46.5394  446.7041 C   0  0  0  0  0  0  0  0  0  0  0  0
   53.1902   46.5326  448.0770 C   0  0  0  0  0  0  0  0  0  0  0  0
   53.4683   47.1276  445.5901 C   0  0  0  0  0  0  0  0  0  0  0  0
   54.8578   46.5570  445.5874 C   0  0  0  0  0  0  0  0  0  0  0  0
   55.4138   46.3922  446.9592 C   0  0  0  0  0  0  0  0  0  0  0  0
   56.5489   45.9698  447.0457 O   0  0  0  0  0  0  0  0  0  0  0  0
   54.6708   46.7094  448.1838 C   0  0  0  0  0  0  0  0  0  0  0  0
  1  2  2  0
  2  3  1  0
  2  4  1  0
  3  8  1  0
  4  5  1  0
  5  6  1  0
  6  7  2  0
  6  8  1  0
M  END
$$$$
