
     RDKit          3D

 16 15  0  0  0  0  0  0  0  0999 V2000
    9.2579  -14.6358   17.8358 C   0  0  0  0  0  0  0  0  0  0  0  0
    8.3822  -14.2222   16.6883 C   0  0  0  0  0  0  0  0  0  0  0  0
    6.1850  -14.9725   16.9776 C   0  0  0  0  0  0  0  0  0  0  0  0
    4.7700  -14.5555   16.6622 C   0  0  0  0  0  0  0  0  0  0  0  0
    3.9251  -15.8143   16.5462 C   0  0  0  0  0  0  0  0  0  0  0  0
   15.6262  -19.7126   16.7800 C   0  0  0  0  0  0  0  0  0  0  0  0
   14.1670  -17.9004   16.5936 C   0  0  0  0  0  0  0  0  0  0  0  0
   13.7638  -16.5468   17.0930 C   0  0  2  0  0  0  0  0  0  0  0  0
   12.3587  -16.2932   16.6650 C   0  0  0  0  0  0  0  0  0  0  0  0
   11.4638  -15.6924   17.7125 C   0  0  0  0  0  0  0  0  0  0  0  0
   10.0099  -15.8944   17.5034 C   0  0  0  0  0  0  0  0  0  0  0  0
    7.0530  -13.8580   17.2196 N   0  0  0  0  0  4  0  0  0  0  0  0
    2.5668  -15.5074   16.1451 N   0  0  0  0  0  4  0  0  0  0  0  0
   15.2811  -18.4470   17.1559 O   0  0  0  0  0  0  0  0  0  0  0  0
   14.5400  -15.5267   16.5041 O   0  0  0  0  0  0  0  0  0  0  0  0
   13.9273  -16.3913   18.4564 O   0  0  0  0  0  0  0  0  0  0  0  0
  1  2  1  0
 11  1  1  0
  2 12  1  0
  3  4  1  0
 12  3  1  0
  4  5  1  0
  5 13  1  0
 14  6  1  0
  8  7  1  0
  7 14  1  0
  9  8  1  0
  8 15  1  6
  8 16  1  0
 10  9  1  0
 10 11  1  0
M  CHG  2  12   1  13   1
M  END
$$$$
