
     RDKit          3D

 16 15  0  0  0  0  0  0  0  0999 V2000
  -25.4388  -40.2750   35.1241 C   0  0  0  0  0  0  0  0  0  0  0  0
  -26.4618  -39.2351   35.4800 C   0  0  0  0  0  0  0  0  0  0  0  0
  -28.2264  -38.9372   36.9871 C   0  0  0  0  0  0  0  0  0  0  0  0
  -29.4686  -39.4632   37.6622 C   0  0  0  0  0  0  0  0  0  0  0  0
  -30.0643  -38.3366   38.4916 C   0  0  0  0  0  0  0  0  0  0  0  0
  -18.2815  -42.3117   35.9393 C   0  0  0  0  0  0  0  0  0  0  0  0
  -19.5178  -41.3483   34.2097 C   0  0  0  0  0  0  0  0  0  0  0  0
  -20.6335  -40.3878   33.9329 C   0  0  2  0  0  0  0  0  0  0  0  0
  -21.7411  -40.6743   34.8884 C   0  0  0  0  0  0  0  0  0  0  0  0
  -23.1288  -40.4929   34.3405 C   0  0  0  0  0  0  0  0  0  0  0  0
  -24.0516  -39.6991   35.1871 C   0  0  0  0  0  0  0  0  0  0  0  0
  -27.6054  -39.9051   36.1318 N   0  0  0  0  0  4  0  0  0  0  0  0
  -31.4457  -38.0858   38.1328 N   0  0  0  0  0  4  0  0  0  0  0  0
  -18.8789  -41.2074   35.4048 O   0  0  0  0  0  0  0  0  0  0  0  0
  -21.1726  -40.5799   32.6435 O   0  0  0  0  0  0  0  0  0  0  0  0
  -20.2428  -39.0628   33.9733 O   0  0  0  0  0  0  0  0  0  0  0  0
  1  2  1  0
 11  1  1  0
  2 12  1  0
  3  4  1  0
 12  3  1  0
  4  5  1  0
  5 13  1  0
 14  6  1  0
  8  7  1  0
  7 14  1  0
  9  8  1  0
  8 15  1  6
  8 16  1  0
 10  9  1  0
 10 11  1  0
M  CHG  2  12   1  13   1
M  END
$$$$
