
     RDKit          3D

 16 15  0  0  0  0  0  0  0  0999 V2000
  -25.0162  -39.7133   36.1510 C   0  0  0  0  0  0  0  0  0  0  0  0
  -26.3584  -39.0559   36.0060 C   0  0  0  0  0  0  0  0  0  0  0  0
  -28.5390  -39.9034   35.9818 C   0  0  0  0  0  0  0  0  0  0  0  0
  -29.6077  -38.9439   36.4432 C   0  0  0  0  0  0  0  0  0  0  0  0
  -30.9223  -39.7047   36.5132 C   0  0  0  0  0  0  0  0  0  0  0  0
  -18.7042  -43.2967   34.4598 C   0  0  0  0  0  0  0  0  0  0  0  0
  -20.2867  -41.5809   34.4662 C   0  0  0  0  0  0  0  0  0  0  0  0
  -20.5767  -40.1306   34.2284 C   0  0  2  0  0  0  0  0  0  0  0  0
  -21.6623  -39.7148   35.1613 C   0  0  0  0  0  0  0  0  0  0  0  0
  -22.9961  -40.3681   34.9312 C   0  0  0  0  0  0  0  0  0  0  0  0
  -24.1648  -39.4557   34.9390 C   0  0  0  0  0  0  0  0  0  0  0  0
  -27.3485  -39.8349   36.7770 N   0  0  0  0  0  4  0  0  0  0  0  0
  -31.7847  -39.1807   37.5533 N   0  0  0  0  0  4  0  0  0  0  0  0
  -19.0295  -42.0062   34.1581 O   0  0  0  0  0  0  0  0  0  0  0  0
  -21.0762  -39.9103   32.9275 O   0  0  0  0  0  0  0  0  0  0  0  0
  -19.4620  -39.3209   34.3352 O   0  0  0  0  0  0  0  0  0  0  0  0
  1  2  1  0
 11  1  1  0
  2 12  1  0
  3  4  1  0
 12  3  1  0
  4  5  1  0
  5 13  1  0
 14  6  1  0
  8  7  1  0
  7 14  1  0
  9  8  1  0
  8 15  1  6
  8 16  1  0
 10  9  1  0
 10 11  1  0
M  CHG  2  12   1  13   1
M  END
$$$$
