
     RDKit          3D

 16 15  0  0  0  0  0  0  0  0999 V2000
  -25.1465  -40.2308   35.9820 C   0  0  0  0  0  0  0  0  0  0  0  0
  -25.8803  -39.1274   36.6881 C   0  0  0  0  0  0  0  0  0  0  0  0
  -28.0942  -39.2011   37.4416 C   0  0  0  0  0  0  0  0  0  0  0  0
  -29.1909  -38.1654   37.4525 C   0  0  0  0  0  0  0  0  0  0  0  0
  -29.9750  -38.3265   38.7452 C   0  0  0  0  0  0  0  0  0  0  0  0
  -20.2222  -43.8147   34.3544 C   0  0  0  0  0  0  0  0  0  0  0  0
  -19.8659  -41.5952   33.7259 C   0  0  0  0  0  0  0  0  0  0  0  0
  -20.6835  -40.3949   34.0933 C   0  0  2  0  0  0  0  0  0  0  0  0
  -22.1199  -40.7254   33.8711 C   0  0  0  0  0  0  0  0  0  0  0  0
  -22.9477  -40.8744   35.1166 C   0  0  0  0  0  0  0  0  0  0  0  0
  -23.8391  -39.7323   35.4321 C   0  0  0  0  0  0  0  0  0  0  0  0
  -27.2923  -39.1502   36.2548 N   0  0  0  0  0  4  0  0  0  0  0  0
  -30.6678  -39.5985   38.7913 N   0  0  0  0  0  4  0  0  0  0  0  0
  -19.7613  -42.5702   34.6718 O   0  0  0  0  0  0  0  0  0  0  0  0
  -20.4013  -39.2998   33.2499 O   0  0  0  0  0  0  0  0  0  0  0  0
  -20.4481  -39.9396   35.3767 O   0  0  0  0  0  0  0  0  0  0  0  0
  1  2  1  0
 11  1  1  0
  2 12  1  0
  3  4  1  0
 12  3  1  0
  4  5  1  0
  5 13  1  0
 14  6  1  0
  8  7  1  0
  7 14  1  0
  9  8  1  0
  8 15  1  6
  8 16  1  0
 10  9  1  0
 10 11  1  0
M  CHG  2  12   1  13   1
M  END
$$$$
