
     RDKit          3D

 16 15  0  0  0  0  0  0  0  0999 V2000
  -25.8164  -39.4030   35.1809 C   0  0  0  0  0  0  0  0  0  0  0  0
  -27.0890  -39.9297   35.7790 C   0  0  0  0  0  0  0  0  0  0  0  0
  -28.8884  -39.4044   37.1792 C   0  0  0  0  0  0  0  0  0  0  0  0
  -30.1061  -38.5197   37.0786 C   0  0  0  0  0  0  0  0  0  0  0  0
  -30.3358  -37.8818   38.4396 C   0  0  0  0  0  0  0  0  0  0  0  0
  -18.2792  -42.4418   34.6594 C   0  0  0  0  0  0  0  0  0  0  0  0
  -19.9081  -40.9543   35.4229 C   0  0  0  0  0  0  0  0  0  0  0  0
  -20.9783  -40.1556   34.7442 C   0  0  2  0  0  0  0  0  0  0  0  0
  -22.2790  -40.8548   34.9470 C   0  0  0  0  0  0  0  0  0  0  0  0
  -23.5047  -40.0299   34.6706 C   0  0  0  0  0  0  0  0  0  0  0  0
  -24.6454  -40.2516   35.5915 C   0  0  0  0  0  0  0  0  0  0  0  0
  -27.7366  -38.8410   36.5387 N   0  0  0  0  0  4  0  0  0  0  0  0
  -31.7483  -37.7119   38.7151 N   0  0  0  0  0  4  0  0  0  0  0  0
  -19.5985  -42.1555   34.8592 O   0  0  0  0  0  0  0  0  0  0  0  0
  -20.7778  -40.1039   33.3488 O   0  0  0  0  0  0  0  0  0  0  0  0
  -21.0276  -38.8376   35.1567 O   0  0  0  0  0  0  0  0  0  0  0  0
  1  2  1  0
 11  1  1  0
  2 12  1  0
  3  4  1  0
 12  3  1  0
  4  5  1  0
  5 13  1  0
 14  6  1  0
  8  7  1  0
  7 14  1  0
  9  8  1  0
  8 15  1  6
  8 16  1  0
 10  9  1  0
 10 11  1  0
M  CHG  2  12   1  13   1
M  END
$$$$
