
     RDKit          3D

 16 15  0  0  0  0  0  0  0  0999 V2000
  -24.9180  -39.4309   35.4735 C   0  0  0  0  0  0  0  0  0  0  0  0
  -26.1907  -40.0748   35.9429 C   0  0  0  0  0  0  0  0  0  0  0  0
  -28.3861  -39.5275   36.5386 C   0  0  0  0  0  0  0  0  0  0  0  0
  -29.3637  -40.4777   35.8930 C   0  0  0  0  0  0  0  0  0  0  0  0
  -30.7093  -39.7757   35.8021 C   0  0  0  0  0  0  0  0  0  0  0  0
  -19.0728  -43.3378   35.9827 C   0  0  0  0  0  0  0  0  0  0  0  0
  -19.1172  -41.3937   34.6915 C   0  0  0  0  0  0  0  0  0  0  0  0
  -20.2529  -40.5583   34.1853 C   0  0  2  0  0  0  0  0  0  0  0  0
  -21.4912  -40.9730   34.9041 C   0  0  0  0  0  0  0  0  0  0  0  0
  -22.5717  -39.9312   34.9813 C   0  0  0  0  0  0  0  0  0  0  0  0
  -23.7288  -40.2730   35.8432 C   0  0  0  0  0  0  0  0  0  0  0  0
  -27.3125  -39.1550   35.6652 N   0  0  0  0  0  4  0  0  0  0  0  0
  -31.6014  -40.4536   34.8830 N   0  0  0  0  0  4  0  0  0  0  0  0
  -19.2985  -41.9945   35.9010 O   0  0  0  0  0  0  0  0  0  0  0  0
  -20.4992  -40.7962   32.8168 O   0  0  0  0  0  0  0  0  0  0  0  0
  -20.0248  -39.1990   34.2860 O   0  0  0  0  0  0  0  0  0  0  0  0
  1  2  1  0
 11  1  1  0
  2 12  1  0
  3  4  1  0
 12  3  1  0
  4  5  1  0
  5 13  1  0
 14  6  1  0
  8  7  1  0
  7 14  1  0
  9  8  1  0
  8 15  1  6
  8 16  1  0
 10  9  1  0
 10 11  1  0
M  CHG  2  12   1  13   1
M  END
$$$$
