
     RDKit          3D

 16 15  0  0  0  0  0  0  0  0999 V2000
  -25.3626  -39.1127   35.5247 C   0  0  0  0  0  0  0  0  0  0  0  0
  -26.8020  -39.4993   35.3423 C   0  0  0  0  0  0  0  0  0  0  0  0
  -28.5707  -39.7739   36.8491 C   0  0  0  0  0  0  0  0  0  0  0  0
  -29.4412  -39.2294   37.9542 C   0  0  0  0  0  0  0  0  0  0  0  0
  -30.5955  -38.4753   37.3133 C   0  0  0  0  0  0  0  0  0  0  0  0
  -18.9436  -43.4238   33.8373 C   0  0  0  0  0  0  0  0  0  0  0  0
  -19.7036  -41.2765   34.3470 C   0  0  0  0  0  0  0  0  0  0  0  0
  -20.7193  -40.2030   34.1017 C   0  0  2  0  0  0  0  0  0  0  0  0
  -22.0611  -40.7412   34.4647 C   0  0  0  0  0  0  0  0  0  0  0  0
  -23.0823  -39.7130   34.8632 C   0  0  0  0  0  0  0  0  0  0  0  0
  -24.4537  -40.2288   35.0907 C   0  0  0  0  0  0  0  0  0  0  0  0
  -27.6050  -38.8236   36.3816 N   0  0  0  0  0  4  0  0  0  0  0  0
  -31.8487  -38.7496   37.9872 N   0  0  0  0  0  4  0  0  0  0  0  0
  -19.8546  -42.4282   33.6348 O   0  0  0  0  0  0  0  0  0  0  0  0
  -20.7929  -39.8644   32.7342 O   0  0  0  0  0  0  0  0  0  0  0  0
  -20.4398  -39.0195   34.7581 O   0  0  0  0  0  0  0  0  0  0  0  0
  1  2  1  0
 11  1  1  0
  2 12  1  0
  3  4  1  0
 12  3  1  0
  4  5  1  0
  5 13  1  0
 14  6  1  0
  8  7  1  0
  7 14  1  0
  9  8  1  0
  8 15  1  6
  8 16  1  0
 10  9  1  0
 10 11  1  0
M  CHG  2  12   1  13   1
M  END
$$$$
