
     RDKit          3D

 16 15  0  0  0  0  0  0  0  0999 V2000
  -25.8760  -39.8385   35.2708 C   0  0  0  0  0  0  0  0  0  0  0  0
  -26.6647  -39.0231   36.2545 C   0  0  0  0  0  0  0  0  0  0  0  0
  -28.9334  -39.2099   36.7955 C   0  0  0  0  0  0  0  0  0  0  0  0
  -30.3832  -39.0159   36.4268 C   0  0  0  0  0  0  0  0  0  0  0  0
  -31.2309  -39.4612   37.6078 C   0  0  0  0  0  0  0  0  0  0  0  0
  -18.0245  -41.7181   35.1744 C   0  0  0  0  0  0  0  0  0  0  0  0
  -20.1162  -41.5675   34.1495 C   0  0  0  0  0  0  0  0  0  0  0  0
  -21.1719  -40.5080   34.0657 C   0  0  2  0  0  0  0  0  0  0  0  0
  -22.2018  -40.7950   35.1043 C   0  0  0  0  0  0  0  0  0  0  0  0
  -23.6275  -40.6006   34.6700 C   0  0  0  0  0  0  0  0  0  0  0  0
  -24.4017  -39.6024   35.4463 C   0  0  0  0  0  0  0  0  0  0  0  0
  -28.0371  -38.8579   35.7339 N   0  0  0  0  0  4  0  0  0  0  0  0
  -31.9285  -40.6994   37.3243 N   0  0  0  0  0  4  0  0  0  0  0  0
  -19.3786  -41.5992   35.2946 O   0  0  0  0  0  0  0  0  0  0  0  0
  -21.8465  -40.5478   32.8274 O   0  0  0  0  0  0  0  0  0  0  0  0
  -20.6730  -39.2235   34.1704 O   0  0  0  0  0  0  0  0  0  0  0  0
  1  2  1  0
 11  1  1  0
  2 12  1  0
  3  4  1  0
 12  3  1  0
  4  5  1  0
  5 13  1  0
 14  6  1  0
  8  7  1  0
  7 14  1  0
  9  8  1  0
  8 15  1  6
  8 16  1  0
 10  9  1  0
 10 11  1  0
M  CHG  2  12   1  13   1
M  END
$$$$
