
     RDKit          3D

 16 15  0  0  0  0  0  0  0  0999 V2000
  -25.3101  -39.9663   35.9988 C   0  0  0  0  0  0  0  0  0  0  0  0
  -26.4633  -39.1700   35.4597 C   0  0  0  0  0  0  0  0  0  0  0  0
  -28.0149  -38.7680   37.1641 C   0  0  0  0  0  0  0  0  0  0  0  0
  -29.4637  -38.8286   37.5799 C   0  0  0  0  0  0  0  0  0  0  0  0
  -29.6362  -37.9488   38.8079 C   0  0  0  0  0  0  0  0  0  0  0  0
  -18.6635  -43.2197   34.1927 C   0  0  0  0  0  0  0  0  0  0  0  0
  -19.4608  -41.0705   34.6327 C   0  0  0  0  0  0  0  0  0  0  0  0
  -20.5908  -40.0934   34.5207 C   0  0  2  0  0  0  0  0  0  0  0  0
  -21.8144  -40.7315   35.0839 C   0  0  0  0  0  0  0  0  0  0  0  0
  -22.9378  -39.7902   35.4170 C   0  0  0  0  0  0  0  0  0  0  0  0
  -24.2780  -40.1968   34.9303 C   0  0  0  0  0  0  0  0  0  0  0  0
  -27.7072  -39.6615   36.0865 N   0  0  0  0  0  4  0  0  0  0  0  0
  -30.7317  -38.4057   39.6393 N   0  0  0  0  0  4  0  0  0  0  0  0
  -19.6830  -42.3152   34.1248 O   0  0  0  0  0  0  0  0  0  0  0  0
  -20.8894  -39.8014   33.1732 O   0  0  0  0  0  0  0  0  0  0  0  0
  -20.3239  -38.8723   35.1101 O   0  0  0  0  0  0  0  0  0  0  0  0
  1  2  1  0
 11  1  1  0
  2 12  1  0
  3  4  1  0
 12  3  1  0
  4  5  1  0
  5 13  1  0
 14  6  1  0
  8  7  1  0
  7 14  1  0
  9  8  1  0
  8 15  1  6
  8 16  1  0
 10  9  1  0
 10 11  1  0
M  CHG  2  12   1  13   1
M  END
$$$$
