
     RDKit          3D

 16 15  0  0  0  0  0  0  0  0999 V2000
  -25.3054  -40.1168   35.8960 C   0  0  0  0  0  0  0  0  0  0  0  0
  -26.2278  -39.2635   36.7179 C   0  0  0  0  0  0  0  0  0  0  0  0
  -28.5176  -39.2913   37.1979 C   0  0  0  0  0  0  0  0  0  0  0  0
  -29.2526  -37.9783   37.3043 C   0  0  0  0  0  0  0  0  0  0  0  0
  -30.4510  -38.1844   38.2171 C   0  0  0  0  0  0  0  0  0  0  0  0
  -19.9182  -43.7454   33.8883 C   0  0  0  0  0  0  0  0  0  0  0  0
  -20.0019  -41.4861   34.4689 C   0  0  0  0  0  0  0  0  0  0  0  0
  -20.6865  -40.1645   34.2991 C   0  0  2  0  0  0  0  0  0  0  0  0
  -22.1580  -40.4019   34.2850 C   0  0  0  0  0  0  0  0  0  0  0  0
  -22.8821  -40.0389   35.5510 C   0  0  0  0  0  0  0  0  0  0  0  0
  -24.1563  -39.3026   35.3699 C   0  0  0  0  0  0  0  0  0  0  0  0
  -27.5763  -39.3164   36.1174 N   0  0  0  0  0  4  0  0  0  0  0  0
  -30.0798  -38.0765   39.6137 N   0  0  0  0  0  4  0  0  0  0  0  0
  -20.4421  -42.5033   33.6764 O   0  0  0  0  0  0  0  0  0  0  0  0
  -20.3751  -39.5778   33.0545 O   0  0  0  0  0  0  0  0  0  0  0  0
  -20.3207  -39.2285   35.2476 O   0  0  0  0  0  0  0  0  0  0  0  0
  1  2  1  0
 11  1  1  0
  2 12  1  0
  3  4  1  0
 12  3  1  0
  4  5  1  0
  5 13  1  0
 14  6  1  0
  8  7  1  0
  7 14  1  0
  9  8  1  0
  8 15  1  6
  8 16  1  0
 10  9  1  0
 10 11  1  0
M  CHG  2  12   1  13   1
M  END
$$$$
