
     RDKit          3D

 33 36  0  0  0  0  0  0  0  0999 V2000
  -27.0289   50.9121    8.8487 C   0  0  0  0  0  0  0  0  0  0  0  0
  -27.2562   45.4130   10.5383 C   0  0  0  0  0  0  0  0  0  0  0  0
  -25.8851   51.8535    4.9880 C   0  0  0  0  0  0  0  0  0  0  0  0
  -26.6939   51.5518    6.1102 N   0  0  0  0  0  0  0  0  0  0  0  0
  -27.6379   50.5124    5.7908 C   0  0  0  0  0  0  0  0  0  0  0  0
  -25.9180   51.3386    7.5902 S   0  0  1  0  0  6  0  0  0  0  0  0
  -25.2740   52.6419    8.0173 O   0  0  0  0  0  0  0  0  0  0  0  0
  -24.7811   50.3392    7.5070 O   0  0  0  0  0  0  0  0  0  0  0  0
  -27.1641   49.5546    9.2326 C   0  0  0  0  0  0  0  0  0  0  0  0
  -28.0714   49.1448   10.1749 C   0  0  0  0  0  0  0  0  0  0  0  0
  -28.1851   47.7819   10.5393 N   0  0  0  0  0  0  0  0  0  0  0  0
  -27.2159   46.8325   10.1071 C   0  0  0  0  0  0  0  0  0  0  0  0
  -26.3166   47.2165    9.3476 O   0  0  0  0  0  0  0  0  0  0  0  0
  -28.5587   45.0862   11.0521 N   0  0  0  0  0  0  0  0  0  0  0  0
  -29.7925   45.1266   10.3536 C   0  0  0  0  0  0  0  0  0  0  0  0
  -29.9223   45.4679    9.1388 O   0  0  0  0  0  0  0  0  0  0  0  0
  -30.8194   44.7233   11.2516 N   0  0  0  0  0  0  0  0  0  0  0  0
  -30.2364   44.1814   12.4551 C   0  0  2  0  0  0  0  0  0  0  0  0
  -30.3438   42.6832   12.4345 C   0  0  0  0  0  0  0  0  0  0  0  0
  -29.7827   42.1692   13.7536 C   0  0  0  0  0  0  0  0  0  0  0  0
  -30.6512   42.5540   14.9117 C   0  0  0  0  0  0  0  0  0  0  0  0
  -31.1255   43.9529   14.8010 C   0  0  0  0  0  0  0  0  0  0  0  0
  -31.7845   44.5303   15.8707 C   0  0  0  0  0  0  0  0  0  0  0  0
  -32.2488   45.8090   15.8437 C   0  0  0  0  0  0  0  0  0  0  0  0
  -32.0445   46.5458   14.6917 C   0  0  0  0  0  0  0  0  0  0  0  0
  -31.3956   46.0156   13.6039 C   0  0  0  0  0  0  0  0  0  0  0  0
  -30.9310   44.7036   13.6603 C   0  0  0  0  0  0  0  0  0  0  0  0
  -28.8370   44.6527   12.3931 C   0  0  0  0  0  0  0  0  0  0  0  0
  -27.9696   44.6982   13.3191 O   0  0  0  0  0  0  0  0  0  0  0  0
  -28.8557   50.1144   10.7410 C   0  0  0  0  0  0  0  0  0  0  0  0
  -28.7635   51.4428   10.4053 C   0  0  0  0  0  0  0  0  0  0  0  0
  -27.8291   51.8410    9.4411 C   0  0  0  0  0  0  0  0  0  0  0  0
  -27.6818   53.5623    9.1050 Cl  0  0  0  0  0  0  0  0  0  0  0  0
  1  6  1  0
  9  1  2  0
  1 32  1  0
 12  2  1  0
  2 14  1  0
  4  3  1  0
  4  5  1  0
  6  4  1  6
  6  7  2  0
  6  8  2  0
 10  9  1  0
 11 10  1  0
 10 30  2  0
 11 12  1  0
 12 13  2  0
 14 15  1  0
 14 28  1  0
 15 16  2  0
 15 17  1  0
 17 18  1  0
 18 19  1  6
 18 27  1  0
 18 28  1  0
 19 20  1  0
 20 21  1  0
 21 22  1  0
 22 23  2  0
 22 27  1  0
 23 24  1  0
 24 25  2  0
 25 26  1  0
 26 27  2  0
 28 29  2  0
 30 31  1  0
 31 32  2  0
 32 33  1  0
M  END
$$$$
