
     RDKit          3D

 33 36  0  0  0  0  0  0  0  0999 V2000
  -32.2265   42.7079    7.2107 C   0  0  0  0  0  0  0  0  0  0  0  0
  -27.3883   44.7868    9.5255 C   0  0  0  0  0  0  0  0  0  0  0  0
  -31.1659   44.5281    4.5553 C   0  0  0  0  0  0  0  0  0  0  0  0
  -31.0076   43.1276    4.6890 N   0  0  0  0  0  0  0  0  0  0  0  0
  -29.6666   42.8057    5.1031 C   0  0  0  0  0  0  0  0  0  0  0  0
  -32.2022   42.2891    5.5303 S   0  0  1  0  0  6  0  0  0  0  0  0
  -31.9170   40.8023    5.4683 O   0  0  0  0  0  0  0  0  0  0  0  0
  -33.5739   42.4595    4.9077 O   0  0  0  0  0  0  0  0  0  0  0  0
  -31.0683   43.2622    7.8107 C   0  0  0  0  0  0  0  0  0  0  0  0
  -31.0024   43.5540    9.1485 C   0  0  0  0  0  0  0  0  0  0  0  0
  -29.8325   44.1074    9.7215 N   0  0  0  0  0  0  0  0  0  0  0  0
  -28.6546   44.2804    8.9403 C   0  0  0  0  0  0  0  0  0  0  0  0
  -28.7020   43.9957    7.7363 O   0  0  0  0  0  0  0  0  0  0  0  0
  -27.4110   46.2228    9.5932 N   0  0  0  0  0  0  0  0  0  0  0  0
  -27.0556   47.1367    8.5684 C   0  0  0  0  0  0  0  0  0  0  0  0
  -26.6551   46.8031    7.4119 O   0  0  0  0  0  0  0  0  0  0  0  0
  -27.2303   48.4546    9.0748 N   0  0  0  0  0  0  0  0  0  0  0  0
  -27.9332   48.4091   10.3341 C   0  0  2  0  0  0  0  0  0  0  0  0
  -29.3611   48.8274   10.1275 C   0  0  0  0  0  0  0  0  0  0  0  0
  -30.0353   48.8322   11.4929 C   0  0  0  0  0  0  0  0  0  0  0  0
  -29.4910   49.9138   12.3748 C   0  0  0  0  0  0  0  0  0  0  0  0
  -28.0166   50.0141   12.2739 C   0  0  0  0  0  0  0  0  0  0  0  0
  -27.3326   50.8324   13.1540 C   0  0  0  0  0  0  0  0  0  0  0  0
  -25.9799   50.9758   13.1231 C   0  0  0  0  0  0  0  0  0  0  0  0
  -25.2772   50.2669   12.1663 C   0  0  0  0  0  0  0  0  0  0  0  0
  -25.9125   49.4420   11.2710 C   0  0  0  0  0  0  0  0  0  0  0  0
  -27.2985   49.3148   11.3264 C   0  0  0  0  0  0  0  0  0  0  0  0
  -27.8075   46.9934   10.7389 C   0  0  0  0  0  0  0  0  0  0  0  0
  -27.9993   46.4707   11.8799 O   0  0  0  0  0  0  0  0  0  0  0  0
  -32.1180   43.2847    9.8958 C   0  0  0  0  0  0  0  0  0  0  0  0
  -33.2650   42.7493    9.3631 C   0  0  0  0  0  0  0  0  0  0  0  0
  -33.3124   42.4596    7.9938 C   0  0  0  0  0  0  0  0  0  0  0  0
  -34.8299   41.8583    7.3358 Cl  0  0  0  0  0  0  0  0  0  0  0  0
  1  6  1  0
  9  1  2  0
  1 32  1  0
 12  2  1  0
  2 14  1  0
  4  3  1  0
  4  5  1  0
  6  4  1  6
  6  7  2  0
  6  8  2  0
 10  9  1  0
 11 10  1  0
 10 30  2  0
 11 12  1  0
 12 13  2  0
 14 15  1  0
 14 28  1  0
 15 16  2  0
 15 17  1  0
 17 18  1  0
 18 19  1  6
 18 27  1  0
 18 28  1  0
 19 20  1  0
 20 21  1  0
 21 22  1  0
 22 23  2  0
 22 27  1  0
 23 24  1  0
 24 25  2  0
 25 26  1  0
 26 27  2  0
 28 29  2  0
 30 31  1  0
 31 32  2  0
 32 33  1  0
M  END
$$$$
