
     RDKit          3D

 33 36  0  0  0  0  0  0  0  0999 V2000
  -31.1794   48.6390   11.3069 C   0  0  0  0  0  0  0  0  0  0  0  0
  -27.9152   43.8960   11.5619 C   0  0  0  0  0  0  0  0  0  0  0  0
  -33.8041   46.1333   12.0815 C   0  0  0  0  0  0  0  0  0  0  0  0
  -33.3292   46.8313   10.9450 N   0  0  0  0  0  0  0  0  0  0  0  0
  -34.1867   46.5989    9.8117 C   0  0  0  0  0  0  0  0  0  0  0  0
  -32.8935   48.4453   11.1524 S   0  0  1  0  0  6  0  0  0  0  0  0
  -33.4970   48.9720   12.4385 O   0  0  0  0  0  0  0  0  0  0  0  0
  -33.4449   49.3370   10.0573 O   0  0  0  0  0  0  0  0  0  0  0  0
  -30.3392   47.4984   11.2617 C   0  0  0  0  0  0  0  0  0  0  0  0
  -28.9827   47.5780   11.4427 C   0  0  0  0  0  0  0  0  0  0  0  0
  -28.1673   46.4223   11.3925 N   0  0  0  0  0  0  0  0  0  0  0  0
  -28.6976   45.1454   11.7329 C   0  0  0  0  0  0  0  0  0  0  0  0
  -29.8490   45.0898   12.1849 O   0  0  0  0  0  0  0  0  0  0  0  0
  -26.5442   44.2054   11.2587 N   0  0  0  0  0  0  0  0  0  0  0  0
  -25.4519   44.2425   12.1627 C   0  0  0  0  0  0  0  0  0  0  0  0
  -25.5357   43.9998   13.4050 O   0  0  0  0  0  0  0  0  0  0  0  0
  -24.2852   44.5929   11.4282 N   0  0  0  0  0  0  0  0  0  0  0  0
  -24.5600   44.5404   10.0127 C   0  0  2  0  0  0  0  0  0  0  0  0
  -23.9562   43.2945    9.4298 C   0  0  0  0  0  0  0  0  0  0  0  0
  -24.2113   43.3252    7.9288 C   0  0  0  0  0  0  0  0  0  0  0  0
  -23.4392   44.4200    7.2587 C   0  0  0  0  0  0  0  0  0  0  0  0
  -23.4733   45.6756    8.0439 C   0  0  0  0  0  0  0  0  0  0  0  0
  -22.9693   46.8360    7.4859 C   0  0  0  0  0  0  0  0  0  0  0  0
  -22.9660   48.0264    8.1450 C   0  0  0  0  0  0  0  0  0  0  0  0
  -23.4919   48.0581    9.4233 C   0  0  0  0  0  0  0  0  0  0  0  0
  -24.0037   46.9317   10.0190 C   0  0  0  0  0  0  0  0  0  0  0  0
  -23.9938   45.7268    9.3201 C   0  0  0  0  0  0  0  0  0  0  0  0
  -26.0368   44.5375    9.9564 C   0  0  0  0  0  0  0  0  0  0  0  0
  -26.7971   44.7762    8.9681 O   0  0  0  0  0  0  0  0  0  0  0  0
  -28.4616   48.8234   11.6728 C   0  0  0  0  0  0  0  0  0  0  0  0
  -29.2314   49.9595   11.7250 C   0  0  0  0  0  0  0  0  0  0  0  0
  -30.6153   49.8568   11.5362 C   0  0  0  0  0  0  0  0  0  0  0  0
  -31.5527   51.3463   11.5222 Cl  0  0  0  0  0  0  0  0  0  0  0  0
  1  6  1  0
  9  1  2  0
  1 32  1  0
 12  2  1  0
  2 14  1  0
  4  3  1  0
  4  5  1  0
  6  4  1  6
  6  7  2  0
  6  8  2  0
 10  9  1  0
 11 10  1  0
 10 30  2  0
 11 12  1  0
 12 13  2  0
 14 15  1  0
 14 28  1  0
 15 16  2  0
 15 17  1  0
 17 18  1  0
 18 19  1  6
 18 27  1  0
 18 28  1  0
 19 20  1  0
 20 21  1  0
 21 22  1  0
 22 23  2  0
 22 27  1  0
 23 24  1  0
 24 25  2  0
 25 26  1  0
 26 27  2  0
 28 29  2  0
 30 31  1  0
 31 32  2  0
 32 33  1  0
M  END
$$$$
