
     RDKit          3D

 33 36  0  0  0  0  0  0  0  0999 V2000
  -27.8332   50.6678    7.7663 C   0  0  0  0  0  0  0  0  0  0  0  0
  -27.2841   46.5290   11.9491 C   0  0  0  0  0  0  0  0  0  0  0  0
  -24.4978   51.7352    7.6078 C   0  0  0  0  0  0  0  0  0  0  0  0
  -25.5589   52.2304    8.4036 N   0  0  0  0  0  0  0  0  0  0  0  0
  -25.1894   53.4762    9.0240 C   0  0  0  0  0  0  0  0  0  0  0  0
  -27.1003   52.2365    7.7240 S   0  0  1  0  0  6  0  0  0  0  0  0
  -27.0079   52.6217    6.2615 O   0  0  0  0  0  0  0  0  0  0  0  0
  -28.0050   53.2764    8.3551 O   0  0  0  0  0  0  0  0  0  0  0  0
  -27.3245   49.6811    8.6474 C   0  0  0  0  0  0  0  0  0  0  0  0
  -27.8179   48.4026    8.6817 C   0  0  0  0  0  0  0  0  0  0  0  0
  -27.2909   47.4369    9.5722 N   0  0  0  0  0  0  0  0  0  0  0  0
  -27.3283   47.6515   10.9794 C   0  0  0  0  0  0  0  0  0  0  0  0
  -27.4001   48.8161   11.3936 O   0  0  0  0  0  0  0  0  0  0  0  0
  -27.6554   45.2991   11.3035 N   0  0  0  0  0  0  0  0  0  0  0  0
  -26.7875   44.2867   10.8203 C   0  0  0  0  0  0  0  0  0  0  0  0
  -25.5217   44.3270   10.8932 O   0  0  0  0  0  0  0  0  0  0  0  0
  -27.5874   43.2536   10.2579 N   0  0  0  0  0  0  0  0  0  0  0  0
  -28.9745   43.4668   10.5933 C   0  0  2  0  0  0  0  0  0  0  0  0
  -29.3800   42.5144   11.6819 C   0  0  0  0  0  0  0  0  0  0  0  0
  -30.8642   42.7307   11.9454 C   0  0  0  0  0  0  0  0  0  0  0  0
  -31.7020   42.2921   10.7837 C   0  0  0  0  0  0  0  0  0  0  0  0
  -31.1087   42.7071    9.4915 C   0  0  0  0  0  0  0  0  0  0  0  0
  -31.8401   42.5468    8.3290 C   0  0  0  0  0  0  0  0  0  0  0  0
  -31.3627   42.9041    7.1060 C   0  0  0  0  0  0  0  0  0  0  0  0
  -30.0930   43.4478    7.0421 C   0  0  0  0  0  0  0  0  0  0  0  0
  -29.3291   43.6263    8.1691 C   0  0  0  0  0  0  0  0  0  0  0  0
  -29.8440   43.2512    9.4079 C   0  0  0  0  0  0  0  0  0  0  0  0
  -29.0017   44.8778   11.0321 C   0  0  0  0  0  0  0  0  0  0  0  0
  -29.9997   45.6503   11.1704 O   0  0  0  0  0  0  0  0  0  0  0  0
  -28.8388   48.1104    7.8168 C   0  0  0  0  0  0  0  0  0  0  0  0
  -29.3678   49.0298    6.9446 C   0  0  0  0  0  0  0  0  0  0  0  0
  -28.8505   50.3311    6.9262 C   0  0  0  0  0  0  0  0  0  0  0  0
  -29.6155   51.5016    5.8575 Cl  0  0  0  0  0  0  0  0  0  0  0  0
  1  6  1  0
  9  1  2  0
  1 32  1  0
 12  2  1  0
  2 14  1  0
  4  3  1  0
  4  5  1  0
  6  4  1  1
  6  7  2  0
  6  8  2  0
 10  9  1  0
 11 10  1  0
 10 30  2  0
 11 12  1  0
 12 13  2  0
 14 15  1  0
 14 28  1  0
 15 16  2  0
 15 17  1  0
 17 18  1  0
 18 19  1  1
 18 27  1  0
 18 28  1  0
 19 20  1  0
 20 21  1  0
 21 22  1  0
 22 23  2  0
 22 27  1  0
 23 24  1  0
 24 25  2  0
 25 26  1  0
 26 27  2  0
 28 29  2  0
 30 31  1  0
 31 32  2  0
 32 33  1  0
M  END
$$$$
