
     RDKit          3D

 33 36  0  0  0  0  0  0  0  0999 V2000
  -25.6445   48.2984    8.7733 C   0  0  0  0  0  0  0  0  0  0  0  0
  -30.1436   46.1422   11.6167 C   0  0  0  0  0  0  0  0  0  0  0  0
  -23.7999   48.6275   12.3015 C   0  0  0  0  0  0  0  0  0  0  0  0
  -24.5782   49.1670   11.2490 N   0  0  0  0  0  0  0  0  0  0  0  0
  -24.7045   50.5944   11.3913 C   0  0  0  0  0  0  0  0  0  0  0  0
  -24.2166   48.6661    9.6818 S   0  0  1  0  0  6  0  0  0  0  0  0
  -23.4058   47.3872    9.7328 O   0  0  0  0  0  0  0  0  0  0  0  0
  -23.3447   49.6632    8.9442 O   0  0  0  0  0  0  0  0  0  0  0  0
  -26.7636   47.7271    9.4291 C   0  0  0  0  0  0  0  0  0  0  0  0
  -27.8976   47.3536    8.7556 C   0  0  0  0  0  0  0  0  0  0  0  0
  -29.0008   46.7852    9.4361 N   0  0  0  0  0  0  0  0  0  0  0  0
  -29.1032   46.8753   10.8535 C   0  0  0  0  0  0  0  0  0  0  0  0
  -28.2923   47.5913   11.4559 O   0  0  0  0  0  0  0  0  0  0  0  0
  -30.4580   44.9010   10.9627 N   0  0  0  0  0  0  0  0  0  0  0  0
  -29.5447   43.9521   10.4361 C   0  0  0  0  0  0  0  0  0  0  0  0
  -28.2822   44.0708   10.4702 O   0  0  0  0  0  0  0  0  0  0  0  0
  -30.2964   42.8792    9.8818 N   0  0  0  0  0  0  0  0  0  0  0  0
  -31.6826   43.0000   10.2636 C   0  0  2  0  0  0  0  0  0  0  0  0
  -31.9929   42.0083   11.3484 C   0  0  0  0  0  0  0  0  0  0  0  0
  -33.4785   42.1272   11.6614 C   0  0  0  0  0  0  0  0  0  0  0  0
  -34.3242   41.6538   10.5193 C   0  0  0  0  0  0  0  0  0  0  0  0
  -33.7995   42.1240    9.2163 C   0  0  0  0  0  0  0  0  0  0  0  0
  -34.5564   41.9351    8.0746 C   0  0  0  0  0  0  0  0  0  0  0  0
  -34.1416   42.3394    6.8433 C   0  0  0  0  0  0  0  0  0  0  0  0
  -32.9110   42.9626    6.7491 C   0  0  0  0  0  0  0  0  0  0  0  0
  -32.1240   43.1723    7.8546 C   0  0  0  0  0  0  0  0  0  0  0  0
  -32.5745   42.7476    9.1024 C   0  0  0  0  0  0  0  0  0  0  0  0
  -31.7835   44.4000   10.7263 C   0  0  0  0  0  0  0  0  0  0  0  0
  -32.8227   45.1063   10.9083 O   0  0  0  0  0  0  0  0  0  0  0  0
  -27.9079   47.5573    7.4013 C   0  0  0  0  0  0  0  0  0  0  0  0
  -26.8510   48.1078    6.7188 C   0  0  0  0  0  0  0  0  0  0  0  0
  -25.7020   48.4839    7.4256 C   0  0  0  0  0  0  0  0  0  0  0  0
  -24.4071   49.2667    6.5269 Cl  0  0  0  0  0  0  0  0  0  0  0  0
  1  6  1  0
  9  1  2  0
  1 32  1  0
 12  2  1  0
  2 14  1  0
  4  3  1  0
  4  5  1  0
  6  4  1  1
  6  7  2  0
  6  8  2  0
 10  9  1  0
 11 10  1  0
 10 30  2  0
 11 12  1  0
 12 13  2  0
 14 15  1  0
 14 28  1  0
 15 16  2  0
 15 17  1  0
 17 18  1  0
 18 19  1  1
 18 27  1  0
 18 28  1  0
 19 20  1  0
 20 21  1  0
 21 22  1  0
 22 23  2  0
 22 27  1  0
 23 24  1  0
 24 25  2  0
 25 26  1  0
 26 27  2  0
 28 29  2  0
 30 31  1  0
 31 32  2  0
 32 33  1  0
M  END
$$$$
