
     RDKit          3D

 33 36  0  0  0  0  0  0  0  0999 V2000
  -31.4909   49.0098   12.6077 C   0  0  0  0  0  0  0  0  0  0  0  0
  -26.1353   46.6494   11.6475 C   0  0  0  0  0  0  0  0  0  0  0  0
  -33.8066   50.0134   15.1260 C   0  0  0  0  0  0  0  0  0  0  0  0
  -32.4123   50.2219   14.9956 N   0  0  0  0  0  0  0  0  0  0  0  0
  -31.6792   49.2332   15.7430 C   0  0  0  0  0  0  0  0  0  0  0  0
  -31.8103   50.4915   13.4455 S   0  0  1  0  0  6  0  0  0  0  0  0
  -30.4854   51.2211   13.5361 O   0  0  0  0  0  0  0  0  0  0  0  0
  -32.7098   51.3961   12.6265 O   0  0  0  0  0  0  0  0  0  0  0  0
  -30.2250   48.3872   12.7444 C   0  0  0  0  0  0  0  0  0  0  0  0
  -29.8881   47.2497   12.0576 C   0  0  0  0  0  0  0  0  0  0  0  0
  -28.6161   46.6488   12.2133 N   0  0  0  0  0  0  0  0  0  0  0  0
  -27.4340   47.3440   11.8301 C   0  0  0  0  0  0  0  0  0  0  0  0
  -27.5057   48.5664   11.6465 O   0  0  0  0  0  0  0  0  0  0  0  0
  -26.3345   45.3884   10.9861 N   0  0  0  0  0  0  0  0  0  0  0  0
  -26.1695   44.0928   11.5392 C   0  0  0  0  0  0  0  0  0  0  0  0
  -25.8115   43.8591   12.7336 O   0  0  0  0  0  0  0  0  0  0  0  0
  -26.4737   43.1407   10.5270 N   0  0  0  0  0  0  0  0  0  0  0  0
  -27.0759   43.8014    9.3944 C   0  0  2  0  0  0  0  0  0  0  0  0
  -28.5561   43.5453    9.3924 C   0  0  0  0  0  0  0  0  0  0  0  0
  -29.1289   44.2003    8.1427 C   0  0  0  0  0  0  0  0  0  0  0  0
  -28.6656   43.5121    6.8955 C   0  0  0  0  0  0  0  0  0  0  0  0
  -27.2263   43.1683    6.9608 C   0  0  0  0  0  0  0  0  0  0  0  0
  -26.5916   42.6961    5.8267 C   0  0  0  0  0  0  0  0  0  0  0  0
  -25.2733   42.3598    5.8091 C   0  0  0  0  0  0  0  0  0  0  0  0
  -24.5550   42.5026    6.9819 C   0  0  0  0  0  0  0  0  0  0  0  0
  -25.1416   42.9674    8.1331 C   0  0  0  0  0  0  0  0  0  0  0  0
  -26.4933   43.3039    8.1213 C   0  0  0  0  0  0  0  0  0  0  0  0
  -26.7446   45.2240    9.6191 C   0  0  0  0  0  0  0  0  0  0  0  0
  -26.7890   46.1918    8.7987 O   0  0  0  0  0  0  0  0  0  0  0  0
  -30.8381   46.7290   11.2197 C   0  0  0  0  0  0  0  0  0  0  0  0
  -32.0791   47.2926   11.0525 C   0  0  0  0  0  0  0  0  0  0  0  0
  -32.4042   48.4540   11.7645 C   0  0  0  0  0  0  0  0  0  0  0  0
  -34.0347   49.0929   11.5891 Cl  0  0  0  0  0  0  0  0  0  0  0  0
  1  6  1  0
  9  1  2  0
  1 32  1  0
 12  2  1  0
  2 14  1  0
  4  3  1  0
  4  5  1  0
  6  4  1  1
  6  7  2  0
  6  8  2  0
 10  9  1  0
 11 10  1  0
 10 30  2  0
 11 12  1  0
 12 13  2  0
 14 15  1  0
 14 28  1  0
 15 16  2  0
 15 17  1  0
 17 18  1  0
 18 19  1  6
 18 27  1  0
 18 28  1  0
 19 20  1  0
 20 21  1  0
 21 22  1  0
 22 23  2  0
 22 27  1  0
 23 24  1  0
 24 25  2  0
 25 26  1  0
 26 27  2  0
 28 29  2  0
 30 31  1  0
 31 32  2  0
 32 33  1  0
M  END
$$$$
