
     RDKit          3D

 33 36  0  0  0  0  0  0  0  0999 V2000
  -27.6808   50.8968    8.4155 C   0  0  0  0  0  0  0  0  0  0  0  0
  -26.8752   45.7866   10.8978 C   0  0  0  0  0  0  0  0  0  0  0  0
  -24.5021   53.1168    7.0168 C   0  0  0  0  0  0  0  0  0  0  0  0
  -25.3981   52.0334    7.1836 N   0  0  0  0  0  0  0  0  0  0  0  0
  -24.7203   50.7788    6.9834 C   0  0  0  0  0  0  0  0  0  0  0  0
  -26.4024   52.0590    8.5358 S   0  0  1  0  0  6  0  0  0  0  0  0
  -27.0709   53.4144    8.6450 O   0  0  0  0  0  0  0  0  0  0  0  0
  -25.6319   51.8877    9.8301 O   0  0  0  0  0  0  0  0  0  0  0  0
  -27.5143   49.6113    8.9886 C   0  0  0  0  0  0  0  0  0  0  0  0
  -28.4611   48.6268    8.8715 C   0  0  0  0  0  0  0  0  0  0  0  0
  -28.2686   47.3514    9.4542 N   0  0  0  0  0  0  0  0  0  0  0  0
  -27.0422   47.0275   10.1013 C   0  0  0  0  0  0  0  0  0  0  0  0
  -26.0932   47.8147    9.9877 O   0  0  0  0  0  0  0  0  0  0  0  0
  -28.1373   45.3778   11.4521 N   0  0  0  0  0  0  0  0  0  0  0  0
  -28.8235   45.9612   12.5478 C   0  0  0  0  0  0  0  0  0  0  0  0
  -28.4052   46.9574   13.2126 O   0  0  0  0  0  0  0  0  0  0  0  0
  -30.0304   45.2353   12.7475 N   0  0  0  0  0  0  0  0  0  0  0  0
  -30.2574   44.3422   11.6371 C   0  0  2  0  0  0  0  0  0  0  0  0
  -31.3239   44.9111   10.7452 C   0  0  0  0  0  0  0  0  0  0  0  0
  -31.5749   43.8995    9.6349 C   0  0  0  0  0  0  0  0  0  0  0  0
  -32.2067   42.6470   10.1600 C   0  0  0  0  0  0  0  0  0  0  0  0
  -31.5887   42.2132   11.4344 C   0  0  0  0  0  0  0  0  0  0  0  0
  -31.9231   40.9801   11.9629 C   0  0  0  0  0  0  0  0  0  0  0  0
  -31.3974   40.5134   13.1280 C   0  0  0  0  0  0  0  0  0  0  0  0
  -30.4939   41.3185   13.7966 C   0  0  0  0  0  0  0  0  0  0  0  0
  -30.1310   42.5506   13.3110 C   0  0  0  0  0  0  0  0  0  0  0  0
  -30.6856   43.0023   12.1157 C   0  0  0  0  0  0  0  0  0  0  0  0
  -28.9361   44.2821   10.9778 C   0  0  0  0  0  0  0  0  0  0  0  0
  -28.5062   43.4409   10.1296 O   0  0  0  0  0  0  0  0  0  0  0  0
  -29.5936   48.9387    8.1674 C   0  0  0  0  0  0  0  0  0  0  0  0
  -29.8040   50.1686    7.5940 C   0  0  0  0  0  0  0  0  0  0  0  0
  -28.8250   51.1612    7.7263 C   0  0  0  0  0  0  0  0  0  0  0  0
  -29.1729   52.7497    7.0533 Cl  0  0  0  0  0  0  0  0  0  0  0  0
  1  6  1  0
  9  1  2  0
  1 32  1  0
 12  2  1  0
  2 14  1  0
  4  3  1  0
  4  5  1  0
  6  4  1  6
  6  7  2  0
  6  8  2  0
 10  9  1  0
 11 10  1  0
 10 30  2  0
 11 12  1  0
 12 13  2  0
 14 15  1  0
 14 28  1  0
 15 16  2  0
 15 17  1  0
 17 18  1  0
 18 19  1  6
 18 27  1  0
 18 28  1  0
 19 20  1  0
 20 21  1  0
 21 22  1  0
 22 23  2  0
 22 27  1  0
 23 24  1  0
 24 25  2  0
 25 26  1  0
 26 27  2  0
 28 29  2  0
 30 31  1  0
 31 32  2  0
 32 33  1  0
M  END
$$$$
