
     RDKit          3D

 33 36  0  0  0  0  0  0  0  0999 V2000
  -27.3188   50.9020    9.7251 C   0  0  0  0  0  0  0  0  0  0  0  0
  -26.5480   45.7538   12.3251 C   0  0  0  0  0  0  0  0  0  0  0  0
  -26.4186   52.0896    6.1619 C   0  0  0  0  0  0  0  0  0  0  0  0
  -26.1474   51.1184    7.1558 N   0  0  0  0  0  0  0  0  0  0  0  0
  -25.0310   50.2951    6.7696 C   0  0  0  0  0  0  0  0  0  0  0  0
  -26.0889   51.6420    8.7558 S   0  0  1  0  0  6  0  0  0  0  0  0
  -26.3468   53.1341    8.8107 O   0  0  0  0  0  0  0  0  0  0  0  0
  -24.7190   51.4498    9.3760 O   0  0  0  0  0  0  0  0  0  0  0  0
  -27.1805   49.5470   10.1168 C   0  0  0  0  0  0  0  0  0  0  0  0
  -28.1481   48.8858   10.8280 C   0  0  0  0  0  0  0  0  0  0  0  0
  -27.9836   47.5318   11.2062 N   0  0  0  0  0  0  0  0  0  0  0  0
  -26.7072   47.0391   11.6007 C   0  0  0  0  0  0  0  0  0  0  0  0
  -25.7067   47.7143   11.3243 O   0  0  0  0  0  0  0  0  0  0  0  0
  -27.1921   44.6917   11.6009 N   0  0  0  0  0  0  0  0  0  0  0  0
  -26.5691   43.6738   10.8345 C   0  0  0  0  0  0  0  0  0  0  0  0
  -25.3160   43.5551   10.6765 O   0  0  0  0  0  0  0  0  0  0  0  0
  -27.5898   42.8414   10.2969 N   0  0  0  0  0  0  0  0  0  0  0  0
  -28.8573   43.1589   10.9088 C   0  0  2  0  0  0  0  0  0  0  0  0
  -29.2074   42.1012   11.9164 C   0  0  0  0  0  0  0  0  0  0  0  0
  -30.5813   42.4442   12.4766 C   0  0  0  0  0  0  0  0  0  0  0  0
  -31.6541   42.2932   11.4421 C   0  0  0  0  0  0  0  0  0  0  0  0
  -31.2308   42.8339   10.1296 C   0  0  0  0  0  0  0  0  0  0  0  0
  -32.1603   42.9437    9.1118 C   0  0  0  0  0  0  0  0  0  0  0  0
  -31.8468   43.4304    7.8805 C   0  0  0  0  0  0  0  0  0  0  0  0
  -30.5413   43.8264    7.6560 C   0  0  0  0  0  0  0  0  0  0  0  0
  -29.5833   43.7363    8.6356 C   0  0  0  0  0  0  0  0  0  0  0  0
  -29.9333   43.2340    9.8868 C   0  0  0  0  0  0  0  0  0  0  0  0
  -28.6107   44.4772   11.5296 C   0  0  0  0  0  0  0  0  0  0  0  0
  -29.4520   45.3289   11.9522 O   0  0  0  0  0  0  0  0  0  0  0  0
  -29.2729   49.5971   11.1510 C   0  0  0  0  0  0  0  0  0  0  0  0
  -29.4553   50.9113   10.7967 C   0  0  0  0  0  0  0  0  0  0  0  0
  -28.4542   51.5692   10.0713 C   0  0  0  0  0  0  0  0  0  0  0  0
  -28.6886   53.2766    9.7150 Cl  0  0  0  0  0  0  0  0  0  0  0  0
  1  6  1  0
  9  1  2  0
  1 32  1  0
 12  2  1  0
  2 14  1  0
  4  3  1  0
  4  5  1  0
  6  4  1  6
  6  7  2  0
  6  8  2  0
 10  9  1  0
 11 10  1  0
 10 30  2  0
 11 12  1  0
 12 13  2  0
 14 15  1  0
 14 28  1  0
 15 16  2  0
 15 17  1  0
 17 18  1  0
 18 19  1  1
 18 27  1  0
 18 28  1  0
 19 20  1  0
 20 21  1  0
 21 22  1  0
 22 23  2  0
 22 27  1  0
 23 24  1  0
 24 25  2  0
 25 26  1  0
 26 27  2  0
 28 29  2  0
 30 31  1  0
 31 32  2  0
 32 33  1  0
M  END
$$$$
