
     RDKit          3D

 33 36  0  0  0  0  0  0  0  0999 V2000
  -27.1642   51.0829    9.2759 C   0  0  0  0  0  0  0  0  0  0  0  0
  -26.2288   45.4558   10.0144 C   0  0  0  0  0  0  0  0  0  0  0  0
  -24.2184   50.6934    7.5938 C   0  0  0  0  0  0  0  0  0  0  0  0
  -25.4962   50.8347    7.0007 N   0  0  0  0  0  0  0  0  0  0  0  0
  -26.0137   49.5524    6.5987 C   0  0  0  0  0  0  0  0  0  0  0  0
  -26.6186   51.8046    7.7990 S   0  0  1  0  0  6  0  0  0  0  0  0
  -27.8489   51.9756    6.9312 O   0  0  0  0  0  0  0  0  0  0  0  0
  -26.1003   53.2088    8.0391 O   0  0  0  0  0  0  0  0  0  0  0  0
  -26.9327   49.7041    9.5086 C   0  0  0  0  0  0  0  0  0  0  0  0
  -27.3959   49.0602   10.6265 C   0  0  0  0  0  0  0  0  0  0  0  0
  -27.1499   47.6818   10.8335 N   0  0  0  0  0  0  0  0  0  0  0  0
  -26.4704   46.9106    9.8481 C   0  0  0  0  0  0  0  0  0  0  0  0
  -26.0739   47.4841    8.8249 O   0  0  0  0  0  0  0  0  0  0  0  0
  -27.3830   44.8230   10.5929 N   0  0  0  0  0  0  0  0  0  0  0  0
  -27.4593   44.1500   11.8391 C   0  0  0  0  0  0  0  0  0  0  0  0
  -26.4879   44.0083   12.6426 O   0  0  0  0  0  0  0  0  0  0  0  0
  -28.7923   43.6816   12.0048 N   0  0  0  0  0  0  0  0  0  0  0  0
  -29.6460   44.2582   10.9946 C   0  0  2  0  0  0  0  0  0  0  0  0
  -30.4767   45.3517   11.6037 C   0  0  0  0  0  0  0  0  0  0  0  0
  -31.4072   45.8742   10.5173 C   0  0  0  0  0  0  0  0  0  0  0  0
  -32.4296   44.8518   10.1258 C   0  0  0  0  0  0  0  0  0  0  0  0
  -31.8365   43.4995   10.0088 C   0  0  0  0  0  0  0  0  0  0  0  0
  -32.5950   42.4719    9.4789 C   0  0  0  0  0  0  0  0  0  0  0  0
  -32.1197   41.2046    9.3399 C   0  0  0  0  0  0  0  0  0  0  0  0
  -30.8237   40.9526    9.7505 C   0  0  0  0  0  0  0  0  0  0  0  0
  -30.0323   41.9406   10.2826 C   0  0  0  0  0  0  0  0  0  0  0  0
  -30.5458   43.2289   10.4128 C   0  0  0  0  0  0  0  0  0  0  0  0
  -28.6861   44.7642    9.9913 C   0  0  0  0  0  0  0  0  0  0  0  0
  -28.8985   45.1081    8.7877 O   0  0  0  0  0  0  0  0  0  0  0  0
  -28.1032   49.8133   11.5255 C   0  0  0  0  0  0  0  0  0  0  0  0
  -28.3539   51.1518   11.3479 C   0  0  0  0  0  0  0  0  0  0  0  0
  -27.8707   51.7913   10.1995 C   0  0  0  0  0  0  0  0  0  0  0  0
  -28.1372   53.5249   10.0540 Cl  0  0  0  0  0  0  0  0  0  0  0  0
  1  6  1  0
  9  1  2  0
  1 32  1  0
 12  2  1  0
  2 14  1  0
  4  3  1  0
  4  5  1  0
  6  4  1  6
  6  7  2  0
  6  8  2  0
 10  9  1  0
 11 10  1  0
 10 30  2  0
 11 12  1  0
 12 13  2  0
 14 15  1  0
 14 28  1  0
 15 16  2  0
 15 17  1  0
 17 18  1  0
 18 19  1  1
 18 27  1  0
 18 28  1  0
 19 20  1  0
 20 21  1  0
 21 22  1  0
 22 23  2  0
 22 27  1  0
 23 24  1  0
 24 25  2  0
 25 26  1  0
 26 27  2  0
 28 29  2  0
 30 31  1  0
 31 32  2  0
 32 33  1  0
M  END
$$$$
