
     RDKit          3D

 33 36  0  0  0  0  0  0  0  0999 V2000
  -31.8589   49.4545    9.3704 C   0  0  0  0  0  0  0  0  0  0  0  0
  -28.0163   46.7916   12.7002 C   0  0  0  0  0  0  0  0  0  0  0  0
  -30.8446   51.1451    6.6792 C   0  0  0  0  0  0  0  0  0  0  0  0
  -30.8031   49.7321    6.7572 N   0  0  0  0  0  0  0  0  0  0  0  0
  -29.4594   49.2767    7.0035 C   0  0  0  0  0  0  0  0  0  0  0  0
  -31.9669   48.9736    7.7101 S   0  0  1  0  0  6  0  0  0  0  0  0
  -31.7425   47.4753    7.6876 O   0  0  0  0  0  0  0  0  0  0  0  0
  -33.3712   49.1757    7.1758 O   0  0  0  0  0  0  0  0  0  0  0  0
  -30.9789   48.7664   10.2426 C   0  0  0  0  0  0  0  0  0  0  0  0
  -30.8954   49.0558   11.5800 C   0  0  0  0  0  0  0  0  0  0  0  0
  -30.0074   48.3524   12.4283 N   0  0  0  0  0  0  0  0  0  0  0  0
  -29.1215   47.3719   11.8977 C   0  0  0  0  0  0  0  0  0  0  0  0
  -29.2897   47.0007   10.7285 O   0  0  0  0  0  0  0  0  0  0  0  0
  -27.3905   45.7160   11.9802 N   0  0  0  0  0  0  0  0  0  0  0  0
  -27.6437   44.3273   12.1196 C   0  0  0  0  0  0  0  0  0  0  0  0
  -28.4851   43.8253   12.9253 O   0  0  0  0  0  0  0  0  0  0  0  0
  -26.7984   43.6330   11.2102 N   0  0  0  0  0  0  0  0  0  0  0  0
  -26.1769   44.5678   10.3037 C   0  0  2  0  0  0  0  0  0  0  0  0
  -26.8540   44.4946    8.9648 C   0  0  0  0  0  0  0  0  0  0  0  0
  -26.1158   45.4432    8.0298 C   0  0  0  0  0  0  0  0  0  0  0  0
  -24.7291   44.9602    7.7336 C   0  0  0  0  0  0  0  0  0  0  0  0
  -24.0575   44.4418    8.9478 C   0  0  0  0  0  0  0  0  0  0  0  0
  -22.7122   44.1269    8.8943 C   0  0  0  0  0  0  0  0  0  0  0  0
  -22.0272   43.6463    9.9673 C   0  0  0  0  0  0  0  0  0  0  0  0
  -22.7208   43.4722   11.1507 C   0  0  0  0  0  0  0  0  0  0  0  0
  -24.0572   43.7709   11.2523 C   0  0  0  0  0  0  0  0  0  0  0  0
  -24.7325   44.2615   10.1371 C   0  0  0  0  0  0  0  0  0  0  0  0
  -26.3779   45.8700   10.9729 C   0  0  0  0  0  0  0  0  0  0  0  0
  -25.7965   46.9771   10.7532 O   0  0  0  0  0  0  0  0  0  0  0  0
  -31.7092   50.0526   12.0489 C   0  0  0  0  0  0  0  0  0  0  0  0
  -32.5779   50.7501   11.2459 C   0  0  0  0  0  0  0  0  0  0  0  0
  -32.6470   50.4400    9.8820 C   0  0  0  0  0  0  0  0  0  0  0  0
  -33.7073   51.4168    8.8727 Cl  0  0  0  0  0  0  0  0  0  0  0  0
  1  6  1  0
  9  1  2  0
  1 32  1  0
 12  2  1  0
  2 14  1  0
  4  3  1  0
  4  5  1  0
  6  4  1  6
  6  7  2  0
  6  8  2  0
 10  9  1  0
 11 10  1  0
 10 30  2  0
 11 12  1  0
 12 13  2  0
 14 15  1  0
 14 28  1  0
 15 16  2  0
 15 17  1  0
 17 18  1  0
 18 19  1  6
 18 27  1  0
 18 28  1  0
 19 20  1  0
 20 21  1  0
 21 22  1  0
 22 23  2  0
 22 27  1  0
 23 24  1  0
 24 25  2  0
 25 26  1  0
 26 27  2  0
 28 29  2  0
 30 31  1  0
 31 32  2  0
 32 33  1  0
M  END
$$$$
