
     RDKit          3D

 33 36  0  0  0  0  0  0  0  0999 V2000
  -25.0122   46.8218    9.6380 C   0  0  0  0  0  0  0  0  0  0  0  0
  -29.9143   43.9472   11.6435 C   0  0  0  0  0  0  0  0  0  0  0  0
  -22.0101   48.3989   10.7083 C   0  0  0  0  0  0  0  0  0  0  0  0
  -22.5206   47.1016   10.9549 N   0  0  0  0  0  0  0  0  0  0  0  0
  -23.2094   47.0590   12.2187 C   0  0  0  0  0  0  0  0  0  0  0  0
  -23.3489   46.3428    9.6995 S   0  0  1  0  0  6  0  0  0  0  0  0
  -23.3476   44.8444    9.9241 O   0  0  0  0  0  0  0  0  0  0  0  0
  -22.6745   46.5466    8.3571 O   0  0  0  0  0  0  0  0  0  0  0  0
  -25.9572   46.1787   10.4759 C   0  0  0  0  0  0  0  0  0  0  0  0
  -27.2967   46.4664   10.4281 C   0  0  0  0  0  0  0  0  0  0  0  0
  -28.2186   45.8086   11.2769 N   0  0  0  0  0  0  0  0  0  0  0  0
  -29.1034   44.8203   10.7590 C   0  0  0  0  0  0  0  0  0  0  0  0
  -29.1893   44.6960    9.5300 O   0  0  0  0  0  0  0  0  0  0  0  0
  -31.3125   44.2442   11.4891 N   0  0  0  0  0  0  0  0  0  0  0  0
  -32.0475   45.2747   12.1291 C   0  0  0  0  0  0  0  0  0  0  0  0
  -31.5570   46.1047   12.9536 O   0  0  0  0  0  0  0  0  0  0  0  0
  -33.3952   45.1972   11.6803 N   0  0  0  0  0  0  0  0  0  0  0  0
  -33.4916   44.2853   10.5664 C   0  0  2  0  0  0  0  0  0  0  0  0
  -33.6278   45.0649    9.2896 C   0  0  0  0  0  0  0  0  0  0  0  0
  -33.7987   44.0591    8.1590 C   0  0  0  0  0  0  0  0  0  0  0  0
  -35.1073   43.3365    8.2544 C   0  0  0  0  0  0  0  0  0  0  0  0
  -35.4183   42.9464    9.6491 C   0  0  0  0  0  0  0  0  0  0  0  0
  -36.4942   42.1132    9.8944 C   0  0  0  0  0  0  0  0  0  0  0  0
  -36.8415   41.7118   11.1473 C   0  0  0  0  0  0  0  0  0  0  0  0
  -36.0763   42.1653   12.2058 C   0  0  0  0  0  0  0  0  0  0  0  0
  -34.9987   42.9940   12.0118 C   0  0  0  0  0  0  0  0  0  0  0  0
  -34.6667   43.3885   10.7178 C   0  0  0  0  0  0  0  0  0  0  0  0
  -32.2238   43.5293   10.6393 C   0  0  0  0  0  0  0  0  0  0  0  0
  -31.9164   42.4327   10.0783 O   0  0  0  0  0  0  0  0  0  0  0  0
  -27.6934   47.4155    9.5239 C   0  0  0  0  0  0  0  0  0  0  0  0
  -26.8184   48.0683    8.6908 C   0  0  0  0  0  0  0  0  0  0  0  0
  -25.4537   47.7607    8.7562 C   0  0  0  0  0  0  0  0  0  0  0  0
  -24.3564   48.6829    7.7350 Cl  0  0  0  0  0  0  0  0  0  0  0  0
  1  6  1  0
  9  1  2  0
  1 32  1  0
 12  2  1  0
  2 14  1  0
  4  3  1  0
  4  5  1  0
  6  4  1  1
  6  7  2  0
  6  8  2  0
 10  9  1  0
 11 10  1  0
 10 30  2  0
 11 12  1  0
 12 13  2  0
 14 15  1  0
 14 28  1  0
 15 16  2  0
 15 17  1  0
 17 18  1  0
 18 19  1  6
 18 27  1  0
 18 28  1  0
 19 20  1  0
 20 21  1  0
 21 22  1  0
 22 23  2  0
 22 27  1  0
 23 24  1  0
 24 25  2  0
 25 26  1  0
 26 27  2  0
 28 29  2  0
 30 31  1  0
 31 32  2  0
 32 33  1  0
M  END
$$$$
