
     RDKit          3D

 33 36  0  0  0  0  0  0  0  0999 V2000
  -27.2123   51.1357    9.5451 C   0  0  0  0  0  0  0  0  0  0  0  0
  -25.7989   45.5118   10.0391 C   0  0  0  0  0  0  0  0  0  0  0  0
  -27.5720   52.0842    6.2486 C   0  0  0  0  0  0  0  0  0  0  0  0
  -26.3612   51.8114    6.9298 N   0  0  0  0  0  0  0  0  0  0  0  0
  -25.2323   52.2655    6.1599 C   0  0  0  0  0  0  0  0  0  0  0  0
  -26.2820   52.2172    8.5629 S   0  0  1  0  0  6  0  0  0  0  0  0
  -26.8750   53.5957    8.7721 O   0  0  0  0  0  0  0  0  0  0  0  0
  -24.8547   52.3155    9.0644 O   0  0  0  0  0  0  0  0  0  0  0  0
  -26.9730   49.7408    9.4701 C   0  0  0  0  0  0  0  0  0  0  0  0
  -27.7182   48.8291   10.1720 C   0  0  0  0  0  0  0  0  0  0  0  0
  -27.4573   47.4412   10.0783 N   0  0  0  0  0  0  0  0  0  0  0  0
  -26.1206   46.9595    9.9839 C   0  0  0  0  0  0  0  0  0  0  0  0
  -25.2074   47.7852    9.8520 O   0  0  0  0  0  0  0  0  0  0  0  0
  -26.9090   44.7760   10.5809 N   0  0  0  0  0  0  0  0  0  0  0  0
  -26.8882   43.8692   11.6713 C   0  0  0  0  0  0  0  0  0  0  0  0
  -25.8533   43.5718   12.3420 O   0  0  0  0  0  0  0  0  0  0  0  0
  -28.2094   43.3763   11.8584 N   0  0  0  0  0  0  0  0  0  0  0  0
  -29.1378   44.1411   11.0614 C   0  0  2  0  0  0  0  0  0  0  0  0
  -29.8940   45.0915   11.9454 C   0  0  0  0  0  0  0  0  0  0  0  0
  -30.9064   45.8183   11.0702 C   0  0  0  0  0  0  0  0  0  0  0  0
  -31.9759   44.8931   10.5763 C   0  0  0  0  0  0  0  0  0  0  0  0
  -31.4180   43.5912   10.1426 C   0  0  0  0  0  0  0  0  0  0  0  0
  -32.2367   42.6885    9.4893 C   0  0  0  0  0  0  0  0  0  0  0  0
  -31.7966   41.4742    9.0613 C   0  0  0  0  0  0  0  0  0  0  0  0
  -30.4743   41.1468    9.2978 C   0  0  0  0  0  0  0  0  0  0  0  0
  -29.6232   42.0103    9.9426 C   0  0  0  0  0  0  0  0  0  0  0  0
  -30.1018   43.2468   10.3696 C   0  0  0  0  0  0  0  0  0  0  0  0
  -28.2602   44.8366   10.0970 C   0  0  0  0  0  0  0  0  0  0  0  0
  -28.5703   45.4122    9.0087 O   0  0  0  0  0  0  0  0  0  0  0  0
  -28.7201   49.3266   10.9621 C   0  0  0  0  0  0  0  0  0  0  0  0
  -28.9920   50.6683   11.0706 C   0  0  0  0  0  0  0  0  0  0  0  0
  -28.2181   51.5835   10.3462 C   0  0  0  0  0  0  0  0  0  0  0  0
  -28.5416   53.2973   10.5823 Cl  0  0  0  0  0  0  0  0  0  0  0  0
  1  6  1  0
  9  1  2  0
  1 32  1  0
 12  2  1  0
  2 14  1  0
  4  3  1  0
  4  5  1  0
  6  4  1  6
  6  7  2  0
  6  8  2  0
 10  9  1  0
 11 10  1  0
 10 30  2  0
 11 12  1  0
 12 13  2  0
 14 15  1  0
 14 28  1  0
 15 16  2  0
 15 17  1  0
 17 18  1  0
 18 19  1  1
 18 27  1  0
 18 28  1  0
 19 20  1  0
 20 21  1  0
 21 22  1  0
 22 23  2  0
 22 27  1  0
 23 24  1  0
 24 25  2  0
 25 26  1  0
 26 27  2  0
 28 29  2  0
 30 31  1  0
 31 32  2  0
 32 33  1  0
M  END
$$$$
