
     RDKit          3D

 33 36  0  0  0  0  0  0  0  0999 V2000
  -26.9322   49.7210    8.0843 C   0  0  0  0  0  0  0  0  0  0  0  0
  -27.1827   45.9212   12.4028 C   0  0  0  0  0  0  0  0  0  0  0  0
  -27.9488   52.1433   10.3330 C   0  0  0  0  0  0  0  0  0  0  0  0
  -27.8097   52.2773    8.9304 N   0  0  0  0  0  0  0  0  0  0  0  0
  -26.5561   52.9052    8.6024 C   0  0  0  0  0  0  0  0  0  0  0  0
  -28.1677   50.9307    7.9837 S   0  0  1  0  0  6  0  0  0  0  0  0
  -28.2418   51.3405    6.5269 O   0  0  0  0  0  0  0  0  0  0  0  0
  -29.5289   50.3454    8.3042 O   0  0  0  0  0  0  0  0  0  0  0  0
  -27.0384   48.6909    9.0519 C   0  0  0  0  0  0  0  0  0  0  0  0
  -26.0634   47.7430    9.2252 C   0  0  0  0  0  0  0  0  0  0  0  0
  -26.1955   46.7250   10.1997 N   0  0  0  0  0  0  0  0  0  0  0  0
  -26.8009   47.0007   11.4587 C   0  0  0  0  0  0  0  0  0  0  0  0
  -27.0097   48.1826   11.7631 O   0  0  0  0  0  0  0  0  0  0  0  0
  -27.6665   44.7764   11.6798 N   0  0  0  0  0  0  0  0  0  0  0  0
  -26.9157   43.6534   11.2475 C   0  0  0  0  0  0  0  0  0  0  0  0
  -25.6723   43.4981   11.4452 O   0  0  0  0  0  0  0  0  0  0  0  0
  -27.8000   42.7669   10.5725 N   0  0  0  0  0  0  0  0  0  0  0  0
  -29.1662   43.1829   10.7782 C   0  0  2  0  0  0  0  0  0  0  0  0
  -29.8192   42.2811   11.7867 C   0  0  0  0  0  0  0  0  0  0  0  0
  -31.2731   42.7164   11.9115 C   0  0  0  0  0  0  0  0  0  0  0  0
  -32.0443   42.4356   10.6583 C   0  0  0  0  0  0  0  0  0  0  0  0
  -31.2665   42.7819    9.4462 C   0  0  0  0  0  0  0  0  0  0  0  0
  -31.8910   42.7598    8.2127 C   0  0  0  0  0  0  0  0  0  0  0  0
  -31.2430   43.0654    7.0559 C   0  0  0  0  0  0  0  0  0  0  0  0
  -29.9063   43.4096    7.1363 C   0  0  0  0  0  0  0  0  0  0  0  0
  -29.2434   43.4455    8.3383 C   0  0  0  0  0  0  0  0  0  0  0  0
  -29.9326   43.1277    9.5064 C   0  0  0  0  0  0  0  0  0  0  0  0
  -29.0259   44.5719   11.2630 C   0  0  0  0  0  0  0  0  0  0  0  0
  -29.9055   45.4849   11.3310 O   0  0  0  0  0  0  0  0  0  0  0  0
  -24.9640   47.8311    8.4134 C   0  0  0  0  0  0  0  0  0  0  0  0
  -24.8132   48.8082    7.4603 C   0  0  0  0  0  0  0  0  0  0  0  0
  -25.8214   49.7665    7.2982 C   0  0  0  0  0  0  0  0  0  0  0  0
  -25.6296   50.9467    6.0067 Cl  0  0  0  0  0  0  0  0  0  0  0  0
  1  6  1  0
  9  1  2  0
  1 32  1  0
 12  2  1  0
  2 14  1  0
  4  3  1  0
  4  5  1  0
  6  4  1  1
  6  7  2  0
  6  8  2  0
 10  9  1  0
 11 10  1  0
 10 30  2  0
 11 12  1  0
 12 13  2  0
 14 15  1  0
 14 28  1  0
 15 16  2  0
 15 17  1  0
 17 18  1  0
 18 19  1  1
 18 27  1  0
 18 28  1  0
 19 20  1  0
 20 21  1  0
 21 22  1  0
 22 23  2  0
 22 27  1  0
 23 24  1  0
 24 25  2  0
 25 26  1  0
 26 27  2  0
 28 29  2  0
 30 31  1  0
 31 32  2  0
 32 33  1  0
M  END
$$$$
