
     RDKit          3D

 33 36  0  0  0  0  0  0  0  0999 V2000
  -31.6752   42.6832    6.2434 C   0  0  0  0  0  0  0  0  0  0  0  0
  -29.2394   44.4355   11.1839 C   0  0  0  0  0  0  0  0  0  0  0  0
  -35.4471   42.6829    6.7203 C   0  0  0  0  0  0  0  0  0  0  0  0
  -34.2513   42.2328    7.3302 N   0  0  0  0  0  0  0  0  0  0  0  0
  -34.5441   41.3897    8.4602 C   0  0  0  0  0  0  0  0  0  0  0  0
  -33.0462   41.6277    6.3206 S   0  0  1  0  0  6  0  0  0  0  0  0
  -33.5774   41.5191    4.9058 O   0  0  0  0  0  0  0  0  0  0  0  0
  -32.6283   40.2207    6.7000 O   0  0  0  0  0  0  0  0  0  0  0  0
  -30.9785   43.0137    7.4325 C   0  0  0  0  0  0  0  0  0  0  0  0
  -29.9273   43.8935    7.4473 C   0  0  0  0  0  0  0  0  0  0  0  0
  -29.2492   44.2055    8.6498 N   0  0  0  0  0  0  0  0  0  0  0  0
  -29.9256   44.1418    9.9012 C   0  0  0  0  0  0  0  0  0  0  0  0
  -31.1240   43.8304    9.9051 O   0  0  0  0  0  0  0  0  0  0  0  0
  -28.2335   45.4443   10.9901 N   0  0  0  0  0  0  0  0  0  0  0  0
  -26.8526   45.3512   11.3005 C   0  0  0  0  0  0  0  0  0  0  0  0
  -26.2951   44.3314   11.8089 O   0  0  0  0  0  0  0  0  0  0  0  0
  -26.2376   46.5829   10.9423 N   0  0  0  0  0  0  0  0  0  0  0  0
  -27.1557   47.3861   10.1718 C   0  0  2  0  0  0  0  0  0  0  0  0
  -26.7703   47.3367    8.7207 C   0  0  0  0  0  0  0  0  0  0  0  0
  -27.7224   48.2549    7.9661 C   0  0  0  0  0  0  0  0  0  0  0  0
  -27.5045   49.6929    8.3245 C   0  0  0  0  0  0  0  0  0  0  0  0
  -27.2991   49.8705    9.7806 C   0  0  0  0  0  0  0  0  0  0  0  0
  -27.2670   51.1483   10.3082 C   0  0  0  0  0  0  0  0  0  0  0  0
  -27.0828   51.3908   11.6344 C   0  0  0  0  0  0  0  0  0  0  0  0
  -26.9230   50.3035   12.4733 C   0  0  0  0  0  0  0  0  0  0  0  0
  -26.9475   49.0163   11.9958 C   0  0  0  0  0  0  0  0  0  0  0  0
  -27.1379   48.7984   10.6332 C   0  0  0  0  0  0  0  0  0  0  0  0
  -28.4631   46.7495   10.4355 C   0  0  0  0  0  0  0  0  0  0  0  0
  -29.6289   47.2103   10.2345 O   0  0  0  0  0  0  0  0  0  0  0  0
  -29.5702   44.4505    6.2482 C   0  0  0  0  0  0  0  0  0  0  0  0
  -30.2115   44.1630    5.0684 C   0  0  0  0  0  0  0  0  0  0  0  0
  -31.2823   43.2605    5.0745 C   0  0  0  0  0  0  0  0  0  0  0  0
  -32.0183   42.8523    3.5288 Cl  0  0  0  0  0  0  0  0  0  0  0  0
  1  6  1  0
  9  1  2  0
  1 32  1  0
 12  2  1  0
  2 14  1  0
  4  3  1  0
  4  5  1  0
  6  4  1  1
  6  7  2  0
  6  8  2  0
 10  9  1  0
 11 10  1  0
 10 30  2  0
 11 12  1  0
 12 13  2  0
 14 15  1  0
 14 28  1  0
 15 16  2  0
 15 17  1  0
 17 18  1  0
 18 19  1  6
 18 27  1  0
 18 28  1  0
 19 20  1  0
 20 21  1  0
 21 22  1  0
 22 23  2  0
 22 27  1  0
 23 24  1  0
 24 25  2  0
 25 26  1  0
 26 27  2  0
 28 29  2  0
 30 31  1  0
 31 32  2  0
 32 33  1  0
M  END
$$$$
