
     RDKit          3D

 33 36  0  0  0  0  0  0  0  0999 V2000
  -32.0552   46.6903   13.6039 C   0  0  0  0  0  0  0  0  0  0  0  0
  -27.6975   43.9277   11.1519 C   0  0  0  0  0  0  0  0  0  0  0  0
  -32.2138   49.5585   11.7257 C   0  0  0  0  0  0  0  0  0  0  0  0
  -33.2784   48.9687   12.4491 N   0  0  0  0  0  0  0  0  0  0  0  0
  -34.5385   49.5458   12.0586 C   0  0  0  0  0  0  0  0  0  0  0  0
  -33.3023   47.2880   12.5612 S   0  0  1  0  0  6  0  0  0  0  0  0
  -33.0384   46.6852   11.1963 O   0  0  0  0  0  0  0  0  0  0  0  0
  -34.6598   46.7568   12.9773 O   0  0  0  0  0  0  0  0  0  0  0  0
  -30.9029   46.0860   13.0420 C   0  0  0  0  0  0  0  0  0  0  0  0
  -29.9121   45.5358   13.8133 C   0  0  0  0  0  0  0  0  0  0  0  0
  -28.7717   44.9385   13.2253 N   0  0  0  0  0  0  0  0  0  0  0  0
  -28.6388   44.8680   11.8093 C   0  0  0  0  0  0  0  0  0  0  0  0
  -29.3364   45.6206   11.1164 O   0  0  0  0  0  0  0  0  0  0  0  0
  -26.4201   44.5581   10.9568 N   0  0  0  0  0  0  0  0  0  0  0  0
  -25.3705   44.6829   11.9026 C   0  0  0  0  0  0  0  0  0  0  0  0
  -25.4146   44.2413   13.0909 O   0  0  0  0  0  0  0  0  0  0  0  0
  -24.2966   45.3763   11.2784 N   0  0  0  0  0  0  0  0  0  0  0  0
  -24.5385   45.4847    9.8601 C   0  0  2  0  0  0  0  0  0  0  0  0
  -23.6778   44.4957    9.1269 C   0  0  0  0  0  0  0  0  0  0  0  0
  -23.9171   44.7016    7.6372 C   0  0  0  0  0  0  0  0  0  0  0  0
  -23.3874   46.0223    7.1691 C   0  0  0  0  0  0  0  0  0  0  0  0
  -23.6956   47.1082    8.1282 C   0  0  0  0  0  0  0  0  0  0  0  0
  -23.4431   48.4195    7.7691 C   0  0  0  0  0  0  0  0  0  0  0  0
  -23.6996   49.4696    8.5955 C   0  0  0  0  0  0  0  0  0  0  0  0
  -24.2343   49.1954    9.8408 C   0  0  0  0  0  0  0  0  0  0  0  0
  -24.5021   47.9098   10.2418 C   0  0  0  0  0  0  0  0  0  0  0  0
  -24.2291   46.8545    9.3745 C   0  0  0  0  0  0  0  0  0  0  0  0
  -25.9804   45.1834    9.7405 C   0  0  0  0  0  0  0  0  0  0  0  0
  -26.7631   45.4070    8.7662 O   0  0  0  0  0  0  0  0  0  0  0  0
  -30.0815   45.5936   15.1711 C   0  0  0  0  0  0  0  0  0  0  0  0
  -31.1780   46.1686   15.7652 C   0  0  0  0  0  0  0  0  0  0  0  0
  -32.1784   46.7263   14.9594 C   0  0  0  0  0  0  0  0  0  0  0  0
  -33.5222   47.5313   15.7616 Cl  0  0  0  0  0  0  0  0  0  0  0  0
  1  6  1  0
  9  1  2  0
  1 32  1  0
 12  2  1  0
  2 14  1  0
  4  3  1  0
  4  5  1  0
  6  4  1  6
  6  7  2  0
  6  8  2  0
 10  9  1  0
 11 10  1  0
 10 30  2  0
 11 12  1  0
 12 13  2  0
 14 15  1  0
 14 28  1  0
 15 16  2  0
 15 17  1  0
 17 18  1  0
 18 19  1  6
 18 27  1  0
 18 28  1  0
 19 20  1  0
 20 21  1  0
 21 22  1  0
 22 23  2  0
 22 27  1  0
 23 24  1  0
 24 25  2  0
 25 26  1  0
 26 27  2  0
 28 29  2  0
 30 31  1  0
 31 32  2  0
 32 33  1  0
M  END
$$$$
