
     RDKit          3D

 33 36  0  0  0  0  0  0  0  0999 V2000
  -30.2316   49.3567   12.0882 C   0  0  0  0  0  0  0  0  0  0  0  0
  -25.4094   46.2904   11.4357 C   0  0  0  0  0  0  0  0  0  0  0  0
  -29.9913   50.5468    8.7219 C   0  0  0  0  0  0  0  0  0  0  0  0
  -30.9130   50.8200    9.7612 N   0  0  0  0  0  0  0  0  0  0  0  0
  -32.0819   49.9888    9.6344 C   0  0  0  0  0  0  0  0  0  0  0  0
  -30.3072   50.9122   11.3304 S   0  0  1  0  0  6  0  0  0  0  0  0
  -31.2344   51.7542   12.1831 O   0  0  0  0  0  0  0  0  0  0  0  0
  -28.9636   51.6118   11.3899 O   0  0  0  0  0  0  0  0  0  0  0  0
  -29.0502   48.5814   11.9787 C   0  0  0  0  0  0  0  0  0  0  0  0
  -28.9504   47.3174   12.4996 C   0  0  0  0  0  0  0  0  0  0  0  0
  -27.7578   46.5653   12.3757 N   0  0  0  0  0  0  0  0  0  0  0  0
  -26.6511   47.0770   11.6402 C   0  0  0  0  0  0  0  0  0  0  0  0
  -26.7406   48.2155   11.1617 O   0  0  0  0  0  0  0  0  0  0  0  0
  -25.7179   45.0221   10.8327 N   0  0  0  0  0  0  0  0  0  0  0  0
  -25.7789   43.7585   11.4740 C   0  0  0  0  0  0  0  0  0  0  0  0
  -25.5627   43.5655   12.7090 O   0  0  0  0  0  0  0  0  0  0  0  0
  -26.1183   42.7844   10.4944 N   0  0  0  0  0  0  0  0  0  0  0  0
  -26.5233   43.4355    9.2721 C   0  0  2  0  0  0  0  0  0  0  0  0
  -28.0185   43.3731    9.1416 C   0  0  0  0  0  0  0  0  0  0  0  0
  -28.3849   44.0065    7.8061 C   0  0  0  0  0  0  0  0  0  0  0  0
  -27.9104   43.1778    6.6520 C   0  0  0  0  0  0  0  0  0  0  0  0
  -26.5422   42.6566    6.8765 C   0  0  0  0  0  0  0  0  0  0  0  0
  -25.8794   42.0274    5.8388 C   0  0  0  0  0  0  0  0  0  0  0  0
  -24.6222   41.5234    5.9688 C   0  0  0  0  0  0  0  0  0  0  0  0
  -23.9977   41.6548    7.1953 C   0  0  0  0  0  0  0  0  0  0  0  0
  -24.6156   42.2717    8.2551 C   0  0  0  0  0  0  0  0  0  0  0  0
  -25.9030   42.7782    8.0927 C   0  0  0  0  0  0  0  0  0  0  0  0
  -26.0240   44.8157    9.4445 C   0  0  0  0  0  0  0  0  0  0  0  0
  -25.8645   45.7207    8.5684 O   0  0  0  0  0  0  0  0  0  0  0  0
  -30.0553   46.8240   13.1411 C   0  0  0  0  0  0  0  0  0  0  0  0
  -31.2228   47.5343   13.2754 C   0  0  0  0  0  0  0  0  0  0  0  0
  -31.3039   48.8246   12.7371 C   0  0  0  0  0  0  0  0  0  0  0  0
  -32.7861   49.7338   13.0086 Cl  0  0  0  0  0  0  0  0  0  0  0  0
  1  6  1  0
  9  1  2  0
  1 32  1  0
 12  2  1  0
  2 14  1  0
  4  3  1  0
  4  5  1  0
  6  4  1  6
  6  7  2  0
  6  8  2  0
 10  9  1  0
 11 10  1  0
 10 30  2  0
 11 12  1  0
 12 13  2  0
 14 15  1  0
 14 28  1  0
 15 16  2  0
 15 17  1  0
 17 18  1  0
 18 19  1  6
 18 27  1  0
 18 28  1  0
 19 20  1  0
 20 21  1  0
 21 22  1  0
 22 23  2  0
 22 27  1  0
 23 24  1  0
 24 25  2  0
 25 26  1  0
 26 27  2  0
 28 29  2  0
 30 31  1  0
 31 32  2  0
 32 33  1  0
M  END
$$$$
