
     RDKit          3D

 33 36  0  0  0  0  0  0  0  0999 V2000
  -31.4249   41.9755    8.0755 C   0  0  0  0  0  0  0  0  0  0  0  0
  -29.0210   45.3723   11.8967 C   0  0  0  0  0  0  0  0  0  0  0  0
  -31.2590   38.7864   10.0528 C   0  0  0  0  0  0  0  0  0  0  0  0
  -31.6660   39.2419    8.7755 N   0  0  0  0  0  0  0  0  0  0  0  0
  -32.3300   38.1904    8.0496 C   0  0  0  0  0  0  0  0  0  0  0  0
  -32.4539   40.7289    8.6974 S   0  0  1  0  0  6  0  0  0  0  0  0
  -32.8524   41.1652   10.0926 O   0  0  0  0  0  0  0  0  0  0  0  0
  -33.7508   40.6543    7.9160 O   0  0  0  0  0  0  0  0  0  0  0  0
  -30.6934   42.7922    8.9737 C   0  0  0  0  0  0  0  0  0  0  0  0
  -29.9134   43.8360    8.5480 C   0  0  0  0  0  0  0  0  0  0  0  0
  -29.1932   44.6357    9.4673 N   0  0  0  0  0  0  0  0  0  0  0  0
  -29.2017   44.3282   10.8577 C   0  0  0  0  0  0  0  0  0  0  0  0
  -29.3661   43.1488   11.1967 O   0  0  0  0  0  0  0  0  0  0  0  0
  -28.2342   46.4585   11.3787 N   0  0  0  0  0  0  0  0  0  0  0  0
  -26.8204   46.5285   11.2890 C   0  0  0  0  0  0  0  0  0  0  0  0
  -26.0279   45.6124   11.6657 O   0  0  0  0  0  0  0  0  0  0  0  0
  -26.4781   47.7837   10.7138 N   0  0  0  0  0  0  0  0  0  0  0  0
  -27.6616   48.4284   10.1984 C   0  0  2  0  0  0  0  0  0  0  0  0
  -27.6894   48.3046    8.7016 C   0  0  0  0  0  0  0  0  0  0  0  0
  -28.9144   49.0612    8.2056 C   0  0  0  0  0  0  0  0  0  0  0  0
  -28.7772   50.5373    8.4198 C   0  0  0  0  0  0  0  0  0  0  0  0
  -28.1996   50.8479    9.7480 C   0  0  0  0  0  0  0  0  0  0  0  0
  -28.1739   52.1597   10.1843 C   0  0  0  0  0  0  0  0  0  0  0  0
  -27.6601   52.5223   11.3910 C   0  0  0  0  0  0  0  0  0  0  0  0
  -27.1475   51.5253   12.2002 C   0  0  0  0  0  0  0  0  0  0  0  0
  -27.1510   50.2087   11.8101 C   0  0  0  0  0  0  0  0  0  0  0  0
  -27.6837   49.8671   10.5692 C   0  0  0  0  0  0  0  0  0  0  0  0
  -28.7605   47.6867   10.8515 C   0  0  0  0  0  0  0  0  0  0  0  0
  -29.9823   48.0115   10.9678 O   0  0  0  0  0  0  0  0  0  0  0  0
  -29.8673   44.0632    7.1982 C   0  0  0  0  0  0  0  0  0  0  0  0
  -30.5557   43.3011    6.2866 C   0  0  0  0  0  0  0  0  0  0  0  0
  -31.3460   42.2383    6.7419 C   0  0  0  0  0  0  0  0  0  0  0  0
  -32.1399   41.2325    5.5355 Cl  0  0  0  0  0  0  0  0  0  0  0  0
  1  6  1  0
  9  1  2  0
  1 32  1  0
 12  2  1  0
  2 14  1  0
  4  3  1  0
  4  5  1  0
  6  4  1  1
  6  7  2  0
  6  8  2  0
 10  9  1  0
 11 10  1  0
 10 30  2  0
 11 12  1  0
 12 13  2  0
 14 15  1  0
 14 28  1  0
 15 16  2  0
 15 17  1  0
 17 18  1  0
 18 19  1  6
 18 27  1  0
 18 28  1  0
 19 20  1  0
 20 21  1  0
 21 22  1  0
 22 23  2  0
 22 27  1  0
 23 24  1  0
 24 25  2  0
 25 26  1  0
 26 27  2  0
 28 29  2  0
 30 31  1  0
 31 32  2  0
 32 33  1  0
M  END
$$$$
