
     RDKit          3D

 33 36  0  0  0  0  0  0  0  0999 V2000
  -27.5818   49.9061    7.3078 C   0  0  0  0  0  0  0  0  0  0  0  0
  -25.6262   45.9446   10.9722 C   0  0  0  0  0  0  0  0  0  0  0  0
  -24.4557   50.7516    6.3097 C   0  0  0  0  0  0  0  0  0  0  0  0
  -25.6043   51.5612    6.1371 N   0  0  0  0  0  0  0  0  0  0  0  0
  -26.0934   51.4668    4.7861 C   0  0  0  0  0  0  0  0  0  0  0  0
  -26.8099   51.4565    7.3090 S   0  0  1  0  0  6  0  0  0  0  0  0
  -27.8956   52.4706    7.0113 O   0  0  0  0  0  0  0  0  0  0  0  0
  -26.3015   51.8097    8.6929 O   0  0  0  0  0  0  0  0  0  0  0  0
  -27.1019   48.8847    8.1652 C   0  0  0  0  0  0  0  0  0  0  0  0
  -27.6271   47.6185    8.1645 C   0  0  0  0  0  0  0  0  0  0  0  0
  -27.1284   46.6173    9.0318 N   0  0  0  0  0  0  0  0  0  0  0  0
  -26.0434   46.8947    9.9113 C   0  0  0  0  0  0  0  0  0  0  0  0
  -25.4374   47.9659    9.7756 O   0  0  0  0  0  0  0  0  0  0  0  0
  -26.6972   45.0339   11.2734 N   0  0  0  0  0  0  0  0  0  0  0  0
  -26.6588   43.6169   11.2257 C   0  0  0  0  0  0  0  0  0  0  0  0
  -25.6406   42.9339   10.8999 O   0  0  0  0  0  0  0  0  0  0  0  0
  -27.9412   43.1295   11.6017 N   0  0  0  0  0  0  0  0  0  0  0  0
  -28.7404   44.2061   12.1345 C   0  0  2  0  0  0  0  0  0  0  0  0
  -28.8014   44.0930   13.6312 C   0  0  0  0  0  0  0  0  0  0  0  0
  -29.7125   45.2048   14.1342 C   0  0  0  0  0  0  0  0  0  0  0  0
  -31.1352   44.9838   13.7208 C   0  0  0  0  0  0  0  0  0  0  0  0
  -31.2331   44.5210   12.3171 C   0  0  0  0  0  0  0  0  0  0  0  0
  -32.4757   44.4446   11.7154 C   0  0  0  0  0  0  0  0  0  0  0  0
  -32.6453   44.0291   10.4308 C   0  0  0  0  0  0  0  0  0  0  0  0
  -31.5183   43.6729    9.7135 C   0  0  0  0  0  0  0  0  0  0  0  0
  -30.2636   43.7322   10.2681 C   0  0  0  0  0  0  0  0  0  0  0  0
  -30.1205   44.1614   11.5856 C   0  0  0  0  0  0  0  0  0  0  0  0
  -28.0200   45.4152   11.6838 C   0  0  0  0  0  0  0  0  0  0  0  0
  -28.4297   46.6160   11.6372 O   0  0  0  0  0  0  0  0  0  0  0  0
  -28.6510   47.3742    7.2883 C   0  0  0  0  0  0  0  0  0  0  0  0
  -29.1528   48.3287    6.4380 C   0  0  0  0  0  0  0  0  0  0  0  0
  -28.6032   49.6166    6.4553 C   0  0  0  0  0  0  0  0  0  0  0  0
  -29.3340   50.8330    5.4142 Cl  0  0  0  0  0  0  0  0  0  0  0  0
  1  6  1  0
  9  1  2  0
  1 32  1  0
 12  2  1  0
  2 14  1  0
  4  3  1  0
  4  5  1  0
  6  4  1  6
  6  7  2  0
  6  8  2  0
 10  9  1  0
 11 10  1  0
 10 30  2  0
 11 12  1  0
 12 13  2  0
 14 15  1  0
 14 28  1  0
 15 16  2  0
 15 17  1  0
 17 18  1  0
 18 19  1  1
 18 27  1  0
 18 28  1  0
 19 20  1  0
 20 21  1  0
 21 22  1  0
 22 23  2  0
 22 27  1  0
 23 24  1  0
 24 25  2  0
 25 26  1  0
 26 27  2  0
 28 29  2  0
 30 31  1  0
 31 32  2  0
 32 33  1  0
M  END
$$$$
