
     RDKit          3D

 33 36  0  0  0  0  0  0  0  0999 V2000
  -27.5240   49.7171    7.2999 C   0  0  0  0  0  0  0  0  0  0  0  0
  -25.9514   45.0942   10.9286 C   0  0  0  0  0  0  0  0  0  0  0  0
  -25.1357   51.8523    8.4747 C   0  0  0  0  0  0  0  0  0  0  0  0
  -25.4047   51.5860    7.1104 N   0  0  0  0  0  0  0  0  0  0  0  0
  -24.4487   50.6500    6.5780 C   0  0  0  0  0  0  0  0  0  0  0  0
  -26.9997   51.2494    6.6860 S   0  0  1  0  0  6  0  0  0  0  0  0
  -27.1157   51.1637    5.1777 O   0  0  0  0  0  0  0  0  0  0  0  0
  -27.9520   52.3547    7.0981 O   0  0  0  0  0  0  0  0  0  0  0  0
  -26.8966   49.1711    8.4475 C   0  0  0  0  0  0  0  0  0  0  0  0
  -27.2208   47.9349    8.9434 C   0  0  0  0  0  0  0  0  0  0  0  0
  -26.5780   47.4139   10.0918 N   0  0  0  0  0  0  0  0  0  0  0  0
  -25.7749   46.2414   10.0039 C   0  0  0  0  0  0  0  0  0  0  0  0
  -24.9056   46.1903    9.1236 O   0  0  0  0  0  0  0  0  0  0  0  0
  -27.3160   45.0211   11.3756 N   0  0  0  0  0  0  0  0  0  0  0  0
  -28.3653   44.2531   10.8092 C   0  0  0  0  0  0  0  0  0  0  0  0
  -28.2415   43.4993    9.7964 O   0  0  0  0  0  0  0  0  0  0  0  0
  -29.5424   44.4861   11.5732 N   0  0  0  0  0  0  0  0  0  0  0  0
  -29.2119   45.2036   12.7806 C   0  0  2  0  0  0  0  0  0  0  0  0
  -29.2326   44.2584   13.9480 C   0  0  0  0  0  0  0  0  0  0  0  0
  -28.9503   45.0772   15.2006 C   0  0  0  0  0  0  0  0  0  0  0  0
  -30.0724   46.0201   15.5098 C   0  0  0  0  0  0  0  0  0  0  0  0
  -30.5840   46.6836   14.2882 C   0  0  0  0  0  0  0  0  0  0  0  0
  -31.4927   47.7186   14.4108 C   0  0  0  0  0  0  0  0  0  0  0  0
  -32.0067   48.3757   13.3360 C   0  0  0  0  0  0  0  0  0  0  0  0
  -31.5922   47.9789   12.0780 C   0  0  0  0  0  0  0  0  0  0  0  0
  -30.6919   46.9566   11.9061 C   0  0  0  0  0  0  0  0  0  0  0  0
  -30.1824   46.3019   13.0251 C   0  0  0  0  0  0  0  0  0  0  0  0
  -27.8604   45.7314   12.4993 C   0  0  0  0  0  0  0  0  0  0  0  0
  -27.2227   46.6503   13.0999 O   0  0  0  0  0  0  0  0  0  0  0  0
  -28.1910   47.2357    8.2758 C   0  0  0  0  0  0  0  0  0  0  0  0
  -28.8298   47.7199    7.1608 C   0  0  0  0  0  0  0  0  0  0  0  0
  -28.4849   48.9857    6.6708 C   0  0  0  0  0  0  0  0  0  0  0  0
  -29.3893   49.6054    5.2940 Cl  0  0  0  0  0  0  0  0  0  0  0  0
  1  6  1  0
  9  1  2  0
  1 32  1  0
 12  2  1  0
  2 14  1  0
  4  3  1  0
  4  5  1  0
  6  4  1  6
  6  7  2  0
  6  8  2  0
 10  9  1  0
 11 10  1  0
 10 30  2  0
 11 12  1  0
 12 13  2  0
 14 15  1  0
 14 28  1  0
 15 16  2  0
 15 17  1  0
 17 18  1  0
 18 19  1  1
 18 27  1  0
 18 28  1  0
 19 20  1  0
 20 21  1  0
 21 22  1  0
 22 23  2  0
 22 27  1  0
 23 24  1  0
 24 25  2  0
 25 26  1  0
 26 27  2  0
 28 29  2  0
 30 31  1  0
 31 32  2  0
 32 33  1  0
M  END
$$$$
