
     RDKit          3D

 33 36  0  0  0  0  0  0  0  0999 V2000
  -32.1068   42.6582    7.3436 C   0  0  0  0  0  0  0  0  0  0  0  0
  -28.8585   44.7214   11.4447 C   0  0  0  0  0  0  0  0  0  0  0  0
  -34.7765   44.3990    8.6247 C   0  0  0  0  0  0  0  0  0  0  0  0
  -34.8260   43.3979    7.6248 N   0  0  0  0  0  0  0  0  0  0  0  0
  -34.9109   43.9919    6.3158 C   0  0  0  0  0  0  0  0  0  0  0  0
  -33.7125   42.1385    7.7326 S   0  0  1  0  0  6  0  0  0  0  0  0
  -34.0651   41.0625    6.7258 O   0  0  0  0  0  0  0  0  0  0  0  0
  -33.7489   41.4502    9.0829 O   0  0  0  0  0  0  0  0  0  0  0  0
  -31.3742   43.4289    8.2807 C   0  0  0  0  0  0  0  0  0  0  0  0
  -30.1259   43.9250    8.0075 C   0  0  0  0  0  0  0  0  0  0  0  0
  -29.4165   44.6919    8.9624 N   0  0  0  0  0  0  0  0  0  0  0  0
  -29.8315   44.7182   10.3242 C   0  0  0  0  0  0  0  0  0  0  0  0
  -31.0455   44.7389   10.5673 O   0  0  0  0  0  0  0  0  0  0  0  0
  -27.7039   45.5051   11.0984 N   0  0  0  0  0  0  0  0  0  0  0  0
  -26.3500   45.0826   11.0901 C   0  0  0  0  0  0  0  0  0  0  0  0
  -25.9569   43.9161   11.3971 O   0  0  0  0  0  0  0  0  0  0  0  0
  -25.5479   46.1850   10.6841 N   0  0  0  0  0  0  0  0  0  0  0  0
  -26.3874   47.2484   10.1878 C   0  0  2  0  0  0  0  0  0  0  0  0
  -26.3228   47.2803    8.6873 C   0  0  0  0  0  0  0  0  0  0  0  0
  -27.1645   48.4608    8.2213 C   0  0  0  0  0  0  0  0  0  0  0  0
  -26.5484   49.7686    8.6135 C   0  0  0  0  0  0  0  0  0  0  0  0
  -26.0198   49.7333    9.9968 C   0  0  0  0  0  0  0  0  0  0  0  0
  -25.5841   50.9066   10.5845 C   0  0  0  0  0  0  0  0  0  0  0  0
  -25.0865   50.9534   11.8500 C   0  0  0  0  0  0  0  0  0  0  0  0
  -25.0213   49.7701   12.5622 C   0  0  0  0  0  0  0  0  0  0  0  0
  -25.4420   48.5803   12.0209 C   0  0  0  0  0  0  0  0  0  0  0  0
  -25.9470   48.5628   10.7228 C   0  0  0  0  0  0  0  0  0  0  0  0
  -27.7275   46.8828   10.6923 C   0  0  0  0  0  0  0  0  0  0  0  0
  -28.7688   47.6035   10.7832 O   0  0  0  0  0  0  0  0  0  0  0  0
  -29.6048   43.6424    6.7728 C   0  0  0  0  0  0  0  0  0  0  0  0
  -30.2726   42.8999    5.8302 C   0  0  0  0  0  0  0  0  0  0  0  0
  -31.5465   42.4010    6.1296 C   0  0  0  0  0  0  0  0  0  0  0  0
  -32.3296   41.3806    4.9284 Cl  0  0  0  0  0  0  0  0  0  0  0  0
  1  6  1  0
  9  1  2  0
  1 32  1  0
 12  2  1  0
  2 14  1  0
  4  3  1  0
  4  5  1  0
  6  4  1  1
  6  7  2  0
  6  8  2  0
 10  9  1  0
 11 10  1  0
 10 30  2  0
 11 12  1  0
 12 13  2  0
 14 15  1  0
 14 28  1  0
 15 16  2  0
 15 17  1  0
 17 18  1  0
 18 19  1  6
 18 27  1  0
 18 28  1  0
 19 20  1  0
 20 21  1  0
 21 22  1  0
 22 23  2  0
 22 27  1  0
 23 24  1  0
 24 25  2  0
 25 26  1  0
 26 27  2  0
 28 29  2  0
 30 31  1  0
 31 32  2  0
 32 33  1  0
M  END
$$$$
