
     RDKit          3D

 33 36  0  0  0  0  0  0  0  0999 V2000
  -32.9070   43.4262   10.7764 C   0  0  0  0  0  0  0  0  0  0  0  0
  -27.7289   44.9445   12.7699 C   0  0  0  0  0  0  0  0  0  0  0  0
  -34.1812   46.2267   12.2562 C   0  0  0  0  0  0  0  0  0  0  0  0
  -34.9389   45.1494   11.7367 N   0  0  0  0  0  0  0  0  0  0  0  0
  -35.4596   45.4765   10.4347 C   0  0  0  0  0  0  0  0  0  0  0  0
  -34.2650   43.6087   11.8357 S   0  0  1  0  0  6  0  0  0  0  0  0
  -35.2864   42.5794   11.3962 O   0  0  0  0  0  0  0  0  0  0  0  0
  -33.9005   43.2286   13.2573 O   0  0  0  0  0  0  0  0  0  0  0  0
  -31.6095   43.7616   11.2376 C   0  0  0  0  0  0  0  0  0  0  0  0
  -30.5043   43.7014   10.4289 C   0  0  0  0  0  0  0  0  0  0  0  0
  -29.2198   44.0421   10.9160 N   0  0  0  0  0  0  0  0  0  0  0  0
  -29.0567   44.5530   12.2351 C   0  0  0  0  0  0  0  0  0  0  0  0
  -30.0625   44.6691   12.9478 O   0  0  0  0  0  0  0  0  0  0  0  0
  -26.7909   45.1180   11.6941 N   0  0  0  0  0  0  0  0  0  0  0  0
  -25.9823   44.1211   11.0906 C   0  0  0  0  0  0  0  0  0  0  0  0
  -25.9743   42.8980   11.4271 O   0  0  0  0  0  0  0  0  0  0  0  0
  -25.2095   44.7408   10.0696 N   0  0  0  0  0  0  0  0  0  0  0  0
  -25.6882   46.0815    9.8348 C   0  0  2  0  0  0  0  0  0  0  0  0
  -26.4903   46.1131    8.5650 C   0  0  0  0  0  0  0  0  0  0  0  0
  -26.9078   47.5581    8.3271 C   0  0  0  0  0  0  0  0  0  0  0  0
  -25.7317   48.4280    8.0051 C   0  0  0  0  0  0  0  0  0  0  0  0
  -24.5702   48.1236    8.8725 C   0  0  0  0  0  0  0  0  0  0  0  0
  -23.4641   48.9526    8.8373 C   0  0  0  0  0  0  0  0  0  0  0  0
  -22.3607   48.7378    9.6039 C   0  0  0  0  0  0  0  0  0  0  0  0
  -22.3633   47.6414   10.4463 C   0  0  0  0  0  0  0  0  0  0  0  0
  -23.4383   46.7899   10.5158 C   0  0  0  0  0  0  0  0  0  0  0  0
  -24.5543   47.0348    9.7191 C   0  0  0  0  0  0  0  0  0  0  0  0
  -26.5073   46.3612   11.0327 C   0  0  0  0  0  0  0  0  0  0  0  0
  -26.9275   47.4774   11.4680 O   0  0  0  0  0  0  0  0  0  0  0  0
  -30.7056   43.2977    9.1357 C   0  0  0  0  0  0  0  0  0  0  0  0
  -31.9412   42.9608    8.6401 C   0  0  0  0  0  0  0  0  0  0  0  0
  -33.0575   43.0278    9.4831 C   0  0  0  0  0  0  0  0  0  0  0  0
  -34.6068   42.5027    8.8339 Cl  0  0  0  0  0  0  0  0  0  0  0  0
  1  6  1  0
  9  1  2  0
  1 32  1  0
 12  2  1  0
  2 14  1  0
  4  3  1  0
  4  5  1  0
  6  4  1  1
  6  7  2  0
  6  8  2  0
 10  9  1  0
 11 10  1  0
 10 30  2  0
 11 12  1  0
 12 13  2  0
 14 15  1  0
 14 28  1  0
 15 16  2  0
 15 17  1  0
 17 18  1  0
 18 19  1  6
 18 27  1  0
 18 28  1  0
 19 20  1  0
 20 21  1  0
 21 22  1  0
 22 23  2  0
 22 27  1  0
 23 24  1  0
 24 25  2  0
 25 26  1  0
 26 27  2  0
 28 29  2  0
 30 31  1  0
 31 32  2  0
 32 33  1  0
M  END
$$$$
