
     RDKit          3D

 31 35  0  0  0  0  0  0  0  0999 V2000
  -13.4791  -12.4424   25.0936 C   0  0  0  0  0  0  0  0  0  0  0  0
  -12.9486  -11.6719   28.5361 C   0  0  0  0  0  0  0  0  0  0  0  0
  -12.7796   -9.1976   28.7160 C   0  0  0  0  0  0  0  0  0  0  0  0
  -10.5027   -9.4970   29.5017 C   0  0  0  0  0  0  0  0  0  0  0  0
   -8.9065  -10.0213   32.9105 C   0  0  0  0  0  0  0  0  0  0  0  0
   -7.1906  -11.4655   33.7164 C   0  0  0  0  0  0  0  0  0  0  0  0
   -5.0872  -11.5852   32.3422 C   0  0  0  0  0  0  0  0  0  0  0  0
   -7.1259  -10.5878   31.4946 C   0  0  0  0  0  0  0  0  0  0  0  0
  -12.2153   -9.5197   31.1387 C   0  0  0  0  0  0  0  0  0  0  0  0
  -12.9198   -8.4443   19.6412 N   0  0  0  0  0  0  0  0  0  0  0  0
  -13.2738   -8.5154   21.0185 C   0  0  0  0  0  0  0  0  0  0  0  0
  -13.8787   -7.6199   21.7969 N   0  0  0  0  0  0  0  0  0  0  0  0
  -14.0005   -8.0581   23.0280 N   0  0  0  0  0  0  0  0  0  0  0  0
  -13.4836   -9.2775   23.1512 C   0  0  0  0  0  0  0  0  0  0  0  0
  -13.4127  -10.1342   24.3346 C   0  0  0  0  0  0  0  0  0  0  0  0
  -13.2132   -9.6874   25.6039 C   0  0  0  0  0  0  0  0  0  0  0  0
  -13.1406  -10.5960   26.6511 C   0  0  0  0  0  0  0  0  0  0  0  0
  -13.2726  -11.9383   26.3809 C   0  0  0  0  0  0  0  0  0  0  0  0
  -13.5440  -11.5093   24.0926 C   0  0  0  0  0  0  0  0  0  0  0  0
  -13.1500  -12.6239   27.5718 C   0  0  0  0  0  0  0  0  0  0  0  0
  -12.9453  -10.4471   27.9734 N   0  0  0  0  0  0  0  0  0  0  0  0
  -11.8262   -9.4120   29.8404 C   0  0  0  0  0  0  0  0  0  0  0  0
   -9.5296   -9.6965   30.4880 C   0  0  0  0  0  0  0  0  0  0  0  0
   -9.8870   -9.8097   31.8015 C   0  0  0  0  0  0  0  0  0  0  0  0
   -7.9496  -11.0310   32.5801 N   0  0  2  0  0  4  0  0  0  0  0  0
   -6.0133  -12.3049   33.2876 C   0  0  0  0  0  0  0  0  0  0  0  0
   -5.7178  -10.2769   31.9450 C   0  0  0  0  0  0  0  0  0  0  0  0
  -11.2504   -9.7156   32.0974 C   0  0  0  0  0  0  0  0  0  0  0  0
  -12.9968   -9.6227   21.8633 C   0  0  0  0  0  0  0  0  0  0  0  0
  -12.4062  -10.7611   21.5136 C   0  0  0  0  0  0  0  0  0  0  0  0
  -11.8251  -11.8660   21.1507 N   0  0  0  0  0  0  0  0  0  0  0  0
 18  1  2  0
  1 19  1  0
  2 20  2  0
 21  2  1  0
  3 21  1  0
 22  3  1  0
  4 22  2  0
 23  4  1  0
 24  5  1  0
 25  5  1  1
 25  6  1  0
  6 26  1  0
 26  7  1  0
 27  7  1  0
 25  8  1  0
  8 27  1  0
 22  9  1  0
  9 28  2  0
 11 10  1  0
 11 12  1  0
 29 11  2  0
 13 12  1  0
 14 13  2  0
 15 14  1  0
 14 29  1  0
 16 15  1  0
 15 19  2  0
 17 16  2  0
 17 18  1  0
 21 17  1  0
 18 20  1  0
 23 24  2  0
 24 28  1  0
 29 30  1  0
 30 31  3  0
M  CHG  1  25   1
M  END
$$$$
