
     RDKit          3D

 31 35  0  0  0  0  0  0  0  0999 V2000
  -23.5874  -17.5210   11.3278 C   0  0  0  0  0  0  0  0  0  0  0  0
  -24.8123  -20.8715   11.3272 C   0  0  0  0  0  0  0  0  0  0  0  0
  -22.9068  -22.3489   11.9352 C   0  0  0  0  0  0  0  0  0  0  0  0
  -23.2358  -23.0685    9.6407 C   0  0  0  0  0  0  0  0  0  0  0  0
  -20.9793  -24.5357    6.9578 C   0  0  0  0  0  0  0  0  0  0  0  0
  -19.6165  -26.2404    6.0006 C   0  0  0  0  0  0  0  0  0  0  0  0
  -20.2634  -28.6159    6.5160 C   0  0  0  0  0  0  0  0  0  0  0  0
  -21.1760  -26.7362    7.7421 C   0  0  0  0  0  0  0  0  0  0  0  0
  -21.0500  -23.2804   10.5297 C   0  0  0  0  0  0  0  0  0  0  0  0
  -16.6342  -17.5470   13.6401 N   0  0  0  0  0  0  0  0  0  0  0  0
  -17.8415  -17.3243   12.9189 C   0  0  0  0  0  0  0  0  0  0  0  0
  -18.1795  -16.3337   12.0954 N   0  0  0  0  0  0  0  0  0  0  0  0
  -19.4050  -16.4776   11.6485 N   0  0  0  0  0  0  0  0  0  0  0  0
  -19.9657  -17.5766   12.1460 C   0  0  0  0  0  0  0  0  0  0  0  0
  -21.3040  -18.1174   11.9096 C   0  0  0  0  0  0  0  0  0  0  0  0
  -21.6251  -19.4385   11.9552 C   0  0  0  0  0  0  0  0  0  0  0  0
  -22.9272  -19.8410   11.6908 C   0  0  0  0  0  0  0  0  0  0  0  0
  -23.8716  -18.8884   11.3857 C   0  0  0  0  0  0  0  0  0  0  0  0
  -22.2903  -17.1711   11.5960 C   0  0  0  0  0  0  0  0  0  0  0  0
  -25.0670  -19.5368   11.1529 C   0  0  0  0  0  0  0  0  0  0  0  0
  -23.5167  -21.0492   11.6538 N   0  0  0  0  0  0  0  0  0  0  0  0
  -22.3527  -22.9196   10.6758 C   0  0  0  0  0  0  0  0  0  0  0  0
  -22.8103  -23.5952    8.4155 C   0  0  0  0  0  0  0  0  0  0  0  0
  -21.5086  -23.9683    8.2360 C   0  0  0  0  0  0  0  0  0  0  0  0
  -20.2853  -25.7664    7.1770 N   0  0  2  0  0  4  0  0  0  0  0  0
  -19.1459  -27.6613    6.1852 C   0  0  0  0  0  0  0  0  0  0  0  0
  -21.5229  -27.8263    6.7555 C   0  0  0  0  0  0  0  0  0  0  0  0
  -20.6448  -23.7963    9.3222 C   0  0  0  0  0  0  0  0  0  0  0  0
  -18.9824  -18.1674   12.9819 C   0  0  0  0  0  0  0  0  0  0  0  0
  -19.1015  -19.2927   13.6794 C   0  0  0  0  0  0  0  0  0  0  0  0
  -19.2284  -20.3817   14.3782 N   0  0  0  0  0  0  0  0  0  0  0  0
 18  1  2  0
  1 19  1  0
  2 20  2  0
 21  2  1  0
  3 21  1  0
 22  3  1  0
  4 22  2  0
 23  4  1  0
 24  5  1  0
 25  5  1  6
 25  6  1  0
  6 26  1  0
 26  7  1  0
 27  7  1  0
 25  8  1  0
  8 27  1  0
 22  9  1  0
  9 28  2  0
 11 10  1  0
 11 12  1  0
 29 11  2  0
 13 12  1  0
 14 13  2  0
 15 14  1  0
 14 29  1  0
 16 15  1  0
 15 19  2  0
 17 16  2  0
 17 18  1  0
 21 17  1  0
 18 20  1  0
 23 24  2  0
 24 28  1  0
 29 30  1  0
 30 31  3  0
M  CHG  1  25   1
M  END
$$$$
