
     RDKit          3D

 31 35  0  0  0  0  0  0  0  0999 V2000
  -20.2721  -14.7332   15.8968 C   0  0  0  0  0  0  0  0  0  0  0  0
  -19.0834  -14.1864   19.2155 C   0  0  0  0  0  0  0  0  0  0  0  0
  -16.7714  -15.0951   19.3253 C   0  0  0  0  0  0  0  0  0  0  0  0
  -16.8221  -14.4521   21.6651 C   0  0  0  0  0  0  0  0  0  0  0  0
  -15.9237  -11.2960   23.5821 C   0  0  0  0  0  0  0  0  0  0  0  0
  -15.0383  -12.5867   25.3793 C   0  0  0  0  0  0  0  0  0  0  0  0
  -13.5597  -11.3716   27.0116 C   0  0  0  0  0  0  0  0  0  0  0  0
  -14.1731  -10.4179   24.8707 C   0  0  0  0  0  0  0  0  0  0  0  0
  -16.0585  -12.8257   20.1208 C   0  0  0  0  0  0  0  0  0  0  0  0
  -17.6461  -18.5604   10.9487 N   0  0  0  0  0  0  0  0  0  0  0  0
  -17.3649  -17.7232   12.0657 C   0  0  0  0  0  0  0  0  0  0  0  0
  -16.2092  -17.2120   12.4861 N   0  0  0  0  0  0  0  0  0  0  0  0
  -16.3662  -16.5072   13.5820 N   0  0  0  0  0  0  0  0  0  0  0  0
  -17.6402  -16.5024   13.9648 C   0  0  0  0  0  0  0  0  0  0  0  0
  -18.2549  -15.8423   15.1162 C   0  0  0  0  0  0  0  0  0  0  0  0
  -17.6647  -15.6985   16.3334 C   0  0  0  0  0  0  0  0  0  0  0  0
  -18.3531  -15.0726   17.3638 C   0  0  0  0  0  0  0  0  0  0  0  0
  -19.6267  -14.6081   17.1303 C   0  0  0  0  0  0  0  0  0  0  0  0
  -19.5545  -15.3570   14.9104 C   0  0  0  0  0  0  0  0  0  0  0  0
  -20.0940  -14.0474   18.3011 C   0  0  0  0  0  0  0  0  0  0  0  0
  -18.0324  -14.8060   18.6424 N   0  0  0  0  0  0  0  0  0  0  0  0
  -16.5341  -14.0724   20.3820 C   0  0  0  0  0  0  0  0  0  0  0  0
  -16.6312  -13.5614   22.7281 C   0  0  0  0  0  0  0  0  0  0  0  0
  -16.1557  -12.3015   22.4999 C   0  0  0  0  0  0  0  0  0  0  0  0
  -14.7667  -11.6172   24.3583 N   0  0  2  0  0  4  0  0  0  0  0  0
  -13.8868  -12.6841   26.3484 C   0  0  0  0  0  0  0  0  0  0  0  0
  -14.3715  -10.2825   26.3621 C   0  0  0  0  0  0  0  0  0  0  0  0
  -15.8756  -11.9608   21.1729 C   0  0  0  0  0  0  0  0  0  0  0  0
  -18.3352  -17.2826   13.0041 C   0  0  0  0  0  0  0  0  0  0  0  0
  -19.6386  -17.5426   12.9811 C   0  0  0  0  0  0  0  0  0  0  0  0
  -20.9130  -17.8002   12.9812 N   0  0  0  0  0  0  0  0  0  0  0  0
 18  1  2  0
  1 19  1  0
  2 20  2  0
 21  2  1  0
  3 21  1  0
 22  3  1  0
  4 22  2  0
 23  4  1  0
 24  5  1  0
 25  5  1  1
 25  6  1  0
  6 26  1  0
 26  7  1  0
 27  7  1  0
 25  8  1  0
  8 27  1  0
 22  9  1  0
  9 28  2  0
 11 10  1  0
 11 12  1  0
 29 11  2  0
 13 12  1  0
 14 13  2  0
 15 14  1  0
 14 29  1  0
 16 15  1  0
 15 19  2  0
 17 16  2  0
 17 18  1  0
 21 17  1  0
 18 20  1  0
 23 24  2  0
 24 28  1  0
 29 30  1  0
 30 31  3  0
M  CHG  1  25   1
M  END
$$$$
