
     RDKit          3D

 31 35  0  0  0  0  0  0  0  0999 V2000
  -22.1638  -16.2684   12.9665 C   0  0  0  0  0  0  0  0  0  0  0  0
  -24.6609  -18.6068   11.9552 C   0  0  0  0  0  0  0  0  0  0  0  0
  -23.5146  -20.7773   11.5574 C   0  0  0  0  0  0  0  0  0  0  0  0
  -25.3396  -20.8777    9.9604 C   0  0  0  0  0  0  0  0  0  0  0  0
  -25.5666  -21.3826    6.2006 C   0  0  0  0  0  0  0  0  0  0  0  0
  -27.0673  -20.5336    4.5554 C   0  0  0  0  0  0  0  0  0  0  0  0
  -26.8973  -18.0769    4.0426 C   0  0  0  0  0  0  0  0  0  0  0  0
  -25.8408  -19.0642    5.9864 C   0  0  0  0  0  0  0  0  0  0  0  0
  -23.1469  -21.1437    9.1035 C   0  0  0  0  0  0  0  0  0  0  0  0
  -15.6136  -17.2511   14.4494 N   0  0  0  0  0  0  0  0  0  0  0  0
  -16.7316  -17.7147   13.6994 C   0  0  0  0  0  0  0  0  0  0  0  0
  -16.7862  -18.5673   12.6776 N   0  0  0  0  0  0  0  0  0  0  0  0
  -18.0145  -18.7137   12.2394 N   0  0  0  0  0  0  0  0  0  0  0  0
  -18.8615  -17.9666   12.9422 C   0  0  0  0  0  0  0  0  0  0  0  0
  -20.3110  -17.8329   12.7993 C   0  0  0  0  0  0  0  0  0  0  0  0
  -21.1467  -18.8327   12.4088 C   0  0  0  0  0  0  0  0  0  0  0  0
  -22.5072  -18.5853   12.2853 C   0  0  0  0  0  0  0  0  0  0  0  0
  -22.9846  -17.3252   12.5621 C   0  0  0  0  0  0  0  0  0  0  0  0
  -20.8294  -16.5592   13.0747 C   0  0  0  0  0  0  0  0  0  0  0  0
  -24.3482  -17.3336   12.3527 C   0  0  0  0  0  0  0  0  0  0  0  0
  -23.5435  -19.3597   11.9177 N   0  0  0  0  0  0  0  0  0  0  0  0
  -23.9861  -20.9418   10.1540 C   0  0  0  0  0  0  0  0  0  0  0  0
  -25.8800  -21.0196    8.6769 C   0  0  0  0  0  0  0  0  0  0  0  0
  -25.0647  -21.2244    7.6003 C   0  0  0  0  0  0  0  0  0  0  0  0
  -26.4791  -20.3397    5.8487 N   0  0  2  0  0  4  0  0  0  0  0  0
  -27.7890  -19.2897    4.1009 C   0  0  0  0  0  0  0  0  0  0  0  0
  -25.5625  -18.4247    4.6463 C   0  0  0  0  0  0  0  0  0  0  0  0
  -23.6898  -21.2815    7.8486 C   0  0  0  0  0  0  0  0  0  0  0  0
  -18.0715  -17.2950   13.9115 C   0  0  0  0  0  0  0  0  0  0  0  0
  -18.5010  -16.4471   14.8408 C   0  0  0  0  0  0  0  0  0  0  0  0
  -18.9391  -15.6129   15.7367 N   0  0  0  0  0  0  0  0  0  0  0  0
 18  1  2  0
  1 19  1  0
  2 20  2  0
 21  2  1  0
  3 21  1  0
 22  3  1  0
  4 22  2  0
 23  4  1  0
 24  5  1  0
 25  5  1  6
 25  6  1  0
  6 26  1  0
 26  7  1  0
 27  7  1  0
 25  8  1  0
  8 27  1  0
 22  9  1  0
  9 28  2  0
 11 10  1  0
 11 12  1  0
 29 11  2  0
 13 12  1  0
 14 13  2  0
 15 14  1  0
 14 29  1  0
 16 15  1  0
 15 19  2  0
 17 16  2  0
 17 18  1  0
 21 17  1  0
 18 20  1  0
 23 24  2  0
 24 28  1  0
 29 30  1  0
 30 31  3  0
M  CHG  1  25   1
M  END
$$$$
