
     RDKit          3D

 31 35  0  0  0  0  0  0  0  0999 V2000
  -23.3598  -19.8961   12.3358 C   0  0  0  0  0  0  0  0  0  0  0  0
  -23.4731  -22.2622    9.6685 C   0  0  0  0  0  0  0  0  0  0  0  0
  -21.4535  -21.8852    8.2677 C   0  0  0  0  0  0  0  0  0  0  0  0
  -21.0061  -24.2509    8.5747 C   0  0  0  0  0  0  0  0  0  0  0  0
  -22.0886  -27.4227    6.7830 C   0  0  0  0  0  0  0  0  0  0  0  0
  -21.7067  -29.0108    5.0475 C   0  0  0  0  0  0  0  0  0  0  0  0
  -19.3065  -29.4501    4.4366 C   0  0  0  0  0  0  0  0  0  0  0  0
  -19.9643  -27.5592    5.8009 C   0  0  0  0  0  0  0  0  0  0  0  0
  -22.4288  -23.6514    6.7776 C   0  0  0  0  0  0  0  0  0  0  0  0
  -18.4220  -15.5955   14.1323 N   0  0  0  0  0  0  0  0  0  0  0  0
  -19.0284  -16.3087   13.0595 C   0  0  0  0  0  0  0  0  0  0  0  0
  -18.8945  -16.1567   11.7431 N   0  0  0  0  0  0  0  0  0  0  0  0
  -19.6520  -17.0007   11.0828 N   0  0  0  0  0  0  0  0  0  0  0  0
  -20.3421  -17.7728   11.9177 C   0  0  0  0  0  0  0  0  0  0  0  0
  -21.2918  -18.8427   11.6131 C   0  0  0  0  0  0  0  0  0  0  0  0
  -21.1955  -19.6847   10.5491 C   0  0  0  0  0  0  0  0  0  0  0  0
  -22.1702  -20.6521   10.3451 C   0  0  0  0  0  0  0  0  0  0  0  0
  -23.2203  -20.7389   11.2295 C   0  0  0  0  0  0  0  0  0  0  0  0
  -22.3747  -18.9577   12.4969 C   0  0  0  0  0  0  0  0  0  0  0  0
  -24.0491  -21.7564   10.8039 C   0  0  0  0  0  0  0  0  0  0  0  0
  -22.3361  -21.5911    9.3967 N   0  0  0  0  0  0  0  0  0  0  0  0
  -21.6535  -23.2970    7.8368 C   0  0  0  0  0  0  0  0  0  0  0  0
  -21.1327  -25.6065    8.2490 C   0  0  0  0  0  0  0  0  0  0  0  0
  -21.9032  -25.9960    7.1906 C   0  0  0  0  0  0  0  0  0  0  0  0
  -21.3710  -27.7239    5.5836 N   0  0  2  0  0  4  0  0  0  0  0  0
  -20.7366  -29.4120    3.9646 C   0  0  0  0  0  0  0  0  0  0  0  0
  -19.2387  -28.8839    5.8301 C   0  0  0  0  0  0  0  0  0  0  0  0
  -22.5448  -24.9853    6.4681 C   0  0  0  0  0  0  0  0  0  0  0  0
  -19.9678  -17.3608   13.2234 C   0  0  0  0  0  0  0  0  0  0  0  0
  -20.4032  -17.8655   14.3735 C   0  0  0  0  0  0  0  0  0  0  0  0
  -20.8456  -18.3438   15.4987 N   0  0  0  0  0  0  0  0  0  0  0  0
 18  1  2  0
  1 19  1  0
  2 20  2  0
 21  2  1  0
  3 21  1  0
 22  3  1  0
  4 22  2  0
 23  4  1  0
 24  5  1  0
 25  5  1  1
 25  6  1  0
  6 26  1  0
 26  7  1  0
 27  7  1  0
 25  8  1  0
  8 27  1  0
 22  9  1  0
  9 28  2  0
 11 10  1  0
 11 12  1  0
 29 11  2  0
 13 12  1  0
 14 13  2  0
 15 14  1  0
 14 29  1  0
 16 15  1  0
 15 19  2  0
 17 16  2  0
 17 18  1  0
 21 17  1  0
 18 20  1  0
 23 24  2  0
 24 28  1  0
 29 30  1  0
 30 31  3  0
M  CHG  1  25   1
M  END
$$$$
