
     RDKit          3D

 31 35  0  0  0  0  0  0  0  0999 V2000
  -14.3868   -9.3691   27.8633 C   0  0  0  0  0  0  0  0  0  0  0  0
  -14.6318   -6.8444   30.3716 C   0  0  0  0  0  0  0  0  0  0  0  0
  -12.4281   -5.6971   30.4748 C   0  0  0  0  0  0  0  0  0  0  0  0
  -13.3019   -3.6587   29.4885 C   0  0  0  0  0  0  0  0  0  0  0  0
  -12.1212   -1.3043   26.7490 C   0  0  0  0  0  0  0  0  0  0  0  0
  -12.5329    1.0378   26.5927 C   0  0  0  0  0  0  0  0  0  0  0  0
  -10.7127    2.5559   27.4351 C   0  0  0  0  0  0  0  0  0  0  0  0
  -10.7416    0.1832   27.9239 C   0  0  0  0  0  0  0  0  0  0  0  0
  -11.2481   -4.4717   28.6317 C   0  0  0  0  0  0  0  0  0  0  0  0
   -9.4181  -10.7721   23.4822 N   0  0  0  0  0  0  0  0  0  0  0  0
   -9.7412  -10.1678   24.7304 C   0  0  0  0  0  0  0  0  0  0  0  0
   -8.9458   -9.7490   25.7130 N   0  0  0  0  0  0  0  0  0  0  0  0
   -9.6378   -9.2700   26.7200 N   0  0  0  0  0  0  0  0  0  0  0  0
  -10.9433   -9.3381   26.4738 C   0  0  0  0  0  0  0  0  0  0  0  0
  -12.0636   -8.9131   27.3127 C   0  0  0  0  0  0  0  0  0  0  0  0
  -12.0075   -7.9114   28.2314 C   0  0  0  0  0  0  0  0  0  0  0  0
  -13.1300   -7.6082   28.9900 C   0  0  0  0  0  0  0  0  0  0  0  0
  -14.2831   -8.3326   28.7954 C   0  0  0  0  0  0  0  0  0  0  0  0
  -13.2547   -9.6324   27.1380 C   0  0  0  0  0  0  0  0  0  0  0  0
  -15.2367   -7.8533   29.6696 C   0  0  0  0  0  0  0  0  0  0  0  0
  -13.3580   -6.6998   29.9552 N   0  0  0  0  0  0  0  0  0  0  0  0
  -12.2957   -4.5867   29.4907 C   0  0  0  0  0  0  0  0  0  0  0  0
  -13.2671   -2.5769   28.6008 C   0  0  0  0  0  0  0  0  0  0  0  0
  -12.2295   -2.4326   27.7244 C   0  0  0  0  0  0  0  0  0  0  0  0
  -12.0618   -0.0396   27.4132 N   0  0  2  0  0  4  0  0  0  0  0  0
  -12.1905    2.3717   27.2077 C   0  0  0  0  0  0  0  0  0  0  0  0
  -10.0105    1.2549   27.1498 C   0  0  0  0  0  0  0  0  0  0  0  0
  -11.2258   -3.4054   27.7651 C   0  0  0  0  0  0  0  0  0  0  0  0
  -11.0634   -9.9164   25.1832 C   0  0  0  0  0  0  0  0  0  0  0  0
  -12.1902  -10.1656   24.5235 C   0  0  0  0  0  0  0  0  0  0  0  0
  -13.2933  -10.4299   23.8881 N   0  0  0  0  0  0  0  0  0  0  0  0
 18  1  2  0
  1 19  1  0
  2 20  2  0
 21  2  1  0
  3 21  1  0
 22  3  1  0
  4 22  2  0
 23  4  1  0
 24  5  1  0
 25  5  1  6
 25  6  1  0
  6 26  1  0
 26  7  1  0
 27  7  1  0
 25  8  1  0
  8 27  1  0
 22  9  1  0
  9 28  2  0
 11 10  1  0
 11 12  1  0
 29 11  2  0
 13 12  1  0
 14 13  2  0
 15 14  1  0
 14 29  1  0
 16 15  1  0
 15 19  2  0
 17 16  2  0
 17 18  1  0
 21 17  1  0
 18 20  1  0
 23 24  2  0
 24 28  1  0
 29 30  1  0
 30 31  3  0
M  CHG  1  25   1
M  END
$$$$
