
     RDKit          3D

 31 35  0  0  0  0  0  0  0  0999 V2000
  -22.4436  -18.0319   14.6842 C   0  0  0  0  0  0  0  0  0  0  0  0
  -24.9757  -19.7811   12.8801 C   0  0  0  0  0  0  0  0  0  0  0  0
  -24.1433  -20.0852   10.5568 C   0  0  0  0  0  0  0  0  0  0  0  0
  -26.4083  -20.3528    9.7267 C   0  0  0  0  0  0  0  0  0  0  0  0
  -28.9509  -18.0285    8.1220 C   0  0  0  0  0  0  0  0  0  0  0  0
  -30.8695  -18.7743    9.3230 C   0  0  0  0  0  0  0  0  0  0  0  0
  -32.7881  -17.1562    9.4898 C   0  0  0  0  0  0  0  0  0  0  0  0
  -30.5830  -16.4701    8.7576 C   0  0  0  0  0  0  0  0  0  0  0  0
  -25.4482  -18.1939    9.5511 C   0  0  0  0  0  0  0  0  0  0  0  0
  -16.0337  -16.7347   12.6591 N   0  0  0  0  0  0  0  0  0  0  0  0
  -17.4104  -16.8055   12.3027 C   0  0  0  0  0  0  0  0  0  0  0  0
  -18.0601  -16.2635   11.2741 N   0  0  0  0  0  0  0  0  0  0  0  0
  -19.3417  -16.5430   11.3145 N   0  0  0  0  0  0  0  0  0  0  0  0
  -19.6311  -17.2918   12.3751 C   0  0  0  0  0  0  0  0  0  0  0  0
  -20.9228  -17.8317   12.7985 C   0  0  0  0  0  0  0  0  0  0  0  0
  -21.7892  -18.4952   11.9863 C   0  0  0  0  0  0  0  0  0  0  0  0
  -23.0013  -18.9451   12.4921 C   0  0  0  0  0  0  0  0  0  0  0  0
  -23.3027  -18.7083   13.8133 C   0  0  0  0  0  0  0  0  0  0  0  0
  -21.2597  -17.6069   14.1412 C   0  0  0  0  0  0  0  0  0  0  0  0
  -24.5532  -19.2347   14.0631 C   0  0  0  0  0  0  0  0  0  0  0  0
  -24.0322  -19.6041   11.9338 N   0  0  0  0  0  0  0  0  0  0  0  0
  -25.3570  -19.4985    9.9231 C   0  0  0  0  0  0  0  0  0  0  0  0
  -27.5937  -19.8954    9.1390 C   0  0  0  0  0  0  0  0  0  0  0  0
  -27.7176  -18.5910    8.7532 C   0  0  0  0  0  0  0  0  0  0  0  0
  -29.9411  -17.7043    9.1012 N   0  0  2  0  0  4  0  0  0  0  0  0
  -32.0510  -18.3019   10.1327 C   0  0  0  0  0  0  0  0  0  0  0  0
  -32.0048  -16.6834    8.2940 C   0  0  0  0  0  0  0  0  0  0  0  0
  -26.6170  -17.7573    8.9752 C   0  0  0  0  0  0  0  0  0  0  0  0
  -18.4005  -17.4932   13.0532 C   0  0  0  0  0  0  0  0  0  0  0  0
  -18.2095  -18.1944   14.1662 C   0  0  0  0  0  0  0  0  0  0  0  0
  -18.0451  -18.8844   15.2559 N   0  0  0  0  0  0  0  0  0  0  0  0
 18  1  2  0
  1 19  1  0
  2 20  2  0
 21  2  1  0
  3 21  1  0
 22  3  1  0
  4 22  2  0
 23  4  1  0
 24  5  1  0
 25  5  1  6
 25  6  1  0
  6 26  1  0
 26  7  1  0
 27  7  1  0
 25  8  1  0
  8 27  1  0
 22  9  1  0
  9 28  2  0
 11 10  1  0
 11 12  1  0
 29 11  2  0
 13 12  1  0
 14 13  2  0
 15 14  1  0
 14 29  1  0
 16 15  1  0
 15 19  2  0
 17 16  2  0
 17 18  1  0
 21 17  1  0
 18 20  1  0
 23 24  2  0
 24 28  1  0
 29 30  1  0
 30 31  3  0
M  CHG  1  25   1
M  END
$$$$
