
     RDKit          3D

 31 35  0  0  0  0  0  0  0  0999 V2000
  -21.1525  -19.4386   10.7139 C   0  0  0  0  0  0  0  0  0  0  0  0
  -24.4551  -20.1398   11.8660 C   0  0  0  0  0  0  0  0  0  0  0  0
  -24.6346  -19.2322   14.1741 C   0  0  0  0  0  0  0  0  0  0  0  0
  -25.1605  -16.9455   14.7950 C   0  0  0  0  0  0  0  0  0  0  0  0
  -27.7511  -14.4053   13.6644 C   0  0  0  0  0  0  0  0  0  0  0  0
  -27.6278  -12.0570   14.0521 C   0  0  0  0  0  0  0  0  0  0  0  0
  -26.5528  -10.6762   12.2452 C   0  0  0  0  0  0  0  0  0  0  0  0
  -26.3626  -13.0906   12.3080 C   0  0  0  0  0  0  0  0  0  0  0  0
  -26.4989  -17.9355   13.1092 C   0  0  0  0  0  0  0  0  0  0  0  0
  -15.7500  -16.9077   13.8499 N   0  0  0  0  0  0  0  0  0  0  0  0
  -17.1653  -17.0517   13.9101 C   0  0  0  0  0  0  0  0  0  0  0  0
  -18.0414  -16.5648   14.7871 N   0  0  0  0  0  0  0  0  0  0  0  0
  -19.2645  -16.9508   14.5089 N   0  0  0  0  0  0  0  0  0  0  0  0
  -19.2839  -17.7222   13.4254 C   0  0  0  0  0  0  0  0  0  0  0  0
  -20.4244  -18.3575   12.7656 C   0  0  0  0  0  0  0  0  0  0  0  0
  -21.6435  -18.5480   13.3382 C   0  0  0  0  0  0  0  0  0  0  0  0
  -22.6489  -19.1849   12.6235 C   0  0  0  0  0  0  0  0  0  0  0  0
  -22.3888  -19.6131   11.3423 C   0  0  0  0  0  0  0  0  0  0  0  0
  -20.1915  -18.8053   11.4572 C   0  0  0  0  0  0  0  0  0  0  0  0
  -23.5297  -20.2201   10.8591 C   0  0  0  0  0  0  0  0  0  0  0  0
  -23.9170  -19.5114   12.9302 N   0  0  0  0  0  0  0  0  0  0  0  0
  -25.4742  -18.0142   13.9994 C   0  0  0  0  0  0  0  0  0  0  0  0
  -25.8911  -15.7549   14.7039 C   0  0  0  0  0  0  0  0  0  0  0  0
  -26.9270  -15.6432   13.8207 C   0  0  0  0  0  0  0  0  0  0  0  0
  -26.9340  -13.2331   13.6143 N   0  0  2  0  0  4  0  0  0  0  0  0
  -26.8429  -10.8135   13.7171 C   0  0  0  0  0  0  0  0  0  0  0  0
  -26.9770  -11.9402   11.5456 C   0  0  0  0  0  0  0  0  0  0  0  0
  -27.2084  -16.7613   13.0296 C   0  0  0  0  0  0  0  0  0  0  0  0
  -17.9349  -17.8171   12.9945 C   0  0  0  0  0  0  0  0  0  0  0  0
  -17.4811  -18.4832   11.9374 C   0  0  0  0  0  0  0  0  0  0  0  0
  -17.0494  -19.1528   10.9100 N   0  0  0  0  0  0  0  0  0  0  0  0
 18  1  2  0
  1 19  1  0
  2 20  2  0
 21  2  1  0
  3 21  1  0
 22  3  1  0
  4 22  2  0
 23  4  1  0
 24  5  1  0
 25  5  1  6
 25  6  1  0
  6 26  1  0
 26  7  1  0
 27  7  1  0
 25  8  1  0
  8 27  1  0
 22  9  1  0
  9 28  2  0
 11 10  1  0
 11 12  1  0
 29 11  2  0
 13 12  1  0
 14 13  2  0
 15 14  1  0
 14 29  1  0
 16 15  1  0
 15 19  2  0
 17 16  2  0
 17 18  1  0
 21 17  1  0
 18 20  1  0
 23 24  2  0
 24 28  1  0
 29 30  1  0
 30 31  3  0
M  CHG  1  25   1
M  END
$$$$
