
     RDKit          3D

 31 35  0  0  0  0  0  0  0  0999 V2000
  -15.2401  -10.5094   26.3950 C   0  0  0  0  0  0  0  0  0  0  0  0
  -13.6269  -11.0583   29.5291 C   0  0  0  0  0  0  0  0  0  0  0  0
  -11.1782  -10.8838   29.1338 C   0  0  0  0  0  0  0  0  0  0  0  0
  -12.0151  -11.5557   31.3108 C   0  0  0  0  0  0  0  0  0  0  0  0
  -10.8662  -14.0236   33.9626 C   0  0  0  0  0  0  0  0  0  0  0  0
   -9.5739  -12.5317   35.2982 C   0  0  0  0  0  0  0  0  0  0  0  0
   -9.6057  -12.9341   37.7809 C   0  0  0  0  0  0  0  0  0  0  0  0
  -11.1928  -13.9873   36.2838 C   0  0  0  0  0  0  0  0  0  0  0  0
  -10.0311  -12.6053   30.5523 C   0  0  0  0  0  0  0  0  0  0  0  0
  -12.8729   -9.3457   20.2061 N   0  0  0  0  0  0  0  0  0  0  0  0
  -12.5001   -9.5726   21.5614 C   0  0  0  0  0  0  0  0  0  0  0  0
  -11.2928   -9.6827   22.1130 N   0  0  0  0  0  0  0  0  0  0  0  0
  -11.3732   -9.9203   23.4011 N   0  0  0  0  0  0  0  0  0  0  0  0
  -12.6425   -9.9841   23.7938 C   0  0  0  0  0  0  0  0  0  0  0  0
  -13.1834  -10.2206   25.1321 C   0  0  0  0  0  0  0  0  0  0  0  0
  -12.4313  -10.4039   26.2507 C   0  0  0  0  0  0  0  0  0  0  0  0
  -13.0537  -10.6441   27.4681 C   0  0  0  0  0  0  0  0  0  0  0  0
  -14.4276  -10.6923   27.5177 C   0  0  0  0  0  0  0  0  0  0  0  0
  -14.5822  -10.2751   25.2163 C   0  0  0  0  0  0  0  0  0  0  0  0
  -14.7952  -10.9561   28.8210 C   0  0  0  0  0  0  0  0  0  0  0  0
  -12.5770  -10.8672   28.7057 N   0  0  0  0  0  0  0  0  0  0  0  0
  -11.0448  -11.7199   30.3595 C   0  0  0  0  0  0  0  0  0  0  0  0
  -11.9776  -12.2974   32.4975 C   0  0  0  0  0  0  0  0  0  0  0  0
  -10.9726  -13.1945   32.7227 C   0  0  0  0  0  0  0  0  0  0  0  0
  -10.8273  -13.2094   35.1372 N   0  0  2  0  0  4  0  0  0  0  0  0
   -9.4647  -11.9226   36.6736 C   0  0  0  0  0  0  0  0  0  0  0  0
  -10.0097  -14.2561   37.1840 C   0  0  0  0  0  0  0  0  0  0  0  0
  -10.0056  -13.3271   31.7214 C   0  0  0  0  0  0  0  0  0  0  0  0
  -13.4195   -9.7610   22.6271 C   0  0  0  0  0  0  0  0  0  0  0  0
  -14.7459   -9.7261   22.5478 C   0  0  0  0  0  0  0  0  0  0  0  0
  -16.0445   -9.7076   22.4868 N   0  0  0  0  0  0  0  0  0  0  0  0
 18  1  2  0
  1 19  1  0
  2 20  2  0
 21  2  1  0
  3 21  1  0
 22  3  1  0
  4 22  2  0
 23  4  1  0
 24  5  1  0
 25  5  1  6
 25  6  1  0
  6 26  1  0
 26  7  1  0
 27  7  1  0
 25  8  1  0
  8 27  1  0
 22  9  1  0
  9 28  2  0
 11 10  1  0
 11 12  1  0
 29 11  2  0
 13 12  1  0
 14 13  2  0
 15 14  1  0
 14 29  1  0
 16 15  1  0
 15 19  2  0
 17 16  2  0
 17 18  1  0
 21 17  1  0
 18 20  1  0
 23 24  2  0
 24 28  1  0
 29 30  1  0
 30 31  3  0
M  CHG  1  25   1
M  END
$$$$
