
     RDKit          3D

 31 35  0  0  0  0  0  0  0  0999 V2000
  -21.4045  -16.5175   13.4236 C   0  0  0  0  0  0  0  0  0  0  0  0
  -23.0357  -19.3608   12.0160 C   0  0  0  0  0  0  0  0  0  0  0  0
  -21.3240  -21.1501   11.7886 C   0  0  0  0  0  0  0  0  0  0  0  0
  -23.1863  -22.7040   11.6979 C   0  0  0  0  0  0  0  0  0  0  0  0
  -25.5272  -23.9016    8.9542 C   0  0  0  0  0  0  0  0  0  0  0  0
  -26.0556  -25.0653    6.9427 C   0  0  0  0  0  0  0  0  0  0  0  0
  -24.6905  -27.1178    6.4418 C   0  0  0  0  0  0  0  0  0  0  0  0
  -24.0367  -25.5171    8.1389 C   0  0  0  0  0  0  0  0  0  0  0  0
  -22.5912  -21.6218    9.6761 C   0  0  0  0  0  0  0  0  0  0  0  0
  -15.1188  -15.8242   15.8650 N   0  0  0  0  0  0  0  0  0  0  0  0
  -15.9560  -16.5506   14.9712 C   0  0  0  0  0  0  0  0  0  0  0  0
  -15.6378  -17.3894   13.9870 N   0  0  0  0  0  0  0  0  0  0  0  0
  -16.7076  -17.8360   13.3719 N   0  0  0  0  0  0  0  0  0  0  0  0
  -17.8119  -17.3231   13.9073 C   0  0  0  0  0  0  0  0  0  0  0  0
  -19.2086  -17.5535   13.5391 C   0  0  0  0  0  0  0  0  0  0  0  0
  -19.6909  -18.7125   13.0152 C   0  0  0  0  0  0  0  0  0  0  0  0
  -21.0347  -18.8114   12.6810 C   0  0  0  0  0  0  0  0  0  0  0  0
  -21.8558  -17.7272   12.8878 C   0  0  0  0  0  0  0  0  0  0  0  0
  -20.0721  -16.4665   13.7383 C   0  0  0  0  0  0  0  0  0  0  0  0
  -23.1240  -18.0701   12.4665 C   0  0  0  0  0  0  0  0  0  0  0  0
  -21.7698  -19.8044   12.1496 N   0  0  0  0  0  0  0  0  0  0  0  0
  -22.3911  -21.8321   11.0044 C   0  0  0  0  0  0  0  0  0  0  0  0
  -24.2179  -23.3928   11.0491 C   0  0  0  0  0  0  0  0  0  0  0  0
  -24.4449  -23.2050    9.7154 C   0  0  0  0  0  0  0  0  0  0  0  0
  -25.0177  -24.5366    7.7789 N   0  0  2  0  0  4  0  0  0  0  0  0
  -25.4819  -25.9665    5.8781 C   0  0  0  0  0  0  0  0  0  0  0  0
  -24.5421  -26.9250    7.9277 C   0  0  0  0  0  0  0  0  0  0  0  0
  -23.6070  -22.3042    9.0507 C   0  0  0  0  0  0  0  0  0  0  0  0
  -17.3741  -16.4768   14.9593 C   0  0  0  0  0  0  0  0  0  0  0  0
  -18.1396  -15.7627   15.7784 C   0  0  0  0  0  0  0  0  0  0  0  0
  -18.8973  -15.0534   16.5616 N   0  0  0  0  0  0  0  0  0  0  0  0
 18  1  2  0
  1 19  1  0
  2 20  2  0
 21  2  1  0
  3 21  1  0
 22  3  1  0
  4 22  2  0
 23  4  1  0
 24  5  1  0
 25  5  1  1
 25  6  1  0
  6 26  1  0
 26  7  1  0
 27  7  1  0
 25  8  1  0
  8 27  1  0
 22  9  1  0
  9 28  2  0
 11 10  1  0
 11 12  1  0
 29 11  2  0
 13 12  1  0
 14 13  2  0
 15 14  1  0
 14 29  1  0
 16 15  1  0
 15 19  2  0
 17 16  2  0
 17 18  1  0
 21 17  1  0
 18 20  1  0
 23 24  2  0
 24 28  1  0
 29 30  1  0
 30 31  3  0
M  CHG  1  25   1
M  END
$$$$
