
     RDKit          3D

 31 35  0  0  0  0  0  0  0  0999 V2000
  -14.3572   -9.7169   28.0702 C   0  0  0  0  0  0  0  0  0  0  0  0
  -12.4471   -8.0849   30.6028 C   0  0  0  0  0  0  0  0  0  0  0  0
  -10.3323   -7.3157   29.5449 C   0  0  0  0  0  0  0  0  0  0  0  0
   -9.4040   -5.3187   28.5244 C   0  0  0  0  0  0  0  0  0  0  0  0
  -10.7361   -1.8367   27.7870 C   0  0  0  0  0  0  0  0  0  0  0  0
  -10.6790    0.4407   28.4870 C   0  0  0  0  0  0  0  0  0  0  0  0
   -8.5589    1.2222   29.5922 C   0  0  0  0  0  0  0  0  0  0  0  0
   -9.0394   -1.1262   29.2405 C   0  0  0  0  0  0  0  0  0  0  0  0
  -11.6471   -5.1965   29.2772 C   0  0  0  0  0  0  0  0  0  0  0  0
  -13.0074  -11.2419   21.6558 N   0  0  0  0  0  0  0  0  0  0  0  0
  -12.5535  -10.5120   22.7910 C   0  0  0  0  0  0  0  0  0  0  0  0
  -11.4863   -9.7288   22.9378 N   0  0  0  0  0  0  0  0  0  0  0  0
  -11.4019   -9.2560   24.1591 N   0  0  0  0  0  0  0  0  0  0  0  0
  -12.4099   -9.6940   24.9084 C   0  0  0  0  0  0  0  0  0  0  0  0
  -12.7061   -9.4115   26.3126 C   0  0  0  0  0  0  0  0  0  0  0  0
  -11.8701   -8.7597   27.1651 C   0  0  0  0  0  0  0  0  0  0  0  0
  -12.2470   -8.5667   28.4872 C   0  0  0  0  0  0  0  0  0  0  0  0
  -13.4665   -9.0425   28.9102 C   0  0  0  0  0  0  0  0  0  0  0  0
  -13.9431   -9.8838   26.7750 C   0  0  0  0  0  0  0  0  0  0  0  0
  -13.5968   -8.7410   30.2502 C   0  0  0  0  0  0  0  0  0  0  0  0
  -11.6350   -7.9812   29.5319 N   0  0  0  0  0  0  0  0  0  0  0  0
  -10.4950   -5.8994   29.1127 C   0  0  0  0  0  0  0  0  0  0  0  0
   -9.4586   -3.9913   28.0833 C   0  0  0  0  0  0  0  0  0  0  0  0
  -10.6005   -3.2572   28.2342 C   0  0  0  0  0  0  0  0  0  0  0  0
  -10.3979   -0.9222   28.8328 N   0  0  2  0  0  4  0  0  0  0  0  0
  -10.0520    1.3876   29.4794 C   0  0  0  0  0  0  0  0  0  0  0  0
   -8.1428    0.0086   28.8041 C   0  0  0  0  0  0  0  0  0  0  0  0
  -11.6879   -3.8943   28.8401 C   0  0  0  0  0  0  0  0  0  0  0  0
  -13.1932  -10.5181   24.0587 C   0  0  0  0  0  0  0  0  0  0  0  0
  -14.3103  -11.1619   24.3821 C   0  0  0  0  0  0  0  0  0  0  0  0
  -15.3909  -11.8106   24.7014 N   0  0  0  0  0  0  0  0  0  0  0  0
 18  1  2  0
  1 19  1  0
  2 20  2  0
 21  2  1  0
  3 21  1  0
 22  3  1  0
  4 22  2  0
 23  4  1  0
 24  5  1  0
 25  5  1  6
 25  6  1  0
  6 26  1  0
 26  7  1  0
 27  7  1  0
 25  8  1  0
  8 27  1  0
 22  9  1  0
  9 28  2  0
 11 10  1  0
 11 12  1  0
 29 11  2  0
 13 12  1  0
 14 13  2  0
 15 14  1  0
 14 29  1  0
 16 15  1  0
 15 19  2  0
 17 16  2  0
 17 18  1  0
 21 17  1  0
 18 20  1  0
 23 24  2  0
 24 28  1  0
 29 30  1  0
 30 31  3  0
M  CHG  1  25   1
M  END
$$$$
