
     RDKit          3D

 31 35  0  0  0  0  0  0  0  0999 V2000
  -14.1156  -12.5768   25.1597 C   0  0  0  0  0  0  0  0  0  0  0  0
  -13.0316  -12.3322   28.5496 C   0  0  0  0  0  0  0  0  0  0  0  0
  -12.0196  -10.0788   28.8349 C   0  0  0  0  0  0  0  0  0  0  0  0
  -10.5190  -11.5558   30.0422 C   0  0  0  0  0  0  0  0  0  0  0  0
   -9.9858  -12.3962   33.7099 C   0  0  0  0  0  0  0  0  0  0  0  0
   -8.0065  -13.0043   34.8898 C   0  0  0  0  0  0  0  0  0  0  0  0
   -6.5313  -11.1160   35.6550 C   0  0  0  0  0  0  0  0  0  0  0  0
   -8.3109  -10.7901   34.0437 C   0  0  0  0  0  0  0  0  0  0  0  0
  -12.0539  -10.2950   31.3335 C   0  0  0  0  0  0  0  0  0  0  0  0
  -12.8194   -8.5259   19.8834 N   0  0  0  0  0  0  0  0  0  0  0  0
  -13.0105   -8.5953   21.2927 C   0  0  0  0  0  0  0  0  0  0  0  0
  -13.1478   -7.6205   22.1897 N   0  0  0  0  0  0  0  0  0  0  0  0
  -13.2769   -8.1002   23.4044 N   0  0  0  0  0  0  0  0  0  0  0  0
  -13.2342   -9.4297   23.3968 C   0  0  0  0  0  0  0  0  0  0  0  0
  -13.3451  -10.3626   24.5178 C   0  0  0  0  0  0  0  0  0  0  0  0
  -12.8868  -10.1209   25.7755 C   0  0  0  0  0  0  0  0  0  0  0  0
  -13.0265  -11.0911   26.7586 C   0  0  0  0  0  0  0  0  0  0  0  0
  -13.6296  -12.2851   26.4374 C   0  0  0  0  0  0  0  0  0  0  0  0
  -13.9560  -11.5901   24.2228 C   0  0  0  0  0  0  0  0  0  0  0  0
  -13.6335  -13.0751   27.5685 C   0  0  0  0  0  0  0  0  0  0  0  0
  -12.6678  -11.1325   28.0541 N   0  0  0  0  0  0  0  0  0  0  0  0
  -11.5366  -10.6442   30.1256 C   0  0  0  0  0  0  0  0  0  0  0  0
   -9.9957  -12.1427   31.2004 C   0  0  0  0  0  0  0  0  0  0  0  0
  -10.4934  -11.8144   32.4293 C   0  0  0  0  0  0  0  0  0  0  0  0
   -8.5797  -12.1857   33.8615 N   0  0  2  0  0  4  0  0  0  0  0  0
   -6.6040  -12.5551   35.2154 C   0  0  0  0  0  0  0  0  0  0  0  0
   -7.8809  -10.4781   35.4579 C   0  0  0  0  0  0  0  0  0  0  0  0
  -11.5316  -10.8783   32.4629 C   0  0  0  0  0  0  0  0  0  0  0  0
  -13.0632   -9.8029   22.0380 C   0  0  0  0  0  0  0  0  0  0  0  0
  -12.9782  -11.0387   21.5559 C   0  0  0  0  0  0  0  0  0  0  0  0
  -12.9176  -12.2492   21.0851 N   0  0  0  0  0  0  0  0  0  0  0  0
 18  1  2  0
  1 19  1  0
  2 20  2  0
 21  2  1  0
  3 21  1  0
 22  3  1  0
  4 22  2  0
 23  4  1  0
 24  5  1  0
 25  5  1  1
 25  6  1  0
  6 26  1  0
 26  7  1  0
 27  7  1  0
 25  8  1  0
  8 27  1  0
 22  9  1  0
  9 28  2  0
 11 10  1  0
 11 12  1  0
 29 11  2  0
 13 12  1  0
 14 13  2  0
 15 14  1  0
 14 29  1  0
 16 15  1  0
 15 19  2  0
 17 16  2  0
 17 18  1  0
 21 17  1  0
 18 20  1  0
 23 24  2  0
 24 28  1  0
 29 30  1  0
 30 31  3  0
M  CHG  1  25   1
M  END
$$$$
