
     RDKit          3D

 11 11  0  0  0  0  0  0  0  0999 V2000
  -22.8208   14.4671  -13.7184 C   0  0  0  0  0  0  0  0  0  0  0  0
  -22.6870   15.6574  -14.4384 C   0  0  0  0  0  0  0  0  0  0  0  0
  -22.7902   16.8828  -13.8025 C   0  0  0  0  0  0  0  0  0  0  0  0
  -23.0274   16.9180  -12.4456 C   0  0  0  0  0  0  0  0  0  0  0  0
  -23.1591   15.7489  -11.7368 C   0  0  0  0  0  0  0  0  0  0  0  0
  -22.4086   12.1512  -13.7152 O   0  0  0  0  0  0  0  0  0  0  0  0
  -23.0575   14.5104  -12.3636 C   0  0  0  0  0  0  0  0  0  0  0  0
  -22.7113   13.1822  -14.3921 C   0  0  0  0  0  0  0  0  0  0  0  0
  -22.5775   18.1799  -15.8813 C   0  0  0  0  0  0  0  0  0  0  0  0
  -22.6605   18.0625  -14.4992 O   0  0  0  0  0  0  0  0  0  0  0  0
  -23.1363   18.1504  -11.7771 O   0  0  0  0  0  0  0  0  0  0  0  0
  1  2  2  0
  1  7  1  0
  1  8  1  0
  2  3  1  0
  3  4  2  0
  3 10  1  0
  4  5  1  0
  4 11  1  0
  5  7  2  0
  8  6  2  0
 10  9  1  0
M  END
$$$$
