
     RDKit          3D

 11 11  0  0  0  0  0  0  0  0999 V2000
  -22.4410   14.7995  -12.5381 C   0  0  0  0  0  0  0  0  0  0  0  0
  -22.3906   15.7379  -13.5726 C   0  0  0  0  0  0  0  0  0  0  0  0
  -22.5201   17.0903  -13.3062 C   0  0  0  0  0  0  0  0  0  0  0  0
  -22.7001   17.5047  -12.0045 C   0  0  0  0  0  0  0  0  0  0  0  0
  -22.7498   16.5836  -10.9868 C   0  0  0  0  0  0  0  0  0  0  0  0
  -22.1222   13.0035  -14.0232 O   0  0  0  0  0  0  0  0  0  0  0  0
  -22.6210   15.2212  -11.2407 C   0  0  0  0  0  0  0  0  0  0  0  0
  -22.3043   13.3796  -12.8240 C   0  0  0  0  0  0  0  0  0  0  0  0
  -22.0968   17.7767  -15.6298 C   0  0  0  0  0  0  0  0  0  0  0  0
  -22.4724   18.0250  -14.3152 O   0  0  0  0  0  0  0  0  0  0  0  0
  -22.8341   18.8730  -11.7086 O   0  0  0  0  0  0  0  0  0  0  0  0
  1  2  2  0
  1  7  1  0
  1  8  1  0
  2  3  1  0
  3  4  2  0
  3 10  1  0
  4  5  1  0
  4 11  1  0
  5  7  2  0
  8  6  2  0
 10  9  1  0
M  END
$$$$
