
     RDKit          3D

 11 11  0  0  0  0  0  0  0  0999 V2000
  -22.9344   16.5813  -12.2254 C   0  0  0  0  0  0  0  0  0  0  0  0
  -22.7671   16.5069  -13.6109 C   0  0  0  0  0  0  0  0  0  0  0  0
  -22.7319   15.2809  -14.2532 C   0  0  0  0  0  0  0  0  0  0  0  0
  -22.8642   14.1285  -13.5094 C   0  0  0  0  0  0  0  0  0  0  0  0
  -23.0286   14.2002  -12.1477 C   0  0  0  0  0  0  0  0  0  0  0  0
  -23.5310   17.9664  -10.4202 O   0  0  0  0  0  0  0  0  0  0  0  0
  -23.0657   15.4260  -11.4895 C   0  0  0  0  0  0  0  0  0  0  0  0
  -22.9705   17.8724  -11.5559 C   0  0  0  0  0  0  0  0  0  0  0  0
  -22.0811   16.2022  -16.4388 C   0  0  0  0  0  0  0  0  0  0  0  0
  -22.5678   15.1931  -15.6167 O   0  0  0  0  0  0  0  0  0  0  0  0
  -22.8317   12.8714  -14.1389 O   0  0  0  0  0  0  0  0  0  0  0  0
  1  2  2  0
  1  7  1  0
  1  8  1  0
  2  3  1  0
  3  4  2  0
  3 10  1  0
  4  5  1  0
  4 11  1  0
  5  7  2  0
  8  6  2  0
 10  9  1  0
M  END
$$$$
