
     RDKit          3D

 11 11  0  0  0  0  0  0  0  0999 V2000
  -22.5247   14.5760  -12.7385 C   0  0  0  0  0  0  0  0  0  0  0  0
  -22.3081   15.4452  -13.8113 C   0  0  0  0  0  0  0  0  0  0  0  0
  -22.4198   16.8150  -13.6440 C   0  0  0  0  0  0  0  0  0  0  0  0
  -22.7483   17.3159  -12.4031 C   0  0  0  0  0  0  0  0  0  0  0  0
  -22.9613   16.4629  -11.3479 C   0  0  0  0  0  0  0  0  0  0  0  0
  -22.2611   12.6705  -14.0923 O   0  0  0  0  0  0  0  0  0  0  0  0
  -22.8523   15.0839  -11.5024 C   0  0  0  0  0  0  0  0  0  0  0  0
  -22.4059   13.1374  -12.9203 C   0  0  0  0  0  0  0  0  0  0  0  0
  -22.4409   17.4010  -16.0325 C   0  0  0  0  0  0  0  0  0  0  0  0
  -22.2093   17.6822  -14.6916 O   0  0  0  0  0  0  0  0  0  0  0  0
  -22.8676   18.7035  -12.2081 O   0  0  0  0  0  0  0  0  0  0  0  0
  1  2  2  0
  1  7  1  0
  1  8  1  0
  2  3  1  0
  3  4  2  0
  3 10  1  0
  4  5  1  0
  4 11  1  0
  5  7  2  0
  8  6  2  0
 10  9  1  0
M  END
$$$$
