
     RDKit          3D

 11 11  0  0  0  0  0  0  0  0999 V2000
  -22.7178   16.4022  -12.3533 C   0  0  0  0  0  0  0  0  0  0  0  0
  -22.4140   16.3981  -13.7174 C   0  0  0  0  0  0  0  0  0  0  0  0
  -22.3022   15.2060  -14.4124 C   0  0  0  0  0  0  0  0  0  0  0  0
  -22.4944   14.0171  -13.7428 C   0  0  0  0  0  0  0  0  0  0  0  0
  -22.7930   14.0196  -12.4022 C   0  0  0  0  0  0  0  0  0  0  0  0
  -23.3584   17.6599  -10.4715 O   0  0  0  0  0  0  0  0  0  0  0  0
  -22.9083   15.2109  -11.6916 C   0  0  0  0  0  0  0  0  0  0  0  0
  -22.8340   17.6581  -11.6281 C   0  0  0  0  0  0  0  0  0  0  0  0
  -22.6806   14.4561  -16.7241 C   0  0  0  0  0  0  0  0  0  0  0  0
  -22.0036   15.1873  -15.7557 O   0  0  0  0  0  0  0  0  0  0  0  0
  -22.3862   12.7931  -14.4269 O   0  0  0  0  0  0  0  0  0  0  0  0
  1  2  2  0
  1  7  1  0
  1  8  1  0
  2  3  1  0
  3  4  2  0
  3 10  1  0
  4  5  1  0
  4 11  1  0
  5  7  2  0
  8  6  2  0
 10  9  1  0
M  END
$$$$
