
     RDKit          3D

 11 11  0  0  0  0  0  0  0  0999 V2000
  -22.8440   17.4836  -11.5352 C   0  0  0  0  0  0  0  0  0  0  0  0
  -22.7515   17.8820  -12.8715 C   0  0  0  0  0  0  0  0  0  0  0  0
  -22.7669   16.9450  -13.8905 C   0  0  0  0  0  0  0  0  0  0  0  0
  -22.8748   15.6085  -13.5730 C   0  0  0  0  0  0  0  0  0  0  0  0
  -22.9657   15.2155  -12.2601 C   0  0  0  0  0  0  0  0  0  0  0  0
  -23.4432   18.2270   -9.3854 O   0  0  0  0  0  0  0  0  0  0  0  0
  -22.9515   16.1471  -11.2261 C   0  0  0  0  0  0  0  0  0  0  0  0
  -22.8274   18.4728  -10.4685 C   0  0  0  0  0  0  0  0  0  0  0  0
  -22.0607   18.4770  -15.6803 C   0  0  0  0  0  0  0  0  0  0  0  0
  -22.6766   17.3234  -15.2106 O   0  0  0  0  0  0  0  0  0  0  0  0
  -22.8925   14.6377  -14.5904 O   0  0  0  0  0  0  0  0  0  0  0  0
  1  2  2  0
  1  7  1  0
  1  8  1  0
  2  3  1  0
  3  4  2  0
  3 10  1  0
  4  5  1  0
  4 11  1  0
  5  7  2  0
  8  6  2  0
 10  9  1  0
M  END
$$$$
