
     RDKit          3D

 11 11  0  0  0  0  0  0  0  0999 V2000
  -22.8175   14.6002  -13.5184 C   0  0  0  0  0  0  0  0  0  0  0  0
  -22.7971   15.7812  -14.2655 C   0  0  0  0  0  0  0  0  0  0  0  0
  -22.8763   17.0138  -13.6402 C   0  0  0  0  0  0  0  0  0  0  0  0
  -22.9760   17.0656  -12.2669 C   0  0  0  0  0  0  0  0  0  0  0  0
  -22.9961   15.9058  -11.5314 C   0  0  0  0  0  0  0  0  0  0  0  0
  -21.8881   12.4541  -13.7704 O   0  0  0  0  0  0  0  0  0  0  0  0
  -22.9173   14.6602  -12.1474 C   0  0  0  0  0  0  0  0  0  0  0  0
  -22.7340   13.3077  -14.1810 C   0  0  0  0  0  0  0  0  0  0  0  0
  -22.4125   18.3181  -15.6732 C   0  0  0  0  0  0  0  0  0  0  0  0
  -22.8573   18.1844  -14.3636 O   0  0  0  0  0  0  0  0  0  0  0  0
  -23.0577   18.3057  -11.6087 O   0  0  0  0  0  0  0  0  0  0  0  0
  1  2  2  0
  1  7  1  0
  1  8  1  0
  2  3  1  0
  3  4  2  0
  3 10  1  0
  4  5  1  0
  4 11  1  0
  5  7  2  0
  8  6  2  0
 10  9  1  0
M  END
$$$$
