
     RDKit          3D

 11 11  0  0  0  0  0  0  0  0999 V2000
  -23.0491   16.8473  -12.0171 C   0  0  0  0  0  0  0  0  0  0  0  0
  -22.8405   16.8375  -13.3990 C   0  0  0  0  0  0  0  0  0  0  0  0
  -22.8025   15.6436  -14.0990 C   0  0  0  0  0  0  0  0  0  0  0  0
  -22.9731   14.4587  -13.4166 C   0  0  0  0  0  0  0  0  0  0  0  0
  -23.1781   14.4669  -12.0585 C   0  0  0  0  0  0  0  0  0  0  0  0
  -23.5399   18.1190  -10.1001 O   0  0  0  0  0  0  0  0  0  0  0  0
  -23.2186   15.6599  -11.3428 C   0  0  0  0  0  0  0  0  0  0  0  0
  -23.0881   18.1050  -11.2868 C   0  0  0  0  0  0  0  0  0  0  0  0
  -22.5518   16.7326  -16.2899 C   0  0  0  0  0  0  0  0  0  0  0  0
  -22.5980   15.6194  -15.4596 O   0  0  0  0  0  0  0  0  0  0  0  0
  -22.9385   13.2331  -14.1054 O   0  0  0  0  0  0  0  0  0  0  0  0
  1  2  2  0
  1  7  1  0
  1  8  1  0
  2  3  1  0
  3  4  2  0
  3 10  1  0
  4  5  1  0
  4 11  1  0
  5  7  2  0
  8  6  2  0
 10  9  1  0
M  END
$$$$
