
     RDKit          3D

 11 11  0  0  0  0  0  0  0  0999 V2000
  -22.8507   16.6918  -11.2938 C   0  0  0  0  0  0  0  0  0  0  0  0
  -22.6561   17.3182  -12.5278 C   0  0  0  0  0  0  0  0  0  0  0  0
  -22.4980   16.5705  -13.6822 C   0  0  0  0  0  0  0  0  0  0  0  0
  -22.5343   15.1954  -13.6025 C   0  0  0  0  0  0  0  0  0  0  0  0
  -22.7255   14.5784  -12.3904 C   0  0  0  0  0  0  0  0  0  0  0  0
  -22.9207   18.7473  -10.1521 O   0  0  0  0  0  0  0  0  0  0  0  0
  -22.8859   15.3181  -11.2223 C   0  0  0  0  0  0  0  0  0  0  0  0
  -23.0164   17.4828  -10.0840 C   0  0  0  0  0  0  0  0  0  0  0  0
  -21.7855   18.4473  -15.1032 C   0  0  0  0  0  0  0  0  0  0  0  0
  -22.3056   17.1743  -14.9038 O   0  0  0  0  0  0  0  0  0  0  0  0
  -22.3761   14.4141  -14.7611 O   0  0  0  0  0  0  0  0  0  0  0  0
  1  2  2  0
  1  7  1  0
  1  8  1  0
  2  3  1  0
  3  4  2  0
  3 10  1  0
  4  5  1  0
  4 11  1  0
  5  7  2  0
  8  6  2  0
 10  9  1  0
M  END
$$$$
