
     RDKit          3D

 11 11  0  0  0  0  0  0  0  0999 V2000
  -22.6731   15.2058  -12.9719 C   0  0  0  0  0  0  0  0  0  0  0  0
  -22.7543   16.4893  -13.5190 C   0  0  0  0  0  0  0  0  0  0  0  0
  -22.8774   17.5993  -12.7007 C   0  0  0  0  0  0  0  0  0  0  0  0
  -22.9193   17.4256  -11.3344 C   0  0  0  0  0  0  0  0  0  0  0  0
  -22.8396   16.1648  -10.7954 C   0  0  0  0  0  0  0  0  0  0  0  0
  -22.3680   12.8988  -13.3149 O   0  0  0  0  0  0  0  0  0  0  0  0
  -22.7156   15.0406  -11.6066 C   0  0  0  0  0  0  0  0  0  0  0  0
  -22.5438   14.0431  -13.8368 C   0  0  0  0  0  0  0  0  0  0  0  0
  -22.0878   19.4130  -14.1622 C   0  0  0  0  0  0  0  0  0  0  0  0
  -22.9584   18.8687  -13.2260 O   0  0  0  0  0  0  0  0  0  0  0  0
  -23.0440   18.5375  -10.4824 O   0  0  0  0  0  0  0  0  0  0  0  0
  1  2  2  0
  1  7  1  0
  1  8  1  0
  2  3  1  0
  3  4  2  0
  3 10  1  0
  4  5  1  0
  4 11  1  0
  5  7  2  0
  8  6  2  0
 10  9  1  0
M  END
$$$$
