
     RDKit          3D

 11 11  0  0  0  0  0  0  0  0999 V2000
  -22.6255   14.7022  -13.6656 C   0  0  0  0  0  0  0  0  0  0  0  0
  -22.5979   15.9722  -14.2483 C   0  0  0  0  0  0  0  0  0  0  0  0
  -22.7517   17.1086  -13.4726 C   0  0  0  0  0  0  0  0  0  0  0  0
  -22.9333   16.9749  -12.1133 C   0  0  0  0  0  0  0  0  0  0  0  0
  -22.9606   15.7275  -11.5393 C   0  0  0  0  0  0  0  0  0  0  0  0
  -22.3342   12.3819  -13.9199 O   0  0  0  0  0  0  0  0  0  0  0  0
  -22.8073   14.5770  -12.3074 C   0  0  0  0  0  0  0  0  0  0  0  0
  -22.4634   13.5115  -14.4857 C   0  0  0  0  0  0  0  0  0  0  0  0
  -22.2887   18.6688  -15.3166 C   0  0  0  0  0  0  0  0  0  0  0  0
  -22.7265   18.3651  -14.0334 O   0  0  0  0  0  0  0  0  0  0  0  0
  -23.0917   18.1143  -11.3043 O   0  0  0  0  0  0  0  0  0  0  0  0
  1  2  2  0
  1  7  1  0
  1  8  1  0
  2  3  1  0
  3  4  2  0
  3 10  1  0
  4  5  1  0
  4 11  1  0
  5  7  2  0
  8  6  2  0
 10  9  1  0
M  END
$$$$
