
     RDKit          3D

 34 38  0  0  0  0  0  0  0  0999 V2000
   89.1233  164.0133  177.7555 O   0  0  0  0  0  0  0  0  0  0  0  0
   87.8128  163.5338  177.7529 C   0  0  1  0  0  0  0  0  0  0  0  0
   86.8891  164.4213  176.9634 C   0  0  0  0  0  0  0  0  0  0  0  0
   86.2397  163.6283  175.9543 N   0  0  2  0  0  4  0  0  0  0  0  0
   84.8636  164.0643  175.8459 C   0  0  0  0  0  0  0  0  0  0  0  0
   83.9993  163.0147  175.2633 C   0  0  0  0  0  0  0  0  0  0  0  0
   83.6209  162.8567  173.9471 C   0  0  0  0  0  0  0  0  0  0  0  0
   83.8965  163.5774  172.8412 N   0  0  0  0  0  0  0  0  0  0  0  0
   83.3918  163.1987  171.6626 C   0  0  0  0  0  0  0  0  0  0  0  0
   82.6176  162.1031  171.6055 N   0  0  0  0  0  0  0  0  0  0  0  0
   82.3088  161.3493  172.6616 C   0  0  0  0  0  0  0  0  0  0  0  0
   81.4944  160.1939  172.5975 N   0  0  0  0  0  0  0  0  0  0  0  0
   82.8167  161.7171  173.8936 C   0  0  0  0  0  0  0  0  0  0  0  0
   82.7157  161.2069  175.1431 N   0  0  0  0  0  0  0  0  0  0  0  0
   83.4296  161.9874  175.9795 C   0  0  0  0  0  0  0  0  0  0  0  0
   86.3547  162.2507  176.4167 C   0  0  0  0  0  0  0  0  0  0  0  0
   87.6968  162.1981  177.0804 C   0  0  2  0  0  0  0  0  0  0  0  0
   87.8065  161.0757  178.0855 C   0  0  0  0  0  0  0  0  0  0  0  0
   89.4551  161.2235  178.8690 S   0  0  0  0  0  0  0  0  0  0  0  0
   90.3047  159.6008  178.8168 C   0  0  0  0  0  0  0  0  0  0  0  0
   91.4483  159.7761  177.8448 C   0  0  0  0  0  0  0  0  0  0  0  0
   92.6440  159.0465  178.3743 C   0  0  0  0  0  0  0  0  0  0  0  0
   92.2625  157.8888  179.2055 C   0  0  0  0  0  0  0  0  0  0  0  0
   92.7373  157.6380  180.4651 N   0  0  0  0  0  0  0  0  0  0  0  0
   92.1475  156.5589  180.9385 N   0  0  0  0  0  0  0  0  0  0  0  0
   91.3007  156.0668  180.0702 N   0  0  0  0  0  0  0  0  0  0  0  0
   91.3577  156.8828  178.9829 C   0  0  0  0  0  0  0  0  0  0  0  0
   90.4675  154.8786  180.2388 C   0  0  0  0  0  0  0  0  0  0  0  0
   89.1909  155.3414  180.8216 C   0  0  0  0  0  0  0  0  0  0  0  0
   89.0241  155.3649  182.1769 C   0  0  0  0  0  0  0  0  0  0  0  0
   87.8151  155.8041  182.7049 C   0  0  0  0  0  0  0  0  0  0  0  0
   86.7838  156.2153  181.8902 C   0  0  0  0  0  0  0  0  0  0  0  0
   86.9966  156.1746  180.5336 C   0  0  0  0  0  0  0  0  0  0  0  0
   88.1816  155.7449  179.9919 C   0  0  0  0  0  0  0  0  0  0  0  0
  2  1  1  6
  2  3  1  0
  2 17  1  0
  3  4  1  0
  4  5  1  1
  4 16  1  0
  5  6  1  0
  6  7  1  0
  6 15  2  0
  7  8  2  0
  7 13  1  0
  8  9  1  0
  9 10  2  0
 10 11  1  0
 11 12  1  0
 11 13  2  0
 13 14  1  0
 14 15  1  0
 16 17  1  0
 17 18  1  1
 18 19  1  0
 19 20  1  0
 20 21  1  0
 21 22  1  0
 22 23  1  0
 23 24  1  0
 23 27  2  0
 24 25  2  0
 25 26  1  0
 26 27  1  0
 26 28  1  0
 28 29  1  0
 29 30  2  0
 29 34  1  0
 30 31  1  0
 31 32  2  0
 32 33  1  0
 33 34  2  0
M  CHG  1   4   1
M  END
$$$$
