
     RDKit          3D

 34 38  0  0  0  0  0  0  0  0999 V2000
   87.0322  162.8939  180.2956 O   0  0  0  0  0  0  0  0  0  0  0  0
   85.9717  162.5455  179.4581 C   0  0  1  0  0  0  0  0  0  0  0  0
   85.7156  163.5917  178.4074 C   0  0  0  0  0  0  0  0  0  0  0  0
   85.7793  162.9688  177.1124 N   0  0  2  0  0  4  0  0  0  0  0  0
   84.7460  163.5439  176.2774 C   0  0  0  0  0  0  0  0  0  0  0  0
   84.2880  162.5954  175.2389 C   0  0  0  0  0  0  0  0  0  0  0  0
   83.4589  162.8427  174.1656 C   0  0  0  0  0  0  0  0  0  0  0  0
   82.8313  163.9636  173.7559 N   0  0  0  0  0  0  0  0  0  0  0  0
   82.0690  163.9308  172.6582 C   0  0  0  0  0  0  0  0  0  0  0  0
   81.9445  162.7763  171.9840 N   0  0  0  0  0  0  0  0  0  0  0  0
   82.5386  161.6356  172.3374 C   0  0  0  0  0  0  0  0  0  0  0  0
   82.4070  160.4212  171.6233 N   0  0  0  0  0  0  0  0  0  0  0  0
   83.3329  161.6398  173.4688 C   0  0  0  0  0  0  0  0  0  0  0  0
   84.0658  160.6979  174.1071 N   0  0  0  0  0  0  0  0  0  0  0  0
   84.6481  161.2687  175.1812 C   0  0  0  0  0  0  0  0  0  0  0  0
   85.5708  161.5475  177.3602 C   0  0  0  0  0  0  0  0  0  0  0  0
   86.2536  161.3004  178.6707 C   0  0  2  0  0  0  0  0  0  0  0  0
   85.7228  160.0787  179.3833 C   0  0  0  0  0  0  0  0  0  0  0  0
   87.0990  159.4115  180.3904 S   0  0  0  0  0  0  0  0  0  0  0  0
   88.3981  158.7428  179.2845 C   0  0  0  0  0  0  0  0  0  0  0  0
   89.5306  158.3313  180.1963 C   0  0  0  0  0  0  0  0  0  0  0  0
   89.5769  156.8360  180.2590 C   0  0  0  0  0  0  0  0  0  0  0  0
   90.4363  156.2644  179.2048 C   0  0  0  0  0  0  0  0  0  0  0  0
   89.9854  155.5459  178.1299 N   0  0  0  0  0  0  0  0  0  0  0  0
   91.0094  155.2388  177.3594 N   0  0  0  0  0  0  0  0  0  0  0  0
   92.1265  155.7095  177.8528 N   0  0  0  0  0  0  0  0  0  0  0  0
   91.7898  156.3528  179.0035 C   0  0  0  0  0  0  0  0  0  0  0  0
   93.4633  155.5668  177.2806 C   0  0  0  0  0  0  0  0  0  0  0  0
   94.0196  154.3104  177.8239 C   0  0  0  0  0  0  0  0  0  0  0  0
   94.7086  153.4568  177.0103 C   0  0  0  0  0  0  0  0  0  0  0  0
   95.2241  152.2798  177.5415 C   0  0  0  0  0  0  0  0  0  0  0  0
   95.0543  151.9575  178.8697 C   0  0  0  0  0  0  0  0  0  0  0  0
   94.3549  152.8458  179.6501 C   0  0  0  0  0  0  0  0  0  0  0  0
   93.8380  154.0125  179.1461 C   0  0  0  0  0  0  0  0  0  0  0  0
  2  1  1  6
  2  3  1  0
  2 17  1  0
  3  4  1  0
  4  5  1  6
  4 16  1  0
  5  6  1  0
  6  7  1  0
  6 15  2  0
  7  8  2  0
  7 13  1  0
  8  9  1  0
  9 10  2  0
 10 11  1  0
 11 12  1  0
 11 13  2  0
 13 14  1  0
 14 15  1  0
 16 17  1  0
 17 18  1  1
 18 19  1  0
 19 20  1  0
 20 21  1  0
 21 22  1  0
 22 23  1  0
 23 24  1  0
 23 27  2  0
 24 25  2  0
 25 26  1  0
 26 27  1  0
 26 28  1  0
 28 29  1  0
 29 30  2  0
 29 34  1  0
 30 31  1  0
 31 32  2  0
 32 33  1  0
 33 34  2  0
M  CHG  1   4   1
M  END
$$$$
