
     RDKit          3D

 34 38  0  0  0  0  0  0  0  0999 V2000
   88.1256  163.4294  178.8732 O   0  0  0  0  0  0  0  0  0  0  0  0
   87.0986  162.8543  178.1236 C   0  0  1  0  0  0  0  0  0  0  0  0
   86.2718  163.8904  177.4115 C   0  0  0  0  0  0  0  0  0  0  0  0
   86.2660  163.5879  176.0052 N   0  0  2  0  0  4  0  0  0  0  0  0
   84.9421  163.8570  175.4854 C   0  0  0  0  0  0  0  0  0  0  0  0
   84.6236  162.9990  174.3233 C   0  0  0  0  0  0  0  0  0  0  0  0
   83.3878  162.7368  173.7715 C   0  0  0  0  0  0  0  0  0  0  0  0
   82.1489  163.1494  174.1078 N   0  0  0  0  0  0  0  0  0  0  0  0
   81.0978  162.7377  173.3915 C   0  0  0  0  0  0  0  0  0  0  0  0
   81.3000  161.9183  172.3472 N   0  0  0  0  0  0  0  0  0  0  0  0
   82.4986  161.4757  171.9645 C   0  0  0  0  0  0  0  0  0  0  0  0
   82.7083  160.6140  170.8619 N   0  0  0  0  0  0  0  0  0  0  0  0
   83.6038  161.8849  172.6871 C   0  0  0  0  0  0  0  0  0  0  0  0
   84.9320  161.6432  172.5920 N   0  0  0  0  0  0  0  0  0  0  0  0
   85.5577  162.3147  173.5800 C   0  0  0  0  0  0  0  0  0  0  0  0
   86.6260  162.1782  175.9151 C   0  0  0  0  0  0  0  0  0  0  0  0
   87.6191  161.9826  177.0196 C   0  0  2  0  0  0  0  0  0  0  0  0
   87.7165  160.5433  177.4678 C   0  0  0  0  0  0  0  0  0  0  0  0
   87.2229  160.5014  179.2308 S   0  0  0  0  0  0  0  0  0  0  0  0
   87.9738  159.0396  180.0415 C   0  0  0  0  0  0  0  0  0  0  0  0
   87.4324  157.8426  179.2948 C   0  0  0  0  0  0  0  0  0  0  0  0
   87.5929  156.6277  180.1552 C   0  0  0  0  0  0  0  0  0  0  0  0
   88.9730  156.4828  180.6562 C   0  0  0  0  0  0  0  0  0  0  0  0
   89.6571  157.4403  181.3563 N   0  0  0  0  0  0  0  0  0  0  0  0
   90.8363  156.9612  181.6976 N   0  0  0  0  0  0  0  0  0  0  0  0
   90.9873  155.7341  181.2682 N   0  0  0  0  0  0  0  0  0  0  0  0
   89.8356  155.4176  180.6166 C   0  0  0  0  0  0  0  0  0  0  0  0
   92.1599  154.8821  181.4516 C   0  0  0  0  0  0  0  0  0  0  0  0
   91.7725  153.8402  182.4251 C   0  0  0  0  0  0  0  0  0  0  0  0
   92.1442  153.9525  183.7345 C   0  0  0  0  0  0  0  0  0  0  0  0
   91.7691  152.9611  184.6344 C   0  0  0  0  0  0  0  0  0  0  0  0
   91.0315  151.8697  184.2329 C   0  0  0  0  0  0  0  0  0  0  0  0
   90.6802  151.7988  182.9067 C   0  0  0  0  0  0  0  0  0  0  0  0
   91.0398  152.7658  182.0023 C   0  0  0  0  0  0  0  0  0  0  0  0
  2  1  1  6
  2  3  1  0
  2 17  1  0
  3  4  1  0
  4  5  1  1
  4 16  1  0
  5  6  1  0
  6  7  1  0
  6 15  2  0
  7  8  2  0
  7 13  1  0
  8  9  1  0
  9 10  2  0
 10 11  1  0
 11 12  1  0
 11 13  2  0
 13 14  1  0
 14 15  1  0
 16 17  1  0
 17 18  1  1
 18 19  1  0
 19 20  1  0
 20 21  1  0
 21 22  1  0
 22 23  1  0
 23 24  1  0
 23 27  2  0
 24 25  2  0
 25 26  1  0
 26 27  1  0
 26 28  1  0
 28 29  1  0
 29 30  2  0
 29 34  1  0
 30 31  1  0
 31 32  2  0
 32 33  1  0
 33 34  2  0
M  CHG  1   4   1
M  END
$$$$
