
     RDKit          3D

 34 38  0  0  0  0  0  0  0  0999 V2000
   88.6283  162.4644  178.7866 O   0  0  0  0  0  0  0  0  0  0  0  0
   87.4143  162.7538  178.1623 C   0  0  1  0  0  0  0  0  0  0  0  0
   87.6112  163.4088  176.8221 C   0  0  0  0  0  0  0  0  0  0  0  0
   86.9227  162.6336  175.8251 N   0  0  2  0  0  4  0  0  0  0  0  0
   86.3124  163.5439  174.8794 C   0  0  0  0  0  0  0  0  0  0  0  0
   85.4239  162.8367  173.9316 C   0  0  0  0  0  0  0  0  0  0  0  0
   84.0633  162.6364  174.0275 C   0  0  0  0  0  0  0  0  0  0  0  0
   83.1678  162.9936  174.9702 N   0  0  0  0  0  0  0  0  0  0  0  0
   81.8804  162.6673  174.8165 C   0  0  0  0  0  0  0  0  0  0  0  0
   81.5054  161.9876  173.7208 N   0  0  0  0  0  0  0  0  0  0  0  0
   82.3417  161.6062  172.7543 C   0  0  0  0  0  0  0  0  0  0  0  0
   81.9427  160.8920  171.5998 N   0  0  0  0  0  0  0  0  0  0  0  0
   83.6791  161.9297  172.8867 C   0  0  0  0  0  0  0  0  0  0  0  0
   84.7790  161.7124  172.1286 N   0  0  0  0  0  0  0  0  0  0  0  0
   85.8410  162.2589  172.7547 C   0  0  0  0  0  0  0  0  0  0  0  0
   85.9384  161.8500  176.5614 C   0  0  0  0  0  0  0  0  0  0  0  0
   86.6257  161.5167  177.8503 C   0  0  2  0  0  0  0  0  0  0  0  0
   85.6550  161.1994  178.9634 C   0  0  0  0  0  0  0  0  0  0  0  0
   86.5573  160.1661  180.1766 S   0  0  0  0  0  0  0  0  0  0  0  0
   86.4282  158.4031  179.6942 C   0  0  0  0  0  0  0  0  0  0  0  0
   86.1342  157.6558  180.9743 C   0  0  0  0  0  0  0  0  0  0  0  0
   87.1247  158.0784  182.0147 C   0  0  0  0  0  0  0  0  0  0  0  0
   88.3402  157.2424  181.9934 C   0  0  0  0  0  0  0  0  0  0  0  0
   88.3499  155.8732  182.0069 N   0  0  0  0  0  0  0  0  0  0  0  0
   89.5958  155.4525  181.9213 N   0  0  0  0  0  0  0  0  0  0  0  0
   90.4282  156.4600  181.8504 N   0  0  0  0  0  0  0  0  0  0  0  0
   89.6641  157.5850  181.8934 C   0  0  0  0  0  0  0  0  0  0  0  0
   91.8839  156.3856  181.7491 C   0  0  0  0  0  0  0  0  0  0  0  0
   92.2183  156.6338  180.3314 C   0  0  0  0  0  0  0  0  0  0  0  0
   92.1256  155.6230  179.4176 C   0  0  0  0  0  0  0  0  0  0  0  0
   92.4448  155.8776  178.0884 C   0  0  0  0  0  0  0  0  0  0  0  0
   92.8519  157.1267  177.6752 C   0  0  0  0  0  0  0  0  0  0  0  0
   92.9304  158.1124  178.6288 C   0  0  0  0  0  0  0  0  0  0  0  0
   92.6202  157.8825  179.9453 C   0  0  0  0  0  0  0  0  0  0  0  0
  2  1  1  6
  2  3  1  0
  2 17  1  0
  3  4  1  0
  4  5  1  6
  4 16  1  0
  5  6  1  0
  6  7  1  0
  6 15  2  0
  7  8  2  0
  7 13  1  0
  8  9  1  0
  9 10  2  0
 10 11  1  0
 11 12  1  0
 11 13  2  0
 13 14  1  0
 14 15  1  0
 16 17  1  0
 17 18  1  1
 18 19  1  0
 19 20  1  0
 20 21  1  0
 21 22  1  0
 22 23  1  0
 23 24  1  0
 23 27  2  0
 24 25  2  0
 25 26  1  0
 26 27  1  0
 26 28  1  0
 28 29  1  0
 29 30  2  0
 29 34  1  0
 30 31  1  0
 31 32  2  0
 32 33  1  0
 33 34  2  0
M  CHG  1   4   1
M  END
$$$$
