
     RDKit          3D

 34 38  0  0  0  0  0  0  0  0999 V2000
   86.6868  163.7387  179.2645 O   0  0  0  0  0  0  0  0  0  0  0  0
   86.0021  163.3427  178.1148 C   0  0  1  0  0  0  0  0  0  0  0  0
   86.4992  164.0578  176.8878 C   0  0  0  0  0  0  0  0  0  0  0  0
   86.8992  163.0777  175.9139 N   0  0  2  0  0  4  0  0  0  0  0  0
   86.4995  163.5458  174.6037 C   0  0  0  0  0  0  0  0  0  0  0  0
   85.0713  163.2706  174.3345 C   0  0  0  0  0  0  0  0  0  0  0  0
   84.5306  162.4133  173.4001 C   0  0  0  0  0  0  0  0  0  0  0  0
   85.1038  161.6098  172.4814 N   0  0  0  0  0  0  0  0  0  0  0  0
   84.3336  160.8658  171.6811 C   0  0  0  0  0  0  0  0  0  0  0  0
   82.9989  160.9352  171.8105 N   0  0  0  0  0  0  0  0  0  0  0  0
   82.3724  161.7089  172.6981 C   0  0  0  0  0  0  0  0  0  0  0  0
   80.9656  161.7779  172.8334 N   0  0  0  0  0  0  0  0  0  0  0  0
   83.1437  162.4895  173.5389 C   0  0  0  0  0  0  0  0  0  0  0  0
   82.8614  163.3682  174.5287 N   0  0  0  0  0  0  0  0  0  0  0  0
   84.0241  163.8464  175.0165 C   0  0  0  0  0  0  0  0  0  0  0  0
   86.2147  161.8506  176.3019 C   0  0  0  0  0  0  0  0  0  0  0  0
   86.2111  161.8912  177.7995 C   0  0  2  0  0  0  0  0  0  0  0  0
   85.1156  161.0440  178.4030 C   0  0  0  0  0  0  0  0  0  0  0  0
   85.7086  159.3116  178.3770 S   0  0  0  0  0  0  0  0  0  0  0  0
   87.4753  159.2626  178.8607 C   0  0  0  0  0  0  0  0  0  0  0  0
   87.9914  157.9311  178.3664 C   0  0  0  0  0  0  0  0  0  0  0  0
   87.8703  156.9291  179.4725 C   0  0  0  0  0  0  0  0  0  0  0  0
   89.0078  156.9989  180.4094 C   0  0  0  0  0  0  0  0  0  0  0  0
   89.2695  158.0497  181.2474 N   0  0  0  0  0  0  0  0  0  0  0  0
   90.3226  157.7585  181.9841 N   0  0  0  0  0  0  0  0  0  0  0  0
   90.7869  156.5703  181.6914 N   0  0  0  0  0  0  0  0  0  0  0  0
   89.9799  156.0803  180.7117 C   0  0  0  0  0  0  0  0  0  0  0  0
   91.9416  155.9099  182.2958 C   0  0  0  0  0  0  0  0  0  0  0  0
   93.1192  156.3133  181.4996 C   0  0  0  0  0  0  0  0  0  0  0  0
   93.3455  155.7503  180.2760 C   0  0  0  0  0  0  0  0  0  0  0  0
   94.4594  156.1440  179.5428 C   0  0  0  0  0  0  0  0  0  0  0  0
   95.3379  157.0888  180.0246 C   0  0  0  0  0  0  0  0  0  0  0  0
   95.0703  157.6277  181.2595 C   0  0  0  0  0  0  0  0  0  0  0  0
   93.9772  157.2536  181.9993 C   0  0  0  0  0  0  0  0  0  0  0  0
  2  1  1  1
  2  3  1  0
  2 17  1  0
  3  4  1  0
  4  5  1  6
  4 16  1  0
  5  6  1  0
  6  7  1  0
  6 15  2  0
  7  8  2  0
  7 13  1  0
  8  9  1  0
  9 10  2  0
 10 11  1  0
 11 12  1  0
 11 13  2  0
 13 14  1  0
 14 15  1  0
 16 17  1  0
 17 18  1  1
 18 19  1  0
 19 20  1  0
 20 21  1  0
 21 22  1  0
 22 23  1  0
 23 24  1  0
 23 27  2  0
 24 25  2  0
 25 26  1  0
 26 27  1  0
 26 28  1  0
 28 29  1  0
 29 30  2  0
 29 34  1  0
 30 31  1  0
 31 32  2  0
 32 33  1  0
 33 34  2  0
M  CHG  1   4   1
M  END
$$$$
