
     RDKit          3D

 34 38  0  0  0  0  0  0  0  0999 V2000
   88.2763  164.5572  178.8502 O   0  0  0  0  0  0  0  0  0  0  0  0
   87.1224  164.1741  178.1653 C   0  0  1  0  0  0  0  0  0  0  0  0
   86.9768  164.9001  176.8553 C   0  0  0  0  0  0  0  0  0  0  0  0
   86.8555  163.9286  175.8015 N   0  0  2  0  0  4  0  0  0  0  0  0
   85.8809  164.4106  174.8458 C   0  0  0  0  0  0  0  0  0  0  0  0
   85.2136  163.2988  174.1340 C   0  0  0  0  0  0  0  0  0  0  0  0
   83.9784  162.7430  174.3903 C   0  0  0  0  0  0  0  0  0  0  0  0
   83.0477  163.0171  175.3267 N   0  0  0  0  0  0  0  0  0  0  0  0
   81.9119  162.3125  175.3561 C   0  0  0  0  0  0  0  0  0  0  0  0
   81.7217  161.3424  174.4475 N   0  0  0  0  0  0  0  0  0  0  0  0
   82.6022  161.0236  173.4977 C   0  0  0  0  0  0  0  0  0  0  0  0
   82.3976  160.0021  172.5403 N   0  0  0  0  0  0  0  0  0  0  0  0
   83.7860  161.7356  173.4435 C   0  0  0  0  0  0  0  0  0  0  0  0
   84.8759  161.6888  172.6424 N   0  0  0  0  0  0  0  0  0  0  0  0
   85.7462  162.6331  173.0540 C   0  0  0  0  0  0  0  0  0  0  0  0
   86.4315  162.6995  176.4606 C   0  0  0  0  0  0  0  0  0  0  0  0
   87.1450  162.7254  177.7777 C   0  0  2  0  0  0  0  0  0  0  0  0
   86.4659  161.8750  178.8253 C   0  0  0  0  0  0  0  0  0  0  0  0
   87.0984  160.1691  178.6167 S   0  0  0  0  0  0  0  0  0  0  0  0
   85.7103  159.0494  178.1956 C   0  0  0  0  0  0  0  0  0  0  0  0
   85.2820  158.4289  179.5052 C   0  0  0  0  0  0  0  0  0  0  0  0
   85.6659  156.9815  179.4984 C   0  0  0  0  0  0  0  0  0  0  0  0
   86.9583  156.7488  180.1708 C   0  0  0  0  0  0  0  0  0  0  0  0
   87.1607  156.8131  181.5236 N   0  0  0  0  0  0  0  0  0  0  0  0
   88.4125  156.4953  181.7854 N   0  0  0  0  0  0  0  0  0  0  0  0
   89.0671  156.2195  180.6861 N   0  0  0  0  0  0  0  0  0  0  0  0
   88.1771  156.3716  179.6682 C   0  0  0  0  0  0  0  0  0  0  0  0
   90.4714  155.8307  180.5793 C   0  0  0  0  0  0  0  0  0  0  0  0
   90.5015  154.3540  180.6207 C   0  0  0  0  0  0  0  0  0  0  0  0
   90.5128  153.6353  179.4594 C   0  0  0  0  0  0  0  0  0  0  0  0
   90.5414  152.2465  179.5205 C   0  0  0  0  0  0  0  0  0  0  0  0
   90.5585  151.5817  180.7265 C   0  0  0  0  0  0  0  0  0  0  0  0
   90.5463  152.3456  181.8682 C   0  0  0  0  0  0  0  0  0  0  0  0
   90.5182  153.7167  181.8305 C   0  0  0  0  0  0  0  0  0  0  0  0
  2  1  1  6
  2  3  1  0
  2 17  1  0
  3  4  1  0
  4  5  1  6
  4 16  1  0
  5  6  1  0
  6  7  1  0
  6 15  2  0
  7  8  2  0
  7 13  1  0
  8  9  1  0
  9 10  2  0
 10 11  1  0
 11 12  1  0
 11 13  2  0
 13 14  1  0
 14 15  1  0
 16 17  1  0
 17 18  1  1
 18 19  1  0
 19 20  1  0
 20 21  1  0
 21 22  1  0
 22 23  1  0
 23 24  1  0
 23 27  2  0
 24 25  2  0
 25 26  1  0
 26 27  1  0
 26 28  1  0
 28 29  1  0
 29 30  2  0
 29 34  1  0
 30 31  1  0
 31 32  2  0
 32 33  1  0
 33 34  2  0
M  CHG  1   4   1
M  END
$$$$
