
     RDKit          3D

 34 38  0  0  0  0  0  0  0  0999 V2000
   87.9607  162.5183  179.2463 O   0  0  0  0  0  0  0  0  0  0  0  0
   87.1012  161.9772  178.2893 C   0  0  1  0  0  0  0  0  0  0  0  0
   85.6934  162.4854  178.4438 C   0  0  0  0  0  0  0  0  0  0  0  0
   85.2760  163.0712  177.1981 N   0  0  2  0  0  4  0  0  0  0  0  0
   83.8883  162.7262  176.9732 C   0  0  0  0  0  0  0  0  0  0  0  0
   83.6857  162.1009  175.6481 C   0  0  0  0  0  0  0  0  0  0  0  0
   83.2138  162.6871  174.4930 C   0  0  0  0  0  0  0  0  0  0  0  0
   82.8011  163.9431  174.2278 N   0  0  0  0  0  0  0  0  0  0  0  0
   82.3823  164.2554  172.9972 C   0  0  0  0  0  0  0  0  0  0  0  0
   82.3820  163.3065  172.0471 N   0  0  0  0  0  0  0  0  0  0  0  0
   82.7775  162.0483  172.2462 C   0  0  0  0  0  0  0  0  0  0  0  0
   82.7780  161.0513  171.2421 N   0  0  0  0  0  0  0  0  0  0  0  0
   83.2155  161.6967  173.5094 C   0  0  0  0  0  0  0  0  0  0  0  0
   83.6752  160.5490  174.0600 N   0  0  0  0  0  0  0  0  0  0  0  0
   83.9626  160.7851  175.3562 C   0  0  0  0  0  0  0  0  0  0  0  0
   86.1635  162.5027  176.1911 C   0  0  0  0  0  0  0  0  0  0  0  0
   87.4805  162.3751  176.8937 C   0  0  2  0  0  0  0  0  0  0  0  0
   88.3803  161.3391  176.2621 C   0  0  0  0  0  0  0  0  0  0  0  0
   88.8444  160.1610  177.5850 S   0  0  0  0  0  0  0  0  0  0  0  0
   90.5328  160.5471  178.1832 C   0  0  0  0  0  0  0  0  0  0  0  0
   90.7626  159.6288  179.3611 C   0  0  0  0  0  0  0  0  0  0  0  0
   91.4606  158.3951  178.8785 C   0  0  0  0  0  0  0  0  0  0  0  0
   90.9453  157.1766  179.5315 C   0  0  0  0  0  0  0  0  0  0  0  0
   89.6847  156.6696  179.3614 N   0  0  0  0  0  0  0  0  0  0  0  0
   89.5789  155.5463  180.0422 N   0  0  0  0  0  0  0  0  0  0  0  0
   90.6968  155.2655  180.6622 N   0  0  0  0  0  0  0  0  0  0  0  0
   91.5615  156.2703  180.3557 C   0  0  0  0  0  0  0  0  0  0  0  0
   90.9569  154.1068  181.5134 C   0  0  0  0  0  0  0  0  0  0  0  0
   90.7121  154.5447  182.9033 C   0  0  0  0  0  0  0  0  0  0  0  0
   91.7562  154.9280  183.6958 C   0  0  0  0  0  0  0  0  0  0  0  0
   91.5041  155.3368  185.0006 C   0  0  0  0  0  0  0  0  0  0  0  0
   90.2248  155.3630  185.5096 C   0  0  0  0  0  0  0  0  0  0  0  0
   89.2060  154.9690  184.6764 C   0  0  0  0  0  0  0  0  0  0  0  0
   89.4327  154.5621  183.3859 C   0  0  0  0  0  0  0  0  0  0  0  0
  2  1  1  1
  2  3  1  0
  2 17  1  0
  3  4  1  0
  4  5  1  6
  4 16  1  0
  5  6  1  0
  6  7  1  0
  6 15  2  0
  7  8  2  0
  7 13  1  0
  8  9  1  0
  9 10  2  0
 10 11  1  0
 11 12  1  0
 11 13  2  0
 13 14  1  0
 14 15  1  0
 16 17  1  0
 17 18  1  6
 18 19  1  0
 19 20  1  0
 20 21  1  0
 21 22  1  0
 22 23  1  0
 23 24  1  0
 23 27  2  0
 24 25  2  0
 25 26  1  0
 26 27  1  0
 26 28  1  0
 28 29  1  0
 29 30  2  0
 29 34  1  0
 30 31  1  0
 31 32  2  0
 32 33  1  0
 33 34  2  0
M  CHG  1   4   1
M  END
$$$$
