
     RDKit          3D

 34 38  0  0  0  0  0  0  0  0999 V2000
   86.2834  164.1234  179.6801 O   0  0  0  0  0  0  0  0  0  0  0  0
   85.9284  163.5619  178.4529 C   0  0  1  0  0  0  0  0  0  0  0  0
   85.7406  164.6076  177.3873 C   0  0  0  0  0  0  0  0  0  0  0  0
   86.5995  164.2932  176.2772 N   0  0  2  0  0  4  0  0  0  0  0  0
   85.8865  164.5834  175.0513 C   0  0  0  0  0  0  0  0  0  0  0  0
   85.3710  163.3534  174.4115 C   0  0  0  0  0  0  0  0  0  0  0  0
   84.1135  162.7992  174.5212 C   0  0  0  0  0  0  0  0  0  0  0  0
   83.0230  163.1789  175.2174 N   0  0  0  0  0  0  0  0  0  0  0  0
   81.9064  162.4469  175.1481 C   0  0  0  0  0  0  0  0  0  0  0  0
   81.8953  161.3439  174.3824 N   0  0  0  0  0  0  0  0  0  0  0  0
   82.9394  160.9164  173.6710 C   0  0  0  0  0  0  0  0  0  0  0  0
   82.9235  159.7547  172.8633 N   0  0  0  0  0  0  0  0  0  0  0  0
   84.1077  161.6536  173.7238 C   0  0  0  0  0  0  0  0  0  0  0  0
   85.3279  161.5247  173.1527 N   0  0  0  0  0  0  0  0  0  0  0  0
   86.0999  162.5509  173.5642 C   0  0  0  0  0  0  0  0  0  0  0  0
   86.9090  162.8760  176.4217 C   0  0  0  0  0  0  0  0  0  0  0  0
   87.0022  162.6707  177.9028 C   0  0  2  0  0  0  0  0  0  0  0  0
   86.7718  161.2337  178.3077 C   0  0  0  0  0  0  0  0  0  0  0  0
   88.4197  160.5004  178.6242 S   0  0  0  0  0  0  0  0  0  0  0  0
   88.2261  158.7380  179.0872 C   0  0  0  0  0  0  0  0  0  0  0  0
   88.4050  157.9622  177.8029 C   0  0  0  0  0  0  0  0  0  0  0  0
   88.1092  156.5187  178.0692 C   0  0  0  0  0  0  0  0  0  0  0  0
   88.4918  156.1187  179.4368 C   0  0  0  0  0  0  0  0  0  0  0  0
   87.7242  156.3132  180.5539 N   0  0  0  0  0  0  0  0  0  0  0  0
   88.3390  155.7863  181.5935 N   0  0  0  0  0  0  0  0  0  0  0  0
   89.4783  155.2464  181.2419 N   0  0  0  0  0  0  0  0  0  0  0  0
   89.5913  155.4430  179.9003 C   0  0  0  0  0  0  0  0  0  0  0  0
   90.4336  154.5728  182.1184 C   0  0  0  0  0  0  0  0  0  0  0  0
   90.3752  153.1365  181.7764 C   0  0  0  0  0  0  0  0  0  0  0  0
   91.4345  152.5347  181.1591 C   0  0  0  0  0  0  0  0  0  0  0  0
   91.3593  151.1820  180.8460 C   0  0  0  0  0  0  0  0  0  0  0  0
   90.2399  150.4376  181.1454 C   0  0  0  0  0  0  0  0  0  0  0  0
   89.1993  151.0848  181.7663 C   0  0  0  0  0  0  0  0  0  0  0  0
   89.2528  152.4184  182.0839 C   0  0  0  0  0  0  0  0  0  0  0  0
  2  1  1  1
  2  3  1  0
  2 17  1  0
  3  4  1  0
  4  5  1  6
  4 16  1  0
  5  6  1  0
  6  7  1  0
  6 15  2  0
  7  8  2  0
  7 13  1  0
  8  9  1  0
  9 10  2  0
 10 11  1  0
 11 12  1  0
 11 13  2  0
 13 14  1  0
 14 15  1  0
 16 17  1  0
 17 18  1  6
 18 19  1  0
 19 20  1  0
 20 21  1  0
 21 22  1  0
 22 23  1  0
 23 24  1  0
 23 27  2  0
 24 25  2  0
 25 26  1  0
 26 27  1  0
 26 28  1  0
 28 29  1  0
 29 30  2  0
 29 34  1  0
 30 31  1  0
 31 32  2  0
 32 33  1  0
 33 34  2  0
M  CHG  1   4   1
M  END
$$$$
