
     RDKit          3D

 34 38  0  0  0  0  0  0  0  0999 V2000
   87.8502  163.0523  179.0195 O   0  0  0  0  0  0  0  0  0  0  0  0
   86.6635  162.6655  178.3954 C   0  0  1  0  0  0  0  0  0  0  0  0
   86.0198  163.8046  177.6522 C   0  0  0  0  0  0  0  0  0  0  0  0
   85.8289  163.4109  176.2820 N   0  0  2  0  0  4  0  0  0  0  0  0
   84.5537  163.9273  175.8316 C   0  0  0  0  0  0  0  0  0  0  0  0
   83.7655  162.8983  175.1190 C   0  0  0  0  0  0  0  0  0  0  0  0
   83.6944  162.6687  173.7615 C   0  0  0  0  0  0  0  0  0  0  0  0
   84.2808  163.2847  172.7151 N   0  0  0  0  0  0  0  0  0  0  0  0
   84.0367  162.8545  171.4731 C   0  0  0  0  0  0  0  0  0  0  0  0
   83.2086  161.8127  171.2939 N   0  0  0  0  0  0  0  0  0  0  0  0
   82.5989  161.1623  172.2860 C   0  0  0  0  0  0  0  0  0  0  0  0
   81.7286  160.0634  172.0937 N   0  0  0  0  0  0  0  0  0  0  0  0
   82.8326  161.5856  173.5811 C   0  0  0  0  0  0  0  0  0  0  0  0
   82.3992  161.1778  174.7966 N   0  0  0  0  0  0  0  0  0  0  0  0
   82.9598  161.9681  175.7345 C   0  0  0  0  0  0  0  0  0  0  0  0
   85.8695  161.9538  176.2928 C   0  0  0  0  0  0  0  0  0  0  0  0
   86.8887  161.6237  177.3401 C   0  0  2  0  0  0  0  0  0  0  0  0
   86.7136  160.2342  177.9064 C   0  0  0  0  0  0  0  0  0  0  0  0
   87.7437  159.1125  176.8894 S   0  0  0  0  0  0  0  0  0  0  0  0
   88.8187  158.1096  177.9832 C   0  0  0  0  0  0  0  0  0  0  0  0
   89.8542  157.4910  177.0730 C   0  0  0  0  0  0  0  0  0  0  0  0
   90.7187  156.5749  177.8826 C   0  0  0  0  0  0  0  0  0  0  0  0
   90.1768  156.3565  179.2374 C   0  0  0  0  0  0  0  0  0  0  0  0
   90.5453  157.0616  180.3519 N   0  0  0  0  0  0  0  0  0  0  0  0
   89.8264  156.6498  181.3767 N   0  0  0  0  0  0  0  0  0  0  0  0
   88.9930  155.7068  181.0175 N   0  0  0  0  0  0  0  0  0  0  0  0
   89.1960  155.5101  179.6866 C   0  0  0  0  0  0  0  0  0  0  0  0
   88.0411  155.0076  181.8776 C   0  0  0  0  0  0  0  0  0  0  0  0
   88.3741  153.5707  181.7896 C   0  0  0  0  0  0  0  0  0  0  0  0
   89.6632  153.1536  181.9606 C   0  0  0  0  0  0  0  0  0  0  0  0
   89.9553  151.7969  181.8741 C   0  0  0  0  0  0  0  0  0  0  0  0
   88.9724  150.8664  181.6196 C   0  0  0  0  0  0  0  0  0  0  0  0
   87.6905  151.3318  181.4546 C   0  0  0  0  0  0  0  0  0  0  0  0
   87.3806  152.6658  181.5361 C   0  0  0  0  0  0  0  0  0  0  0  0
  2  1  1  6
  2  3  1  0
  2 17  1  0
  3  4  1  0
  4  5  1  1
  4 16  1  0
  5  6  1  0
  6  7  1  0
  6 15  2  0
  7  8  2  0
  7 13  1  0
  8  9  1  0
  9 10  2  0
 10 11  1  0
 11 12  1  0
 11 13  2  0
 13 14  1  0
 14 15  1  0
 16 17  1  0
 17 18  1  1
 18 19  1  0
 19 20  1  0
 20 21  1  0
 21 22  1  0
 22 23  1  0
 23 24  1  0
 23 27  2  0
 24 25  2  0
 25 26  1  0
 26 27  1  0
 26 28  1  0
 28 29  1  0
 29 30  2  0
 29 34  1  0
 30 31  1  0
 31 32  2  0
 32 33  1  0
 33 34  2  0
M  CHG  1   4   1
M  END
$$$$
