
     RDKit          3D

 34 38  0  0  0  0  0  0  0  0999 V2000
   89.3456  164.8012  179.0731 O   0  0  0  0  0  0  0  0  0  0  0  0
   88.2853  163.9401  178.7876 C   0  0  1  0  0  0  0  0  0  0  0  0
   87.0786  164.6807  178.2781 C   0  0  0  0  0  0  0  0  0  0  0  0
   86.7053  164.1304  177.0026 N   0  0  2  0  0  4  0  0  0  0  0  0
   85.2603  164.0815  176.9314 C   0  0  0  0  0  0  0  0  0  0  0  0
   84.7920  163.5613  175.6283 C   0  0  0  0  0  0  0  0  0  0  0  0
   83.9345  162.5086  175.3899 C   0  0  0  0  0  0  0  0  0  0  0  0
   83.2979  161.6627  176.2251 N   0  0  0  0  0  0  0  0  0  0  0  0
   82.5071  160.7086  175.7234 C   0  0  0  0  0  0  0  0  0  0  0  0
   82.3631  160.6133  174.3918 N   0  0  0  0  0  0  0  0  0  0  0  0
   82.9645  161.4182  173.5146 C   0  0  0  0  0  0  0  0  0  0  0  0
   82.8087  161.3164  172.1120 N   0  0  0  0  0  0  0  0  0  0  0  0
   83.7885  162.4140  174.0049 C   0  0  0  0  0  0  0  0  0  0  0  0
   84.5381  163.3829  173.4296 N   0  0  0  0  0  0  0  0  0  0  0  0
   85.1498  164.0830  174.4064 C   0  0  0  0  0  0  0  0  0  0  0  0
   87.3119  162.8054  176.9647 C   0  0  0  0  0  0  0  0  0  0  0  0
   88.6143  162.9783  177.6847 C   0  0  2  0  0  0  0  0  0  0  0  0
   89.1493  161.6800  178.2416 C   0  0  0  0  0  0  0  0  0  0  0  0
   88.8286  160.3896  176.9824 S   0  0  0  0  0  0  0  0  0  0  0  0
   88.0206  158.9487  177.7752 C   0  0  0  0  0  0  0  0  0  0  0  0
   89.1355  157.9703  178.0639 C   0  0  0  0  0  0  0  0  0  0  0  0
   88.7332  156.6208  177.5548 C   0  0  0  0  0  0  0  0  0  0  0  0
   87.9797  155.8511  178.5630 C   0  0  0  0  0  0  0  0  0  0  0  0
   87.9583  154.4848  178.6507 N   0  0  0  0  0  0  0  0  0  0  0  0
   87.2368  154.1336  179.6960 N   0  0  0  0  0  0  0  0  0  0  0  0
   86.7700  155.1853  180.3196 N   0  0  0  0  0  0  0  0  0  0  0  0
   87.2228  156.2663  179.6284 C   0  0  0  0  0  0  0  0  0  0  0  0
   85.9295  155.1912  181.5148 C   0  0  0  0  0  0  0  0  0  0  0  0
   85.3166  153.8496  181.6024 C   0  0  0  0  0  0  0  0  0  0  0  0
   84.0228  153.7123  182.0177 C   0  0  0  0  0  0  0  0  0  0  0  0
   83.4649  152.4408  182.0930 C   0  0  0  0  0  0  0  0  0  0  0  0
   84.1894  151.3187  181.7578 C   0  0  0  0  0  0  0  0  0  0  0  0
   85.4866  151.5049  181.3454 C   0  0  0  0  0  0  0  0  0  0  0  0
   86.0563  152.7504  181.2640 C   0  0  0  0  0  0  0  0  0  0  0  0
  2  1  1  6
  2  3  1  0
  2 17  1  0
  3  4  1  0
  4  5  1  1
  4 16  1  0
  5  6  1  0
  6  7  1  0
  6 15  2  0
  7  8  2  0
  7 13  1  0
  8  9  1  0
  9 10  2  0
 10 11  1  0
 11 12  1  0
 11 13  2  0
 13 14  1  0
 14 15  1  0
 16 17  1  0
 17 18  1  1
 18 19  1  0
 19 20  1  0
 20 21  1  0
 21 22  1  0
 22 23  1  0
 23 24  1  0
 23 27  2  0
 24 25  2  0
 25 26  1  0
 26 27  1  0
 26 28  1  0
 28 29  1  0
 29 30  2  0
 29 34  1  0
 30 31  1  0
 31 32  2  0
 32 33  1  0
 33 34  2  0
M  CHG  1   4   1
M  END
$$$$
