
     RDKit          3D

 34 38  0  0  0  0  0  0  0  0999 V2000
   90.1786  165.8473  176.1017 O   0  0  0  0  0  0  0  0  0  0  0  0
   89.0840  165.1432  176.6050 C   0  0  1  0  0  0  0  0  0  0  0  0
   88.0327  164.9086  175.5543 C   0  0  0  0  0  0  0  0  0  0  0  0
   87.7746  163.4961  175.4686 N   0  0  2  0  0  4  0  0  0  0  0  0
   86.3533  163.3023  175.2744 C   0  0  0  0  0  0  0  0  0  0  0  0
   85.8772  162.0549  175.9110 C   0  0  0  0  0  0  0  0  0  0  0  0
   85.2943  161.9002  177.1507 C   0  0  0  0  0  0  0  0  0  0  0  0
   85.0022  162.7884  178.1223 N   0  0  0  0  0  0  0  0  0  0  0  0
   84.4258  162.3664  179.2524 C   0  0  0  0  0  0  0  0  0  0  0  0
   84.1487  161.0604  179.3957 N   0  0  0  0  0  0  0  0  0  0  0  0
   84.4124  160.1339  178.4732 C   0  0  0  0  0  0  0  0  0  0  0  0
   84.1169  158.7587  178.6266 N   0  0  0  0  0  0  0  0  0  0  0  0
   85.0086  160.5415  177.2944 C   0  0  0  0  0  0  0  0  0  0  0  0
   85.4095  159.9000  176.1722 N   0  0  0  0  0  0  0  0  0  0  0  0
   85.9373  160.8099  175.3284 C   0  0  0  0  0  0  0  0  0  0  0  0
   88.2466  162.9431  176.7321 C   0  0  0  0  0  0  0  0  0  0  0  0
   89.4557  163.7639  177.0620 C   0  0  2  0  0  0  0  0  0  0  0  0
   89.7829  163.7530  178.5368 C   0  0  0  0  0  0  0  0  0  0  0  0
   90.5400  162.1259  178.9010 S   0  0  0  0  0  0  0  0  0  0  0  0
   91.8282  161.7572  177.6510 C   0  0  0  0  0  0  0  0  0  0  0  0
   92.4243  160.4321  178.0659 C   0  0  0  0  0  0  0  0  0  0  0  0
   91.5117  159.3336  177.6159 C   0  0  0  0  0  0  0  0  0  0  0  0
   91.1994  158.3916  178.7075 C   0  0  0  0  0  0  0  0  0  0  0  0
   92.1124  157.5832  179.3303 N   0  0  0  0  0  0  0  0  0  0  0  0
   91.5082  156.9165  180.2932 N   0  0  0  0  0  0  0  0  0  0  0  0
   90.2388  157.2291  180.3563 N   0  0  0  0  0  0  0  0  0  0  0  0
   90.0269  158.1481  179.3756 C   0  0  0  0  0  0  0  0  0  0  0  0
   89.2523  156.6932  181.2914 C   0  0  0  0  0  0  0  0  0  0  0  0
   88.2258  156.0143  180.4738 C   0  0  0  0  0  0  0  0  0  0  0  0
   86.9649  156.5320  180.3870 C   0  0  0  0  0  0  0  0  0  0  0  0
   86.0138  155.8777  179.6121 C   0  0  0  0  0  0  0  0  0  0  0  0
   86.3167  154.7196  178.9311 C   0  0  0  0  0  0  0  0  0  0  0  0
   87.5972  154.2357  179.0476 C   0  0  0  0  0  0  0  0  0  0  0  0
   88.5507  154.8656  179.8067 C   0  0  0  0  0  0  0  0  0  0  0  0
  2  1  1  6
  2  3  1  0
  2 17  1  0
  3  4  1  0
  4  5  1  1
  4 16  1  0
  5  6  1  0
  6  7  1  0
  6 15  2  0
  7  8  2  0
  7 13  1  0
  8  9  1  0
  9 10  2  0
 10 11  1  0
 11 12  1  0
 11 13  2  0
 13 14  1  0
 14 15  1  0
 16 17  1  0
 17 18  1  1
 18 19  1  0
 19 20  1  0
 20 21  1  0
 21 22  1  0
 22 23  1  0
 23 24  1  0
 23 27  2  0
 24 25  2  0
 25 26  1  0
 26 27  1  0
 26 28  1  0
 28 29  1  0
 29 30  2  0
 29 34  1  0
 30 31  1  0
 31 32  2  0
 32 33  1  0
 33 34  2  0
M  CHG  1   4   1
M  END
$$$$
