
     RDKit          3D

 34 38  0  0  0  0  0  0  0  0999 V2000
   87.1335  160.4811  174.2108 O   0  0  0  0  0  0  0  0  0  0  0  0
   86.4702  161.5046  174.8891 C   0  0  1  0  0  0  0  0  0  0  0  0
   84.9783  161.4260  174.7094 C   0  0  0  0  0  0  0  0  0  0  0  0
   84.3605  161.3712  176.0072 N   0  0  2  0  0  4  0  0  0  0  0  0
   83.1538  162.1700  175.9729 C   0  0  0  0  0  0  0  0  0  0  0  0
   82.4267  162.0116  174.6945 C   0  0  0  0  0  0  0  0  0  0  0  0
   82.2709  162.9354  173.6832 C   0  0  0  0  0  0  0  0  0  0  0  0
   82.7002  164.2072  173.5555 N   0  0  0  0  0  0  0  0  0  0  0  0
   82.4041  164.8970  172.4491 C   0  0  0  0  0  0  0  0  0  0  0  0
   81.6822  164.3048  171.4842 N   0  0  0  0  0  0  0  0  0  0  0  0
   81.2292  163.0520  171.5507 C   0  0  0  0  0  0  0  0  0  0  0  0
   80.4706  162.4303  170.5309 N   0  0  0  0  0  0  0  0  0  0  0  0
   81.5200  162.3149  172.6835 C   0  0  0  0  0  0  0  0  0  0  0  0
   81.2335  161.0546  173.0848 N   0  0  0  0  0  0  0  0  0  0  0  0
   81.7793  160.8624  174.3029 C   0  0  0  0  0  0  0  0  0  0  0  0
   85.3570  161.9032  176.9286 C   0  0  0  0  0  0  0  0  0  0  0  0
   86.6627  161.4211  176.3742 C   0  0  2  0  0  0  0  0  0  0  0  0
   87.8322  162.2690  176.8161 C   0  0  0  0  0  0  0  0  0  0  0  0
   88.3158  161.6805  178.4814 S   0  0  0  0  0  0  0  0  0  0  0  0
   88.4473  159.8528  178.4699 C   0  0  0  0  0  0  0  0  0  0  0  0
   89.8600  159.5535  178.0247 C   0  0  0  0  0  0  0  0  0  0  0  0
   90.5981  158.9213  179.1639 C   0  0  0  0  0  0  0  0  0  0  0  0
   89.7355  158.0173  179.9484 C   0  0  0  0  0  0  0  0  0  0  0  0
   88.7996  158.4238  180.8616 N   0  0  0  0  0  0  0  0  0  0  0  0
   88.1720  157.3651  181.3324 N   0  0  0  0  0  0  0  0  0  0  0  0
   88.6306  156.2664  180.7887 N   0  0  0  0  0  0  0  0  0  0  0  0
   89.6061  156.6525  179.9223 C   0  0  0  0  0  0  0  0  0  0  0  0
   88.1836  154.9028  181.0633 C   0  0  0  0  0  0  0  0  0  0  0  0
   89.1242  154.3459  182.0575 C   0  0  0  0  0  0  0  0  0  0  0  0
   89.0191  154.6970  183.3732 C   0  0  0  0  0  0  0  0  0  0  0  0
   89.9141  154.1614  184.2926 C   0  0  0  0  0  0  0  0  0  0  0  0
   90.9032  153.2854  183.9043 C   0  0  0  0  0  0  0  0  0  0  0  0
   90.9708  152.9608  182.5711 C   0  0  0  0  0  0  0  0  0  0  0  0
   90.0979  153.4776  181.6475 C   0  0  0  0  0  0  0  0  0  0  0  0
  2  1  1  6
  2  3  1  0
  2 17  1  0
  3  4  1  0
  4  5  1  6
  4 16  1  0
  5  6  1  0
  6  7  1  0
  6 15  2  0
  7  8  2  0
  7 13  1  0
  8  9  1  0
  9 10  2  0
 10 11  1  0
 11 12  1  0
 11 13  2  0
 13 14  1  0
 14 15  1  0
 16 17  1  0
 17 18  1  1
 18 19  1  0
 19 20  1  0
 20 21  1  0
 21 22  1  0
 22 23  1  0
 23 24  1  0
 23 27  2  0
 24 25  2  0
 25 26  1  0
 26 27  1  0
 26 28  1  0
 28 29  1  0
 29 30  2  0
 29 34  1  0
 30 31  1  0
 31 32  2  0
 32 33  1  0
 33 34  2  0
M  CHG  1   4   1
M  END
$$$$
