
     RDKit          3D

 34 38  0  0  0  0  0  0  0  0999 V2000
   88.1109  163.0428  179.1417 O   0  0  0  0  0  0  0  0  0  0  0  0
   86.7921  162.7083  178.8316 C   0  0  1  0  0  0  0  0  0  0  0  0
   86.2246  163.5919  177.7540 C   0  0  0  0  0  0  0  0  0  0  0  0
   85.7525  162.7614  176.6787 N   0  0  2  0  0  4  0  0  0  0  0  0
   84.5191  163.3259  176.1729 C   0  0  0  0  0  0  0  0  0  0  0  0
   83.8747  162.4375  175.1813 C   0  0  0  0  0  0  0  0  0  0  0  0
   83.7181  162.6445  173.8273 C   0  0  0  0  0  0  0  0  0  0  0  0
   84.0744  163.6713  173.0292 N   0  0  0  0  0  0  0  0  0  0  0  0
   83.7977  163.6196  171.7223 C   0  0  0  0  0  0  0  0  0  0  0  0
   83.1679  162.5405  171.2304 N   0  0  0  0  0  0  0  0  0  0  0  0
   82.7903  161.4943  171.9665 C   0  0  0  0  0  0  0  0  0  0  0  0
   82.1289  160.3576  171.4444 N   0  0  0  0  0  0  0  0  0  0  0  0
   83.0632  161.5203  173.3215 C   0  0  0  0  0  0  0  0  0  0  0  0
   82.8335  160.6640  174.3439 N   0  0  0  0  0  0  0  0  0  0  0  0
   83.3222  161.2121  175.4749 C   0  0  0  0  0  0  0  0  0  0  0  0
   85.5627  161.4420  177.2687 C   0  0  0  0  0  0  0  0  0  0  0  0
   86.6738  161.3239  178.2667 C   0  0  2  0  0  0  0  0  0  0  0  0
   86.3754  160.3198  179.3551 C   0  0  0  0  0  0  0  0  0  0  0  0
   87.6060  158.9740  179.1882 S   0  0  0  0  0  0  0  0  0  0  0  0
   89.2340  159.6860  178.7403 C   0  0  0  0  0  0  0  0  0  0  0  0
   90.2391  158.9756  179.6170 C   0  0  0  0  0  0  0  0  0  0  0  0
   90.1142  157.5005  179.3918 C   0  0  0  0  0  0  0  0  0  0  0  0
   91.1186  156.7371  180.1567 C   0  0  0  0  0  0  0  0  0  0  0  0
   91.2912  156.8087  181.5132 N   0  0  0  0  0  0  0  0  0  0  0  0
   92.2300  155.9562  181.8715 N   0  0  0  0  0  0  0  0  0  0  0  0
   92.7011  155.3124  180.8339 N   0  0  0  0  0  0  0  0  0  0  0  0
   92.0201  155.7852  179.7549 C   0  0  0  0  0  0  0  0  0  0  0  0
   93.7494  154.2947  180.8388 C   0  0  0  0  0  0  0  0  0  0  0  0
   93.6606  153.5955  179.5401 C   0  0  0  0  0  0  0  0  0  0  0  0
   94.3578  154.0605  178.4617 C   0  0  0  0  0  0  0  0  0  0  0  0
   94.2605  153.3877  177.2487 C   0  0  0  0  0  0  0  0  0  0  0  0
   93.4766  152.2636  177.1128 C   0  0  0  0  0  0  0  0  0  0  0  0
   92.7937  151.8324  178.2240 C   0  0  0  0  0  0  0  0  0  0  0  0
   92.8756  152.4812  179.4301 C   0  0  0  0  0  0  0  0  0  0  0  0
  2  1  1  6
  2  3  1  0
  2 17  1  0
  3  4  1  0
  4  5  1  1
  4 16  1  0
  5  6  1  0
  6  7  1  0
  6 15  2  0
  7  8  2  0
  7 13  1  0
  8  9  1  0
  9 10  2  0
 10 11  1  0
 11 12  1  0
 11 13  2  0
 13 14  1  0
 14 15  1  0
 16 17  1  0
 17 18  1  1
 18 19  1  0
 19 20  1  0
 20 21  1  0
 21 22  1  0
 22 23  1  0
 23 24  1  0
 23 27  2  0
 24 25  2  0
 25 26  1  0
 26 27  1  0
 26 28  1  0
 28 29  1  0
 29 30  2  0
 29 34  1  0
 30 31  1  0
 31 32  2  0
 32 33  1  0
 33 34  2  0
M  CHG  1   4   1
M  END
$$$$
