
     RDKit          3D

 34 38  0  0  0  0  0  0  0  0999 V2000
   85.0616  163.8377  179.2458 O   0  0  0  0  0  0  0  0  0  0  0  0
   85.0452  163.1505  178.0314 C   0  0  1  0  0  0  0  0  0  0  0  0
   85.6834  163.9454  176.9247 C   0  0  0  0  0  0  0  0  0  0  0  0
   86.7356  163.1582  176.3400 N   0  0  2  0  0  4  0  0  0  0  0  0
   86.7220  163.3688  174.9079 C   0  0  0  0  0  0  0  0  0  0  0  0
   85.7178  162.5147  174.2368 C   0  0  0  0  0  0  0  0  0  0  0  0
   84.3758  162.7666  174.0473 C   0  0  0  0  0  0  0  0  0  0  0  0
   83.5989  163.8090  174.4052 N   0  0  0  0  0  0  0  0  0  0  0  0
   82.2992  163.8030  174.0922 C   0  0  0  0  0  0  0  0  0  0  0  0
   81.7932  162.7535  173.4246 N   0  0  0  0  0  0  0  0  0  0  0  0
   82.5082  161.6942  173.0430 C   0  0  0  0  0  0  0  0  0  0  0  0
   81.9722  160.5910  172.3375 N   0  0  0  0  0  0  0  0  0  0  0  0
   83.8552  161.6730  173.3534 C   0  0  0  0  0  0  0  0  0  0  0  0
   84.8574  160.7905  173.1336 N   0  0  0  0  0  0  0  0  0  0  0  0
   85.9900  161.2928  173.6659 C   0  0  0  0  0  0  0  0  0  0  0  0
   86.4312  161.7802  176.7052 C   0  0  0  0  0  0  0  0  0  0  0  0
   85.8504  161.8860  178.0821 C   0  0  2  0  0  0  0  0  0  0  0  0
   84.9795  160.7047  178.4398 C   0  0  0  0  0  0  0  0  0  0  0  0
   85.6045  160.0463  180.0303 S   0  0  0  0  0  0  0  0  0  0  0  0
   87.4219  160.2661  180.1113 C   0  0  0  0  0  0  0  0  0  0  0  0
   87.9908  158.8719  180.2383 C   0  0  0  0  0  0  0  0  0  0  0  0
   88.2584  158.3361  178.8659 C   0  0  0  0  0  0  0  0  0  0  0  0
   89.0144  157.0697  178.9041 C   0  0  0  0  0  0  0  0  0  0  0  0
   88.8146  156.0119  178.0578 N   0  0  0  0  0  0  0  0  0  0  0  0
   89.6964  155.0716  178.3314 N   0  0  0  0  0  0  0  0  0  0  0  0
   90.4807  155.4344  179.3143 N   0  0  0  0  0  0  0  0  0  0  0  0
   90.0715  156.6780  179.6848 C   0  0  0  0  0  0  0  0  0  0  0  0
   91.5719  154.6553  179.8948 C   0  0  0  0  0  0  0  0  0  0  0  0
   92.7057  154.7559  178.9526 C   0  0  0  0  0  0  0  0  0  0  0  0
   93.2333  153.6281  178.3913 C   0  0  0  0  0  0  0  0  0  0  0  0
   94.2999  153.7447  177.5070 C   0  0  0  0  0  0  0  0  0  0  0  0
   94.8346  154.9726  177.1860 C   0  0  0  0  0  0  0  0  0  0  0  0
   94.2721  156.0791  177.7745 C   0  0  0  0  0  0  0  0  0  0  0  0
   93.2194  155.9865  178.6495 C   0  0  0  0  0  0  0  0  0  0  0  0
  2  1  1  1
  2  3  1  0
  2 17  1  0
  3  4  1  0
  4  5  1  6
  4 16  1  0
  5  6  1  0
  6  7  1  0
  6 15  2  0
  7  8  2  0
  7 13  1  0
  8  9  1  0
  9 10  2  0
 10 11  1  0
 11 12  1  0
 11 13  2  0
 13 14  1  0
 14 15  1  0
 16 17  1  0
 17 18  1  6
 18 19  1  0
 19 20  1  0
 20 21  1  0
 21 22  1  0
 22 23  1  0
 23 24  1  0
 23 27  2  0
 24 25  2  0
 25 26  1  0
 26 27  1  0
 26 28  1  0
 28 29  1  0
 29 30  2  0
 29 34  1  0
 30 31  1  0
 31 32  2  0
 32 33  1  0
 33 34  2  0
M  CHG  1   4   1
M  END
$$$$
