
     RDKit          3D

 34 38  0  0  0  0  0  0  0  0999 V2000
   86.2446  162.1744  179.2205 O   0  0  0  0  0  0  0  0  0  0  0  0
   85.8527  161.9592  177.8986 C   0  0  1  0  0  0  0  0  0  0  0  0
   85.7339  163.2466  177.1288 C   0  0  0  0  0  0  0  0  0  0  0  0
   86.5697  163.1636  175.9611 N   0  0  2  0  0  4  0  0  0  0  0  0
   85.8768  163.7943  174.8575 C   0  0  0  0  0  0  0  0  0  0  0  0
   85.1947  162.8019  173.9985 C   0  0  0  0  0  0  0  0  0  0  0  0
   83.8422  162.5597  173.8858 C   0  0  0  0  0  0  0  0  0  0  0  0
   82.7770  163.1143  174.4990 N   0  0  0  0  0  0  0  0  0  0  0  0
   81.5459  162.6859  174.2017 C   0  0  0  0  0  0  0  0  0  0  0  0
   81.3965  161.7077  173.2940 N   0  0  0  0  0  0  0  0  0  0  0  0
   82.4084  161.1199  172.6539 C   0  0  0  0  0  0  0  0  0  0  0  0
   82.2472  160.0909  171.6962 N   0  0  0  0  0  0  0  0  0  0  0  0
   83.6928  161.5426  172.9417 C   0  0  0  0  0  0  0  0  0  0  0  0
   84.9215  161.1851  172.5012 N   0  0  0  0  0  0  0  0  0  0  0  0
   85.8377  161.9435  173.1367 C   0  0  0  0  0  0  0  0  0  0  0  0
   86.7850  161.7382  175.7445 C   0  0  0  0  0  0  0  0  0  0  0  0
   86.8650  161.1659  177.1268 C   0  0  2  0  0  0  0  0  0  0  0  0
   86.5404  159.6911  177.1667 C   0  0  0  0  0  0  0  0  0  0  0  0
   88.0807  158.7965  176.7415 S   0  0  0  0  0  0  0  0  0  0  0  0
   89.0548  158.4978  178.2645 C   0  0  0  0  0  0  0  0  0  0  0  0
   90.3791  157.9433  177.7932 C   0  0  0  0  0  0  0  0  0  0  0  0
   90.3111  156.4477  177.8237 C   0  0  0  0  0  0  0  0  0  0  0  0
   90.9317  155.8903  179.0405 C   0  0  0  0  0  0  0  0  0  0  0  0
   92.2532  155.5526  179.1619 N   0  0  0  0  0  0  0  0  0  0  0  0
   92.4794  155.1425  180.3937 N   0  0  0  0  0  0  0  0  0  0  0  0
   91.3857  155.1844  181.1113 N   0  0  0  0  0  0  0  0  0  0  0  0
   90.4094  155.6487  180.2851 C   0  0  0  0  0  0  0  0  0  0  0  0
   91.2465  154.8047  182.5153 C   0  0  0  0  0  0  0  0  0  0  0  0
   90.5654  155.9303  183.1881 C   0  0  0  0  0  0  0  0  0  0  0  0
   89.2012  155.9805  183.2298 C   0  0  0  0  0  0  0  0  0  0  0  0
   88.5801  157.0483  183.8680 C   0  0  0  0  0  0  0  0  0  0  0  0
   89.3115  158.0550  184.4583 C   0  0  0  0  0  0  0  0  0  0  0  0
   90.6805  157.9626  184.3917 C   0  0  0  0  0  0  0  0  0  0  0  0
   91.3134  156.9179  183.7670 C   0  0  0  0  0  0  0  0  0  0  0  0
  2  1  1  1
  2  3  1  0
  2 17  1  0
  3  4  1  0
  4  5  1  6
  4 16  1  0
  5  6  1  0
  6  7  1  0
  6 15  2  0
  7  8  2  0
  7 13  1  0
  8  9  1  0
  9 10  2  0
 10 11  1  0
 11 12  1  0
 11 13  2  0
 13 14  1  0
 14 15  1  0
 16 17  1  0
 17 18  1  6
 18 19  1  0
 19 20  1  0
 20 21  1  0
 21 22  1  0
 22 23  1  0
 23 24  1  0
 23 27  2  0
 24 25  2  0
 25 26  1  0
 26 27  1  0
 26 28  1  0
 28 29  1  0
 29 30  2  0
 29 34  1  0
 30 31  1  0
 31 32  2  0
 32 33  1  0
 33 34  2  0
M  CHG  1   4   1
M  END
$$$$
