
     RDKit          3D

 34 38  0  0  0  0  0  0  0  0999 V2000
   88.5740  163.3222  179.3738 O   0  0  0  0  0  0  0  0  0  0  0  0
   87.4026  162.9262  178.7270 C   0  0  1  0  0  0  0  0  0  0  0  0
   86.8811  163.9922  177.8019 C   0  0  0  0  0  0  0  0  0  0  0  0
   86.7448  163.4318  176.4841 N   0  0  2  0  0  4  0  0  0  0  0  0
   85.5355  163.9576  175.8869 C   0  0  0  0  0  0  0  0  0  0  0  0
   85.2215  163.2904  174.6046 C   0  0  0  0  0  0  0  0  0  0  0  0
   84.0114  162.7821  174.1830 C   0  0  0  0  0  0  0  0  0  0  0  0
   82.8038  162.7273  174.7804 N   0  0  0  0  0  0  0  0  0  0  0  0
   81.7733  162.1677  174.1383 C   0  0  0  0  0  0  0  0  0  0  0  0
   81.9644  161.6702  172.9058 N   0  0  0  0  0  0  0  0  0  0  0  0
   83.1323  161.6940  172.2621 C   0  0  0  0  0  0  0  0  0  0  0  0
   83.3296  161.1708  170.9623 N   0  0  0  0  0  0  0  0  0  0  0  0
   84.2158  162.2664  172.9021 C   0  0  0  0  0  0  0  0  0  0  0  0
   85.5123  162.4599  172.5658 N   0  0  0  0  0  0  0  0  0  0  0  0
   86.1292  163.0800  173.5922 C   0  0  0  0  0  0  0  0  0  0  0  0
   86.6872  161.9892  176.6854 C   0  0  0  0  0  0  0  0  0  0  0  0
   87.6190  161.7420  177.8322 C   0  0  2  0  0  0  0  0  0  0  0  0
   87.3186  160.4527  178.5600 C   0  0  0  0  0  0  0  0  0  0  0  0
   87.4100  159.1088  177.3194 S   0  0  0  0  0  0  0  0  0  0  0  0
   88.4642  157.7545  177.9615 C   0  0  0  0  0  0  0  0  0  0  0  0
   87.8810  157.3941  179.3082 C   0  0  0  0  0  0  0  0  0  0  0  0
   88.3572  156.0258  179.6866 C   0  0  0  0  0  0  0  0  0  0  0  0
   89.8282  155.9205  179.6441 C   0  0  0  0  0  0  0  0  0  0  0  0
   90.5465  154.8199  180.0284 N   0  0  0  0  0  0  0  0  0  0  0  0
   91.8259  155.0439  179.8060 N   0  0  0  0  0  0  0  0  0  0  0  0
   92.0125  156.2334  179.2928 N   0  0  0  0  0  0  0  0  0  0  0  0
   90.7783  156.7955  179.1837 C   0  0  0  0  0  0  0  0  0  0  0  0
   93.2912  156.8327  178.9179 C   0  0  0  0  0  0  0  0  0  0  0  0
   94.3324  156.1038  179.6715 C   0  0  0  0  0  0  0  0  0  0  0  0
   94.7113  154.8511  179.2813 C   0  0  0  0  0  0  0  0  0  0  0  0
   95.6931  154.1825  180.0041 C   0  0  0  0  0  0  0  0  0  0  0  0
   96.2904  154.7570  181.1040 C   0  0  0  0  0  0  0  0  0  0  0  0
   95.8778  156.0182  181.4594 C   0  0  0  0  0  0  0  0  0  0  0  0
   94.9109  156.6954  180.7602 C   0  0  0  0  0  0  0  0  0  0  0  0
  2  1  1  6
  2  3  1  0
  2 17  1  0
  3  4  1  0
  4  5  1  1
  4 16  1  0
  5  6  1  0
  6  7  1  0
  6 15  2  0
  7  8  2  0
  7 13  1  0
  8  9  1  0
  9 10  2  0
 10 11  1  0
 11 12  1  0
 11 13  2  0
 13 14  1  0
 14 15  1  0
 16 17  1  0
 17 18  1  1
 18 19  1  0
 19 20  1  0
 20 21  1  0
 21 22  1  0
 22 23  1  0
 23 24  1  0
 23 27  2  0
 24 25  2  0
 25 26  1  0
 26 27  1  0
 26 28  1  0
 28 29  1  0
 29 30  2  0
 29 34  1  0
 30 31  1  0
 31 32  2  0
 32 33  1  0
 33 34  2  0
M  CHG  1   4   1
M  END
$$$$
