
     RDKit          3D

 34 38  0  0  0  0  0  0  0  0999 V2000
   82.7736  159.8436  172.5094 O   0  0  0  0  0  0  0  0  0  0  0  0
   83.7916  159.9169  173.4610 C   0  0  1  0  0  0  0  0  0  0  0  0
   84.4986  161.2448  173.4297 C   0  0  0  0  0  0  0  0  0  0  0  0
   84.4408  161.8282  174.7432 N   0  0  2  0  0  4  0  0  0  0  0  0
   85.7086  162.4728  175.0131 C   0  0  0  0  0  0  0  0  0  0  0  0
   85.5382  163.7078  175.8090 C   0  0  0  0  0  0  0  0  0  0  0  0
   85.2657  163.8224  177.1555 C   0  0  0  0  0  0  0  0  0  0  0  0
   85.0687  162.8942  178.1135 N   0  0  0  0  0  0  0  0  0  0  0  0
   84.8149  163.2820  179.3676 C   0  0  0  0  0  0  0  0  0  0  0  0
   84.7617  164.5942  179.6471 N   0  0  0  0  0  0  0  0  0  0  0  0
   84.9474  165.5594  178.7455 C   0  0  0  0  0  0  0  0  0  0  0  0
   84.8929  166.9415  179.0440 N   0  0  0  0  0  0  0  0  0  0  0  0
   85.2113  165.1878  177.4404 C   0  0  0  0  0  0  0  0  0  0  0  0
   85.4444  165.8722  176.2963 N   0  0  0  0  0  0  0  0  0  0  0  0
   85.6436  164.9828  175.3024 C   0  0  0  0  0  0  0  0  0  0  0  0
   84.1767  160.7144  175.6458 C   0  0  0  0  0  0  0  0  0  0  0  0
   83.2684  159.8163  174.8631 C   0  0  2  0  0  0  0  0  0  0  0  0
   83.3004  158.3868  175.3505 C   0  0  0  0  0  0  0  0  0  0  0  0
   82.9068  158.4264  177.1386 S   0  0  0  0  0  0  0  0  0  0  0  0
   84.2551  157.6175  178.0796 C   0  0  0  0  0  0  0  0  0  0  0  0
   84.9773  158.7376  178.7918 C   0  0  0  0  0  0  0  0  0  0  0  0
   86.3571  158.8570  178.2225 C   0  0  0  0  0  0  0  0  0  0  0  0
   87.3306  158.0218  178.9514 C   0  0  0  0  0  0  0  0  0  0  0  0
   87.0455  156.8186  179.5398 N   0  0  0  0  0  0  0  0  0  0  0  0
   88.1525  156.3180  180.0502 N   0  0  0  0  0  0  0  0  0  0  0  0
   89.1694  157.1147  179.8395 N   0  0  0  0  0  0  0  0  0  0  0  0
   88.6770  158.1826  179.1552 C   0  0  0  0  0  0  0  0  0  0  0  0
   90.5517  156.8973  180.2599 C   0  0  0  0  0  0  0  0  0  0  0  0
   91.3498  156.7661  179.0234 C   0  0  0  0  0  0  0  0  0  0  0  0
   91.1816  155.6820  178.2100 C   0  0  0  0  0  0  0  0  0  0  0  0
   91.9426  155.5778  177.0510 C   0  0  0  0  0  0  0  0  0  0  0  0
   92.8614  156.5443  176.7069 C   0  0  0  0  0  0  0  0  0  0  0  0
   92.9966  157.6167  177.5547 C   0  0  0  0  0  0  0  0  0  0  0  0
   92.2559  157.7390  178.7030 C   0  0  0  0  0  0  0  0  0  0  0  0
  2  1  1  6
  2  3  1  0
  2 17  1  0
  3  4  1  0
  4  5  1  1
  4 16  1  0
  5  6  1  0
  6  7  1  0
  6 15  2  0
  7  8  2  0
  7 13  1  0
  8  9  1  0
  9 10  2  0
 10 11  1  0
 11 12  1  0
 11 13  2  0
 13 14  1  0
 14 15  1  0
 16 17  1  0
 17 18  1  1
 18 19  1  0
 19 20  1  0
 20 21  1  0
 21 22  1  0
 22 23  1  0
 23 24  1  0
 23 27  2  0
 24 25  2  0
 25 26  1  0
 26 27  1  0
 26 28  1  0
 28 29  1  0
 29 30  2  0
 29 34  1  0
 30 31  1  0
 31 32  2  0
 32 33  1  0
 33 34  2  0
M  CHG  1   4   1
M  END
$$$$
