
     RDKit          3D

 34 38  0  0  0  0  0  0  0  0999 V2000
   87.5133  162.7558  178.9327 O   0  0  0  0  0  0  0  0  0  0  0  0
   86.4781  162.4382  178.0524 C   0  0  1  0  0  0  0  0  0  0  0  0
   85.9535  163.6534  177.3367 C   0  0  0  0  0  0  0  0  0  0  0  0
   86.0373  163.4248  175.9190 N   0  0  2  0  0  4  0  0  0  0  0  0
   84.8558  163.9826  175.2957 C   0  0  0  0  0  0  0  0  0  0  0  0
   84.3590  163.1266  174.1964 C   0  0  0  0  0  0  0  0  0  0  0  0
   83.5131  162.0411  174.2779 C   0  0  0  0  0  0  0  0  0  0  0  0
   82.9157  161.4458  175.3300 N   0  0  0  0  0  0  0  0  0  0  0  0
   82.1273  160.3850  175.1294 C   0  0  0  0  0  0  0  0  0  0  0  0
   81.9463  159.9333  173.8779 N   0  0  0  0  0  0  0  0  0  0  0  0
   82.5081  160.4775  172.7975 C   0  0  0  0  0  0  0  0  0  0  0  0
   82.3135  160.0004  171.4797 N   0  0  0  0  0  0  0  0  0  0  0  0
   83.3288  161.5758  172.9749 C   0  0  0  0  0  0  0  0  0  0  0  0
   84.0446  162.3604  172.1361 N   0  0  0  0  0  0  0  0  0  0  0  0
   84.6722  163.3031  172.8682 C   0  0  0  0  0  0  0  0  0  0  0  0
   86.1180  161.9771  175.7686 C   0  0  0  0  0  0  0  0  0  0  0  0
   86.9297  161.5313  176.9463 C   0  0  2  0  0  0  0  0  0  0  0  0
   86.6916  160.0831  177.3037 C   0  0  0  0  0  0  0  0  0  0  0  0
   86.3591  160.0279  179.1037 S   0  0  0  0  0  0  0  0  0  0  0  0
   87.9034  160.3873  180.0222 C   0  0  0  0  0  0  0  0  0  0  0  0
   88.0989  159.2151  180.9556 C   0  0  0  0  0  0  0  0  0  0  0  0
   88.6541  158.0658  180.1725 C   0  0  0  0  0  0  0  0  0  0  0  0
   89.6105  157.2681  180.9634 C   0  0  0  0  0  0  0  0  0  0  0  0
   90.8458  157.6997  181.3668 N   0  0  0  0  0  0  0  0  0  0  0  0
   91.4091  156.7614  182.1009 N   0  0  0  0  0  0  0  0  0  0  0  0
   90.6240  155.7206  182.2166 N   0  0  0  0  0  0  0  0  0  0  0  0
   89.4971  156.0176  181.5144 C   0  0  0  0  0  0  0  0  0  0  0  0
   90.9075  154.4894  182.9504 C   0  0  0  0  0  0  0  0  0  0  0  0
   91.1023  153.4327  181.9361 C   0  0  0  0  0  0  0  0  0  0  0  0
   90.2052  152.4081  181.8320 C   0  0  0  0  0  0  0  0  0  0  0  0
   90.4069  151.4239  180.8706 C   0  0  0  0  0  0  0  0  0  0  0  0
   91.4913  151.4612  180.0225 C   0  0  0  0  0  0  0  0  0  0  0  0
   92.3670  152.5102  180.1636 C   0  0  0  0  0  0  0  0  0  0  0  0
   92.1868  153.4916  181.1053 C   0  0  0  0  0  0  0  0  0  0  0  0
  2  1  1  1
  2  3  1  0
  2 17  1  0
  3  4  1  0
  4  5  1  6
  4 16  1  0
  5  6  1  0
  6  7  1  0
  6 15  2  0
  7  8  2  0
  7 13  1  0
  8  9  1  0
  9 10  2  0
 10 11  1  0
 11 12  1  0
 11 13  2  0
 13 14  1  0
 14 15  1  0
 16 17  1  0
 17 18  1  1
 18 19  1  0
 19 20  1  0
 20 21  1  0
 21 22  1  0
 22 23  1  0
 23 24  1  0
 23 27  2  0
 24 25  2  0
 25 26  1  0
 26 27  1  0
 26 28  1  0
 28 29  1  0
 29 30  2  0
 29 34  1  0
 30 31  1  0
 31 32  2  0
 32 33  1  0
 33 34  2  0
M  CHG  1   4   1
M  END
$$$$
