
     RDKit          3D

 34 38  0  0  0  0  0  0  0  0999 V2000
   89.4539  162.9240  181.7878 O   0  0  0  0  0  0  0  0  0  0  0  0
   88.4096  162.6446  180.9052 C   0  0  1  0  0  0  0  0  0  0  0  0
   87.8353  161.2717  181.1275 C   0  0  0  0  0  0  0  0  0  0  0  0
   86.4218  161.3965  181.3625 N   0  0  2  0  0  4  0  0  0  0  0  0
   85.7496  160.3000  180.6980 C   0  0  0  0  0  0  0  0  0  0  0  0
   85.4859  160.5999  179.2738 C   0  0  0  0  0  0  0  0  0  0  0  0
   84.5174  161.4244  178.7422 C   0  0  0  0  0  0  0  0  0  0  0  0
   83.5527  162.1663  179.3229 N   0  0  0  0  0  0  0  0  0  0  0  0
   82.7268  162.8905  178.5609 C   0  0  0  0  0  0  0  0  0  0  0  0
   82.8770  162.8633  177.2268 N   0  0  0  0  0  0  0  0  0  0  0  0
   83.8099  162.1511  176.5933 C   0  0  0  0  0  0  0  0  0  0  0  0
   83.9669  162.1265  175.1873 N   0  0  0  0  0  0  0  0  0  0  0  0
   84.6780  161.3923  177.3560 C   0  0  0  0  0  0  0  0  0  0  0  0
   85.7137  160.5711  177.0652 N   0  0  0  0  0  0  0  0  0  0  0  0
   86.2092  160.0864  178.2219 C   0  0  0  0  0  0  0  0  0  0  0  0
   86.0546  162.6944  180.8098 C   0  0  0  0  0  0  0  0  0  0  0  0
   87.2402  163.5638  181.0981 C   0  0  2  0  0  0  0  0  0  0  0  0
   87.3295  164.7537  180.1718 C   0  0  0  0  0  0  0  0  0  0  0  0
   86.6803  164.2123  178.5474 S   0  0  0  0  0  0  0  0  0  0  0  0
   88.0691  163.6621  177.4862 C   0  0  0  0  0  0  0  0  0  0  0  0
   87.4407  162.8027  176.4138 C   0  0  0  0  0  0  0  0  0  0  0  0
   87.4281  163.5716  175.1290 C   0  0  0  0  0  0  0  0  0  0  0  0
   87.3734  162.6827  173.9527 C   0  0  0  0  0  0  0  0  0  0  0  0
   88.3306  162.6156  172.9759 N   0  0  0  0  0  0  0  0  0  0  0  0
   87.9949  161.6804  172.1103 N   0  0  0  0  0  0  0  0  0  0  0  0
   86.8653  161.1116  172.4473 N   0  0  0  0  0  0  0  0  0  0  0  0
   86.4622  161.7228  173.5942 C   0  0  0  0  0  0  0  0  0  0  0  0
   86.1787  160.0394  171.7307 C   0  0  0  0  0  0  0  0  0  0  0  0
   86.2353  158.8488  172.6039 C   0  0  0  0  0  0  0  0  0  0  0  0
   87.4016  158.1509  172.7376 C   0  0  0  0  0  0  0  0  0  0  0  0
   87.4334  157.0334  173.5645 C   0  0  0  0  0  0  0  0  0  0  0  0
   86.3144  156.6166  174.2504 C   0  0  0  0  0  0  0  0  0  0  0  0
   85.1639  157.3491  174.0856 C   0  0  0  0  0  0  0  0  0  0  0  0
   85.1108  158.4545  173.2748 C   0  0  0  0  0  0  0  0  0  0  0  0
  2  1  1  1
  2  3  1  0
  2 17  1  0
  3  4  1  0
  4  5  1  6
  4 16  1  0
  5  6  1  0
  6  7  1  0
  6 15  2  0
  7  8  2  0
  7 13  1  0
  8  9  1  0
  9 10  2  0
 10 11  1  0
 11 12  1  0
 11 13  2  0
 13 14  1  0
 14 15  1  0
 16 17  1  0
 17 18  1  6
 18 19  1  0
 19 20  1  0
 20 21  1  0
 21 22  1  0
 22 23  1  0
 23 24  1  0
 23 27  2  0
 24 25  2  0
 25 26  1  0
 26 27  1  0
 26 28  1  0
 28 29  1  0
 29 30  2  0
 29 34  1  0
 30 31  1  0
 31 32  2  0
 32 33  1  0
 33 34  2  0
M  CHG  1   4   1
M  END
$$$$
