
     RDKit          3D

 34 38  0  0  0  0  0  0  0  0999 V2000
   88.2321  164.0506  178.0816 O   0  0  0  0  0  0  0  0  0  0  0  0
   87.0478  163.3133  178.1167 C   0  0  1  0  0  0  0  0  0  0  0  0
   86.0290  163.8358  177.1404 C   0  0  0  0  0  0  0  0  0  0  0  0
   85.6304  162.7610  176.2715 N   0  0  2  0  0  4  0  0  0  0  0  0
   84.2074  162.8724  176.0300 C   0  0  0  0  0  0  0  0  0  0  0  0
   83.7714  162.0103  174.9099 C   0  0  0  0  0  0  0  0  0  0  0  0
   83.2812  162.3948  173.6802 C   0  0  0  0  0  0  0  0  0  0  0  0
   83.0481  163.6113  173.1474 N   0  0  0  0  0  0  0  0  0  0  0  0
   82.5585  163.7070  171.9070 C   0  0  0  0  0  0  0  0  0  0  0  0
   82.3087  162.5836  171.2152 N   0  0  0  0  0  0  0  0  0  0  0  0
   82.5177  161.3531  171.6855 C   0  0  0  0  0  0  0  0  0  0  0  0
   82.2554  160.1714  170.9529 N   0  0  0  0  0  0  0  0  0  0  0  0
   83.0232  161.2237  172.9657 C   0  0  0  0  0  0  0  0  0  0  0  0
   83.3494  160.1671  173.7459 N   0  0  0  0  0  0  0  0  0  0  0  0
   83.8038  160.6348  174.9262 C   0  0  0  0  0  0  0  0  0  0  0  0
   85.9821  161.5401  176.9861 C   0  0  0  0  0  0  0  0  0  0  0  0
   87.2527  161.8870  177.7002 C   0  0  2  0  0  0  0  0  0  0  0  0
   87.5066  161.0049  178.8999 C   0  0  0  0  0  0  0  0  0  0  0  0
   87.3937  159.2720  178.3185 S   0  0  0  0  0  0  0  0  0  0  0  0
   89.0659  158.6633  177.8816 C   0  0  0  0  0  0  0  0  0  0  0  0
   89.6201  158.0616  179.1521 C   0  0  0  0  0  0  0  0  0  0  0  0
   89.0487  156.6879  179.3214 C   0  0  0  0  0  0  0  0  0  0  0  0
   90.0445  155.7356  179.8487 C   0  0  0  0  0  0  0  0  0  0  0  0
   91.2005  155.3759  179.2089 N   0  0  0  0  0  0  0  0  0  0  0  0
   91.8821  154.5564  179.9837 N   0  0  0  0  0  0  0  0  0  0  0  0
   91.2522  154.3423  181.1108 N   0  0  0  0  0  0  0  0  0  0  0  0
   90.1040  155.0695  181.0458 C   0  0  0  0  0  0  0  0  0  0  0  0
   91.6958  153.4904  182.2118 C   0  0  0  0  0  0  0  0  0  0  0  0
   91.1080  152.1561  181.9720 C   0  0  0  0  0  0  0  0  0  0  0  0
   91.9127  151.0551  181.8983 C   0  0  0  0  0  0  0  0  0  0  0  0
   91.3394  149.8087  181.6723 C   0  0  0  0  0  0  0  0  0  0  0  0
   89.9785  149.6618  181.5213 C   0  0  0  0  0  0  0  0  0  0  0  0
   89.2085  150.7966  181.6031 C   0  0  0  0  0  0  0  0  0  0  0  0
   89.7537  152.0358  181.8255 C   0  0  0  0  0  0  0  0  0  0  0  0
  2  1  1  6
  2  3  1  0
  2 17  1  0
  3  4  1  0
  4  5  1  1
  4 16  1  0
  5  6  1  0
  6  7  1  0
  6 15  2  0
  7  8  2  0
  7 13  1  0
  8  9  1  0
  9 10  2  0
 10 11  1  0
 11 12  1  0
 11 13  2  0
 13 14  1  0
 14 15  1  0
 16 17  1  0
 17 18  1  1
 18 19  1  0
 19 20  1  0
 20 21  1  0
 21 22  1  0
 22 23  1  0
 23 24  1  0
 23 27  2  0
 24 25  2  0
 25 26  1  0
 26 27  1  0
 26 28  1  0
 28 29  1  0
 29 30  2  0
 29 34  1  0
 30 31  1  0
 31 32  2  0
 32 33  1  0
 33 34  2  0
M  CHG  1   4   1
M  END
$$$$
