
     RDKit          3D

 34 38  0  0  0  0  0  0  0  0999 V2000
   84.9885  164.1787  178.8681 O   0  0  0  0  0  0  0  0  0  0  0  0
   85.0584  163.3345  177.7591 C   0  0  1  0  0  0  0  0  0  0  0  0
   85.6823  164.0148  176.5708 C   0  0  0  0  0  0  0  0  0  0  0  0
   86.8025  163.2296  176.1264 N   0  0  2  0  0  4  0  0  0  0  0  0
   86.8251  163.2438  174.6791 C   0  0  0  0  0  0  0  0  0  0  0  0
   85.7191  162.4468  174.1048 C   0  0  0  0  0  0  0  0  0  0  0  0
   84.4001  162.8135  173.9425 C   0  0  0  0  0  0  0  0  0  0  0  0
   83.7395  163.9480  174.2503 N   0  0  0  0  0  0  0  0  0  0  0  0
   82.4335  164.0460  173.9820 C   0  0  0  0  0  0  0  0  0  0  0  0
   81.8050  163.0072  173.4086 N   0  0  0  0  0  0  0  0  0  0  0  0
   82.4015  161.8603  173.0804 C   0  0  0  0  0  0  0  0  0  0  0  0
   81.7365  160.7684  172.4741 N   0  0  0  0  0  0  0  0  0  0  0  0
   83.7518  161.7305  173.3465 C   0  0  0  0  0  0  0  0  0  0  0  0
   84.6571  160.7424  173.1574 N   0  0  0  0  0  0  0  0  0  0  0  0
   85.8522  161.1682  173.6143 C   0  0  0  0  0  0  0  0  0  0  0  0
   86.5747  161.8958  176.6687 C   0  0  0  0  0  0  0  0  0  0  0  0
   85.9408  162.1464  178.0029 C   0  0  2  0  0  0  0  0  0  0  0  0
   85.1357  160.9674  178.4964 C   0  0  0  0  0  0  0  0  0  0  0  0
   86.2087  160.0384  179.6537 S   0  0  0  0  0  0  0  0  0  0  0  0
   87.3411  158.9562  178.7028 C   0  0  0  0  0  0  0  0  0  0  0  0
   86.6572  157.6100  178.6445 C   0  0  0  0  0  0  0  0  0  0  0  0
   87.2576  156.7213  179.6894 C   0  0  0  0  0  0  0  0  0  0  0  0
   88.5646  157.2215  180.1567 C   0  0  0  0  0  0  0  0  0  0  0  0
   88.7936  158.4814  180.6417 N   0  0  0  0  0  0  0  0  0  0  0  0
   90.0522  158.5723  181.0215 N   0  0  0  0  0  0  0  0  0  0  0  0
   90.6862  157.4450  180.8210 N   0  0  0  0  0  0  0  0  0  0  0  0
   89.7751  156.5898  180.2825 C   0  0  0  0  0  0  0  0  0  0  0  0
   92.0903  157.1678  181.1148 C   0  0  0  0  0  0  0  0  0  0  0  0
   92.6604  156.5564  179.8965 C   0  0  0  0  0  0  0  0  0  0  0  0
   93.1022  157.3472  178.8744 C   0  0  0  0  0  0  0  0  0  0  0  0
   93.6355  156.7518  177.7366 C   0  0  0  0  0  0  0  0  0  0  0  0
   93.7271  155.3827  177.6194 C   0  0  0  0  0  0  0  0  0  0  0  0
   93.2706  154.6273  178.6722 C   0  0  0  0  0  0  0  0  0  0  0  0
   92.7410  155.1944  179.8036 C   0  0  0  0  0  0  0  0  0  0  0  0
  2  1  1  1
  2  3  1  0
  2 17  1  0
  3  4  1  0
  4  5  1  6
  4 16  1  0
  5  6  1  0
  6  7  1  0
  6 15  2  0
  7  8  2  0
  7 13  1  0
  8  9  1  0
  9 10  2  0
 10 11  1  0
 11 12  1  0
 11 13  2  0
 13 14  1  0
 14 15  1  0
 16 17  1  0
 17 18  1  6
 18 19  1  0
 19 20  1  0
 20 21  1  0
 21 22  1  0
 22 23  1  0
 23 24  1  0
 23 27  2  0
 24 25  2  0
 25 26  1  0
 26 27  1  0
 26 28  1  0
 28 29  1  0
 29 30  2  0
 29 34  1  0
 30 31  1  0
 31 32  2  0
 32 33  1  0
 33 34  2  0
M  CHG  1   4   1
M  END
$$$$
