
     RDKit          3D

 34 38  0  0  0  0  0  0  0  0999 V2000
   85.4599  162.1320  179.3887 O   0  0  0  0  0  0  0  0  0  0  0  0
   85.1852  161.9055  178.0394 C   0  0  1  0  0  0  0  0  0  0  0  0
   85.4936  163.1094  177.1911 C   0  0  0  0  0  0  0  0  0  0  0  0
   86.4121  162.7196  176.1551 N   0  0  2  0  0  4  0  0  0  0  0  0
   86.0405  163.4028  174.9342 C   0  0  0  0  0  0  0  0  0  0  0  0
   85.2708  162.5248  174.0261 C   0  0  0  0  0  0  0  0  0  0  0  0
   83.9195  162.5551  173.7550 C   0  0  0  0  0  0  0  0  0  0  0  0
   82.9289  163.3448  174.2168 N   0  0  0  0  0  0  0  0  0  0  0  0
   81.6782  163.1586  173.7827 C   0  0  0  0  0  0  0  0  0  0  0  0
   81.4347  162.1844  172.8913 N   0  0  0  0  0  0  0  0  0  0  0  0
   82.3696  161.3715  172.3972 C   0  0  0  0  0  0  0  0  0  0  0  0
   82.1098  160.3472  171.4562 N   0  0  0  0  0  0  0  0  0  0  0  0
   83.6721  161.5407  172.8285 C   0  0  0  0  0  0  0  0  0  0  0  0
   84.8425  160.9198  172.5526 N   0  0  0  0  0  0  0  0  0  0  0  0
   85.8169  161.5100  173.2743 C   0  0  0  0  0  0  0  0  0  0  0  0
   86.2775  161.2720  176.0486 C   0  0  0  0  0  0  0  0  0  0  0  0
   86.0434  160.8214  177.4581 C   0  0  2  0  0  0  0  0  0  0  0  0
   85.3480  159.4825  177.5341 C   0  0  0  0  0  0  0  0  0  0  0  0
   85.3960  158.9578  179.2880 S   0  0  0  0  0  0  0  0  0  0  0  0
   87.0484  158.2665  179.6746 C   0  0  0  0  0  0  0  0  0  0  0  0
   87.3960  158.7971  181.0461 C   0  0  0  0  0  0  0  0  0  0  0  0
   88.7833  158.3540  181.3944 C   0  0  0  0  0  0  0  0  0  0  0  0
   89.7079  158.4808  180.2518 C   0  0  0  0  0  0  0  0  0  0  0  0
   90.4242  159.6066  179.9445 N   0  0  0  0  0  0  0  0  0  0  0  0
   91.1900  159.3561  178.9017 N   0  0  0  0  0  0  0  0  0  0  0  0
   91.0318  158.1247  178.4874 N   0  0  0  0  0  0  0  0  0  0  0  0
   90.1117  157.5623  179.3170 C   0  0  0  0  0  0  0  0  0  0  0  0
   91.7074  157.4888  177.3587 C   0  0  0  0  0  0  0  0  0  0  0  0
   92.7066  156.5653  177.9349 C   0  0  0  0  0  0  0  0  0  0  0  0
   92.3300  155.3205  178.3522 C   0  0  0  0  0  0  0  0  0  0  0  0
   93.2860  154.4668  178.8913 C   0  0  0  0  0  0  0  0  0  0  0  0
   94.6030  154.8502  179.0130 C   0  0  0  0  0  0  0  0  0  0  0  0
   94.9359  156.1109  178.5801 C   0  0  0  0  0  0  0  0  0  0  0  0
   94.0085  156.9689  178.0452 C   0  0  0  0  0  0  0  0  0  0  0  0
  2  1  1  1
  2  3  1  0
  2 17  1  0
  3  4  1  0
  4  5  1  6
  4 16  1  0
  5  6  1  0
  6  7  1  0
  6 15  2  0
  7  8  2  0
  7 13  1  0
  8  9  1  0
  9 10  2  0
 10 11  1  0
 11 12  1  0
 11 13  2  0
 13 14  1  0
 14 15  1  0
 16 17  1  0
 17 18  1  6
 18 19  1  0
 19 20  1  0
 20 21  1  0
 21 22  1  0
 22 23  1  0
 23 24  1  0
 23 27  2  0
 24 25  2  0
 25 26  1  0
 26 27  1  0
 26 28  1  0
 28 29  1  0
 29 30  2  0
 29 34  1  0
 30 31  1  0
 31 32  2  0
 32 33  1  0
 33 34  2  0
M  CHG  1   4   1
M  END
$$$$
