
     RDKit          3D

 34 38  0  0  0  0  0  0  0  0999 V2000
   88.0472  162.5853  179.2980 O   0  0  0  0  0  0  0  0  0  0  0  0
   86.8636  162.1031  178.7377 C   0  0  1  0  0  0  0  0  0  0  0  0
   86.0755  163.1916  178.0609 C   0  0  0  0  0  0  0  0  0  0  0  0
   85.8361  162.8061  176.6960 N   0  0  2  0  0  4  0  0  0  0  0  0
   84.4943  163.2121  176.3351 C   0  0  0  0  0  0  0  0  0  0  0  0
   83.9997  162.4804  175.1485 C   0  0  0  0  0  0  0  0  0  0  0  0
   83.8393  162.9520  173.8630 C   0  0  0  0  0  0  0  0  0  0  0  0
   84.0606  164.1653  173.3180 N   0  0  0  0  0  0  0  0  0  0  0  0
   83.8172  164.3605  172.0180 C   0  0  0  0  0  0  0  0  0  0  0  0
   83.3554  163.3384  171.2796 N   0  0  0  0  0  0  0  0  0  0  0  0
   83.1167  162.1168  171.7590 C   0  0  0  0  0  0  0  0  0  0  0  0
   82.6322  161.0414  170.9775 N   0  0  0  0  0  0  0  0  0  0  0  0
   83.3593  161.8861  173.1003 C   0  0  0  0  0  0  0  0  0  0  0  0
   83.2351  160.8061  173.9065 N   0  0  0  0  0  0  0  0  0  0  0  0
   83.6212  161.1576  175.1498 C   0  0  0  0  0  0  0  0  0  0  0  0
   86.0080  161.3588  176.6709 C   0  0  0  0  0  0  0  0  0  0  0  0
   87.1156  161.1046  177.6472 C   0  0  2  0  0  0  0  0  0  0  0  0
   87.1014  159.6953  178.1909 C   0  0  0  0  0  0  0  0  0  0  0  0
   88.7665  159.3762  178.8831 S   0  0  0  0  0  0  0  0  0  0  0  0
   90.0335  160.1533  177.8114 C   0  0  0  0  0  0  0  0  0  0  0  0
   91.3566  159.8777  178.4873 C   0  0  0  0  0  0  0  0  0  0  0  0
   92.1476  158.9397  177.6290 C   0  0  0  0  0  0  0  0  0  0  0  0
   92.0102  157.5381  178.0688 C   0  0  0  0  0  0  0  0  0  0  0  0
   91.0803  156.6541  177.5902 N   0  0  0  0  0  0  0  0  0  0  0  0
   91.2757  155.4793  178.1542 N   0  0  0  0  0  0  0  0  0  0  0  0
   92.2851  155.5195  178.9863 N   0  0  0  0  0  0  0  0  0  0  0  0
   92.7568  156.7951  178.9467 C   0  0  0  0  0  0  0  0  0  0  0  0
   92.7958  154.4147  179.7948 C   0  0  0  0  0  0  0  0  0  0  0  0
   91.9184  154.3226  180.9801 C   0  0  0  0  0  0  0  0  0  0  0  0
   90.9192  155.2348  181.1665 C   0  0  0  0  0  0  0  0  0  0  0  0
   90.1045  155.1301  182.2885 C   0  0  0  0  0  0  0  0  0  0  0  0
   90.2844  154.1266  183.2144 C   0  0  0  0  0  0  0  0  0  0  0  0
   91.3016  153.2319  182.9857 C   0  0  0  0  0  0  0  0  0  0  0  0
   92.1167  153.3171  181.8854 C   0  0  0  0  0  0  0  0  0  0  0  0
  2  1  1  6
  2  3  1  0
  2 17  1  0
  3  4  1  0
  4  5  1  1
  4 16  1  0
  5  6  1  0
  6  7  1  0
  6 15  2  0
  7  8  2  0
  7 13  1  0
  8  9  1  0
  9 10  2  0
 10 11  1  0
 11 12  1  0
 11 13  2  0
 13 14  1  0
 14 15  1  0
 16 17  1  0
 17 18  1  1
 18 19  1  0
 19 20  1  0
 20 21  1  0
 21 22  1  0
 22 23  1  0
 23 24  1  0
 23 27  2  0
 24 25  2  0
 25 26  1  0
 26 27  1  0
 26 28  1  0
 28 29  1  0
 29 30  2  0
 29 34  1  0
 30 31  1  0
 31 32  2  0
 32 33  1  0
 33 34  2  0
M  CHG  1   4   1
M  END
$$$$
