
     RDKit          3D

 58 60  0  0  0  0  0  0  0  0999 V2000
    0.1623   -7.6434   23.7253 N   0  0  0  0  0  4  0  0  0  0  0  0
    0.3918   -6.2519   24.0820 C   0  0  0  0  0  0  0  0  0  0  0  0
   -0.8905   -5.5730   24.3881 C   0  0  0  0  0  0  0  0  0  0  0  0
   -1.5108   -5.7829   25.4639 O   0  0  0  0  0  0  0  0  0  0  0  0
   -1.4578   -4.6611   23.4713 N   0  0  0  0  0  0  0  0  0  0  0  0
   -2.6105   -3.8789   23.7899 C   0  0  2  0  0  0  0  0  0  0  0  0
   -2.4259   -2.8808   24.8387 C   0  0  0  0  0  0  0  0  0  0  0  0
   -2.9129   -3.0974   25.9751 O   0  0  0  0  0  0  0  0  0  0  0  0
   -3.8051   -4.7799   23.9611 C   0  0  0  0  0  0  0  0  0  0  0  0
   -3.9770   -5.6166   22.7203 C   0  0  0  0  0  0  0  0  0  0  0  0
   -5.0060   -6.5119   22.6120 C   0  0  0  0  0  0  0  0  0  0  0  0
   -3.0995   -5.4862   21.6683 C   0  0  0  0  0  0  0  0  0  0  0  0
   -5.2004   -7.2890   21.4935 C   0  0  0  0  0  0  0  0  0  0  0  0
   -3.2907   -6.2690   20.5350 C   0  0  0  0  0  0  0  0  0  0  0  0
   -4.3245   -7.1711   20.4220 C   0  0  0  0  0  0  0  0  0  0  0  0
   -1.7225   -1.6434   24.6617 N   0  0  0  0  0  0  0  0  0  0  0  0
   -1.8765   -0.5584   25.6026 C   0  0  0  0  0  0  0  0  0  0  0  0
   -3.1585   -0.6003   26.3278 C   0  0  0  0  0  0  0  0  0  0  0  0
   -3.7839   -1.7177   26.4719 O   0  0  0  0  0  0  0  0  0  0  0  0
   -3.8211    0.5197   26.9132 N   0  0  0  0  0  0  0  0  0  0  0  0
   -5.0951    0.2786   27.5923 C   0  0  2  0  0  0  0  0  0  0  0  0
   -5.8228    1.5948   27.7324 C   0  0  0  0  0  0  0  0  0  0  0  0
   -5.2113    2.5587   28.2732 O   0  0  0  0  0  0  0  0  0  0  0  0
   -4.7891   -0.3828   28.8898 C   0  0  1  0  0  0  0  0  0  0  0  0
   -5.8926   -1.1719   29.5129 C   0  0  0  0  0  0  0  0  0  0  0  0
   -3.5441   -1.2621   28.6899 C   0  0  0  0  0  0  0  0  0  0  0  0
   -7.1325    1.8258   27.2958 N   0  0  0  0  0  0  0  0  0  0  0  0
   -7.8661    3.0688   27.5632 C   0  0  2  0  0  0  0  0  0  0  0  0
   -7.8486    3.4190   28.9795 C   0  0  0  0  0  0  0  0  0  0  0  0
   -8.1510    2.5574   29.8355 O   0  0  0  0  0  0  0  0  0  0  0  0
   -9.2574    2.9436   26.9589 C   0  0  1  0  0  0  0  0  0  0  0  0
  -10.0030    4.2273   27.3483 C   0  0  0  0  0  0  0  0  0  0  0  0
   -9.2582    2.7485   25.4760 C   0  0  0  0  0  0  0  0  0  0  0  0
   -7.4982    4.7142   29.4324 N   0  0  0  0  0  0  0  0  0  0  0  0
   -7.1705    5.1092   30.8048 C   0  0  2  0  0  0  0  0  0  0  0  0
   -8.3641    5.6824   31.4769 C   0  0  0  0  0  0  0  0  0  0  0  0
   -9.1725    6.3591   30.7903 O   0  0  0  0  0  0  0  0  0  0  0  0
   -6.0640    6.1036   30.6113 C   0  0  0  0  0  0  0  0  0  0  0  0
   -6.2156    6.6392   29.2303 C   0  0  0  0  0  0  0  0  0  0  0  0
   -7.3928    5.8944   28.6213 C   0  0  0  0  0  0  0  0  0  0  0  0
   -8.6422    5.5046   32.8514 N   0  0  0  0  0  0  0  0  0  0  0  0
   -9.8129    6.0036   33.5110 C   0  0  2  0  0  0  0  0  0  0  0  0
   -9.8661    7.4682   33.4864 C   0  0  0  0  0  0  0  0  0  0  0  0
   -8.8032    8.1179   33.3353 O   0  0  0  0  0  0  0  0  0  0  0  0
  -10.0345    5.4013   34.8811 C   0  0  0  0  0  0  0  0  0  0  0  0
  -11.2652    5.9205   35.3357 O   0  0  0  0  0  0  0  0  0  0  0  0
  -11.0795    8.1966   33.6262 N   0  0  0  0  0  0  0  0  0  0  0  0
  -11.1499    9.6456   33.6191 C   0  0  2  0  0  0  0  0  0  0  0  0
  -12.5663   10.0339   33.7102 C   0  0  0  0  0  0  0  0  0  0  0  0
  -13.5033    9.1760   33.8197 O   0  0  0  0  0  0  0  0  0  0  0  0
  -10.4748   10.1577   32.3527 C   0  0  0  0  0  0  0  0  0  0  0  0
  -11.1085    9.3829   31.2311 C   0  0  0  0  0  0  0  0  0  0  0  0
  -10.7469    9.5446   29.9170 C   0  0  0  0  0  0  0  0  0  0  0  0
  -12.0869    8.4609   31.5334 C   0  0  0  0  0  0  0  0  0  0  0  0
  -11.3668    8.7864   28.9513 C   0  0  0  0  0  0  0  0  0  0  0  0
  -12.7087    7.7017   30.5762 C   0  0  0  0  0  0  0  0  0  0  0  0
  -12.3578    7.8504   29.2540 C   0  0  0  0  0  0  0  0  0  0  0  0
  -12.9321   11.3617   33.6797 O   0  0  0  0  0  0  0  0  0  0  0  0
  1  2  1  0
  2  3  1  0
  3  4  2  0
  3  5  1  0
  5  6  1  0
  6  7  1  0
  6  9  1  1
  7  8  2  0
  7 16  1  0
  9 10  1  0
 10 11  2  0
 10 12  1  0
 11 13  1  0
 12 14  2  0
 13 15  2  0
 14 15  1  0
 16 17  1  0
 17 18  1  0
 18 19  2  0
 18 20  1  0
 21 20  1  1
 21 22  1  0
 21 24  1  0
 22 23  2  0
 22 27  1  0
 24 25  1  6
 24 26  1  0
 28 27  1  1
 28 29  1  0
 28 31  1  0
 29 30  2  0
 29 34  1  0
 31 32  1  6
 31 33  1  0
 34 35  1  0
 34 40  1  0
 35 36  1  6
 35 38  1  0
 36 37  2  0
 36 41  1  0
 38 39  1  0
 39 40  1  0
 41 42  1  0
 42 43  1  0
 42 45  1  1
 43 44  2  0
 43 47  1  0
 45 46  1  0
 47 48  1  0
 48 49  1  0
 48 51  1  6
 49 50  2  0
 49 58  1  0
 51 52  1  0
 52 53  2  0
 52 54  1  0
 53 55  1  0
 54 56  2  0
 55 57  2  0
 56 57  1  0
M  CHG  1   1   1
M  END
$$$$
