
     RDKit          3D

 58 60  0  0  0  0  0  0  0  0999 V2000
    3.1315   -7.4283   24.1228 N   0  0  0  0  0  4  0  0  0  0  0  0
    2.3104   -7.8057   22.9828 C   0  0  0  0  0  0  0  0  0  0  0  0
    0.9233   -7.3093   23.1511 C   0  0  0  0  0  0  0  0  0  0  0  0
    0.0961   -7.3202   22.2016 O   0  0  0  0  0  0  0  0  0  0  0  0
    0.4864   -6.8051   24.3956 N   0  0  0  0  0  0  0  0  0  0  0  0
   -0.8591   -6.3755   24.6131 C   0  0  2  0  0  0  0  0  0  0  0  0
   -1.1346   -4.9778   24.2957 C   0  0  0  0  0  0  0  0  0  0  0  0
   -0.2227   -4.1293   24.4499 O   0  0  0  0  0  0  0  0  0  0  0  0
   -1.3256   -6.8318   25.9705 C   0  0  0  0  0  0  0  0  0  0  0  0
   -1.4080   -8.3359   25.9866 C   0  0  0  0  0  0  0  0  0  0  0  0
   -0.4423   -9.0872   26.5992 C   0  0  0  0  0  0  0  0  0  0  0  0
   -2.4665   -8.9795   25.3875 C   0  0  0  0  0  0  0  0  0  0  0  0
   -0.4851  -10.4616   26.6411 C   0  0  0  0  0  0  0  0  0  0  0  0
   -2.5154  -10.3686   25.4265 C   0  0  0  0  0  0  0  0  0  0  0  0
   -1.5459  -11.1283   26.0415 C   0  0  0  0  0  0  0  0  0  0  0  0
   -2.3968   -4.4912   23.8188 N   0  0  0  0  0  0  0  0  0  0  0  0
   -2.5967   -3.0881   23.5406 C   0  0  0  0  0  0  0  0  0  0  0  0
   -2.6814   -2.2638   24.7590 C   0  0  0  0  0  0  0  0  0  0  0  0
   -2.8658   -2.8218   25.9059 O   0  0  0  0  0  0  0  0  0  0  0  0
   -2.5827   -0.8413   24.8106 N   0  0  0  0  0  0  0  0  0  0  0  0
   -2.6815   -0.1990   26.1221 C   0  0  2  0  0  0  0  0  0  0  0  0
   -4.1003    0.2805   26.3180 C   0  0  0  0  0  0  0  0  0  0  0  0
   -4.6475    0.9213   25.3769 O   0  0  0  0  0  0  0  0  0  0  0  0
   -1.6661    0.8882   26.1623 C   0  0  1  0  0  0  0  0  0  0  0  0
   -1.7971    1.8828   27.2679 C   0  0  0  0  0  0  0  0  0  0  0  0
   -0.2749    0.2347   26.1874 C   0  0  0  0  0  0  0  0  0  0  0  0
   -4.8593    0.0574   27.4727 N   0  0  0  0  0  0  0  0  0  0  0  0
   -6.1618    0.6882   27.7181 C   0  0  2  0  0  0  0  0  0  0  0  0
   -6.0290    2.1025   28.0518 C   0  0  0  0  0  0  0  0  0  0  0  0
   -5.0486    2.4916   28.7254 O   0  0  0  0  0  0  0  0  0  0  0  0
   -6.9076   -0.1398   28.7548 C   0  0  1  0  0  0  0  0  0  0  0  0
   -8.1885    0.6422   29.0766 C   0  0  0  0  0  0  0  0  0  0  0  0
   -7.2239   -1.5308   28.3053 C   0  0  0  0  0  0  0  0  0  0  0  0
   -6.9791    3.0678   27.6385 N   0  0  0  0  0  0  0  0  0  0  0  0
   -6.9183    4.5150   27.8593 C   0  0  2  0  0  0  0  0  0  0  0  0
   -7.7179    4.8901   29.0529 C   0  0  0  0  0  0  0  0  0  0  0  0
   -8.8582    4.3781   29.1966 O   0  0  0  0  0  0  0  0  0  0  0  0
   -7.4669    5.0719   26.5789 C   0  0  0  0  0  0  0  0  0  0  0  0
   -8.3110    4.0009   25.9811 C   0  0  0  0  0  0  0  0  0  0  0  0
   -8.1908    2.8062   26.9137 C   0  0  0  0  0  0  0  0  0  0  0  0
   -7.2626    5.7928   30.0410 N   0  0  0  0  0  0  0  0  0  0  0  0
   -7.8640    5.9489   31.3326 C   0  0  2  0  0  0  0  0  0  0  0  0
   -8.9123    6.9734   31.3223 C   0  0  0  0  0  0  0  0  0  0  0  0
   -9.2351    7.5092   30.2346 O   0  0  0  0  0  0  0  0  0  0  0  0
   -6.8566    6.1085   32.4501 C   0  0  0  0  0  0  0  0  0  0  0  0
   -5.8033    6.8781   31.9123 O   0  0  0  0  0  0  0  0  0  0  0  0
   -9.5896    7.3931   32.5002 N   0  0  0  0  0  0  0  0  0  0  0  0
  -10.7306    8.2890   32.4925 C   0  0  2  0  0  0  0  0  0  0  0  0
  -11.0117    8.6816   33.8824 C   0  0  0  0  0  0  0  0  0  0  0  0
  -11.4309    9.8456   34.1912 O   0  0  0  0  0  0  0  0  0  0  0  0
  -11.9025    7.5759   31.8291 C   0  0  0  0  0  0  0  0  0  0  0  0
  -11.5248    7.4698   30.3779 C   0  0  0  0  0  0  0  0  0  0  0  0
  -11.5878    8.5330   29.5123 C   0  0  0  0  0  0  0  0  0  0  0  0
  -11.0845    6.2565   29.8954 C   0  0  0  0  0  0  0  0  0  0  0  0
  -11.2114    8.3555   28.2015 C   0  0  0  0  0  0  0  0  0  0  0  0
  -10.7074    6.0724   28.5904 C   0  0  0  0  0  0  0  0  0  0  0  0
  -10.7636    7.1278   27.7092 C   0  0  0  0  0  0  0  0  0  0  0  0
  -10.8279    7.7872   34.9140 O   0  0  0  0  0  0  0  0  0  0  0  0
  1  2  1  0
  2  3  1  0
  3  4  2  0
  3  5  1  0
  5  6  1  0
  6  7  1  0
  6  9  1  1
  7  8  2  0
  7 16  1  0
  9 10  1  0
 10 11  2  0
 10 12  1  0
 11 13  1  0
 12 14  2  0
 13 15  2  0
 14 15  1  0
 16 17  1  0
 17 18  1  0
 18 19  2  0
 18 20  1  0
 21 20  1  6
 21 22  1  0
 21 24  1  0
 22 23  2  0
 22 27  1  0
 24 25  1  1
 24 26  1  0
 28 27  1  1
 28 29  1  0
 28 31  1  0
 29 30  2  0
 29 34  1  0
 31 32  1  6
 31 33  1  0
 34 35  1  0
 34 40  1  0
 35 36  1  1
 35 38  1  0
 36 37  2  0
 36 41  1  0
 38 39  1  0
 39 40  1  0
 41 42  1  0
 42 43  1  0
 42 45  1  1
 43 44  2  0
 43 47  1  0
 45 46  1  0
 47 48  1  0
 48 49  1  0
 48 51  1  1
 49 50  2  0
 49 58  1  0
 51 52  1  0
 52 53  2  0
 52 54  1  0
 53 55  1  0
 54 56  2  0
 55 57  2  0
 56 57  1  0
M  CHG  1   1   1
M  END
$$$$
