
     RDKit          3D

 58 60  0  0  0  0  0  0  0  0999 V2000
   -2.8087   -2.2670   19.9599 N   0  0  0  0  0  4  0  0  0  0  0  0
   -4.0781   -2.9776   19.9551 C   0  0  0  0  0  0  0  0  0  0  0  0
   -4.3125   -3.6369   21.2624 C   0  0  0  0  0  0  0  0  0  0  0  0
   -5.2910   -4.4073   21.4497 O   0  0  0  0  0  0  0  0  0  0  0  0
   -3.4343   -3.4170   22.3460 N   0  0  0  0  0  0  0  0  0  0  0  0
   -3.3810   -4.2940   23.4730 C   0  0  2  0  0  0  0  0  0  0  0  0
   -2.4734   -3.8923   24.5431 C   0  0  0  0  0  0  0  0  0  0  0  0
   -1.2428   -3.8309   24.3041 O   0  0  0  0  0  0  0  0  0  0  0  0
   -3.2332   -5.7174   23.0034 C   0  0  0  0  0  0  0  0  0  0  0  0
   -3.0018   -6.6107   24.1940 C   0  0  0  0  0  0  0  0  0  0  0  0
   -2.8424   -7.9610   24.0405 C   0  0  0  0  0  0  0  0  0  0  0  0
   -2.9401   -6.0767   25.4608 C   0  0  0  0  0  0  0  0  0  0  0  0
   -2.6230   -8.8089   25.1014 C   0  0  0  0  0  0  0  0  0  0  0  0
   -2.7185   -6.9287   26.5373 C   0  0  0  0  0  0  0  0  0  0  0  0
   -2.5578   -8.2877   26.3873 C   0  0  0  0  0  0  0  0  0  0  0  0
   -2.8905   -3.5638   25.8756 N   0  0  0  0  0  0  0  0  0  0  0  0
   -4.0524   -2.7384   26.1097 C   0  0  0  0  0  0  0  0  0  0  0  0
   -3.7858   -1.3006   25.9282 C   0  0  0  0  0  0  0  0  0  0  0  0
   -3.5034   -0.8377   24.7592 O   0  0  0  0  0  0  0  0  0  0  0  0
   -3.8006   -0.3143   26.9592 N   0  0  0  0  0  0  0  0  0  0  0  0
   -5.0432   -0.1341   27.7115 C   0  0  2  0  0  0  0  0  0  0  0  0
   -5.7365    1.1088   27.2057 C   0  0  0  0  0  0  0  0  0  0  0  0
   -5.1506    1.8017   26.3269 O   0  0  0  0  0  0  0  0  0  0  0  0
   -4.6852   -0.0802   29.1549 C   0  0  1  0  0  0  0  0  0  0  0  0
   -5.7676    0.3344   30.0957 C   0  0  0  0  0  0  0  0  0  0  0  0
   -4.1218   -1.4539   29.5535 C   0  0  0  0  0  0  0  0  0  0  0  0
   -6.9936    1.5462   27.6389 N   0  0  0  0  0  0  0  0  0  0  0  0
   -7.3984    2.9571   27.6511 C   0  0  2  0  0  0  0  0  0  0  0  0
   -7.0765    3.6064   28.9176 C   0  0  0  0  0  0  0  0  0  0  0  0
   -6.5729    2.9370   29.8475 O   0  0  0  0  0  0  0  0  0  0  0  0
   -8.8651    3.0383   27.2526 C   0  0  1  0  0  0  0  0  0  0  0  0
   -8.9155    2.6918   25.7582 C   0  0  0  0  0  0  0  0  0  0  0  0
   -9.7587    2.1379   28.0450 C   0  0  0  0  0  0  0  0  0  0  0  0
   -7.3147    4.9842   29.1412 N   0  0  0  0  0  0  0  0  0  0  0  0
   -6.9955    5.7490   30.3496 C   0  0  2  0  0  0  0  0  0  0  0  0
   -8.1905    5.8567   31.2242 C   0  0  0  0  0  0  0  0  0  0  0  0
   -9.3280    5.8749   30.6868 O   0  0  0  0  0  0  0  0  0  0  0  0
   -6.5420    7.0691   29.7996 C   0  0  0  0  0  0  0  0  0  0  0  0
   -7.1522    7.1941   28.4472 C   0  0  0  0  0  0  0  0  0  0  0  0
   -7.9159    5.9005   28.2133 C   0  0  0  0  0  0  0  0  0  0  0  0
   -8.1172    5.9368   32.6337 N   0  0  0  0  0  0  0  0  0  0  0  0
   -9.2570    5.9915   33.5011 C   0  0  2  0  0  0  0  0  0  0  0  0
   -9.8804    7.3182   33.4941 C   0  0  0  0  0  0  0  0  0  0  0  0
  -11.0165    7.4643   34.0062 O   0  0  0  0  0  0  0  0  0  0  0  0
   -8.9864    5.4444   34.8855 C   0  0  0  0  0  0  0  0  0  0  0  0
   -8.2695    4.2446   34.6923 O   0  0  0  0  0  0  0  0  0  0  0  0
   -9.2508    8.4612   32.9288 N   0  0  0  0  0  0  0  0  0  0  0  0
   -9.7209    9.8183   33.1332 C   0  0  2  0  0  0  0  0  0  0  0  0
   -8.7642   10.5044   34.0159 C   0  0  0  0  0  0  0  0  0  0  0  0
   -8.3947   11.7085   33.8168 O   0  0  0  0  0  0  0  0  0  0  0  0
  -11.1285    9.7617   33.7142 C   0  0  0  0  0  0  0  0  0  0  0  0
  -12.0432    9.7412   32.5214 C   0  0  0  0  0  0  0  0  0  0  0  0
  -12.8450    8.6699   32.2162 C   0  0  0  0  0  0  0  0  0  0  0  0
  -12.0899   10.8493   31.7037 C   0  0  0  0  0  0  0  0  0  0  0  0
  -13.6640    8.7363   31.1133 C   0  0  0  0  0  0  0  0  0  0  0  0
  -12.9038   10.9225   30.6032 C   0  0  0  0  0  0  0  0  0  0  0  0
  -13.7148    9.8579   30.2830 C   0  0  0  0  0  0  0  0  0  0  0  0
   -8.2272    9.8557   35.1062 O   0  0  0  0  0  0  0  0  0  0  0  0
  1  2  1  0
  2  3  1  0
  3  4  2  0
  3  5  1  0
  5  6  1  0
  6  7  1  0
  6  9  1  6
  7  8  2  0
  7 16  1  0
  9 10  1  0
 10 11  2  0
 10 12  1  0
 11 13  1  0
 12 14  2  0
 13 15  2  0
 14 15  1  0
 16 17  1  0
 17 18  1  0
 18 19  2  0
 18 20  1  0
 21 20  1  6
 21 22  1  0
 21 24  1  0
 22 23  2  0
 22 27  1  0
 24 25  1  1
 24 26  1  0
 28 27  1  1
 28 29  1  0
 28 31  1  0
 29 30  2  0
 29 34  1  0
 31 32  1  6
 31 33  1  0
 34 35  1  0
 34 40  1  0
 35 36  1  1
 35 38  1  0
 36 37  2  0
 36 41  1  0
 38 39  1  0
 39 40  1  0
 41 42  1  0
 42 43  1  0
 42 45  1  1
 43 44  2  0
 43 47  1  0
 45 46  1  0
 47 48  1  0
 48 49  1  0
 48 51  1  1
 49 50  2  0
 49 58  1  0
 51 52  1  0
 52 53  2  0
 52 54  1  0
 53 55  1  0
 54 56  2  0
 55 57  2  0
 56 57  1  0
M  CHG  1   1   1
M  END
$$$$
