
     RDKit          3D

 58 60  0  0  0  0  0  0  0  0999 V2000
    3.6134    4.8826   36.1545 N   0  0  0  0  0  4  0  0  0  0  0  0
    3.8398    3.7999   35.2096 C   0  0  0  0  0  0  0  0  0  0  0  0
    2.5553    3.3280   34.6385 C   0  0  0  0  0  0  0  0  0  0  0  0
    2.5160    2.4849   33.7038 O   0  0  0  0  0  0  0  0  0  0  0  0
    1.3263    3.8163   35.1332 N   0  0  0  0  0  0  0  0  0  0  0  0
    0.0683    3.3195   34.6717 C   0  0  2  0  0  0  0  0  0  0  0  0
   -0.2467    3.5995   33.2743 C   0  0  0  0  0  0  0  0  0  0  0  0
   -0.4161    4.7908   32.9172 O   0  0  0  0  0  0  0  0  0  0  0  0
   -1.0120    3.6746   35.6591 C   0  0  0  0  0  0  0  0  0  0  0  0
   -0.7911    2.9037   36.9342 C   0  0  0  0  0  0  0  0  0  0  0  0
    0.2649    2.0430   37.0625 C   0  0  0  0  0  0  0  0  0  0  0  0
   -1.6500    3.0606   37.9979 C   0  0  0  0  0  0  0  0  0  0  0  0
    0.5042    1.3262   38.2121 C   0  0  0  0  0  0  0  0  0  0  0  0
   -1.4134    2.3389   39.1627 C   0  0  0  0  0  0  0  0  0  0  0  0
   -0.3524    1.4718   39.2958 C   0  0  0  0  0  0  0  0  0  0  0  0
   -0.3874    2.5943   32.2607 N   0  0  0  0  0  0  0  0  0  0  0  0
   -0.7438    2.9477   30.9064 C   0  0  0  0  0  0  0  0  0  0  0  0
   -2.0622    2.4286   30.5018 C   0  0  0  0  0  0  0  0  0  0  0  0
   -2.3872    1.2104   30.7681 O   0  0  0  0  0  0  0  0  0  0  0  0
   -3.0685    3.1629   29.8059 N   0  0  0  0  0  0  0  0  0  0  0  0
   -4.3575    2.5068   29.5814 C   0  0  2  0  0  0  0  0  0  0  0  0
   -4.3406    1.8672   28.2132 C   0  0  0  0  0  0  0  0  0  0  0  0
   -3.9670    2.5696   27.2321 O   0  0  0  0  0  0  0  0  0  0  0  0
   -5.4169    3.5379   29.7524 C   0  0  1  0  0  0  0  0  0  0  0  0
   -6.7910    3.1631   29.3051 C   0  0  0  0  0  0  0  0  0  0  0  0
   -5.4283    3.9630   31.2297 C   0  0  0  0  0  0  0  0  0  0  0  0
   -4.7048    0.5406   27.9547 N   0  0  0  0  0  0  0  0  0  0  0  0
   -4.9016    0.0054   26.6021 C   0  0  2  0  0  0  0  0  0  0  0  0
   -6.1439    0.4808   26.0024 C   0  0  0  0  0  0  0  0  0  0  0  0
   -7.2165    0.3869   26.6404 O   0  0  0  0  0  0  0  0  0  0  0  0
   -4.7661   -1.5093   26.6617 C   0  0  1  0  0  0  0  0  0  0  0  0
   -5.0291   -2.0124   25.2357 C   0  0  0  0  0  0  0  0  0  0  0  0
   -3.4374   -1.9793   27.1625 C   0  0  0  0  0  0  0  0  0  0  0  0
   -6.1864    1.0527   24.7076 N   0  0  0  0  0  0  0  0  0  0  0  0
   -7.2924    1.8084   24.1139 C   0  0  2  0  0  0  0  0  0  0  0  0
   -8.1272    0.9217   23.2642 C   0  0  0  0  0  0  0  0  0  0  0  0
   -7.8791    0.8638   22.0320 O   0  0  0  0  0  0  0  0  0  0  0  0
   -6.5861    2.8805   23.3378 C   0  0  0  0  0  0  0  0  0  0  0  0
   -5.2193    2.3634   23.0528 C   0  0  0  0  0  0  0  0  0  0  0  0
   -5.1399    1.0024   23.7256 C   0  0  0  0  0  0  0  0  0  0  0  0
   -9.1872    0.1345   23.7690 N   0  0  0  0  0  0  0  0  0  0  0  0
  -10.5421    0.5857   23.8923 C   0  0  2  0  0  0  0  0  0  0  0  0
  -11.3541    0.1842   22.7399 C   0  0  0  0  0  0  0  0  0  0  0  0
  -10.9359    0.4248   21.5816 O   0  0  0  0  0  0  0  0  0  0  0  0
  -10.6582    2.0517   24.2479 C   0  0  0  0  0  0  0  0  0  0  0  0
  -11.0660    2.0895   25.5981 O   0  0  0  0  0  0  0  0  0  0  0  0
  -12.6078   -0.4739   22.8738 N   0  0  0  0  0  0  0  0  0  0  0  0
  -13.2459   -1.2091   21.7983 C   0  0  2  0  0  0  0  0  0  0  0  0
  -14.5138   -1.7546   22.3082 C   0  0  0  0  0  0  0  0  0  0  0  0
  -15.6144   -1.6270   21.6769 O   0  0  0  0  0  0  0  0  0  0  0  0
  -12.2871   -2.2900   21.3143 C   0  0  0  0  0  0  0  0  0  0  0  0
  -11.6133   -1.7025   20.1057 C   0  0  0  0  0  0  0  0  0  0  0  0
  -12.2531   -1.5380   18.9027 C   0  0  0  0  0  0  0  0  0  0  0  0
  -10.2997   -1.2995   20.2105 C   0  0  0  0  0  0  0  0  0  0  0  0
  -11.5687   -0.9795   17.8485 C   0  0  0  0  0  0  0  0  0  0  0  0
   -9.6116   -0.7421   19.1642 C   0  0  0  0  0  0  0  0  0  0  0  0
  -10.2380   -0.5691   17.9512 C   0  0  0  0  0  0  0  0  0  0  0  0
  -14.5530   -2.4336   23.5062 O   0  0  0  0  0  0  0  0  0  0  0  0
  1  2  1  0
  2  3  1  0
  3  4  2  0
  3  5  1  0
  5  6  1  0
  6  7  1  0
  6  9  1  1
  7  8  2  0
  7 16  1  0
  9 10  1  0
 10 11  2  0
 10 12  1  0
 11 13  1  0
 12 14  2  0
 13 15  2  0
 14 15  1  0
 16 17  1  0
 17 18  1  0
 18 19  2  0
 18 20  1  0
 21 20  1  6
 21 22  1  0
 21 24  1  0
 22 23  2  0
 22 27  1  0
 24 25  1  1
 24 26  1  0
 28 27  1  1
 28 29  1  0
 28 31  1  0
 29 30  2  0
 29 34  1  0
 31 32  1  6
 31 33  1  0
 34 35  1  0
 34 40  1  0
 35 36  1  6
 35 38  1  0
 36 37  2  0
 36 41  1  0
 38 39  1  0
 39 40  1  0
 41 42  1  0
 42 43  1  0
 42 45  1  6
 43 44  2  0
 43 47  1  0
 45 46  1  0
 47 48  1  0
 48 49  1  0
 48 51  1  1
 49 50  2  0
 49 58  1  0
 51 52  1  0
 52 53  2  0
 52 54  1  0
 53 55  1  0
 54 56  2  0
 55 57  2  0
 56 57  1  0
M  CHG  1   1   1
M  END
$$$$
