
     RDKit          3D

 58 60  0  0  0  0  0  0  0  0999 V2000
   -1.1174   -3.1122   20.4706 N   0  0  0  0  0  4  0  0  0  0  0  0
   -2.0563   -2.3105   21.2401 C   0  0  0  0  0  0  0  0  0  0  0  0
   -2.7861   -3.1547   22.2165 C   0  0  0  0  0  0  0  0  0  0  0  0
   -3.1774   -4.3159   21.9259 O   0  0  0  0  0  0  0  0  0  0  0  0
   -3.0652   -2.6743   23.5147 N   0  0  0  0  0  0  0  0  0  0  0  0
   -3.6710   -3.4943   24.5160 C   0  0  2  0  0  0  0  0  0  0  0  0
   -4.0030   -2.8208   25.7676 C   0  0  0  0  0  0  0  0  0  0  0  0
   -3.1166   -2.1483   26.3486 O   0  0  0  0  0  0  0  0  0  0  0  0
   -2.8951   -4.7770   24.6610 C   0  0  0  0  0  0  0  0  0  0  0  0
   -3.6007   -5.8715   23.9038 C   0  0  0  0  0  0  0  0  0  0  0  0
   -2.9029   -6.7427   23.1124 C   0  0  0  0  0  0  0  0  0  0  0  0
   -4.9656   -6.0159   24.0037 C   0  0  0  0  0  0  0  0  0  0  0  0
   -3.5097   -7.7586   22.4106 C   0  0  0  0  0  0  0  0  0  0  0  0
   -5.5847   -7.0410   23.2968 C   0  0  0  0  0  0  0  0  0  0  0  0
   -4.8865   -7.9194   22.4993 C   0  0  0  0  0  0  0  0  0  0  0  0
   -5.2895   -2.8778   26.3993 N   0  0  0  0  0  0  0  0  0  0  0  0
   -6.4706   -2.3872   25.7282 C   0  0  0  0  0  0  0  0  0  0  0  0
   -6.6690   -0.9366   25.8943 C   0  0  0  0  0  0  0  0  0  0  0  0
   -6.3941   -0.1312   24.9266 O   0  0  0  0  0  0  0  0  0  0  0  0
   -7.1510   -0.2914   27.0723 N   0  0  0  0  0  0  0  0  0  0  0  0
   -7.3801    1.1530   27.0123 C   0  0  2  0  0  0  0  0  0  0  0  0
   -7.0321    1.7520   28.3544 C   0  0  0  0  0  0  0  0  0  0  0  0
   -7.6038    1.2870   29.3803 O   0  0  0  0  0  0  0  0  0  0  0  0
   -8.7968    1.3619   26.6073 C   0  0  1  0  0  0  0  0  0  0  0  0
   -9.2589    2.7776   26.5030 C   0  0  0  0  0  0  0  0  0  0  0  0
   -9.0224    0.6222   25.2788 C   0  0  0  0  0  0  0  0  0  0  0  0
   -6.1096    2.7874   28.5442 N   0  0  0  0  0  0  0  0  0  0  0  0
   -5.3007    2.9365   29.7600 C   0  0  2  0  0  0  0  0  0  0  0  0
   -5.8095    3.9933   30.6280 C   0  0  0  0  0  0  0  0  0  0  0  0
   -5.3920    4.0848   31.8043 O   0  0  0  0  0  0  0  0  0  0  0  0
   -3.8443    3.1002   29.3496 C   0  0  1  0  0  0  0  0  0  0  0  0
   -3.1025    3.5723   30.6076 C   0  0  0  0  0  0  0  0  0  0  0  0
   -3.2276    1.8554   28.7955 C   0  0  0  0  0  0  0  0  0  0  0  0
   -6.7717    4.9341   30.1871 N   0  0  0  0  0  0  0  0  0  0  0  0
   -6.6911    6.3932   30.2943 C   0  0  2  0  0  0  0  0  0  0  0  0
   -7.4314    6.8654   31.4917 C   0  0  0  0  0  0  0  0  0  0  0  0
   -8.5271    6.3159   31.7754 O   0  0  0  0  0  0  0  0  0  0  0  0
   -7.2957    6.8572   29.0020 C   0  0  0  0  0  0  0  0  0  0  0  0
   -8.1739    5.7526   28.5271 C   0  0  0  0  0  0  0  0  0  0  0  0
   -8.0177    4.6307   29.5411 C   0  0  0  0  0  0  0  0  0  0  0  0
   -6.9667    7.9012   32.3341 N   0  0  0  0  0  0  0  0  0  0  0  0
   -7.6303    8.3302   33.5299 C   0  0  2  0  0  0  0  0  0  0  0  0
   -8.6703    9.3235   33.2461 C   0  0  0  0  0  0  0  0  0  0  0  0
   -8.3492   10.4107   32.7081 O   0  0  0  0  0  0  0  0  0  0  0  0
   -6.6785    8.7323   34.6351 C   0  0  0  0  0  0  0  0  0  0  0  0
   -7.4902    9.1846   35.6970 O   0  0  0  0  0  0  0  0  0  0  0  0
  -10.0422    9.1107   33.5542 N   0  0  0  0  0  0  0  0  0  0  0  0
  -11.0919   10.0598   33.2351 C   0  0  2  0  0  0  0  0  0  0  0  0
  -11.1069   11.0927   34.2830 C   0  0  0  0  0  0  0  0  0  0  0  0
  -10.4797   10.9560   35.3848 O   0  0  0  0  0  0  0  0  0  0  0  0
  -12.4115    9.3054   33.1271 C   0  0  0  0  0  0  0  0  0  0  0  0
  -12.2474    8.3989   31.9392 C   0  0  0  0  0  0  0  0  0  0  0  0
  -12.9229    8.5877   30.7594 C   0  0  0  0  0  0  0  0  0  0  0  0
  -11.3726    7.3382   32.0315 C   0  0  0  0  0  0  0  0  0  0  0  0
  -12.7062    7.7199   29.7147 C   0  0  0  0  0  0  0  0  0  0  0  0
  -11.1515    6.4696   30.9944 C   0  0  0  0  0  0  0  0  0  0  0  0
  -11.8197    6.6446   29.8042 C   0  0  0  0  0  0  0  0  0  0  0  0
  -11.8120   12.2626   34.1036 O   0  0  0  0  0  0  0  0  0  0  0  0
  1  2  1  0
  2  3  1  0
  3  4  2  0
  3  5  1  0
  5  6  1  0
  6  7  1  0
  6  9  1  1
  7  8  2  0
  7 16  1  0
  9 10  1  0
 10 11  2  0
 10 12  1  0
 11 13  1  0
 12 14  2  0
 13 15  2  0
 14 15  1  0
 16 17  1  0
 17 18  1  0
 18 19  2  0
 18 20  1  0
 21 20  1  1
 21 22  1  0
 21 24  1  0
 22 23  2  0
 22 27  1  0
 24 25  1  6
 24 26  1  0
 28 27  1  6
 28 29  1  0
 28 31  1  0
 29 30  2  0
 29 34  1  0
 31 32  1  1
 31 33  1  0
 34 35  1  0
 34 40  1  0
 35 36  1  1
 35 38  1  0
 36 37  2  0
 36 41  1  0
 38 39  1  0
 39 40  1  0
 41 42  1  0
 42 43  1  0
 42 45  1  1
 43 44  2  0
 43 47  1  0
 45 46  1  0
 47 48  1  0
 48 49  1  0
 48 51  1  1
 49 50  2  0
 49 58  1  0
 51 52  1  0
 52 53  2  0
 52 54  1  0
 53 55  1  0
 54 56  2  0
 55 57  2  0
 56 57  1  0
M  CHG  1   1   1
M  END
$$$$
