
     RDKit          3D

 58 60  0  0  0  0  0  0  0  0999 V2000
   -9.1890    6.1271   39.1803 N   0  0  0  0  0  4  0  0  0  0  0  0
   -9.4292    4.6983   39.0497 C   0  0  0  0  0  0  0  0  0  0  0  0
   -9.0230    4.2212   37.7057 C   0  0  0  0  0  0  0  0  0  0  0  0
   -9.1594    3.0176   37.3610 O   0  0  0  0  0  0  0  0  0  0  0  0
   -8.4660    5.1139   36.7641 N   0  0  0  0  0  0  0  0  0  0  0  0
   -8.6588    4.9544   35.3571 C   0  0  2  0  0  0  0  0  0  0  0  0
   -7.9388    5.9003   34.5102 C   0  0  0  0  0  0  0  0  0  0  0  0
   -8.2554    7.1142   34.5508 O   0  0  0  0  0  0  0  0  0  0  0  0
  -10.1279    4.8109   35.0580 C   0  0  0  0  0  0  0  0  0  0  0  0
  -10.4365    3.3646   34.7716 C   0  0  0  0  0  0  0  0  0  0  0  0
  -11.7121    2.9603   34.4857 C   0  0  0  0  0  0  0  0  0  0  0  0
   -9.4318    2.4243   34.7868 C   0  0  0  0  0  0  0  0  0  0  0  0
  -12.0330    1.6507   34.2126 C   0  0  0  0  0  0  0  0  0  0  0  0
   -9.7499    1.0990   34.5114 C   0  0  0  0  0  0  0  0  0  0  0  0
  -11.0319    0.6879   34.2235 C   0  0  0  0  0  0  0  0  0  0  0  0
   -6.8813    5.5375   33.6117 N   0  0  0  0  0  0  0  0  0  0  0  0
   -6.2629    6.5214   32.7539 C   0  0  0  0  0  0  0  0  0  0  0  0
   -6.9023    6.6170   31.4298 C   0  0  0  0  0  0  0  0  0  0  0  0
   -8.1566    6.3530   31.2967 O   0  0  0  0  0  0  0  0  0  0  0  0
   -6.2501    6.9828   30.2145 N   0  0  0  0  0  0  0  0  0  0  0  0
   -6.6312    6.2681   28.9954 C   0  0  2  0  0  0  0  0  0  0  0  0
   -5.9368    4.9269   28.9863 C   0  0  0  0  0  0  0  0  0  0  0  0
   -5.4692    4.4910   30.0757 O   0  0  0  0  0  0  0  0  0  0  0  0
   -6.2779    7.1384   27.8410 C   0  0  1  0  0  0  0  0  0  0  0  0
   -7.0786    6.9514   26.5950 C   0  0  0  0  0  0  0  0  0  0  0  0
   -6.3480    8.5999   28.3123 C   0  0  0  0  0  0  0  0  0  0  0  0
   -5.7801    4.1240   27.8505 N   0  0  0  0  0  0  0  0  0  0  0  0
   -5.4355    2.6983   27.9098 C   0  0  2  0  0  0  0  0  0  0  0  0
   -5.2517    2.1254   26.5804 C   0  0  0  0  0  0  0  0  0  0  0  0
   -5.9940    2.4885   25.6404 O   0  0  0  0  0  0  0  0  0  0  0  0
   -6.4745    1.9894   28.7668 C   0  0  1  0  0  0  0  0  0  0  0  0
   -6.4301    2.6775   30.1381 C   0  0  0  0  0  0  0  0  0  0  0  0
   -7.8554    2.0195   28.1931 C   0  0  0  0  0  0  0  0  0  0  0  0
   -4.2526    1.1602   26.3062 N   0  0  0  0  0  0  0  0  0  0  0  0
   -3.5117    0.9901   25.0536 C   0  0  2  0  0  0  0  0  0  0  0  0
   -4.1358   -0.0713   24.2236 C   0  0  0  0  0  0  0  0  0  0  0  0
   -4.2114   -1.2353   24.6952 O   0  0  0  0  0  0  0  0  0  0  0  0
   -2.1319    0.6390   25.5263 C   0  0  0  0  0  0  0  0  0  0  0  0
   -2.2865    0.0742   26.8953 C   0  0  0  0  0  0  0  0  0  0  0  0
   -3.7701    0.1597   27.2163 C   0  0  0  0  0  0  0  0  0  0  0  0
   -4.6538    0.1588   22.9286 N   0  0  0  0  0  0  0  0  0  0  0  0
   -5.2550   -0.8501   22.1070 C   0  0  2  0  0  0  0  0  0  0  0  0
   -4.4768   -2.0923   22.1172 C   0  0  0  0  0  0  0  0  0  0  0  0
   -4.0317   -2.5279   23.2066 O   0  0  0  0  0  0  0  0  0  0  0  0
   -5.6176   -0.3609   20.7219 C   0  0  0  0  0  0  0  0  0  0  0  0
   -6.1056   -1.4897   20.0302 O   0  0  0  0  0  0  0  0  0  0  0  0
   -4.2000   -2.8367   20.9375 N   0  0  0  0  0  0  0  0  0  0  0  0
   -3.7785   -4.2248   20.9461 C   0  0  2  0  0  0  0  0  0  0  0  0
   -3.5390   -4.6374   19.5542 C   0  0  0  0  0  0  0  0  0  0  0  0
   -2.9308   -5.7183   19.2580 O   0  0  0  0  0  0  0  0  0  0  0  0
   -4.8559   -5.0545   21.6336 C   0  0  0  0  0  0  0  0  0  0  0  0
   -4.2471   -5.4801   22.9406 C   0  0  0  0  0  0  0  0  0  0  0  0
   -3.7747   -6.7492   23.1638 C   0  0  0  0  0  0  0  0  0  0  0  0
   -4.1467   -4.5548   23.9567 C   0  0  0  0  0  0  0  0  0  0  0  0
   -3.2194   -7.0545   24.3845 C   0  0  0  0  0  0  0  0  0  0  0  0
   -3.5943   -4.8519   25.1755 C   0  0  0  0  0  0  0  0  0  0  0  0
   -3.1150   -6.1192   25.4161 C   0  0  0  0  0  0  0  0  0  0  0  0
   -3.9725   -3.8544   18.5068 O   0  0  0  0  0  0  0  0  0  0  0  0
  1  2  1  0
  2  3  1  0
  3  4  2  0
  3  5  1  0
  5  6  1  0
  6  7  1  0
  6  9  1  1
  7  8  2  0
  7 16  1  0
  9 10  1  0
 10 11  2  0
 10 12  1  0
 11 13  1  0
 12 14  2  0
 13 15  2  0
 14 15  1  0
 16 17  1  0
 17 18  1  0
 18 19  2  0
 18 20  1  0
 21 20  1  1
 21 22  1  0
 21 24  1  0
 22 23  2  0
 22 27  1  0
 24 25  1  6
 24 26  1  0
 28 27  1  6
 28 29  1  0
 28 31  1  0
 29 30  2  0
 29 34  1  0
 31 32  1  1
 31 33  1  0
 34 35  1  0
 34 40  1  0
 35 36  1  6
 35 38  1  0
 36 37  2  0
 36 41  1  0
 38 39  1  0
 39 40  1  0
 41 42  1  0
 42 43  1  0
 42 45  1  6
 43 44  2  0
 43 47  1  0
 45 46  1  0
 47 48  1  0
 48 49  1  0
 48 51  1  6
 49 50  2  0
 49 58  1  0
 51 52  1  0
 52 53  2  0
 52 54  1  0
 53 55  1  0
 54 56  2  0
 55 57  2  0
 56 57  1  0
M  CHG  1   1   1
M  END
$$$$
