
     RDKit          3D

 58 60  0  0  0  0  0  0  0  0999 V2000
   -4.3828    9.2438   36.1837 N   0  0  0  0  0  4  0  0  0  0  0  0
   -4.1086    8.4970   34.9657 C   0  0  0  0  0  0  0  0  0  0  0  0
   -5.3611    8.2496   34.2116 C   0  0  0  0  0  0  0  0  0  0  0  0
   -5.5442    7.1861   33.5623 O   0  0  0  0  0  0  0  0  0  0  0  0
   -6.3955    9.2106   34.2011 N   0  0  0  0  0  0  0  0  0  0  0  0
   -7.4144    9.2217   33.1992 C   0  0  2  0  0  0  0  0  0  0  0  0
   -6.9764    8.8795   31.8496 C   0  0  0  0  0  0  0  0  0  0  0  0
   -5.7510    8.9189   31.5810 O   0  0  0  0  0  0  0  0  0  0  0  0
   -8.2252   10.4859   33.3121 C   0  0  0  0  0  0  0  0  0  0  0  0
   -8.7914   10.5890   34.7042 C   0  0  0  0  0  0  0  0  0  0  0  0
   -8.2830   11.4833   35.6064 C   0  0  0  0  0  0  0  0  0  0  0  0
   -9.8398    9.7846   35.0883 C   0  0  0  0  0  0  0  0  0  0  0  0
   -8.7766   11.6119   36.8841 C   0  0  0  0  0  0  0  0  0  0  0  0
  -10.3432    9.9100   36.3785 C   0  0  0  0  0  0  0  0  0  0  0  0
   -9.8345   10.8082   37.2895 C   0  0  0  0  0  0  0  0  0  0  0  0
   -7.8600    8.5020   30.7847 N   0  0  0  0  0  0  0  0  0  0  0  0
   -8.3132    7.1381   30.6417 C   0  0  0  0  0  0  0  0  0  0  0  0
   -7.8189    6.4908   29.4138 C   0  0  0  0  0  0  0  0  0  0  0  0
   -8.2772    6.8495   28.2640 O   0  0  0  0  0  0  0  0  0  0  0  0
   -6.8424    5.4520   29.3551 N   0  0  0  0  0  0  0  0  0  0  0  0
   -6.7971    4.6274   28.1467 C   0  0  2  0  0  0  0  0  0  0  0  0
   -5.8237    3.4948   28.3727 C   0  0  0  0  0  0  0  0  0  0  0  0
   -4.5938    3.7726   28.4476 O   0  0  0  0  0  0  0  0  0  0  0  0
   -6.4321    5.5196   27.0130 C   0  0  1  0  0  0  0  0  0  0  0  0
   -6.2393    4.8657   25.6849 C   0  0  0  0  0  0  0  0  0  0  0  0
   -7.4964    6.6249   26.9200 C   0  0  0  0  0  0  0  0  0  0  0  0
   -6.1908    2.1514   28.5134 N   0  0  0  0  0  0  0  0  0  0  0  0
   -7.4832    1.7197   29.0594 C   0  0  2  0  0  0  0  0  0  0  0  0
   -7.4631    0.3186   29.4666 C   0  0  0  0  0  0  0  0  0  0  0  0
   -8.4861   -0.1951   29.9724 O   0  0  0  0  0  0  0  0  0  0  0  0
   -8.5699    2.0714   28.0535 C   0  0  1  0  0  0  0  0  0  0  0  0
   -9.8755    1.5048   28.6283 C   0  0  0  0  0  0  0  0  0  0  0  0
   -8.6920    3.5370   27.7815 C   0  0  0  0  0  0  0  0  0  0  0  0
   -6.3154   -0.4962   29.3109 N   0  0  0  0  0  0  0  0  0  0  0  0
   -4.9344   -0.0459   29.1190 C   0  0  2  0  0  0  0  0  0  0  0  0
   -4.5850   -0.0494   27.6758 C   0  0  0  0  0  0  0  0  0  0  0  0
   -5.5108   -0.1836   26.8344 O   0  0  0  0  0  0  0  0  0  0  0  0
   -4.1450   -1.0366   29.9228 C   0  0  0  0  0  0  0  0  0  0  0  0
   -4.9866   -2.2605   30.0271 C   0  0  0  0  0  0  0  0  0  0  0  0
   -6.2899   -1.9319   29.3167 C   0  0  0  0  0  0  0  0  0  0  0  0
   -3.2631    0.0937   27.1960 N   0  0  0  0  0  0  0  0  0  0  0  0
   -2.8947    0.0390   25.8119 C   0  0  2  0  0  0  0  0  0  0  0  0
   -2.6886   -1.3401   25.3598 C   0  0  0  0  0  0  0  0  0  0  0  0
   -3.1031   -2.2869   26.0714 O   0  0  0  0  0  0  0  0  0  0  0  0
   -1.7670    0.9812   25.4516 C   0  0  0  0  0  0  0  0  0  0  0  0
   -1.6175    0.8857   24.0518 O   0  0  0  0  0  0  0  0  0  0  0  0
   -2.0345   -1.6598   24.1382 N   0  0  0  0  0  0  0  0  0  0  0  0
   -2.3328   -2.8441   23.3554 C   0  0  2  0  0  0  0  0  0  0  0  0
   -2.1803   -2.5010   21.9327 C   0  0  0  0  0  0  0  0  0  0  0  0
   -1.2193   -2.9464   21.2227 O   0  0  0  0  0  0  0  0  0  0  0  0
   -3.7396   -3.3145   23.7045 C   0  0  0  0  0  0  0  0  0  0  0  0
   -3.9326   -4.5840   22.9228 C   0  0  0  0  0  0  0  0  0  0  0  0
   -5.1210   -5.2702   22.8986 C   0  0  0  0  0  0  0  0  0  0  0  0
   -2.8759   -5.0763   22.1881 C   0  0  0  0  0  0  0  0  0  0  0  0
   -5.2191   -6.4177   22.1468 C   0  0  0  0  0  0  0  0  0  0  0  0
   -2.9666   -6.2190   21.4364 C   0  0  0  0  0  0  0  0  0  0  0  0
   -4.1508   -6.9189   21.4002 C   0  0  0  0  0  0  0  0  0  0  0  0
   -3.0880   -1.6721   21.3106 O   0  0  0  0  0  0  0  0  0  0  0  0
  1  2  1  0
  2  3  1  0
  3  4  2  0
  3  5  1  0
  5  6  1  0
  6  7  1  0
  6  9  1  6
  7  8  2  0
  7 16  1  0
  9 10  1  0
 10 11  2  0
 10 12  1  0
 11 13  1  0
 12 14  2  0
 13 15  2  0
 14 15  1  0
 16 17  1  0
 17 18  1  0
 18 19  2  0
 18 20  1  0
 21 20  1  1
 21 22  1  0
 21 24  1  0
 22 23  2  0
 22 27  1  0
 24 25  1  6
 24 26  1  0
 28 27  1  6
 28 29  1  0
 28 31  1  0
 29 30  2  0
 29 34  1  0
 31 32  1  1
 31 33  1  0
 34 35  1  0
 34 40  1  0
 35 36  1  6
 35 38  1  0
 36 37  2  0
 36 41  1  0
 38 39  1  0
 39 40  1  0
 41 42  1  0
 42 43  1  0
 42 45  1  1
 43 44  2  0
 43 47  1  0
 45 46  1  0
 47 48  1  0
 48 49  1  0
 48 51  1  6
 49 50  2  0
 49 58  1  0
 51 52  1  0
 52 53  2  0
 52 54  1  0
 53 55  1  0
 54 56  2  0
 55 57  2  0
 56 57  1  0
M  CHG  1   1   1
M  END
$$$$
