
     RDKit          3D

 58 60  0  0  0  0  0  0  0  0999 V2000
   -7.3910   11.5218   31.5486 N   0  0  0  0  0  4  0  0  0  0  0  0
   -8.4802   11.6243   32.5075 C   0  0  0  0  0  0  0  0  0  0  0  0
   -8.9830   10.2780   32.8726 C   0  0  0  0  0  0  0  0  0  0  0  0
   -9.8390   10.1148   33.7818 O   0  0  0  0  0  0  0  0  0  0  0  0
   -8.5107    9.1283   32.2026 N   0  0  0  0  0  0  0  0  0  0  0  0
   -9.3679    8.3009   31.4134 C   0  0  2  0  0  0  0  0  0  0  0  0
   -8.7378    7.1279   30.8158 C   0  0  0  0  0  0  0  0  0  0  0  0
   -7.6165    7.2550   30.2663 O   0  0  0  0  0  0  0  0  0  0  0  0
  -10.1681    9.1553   30.4658 C   0  0  0  0  0  0  0  0  0  0  0  0
  -11.2520    9.8658   31.2337 C   0  0  0  0  0  0  0  0  0  0  0  0
  -11.2910   11.2321   31.2954 C   0  0  0  0  0  0  0  0  0  0  0  0
  -12.2289    9.1457   31.8826 C   0  0  0  0  0  0  0  0  0  0  0  0
  -12.2674   11.9176   31.9805 C   0  0  0  0  0  0  0  0  0  0  0  0
  -13.2186    9.8329   32.5767 C   0  0  0  0  0  0  0  0  0  0  0  0
  -13.2614   11.2074   32.6415 C   0  0  0  0  0  0  0  0  0  0  0  0
   -9.3195    5.8168   30.8024 N   0  0  0  0  0  0  0  0  0  0  0  0
   -8.8097    4.7850   29.9298 C   0  0  0  0  0  0  0  0  0  0  0  0
   -9.5974    3.5410   29.9843 C   0  0  0  0  0  0  0  0  0  0  0  0
  -10.8028    3.5581   30.4398 O   0  0  0  0  0  0  0  0  0  0  0  0
   -9.1468    2.2512   29.5727 N   0  0  0  0  0  0  0  0  0  0  0  0
   -9.1046    1.9709   28.1367 C   0  0  2  0  0  0  0  0  0  0  0  0
   -7.6768    1.6705   27.7463 C   0  0  0  0  0  0  0  0  0  0  0  0
   -7.1650    2.3355   26.8023 O   0  0  0  0  0  0  0  0  0  0  0  0
   -9.6866    3.1481   27.4366 C   0  0  1  0  0  0  0  0  0  0  0  0
   -9.5702    3.1639   25.9484 C   0  0  0  0  0  0  0  0  0  0  0  0
  -11.1583    3.2715   27.8634 C   0  0  0  0  0  0  0  0  0  0  0  0
   -6.8728    0.7063   28.3655 N   0  0  0  0  0  0  0  0  0  0  0  0
   -5.4505    0.5191   28.0541 C   0  0  2  0  0  0  0  0  0  0  0  0
   -5.2187   -0.6862   27.2650 C   0  0  0  0  0  0  0  0  0  0  0  0
   -5.7249   -1.7719   27.6275 O   0  0  0  0  0  0  0  0  0  0  0  0
   -4.6624    0.5862   29.3543 C   0  0  1  0  0  0  0  0  0  0  0  0
   -3.1869    0.4311   28.9612 C   0  0  0  0  0  0  0  0  0  0  0  0
   -4.8835    1.8444   30.1323 C   0  0  0  0  0  0  0  0  0  0  0  0
   -4.4318   -0.6777   26.0877 N   0  0  0  0  0  0  0  0  0  0  0  0
   -4.2366   -1.7867   25.1502 C   0  0  2  0  0  0  0  0  0  0  0  0
   -2.9737   -2.5056   25.4552 C   0  0  0  0  0  0  0  0  0  0  0  0
   -2.2975   -2.1356   26.4496 O   0  0  0  0  0  0  0  0  0  0  0  0
   -4.2203   -1.0985   23.8172 C   0  0  0  0  0  0  0  0  0  0  0  0
   -3.8276    0.3140   24.0770 C   0  0  0  0  0  0  0  0  0  0  0  0
   -3.6735    0.4332   25.5848 C   0  0  0  0  0  0  0  0  0  0  0  0
   -2.4913   -3.5894   24.6863 N   0  0  0  0  0  0  0  0  0  0  0  0
   -1.3555   -4.3892   25.0393 C   0  0  2  0  0  0  0  0  0  0  0  0
   -1.0851   -5.4206   24.0335 C   0  0  0  0  0  0  0  0  0  0  0  0
   -2.0085   -5.7856   23.2662 O   0  0  0  0  0  0  0  0  0  0  0  0
   -1.4040   -4.9099   26.4590 C   0  0  0  0  0  0  0  0  0  0  0  0
   -0.2291   -5.6722   26.6302 O   0  0  0  0  0  0  0  0  0  0  0  0
    0.1893   -6.0337   23.8833 N   0  0  0  0  0  0  0  0  0  0  0  0
    0.8574   -6.1911   22.6053 C   0  0  2  0  0  0  0  0  0  0  0  0
    2.1524   -6.8471   22.8453 C   0  0  0  0  0  0  0  0  0  0  0  0
    2.6988   -6.8774   23.9971 O   0  0  0  0  0  0  0  0  0  0  0  0
    0.9986   -4.8181   21.9596 C   0  0  0  0  0  0  0  0  0  0  0  0
   -0.2113   -4.6736   21.0793 C   0  0  0  0  0  0  0  0  0  0  0  0
   -0.5307   -5.5786   20.0981 C   0  0  0  0  0  0  0  0  0  0  0  0
   -1.0445   -3.5930   21.2711 C   0  0  0  0  0  0  0  0  0  0  0  0
   -1.6639   -5.3805   19.3443 C   0  0  0  0  0  0  0  0  0  0  0  0
   -2.1755   -3.3894   20.5238 C   0  0  0  0  0  0  0  0  0  0  0  0
   -2.5111   -4.2873   19.5365 C   0  0  0  0  0  0  0  0  0  0  0  0
    2.8286   -7.4612   21.8140 O   0  0  0  0  0  0  0  0  0  0  0  0
  1  2  1  0
  2  3  1  0
  3  4  2  0
  3  5  1  0
  5  6  1  0
  6  7  1  0
  6  9  1  6
  7  8  2  0
  7 16  1  0
  9 10  1  0
 10 11  2  0
 10 12  1  0
 11 13  1  0
 12 14  2  0
 13 15  2  0
 14 15  1  0
 16 17  1  0
 17 18  1  0
 18 19  2  0
 18 20  1  0
 21 20  1  1
 21 22  1  0
 21 24  1  0
 22 23  2  0
 22 27  1  0
 24 25  1  6
 24 26  1  0
 28 27  1  1
 28 29  1  0
 28 31  1  0
 29 30  2  0
 29 34  1  0
 31 32  1  6
 31 33  1  0
 34 35  1  0
 34 40  1  0
 35 36  1  1
 35 38  1  0
 36 37  2  0
 36 41  1  0
 38 39  1  0
 39 40  1  0
 41 42  1  0
 42 43  1  0
 42 45  1  1
 43 44  2  0
 43 47  1  0
 45 46  1  0
 47 48  1  0
 48 49  1  0
 48 51  1  1
 49 50  2  0
 49 58  1  0
 51 52  1  0
 52 53  2  0
 52 54  1  0
 53 55  1  0
 54 56  2  0
 55 57  2  0
 56 57  1  0
M  CHG  1   1   1
M  END
$$$$
