
     RDKit          3D

 58 60  0  0  0  0  0  0  0  0999 V2000
   -8.1400   11.3646   33.0695 N   0  0  0  0  0  4  0  0  0  0  0  0
   -9.4703   10.9137   32.6907 C   0  0  0  0  0  0  0  0  0  0  0  0
  -10.0317   10.0143   33.7274 C   0  0  0  0  0  0  0  0  0  0  0  0
  -11.0565    9.3145   33.5127 O   0  0  0  0  0  0  0  0  0  0  0  0
   -9.4252    9.9161   34.9987 N   0  0  0  0  0  0  0  0  0  0  0  0
   -9.4163    8.6980   35.7460 C   0  0  2  0  0  0  0  0  0  0  0  0
   -9.5425    7.4745   34.9604 C   0  0  0  0  0  0  0  0  0  0  0  0
  -10.6822    6.9765   34.7916 O   0  0  0  0  0  0  0  0  0  0  0  0
  -10.3579    8.8123   36.9160 C   0  0  0  0  0  0  0  0  0  0  0  0
  -10.1291   10.1297   37.6097 C   0  0  0  0  0  0  0  0  0  0  0  0
   -9.1319   10.2739   38.5355 C   0  0  0  0  0  0  0  0  0  0  0  0
  -10.9206   11.2161   37.3148 C   0  0  0  0  0  0  0  0  0  0  0  0
   -8.8873   11.4615   39.1855 C   0  0  0  0  0  0  0  0  0  0  0  0
  -10.6782   12.4193   37.9684 C   0  0  0  0  0  0  0  0  0  0  0  0
   -9.6763   12.5686   38.9007 C   0  0  0  0  0  0  0  0  0  0  0  0
   -8.4387    6.7811   34.3620 N   0  0  0  0  0  0  0  0  0  0  0  0
   -7.8655    7.2300   33.1146 C   0  0  0  0  0  0  0  0  0  0  0  0
   -8.1602    6.3296   31.9862 C   0  0  0  0  0  0  0  0  0  0  0  0
   -9.2207    5.5975   32.0027 O   0  0  0  0  0  0  0  0  0  0  0  0
   -7.3555    6.1658   30.8192 N   0  0  0  0  0  0  0  0  0  0  0  0
   -7.9369    5.4429   29.6871 C   0  0  2  0  0  0  0  0  0  0  0  0
   -7.1762    4.1517   29.4984 C   0  0  0  0  0  0  0  0  0  0  0  0
   -5.9281    4.1621   29.6923 O   0  0  0  0  0  0  0  0  0  0  0  0
   -7.8882    6.3498   28.5082 C   0  0  1  0  0  0  0  0  0  0  0  0
   -8.2922    5.7615   27.1969 C   0  0  0  0  0  0  0  0  0  0  0  0
   -8.7411    7.5878   28.8290 C   0  0  0  0  0  0  0  0  0  0  0  0
   -7.7610    2.9349   29.1287 N   0  0  0  0  0  0  0  0  0  0  0  0
   -6.9894    1.7140   28.8667 C   0  0  2  0  0  0  0  0  0  0  0  0
   -6.5763    1.6185   27.4706 C   0  0  0  0  0  0  0  0  0  0  0  0
   -7.4365    1.6788   26.5635 O   0  0  0  0  0  0  0  0  0  0  0  0
   -7.7904    0.5229   29.3730 C   0  0  1  0  0  0  0  0  0  0  0  0
   -6.9602   -0.7208   29.0273 C   0  0  0  0  0  0  0  0  0  0  0  0
   -8.0966    0.5770   30.8360 C   0  0  0  0  0  0  0  0  0  0  0  0
   -5.2207    1.4575   27.0940 N   0  0  0  0  0  0  0  0  0  0  0  0
   -4.6053    1.8555   25.8252 C   0  0  2  0  0  0  0  0  0  0  0  0
   -4.5366    0.6977   24.8981 C   0  0  0  0  0  0  0  0  0  0  0  0
   -3.5996   -0.1300   25.0397 O   0  0  0  0  0  0  0  0  0  0  0  0
   -3.2563    2.3557   26.2504 C   0  0  0  0  0  0  0  0  0  0  0  0
   -2.9591    1.7071   27.5572 C   0  0  0  0  0  0  0  0  0  0  0  0
   -4.1835    0.8719   27.8960 C   0  0  0  0  0  0  0  0  0  0  0  0
   -5.4735    0.4741   23.8634 N   0  0  0  0  0  0  0  0  0  0  0  0
   -5.1585   -0.1354   22.6049 C   0  0  2  0  0  0  0  0  0  0  0  0
   -3.9358   -0.9400   22.6832 C   0  0  0  0  0  0  0  0  0  0  0  0
   -2.9555   -0.5039   23.3340 O   0  0  0  0  0  0  0  0  0  0  0  0
   -5.1859    0.8336   21.4433 C   0  0  0  0  0  0  0  0  0  0  0  0
   -4.7948    0.0886   20.3108 O   0  0  0  0  0  0  0  0  0  0  0  0
   -3.8064   -2.2069   22.0501 N   0  0  0  0  0  0  0  0  0  0  0  0
   -2.6588   -3.0769   22.2252 C   0  0  2  0  0  0  0  0  0  0  0  0
   -2.0440   -3.2921   20.9059 C   0  0  0  0  0  0  0  0  0  0  0  0
   -1.7973   -2.3323   20.1033 O   0  0  0  0  0  0  0  0  0  0  0  0
   -3.1267   -4.3710   22.8797 C   0  0  0  0  0  0  0  0  0  0  0  0
   -3.1376   -4.0815   24.3548 C   0  0  0  0  0  0  0  0  0  0  0  0
   -4.2959   -3.9332   25.0761 C   0  0  0  0  0  0  0  0  0  0  0  0
   -1.9341   -3.9714   25.0168 C   0  0  0  0  0  0  0  0  0  0  0  0
   -4.2192   -3.6826   26.4262 C   0  0  0  0  0  0  0  0  0  0  0  0
   -1.8503   -3.7221   26.3621 C   0  0  0  0  0  0  0  0  0  0  0  0
   -3.0015   -3.5715   27.1006 C   0  0  0  0  0  0  0  0  0  0  0  0
   -1.7086   -4.5612   20.4877 O   0  0  0  0  0  0  0  0  0  0  0  0
  1  2  1  0
  2  3  1  0
  3  4  2  0
  3  5  1  0
  5  6  1  0
  6  7  1  0
  6  9  1  1
  7  8  2  0
  7 16  1  0
  9 10  1  0
 10 11  2  0
 10 12  1  0
 11 13  1  0
 12 14  2  0
 13 15  2  0
 14 15  1  0
 16 17  1  0
 17 18  1  0
 18 19  2  0
 18 20  1  0
 21 20  1  1
 21 22  1  0
 21 24  1  0
 22 23  2  0
 22 27  1  0
 24 25  1  6
 24 26  1  0
 28 27  1  6
 28 29  1  0
 28 31  1  0
 29 30  2  0
 29 34  1  0
 31 32  1  1
 31 33  1  0
 34 35  1  0
 34 40  1  0
 35 36  1  6
 35 38  1  0
 36 37  2  0
 36 41  1  0
 38 39  1  0
 39 40  1  0
 41 42  1  0
 42 43  1  0
 42 45  1  6
 43 44  2  0
 43 47  1  0
 45 46  1  0
 47 48  1  0
 48 49  1  0
 48 51  1  6
 49 50  2  0
 49 58  1  0
 51 52  1  0
 52 53  2  0
 52 54  1  0
 53 55  1  0
 54 56  2  0
 55 57  2  0
 56 57  1  0
M  CHG  1   1   1
M  END
$$$$
