
     RDKit          3D

 58 60  0  0  0  0  0  0  0  0999 V2000
   -2.7993   -8.3334   31.7358 N   0  0  0  0  0  4  0  0  0  0  0  0
   -1.9121   -7.1846   31.8333 C   0  0  0  0  0  0  0  0  0  0  0  0
   -2.1090   -6.2734   30.6801 C   0  0  0  0  0  0  0  0  0  0  0  0
   -3.0150   -5.3986   30.6744 O   0  0  0  0  0  0  0  0  0  0  0  0
   -1.2761   -6.3623   29.5434 N   0  0  0  0  0  0  0  0  0  0  0  0
   -1.0254   -5.2411   28.6936 C   0  0  2  0  0  0  0  0  0  0  0  0
   -0.2628   -5.5253   27.4820 C   0  0  0  0  0  0  0  0  0  0  0  0
    0.7179   -6.3056   27.5513 O   0  0  0  0  0  0  0  0  0  0  0  0
   -0.5224   -4.0830   29.5145 C   0  0  0  0  0  0  0  0  0  0  0  0
   -1.5743   -3.6942   30.5203 C   0  0  0  0  0  0  0  0  0  0  0  0
   -2.7531   -3.1251   30.1217 C   0  0  0  0  0  0  0  0  0  0  0  0
   -1.3660   -3.9140   31.8627 C   0  0  0  0  0  0  0  0  0  0  0  0
   -3.7404   -2.7623   31.0083 C   0  0  0  0  0  0  0  0  0  0  0  0
   -2.3604   -3.5496   32.7638 C   0  0  0  0  0  0  0  0  0  0  0  0
   -3.5476   -2.9765   32.3671 C   0  0  0  0  0  0  0  0  0  0  0  0
   -0.5514   -4.9621   26.1948 N   0  0  0  0  0  0  0  0  0  0  0  0
   -0.3680   -3.5522   25.9410 C   0  0  0  0  0  0  0  0  0  0  0  0
   -1.4624   -2.9600   25.1520 C   0  0  0  0  0  0  0  0  0  0  0  0
   -1.5059   -1.6864   24.9603 O   0  0  0  0  0  0  0  0  0  0  0  0
   -2.5388   -3.6783   24.5508 N   0  0  0  0  0  0  0  0  0  0  0  0
   -3.6297   -2.9017   23.9598 C   0  0  2  0  0  0  0  0  0  0  0  0
   -4.4182   -2.2542   25.0734 C   0  0  0  0  0  0  0  0  0  0  0  0
   -4.7535   -2.9690   26.0594 O   0  0  0  0  0  0  0  0  0  0  0  0
   -4.4293   -3.8299   23.1149 C   0  0  1  0  0  0  0  0  0  0  0  0
   -5.4285   -3.2047   22.1988 C   0  0  0  0  0  0  0  0  0  0  0  0
   -3.4495   -4.7108   22.3231 C   0  0  0  0  0  0  0  0  0  0  0  0
   -4.7998   -0.9076   25.0942 N   0  0  0  0  0  0  0  0  0  0  0  0
   -5.5125   -0.2867   26.2173 C   0  0  2  0  0  0  0  0  0  0  0  0
   -5.8075    1.1200   25.9658 C   0  0  0  0  0  0  0  0  0  0  0  0
   -4.9299    1.8578   25.4641 O   0  0  0  0  0  0  0  0  0  0  0  0
   -4.7220   -0.5503   27.4909 C   0  0  1  0  0  0  0  0  0  0  0  0
   -5.5105    0.1222   28.6230 C   0  0  0  0  0  0  0  0  0  0  0  0
   -4.5003   -2.0016   27.7767 C   0  0  0  0  0  0  0  0  0  0  0  0
   -7.0656    1.6935   26.2715 N   0  0  0  0  0  0  0  0  0  0  0  0
   -7.5413    3.0270   25.8940 C   0  0  2  0  0  0  0  0  0  0  0  0
   -7.3332    3.9852   27.0091 C   0  0  0  0  0  0  0  0  0  0  0  0
   -7.5220    3.5855   28.1871 O   0  0  0  0  0  0  0  0  0  0  0  0
   -8.9886    2.7888   25.5789 C   0  0  0  0  0  0  0  0  0  0  0  0
   -9.3832    1.5569   26.3163 C   0  0  0  0  0  0  0  0  0  0  0  0
   -8.1238    1.0666   27.0126 C   0  0  0  0  0  0  0  0  0  0  0  0
   -6.9299    5.3262   26.8162 N   0  0  0  0  0  0  0  0  0  0  0  0
   -6.2473    6.1149   27.7993 C   0  0  2  0  0  0  0  0  0  0  0  0
   -7.1535    6.5594   28.8623 C   0  0  0  0  0  0  0  0  0  0  0  0
   -8.3594    6.7740   28.5899 O   0  0  0  0  0  0  0  0  0  0  0  0
   -5.4051    7.2218   27.2039 C   0  0  0  0  0  0  0  0  0  0  0  0
   -4.9252    7.9720   28.2983 O   0  0  0  0  0  0  0  0  0  0  0  0
   -6.7261    6.7604   30.2037 N   0  0  0  0  0  0  0  0  0  0  0  0
   -7.4151    6.2096   31.3554 C   0  0  2  0  0  0  0  0  0  0  0  0
   -6.4006    5.7511   32.3176 C   0  0  0  0  0  0  0  0  0  0  0  0
   -5.1648    5.6630   32.0160 O   0  0  0  0  0  0  0  0  0  0  0  0
   -8.3324    5.0889   30.8816 C   0  0  0  0  0  0  0  0  0  0  0  0
   -9.5697    5.7813   30.3820 C   0  0  0  0  0  0  0  0  0  0  0  0
  -10.1724    6.8108   31.0607 C   0  0  0  0  0  0  0  0  0  0  0  0
  -10.1183    5.3749   29.1851 C   0  0  0  0  0  0  0  0  0  0  0  0
  -11.2952    7.4003   30.5283 C   0  0  0  0  0  0  0  0  0  0  0  0
  -11.2368    5.9580   28.6485 C   0  0  0  0  0  0  0  0  0  0  0  0
  -11.8532    6.9919   29.3152 C   0  0  0  0  0  0  0  0  0  0  0  0
   -6.7604    5.3959   33.5991 O   0  0  0  0  0  0  0  0  0  0  0  0
  1  2  1  0
  2  3  1  0
  3  4  2  0
  3  5  1  0
  5  6  1  0
  6  7  1  0
  6  9  1  1
  7  8  2  0
  7 16  1  0
  9 10  1  0
 10 11  2  0
 10 12  1  0
 11 13  1  0
 12 14  2  0
 13 15  2  0
 14 15  1  0
 16 17  1  0
 17 18  1  0
 18 19  2  0
 18 20  1  0
 21 20  1  1
 21 22  1  0
 21 24  1  0
 22 23  2  0
 22 27  1  0
 24 25  1  6
 24 26  1  0
 28 27  1  6
 28 29  1  0
 28 31  1  0
 29 30  2  0
 29 34  1  0
 31 32  1  1
 31 33  1  0
 34 35  1  0
 34 40  1  0
 35 36  1  1
 35 38  1  0
 36 37  2  0
 36 41  1  0
 38 39  1  0
 39 40  1  0
 41 42  1  0
 42 43  1  0
 42 45  1  6
 43 44  2  0
 43 47  1  0
 45 46  1  0
 47 48  1  0
 48 49  1  0
 48 51  1  6
 49 50  2  0
 49 58  1  0
 51 52  1  0
 52 53  2  0
 52 54  1  0
 53 55  1  0
 54 56  2  0
 55 57  2  0
 56 57  1  0
M  CHG  1   1   1
M  END
$$$$
