
     RDKit          3D

 58 60  0  0  0  0  0  0  0  0999 V2000
    3.3733   -3.0646   23.6182 N   0  0  0  0  0  4  0  0  0  0  0  0
    2.1790   -2.3811   23.1462 C   0  0  0  0  0  0  0  0  0  0  0  0
    1.0965   -2.4638   24.1562 C   0  0  0  0  0  0  0  0  0  0  0  0
    0.8747   -3.5206   24.8044 O   0  0  0  0  0  0  0  0  0  0  0  0
    0.2750   -1.3467   24.4225 N   0  0  0  0  0  0  0  0  0  0  0  0
   -0.7726   -1.3861   25.3937 C   0  0  2  0  0  0  0  0  0  0  0  0
   -2.0768   -1.8150   24.8984 C   0  0  0  0  0  0  0  0  0  0  0  0
   -2.8762   -0.9497   24.4654 O   0  0  0  0  0  0  0  0  0  0  0  0
   -0.7749   -0.1086   26.1914 C   0  0  0  0  0  0  0  0  0  0  0  0
    0.3461   -0.1500   27.1968 C   0  0  0  0  0  0  0  0  0  0  0  0
    1.5799    0.3599   26.8968 C   0  0  0  0  0  0  0  0  0  0  0  0
    0.1415   -0.6986   28.4422 C   0  0  0  0  0  0  0  0  0  0  0  0
    2.6266    0.3467   27.7895 C   0  0  0  0  0  0  0  0  0  0  0  0
    1.1957   -0.7147   29.3490 C   0  0  0  0  0  0  0  0  0  0  0  0
    2.4386   -0.2031   29.0511 C   0  0  0  0  0  0  0  0  0  0  0  0
   -2.5245   -3.1775   24.8765 N   0  0  0  0  0  0  0  0  0  0  0  0
   -3.8648   -3.5140   24.4564 C   0  0  0  0  0  0  0  0  0  0  0  0
   -4.9051   -2.9287   25.3204 C   0  0  0  0  0  0  0  0  0  0  0  0
   -6.1370   -3.2793   25.1777 O   0  0  0  0  0  0  0  0  0  0  0  0
   -4.6882   -1.9616   26.3468 N   0  0  0  0  0  0  0  0  0  0  0  0
   -5.8299   -1.5883   27.1831 C   0  0  2  0  0  0  0  0  0  0  0  0
   -6.2105   -0.1607   26.8693 C   0  0  0  0  0  0  0  0  0  0  0  0
   -5.2882    0.6992   26.7966 O   0  0  0  0  0  0  0  0  0  0  0  0
   -5.4341   -1.8096   28.6005 C   0  0  1  0  0  0  0  0  0  0  0  0
   -6.3455   -1.2511   29.6426 C   0  0  0  0  0  0  0  0  0  0  0  0
   -5.2415   -3.3207   28.8068 C   0  0  0  0  0  0  0  0  0  0  0  0
   -7.5205    0.2784   26.6444 N   0  0  0  0  0  0  0  0  0  0  0  0
   -7.8884    1.6941   26.5211 C   0  0  2  0  0  0  0  0  0  0  0  0
   -7.8251    2.3881   27.8030 C   0  0  0  0  0  0  0  0  0  0  0  0
   -8.3180    1.8547   28.8223 O   0  0  0  0  0  0  0  0  0  0  0  0
   -9.2368    1.7795   25.8205 C   0  0  1  0  0  0  0  0  0  0  0  0
   -9.6389    3.2602   25.8596 C   0  0  0  0  0  0  0  0  0  0  0  0
   -9.2243    1.2613   24.4175 C   0  0  0  0  0  0  0  0  0  0  0  0
   -7.2196    3.6605   27.9432 N   0  0  0  0  0  0  0  0  0  0  0  0
   -6.9662    4.3831   29.1924 C   0  0  2  0  0  0  0  0  0  0  0  0
   -8.0501    5.3643   29.4513 C   0  0  0  0  0  0  0  0  0  0  0  0
   -8.9106    5.5589   28.5542 O   0  0  0  0  0  0  0  0  0  0  0  0
   -5.6329    5.0241   28.9433 C   0  0  0  0  0  0  0  0  0  0  0  0
   -5.4852    5.1286   27.4654 C   0  0  0  0  0  0  0  0  0  0  0  0
   -6.7312    4.4874   26.8756 C   0  0  0  0  0  0  0  0  0  0  0  0
   -8.1682    6.0914   30.6579 N   0  0  0  0  0  0  0  0  0  0  0  0
   -9.2456    5.9405   31.5910 C   0  0  2  0  0  0  0  0  0  0  0  0
   -9.0841    6.8200   32.7525 C   0  0  0  0  0  0  0  0  0  0  0  0
   -8.0117    6.7857   33.4030 O   0  0  0  0  0  0  0  0  0  0  0  0
   -9.5376    4.4987   31.9451 C   0  0  0  0  0  0  0  0  0  0  0  0
  -10.6288    4.5348   32.8387 O   0  0  0  0  0  0  0  0  0  0  0  0
  -10.0966    7.7219   33.1814 N   0  0  0  0  0  0  0  0  0  0  0  0
   -9.8461    9.1142   33.5027 C   0  0  2  0  0  0  0  0  0  0  0  0
  -10.1359    9.3119   34.9316 C   0  0  0  0  0  0  0  0  0  0  0  0
  -11.0073    8.6189   35.5534 O   0  0  0  0  0  0  0  0  0  0  0  0
  -10.7091    9.9838   32.5966 C   0  0  0  0  0  0  0  0  0  0  0  0
  -10.0398    9.9316   31.2515 C   0  0  0  0  0  0  0  0  0  0  0  0
   -9.8682    8.7646   30.5499 C   0  0  0  0  0  0  0  0  0  0  0  0
   -9.5886   11.1065   30.6905 C   0  0  0  0  0  0  0  0  0  0  0  0
   -9.2572    8.8046   29.3184 C   0  0  0  0  0  0  0  0  0  0  0  0
   -8.9790   11.1539   29.4636 C   0  0  0  0  0  0  0  0  0  0  0  0
   -8.7996    9.9934   28.7463 C   0  0  0  0  0  0  0  0  0  0  0  0
   -9.4623   10.2699   35.6572 O   0  0  0  0  0  0  0  0  0  0  0  0
  1  2  1  0
  2  3  1  0
  3  4  2  0
  3  5  1  0
  5  6  1  0
  6  7  1  0
  6  9  1  6
  7  8  2  0
  7 16  1  0
  9 10  1  0
 10 11  2  0
 10 12  1  0
 11 13  1  0
 12 14  2  0
 13 15  2  0
 14 15  1  0
 16 17  1  0
 17 18  1  0
 18 19  2  0
 18 20  1  0
 21 20  1  6
 21 22  1  0
 21 24  1  0
 22 23  2  0
 22 27  1  0
 24 25  1  1
 24 26  1  0
 28 27  1  1
 28 29  1  0
 28 31  1  0
 29 30  2  0
 29 34  1  0
 31 32  1  6
 31 33  1  0
 34 35  1  0
 34 40  1  0
 35 36  1  6
 35 38  1  0
 36 37  2  0
 36 41  1  0
 38 39  1  0
 39 40  1  0
 41 42  1  0
 42 43  1  0
 42 45  1  1
 43 44  2  0
 43 47  1  0
 45 46  1  0
 47 48  1  0
 48 49  1  0
 48 51  1  6
 49 50  2  0
 49 58  1  0
 51 52  1  0
 52 53  2  0
 52 54  1  0
 53 55  1  0
 54 56  2  0
 55 57  2  0
 56 57  1  0
M  CHG  1   1   1
M  END
$$$$
