
     RDKit          3D

 58 60  0  0  0  0  0  0  0  0999 V2000
  -11.5495   13.9510   31.8342 N   0  0  0  0  0  4  0  0  0  0  0  0
  -11.3388   13.8304   33.2685 C   0  0  0  0  0  0  0  0  0  0  0  0
  -11.2527   12.4044   33.6657 C   0  0  0  0  0  0  0  0  0  0  0  0
  -11.9593   11.9318   34.5950 O   0  0  0  0  0  0  0  0  0  0  0  0
  -10.3660   11.5265   33.0047 N   0  0  0  0  0  0  0  0  0  0  0  0
  -10.5160   10.1065   33.0631 C   0  0  2  0  0  0  0  0  0  0  0  0
   -9.4843    9.3341   32.3779 C   0  0  0  0  0  0  0  0  0  0  0  0
   -9.4215    9.3823   31.1253 O   0  0  0  0  0  0  0  0  0  0  0  0
  -11.9343    9.7304   32.7236 C   0  0  0  0  0  0  0  0  0  0  0  0
  -12.8497   10.2066   33.8210 C   0  0  0  0  0  0  0  0  0  0  0  0
  -13.1028    9.4251   34.9153 C   0  0  0  0  0  0  0  0  0  0  0  0
  -13.4427   11.4459   33.7412 C   0  0  0  0  0  0  0  0  0  0  0  0
  -13.9271    9.8267   35.9408 C   0  0  0  0  0  0  0  0  0  0  0  0
  -14.2770   11.8575   34.7748 C   0  0  0  0  0  0  0  0  0  0  0  0
  -14.5345   11.0743   35.8773 C   0  0  0  0  0  0  0  0  0  0  0  0
   -8.5232    8.5019   33.0420 N   0  0  0  0  0  0  0  0  0  0  0  0
   -7.1079    8.7697   32.9371 C   0  0  0  0  0  0  0  0  0  0  0  0
   -6.3775    7.7319   32.1883 C   0  0  0  0  0  0  0  0  0  0  0  0
   -5.0998    7.8173   32.0435 O   0  0  0  0  0  0  0  0  0  0  0  0
   -6.9604    6.5866   31.5682 N   0  0  0  0  0  0  0  0  0  0  0  0
   -6.0841    5.4520   31.2731 C   0  0  2  0  0  0  0  0  0  0  0  0
   -6.4945    4.8588   29.9461 C   0  0  0  0  0  0  0  0  0  0  0  0
   -7.6111    4.2726   29.8756 O   0  0  0  0  0  0  0  0  0  0  0  0
   -6.1854    4.5033   32.4152 C   0  0  1  0  0  0  0  0  0  0  0  0
   -5.4876    3.1930   32.2579 C   0  0  0  0  0  0  0  0  0  0  0  0
   -5.6913    5.2288   33.6773 C   0  0  0  0  0  0  0  0  0  0  0  0
   -5.7237    4.9196   28.7793 N   0  0  0  0  0  0  0  0  0  0  0  0
   -6.0501    4.1779   27.5554 C   0  0  2  0  0  0  0  0  0  0  0  0
   -5.7715    2.7520   27.6906 C   0  0  0  0  0  0  0  0  0  0  0  0
   -4.8538    2.3685   28.4504 O   0  0  0  0  0  0  0  0  0  0  0  0
   -5.3487    4.8521   26.3849 C   0  0  1  0  0  0  0  0  0  0  0  0
   -5.7506    4.0544   25.1367 C   0  0  0  0  0  0  0  0  0  0  0  0
   -5.6856    6.3011   26.2302 C   0  0  0  0  0  0  0  0  0  0  0  0
   -6.5081    1.7689   26.9861 N   0  0  0  0  0  0  0  0  0  0  0  0
   -6.3717    0.3147   27.1014 C   0  0  2  0  0  0  0  0  0  0  0  0
   -5.4949   -0.2096   26.0238 C   0  0  0  0  0  0  0  0  0  0  0  0
   -5.4795    0.3898   24.9177 O   0  0  0  0  0  0  0  0  0  0  0  0
   -7.7899   -0.1634   26.9973 C   0  0  0  0  0  0  0  0  0  0  0  0
   -8.5415    0.9008   26.2766 C   0  0  0  0  0  0  0  0  0  0  0  0
   -7.5412    2.0166   26.0199 C   0  0  0  0  0  0  0  0  0  0  0  0
   -4.6716   -1.3485   26.1770 N   0  0  0  0  0  0  0  0  0  0  0  0
   -3.7012   -1.7803   25.2146 C   0  0  2  0  0  0  0  0  0  0  0  0
   -4.3334   -2.2224   23.9682 C   0  0  0  0  0  0  0  0  0  0  0  0
   -5.2936   -3.0285   24.0201 O   0  0  0  0  0  0  0  0  0  0  0  0
   -2.6920   -2.7584   25.7750 C   0  0  0  0  0  0  0  0  0  0  0  0
   -1.9635   -2.0442   26.7497 O   0  0  0  0  0  0  0  0  0  0  0  0
   -3.9059   -1.7749   22.6877 N   0  0  0  0  0  0  0  0  0  0  0  0
   -4.3132   -2.3995   21.4433 C   0  0  2  0  0  0  0  0  0  0  0  0
   -3.1243   -3.0122   20.8300 C   0  0  0  0  0  0  0  0  0  0  0  0
   -3.2030   -3.8146   19.8421 O   0  0  0  0  0  0  0  0  0  0  0  0
   -4.9584   -1.3406   20.5577 C   0  0  0  0  0  0  0  0  0  0  0  0
   -6.2668   -1.0180   21.2238 C   0  0  0  0  0  0  0  0  0  0  0  0
   -6.4937    0.1618   21.8875 C   0  0  0  0  0  0  0  0  0  0  0  0
   -7.2888   -1.9399   21.1569 C   0  0  0  0  0  0  0  0  0  0  0  0
   -7.7245    0.3852   22.4591 C   0  0  0  0  0  0  0  0  0  0  0  0
   -8.5180   -1.7238   21.7240 C   0  0  0  0  0  0  0  0  0  0  0  0
   -8.7628   -0.5461   22.3924 C   0  0  0  0  0  0  0  0  0  0  0  0
   -1.8643   -2.7330   21.3123 O   0  0  0  0  0  0  0  0  0  0  0  0
  1  2  1  0
  2  3  1  0
  3  4  2  0
  3  5  1  0
  5  6  1  0
  6  7  1  0
  6  9  1  6
  7  8  2  0
  7 16  1  0
  9 10  1  0
 10 11  2  0
 10 12  1  0
 11 13  1  0
 12 14  2  0
 13 15  2  0
 14 15  1  0
 16 17  1  0
 17 18  1  0
 18 19  2  0
 18 20  1  0
 21 20  1  1
 21 22  1  0
 21 24  1  0
 22 23  2  0
 22 27  1  0
 24 25  1  6
 24 26  1  0
 28 27  1  1
 28 29  1  0
 28 31  1  0
 29 30  2  0
 29 34  1  0
 31 32  1  6
 31 33  1  0
 34 35  1  0
 34 40  1  0
 35 36  1  6
 35 38  1  0
 36 37  2  0
 36 41  1  0
 38 39  1  0
 39 40  1  0
 41 42  1  0
 42 43  1  0
 42 45  1  1
 43 44  2  0
 43 47  1  0
 45 46  1  0
 47 48  1  0
 48 49  1  0
 48 51  1  6
 49 50  2  0
 49 58  1  0
 51 52  1  0
 52 53  2  0
 52 54  1  0
 53 55  1  0
 54 56  2  0
 55 57  2  0
 56 57  1  0
M  CHG  1   1   1
M  END
$$$$
