
     RDKit          3D

 58 60  0  0  0  0  0  0  0  0999 V2000
    0.2498   -5.9141   23.9158 N   0  0  0  0  0  4  0  0  0  0  0  0
   -0.4225   -5.3998   22.7327 C   0  0  0  0  0  0  0  0  0  0  0  0
   -1.6124   -4.6013   23.1140 C   0  0  0  0  0  0  0  0  0  0  0  0
   -1.5360   -3.6495   23.9351 O   0  0  0  0  0  0  0  0  0  0  0  0
   -2.8789   -4.8893   22.5599 N   0  0  0  0  0  0  0  0  0  0  0  0
   -4.0689   -4.2295   22.9966 C   0  0  2  0  0  0  0  0  0  0  0  0
   -4.1705   -3.9968   24.4339 C   0  0  0  0  0  0  0  0  0  0  0  0
   -3.5915   -4.7867   25.2190 O   0  0  0  0  0  0  0  0  0  0  0  0
   -5.2716   -4.8773   22.3624 C   0  0  0  0  0  0  0  0  0  0  0  0
   -5.0785   -4.9266   20.8693 C   0  0  0  0  0  0  0  0  0  0  0  0
   -5.7599   -4.0752   20.0429 C   0  0  0  0  0  0  0  0  0  0  0  0
   -4.2027   -5.8302   20.3122 C   0  0  0  0  0  0  0  0  0  0  0  0
   -5.6063   -4.0848   18.6758 C   0  0  0  0  0  0  0  0  0  0  0  0
   -4.0430   -5.8447   18.9309 C   0  0  0  0  0  0  0  0  0  0  0  0
   -4.7268   -4.9900   18.0959 C   0  0  0  0  0  0  0  0  0  0  0  0
   -4.9034   -2.9163   25.0277 N   0  0  0  0  0  0  0  0  0  0  0  0
   -4.7533   -2.5958   26.4280 C   0  0  0  0  0  0  0  0  0  0  0  0
   -4.8779   -1.1545   26.7074 C   0  0  0  0  0  0  0  0  0  0  0  0
   -3.9833   -0.3325   26.2775 O   0  0  0  0  0  0  0  0  0  0  0  0
   -5.9318   -0.5373   27.4453 N   0  0  0  0  0  0  0  0  0  0  0  0
   -6.1452    0.8984   27.2566 C   0  0  2  0  0  0  0  0  0  0  0  0
   -7.1039    1.3864   28.3169 C   0  0  0  0  0  0  0  0  0  0  0  0
   -8.2622    0.8836   28.3492 O   0  0  0  0  0  0  0  0  0  0  0  0
   -6.6332    1.0962   25.8647 C   0  0  1  0  0  0  0  0  0  0  0  0
   -6.9716    2.4953   25.4689 C   0  0  0  0  0  0  0  0  0  0  0  0
   -5.5857    0.5039   24.9081 C   0  0  0  0  0  0  0  0  0  0  0  0
   -6.7954    2.3569   29.2771 N   0  0  0  0  0  0  0  0  0  0  0  0
   -7.0070    2.1652   30.7170 C   0  0  2  0  0  0  0  0  0  0  0  0
   -7.9431    3.1406   31.2658 C   0  0  0  0  0  0  0  0  0  0  0  0
   -8.3782    2.9960   32.4303 O   0  0  0  0  0  0  0  0  0  0  0  0
   -5.6479    2.1370   31.4015 C   0  0  1  0  0  0  0  0  0  0  0  0
   -5.8976    2.5719   32.8521 C   0  0  0  0  0  0  0  0  0  0  0  0
   -4.9700    0.8049   31.3472 C   0  0  0  0  0  0  0  0  0  0  0  0
   -8.3869    4.2616   30.5229 N   0  0  0  0  0  0  0  0  0  0  0  0
   -7.6315    5.4838   30.2360 C   0  0  2  0  0  0  0  0  0  0  0  0
   -7.9834    6.5495   31.2082 C   0  0  0  0  0  0  0  0  0  0  0  0
   -9.1985    6.7479   31.4677 O   0  0  0  0  0  0  0  0  0  0  0  0
   -8.0394    5.8064   28.8288 C   0  0  0  0  0  0  0  0  0  0  0  0
   -9.3603    5.1540   28.6130 C   0  0  0  0  0  0  0  0  0  0  0  0
   -9.6728    4.4094   29.9011 C   0  0  0  0  0  0  0  0  0  0  0  0
   -7.0218    7.3534   31.8619 N   0  0  0  0  0  0  0  0  0  0  0  0
   -7.3100    8.6085   32.4914 C   0  0  2  0  0  0  0  0  0  0  0  0
   -8.7519    8.8129   32.6583 C   0  0  0  0  0  0  0  0  0  0  0  0
   -9.5458    8.2618   31.8580 O   0  0  0  0  0  0  0  0  0  0  0  0
   -6.5905    9.7788   31.8575 C   0  0  0  0  0  0  0  0  0  0  0  0
   -5.2473    9.6787   32.2777 O   0  0  0  0  0  0  0  0  0  0  0  0
   -9.3002    9.6146   33.6970 N   0  0  0  0  0  0  0  0  0  0  0  0
  -10.7250    9.7806   33.9139 C   0  0  2  0  0  0  0  0  0  0  0  0
  -10.9143   10.8627   34.8929 C   0  0  0  0  0  0  0  0  0  0  0  0
   -9.9618   11.3001   35.6192 O   0  0  0  0  0  0  0  0  0  0  0  0
  -11.3026    8.4503   34.3814 C   0  0  0  0  0  0  0  0  0  0  0  0
  -11.8256    7.7917   33.1354 C   0  0  0  0  0  0  0  0  0  0  0  0
  -12.2944    8.5018   32.0584 C   0  0  0  0  0  0  0  0  0  0  0  0
  -11.8247    6.4156   33.0634 C   0  0  0  0  0  0  0  0  0  0  0  0
  -12.7437    7.8228   30.9499 C   0  0  0  0  0  0  0  0  0  0  0  0
  -12.2706    5.7324   31.9619 C   0  0  0  0  0  0  0  0  0  0  0  0
  -12.7432    6.4285   30.8730 C   0  0  0  0  0  0  0  0  0  0  0  0
  -12.1498   11.4492   35.0589 O   0  0  0  0  0  0  0  0  0  0  0  0
  1  2  1  0
  2  3  1  0
  3  4  2  0
  3  5  1  0
  5  6  1  0
  6  7  1  0
  6  9  1  1
  7  8  2  0
  7 16  1  0
  9 10  1  0
 10 11  2  0
 10 12  1  0
 11 13  1  0
 12 14  2  0
 13 15  2  0
 14 15  1  0
 16 17  1  0
 17 18  1  0
 18 19  2  0
 18 20  1  0
 21 20  1  1
 21 22  1  0
 21 24  1  0
 22 23  2  0
 22 27  1  0
 24 25  1  6
 24 26  1  0
 28 27  1  6
 28 29  1  0
 28 31  1  0
 29 30  2  0
 29 34  1  0
 31 32  1  1
 31 33  1  0
 34 35  1  0
 34 40  1  0
 35 36  1  1
 35 38  1  0
 36 37  2  0
 36 41  1  0
 38 39  1  0
 39 40  1  0
 41 42  1  0
 42 43  1  0
 42 45  1  6
 43 44  2  0
 43 47  1  0
 45 46  1  0
 47 48  1  0
 48 49  1  0
 48 51  1  1
 49 50  2  0
 49 58  1  0
 51 52  1  0
 52 53  2  0
 52 54  1  0
 53 55  1  0
 54 56  2  0
 55 57  2  0
 56 57  1  0
M  CHG  1   1   1
M  END
$$$$
