
     RDKit          3D

 58 60  0  0  0  0  0  0  0  0999 V2000
    3.8000   -1.2691   31.8159 N   0  0  0  0  0  4  0  0  0  0  0  0
    3.3678   -1.5369   30.4529 C   0  0  0  0  0  0  0  0  0  0  0  0
    2.1631   -2.4016   30.4475 C   0  0  0  0  0  0  0  0  0  0  0  0
    1.6540   -2.8213   29.3748 O   0  0  0  0  0  0  0  0  0  0  0  0
    1.5467   -2.7831   31.6591 N   0  0  0  0  0  0  0  0  0  0  0  0
    0.4012   -3.6368   31.6949 C   0  0  2  0  0  0  0  0  0  0  0  0
   -0.7318   -3.2072   30.8813 C   0  0  0  0  0  0  0  0  0  0  0  0
   -1.5918   -2.4481   31.3909 O   0  0  0  0  0  0  0  0  0  0  0  0
    0.0729   -3.9878   33.1222 C   0  0  0  0  0  0  0  0  0  0  0  0
   -1.4042   -4.2595   33.2387 C   0  0  0  0  0  0  0  0  0  0  0  0
   -2.2270   -4.1557   32.1504 C   0  0  0  0  0  0  0  0  0  0  0  0
   -1.9494   -4.6251   34.4482 C   0  0  0  0  0  0  0  0  0  0  0  0
   -3.5791   -4.4016   32.2146 C   0  0  0  0  0  0  0  0  0  0  0  0
   -3.3155   -4.8752   34.5195 C   0  0  0  0  0  0  0  0  0  0  0  0
   -4.1469   -4.7717   33.4271 C   0  0  0  0  0  0  0  0  0  0  0  0
   -0.9438   -3.6019   29.5187 N   0  0  0  0  0  0  0  0  0  0  0  0
   -2.2089   -3.3650   28.8633 C   0  0  0  0  0  0  0  0  0  0  0  0
   -2.6083   -1.9467   28.8736 C   0  0  0  0  0  0  0  0  0  0  0  0
   -2.2150   -1.1709   29.8244 O   0  0  0  0  0  0  0  0  0  0  0  0
   -3.4305   -1.3060   27.8992 N   0  0  0  0  0  0  0  0  0  0  0  0
   -3.0860    0.0626   27.5112 C   0  0  2  0  0  0  0  0  0  0  0  0
   -4.2908    0.6951   26.8556 C   0  0  0  0  0  0  0  0  0  0  0  0
   -4.1370    1.8044   26.2714 O   0  0  0  0  0  0  0  0  0  0  0  0
   -1.8895   -0.0130   26.6295 C   0  0  1  0  0  0  0  0  0  0  0  0
   -1.6380    1.1622   25.7440 C   0  0  0  0  0  0  0  0  0  0  0  0
   -0.6655   -0.2907   27.5171 C   0  0  0  0  0  0  0  0  0  0  0  0
   -5.5722    0.1320   26.8429 N   0  0  0  0  0  0  0  0  0  0  0  0
   -6.7875    0.8955   26.5347 C   0  0  2  0  0  0  0  0  0  0  0  0
   -6.6062    2.3253   26.7623 C   0  0  0  0  0  0  0  0  0  0  0  0
   -5.9990    2.7189   27.7835 O   0  0  0  0  0  0  0  0  0  0  0  0
   -7.9495    0.2751   27.2972 C   0  0  1  0  0  0  0  0  0  0  0  0
   -9.1877    1.1015   26.9236 C   0  0  0  0  0  0  0  0  0  0  0  0
   -8.1610   -1.1760   27.0029 C   0  0  0  0  0  0  0  0  0  0  0  0
   -7.0972    3.3012   25.8612 N   0  0  0  0  0  0  0  0  0  0  0  0
   -6.8339    4.7422   25.8934 C   0  0  2  0  0  0  0  0  0  0  0  0
   -7.9443    5.4557   26.5736 C   0  0  0  0  0  0  0  0  0  0  0  0
   -8.0133    6.7068   26.4589 O   0  0  0  0  0  0  0  0  0  0  0  0
   -6.7068    5.0913   24.4399 C   0  0  0  0  0  0  0  0  0  0  0  0
   -7.4464    4.0403   23.6879 C   0  0  0  0  0  0  0  0  0  0  0  0
   -7.9505    3.0573   24.7324 C   0  0  0  0  0  0  0  0  0  0  0  0
   -8.9329    4.8009   27.3432 N   0  0  0  0  0  0  0  0  0  0  0  0
  -10.0082    5.4686   28.0158 C   0  0  2  0  0  0  0  0  0  0  0  0
   -9.7401    5.6203   29.4489 C   0  0  0  0  0  0  0  0  0  0  0  0
   -9.1071    4.7208   30.0528 O   0  0  0  0  0  0  0  0  0  0  0  0
  -11.3687    4.8863   27.7010 C   0  0  0  0  0  0  0  0  0  0  0  0
  -11.4704    4.8837   26.2937 O   0  0  0  0  0  0  0  0  0  0  0  0
  -10.1676    6.7524   30.1960 N   0  0  0  0  0  0  0  0  0  0  0  0
   -9.9166    6.9173   31.6152 C   0  0  2  0  0  0  0  0  0  0  0  0
  -11.2109    7.1113   32.2878 C   0  0  0  0  0  0  0  0  0  0  0  0
  -11.3032    7.3237   33.5418 O   0  0  0  0  0  0  0  0  0  0  0  0
   -8.9668    8.0934   31.8063 C   0  0  0  0  0  0  0  0  0  0  0  0
   -7.7692    7.7708   30.9570 C   0  0  0  0  0  0  0  0  0  0  0  0
   -6.6768    8.5967   30.8655 C   0  0  0  0  0  0  0  0  0  0  0  0
   -7.7595    6.5897   30.2474 C   0  0  0  0  0  0  0  0  0  0  0  0
   -5.6151    8.2217   30.0757 C   0  0  0  0  0  0  0  0  0  0  0  0
   -6.7049    6.2094   29.4586 C   0  0  0  0  0  0  0  0  0  0  0  0
   -5.6013    7.0250   29.3562 C   0  0  0  0  0  0  0  0  0  0  0  0
  -12.3864    7.0691   31.5707 O   0  0  0  0  0  0  0  0  0  0  0  0
  1  2  1  0
  2  3  1  0
  3  4  2  0
  3  5  1  0
  5  6  1  0
  6  7  1  0
  6  9  1  1
  7  8  2  0
  7 16  1  0
  9 10  1  0
 10 11  2  0
 10 12  1  0
 11 13  1  0
 12 14  2  0
 13 15  2  0
 14 15  1  0
 16 17  1  0
 17 18  1  0
 18 19  2  0
 18 20  1  0
 21 20  1  6
 21 22  1  0
 21 24  1  0
 22 23  2  0
 22 27  1  0
 24 25  1  1
 24 26  1  0
 28 27  1  1
 28 29  1  0
 28 31  1  0
 29 30  2  0
 29 34  1  0
 31 32  1  6
 31 33  1  0
 34 35  1  0
 34 40  1  0
 35 36  1  6
 35 38  1  0
 36 37  2  0
 36 41  1  0
 38 39  1  0
 39 40  1  0
 41 42  1  0
 42 43  1  0
 42 45  1  1
 43 44  2  0
 43 47  1  0
 45 46  1  0
 47 48  1  0
 48 49  1  0
 48 51  1  6
 49 50  2  0
 49 58  1  0
 51 52  1  0
 52 53  2  0
 52 54  1  0
 53 55  1  0
 54 56  2  0
 55 57  2  0
 56 57  1  0
M  CHG  1   1   1
M  END
$$$$
