
     RDKit          3D

 58 60  0  0  0  0  0  0  0  0999 V2000
   -4.7112    9.7266   34.2348 N   0  0  0  0  0  4  0  0  0  0  0  0
   -4.3431    8.6695   35.1640 C   0  0  0  0  0  0  0  0  0  0  0  0
   -5.3781    7.6078   35.1837 C   0  0  0  0  0  0  0  0  0  0  0  0
   -6.3100    7.6069   36.0309 O   0  0  0  0  0  0  0  0  0  0  0  0
   -5.3474    6.5564   34.2417 N   0  0  0  0  0  0  0  0  0  0  0  0
   -6.4970    5.7578   33.9542 C   0  0  2  0  0  0  0  0  0  0  0  0
   -6.2968    4.6916   32.9777 C   0  0  0  0  0  0  0  0  0  0  0  0
   -5.3097    4.7538   32.2050 O   0  0  0  0  0  0  0  0  0  0  0  0
   -7.6848    6.6485   33.7010 C   0  0  0  0  0  0  0  0  0  0  0  0
   -7.9951    7.4285   34.9518 C   0  0  0  0  0  0  0  0  0  0  0  0
   -9.0940    8.2408   35.0204 C   0  0  0  0  0  0  0  0  0  0  0  0
   -7.1759    7.3288   36.0531 C   0  0  0  0  0  0  0  0  0  0  0  0
   -9.4148    8.9638   36.1460 C   0  0  0  0  0  0  0  0  0  0  0  0
   -7.4949    8.0571   37.1939 C   0  0  0  0  0  0  0  0  0  0  0  0
   -8.5994    8.8757   37.2670 C   0  0  0  0  0  0  0  0  0  0  0  0
   -7.1656    3.5602   32.8273 N   0  0  0  0  0  0  0  0  0  0  0  0
   -8.4841    3.7049   32.2557 C   0  0  0  0  0  0  0  0  0  0  0  0
   -8.5752    3.1940   30.8767 C   0  0  0  0  0  0  0  0  0  0  0  0
   -8.7540    1.9356   30.6636 O   0  0  0  0  0  0  0  0  0  0  0  0
   -8.4758    3.9791   29.6893 N   0  0  0  0  0  0  0  0  0  0  0  0
   -8.6604    3.2996   28.4062 C   0  0  2  0  0  0  0  0  0  0  0  0
   -7.3767    2.5885   28.0487 C   0  0  0  0  0  0  0  0  0  0  0  0
   -6.4391    2.5907   28.8952 O   0  0  0  0  0  0  0  0  0  0  0  0
   -9.0769    4.3280   27.4143 C   0  0  1  0  0  0  0  0  0  0  0  0
   -9.2238    3.8706   26.0009 C   0  0  0  0  0  0  0  0  0  0  0  0
  -10.3844    4.9637   27.9137 C   0  0  0  0  0  0  0  0  0  0  0  0
   -7.1535    1.9164   26.8413 N   0  0  0  0  0  0  0  0  0  0  0  0
   -6.2405    0.7747   26.7086 C   0  0  2  0  0  0  0  0  0  0  0  0
   -6.1718    0.2875   25.3350 C   0  0  0  0  0  0  0  0  0  0  0  0
   -7.2234   -0.0346   24.7377 O   0  0  0  0  0  0  0  0  0  0  0  0
   -6.6363   -0.2773   27.7348 C   0  0  1  0  0  0  0  0  0  0  0  0
   -7.7068   -1.1443   27.0579 C   0  0  0  0  0  0  0  0  0  0  0  0
   -5.4933   -1.1119   28.2183 C   0  0  0  0  0  0  0  0  0  0  0  0
   -4.9449    0.1619   24.6392 N   0  0  0  0  0  0  0  0  0  0  0  0
   -4.6126   -0.8265   23.6099 C   0  0  2  0  0  0  0  0  0  0  0  0
   -3.8779   -1.9696   24.2085 C   0  0  0  0  0  0  0  0  0  0  0  0
   -2.9130   -1.7260   24.9783 O   0  0  0  0  0  0  0  0  0  0  0  0
   -3.7877   -0.0341   22.6393 C   0  0  0  0  0  0  0  0  0  0  0  0
   -3.2246    1.1131   23.4034 C   0  0  0  0  0  0  0  0  0  0  0  0
   -3.7858    0.9920   24.8111 C   0  0  0  0  0  0  0  0  0  0  0  0
   -4.2086   -3.3215   23.9606 N   0  0  0  0  0  0  0  0  0  0  0  0
   -3.3976   -4.4371   24.3503 C   0  0  2  0  0  0  0  0  0  0  0  0
   -2.0015   -4.2624   23.9390 C   0  0  0  0  0  0  0  0  0  0  0  0
   -1.6875   -3.2665   23.2432 O   0  0  0  0  0  0  0  0  0  0  0  0
   -3.9907   -5.7752   23.9670 C   0  0  0  0  0  0  0  0  0  0  0  0
   -3.0729   -6.7470   24.4187 O   0  0  0  0  0  0  0  0  0  0  0  0
   -0.9738   -5.1782   24.2961 N   0  0  0  0  0  0  0  0  0  0  0  0
    0.3940   -4.7805   24.5709 C   0  0  2  0  0  0  0  0  0  0  0  0
    1.2456   -5.9763   24.4705 C   0  0  0  0  0  0  0  0  0  0  0  0
    0.9153   -7.0945   24.9867 O   0  0  0  0  0  0  0  0  0  0  0  0
    0.4429   -4.1316   25.9488 C   0  0  0  0  0  0  0  0  0  0  0  0
    0.5419   -2.6554   25.6825 C   0  0  0  0  0  0  0  0  0  0  0  0
    1.5936   -1.8889   26.1183 C   0  0  0  0  0  0  0  0  0  0  0  0
   -0.4595   -2.0445   24.9593 C   0  0  0  0  0  0  0  0  0  0  0  0
    1.6153   -0.5463   25.8209 C   0  0  0  0  0  0  0  0  0  0  0  0
   -0.4443   -0.7071   24.6590 C   0  0  0  0  0  0  0  0  0  0  0  0
    0.6030    0.0760   25.0874 C   0  0  0  0  0  0  0  0  0  0  0  0
    2.4496   -5.9250   23.8028 O   0  0  0  0  0  0  0  0  0  0  0  0
  1  2  1  0
  2  3  1  0
  3  4  2  0
  3  5  1  0
  5  6  1  0
  6  7  1  0
  6  9  1  6
  7  8  2  0
  7 16  1  0
  9 10  1  0
 10 11  2  0
 10 12  1  0
 11 13  1  0
 12 14  2  0
 13 15  2  0
 14 15  1  0
 16 17  1  0
 17 18  1  0
 18 19  2  0
 18 20  1  0
 21 20  1  1
 21 22  1  0
 21 24  1  0
 22 23  2  0
 22 27  1  0
 24 25  1  6
 24 26  1  0
 28 27  1  6
 28 29  1  0
 28 31  1  0
 29 30  2  0
 29 34  1  0
 31 32  1  6
 31 33  1  0
 34 35  1  0
 34 40  1  0
 35 36  1  1
 35 38  1  0
 36 37  2  0
 36 41  1  0
 38 39  1  0
 39 40  1  0
 41 42  1  0
 42 43  1  0
 42 45  1  6
 43 44  2  0
 43 47  1  0
 45 46  1  0
 47 48  1  0
 48 49  1  0
 48 51  1  1
 49 50  2  0
 49 58  1  0
 51 52  1  0
 52 53  2  0
 52 54  1  0
 53 55  1  0
 54 56  2  0
 55 57  2  0
 56 57  1  0
M  CHG  1   1   1
M  END
$$$$
