
     RDKit          3D

 58 60  0  0  0  0  0  0  0  0999 V2000
    3.3136   -5.6841   26.7663 N   0  0  0  0  0  4  0  0  0  0  0  0
    2.7270   -4.3578   26.6508 C   0  0  0  0  0  0  0  0  0  0  0  0
    1.5562   -4.3820   25.7412 C   0  0  0  0  0  0  0  0  0  0  0  0
    1.5383   -5.0952   24.7034 O   0  0  0  0  0  0  0  0  0  0  0  0
    0.4154   -3.5970   26.0171 N   0  0  0  0  0  0  0  0  0  0  0  0
   -0.4741   -3.1584   24.9882 C   0  0  2  0  0  0  0  0  0  0  0  0
   -1.5491   -2.2704   25.4193 C   0  0  0  0  0  0  0  0  0  0  0  0
   -2.5663   -2.7674   25.9612 O   0  0  0  0  0  0  0  0  0  0  0  0
   -0.9064   -4.3353   24.1537 C   0  0  0  0  0  0  0  0  0  0  0  0
   -0.2729   -4.2360   22.7907 C   0  0  0  0  0  0  0  0  0  0  0  0
    0.5274   -3.1759   22.4619 C   0  0  0  0  0  0  0  0  0  0  0  0
   -0.4859   -5.2203   21.8529 C   0  0  0  0  0  0  0  0  0  0  0  0
    1.1288   -3.0524   21.2308 C   0  0  0  0  0  0  0  0  0  0  0  0
    0.1194   -5.1012   20.6067 C   0  0  0  0  0  0  0  0  0  0  0  0
    0.9250   -4.0363   20.2717 C   0  0  0  0  0  0  0  0  0  0  0  0
   -1.5327   -0.8450   25.2597 N   0  0  0  0  0  0  0  0  0  0  0  0
   -2.6522   -0.0358   25.6814 C   0  0  0  0  0  0  0  0  0  0  0  0
   -3.9557   -0.6696   25.4160 C   0  0  0  0  0  0  0  0  0  0  0  0
   -4.4520   -0.6546   24.2268 O   0  0  0  0  0  0  0  0  0  0  0  0
   -4.7743   -1.3268   26.3824 N   0  0  0  0  0  0  0  0  0  0  0  0
   -6.1760   -1.5677   26.0366 C   0  0  2  0  0  0  0  0  0  0  0  0
   -7.0494   -0.8486   27.0373 C   0  0  0  0  0  0  0  0  0  0  0  0
   -8.2361   -1.2531   27.1910 O   0  0  0  0  0  0  0  0  0  0  0  0
   -6.3797   -3.0416   26.0071 C   0  0  1  0  0  0  0  0  0  0  0  0
   -5.4154   -3.8320   25.1862 C   0  0  0  0  0  0  0  0  0  0  0  0
   -6.3913   -3.5460   27.4592 C   0  0  0  0  0  0  0  0  0  0  0  0
   -6.6321    0.2363   27.8170 N   0  0  0  0  0  0  0  0  0  0  0  0
   -7.4560    0.8371   28.8730 C   0  0  2  0  0  0  0  0  0  0  0  0
   -7.3173    2.2890   28.9139 C   0  0  0  0  0  0  0  0  0  0  0  0
   -6.2591    2.7992   29.3454 O   0  0  0  0  0  0  0  0  0  0  0  0
   -7.1410    0.1335   30.1853 C   0  0  1  0  0  0  0  0  0  0  0  0
   -7.9308    0.8843   31.2661 C   0  0  0  0  0  0  0  0  0  0  0  0
   -7.4770   -1.3240   30.1868 C   0  0  0  0  0  0  0  0  0  0  0  0
   -8.3472    3.1581   28.4789 N   0  0  0  0  0  0  0  0  0  0  0  0
   -8.3119    4.6227   28.4523 C   0  0  2  0  0  0  0  0  0  0  0  0
   -8.9656    5.1779   29.6644 C   0  0  0  0  0  0  0  0  0  0  0  0
   -9.5757    4.3893   30.4319 O   0  0  0  0  0  0  0  0  0  0  0  0
   -9.0397    4.9516   27.1824 C   0  0  0  0  0  0  0  0  0  0  0  0
   -9.9134    3.7838   26.8829 C   0  0  0  0  0  0  0  0  0  0  0  0
   -9.6312    2.7618   27.9725 C   0  0  0  0  0  0  0  0  0  0  0  0
   -8.9358    6.5498   30.0040 N   0  0  0  0  0  0  0  0  0  0  0  0
   -8.0608    7.1214   30.9848 C   0  0  2  0  0  0  0  0  0  0  0  0
   -8.2580    8.5685   31.1095 C   0  0  0  0  0  0  0  0  0  0  0  0
   -7.9790    9.3113   30.1375 O   0  0  0  0  0  0  0  0  0  0  0  0
   -6.6152    6.7083   30.8152 C   0  0  0  0  0  0  0  0  0  0  0  0
   -5.8956    7.4085   31.8065 O   0  0  0  0  0  0  0  0  0  0  0  0
   -8.7575    9.1778   32.2935 N   0  0  0  0  0  0  0  0  0  0  0  0
   -9.4818   10.4347   32.3038 C   0  0  2  0  0  0  0  0  0  0  0  0
   -8.7351   11.3846   33.1437 C   0  0  0  0  0  0  0  0  0  0  0  0
   -7.6522   11.0658   33.7368 O   0  0  0  0  0  0  0  0  0  0  0  0
  -10.8945   10.1762   32.8132 C   0  0  0  0  0  0  0  0  0  0  0  0
  -11.5508    9.3493   31.7430 C   0  0  0  0  0  0  0  0  0  0  0  0
  -11.9146    9.8628   30.5233 C   0  0  0  0  0  0  0  0  0  0  0  0
  -11.7879    8.0145   31.9897 C   0  0  0  0  0  0  0  0  0  0  0  0
  -12.4987    9.0352   29.5930 C   0  0  0  0  0  0  0  0  0  0  0  0
  -12.3692    7.1838   31.0672 C   0  0  0  0  0  0  0  0  0  0  0  0
  -12.7395    7.6819   29.8390 C   0  0  0  0  0  0  0  0  0  0  0  0
   -9.1905   12.6729   33.3191 O   0  0  0  0  0  0  0  0  0  0  0  0
  1  2  1  0
  2  3  1  0
  3  4  2  0
  3  5  1  0
  5  6  1  0
  6  7  1  0
  6  9  1  1
  7  8  2  0
  7 16  1  0
  9 10  1  0
 10 11  2  0
 10 12  1  0
 11 13  1  0
 12 14  2  0
 13 15  2  0
 14 15  1  0
 16 17  1  0
 17 18  1  0
 18 19  2  0
 18 20  1  0
 21 20  1  1
 21 22  1  0
 21 24  1  0
 22 23  2  0
 22 27  1  0
 24 25  1  6
 24 26  1  0
 28 27  1  6
 28 29  1  0
 28 31  1  0
 29 30  2  0
 29 34  1  0
 31 32  1  1
 31 33  1  0
 34 35  1  0
 34 40  1  0
 35 36  1  1
 35 38  1  0
 36 37  2  0
 36 41  1  0
 38 39  1  0
 39 40  1  0
 41 42  1  0
 42 43  1  0
 42 45  1  6
 43 44  2  0
 43 47  1  0
 45 46  1  0
 47 48  1  0
 48 49  1  0
 48 51  1  1
 49 50  2  0
 49 58  1  0
 51 52  1  0
 52 53  2  0
 52 54  1  0
 53 55  1  0
 54 56  2  0
 55 57  2  0
 56 57  1  0
M  CHG  1   1   1
M  END
$$$$
