
     RDKit          3D

 55 55  0  0  0  0  0  0  0  0999 V2000
   -4.3616    3.9055   38.3339 N   0  0  0  0  0  4  0  0  0  0  0  0
   -3.3945    3.9416   37.2462 C   0  0  2  0  0  0  0  0  0  0  0  0
   -4.0632    4.4125   35.9841 C   0  0  0  0  0  0  0  0  0  0  0  0
   -5.3069    4.3744   35.9171 O   0  0  0  0  0  0  0  0  0  0  0  0
   -2.8099    2.5928   36.9791 C   0  0  0  0  0  0  0  0  0  0  0  0
   -1.7024    2.5856   35.9667 C   0  0  0  0  0  0  0  0  0  0  0  0
   -1.0981    1.2879   35.7017 C   0  0  0  0  0  0  0  0  0  0  0  0
   -0.1675    1.1934   34.8675 O   0  0  0  0  0  0  0  0  0  0  0  0
   -1.5249    0.1449   36.3501 O   0  0  0  0  0  0  0  0  0  0  0  0
   -3.3234    4.8898   34.8886 N   0  0  0  0  0  0  0  0  0  0  0  0
   -3.8288    5.1995   33.5752 C   0  0  2  0  0  0  0  0  0  0  0  0
   -4.5075    4.0234   32.9670 C   0  0  0  0  0  0  0  0  0  0  0  0
   -4.7631    3.0284   33.7226 O   0  0  0  0  0  0  0  0  0  0  0  0
   -2.7666    5.7713   32.7062 C   0  0  0  0  0  0  0  0  0  0  0  0
   -3.0621    7.1462   32.2527 C   0  0  0  0  0  0  0  0  0  0  0  0
   -4.2633    7.7438   32.5756 O   0  0  0  0  0  0  0  0  0  0  0  0
   -2.2482    7.8154   31.5682 O   0  0  0  0  0  0  0  0  0  0  0  0
   -4.8818    3.9501   31.5918 N   0  0  0  0  0  0  0  0  0  0  0  0
   -5.4955    2.7458   31.0618 C   0  0  2  0  0  0  0  0  0  0  0  0
   -5.6081    2.8301   29.5697 C   0  0  0  0  0  0  0  0  0  0  0  0
   -6.6525    2.3792   29.0542 O   0  0  0  0  0  0  0  0  0  0  0  0
   -6.7820    2.4657   31.7245 C   0  0  0  0  0  0  0  0  0  0  0  0
   -7.1769    3.5288   32.7374 C   0  0  0  0  0  0  0  0  0  0  0  0
   -8.6203    3.5022   33.0310 C   0  0  0  0  0  0  0  0  0  0  0  0
   -9.0988    4.3211   33.8420 O   0  0  0  0  0  0  0  0  0  0  0  0
   -9.4982    2.5689   32.4191 N   0  0  0  0  0  0  0  0  0  0  0  0
   -4.6208    3.3811   28.7447 N   0  0  0  0  0  0  0  0  0  0  0  0
   -4.6502    3.4921   27.3081 C   0  0  2  0  0  0  0  0  0  0  0  0
   -4.6318    2.1157   26.6737 C   0  0  0  0  0  0  0  0  0  0  0  0
   -4.2120    1.1204   27.2971 O   0  0  0  0  0  0  0  0  0  0  0  0
   -3.4271    4.1767   26.8240 C   0  0  0  0  0  0  0  0  0  0  0  0
   -2.1277    3.6637   27.3157 C   0  0  0  0  0  0  0  0  0  0  0  0
   -0.9139    4.9326   27.5532 S   0  0  0  0  0  0  0  0  0  0  0  0
   -0.1884    5.0726   29.1642 C   0  0  0  0  0  0  0  0  0  0  0  0
   -5.0944    1.9350   25.3518 N   0  0  0  0  0  0  0  0  0  0  0  0
   -5.5399    0.6767   24.7763 C   0  0  2  0  0  0  0  0  0  0  0  0
   -6.3396    0.8509   23.5771 C   0  0  0  0  0  0  0  0  0  0  0  0
   -7.3211    1.6251   23.5772 O   0  0  0  0  0  0  0  0  0  0  0  0
   -6.3597   -0.0292   25.8451 C   0  0  1  0  0  0  0  0  0  0  0  0
   -7.7512    0.5725   25.9223 C   0  0  0  0  0  0  0  0  0  0  0  0
   -6.5224   -1.5049   25.4283 C   0  0  0  0  0  0  0  0  0  0  0  0
   -6.0350    0.1580   22.3826 N   0  0  0  0  0  0  0  0  0  0  0  0
   -6.6076    0.3893   21.0585 C   0  0  2  0  0  0  0  0  0  0  0  0
   -7.7698   -0.5333   20.8633 C   0  0  0  0  0  0  0  0  0  0  0  0
   -8.6621   -0.5953   21.7615 O   0  0  0  0  0  0  0  0  0  0  0  0
   -5.4623    0.1084   20.1324 C   0  0  0  0  0  0  0  0  0  0  0  0
   -4.3897   -0.5655   20.9239 C   0  0  0  0  0  0  0  0  0  0  0  0
   -5.0928   -0.9120   22.2470 C   0  0  0  0  0  0  0  0  0  0  0  0
   -7.9414   -1.3450   19.7364 N   0  0  0  0  0  0  0  0  0  0  0  0
   -9.0844   -2.1862   19.4879 C   0  0  2  0  0  0  0  0  0  0  0  0
   -9.0152   -2.9249   18.2156 C   0  0  0  0  0  0  0  0  0  0  0  0
   -8.8468   -2.2239   17.0340 O   0  0  0  0  0  0  0  0  0  0  0  0
  -10.3857   -1.4017   19.6051 C   0  0  0  0  0  0  0  0  0  0  0  0
  -11.4848   -2.2461   19.3924 O   0  0  0  0  0  0  0  0  0  0  0  0
   -9.1024   -4.1754   18.1456 O   0  0  0  0  0  0  0  0  0  0  0  0
  2  1  1  1
  2  3  1  0
  2  5  1  0
  3  4  2  0
  3 10  1  0
  5  6  1  0
  6  7  1  0
  7  8  2  0
  7  9  1  0
 10 11  1  0
 11 12  1  0
 11 14  1  6
 12 13  2  0
 12 18  1  0
 14 15  1  0
 15 16  1  0
 15 17  2  0
 18 19  1  0
 19 20  1  0
 19 22  1  1
 20 21  2  0
 20 27  1  0
 22 23  1  0
 23 24  1  0
 24 25  2  0
 24 26  1  0
 27 28  1  0
 28 29  1  0
 28 31  1  6
 29 30  2  0
 29 35  1  0
 31 32  1  0
 32 33  1  0
 33 34  1  0
 36 35  1  1
 36 37  1  0
 36 39  1  0
 37 38  2  0
 37 42  1  0
 39 40  1  6
 39 41  1  0
 42 43  1  0
 42 48  1  0
 43 44  1  6
 43 46  1  0
 44 45  2  0
 44 49  1  0
 46 47  1  0
 47 48  1  0
 49 50  1  0
 50 51  1  0
 50 53  1  6
 51 52  1  0
 51 55  2  0
 53 54  1  0
M  CHG  1   1   1
M  END
$$$$
