
     RDKit          3D

 55 55  0  0  0  0  0  0  0  0999 V2000
   -1.2288    5.1858   35.5436 N   0  0  0  0  0  4  0  0  0  0  0  0
   -2.0265    4.0049   35.8421 C   0  0  2  0  0  0  0  0  0  0  0  0
   -2.2686    3.2206   34.5819 C   0  0  0  0  0  0  0  0  0  0  0  0
   -3.4362    3.1129   34.1605 O   0  0  0  0  0  0  0  0  0  0  0  0
   -3.3562    4.3656   36.4199 C   0  0  0  0  0  0  0  0  0  0  0  0
   -4.2601    3.1954   36.6752 C   0  0  0  0  0  0  0  0  0  0  0  0
   -4.1508    2.5896   37.9944 C   0  0  0  0  0  0  0  0  0  0  0  0
   -4.9140    1.6476   38.3119 O   0  0  0  0  0  0  0  0  0  0  0  0
   -3.2199    3.0273   38.9169 O   0  0  0  0  0  0  0  0  0  0  0  0
   -1.2169    2.6118   33.8758 N   0  0  0  0  0  0  0  0  0  0  0  0
   -1.3367    1.6867   32.7776 C   0  0  2  0  0  0  0  0  0  0  0  0
   -1.7177    2.3867   31.5213 C   0  0  0  0  0  0  0  0  0  0  0  0
   -2.6071    3.2976   31.5948 O   0  0  0  0  0  0  0  0  0  0  0  0
   -2.2465    0.5600   33.1143 C   0  0  0  0  0  0  0  0  0  0  0  0
   -1.6731   -0.3767   34.1027 C   0  0  0  0  0  0  0  0  0  0  0  0
   -0.3950   -0.1841   34.5861 O   0  0  0  0  0  0  0  0  0  0  0  0
   -2.3126   -1.3678   34.5359 O   0  0  0  0  0  0  0  0  0  0  0  0
   -1.1460    2.0922   30.2472 N   0  0  0  0  0  0  0  0  0  0  0  0
   -1.7039    2.6753   29.0404 C   0  0  2  0  0  0  0  0  0  0  0  0
   -2.9797    1.9830   28.6672 C   0  0  0  0  0  0  0  0  0  0  0  0
   -3.5744    1.3638   29.5742 O   0  0  0  0  0  0  0  0  0  0  0  0
   -0.7139    2.6927   27.9485 C   0  0  0  0  0  0  0  0  0  0  0  0
    0.7136    2.8777   28.4384 C   0  0  0  0  0  0  0  0  0  0  0  0
    1.3621    4.0469   27.8198 C   0  0  0  0  0  0  0  0  0  0  0  0
    2.5331    4.3404   28.1361 O   0  0  0  0  0  0  0  0  0  0  0  0
    0.6975    4.8626   26.8664 N   0  0  0  0  0  0  0  0  0  0  0  0
   -3.5259    1.9996   27.3786 N   0  0  0  0  0  0  0  0  0  0  0  0
   -4.7358    1.3521   26.9384 C   0  0  2  0  0  0  0  0  0  0  0  0
   -5.0395    1.7260   25.5012 C   0  0  0  0  0  0  0  0  0  0  0  0
   -4.6438    2.8040   25.0146 O   0  0  0  0  0  0  0  0  0  0  0  0
   -5.8909    1.8337   27.7339 C   0  0  0  0  0  0  0  0  0  0  0  0
   -5.7266    1.8743   29.2052 C   0  0  0  0  0  0  0  0  0  0  0  0
   -7.1764    1.3698   30.0900 S   0  0  0  0  0  0  0  0  0  0  0  0
   -8.5043    0.6728   29.1453 C   0  0  0  0  0  0  0  0  0  0  0  0
   -5.7836    0.8507   24.6801 N   0  0  0  0  0  0  0  0  0  0  0  0
   -6.2888    1.1609   23.3529 C   0  0  2  0  0  0  0  0  0  0  0  0
   -7.7345    1.2874   23.3094 C   0  0  0  0  0  0  0  0  0  0  0  0
   -8.4124    1.1671   24.3529 O   0  0  0  0  0  0  0  0  0  0  0  0
   -5.8419    0.0315   22.4378 C   0  0  1  0  0  0  0  0  0  0  0  0
   -6.2499    0.3239   21.0052 C   0  0  0  0  0  0  0  0  0  0  0  0
   -4.3015   -0.0316   22.4705 C   0  0  0  0  0  0  0  0  0  0  0  0
   -8.4141    1.5496   22.0974 N   0  0  0  0  0  0  0  0  0  0  0  0
   -9.8152    1.2687   21.7934 C   0  0  2  0  0  0  0  0  0  0  0  0
   -9.9099   -0.0692   21.1293 C   0  0  0  0  0  0  0  0  0  0  0  0
   -8.8537   -0.6091   20.6827 O   0  0  0  0  0  0  0  0  0  0  0  0
  -10.2102    2.4062   20.8998 C   0  0  0  0  0  0  0  0  0  0  0  0
   -8.9621    3.1099   20.4777 C   0  0  0  0  0  0  0  0  0  0  0  0
   -7.8473    2.1509   20.9276 C   0  0  0  0  0  0  0  0  0  0  0  0
  -11.1062   -0.7770   20.9667 N   0  0  0  0  0  0  0  0  0  0  0  0
  -11.2278   -2.0617   20.3260 C   0  0  2  0  0  0  0  0  0  0  0  0
  -10.5246   -2.1528   19.0352 C   0  0  0  0  0  0  0  0  0  0  0  0
  -10.2539   -0.9938   18.3284 O   0  0  0  0  0  0  0  0  0  0  0  0
  -12.6876   -2.4793   20.1946 C   0  0  0  0  0  0  0  0  0  0  0  0
  -12.7840   -3.7148   19.5385 O   0  0  0  0  0  0  0  0  0  0  0  0
  -10.1526   -3.2425   18.5348 O   0  0  0  0  0  0  0  0  0  0  0  0
  2  1  1  6
  2  3  1  0
  2  5  1  0
  3  4  2  0
  3 10  1  0
  5  6  1  0
  6  7  1  0
  7  8  2  0
  7  9  1  0
 10 11  1  0
 11 12  1  0
 11 14  1  1
 12 13  2  0
 12 18  1  0
 14 15  1  0
 15 16  1  0
 15 17  2  0
 18 19  1  0
 19 20  1  0
 19 22  1  6
 20 21  2  0
 20 27  1  0
 22 23  1  0
 23 24  1  0
 24 25  2  0
 24 26  1  0
 27 28  1  0
 28 29  1  0
 28 31  1  1
 29 30  2  0
 29 35  1  0
 31 32  1  0
 32 33  1  0
 33 34  1  0
 36 35  1  1
 36 37  1  0
 36 39  1  0
 37 38  2  0
 37 42  1  0
 39 40  1  6
 39 41  1  0
 42 43  1  0
 42 48  1  0
 43 44  1  6
 43 46  1  0
 44 45  2  0
 44 49  1  0
 46 47  1  0
 47 48  1  0
 49 50  1  0
 50 51  1  0
 50 53  1  6
 51 52  1  0
 51 55  2  0
 53 54  1  0
M  CHG  1   1   1
M  END
$$$$
