
     RDKit          3D

 55 55  0  0  0  0  0  0  0  0999 V2000
    0.8279    9.0991   31.9002 N   0  0  0  0  0  4  0  0  0  0  0  0
   -0.1283    9.7270   32.8010 C   0  0  2  0  0  0  0  0  0  0  0  0
   -1.4819    9.0942   32.6302 C   0  0  0  0  0  0  0  0  0  0  0  0
   -2.4481    9.5730   33.2547 O   0  0  0  0  0  0  0  0  0  0  0  0
   -0.2685   11.1894   32.5290 C   0  0  0  0  0  0  0  0  0  0  0  0
    0.4143   11.6562   31.2770 C   0  0  0  0  0  0  0  0  0  0  0  0
    0.4008   13.0941   31.0496 C   0  0  0  0  0  0  0  0  0  0  0  0
   -0.1428   13.8516   31.8871 O   0  0  0  0  0  0  0  0  0  0  0  0
    0.9760   13.6543   29.9251 O   0  0  0  0  0  0  0  0  0  0  0  0
   -1.6794    7.9850   31.7901 N   0  0  0  0  0  0  0  0  0  0  0  0
   -2.9131    7.5887   31.1599 C   0  0  2  0  0  0  0  0  0  0  0  0
   -2.7298    6.3615   30.3388 C   0  0  0  0  0  0  0  0  0  0  0  0
   -1.9922    6.4449   29.3019 O   0  0  0  0  0  0  0  0  0  0  0  0
   -3.5186    8.7127   30.3981 C   0  0  0  0  0  0  0  0  0  0  0  0
   -4.5150    9.4755   31.1782 C   0  0  0  0  0  0  0  0  0  0  0  0
   -5.3504   10.3768   30.5504 O   0  0  0  0  0  0  0  0  0  0  0  0
   -4.6411    9.3379   32.4207 O   0  0  0  0  0  0  0  0  0  0  0  0
   -3.3342    5.1060   30.6473 N   0  0  0  0  0  0  0  0  0  0  0  0
   -3.3440    4.0359   29.6663 C   0  0  2  0  0  0  0  0  0  0  0  0
   -4.2616    4.3762   28.5312 C   0  0  0  0  0  0  0  0  0  0  0  0
   -4.1683    5.5261   28.0527 O   0  0  0  0  0  0  0  0  0  0  0  0
   -3.6557    2.7389   30.2936 C   0  0  0  0  0  0  0  0  0  0  0  0
   -2.6275    2.3133   31.3298 C   0  0  0  0  0  0  0  0  0  0  0  0
   -1.3150    2.0332   30.7221 C   0  0  0  0  0  0  0  0  0  0  0  0
   -0.4468    2.9292   30.6919 O   0  0  0  0  0  0  0  0  0  0  0  0
   -0.9966    0.7677   30.1625 N   0  0  0  0  0  0  0  0  0  0  0  0
   -5.1959    3.4846   27.9916 N   0  0  0  0  0  0  0  0  0  0  0  0
   -5.8477    3.5780   26.7097 C   0  0  2  0  0  0  0  0  0  0  0  0
   -6.9266    2.5201   26.5899 C   0  0  0  0  0  0  0  0  0  0  0  0
   -7.7162    2.5063   25.6246 O   0  0  0  0  0  0  0  0  0  0  0  0
   -4.8798    3.2930   25.6231 C   0  0  0  0  0  0  0  0  0  0  0  0
   -5.1699    3.8736   24.2919 C   0  0  0  0  0  0  0  0  0  0  0  0
   -5.7986    5.5285   24.3671 S   0  0  0  0  0  0  0  0  0  0  0  0
   -5.0336    6.7373   23.3207 C   0  0  0  0  0  0  0  0  0  0  0  0
   -7.0575    1.5217   27.5800 N   0  0  0  0  0  0  0  0  0  0  0  0
   -8.0946    0.5042   27.6228 C   0  0  2  0  0  0  0  0  0  0  0  0
   -7.9753   -0.3822   28.7667 C   0  0  0  0  0  0  0  0  0  0  0  0
   -7.0945   -1.2690   28.7915 O   0  0  0  0  0  0  0  0  0  0  0  0
   -7.9778   -0.2965   26.3353 C   0  0  1  0  0  0  0  0  0  0  0  0
   -9.0721   -1.3464   26.2688 C   0  0  0  0  0  0  0  0  0  0  0  0
   -8.1953    0.6660   25.1503 C   0  0  0  0  0  0  0  0  0  0  0  0
   -8.8423   -0.2699   29.8781 N   0  0  0  0  0  0  0  0  0  0  0  0
   -8.5247   -0.5509   31.2761 C   0  0  2  0  0  0  0  0  0  0  0  0
   -8.9071   -1.9641   31.5871 C   0  0  0  0  0  0  0  0  0  0  0  0
   -9.2586   -2.7279   30.6386 O   0  0  0  0  0  0  0  0  0  0  0  0
   -9.3350    0.4639   32.0258 C   0  0  0  0  0  0  0  0  0  0  0  0
  -10.3091    1.0682   31.0682 C   0  0  0  0  0  0  0  0  0  0  0  0
  -10.2112    0.1495   29.8389 C   0  0  0  0  0  0  0  0  0  0  0  0
   -8.9013   -2.5087   32.8762 N   0  0  0  0  0  0  0  0  0  0  0  0
   -8.3360   -3.7848   33.2336 C   0  0  2  0  0  0  0  0  0  0  0  0
   -8.3942   -4.0795   34.6754 C   0  0  0  0  0  0  0  0  0  0  0  0
   -8.8371   -5.3220   35.0952 O   0  0  0  0  0  0  0  0  0  0  0  0
   -6.9192   -3.9344   32.6924 C   0  0  0  0  0  0  0  0  0  0  0  0
   -6.9476   -4.4436   31.3862 O   0  0  0  0  0  0  0  0  0  0  0  0
   -8.0586   -3.2506   35.5567 O   0  0  0  0  0  0  0  0  0  0  0  0
  2  1  1  6
  2  3  1  0
  2  5  1  0
  3  4  2  0
  3 10  1  0
  5  6  1  0
  6  7  1  0
  7  8  2  0
  7  9  1  0
 10 11  1  0
 11 12  1  0
 11 14  1  6
 12 13  2  0
 12 18  1  0
 14 15  1  0
 15 16  1  0
 15 17  2  0
 18 19  1  0
 19 20  1  0
 19 22  1  1
 20 21  2  0
 20 27  1  0
 22 23  1  0
 23 24  1  0
 24 25  2  0
 24 26  1  0
 27 28  1  0
 28 29  1  0
 28 31  1  6
 29 30  2  0
 29 35  1  0
 31 32  1  0
 32 33  1  0
 33 34  1  0
 36 35  1  1
 36 37  1  0
 36 39  1  0
 37 38  2  0
 37 42  1  0
 39 40  1  1
 39 41  1  0
 42 43  1  0
 42 48  1  0
 43 44  1  1
 43 46  1  0
 44 45  2  0
 44 49  1  0
 46 47  1  0
 47 48  1  0
 49 50  1  0
 50 51  1  0
 50 53  1  1
 51 52  1  0
 51 55  2  0
 53 54  1  0
M  CHG  1   1   1
M  END
$$$$
