
     RDKit          3D

 55 55  0  0  0  0  0  0  0  0999 V2000
   -0.3141   -2.3756   28.5637 N   0  0  0  0  0  4  0  0  0  0  0  0
    0.2739   -1.9300   27.3085 C   0  0  2  0  0  0  0  0  0  0  0  0
   -0.7944   -1.3538   26.4205 C   0  0  0  0  0  0  0  0  0  0  0  0
   -1.3414   -0.2868   26.7594 O   0  0  0  0  0  0  0  0  0  0  0  0
    0.9253   -3.0546   26.5712 C   0  0  0  0  0  0  0  0  0  0  0  0
    1.8835   -2.6223   25.5005 C   0  0  0  0  0  0  0  0  0  0  0  0
    3.2598   -3.0662   25.6688 C   0  0  0  0  0  0  0  0  0  0  0  0
    4.1287   -2.7311   24.8301 O   0  0  0  0  0  0  0  0  0  0  0  0
    3.6404   -3.8546   26.7377 O   0  0  0  0  0  0  0  0  0  0  0  0
   -1.1861   -1.9864   25.2282 N   0  0  0  0  0  0  0  0  0  0  0  0
   -2.4192   -1.7866   24.5101 C   0  0  2  0  0  0  0  0  0  0  0  0
   -3.5605   -1.5852   25.4433 C   0  0  0  0  0  0  0  0  0  0  0  0
   -3.9069   -2.5674   26.1791 O   0  0  0  0  0  0  0  0  0  0  0  0
   -2.6573   -2.8763   23.5272 C   0  0  0  0  0  0  0  0  0  0  0  0
   -2.0504   -2.6123   22.2061 C   0  0  0  0  0  0  0  0  0  0  0  0
   -2.6066   -3.1500   21.0633 O   0  0  0  0  0  0  0  0  0  0  0  0
   -1.0233   -1.9014   22.0707 O   0  0  0  0  0  0  0  0  0  0  0  0
   -4.2841   -0.3601   25.5549 N   0  0  0  0  0  0  0  0  0  0  0  0
   -5.2717   -0.1846   26.6044 C   0  0  2  0  0  0  0  0  0  0  0  0
   -5.9257    1.1587   26.4869 C   0  0  0  0  0  0  0  0  0  0  0  0
   -5.1874    2.1599   26.5981 O   0  0  0  0  0  0  0  0  0  0  0  0
   -4.6864   -0.4290   27.9350 C   0  0  0  0  0  0  0  0  0  0  0  0
   -4.2384   -1.8680   28.1361 C   0  0  0  0  0  0  0  0  0  0  0  0
   -5.2247   -2.6514   28.9002 C   0  0  0  0  0  0  0  0  0  0  0  0
   -5.9386   -2.0812   29.7502 O   0  0  0  0  0  0  0  0  0  0  0  0
   -5.3957   -4.0473   28.7041 N   0  0  0  0  0  0  0  0  0  0  0  0
   -7.2949    1.3406   26.2603 N   0  0  0  0  0  0  0  0  0  0  0  0
   -8.1209    2.4183   26.7431 C   0  0  2  0  0  0  0  0  0  0  0  0
   -7.9214    2.6067   28.2338 C   0  0  0  0  0  0  0  0  0  0  0  0
   -7.7391    1.6329   28.9914 O   0  0  0  0  0  0  0  0  0  0  0  0
   -9.5542    2.0813   26.5666 C   0  0  0  0  0  0  0  0  0  0  0  0
  -10.3589    2.9840   25.7118 C   0  0  0  0  0  0  0  0  0  0  0  0
  -10.2613    2.5928   23.9864 S   0  0  0  0  0  0  0  0  0  0  0  0
  -11.0600    3.6991   22.8552 C   0  0  0  0  0  0  0  0  0  0  0  0
   -7.9389    3.9019   28.7962 N   0  0  0  0  0  0  0  0  0  0  0  0
   -8.1674    4.2123   30.1977 C   0  0  2  0  0  0  0  0  0  0  0  0
   -8.8631    5.4712   30.3958 C   0  0  0  0  0  0  0  0  0  0  0  0
   -8.4461    6.5174   29.8532 O   0  0  0  0  0  0  0  0  0  0  0  0
   -6.8013    4.2673   30.8637 C   0  0  1  0  0  0  0  0  0  0  0  0
   -6.9503    4.5749   32.3427 C   0  0  0  0  0  0  0  0  0  0  0  0
   -6.1555    2.8717   30.7500 C   0  0  0  0  0  0  0  0  0  0  0  0
  -10.0238    5.5519   31.1995 N   0  0  0  0  0  0  0  0  0  0  0  0
  -10.8547    6.7307   31.4326 C   0  0  2  0  0  0  0  0  0  0  0  0
  -10.3898    7.4144   32.6803 C   0  0  0  0  0  0  0  0  0  0  0  0
  -10.1599    6.7168   33.7133 O   0  0  0  0  0  0  0  0  0  0  0  0
  -12.2377    6.1625   31.5451 C   0  0  0  0  0  0  0  0  0  0  0  0
  -12.1125    4.6807   31.6857 C   0  0  0  0  0  0  0  0  0  0  0  0
  -10.6100    4.4766   31.9420 C   0  0  0  0  0  0  0  0  0  0  0  0
  -10.1872    8.7951   32.7846 N   0  0  0  0  0  0  0  0  0  0  0  0
  -10.6130    9.7703   31.8133 C   0  0  2  0  0  0  0  0  0  0  0  0
  -10.2338   11.1527   32.1513 C   0  0  0  0  0  0  0  0  0  0  0  0
  -10.6245   12.1854   31.3164 O   0  0  0  0  0  0  0  0  0  0  0  0
  -12.1065    9.6566   31.5320 C   0  0  0  0  0  0  0  0  0  0  0  0
  -12.4935   10.5961   30.5657 O   0  0  0  0  0  0  0  0  0  0  0  0
   -9.5647   11.4480   33.1717 O   0  0  0  0  0  0  0  0  0  0  0  0
  2  1  1  1
  2  3  1  0
  2  5  1  0
  3  4  2  0
  3 10  1  0
  5  6  1  0
  6  7  1  0
  7  8  2  0
  7  9  1  0
 10 11  1  0
 11 12  1  0
 11 14  1  1
 12 13  2  0
 12 18  1  0
 14 15  1  0
 15 16  1  0
 15 17  2  0
 18 19  1  0
 19 20  1  0
 19 22  1  1
 20 21  2  0
 20 27  1  0
 22 23  1  0
 23 24  1  0
 24 25  2  0
 24 26  1  0
 27 28  1  0
 28 29  1  0
 28 31  1  1
 29 30  2  0
 29 35  1  0
 31 32  1  0
 32 33  1  0
 33 34  1  0
 36 35  1  6
 36 37  1  0
 36 39  1  0
 37 38  2  0
 37 42  1  0
 39 40  1  1
 39 41  1  0
 42 43  1  0
 42 48  1  0
 43 44  1  1
 43 46  1  0
 44 45  2  0
 44 49  1  0
 46 47  1  0
 47 48  1  0
 49 50  1  0
 50 51  1  0
 50 53  1  1
 51 52  1  0
 51 55  2  0
 53 54  1  0
M  CHG  1   1   1
M  END
$$$$
