
     RDKit          3D

 55 55  0  0  0  0  0  0  0  0999 V2000
   -1.5181   -1.4617   26.8747 N   0  0  0  0  0  4  0  0  0  0  0  0
   -0.3713   -2.2158   27.3607 C   0  0  2  0  0  0  0  0  0  0  0  0
    0.5890   -1.2917   28.0576 C   0  0  0  0  0  0  0  0  0  0  0  0
    1.6001   -1.7787   28.5990 O   0  0  0  0  0  0  0  0  0  0  0  0
    0.3646   -2.8856   26.2461 C   0  0  0  0  0  0  0  0  0  0  0  0
   -0.5186   -3.5049   25.2031 C   0  0  0  0  0  0  0  0  0  0  0  0
    0.1703   -4.1831   24.1146 C   0  0  0  0  0  0  0  0  0  0  0  0
   -0.4848   -4.6194   23.1393 O   0  0  0  0  0  0  0  0  0  0  0  0
    1.5404   -4.3618   24.1253 O   0  0  0  0  0  0  0  0  0  0  0  0
    0.3730    0.0960   28.1118 N   0  0  0  0  0  0  0  0  0  0  0  0
   -0.3670    0.8917   27.1655 C   0  0  2  0  0  0  0  0  0  0  0  0
   -1.8150    0.5505   27.1891 C   0  0  0  0  0  0  0  0  0  0  0  0
   -2.1398   -0.6730   27.0345 O   0  0  0  0  0  0  0  0  0  0  0  0
    0.2276    0.8093   25.8053 C   0  0  0  0  0  0  0  0  0  0  0  0
    1.6342    1.2589   25.7560 C   0  0  0  0  0  0  0  0  0  0  0  0
    2.5900    0.6461   26.5404 O   0  0  0  0  0  0  0  0  0  0  0  0
    2.0115    2.1988   25.0124 O   0  0  0  0  0  0  0  0  0  0  0  0
   -2.8518    1.5142   27.3715 N   0  0  0  0  0  0  0  0  0  0  0  0
   -4.2210    1.0855   27.5929 C   0  0  2  0  0  0  0  0  0  0  0  0
   -5.1219    2.2733   27.7466 C   0  0  0  0  0  0  0  0  0  0  0  0
   -5.2593    2.7346   28.8991 O   0  0  0  0  0  0  0  0  0  0  0  0
   -4.3094    0.1420   28.7220 C   0  0  0  0  0  0  0  0  0  0  0  0
   -5.7258   -0.3437   28.9860 C   0  0  0  0  0  0  0  0  0  0  0  0
   -6.1055   -1.4505   28.0909 C   0  0  0  0  0  0  0  0  0  0  0  0
   -6.9772   -1.2646   27.2174 O   0  0  0  0  0  0  0  0  0  0  0  0
   -5.5104   -2.7363   28.1855 N   0  0  0  0  0  0  0  0  0  0  0  0
   -5.7996    2.8789   26.6822 N   0  0  0  0  0  0  0  0  0  0  0  0
   -6.8629    3.8480   26.7668 C   0  0  2  0  0  0  0  0  0  0  0  0
   -7.4432    3.8712   28.1669 C   0  0  0  0  0  0  0  0  0  0  0  0
   -8.0822    2.9006   28.6196 O   0  0  0  0  0  0  0  0  0  0  0  0
   -7.9801    3.4592   25.8727 C   0  0  0  0  0  0  0  0  0  0  0  0
   -9.1532    4.3620   25.8274 C   0  0  0  0  0  0  0  0  0  0  0  0
  -10.4033    3.8358   24.6872 S   0  0  0  0  0  0  0  0  0  0  0  0
  -11.9120    3.2033   25.3693 C   0  0  0  0  0  0  0  0  0  0  0  0
   -7.2683    5.0044   28.9912 N   0  0  0  0  0  0  0  0  0  0  0  0
   -7.8830    5.2062   30.2928 C   0  0  2  0  0  0  0  0  0  0  0  0
   -9.1474    5.9162   30.2212 C   0  0  0  0  0  0  0  0  0  0  0  0
   -9.5026    6.4716   29.1590 O   0  0  0  0  0  0  0  0  0  0  0  0
   -6.8915    6.0010   31.1283 C   0  0  1  0  0  0  0  0  0  0  0  0
   -5.5648    5.2678   31.2072 C   0  0  0  0  0  0  0  0  0  0  0  0
   -6.6303    7.3430   30.4149 C   0  0  0  0  0  0  0  0  0  0  0  0
  -10.0089    5.9995   31.3395 N   0  0  0  0  0  0  0  0  0  0  0  0
  -11.2959    6.6871   31.4119 C   0  0  2  0  0  0  0  0  0  0  0  0
  -11.0791    8.0708   31.9395 C   0  0  0  0  0  0  0  0  0  0  0  0
  -10.0161    8.3232   32.5822 O   0  0  0  0  0  0  0  0  0  0  0  0
  -12.1010    5.8185   32.3316 C   0  0  0  0  0  0  0  0  0  0  0  0
  -11.1645    4.8581   32.9887 C   0  0  0  0  0  0  0  0  0  0  0  0
   -9.7774    5.4140   32.6259 C   0  0  0  0  0  0  0  0  0  0  0  0
  -11.9856    9.1229   31.7669 N   0  0  0  0  0  0  0  0  0  0  0  0
  -11.7785   10.4764   32.2153 C   0  0  2  0  0  0  0  0  0  0  0  0
  -12.9929   11.3087   32.1779 C   0  0  0  0  0  0  0  0  0  0  0  0
  -12.9542   12.5871   32.7074 O   0  0  0  0  0  0  0  0  0  0  0  0
  -10.6277   11.1381   31.4668 C   0  0  0  0  0  0  0  0  0  0  0  0
  -10.3662   12.4085   31.9995 O   0  0  0  0  0  0  0  0  0  0  0  0
  -14.0775   10.9138   31.6839 O   0  0  0  0  0  0  0  0  0  0  0  0
  2  1  1  6
  2  3  1  0
  2  5  1  0
  3  4  2  0
  3 10  1  0
  5  6  1  0
  6  7  1  0
  7  8  2  0
  7  9  1  0
 10 11  1  0
 11 12  1  0
 11 14  1  6
 12 13  2  0
 12 18  1  0
 14 15  1  0
 15 16  1  0
 15 17  2  0
 18 19  1  0
 19 20  1  0
 19 22  1  1
 20 21  2  0
 20 27  1  0
 22 23  1  0
 23 24  1  0
 24 25  2  0
 24 26  1  0
 27 28  1  0
 28 29  1  0
 28 31  1  6
 29 30  2  0
 29 35  1  0
 31 32  1  0
 32 33  1  0
 33 34  1  0
 36 35  1  6
 36 37  1  0
 36 39  1  0
 37 38  2  0
 37 42  1  0
 39 40  1  6
 39 41  1  0
 42 43  1  0
 42 48  1  0
 43 44  1  1
 43 46  1  0
 44 45  2  0
 44 49  1  0
 46 47  1  0
 47 48  1  0
 49 50  1  0
 50 51  1  0
 50 53  1  6
 51 52  1  0
 51 55  2  0
 53 54  1  0
M  CHG  1   1   1
M  END
$$$$
