
     RDKit          3D

 55 55  0  0  0  0  0  0  0  0999 V2000
    1.7011   -0.3575   25.5297 N   0  0  0  0  0  4  0  0  0  0  0  0
    1.6436   -1.8041   25.3756 C   0  0  2  0  0  0  0  0  0  0  0  0
    0.2134   -2.2664   25.4271 C   0  0  0  0  0  0  0  0  0  0  0  0
   -0.1993   -3.0319   24.5347 O   0  0  0  0  0  0  0  0  0  0  0  0
    2.3919   -2.5075   26.4607 C   0  0  0  0  0  0  0  0  0  0  0  0
    1.9353   -2.1695   27.8495 C   0  0  0  0  0  0  0  0  0  0  0  0
    2.5817   -2.9092   28.9238 C   0  0  0  0  0  0  0  0  0  0  0  0
    3.3895   -2.3250   29.6834 O   0  0  0  0  0  0  0  0  0  0  0  0
    2.3279   -4.2512   29.1333 O   0  0  0  0  0  0  0  0  0  0  0  0
   -0.6599   -1.8577   26.4496 N   0  0  0  0  0  0  0  0  0  0  0  0
   -2.0370   -2.2480   26.6155 C   0  0  2  0  0  0  0  0  0  0  0  0
   -2.8971   -1.6561   25.5556 C   0  0  0  0  0  0  0  0  0  0  0  0
   -2.3946   -1.5157   24.3920 O   0  0  0  0  0  0  0  0  0  0  0  0
   -2.5223   -1.9540   27.9897 C   0  0  0  0  0  0  0  0  0  0  0  0
   -3.7185   -2.7360   28.3650 C   0  0  0  0  0  0  0  0  0  0  0  0
   -4.6144   -2.2393   29.2897 O   0  0  0  0  0  0  0  0  0  0  0  0
   -3.9652   -3.8633   27.8678 O   0  0  0  0  0  0  0  0  0  0  0  0
   -4.2442   -1.2375   25.7724 N   0  0  0  0  0  0  0  0  0  0  0  0
   -5.0232   -0.6787   24.6822 C   0  0  2  0  0  0  0  0  0  0  0  0
   -6.3978   -0.3146   25.1554 C   0  0  0  0  0  0  0  0  0  0  0  0
   -7.3438   -0.5342   24.3701 O   0  0  0  0  0  0  0  0  0  0  0  0
   -5.0323   -1.5797   23.5155 C   0  0  0  0  0  0  0  0  0  0  0  0
   -5.9796   -1.1253   22.4164 C   0  0  0  0  0  0  0  0  0  0  0  0
   -5.7247    0.2673   22.0091 C   0  0  0  0  0  0  0  0  0  0  0  0
   -5.8911    1.1900   22.8327 O   0  0  0  0  0  0  0  0  0  0  0  0
   -5.2921    0.6038   20.6992 N   0  0  0  0  0  0  0  0  0  0  0  0
   -6.6662    0.2450   26.4099 N   0  0  0  0  0  0  0  0  0  0  0  0
   -7.3574    1.4800   26.6816 C   0  0  2  0  0  0  0  0  0  0  0  0
   -7.2086    1.8556   28.1426 C   0  0  0  0  0  0  0  0  0  0  0  0
   -7.0433    0.9864   29.0215 O   0  0  0  0  0  0  0  0  0  0  0  0
   -8.8129    1.3111   26.4540 C   0  0  0  0  0  0  0  0  0  0  0  0
   -9.2237    0.3788   25.3791 C   0  0  0  0  0  0  0  0  0  0  0  0
   -9.0687    1.0659   23.7533 S   0  0  0  0  0  0  0  0  0  0  0  0
  -10.3631    2.1421   23.1984 C   0  0  0  0  0  0  0  0  0  0  0  0
   -7.2553    3.2107   28.5374 N   0  0  0  0  0  0  0  0  0  0  0  0
   -6.3855    3.8355   29.5201 C   0  0  2  0  0  0  0  0  0  0  0  0
   -7.0860    4.2360   30.7272 C   0  0  0  0  0  0  0  0  0  0  0  0
   -6.4483    4.6190   31.7320 O   0  0  0  0  0  0  0  0  0  0  0  0
   -5.7718    5.0554   28.8509 C   0  0  1  0  0  0  0  0  0  0  0  0
   -4.9513    5.8469   29.8532 C   0  0  0  0  0  0  0  0  0  0  0  0
   -4.8048    4.5655   27.7541 C   0  0  0  0  0  0  0  0  0  0  0  0
   -8.4978    4.2071   30.8026 N   0  0  0  0  0  0  0  0  0  0  0  0
   -9.4184    5.3063   30.5226 C   0  0  2  0  0  0  0  0  0  0  0  0
   -9.7318    6.0162   31.8024 C   0  0  0  0  0  0  0  0  0  0  0  0
  -10.8683    5.8450   32.3370 O   0  0  0  0  0  0  0  0  0  0  0  0
  -10.6052    4.6181   29.9174 C   0  0  0  0  0  0  0  0  0  0  0  0
  -10.4547    3.1517   30.1585 C   0  0  0  0  0  0  0  0  0  0  0  0
   -9.2982    3.0775   31.1694 C   0  0  0  0  0  0  0  0  0  0  0  0
   -8.8391    6.8696   32.4605 N   0  0  0  0  0  0  0  0  0  0  0  0
   -9.2187    7.9679   33.3122 C   0  0  2  0  0  0  0  0  0  0  0  0
   -8.0990    8.8511   33.6801 C   0  0  0  0  0  0  0  0  0  0  0  0
   -7.9843   10.0886   33.0706 O   0  0  0  0  0  0  0  0  0  0  0  0
   -9.9697    7.4793   34.5450 C   0  0  0  0  0  0  0  0  0  0  0  0
  -11.3346    7.7814   34.4359 O   0  0  0  0  0  0  0  0  0  0  0  0
   -7.2303    8.5358   34.5298 O   0  0  0  0  0  0  0  0  0  0  0  0
  2  1  1  1
  2  3  1  0
  2  5  1  0
  3  4  2  0
  3 10  1  0
  5  6  1  0
  6  7  1  0
  7  8  2  0
  7  9  1  0
 10 11  1  0
 11 12  1  0
 11 14  1  1
 12 13  2  0
 12 18  1  0
 14 15  1  0
 15 16  1  0
 15 17  2  0
 18 19  1  0
 19 20  1  0
 19 22  1  6
 20 21  2  0
 20 27  1  0
 22 23  1  0
 23 24  1  0
 24 25  2  0
 24 26  1  0
 27 28  1  0
 28 29  1  0
 28 31  1  1
 29 30  2  0
 29 35  1  0
 31 32  1  0
 32 33  1  0
 33 34  1  0
 36 35  1  6
 36 37  1  0
 36 39  1  0
 37 38  2  0
 37 42  1  0
 39 40  1  1
 39 41  1  0
 42 43  1  0
 42 48  1  0
 43 44  1  1
 43 46  1  0
 44 45  2  0
 44 49  1  0
 46 47  1  0
 47 48  1  0
 49 50  1  0
 50 51  1  0
 50 53  1  1
 51 52  1  0
 51 55  2  0
 53 54  1  0
M  CHG  1   1   1
M  END
$$$$
