
     RDKit          3D

 55 55  0  0  0  0  0  0  0  0999 V2000
    0.4563   -3.3570   30.3105 N   0  0  0  0  0  4  0  0  0  0  0  0
   -0.9474   -3.6806   30.0993 C   0  0  2  0  0  0  0  0  0  0  0  0
   -1.5769   -2.6564   29.1957 C   0  0  0  0  0  0  0  0  0  0  0  0
   -1.3420   -1.4506   29.4047 O   0  0  0  0  0  0  0  0  0  0  0  0
   -1.7129   -3.6920   31.3824 C   0  0  0  0  0  0  0  0  0  0  0  0
   -3.1938   -3.8707   31.2201 C   0  0  0  0  0  0  0  0  0  0  0  0
   -4.0135   -2.7340   31.6142 C   0  0  0  0  0  0  0  0  0  0  0  0
   -5.2614   -2.8043   31.5207 O   0  0  0  0  0  0  0  0  0  0  0  0
   -3.4501   -1.5671   32.0937 O   0  0  0  0  0  0  0  0  0  0  0  0
   -2.4169   -3.0255   28.1311 N   0  0  0  0  0  0  0  0  0  0  0  0
   -3.0595   -2.1411   27.1924 C   0  0  2  0  0  0  0  0  0  0  0  0
   -4.4908   -1.9321   27.5408 C   0  0  0  0  0  0  0  0  0  0  0  0
   -4.9305   -2.4838   28.6030 O   0  0  0  0  0  0  0  0  0  0  0  0
   -2.8631   -2.6008   25.7922 C   0  0  0  0  0  0  0  0  0  0  0  0
   -3.0605   -1.5294   24.7940 C   0  0  0  0  0  0  0  0  0  0  0  0
   -3.3076   -0.2342   25.2009 O   0  0  0  0  0  0  0  0  0  0  0  0
   -3.0123   -1.7484   23.5576 O   0  0  0  0  0  0  0  0  0  0  0  0
   -5.3913   -1.1546   26.7524 N   0  0  0  0  0  0  0  0  0  0  0  0
   -6.7717   -0.9849   27.1687 C   0  0  2  0  0  0  0  0  0  0  0  0
   -7.5256   -0.1730   26.1595 C   0  0  0  0  0  0  0  0  0  0  0  0
   -8.2047   -0.8011   25.3203 O   0  0  0  0  0  0  0  0  0  0  0  0
   -6.8542   -0.4336   28.5333 C   0  0  0  0  0  0  0  0  0  0  0  0
   -8.2790   -0.1358   28.9728 C   0  0  0  0  0  0  0  0  0  0  0  0
   -8.4251    1.2415   29.4749 C   0  0  0  0  0  0  0  0  0  0  0  0
   -9.3941    1.9335   29.1011 O   0  0  0  0  0  0  0  0  0  0  0  0
   -7.4941    1.8186   30.3784 N   0  0  0  0  0  0  0  0  0  0  0  0
   -7.5075    1.2259   26.1156 N   0  0  0  0  0  0  0  0  0  0  0  0
   -7.0969    2.0563   25.0116 C   0  0  2  0  0  0  0  0  0  0  0  0
   -7.1133    3.5166   25.4174 C   0  0  0  0  0  0  0  0  0  0  0  0
   -7.9586    4.3082   24.9547 O   0  0  0  0  0  0  0  0  0  0  0  0
   -8.0652    1.9362   23.8950 C   0  0  0  0  0  0  0  0  0  0  0  0
   -8.1965    0.6066   23.2561 C   0  0  0  0  0  0  0  0  0  0  0  0
   -9.3869    0.5700   21.9442 S   0  0  0  0  0  0  0  0  0  0  0  0
   -8.8173    0.9831   20.3174 C   0  0  0  0  0  0  0  0  0  0  0  0
   -6.1614    4.0108   26.3360 N   0  0  0  0  0  0  0  0  0  0  0  0
   -6.4165    5.0045   27.3656 C   0  0  2  0  0  0  0  0  0  0  0  0
   -5.2613    5.2620   28.2067 C   0  0  0  0  0  0  0  0  0  0  0  0
   -4.7920    4.3584   28.9320 O   0  0  0  0  0  0  0  0  0  0  0  0
   -7.5635    4.4753   28.2124 C   0  0  1  0  0  0  0  0  0  0  0  0
   -7.8608    5.4334   29.3515 C   0  0  0  0  0  0  0  0  0  0  0  0
   -8.8245    4.4128   27.3269 C   0  0  0  0  0  0  0  0  0  0  0  0
   -4.6363    6.5303   28.2302 N   0  0  0  0  0  0  0  0  0  0  0  0
   -3.2021    6.8072   28.2014 C   0  0  2  0  0  0  0  0  0  0  0  0
   -2.7051    6.9451   29.6064 C   0  0  0  0  0  0  0  0  0  0  0  0
   -3.3723    7.6427   30.4279 O   0  0  0  0  0  0  0  0  0  0  0  0
   -3.1108    8.0777   27.4102 C   0  0  0  0  0  0  0  0  0  0  0  0
   -4.4894    8.6395   27.2880 C   0  0  0  0  0  0  0  0  0  0  0  0
   -5.3033    7.7966   28.2840 C   0  0  0  0  0  0  0  0  0  0  0  0
   -1.5344    6.3444   30.0826 N   0  0  0  0  0  0  0  0  0  0  0  0
   -1.0390    6.4499   31.4315 C   0  0  2  0  0  0  0  0  0  0  0  0
    0.4294    6.4004   31.5325 C   0  0  0  0  0  0  0  0  0  0  0  0
    1.1956    7.0702   30.5942 O   0  0  0  0  0  0  0  0  0  0  0  0
   -1.6941    5.4204   32.3444 C   0  0  0  0  0  0  0  0  0  0  0  0
   -1.4568    5.7400   33.6889 O   0  0  0  0  0  0  0  0  0  0  0  0
    1.0316    5.7733   32.4382 O   0  0  0  0  0  0  0  0  0  0  0  0
  2  1  1  1
  2  3  1  0
  2  5  1  0
  3  4  2  0
  3 10  1  0
  5  6  1  0
  6  7  1  0
  7  8  2  0
  7  9  1  0
 10 11  1  0
 11 12  1  0
 11 14  1  6
 12 13  2  0
 12 18  1  0
 14 15  1  0
 15 16  1  0
 15 17  2  0
 18 19  1  0
 19 20  1  0
 19 22  1  1
 20 21  2  0
 20 27  1  0
 22 23  1  0
 23 24  1  0
 24 25  2  0
 24 26  1  0
 27 28  1  0
 28 29  1  0
 28 31  1  6
 29 30  2  0
 29 35  1  0
 31 32  1  0
 32 33  1  0
 33 34  1  0
 36 35  1  6
 36 37  1  0
 36 39  1  0
 37 38  2  0
 37 42  1  0
 39 40  1  1
 39 41  1  0
 42 43  1  0
 42 48  1  0
 43 44  1  1
 43 46  1  0
 44 45  2  0
 44 49  1  0
 46 47  1  0
 47 48  1  0
 49 50  1  0
 50 51  1  0
 50 53  1  1
 51 52  1  0
 51 55  2  0
 53 54  1  0
M  CHG  1   1   1
M  END
$$$$
