
     RDKit          3D

 55 55  0  0  0  0  0  0  0  0999 V2000
    2.2762   -2.4386   26.7895 N   0  0  0  0  0  4  0  0  0  0  0  0
    1.3345   -2.0878   27.8430 C   0  0  2  0  0  0  0  0  0  0  0  0
    0.0094   -2.7505   27.5846 C   0  0  0  0  0  0  0  0  0  0  0  0
   -0.7806   -2.8974   28.5369 O   0  0  0  0  0  0  0  0  0  0  0  0
    1.1037   -0.6132   27.9120 C   0  0  0  0  0  0  0  0  0  0  0  0
    2.1136    0.1355   28.7312 C   0  0  0  0  0  0  0  0  0  0  0  0
    1.8381    1.5507   28.9331 C   0  0  0  0  0  0  0  0  0  0  0  0
    0.8029    2.0594   28.4427 O   0  0  0  0  0  0  0  0  0  0  0  0
    2.6936    2.3584   29.6575 O   0  0  0  0  0  0  0  0  0  0  0  0
   -0.3540   -3.2039   26.3050 N   0  0  0  0  0  0  0  0  0  0  0  0
   -1.5753   -2.9088   25.5996 C   0  0  2  0  0  0  0  0  0  0  0  0
   -2.2582   -1.7197   26.1770 C   0  0  0  0  0  0  0  0  0  0  0  0
   -1.7987   -1.2411   27.2660 O   0  0  0  0  0  0  0  0  0  0  0  0
   -2.4570   -4.1032   25.5185 C   0  0  0  0  0  0  0  0  0  0  0  0
   -3.4399   -4.0283   24.4179 C   0  0  0  0  0  0  0  0  0  0  0  0
   -4.3734   -5.0302   24.2474 O   0  0  0  0  0  0  0  0  0  0  0  0
   -3.4666   -3.0684   23.6075 O   0  0  0  0  0  0  0  0  0  0  0  0
   -3.3940   -1.0933   25.5816 N   0  0  0  0  0  0  0  0  0  0  0  0
   -3.9550    0.1130   26.1627 C   0  0  2  0  0  0  0  0  0  0  0  0
   -5.0833    0.6235   25.3187 C   0  0  0  0  0  0  0  0  0  0  0  0
   -4.8153    1.5308   24.5033 O   0  0  0  0  0  0  0  0  0  0  0  0
   -2.9106    1.1244   26.4060 C   0  0  0  0  0  0  0  0  0  0  0  0
   -3.4439    2.3896   27.0593 C   0  0  0  0  0  0  0  0  0  0  0  0
   -3.7363    3.4407   26.0694 C   0  0  0  0  0  0  0  0  0  0  0  0
   -4.8963    3.8912   25.9742 O   0  0  0  0  0  0  0  0  0  0  0  0
   -2.7368    3.9667   25.2090 N   0  0  0  0  0  0  0  0  0  0  0  0
   -6.3945    0.1399   25.3972 N   0  0  0  0  0  0  0  0  0  0  0  0
   -7.5850    0.8976   25.6894 C   0  0  2  0  0  0  0  0  0  0  0  0
   -7.2575    2.3743   25.7886 C   0  0  0  0  0  0  0  0  0  0  0  0
   -7.0191    3.0549   24.7711 O   0  0  0  0  0  0  0  0  0  0  0  0
   -8.1220    0.5127   27.0169 C   0  0  0  0  0  0  0  0  0  0  0  0
   -8.6084   -0.8777   27.1704 C   0  0  0  0  0  0  0  0  0  0  0  0
  -10.0936   -1.0026   28.1286 S   0  0  0  0  0  0  0  0  0  0  0  0
  -11.1985   -2.3348   27.7462 C   0  0  0  0  0  0  0  0  0  0  0  0
   -7.2163    3.0110   27.0483 N   0  0  0  0  0  0  0  0  0  0  0  0
   -7.8110    4.2991   27.3646 C   0  0  2  0  0  0  0  0  0  0  0  0
   -7.6703    4.6629   28.7632 C   0  0  0  0  0  0  0  0  0  0  0  0
   -7.9865    3.8544   29.6628 O   0  0  0  0  0  0  0  0  0  0  0  0
   -9.2848    4.2033   27.0022 C   0  0  1  0  0  0  0  0  0  0  0  0
  -10.0093    5.4734   27.4096 C   0  0  0  0  0  0  0  0  0  0  0  0
   -9.3951    4.0862   25.4685 C   0  0  0  0  0  0  0  0  0  0  0  0
   -7.1745    5.9302   29.1475 N   0  0  0  0  0  0  0  0  0  0  0  0
   -6.6022    6.2982   30.4404 C   0  0  2  0  0  0  0  0  0  0  0  0
   -7.6823    6.8672   31.3061 C   0  0  0  0  0  0  0  0  0  0  0  0
   -8.6106    7.5409   30.7665 O   0  0  0  0  0  0  0  0  0  0  0  0
   -5.5421    7.2950   30.0784 C   0  0  0  0  0  0  0  0  0  0  0  0
   -5.7544    7.6902   28.6537 C   0  0  0  0  0  0  0  0  0  0  0  0
   -7.1381    7.1039   28.3275 C   0  0  0  0  0  0  0  0  0  0  0  0
   -7.7381    6.7017   32.6946 N   0  0  0  0  0  0  0  0  0  0  0  0
   -8.8302    6.0962   33.4132 C   0  0  2  0  0  0  0  0  0  0  0  0
   -8.6409    6.0702   34.8736 C   0  0  0  0  0  0  0  0  0  0  0  0
   -7.4309    6.4796   35.4068 O   0  0  0  0  0  0  0  0  0  0  0  0
   -9.1499    4.7089   32.8693 C   0  0  0  0  0  0  0  0  0  0  0  0
  -10.3017    4.1977   33.4843 O   0  0  0  0  0  0  0  0  0  0  0  0
   -9.5324    5.6905   35.6718 O   0  0  0  0  0  0  0  0  0  0  0  0
  2  1  1  6
  2  3  1  0
  2  5  1  0
  3  4  2  0
  3 10  1  0
  5  6  1  0
  6  7  1  0
  7  8  2  0
  7  9  1  0
 10 11  1  0
 11 12  1  0
 11 14  1  1
 12 13  2  0
 12 18  1  0
 14 15  1  0
 15 16  1  0
 15 17  2  0
 18 19  1  0
 19 20  1  0
 19 22  1  6
 20 21  2  0
 20 27  1  0
 22 23  1  0
 23 24  1  0
 24 25  2  0
 24 26  1  0
 27 28  1  0
 28 29  1  0
 28 31  1  1
 29 30  2  0
 29 35  1  0
 31 32  1  0
 32 33  1  0
 33 34  1  0
 36 35  1  1
 36 37  1  0
 36 39  1  0
 37 38  2  0
 37 42  1  0
 39 40  1  6
 39 41  1  0
 42 43  1  0
 42 48  1  0
 43 44  1  1
 43 46  1  0
 44 45  2  0
 44 49  1  0
 46 47  1  0
 47 48  1  0
 49 50  1  0
 50 51  1  0
 50 53  1  6
 51 52  1  0
 51 55  2  0
 53 54  1  0
M  CHG  1   1   1
M  END
$$$$
