
     RDKit          3D

 55 55  0  0  0  0  0  0  0  0999 V2000
   -6.9901    7.5205   30.7570 N   0  0  0  0  0  4  0  0  0  0  0  0
   -7.4142    8.1402   32.0044 C   0  0  2  0  0  0  0  0  0  0  0  0
   -8.1903    7.1499   32.8283 C   0  0  0  0  0  0  0  0  0  0  0  0
   -7.7016    6.7552   33.9044 O   0  0  0  0  0  0  0  0  0  0  0  0
   -8.2926    9.3248   31.7644 C   0  0  0  0  0  0  0  0  0  0  0  0
   -9.3041    9.5764   32.8438 C   0  0  0  0  0  0  0  0  0  0  0  0
   -9.1781   10.8472   33.5427 C   0  0  0  0  0  0  0  0  0  0  0  0
   -8.6231   10.8875   34.6658 O   0  0  0  0  0  0  0  0  0  0  0  0
   -9.6573   12.0232   32.9983 O   0  0  0  0  0  0  0  0  0  0  0  0
   -9.4426    6.6639   32.4151 N   0  0  0  0  0  0  0  0  0  0  0  0
   -9.7359    5.9676   31.1882 C   0  0  2  0  0  0  0  0  0  0  0  0
   -8.4888    5.5996   30.4650 C   0  0  0  0  0  0  0  0  0  0  0  0
   -7.6583    6.5306   30.2009 O   0  0  0  0  0  0  0  0  0  0  0  0
  -10.6923    6.7328   30.3455 C   0  0  0  0  0  0  0  0  0  0  0  0
  -11.6889    5.8760   29.6702 C   0  0  0  0  0  0  0  0  0  0  0  0
  -12.6545    6.4361   28.8589 O   0  0  0  0  0  0  0  0  0  0  0  0
  -11.6985    4.6266   29.8036 O   0  0  0  0  0  0  0  0  0  0  0  0
   -8.1772    4.2695   30.0521 N   0  0  0  0  0  0  0  0  0  0  0  0
   -8.2931    3.8887   28.6559 C   0  0  2  0  0  0  0  0  0  0  0  0
   -7.0304    3.2316   28.1871 C   0  0  0  0  0  0  0  0  0  0  0  0
   -5.9668    3.8649   28.3531 O   0  0  0  0  0  0  0  0  0  0  0  0
   -8.6932    5.0357   27.8209 C   0  0  0  0  0  0  0  0  0  0  0  0
   -8.9887    4.6519   26.3796 C   0  0  0  0  0  0  0  0  0  0  0  0
   -8.1033    3.5755   25.9026 C   0  0  0  0  0  0  0  0  0  0  0  0
   -7.1041    3.2553   26.5783 O   0  0  0  0  0  0  0  0  0  0  0  0
   -8.3462    2.8803   24.6885 N   0  0  0  0  0  0  0  0  0  0  0  0
   -6.9871    1.9675   27.5876 N   0  0  0  0  0  0  0  0  0  0  0  0
   -6.6763    0.7128   28.2248 C   0  0  2  0  0  0  0  0  0  0  0  0
   -6.6770   -0.4091   27.2056 C   0  0  0  0  0  0  0  0  0  0  0  0
   -7.7130   -0.7199   26.5848 O   0  0  0  0  0  0  0  0  0  0  0  0
   -7.7297    0.3654   29.2090 C   0  0  0  0  0  0  0  0  0  0  0  0
   -7.5089   -0.8439   30.0348 C   0  0  0  0  0  0  0  0  0  0  0  0
   -6.3978   -0.5786   31.3893 S   0  0  0  0  0  0  0  0  0  0  0  0
   -6.8809    0.6042   32.6178 C   0  0  0  0  0  0  0  0  0  0  0  0
   -5.4918   -1.1292   26.9390 N   0  0  0  0  0  0  0  0  0  0  0  0
   -4.8371   -1.2309   25.6452 C   0  0  2  0  0  0  0  0  0  0  0  0
   -3.6209   -2.0230   25.6836 C   0  0  0  0  0  0  0  0  0  0  0  0
   -2.6392   -1.6437   26.3583 O   0  0  0  0  0  0  0  0  0  0  0  0
   -4.5151    0.1880   25.2031 C   0  0  1  0  0  0  0  0  0  0  0  0
   -3.5883    0.1659   24.0012 C   0  0  0  0  0  0  0  0  0  0  0  0
   -5.8284    0.8608   24.7552 C   0  0  0  0  0  0  0  0  0  0  0  0
   -3.5106   -3.2371   24.9671 N   0  0  0  0  0  0  0  0  0  0  0  0
   -2.8970   -4.4803   25.4279 C   0  0  2  0  0  0  0  0  0  0  0  0
   -1.4693   -4.5132   24.9799 C   0  0  0  0  0  0  0  0  0  0  0  0
   -1.0507   -3.6089   24.1965 O   0  0  0  0  0  0  0  0  0  0  0  0
   -3.7451   -5.5411   24.7924 C   0  0  0  0  0  0  0  0  0  0  0  0
   -4.6001   -4.8838   23.7590 C   0  0  0  0  0  0  0  0  0  0  0  0
   -3.9899   -3.4774   23.6391 C   0  0  0  0  0  0  0  0  0  0  0  0
   -0.5495   -5.4909   25.3753 N   0  0  0  0  0  0  0  0  0  0  0  0
    0.8041   -5.2328   25.7960 C   0  0  2  0  0  0  0  0  0  0  0  0
    1.5280   -6.4343   26.2446 C   0  0  0  0  0  0  0  0  0  0  0  0
    0.8731   -7.3643   27.0334 O   0  0  0  0  0  0  0  0  0  0  0  0
    0.8573   -4.1279   26.8443 C   0  0  0  0  0  0  0  0  0  0  0  0
    1.4575   -2.9783   26.3109 O   0  0  0  0  0  0  0  0  0  0  0  0
    2.7256   -6.6626   25.9448 O   0  0  0  0  0  0  0  0  0  0  0  0
  2  1  1  6
  2  3  1  0
  2  5  1  0
  3  4  2  0
  3 10  1  0
  5  6  1  0
  6  7  1  0
  7  8  2  0
  7  9  1  0
 10 11  1  0
 11 12  1  0
 11 14  1  6
 12 13  2  0
 12 18  1  0
 14 15  1  0
 15 16  1  0
 15 17  2  0
 18 19  1  0
 19 20  1  0
 19 22  1  6
 20 21  2  0
 20 27  1  0
 22 23  1  0
 23 24  1  0
 24 25  2  0
 24 26  1  0
 27 28  1  0
 28 29  1  0
 28 31  1  1
 29 30  2  0
 29 35  1  0
 31 32  1  0
 32 33  1  0
 33 34  1  0
 36 35  1  1
 36 37  1  0
 36 39  1  0
 37 38  2  0
 37 42  1  0
 39 40  1  6
 39 41  1  0
 42 43  1  0
 42 48  1  0
 43 44  1  6
 43 46  1  0
 44 45  2  0
 44 49  1  0
 46 47  1  0
 47 48  1  0
 49 50  1  0
 50 51  1  0
 50 53  1  1
 51 52  1  0
 51 55  2  0
 53 54  1  0
M  CHG  1   1   1
M  END
$$$$
