
     RDKit          3D

 55 55  0  0  0  0  0  0  0  0999 V2000
    0.0448   -1.1575   28.4647 N   0  0  0  0  0  4  0  0  0  0  0  0
    0.6934   -0.4995   27.3394 C   0  0  2  0  0  0  0  0  0  0  0  0
   -0.2364   -0.4747   26.1576 C   0  0  0  0  0  0  0  0  0  0  0  0
   -0.6168    0.6283   25.7200 O   0  0  0  0  0  0  0  0  0  0  0  0
    1.9411   -1.2098   26.9259 C   0  0  0  0  0  0  0  0  0  0  0  0
    2.6652   -0.5740   25.7757 C   0  0  0  0  0  0  0  0  0  0  0  0
    3.8457   -1.2831   25.3038 C   0  0  0  0  0  0  0  0  0  0  0  0
    4.4585   -0.8677   24.2924 O   0  0  0  0  0  0  0  0  0  0  0  0
    4.3160   -2.4130   25.9452 O   0  0  0  0  0  0  0  0  0  0  0  0
   -0.6821   -1.6568   25.5419 N   0  0  0  0  0  0  0  0  0  0  0  0
   -1.6647   -1.7662   24.4936 C   0  0  2  0  0  0  0  0  0  0  0  0
   -3.0462   -1.7588   25.0460 C   0  0  0  0  0  0  0  0  0  0  0  0
   -3.9884   -2.1777   24.2957 O   0  0  0  0  0  0  0  0  0  0  0  0
   -1.3951   -2.9368   23.6175 C   0  0  0  0  0  0  0  0  0  0  0  0
   -2.2962   -3.0097   22.4488 C   0  0  0  0  0  0  0  0  0  0  0  0
   -3.2011   -1.9975   22.2018 O   0  0  0  0  0  0  0  0  0  0  0  0
   -2.2764   -3.9768   21.6468 O   0  0  0  0  0  0  0  0  0  0  0  0
   -3.3698   -1.3079   26.3608 N   0  0  0  0  0  0  0  0  0  0  0  0
   -4.7504   -1.2847   26.8093 C   0  0  2  0  0  0  0  0  0  0  0  0
   -5.3513    0.0690   26.5804 C   0  0  0  0  0  0  0  0  0  0  0  0
   -4.5622    1.0347   26.5113 O   0  0  0  0  0  0  0  0  0  0  0  0
   -4.8660   -1.7408   28.2062 C   0  0  0  0  0  0  0  0  0  0  0  0
   -4.2919   -3.1306   28.4311 C   0  0  0  0  0  0  0  0  0  0  0  0
   -5.2023   -4.1871   27.9565 C   0  0  0  0  0  0  0  0  0  0  0  0
   -6.4227   -4.1053   28.2043 O   0  0  0  0  0  0  0  0  0  0  0  0
   -4.7385   -5.3086   27.2193 N   0  0  0  0  0  0  0  0  0  0  0  0
   -6.7252    0.2970   26.4405 N   0  0  0  0  0  0  0  0  0  0  0  0
   -7.4079    1.5643   26.5091 C   0  0  2  0  0  0  0  0  0  0  0  0
   -7.4062    2.0864   27.9321 C   0  0  0  0  0  0  0  0  0  0  0  0
   -7.7586    1.3658   28.8871 O   0  0  0  0  0  0  0  0  0  0  0  0
   -8.8348    1.3957   26.1423 C   0  0  0  0  0  0  0  0  0  0  0  0
   -9.1394    1.1490   24.7141 C   0  0  0  0  0  0  0  0  0  0  0  0
  -10.5386    2.0624   24.1244 S   0  0  0  0  0  0  0  0  0  0  0  0
  -11.7525    2.5520   25.3195 C   0  0  0  0  0  0  0  0  0  0  0  0
   -7.0013    3.4117   28.2035 N   0  0  0  0  0  0  0  0  0  0  0  0
   -7.1050    4.0811   29.4896 C   0  0  2  0  0  0  0  0  0  0  0  0
   -8.3982    4.7056   29.7034 C   0  0  0  0  0  0  0  0  0  0  0  0
   -9.0099    5.2373   28.7516 O   0  0  0  0  0  0  0  0  0  0  0  0
   -6.0103    5.1360   29.5253 C   0  0  1  0  0  0  0  0  0  0  0  0
   -6.0496    5.8891   30.8426 C   0  0  0  0  0  0  0  0  0  0  0  0
   -4.6483    4.4169   29.4504 C   0  0  0  0  0  0  0  0  0  0  0  0
   -9.0009    4.7303   30.9824 N   0  0  0  0  0  0  0  0  0  0  0  0
  -10.3224    5.2508   31.3246 C   0  0  2  0  0  0  0  0  0  0  0  0
  -10.1850    6.6739   31.7672 C   0  0  0  0  0  0  0  0  0  0  0  0
   -9.0500    7.0919   32.1464 O   0  0  0  0  0  0  0  0  0  0  0  0
  -10.7854    4.3304   32.4141 C   0  0  0  0  0  0  0  0  0  0  0  0
   -9.6086    3.5287   32.8653 C   0  0  0  0  0  0  0  0  0  0  0  0
   -8.4203    4.2395   32.1962 C   0  0  0  0  0  0  0  0  0  0  0  0
  -11.2426    7.5899   31.7898 N   0  0  0  0  0  0  0  0  0  0  0  0
  -11.1112    9.0004   32.0525 C   0  0  2  0  0  0  0  0  0  0  0  0
  -11.8732    9.4616   33.2254 C   0  0  0  0  0  0  0  0  0  0  0  0
  -11.6514   10.7358   33.7187 O   0  0  0  0  0  0  0  0  0  0  0  0
  -11.4402    9.8274   30.8154 C   0  0  0  0  0  0  0  0  0  0  0  0
  -11.2256   11.1898   31.0686 O   0  0  0  0  0  0  0  0  0  0  0  0
  -12.7258    8.7492   33.8100 O   0  0  0  0  0  0  0  0  0  0  0  0
  2  1  1  1
  2  3  1  0
  2  5  1  0
  3  4  2  0
  3 10  1  0
  5  6  1  0
  6  7  1  0
  7  8  2  0
  7  9  1  0
 10 11  1  0
 11 12  1  0
 11 14  1  1
 12 13  2  0
 12 18  1  0
 14 15  1  0
 15 16  1  0
 15 17  2  0
 18 19  1  0
 19 20  1  0
 19 22  1  1
 20 21  2  0
 20 27  1  0
 22 23  1  0
 23 24  1  0
 24 25  2  0
 24 26  1  0
 27 28  1  0
 28 29  1  0
 28 31  1  1
 29 30  2  0
 29 35  1  0
 31 32  1  0
 32 33  1  0
 33 34  1  0
 36 35  1  6
 36 37  1  0
 36 39  1  0
 37 38  2  0
 37 42  1  0
 39 40  1  1
 39 41  1  0
 42 43  1  0
 42 48  1  0
 43 44  1  1
 43 46  1  0
 44 45  2  0
 44 49  1  0
 46 47  1  0
 47 48  1  0
 49 50  1  0
 50 51  1  0
 50 53  1  6
 51 52  1  0
 51 55  2  0
 53 54  1  0
M  CHG  1   1   1
M  END
$$$$
