
     RDKit          3D

 55 55  0  0  0  0  0  0  0  0999 V2000
    0.4486    3.4304   33.0494 N   0  0  0  0  0  4  0  0  0  0  0  0
   -0.8568    3.9176   33.4718 C   0  0  2  0  0  0  0  0  0  0  0  0
   -1.5267    4.6356   32.3327 C   0  0  0  0  0  0  0  0  0  0  0  0
   -0.9304    5.5878   31.7937 O   0  0  0  0  0  0  0  0  0  0  0  0
   -0.7485    4.8731   34.6154 C   0  0  0  0  0  0  0  0  0  0  0  0
   -2.0649    5.2921   35.2009 C   0  0  0  0  0  0  0  0  0  0  0  0
   -2.0185    6.4300   36.1078 C   0  0  0  0  0  0  0  0  0  0  0  0
   -0.9205    6.9769   36.3646 O   0  0  0  0  0  0  0  0  0  0  0  0
   -3.1621    6.9305   36.7001 O   0  0  0  0  0  0  0  0  0  0  0  0
   -2.7986    4.2604   31.8674 N   0  0  0  0  0  0  0  0  0  0  0  0
   -3.2820    4.3471   30.5127 C   0  0  2  0  0  0  0  0  0  0  0  0
   -4.5400    5.1380   30.4383 C   0  0  0  0  0  0  0  0  0  0  0  0
   -4.9649    5.4715   29.2831 O   0  0  0  0  0  0  0  0  0  0  0  0
   -3.4039    3.0012   29.8931 C   0  0  0  0  0  0  0  0  0  0  0  0
   -2.2582    2.6519   29.0280 C   0  0  0  0  0  0  0  0  0  0  0  0
   -1.9561    1.3302   28.7707 O   0  0  0  0  0  0  0  0  0  0  0  0
   -1.5257    3.5262   28.5007 O   0  0  0  0  0  0  0  0  0  0  0  0
   -5.2889    5.5424   31.5839 N   0  0  0  0  0  0  0  0  0  0  0  0
   -6.3505    6.5246   31.4570 C   0  0  2  0  0  0  0  0  0  0  0  0
   -7.6706    5.8440   31.2568 C   0  0  0  0  0  0  0  0  0  0  0  0
   -7.7890    4.6900   31.7198 O   0  0  0  0  0  0  0  0  0  0  0  0
   -6.0426    7.5112   30.4060 C   0  0  0  0  0  0  0  0  0  0  0  0
   -5.3305    8.7461   30.9351 C   0  0  0  0  0  0  0  0  0  0  0  0
   -5.7040    9.9604   30.1893 C   0  0  0  0  0  0  0  0  0  0  0  0
   -6.4968    9.8740   29.2294 O   0  0  0  0  0  0  0  0  0  0  0  0
   -5.1897   11.2407   30.5249 N   0  0  0  0  0  0  0  0  0  0  0  0
   -8.7549    6.4288   30.5924 N   0  0  0  0  0  0  0  0  0  0  0  0
  -10.0768    5.8777   30.4321 C   0  0  2  0  0  0  0  0  0  0  0  0
  -10.1374    5.0083   29.1920 C   0  0  0  0  0  0  0  0  0  0  0  0
  -11.1923    4.4361   28.8528 O   0  0  0  0  0  0  0  0  0  0  0  0
  -11.0599    6.9657   30.2114 C   0  0  0  0  0  0  0  0  0  0  0  0
  -12.4841    6.5753   30.0990 C   0  0  0  0  0  0  0  0  0  0  0  0
  -12.9978    5.4199   31.3403 S   0  0  0  0  0  0  0  0  0  0  0  0
  -14.5512    5.7213   32.1388 C   0  0  0  0  0  0  0  0  0  0  0  0
   -8.9881    4.8295   28.3913 N   0  0  0  0  0  0  0  0  0  0  0  0
   -8.8995    3.9765   27.2177 C   0  0  2  0  0  0  0  0  0  0  0  0
   -8.1525    2.7547   27.4572 C   0  0  0  0  0  0  0  0  0  0  0  0
   -7.4582    2.6289   28.4892 O   0  0  0  0  0  0  0  0  0  0  0  0
   -8.2176    4.7935   26.1313 C   0  0  1  0  0  0  0  0  0  0  0  0
   -9.0599    6.0064   25.7799 C   0  0  0  0  0  0  0  0  0  0  0  0
   -6.8784    5.3138   26.6914 C   0  0  0  0  0  0  0  0  0  0  0  0
   -8.1879    1.6788   26.5402 N   0  0  0  0  0  0  0  0  0  0  0  0
   -7.5647    0.3666   26.6959 C   0  0  2  0  0  0  0  0  0  0  0  0
   -6.2144    0.3900   26.0508 C   0  0  0  0  0  0  0  0  0  0  0  0
   -6.0494    1.0742   24.9966 O   0  0  0  0  0  0  0  0  0  0  0  0
   -8.5318   -0.5582   26.0193 C   0  0  0  0  0  0  0  0  0  0  0  0
   -9.4950    0.2776   25.2416 C   0  0  0  0  0  0  0  0  0  0  0  0
   -8.8538    1.6750   25.2723 C   0  0  0  0  0  0  0  0  0  0  0  0
   -5.1025   -0.3032   26.5422 N   0  0  0  0  0  0  0  0  0  0  0  0
   -3.7909   -0.2940   25.9460 C   0  0  2  0  0  0  0  0  0  0  0  0
   -3.6465   -1.2194   24.8095 C   0  0  0  0  0  0  0  0  0  0  0  0
   -2.9947   -0.7909   23.6660 O   0  0  0  0  0  0  0  0  0  0  0  0
   -2.7056   -0.5233   26.9910 C   0  0  0  0  0  0  0  0  0  0  0  0
   -1.4390   -0.5085   26.3897 O   0  0  0  0  0  0  0  0  0  0  0  0
   -4.0903   -2.3937   24.8235 O   0  0  0  0  0  0  0  0  0  0  0  0
  2  1  1  6
  2  3  1  0
  2  5  1  0
  3  4  2  0
  3 10  1  0
  5  6  1  0
  6  7  1  0
  7  8  2  0
  7  9  1  0
 10 11  1  0
 11 12  1  0
 11 14  1  1
 12 13  2  0
 12 18  1  0
 14 15  1  0
 15 16  1  0
 15 17  2  0
 18 19  1  0
 19 20  1  0
 19 22  1  6
 20 21  2  0
 20 27  1  0
 22 23  1  0
 23 24  1  0
 24 25  2  0
 24 26  1  0
 27 28  1  0
 28 29  1  0
 28 31  1  6
 29 30  2  0
 29 35  1  0
 31 32  1  0
 32 33  1  0
 33 34  1  0
 36 35  1  1
 36 37  1  0
 36 39  1  0
 37 38  2  0
 37 42  1  0
 39 40  1  1
 39 41  1  0
 42 43  1  0
 42 48  1  0
 43 44  1  6
 43 46  1  0
 44 45  2  0
 44 49  1  0
 46 47  1  0
 47 48  1  0
 49 50  1  0
 50 51  1  0
 50 53  1  1
 51 52  1  0
 51 55  2  0
 53 54  1  0
M  CHG  1   1   1
M  END
$$$$
