
     RDKit          3D

 55 55  0  0  0  0  0  0  0  0999 V2000
    1.9732   -4.1536   27.5745 N   0  0  0  0  0  4  0  0  0  0  0  0
    1.4109   -3.5947   26.3534 C   0  0  2  0  0  0  0  0  0  0  0  0
    0.1182   -2.8909   26.6622 C   0  0  0  0  0  0  0  0  0  0  0  0
   -0.2717   -1.9927   25.8916 O   0  0  0  0  0  0  0  0  0  0  0  0
    1.1250   -4.6540   25.3391 C   0  0  0  0  0  0  0  0  0  0  0  0
    0.6187   -4.1351   24.0254 C   0  0  0  0  0  0  0  0  0  0  0  0
    1.1687   -4.7759   22.8396 C   0  0  0  0  0  0  0  0  0  0  0  0
    2.0069   -5.6995   22.9634 O   0  0  0  0  0  0  0  0  0  0  0  0
    0.7897   -4.3918   21.5677 O   0  0  0  0  0  0  0  0  0  0  0  0
   -0.6525   -3.2205   27.7903 N   0  0  0  0  0  0  0  0  0  0  0  0
   -0.7817   -2.4512   29.0018 C   0  0  2  0  0  0  0  0  0  0  0  0
   -1.4950   -1.1693   28.7535 C   0  0  0  0  0  0  0  0  0  0  0  0
   -1.9500   -0.5372   29.7633 O   0  0  0  0  0  0  0  0  0  0  0  0
    0.5339   -2.2648   29.6688 C   0  0  0  0  0  0  0  0  0  0  0  0
    0.8807   -3.3657   30.5913 C   0  0  0  0  0  0  0  0  0  0  0  0
    0.9563   -3.1388   31.9504 O   0  0  0  0  0  0  0  0  0  0  0  0
    1.1164   -4.5311   30.1851 O   0  0  0  0  0  0  0  0  0  0  0  0
   -1.6976   -0.6158   27.4537 N   0  0  0  0  0  0  0  0  0  0  0  0
   -2.3562    0.6685   27.2979 C   0  0  2  0  0  0  0  0  0  0  0  0
   -3.8446    0.4935   27.2798 C   0  0  0  0  0  0  0  0  0  0  0  0
   -4.3441   -0.0024   26.2481 O   0  0  0  0  0  0  0  0  0  0  0  0
   -1.8441    1.3921   26.1202 C   0  0  0  0  0  0  0  0  0  0  0  0
   -0.4746    2.0121   26.3481 C   0  0  0  0  0  0  0  0  0  0  0  0
    0.0632    2.6280   25.1227 C   0  0  0  0  0  0  0  0  0  0  0  0
    0.8285    1.9707   24.3880 O   0  0  0  0  0  0  0  0  0  0  0  0
   -0.2598    3.9570   24.7412 N   0  0  0  0  0  0  0  0  0  0  0  0
   -4.6829    0.8490   28.3428 N   0  0  0  0  0  0  0  0  0  0  0  0
   -6.1200    0.7505   28.3876 C   0  0  2  0  0  0  0  0  0  0  0  0
   -6.7509    2.0466   27.9187 C   0  0  0  0  0  0  0  0  0  0  0  0
   -6.2127    3.1485   28.1455 O   0  0  0  0  0  0  0  0  0  0  0  0
   -6.5752    0.5623   29.7863 C   0  0  0  0  0  0  0  0  0  0  0  0
   -6.4702   -0.8024   30.3519 C   0  0  0  0  0  0  0  0  0  0  0  0
   -7.0992   -0.9307   32.0034 S   0  0  0  0  0  0  0  0  0  0  0  0
   -7.1093   -2.5396   32.7470 C   0  0  0  0  0  0  0  0  0  0  0  0
   -7.9720    2.0280   27.2097 N   0  0  0  0  0  0  0  0  0  0  0  0
   -8.8584    3.1647   27.0223 C   0  0  2  0  0  0  0  0  0  0  0  0
   -9.8848    3.2607   28.0447 C   0  0  0  0  0  0  0  0  0  0  0  0
  -10.6728    2.3105   28.2421 O   0  0  0  0  0  0  0  0  0  0  0  0
   -9.5050    2.9969   25.6562 C   0  0  1  0  0  0  0  0  0  0  0  0
  -10.5619    4.0650   25.4408 C   0  0  0  0  0  0  0  0  0  0  0  0
   -8.4185    3.2059   24.5821 C   0  0  0  0  0  0  0  0  0  0  0  0
  -10.0226    4.4202   28.8424 N   0  0  0  0  0  0  0  0  0  0  0  0
   -9.2328    5.6465   28.7596 C   0  0  2  0  0  0  0  0  0  0  0  0
   -8.0975    5.5603   29.7309 C   0  0  0  0  0  0  0  0  0  0  0  0
   -6.9093    5.5752   29.2894 O   0  0  0  0  0  0  0  0  0  0  0  0
  -10.2242    6.7199   29.0962 C   0  0  0  0  0  0  0  0  0  0  0  0
  -11.4405    6.0586   29.6568 C   0  0  0  0  0  0  0  0  0  0  0  0
  -10.9779    4.6110   29.8922 C   0  0  0  0  0  0  0  0  0  0  0  0
   -8.2619    5.4640   31.1172 N   0  0  0  0  0  0  0  0  0  0  0  0
   -7.3334    5.9656   32.0982 C   0  0  2  0  0  0  0  0  0  0  0  0
   -6.5030    4.9211   32.7214 C   0  0  0  0  0  0  0  0  0  0  0  0
   -5.6030    5.2732   33.7124 O   0  0  0  0  0  0  0  0  0  0  0  0
   -8.0412    6.8134   33.1483 C   0  0  0  0  0  0  0  0  0  0  0  0
   -8.8012    7.8181   32.5324 O   0  0  0  0  0  0  0  0  0  0  0  0
   -6.5695    3.7103   32.3962 O   0  0  0  0  0  0  0  0  0  0  0  0
  2  1  1  1
  2  3  1  0
  2  5  1  0
  3  4  2  0
  3 10  1  0
  5  6  1  0
  6  7  1  0
  7  8  2  0
  7  9  1  0
 10 11  1  0
 11 12  1  0
 11 14  1  6
 12 13  2  0
 12 18  1  0
 14 15  1  0
 15 16  1  0
 15 17  2  0
 18 19  1  0
 19 20  1  0
 19 22  1  6
 20 21  2  0
 20 27  1  0
 22 23  1  0
 23 24  1  0
 24 25  2  0
 24 26  1  0
 27 28  1  0
 28 29  1  0
 28 31  1  1
 29 30  2  0
 29 35  1  0
 31 32  1  0
 32 33  1  0
 33 34  1  0
 36 35  1  1
 36 37  1  0
 36 39  1  0
 37 38  2  0
 37 42  1  0
 39 40  1  6
 39 41  1  0
 42 43  1  0
 42 48  1  0
 43 44  1  1
 43 46  1  0
 44 45  2  0
 44 49  1  0
 46 47  1  0
 47 48  1  0
 49 50  1  0
 50 51  1  0
 50 53  1  1
 51 52  1  0
 51 55  2  0
 53 54  1  0
M  CHG  1   1   1
M  END
$$$$
