
     RDKit          3D

 55 55  0  0  0  0  0  0  0  0999 V2000
    3.9951    0.7469   26.0045 N   0  0  0  0  0  4  0  0  0  0  0  0
    2.7287    0.6552   26.7171 C   0  0  2  0  0  0  0  0  0  0  0  0
    1.7110   -0.0470   25.8609 C   0  0  0  0  0  0  0  0  0  0  0  0
    1.7129    0.1677   24.6335 O   0  0  0  0  0  0  0  0  0  0  0  0
    2.1864    2.0046   27.0599 C   0  0  0  0  0  0  0  0  0  0  0  0
    0.9310    1.9786   27.8814 C   0  0  0  0  0  0  0  0  0  0  0  0
    0.3475    3.2777   28.1833 C   0  0  0  0  0  0  0  0  0  0  0  0
   -0.7379    3.6110   27.6526 O   0  0  0  0  0  0  0  0  0  0  0  0
    0.9619    4.1638   29.0473 O   0  0  0  0  0  0  0  0  0  0  0  0
    0.7665   -0.9314   26.4094 N   0  0  0  0  0  0  0  0  0  0  0  0
   -0.2097   -1.7076   25.6877 C   0  0  2  0  0  0  0  0  0  0  0  0
   -1.5202   -1.0056   25.6278 C   0  0  0  0  0  0  0  0  0  0  0  0
   -2.1846   -0.8940   26.7106 O   0  0  0  0  0  0  0  0  0  0  0  0
   -0.3139   -3.0879   26.2302 C   0  0  0  0  0  0  0  0  0  0  0  0
   -1.1036   -3.9938   25.3706 C   0  0  0  0  0  0  0  0  0  0  0  0
   -2.4408   -3.7446   25.1379 O   0  0  0  0  0  0  0  0  0  0  0  0
   -0.6006   -5.0085   24.8262 O   0  0  0  0  0  0  0  0  0  0  0  0
   -2.0696   -0.4572   24.4302 N   0  0  0  0  0  0  0  0  0  0  0  0
   -3.4576   -0.0339   24.3868 C   0  0  2  0  0  0  0  0  0  0  0  0
   -3.9916    0.1494   25.7751 C   0  0  0  0  0  0  0  0  0  0  0  0
   -3.4757   -0.5443   26.6765 O   0  0  0  0  0  0  0  0  0  0  0  0
   -4.2711   -0.9528   23.5703 C   0  0  0  0  0  0  0  0  0  0  0  0
   -4.0222   -0.8063   22.0775 C   0  0  0  0  0  0  0  0  0  0  0  0
   -4.3177   -2.0493   21.3442 C   0  0  0  0  0  0  0  0  0  0  0  0
   -3.3782   -2.7723   20.9542 O   0  0  0  0  0  0  0  0  0  0  0  0
   -5.6467   -2.4608   21.0604 N   0  0  0  0  0  0  0  0  0  0  0  0
   -5.0168    1.0442   26.1027 N   0  0  0  0  0  0  0  0  0  0  0  0
   -5.5127    1.3542   27.4198 C   0  0  2  0  0  0  0  0  0  0  0  0
   -6.8188    2.1175   27.3239 C   0  0  0  0  0  0  0  0  0  0  0  0
   -7.4920    2.1204   26.2741 O   0  0  0  0  0  0  0  0  0  0  0  0
   -4.5680    2.2564   28.1215 C   0  0  0  0  0  0  0  0  0  0  0  0
   -3.4476    1.6224   28.8537 C   0  0  0  0  0  0  0  0  0  0  0  0
   -3.6269   -0.1311   29.0342 S   0  0  0  0  0  0  0  0  0  0  0  0
   -3.5784   -0.7884   30.6795 C   0  0  0  0  0  0  0  0  0  0  0  0
   -7.3004    2.8462   28.4335 N   0  0  0  0  0  0  0  0  0  0  0  0
   -8.6711    3.2919   28.6220 C   0  0  2  0  0  0  0  0  0  0  0  0
   -8.8845    3.9522   29.8974 C   0  0  0  0  0  0  0  0  0  0  0  0
   -8.6569    3.3494   30.9686 O   0  0  0  0  0  0  0  0  0  0  0  0
   -9.5519    2.0558   28.5273 C   0  0  1  0  0  0  0  0  0  0  0  0
  -10.9869    2.4056   28.8770 C   0  0  0  0  0  0  0  0  0  0  0  0
   -9.5432    1.5715   27.0633 C   0  0  0  0  0  0  0  0  0  0  0  0
   -9.3505    5.2855   29.9666 N   0  0  0  0  0  0  0  0  0  0  0  0
   -8.7964    6.3726   30.7702 C   0  0  2  0  0  0  0  0  0  0  0  0
   -9.5302    6.4372   32.0730 C   0  0  0  0  0  0  0  0  0  0  0  0
  -10.7978    6.4345   32.0644 O   0  0  0  0  0  0  0  0  0  0  0  0
   -9.0058    7.5816   29.9083 C   0  0  0  0  0  0  0  0  0  0  0  0
   -9.9369    7.1996   28.8045 C   0  0  0  0  0  0  0  0  0  0  0  0
  -10.4659    5.8258   29.2490 C   0  0  0  0  0  0  0  0  0  0  0  0
   -8.9007    6.5002   33.3212 N   0  0  0  0  0  0  0  0  0  0  0  0
   -9.5296    6.1993   34.5821 C   0  0  2  0  0  0  0  0  0  0  0  0
  -10.2032    7.3529   35.2022 C   0  0  0  0  0  0  0  0  0  0  0  0
  -10.1467    8.5865   34.5767 O   0  0  0  0  0  0  0  0  0  0  0  0
   -8.5499    5.5428   35.5473 C   0  0  0  0  0  0  0  0  0  0  0  0
   -7.9632    4.4155   34.9546 O   0  0  0  0  0  0  0  0  0  0  0  0
  -10.8350    7.2751   36.2843 O   0  0  0  0  0  0  0  0  0  0  0  0
  2  1  1  6
  2  3  1  0
  2  5  1  0
  3  4  2  0
  3 10  1  0
  5  6  1  0
  6  7  1  0
  7  8  2  0
  7  9  1  0
 10 11  1  0
 11 12  1  0
 11 14  1  1
 12 13  2  0
 12 18  1  0
 14 15  1  0
 15 16  1  0
 15 17  2  0
 18 19  1  0
 19 20  1  0
 19 22  1  1
 20 21  2  0
 20 27  1  0
 22 23  1  0
 23 24  1  0
 24 25  2  0
 24 26  1  0
 27 28  1  0
 28 29  1  0
 28 31  1  6
 29 30  2  0
 29 35  1  0
 31 32  1  0
 32 33  1  0
 33 34  1  0
 36 35  1  1
 36 37  1  0
 36 39  1  0
 37 38  2  0
 37 42  1  0
 39 40  1  6
 39 41  1  0
 42 43  1  0
 42 48  1  0
 43 44  1  1
 43 46  1  0
 44 45  2  0
 44 49  1  0
 46 47  1  0
 47 48  1  0
 49 50  1  0
 50 51  1  0
 50 53  1  1
 51 52  1  0
 51 55  2  0
 53 54  1  0
M  CHG  1   1   1
M  END
$$$$
