
     RDKit          3D

 55 55  0  0  0  0  0  0  0  0999 V2000
    1.9829    0.2638   25.9983 N   0  0  0  0  0  4  0  0  0  0  0  0
    1.4286   -0.8652   25.2648 C   0  0  2  0  0  0  0  0  0  0  0  0
    0.0144   -1.1180   25.7096 C   0  0  0  0  0  0  0  0  0  0  0  0
   -0.8150   -1.5129   24.8677 O   0  0  0  0  0  0  0  0  0  0  0  0
    2.2125   -2.1158   25.4968 C   0  0  0  0  0  0  0  0  0  0  0  0
    1.6663   -3.3286   24.8023 C   0  0  0  0  0  0  0  0  0  0  0  0
    2.4388   -4.5515   24.9669 C   0  0  0  0  0  0  0  0  0  0  0  0
    2.5299   -5.3629   24.0161 O   0  0  0  0  0  0  0  0  0  0  0  0
    3.0818   -4.8471   26.1536 O   0  0  0  0  0  0  0  0  0  0  0  0
   -0.3889   -0.9202   27.0413 N   0  0  0  0  0  0  0  0  0  0  0  0
   -1.7285   -1.0246   27.5618 C   0  0  2  0  0  0  0  0  0  0  0  0
   -2.7164   -0.4053   26.6375 C   0  0  0  0  0  0  0  0  0  0  0  0
   -2.7754    0.8679   26.5971 O   0  0  0  0  0  0  0  0  0  0  0  0
   -1.8152   -0.4921   28.9471 C   0  0  0  0  0  0  0  0  0  0  0  0
   -1.9240    0.9806   28.9997 C   0  0  0  0  0  0  0  0  0  0  0  0
   -0.8985    1.7370   29.5293 O   0  0  0  0  0  0  0  0  0  0  0  0
   -2.9344    1.5934   28.5726 O   0  0  0  0  0  0  0  0  0  0  0  0
   -3.5968   -1.1564   25.8022 N   0  0  0  0  0  0  0  0  0  0  0  0
   -4.9233   -1.5158   26.2703 C   0  0  2  0  0  0  0  0  0  0  0  0
   -5.6244   -0.3137   26.8266 C   0  0  0  0  0  0  0  0  0  0  0  0
   -6.1376   -0.4310   27.9592 O   0  0  0  0  0  0  0  0  0  0  0  0
   -4.8681   -2.6437   27.2176 C   0  0  0  0  0  0  0  0  0  0  0  0
   -6.2403   -3.0889   27.6981 C   0  0  0  0  0  0  0  0  0  0  0  0
   -6.2785   -3.2796   29.1584 C   0  0  0  0  0  0  0  0  0  0  0  0
   -7.3535   -3.1209   29.7721 O   0  0  0  0  0  0  0  0  0  0  0  0
   -5.1249   -3.6412   29.9031 N   0  0  0  0  0  0  0  0  0  0  0  0
   -5.7264    0.9089   26.1528 N   0  0  0  0  0  0  0  0  0  0  0  0
   -6.8879    1.7570   26.0608 C   0  0  2  0  0  0  0  0  0  0  0  0
   -7.6553    1.7417   27.3678 C   0  0  0  0  0  0  0  0  0  0  0  0
   -8.0626    0.6741   27.8676 O   0  0  0  0  0  0  0  0  0  0  0  0
   -7.8233    1.2321   25.0368 C   0  0  0  0  0  0  0  0  0  0  0  0
   -7.5021    1.5186   23.6198 C   0  0  0  0  0  0  0  0  0  0  0  0
   -8.0471    3.1171   23.0834 S   0  0  0  0  0  0  0  0  0  0  0  0
   -7.0185    4.5037   23.4843 C   0  0  0  0  0  0  0  0  0  0  0  0
   -7.9250    2.9489   28.0490 N   0  0  0  0  0  0  0  0  0  0  0  0
   -8.0137    3.1043   29.4915 C   0  0  2  0  0  0  0  0  0  0  0  0
   -8.2783    4.4719   29.9014 C   0  0  0  0  0  0  0  0  0  0  0  0
   -7.4023    5.3537   29.7679 O   0  0  0  0  0  0  0  0  0  0  0  0
   -6.6837    2.6417   30.0657 C   0  0  1  0  0  0  0  0  0  0  0  0
   -6.6973    2.7557   31.5793 C   0  0  0  0  0  0  0  0  0  0  0  0
   -6.5056    1.1492   29.7214 C   0  0  0  0  0  0  0  0  0  0  0  0
   -9.5237    4.8455   30.4574 N   0  0  0  0  0  0  0  0  0  0  0  0
  -10.1818    6.1455   30.3524 C   0  0  2  0  0  0  0  0  0  0  0  0
   -9.8173    6.9729   31.5451 C   0  0  0  0  0  0  0  0  0  0  0  0
   -9.8489    6.4400   32.6948 O   0  0  0  0  0  0  0  0  0  0  0  0
  -11.6380    5.7926   30.2951 C   0  0  0  0  0  0  0  0  0  0  0  0
  -11.7751    4.3559   30.6802 C   0  0  0  0  0  0  0  0  0  0  0  0
  -10.3844    4.0054   31.2350 C   0  0  0  0  0  0  0  0  0  0  0  0
   -9.4363    8.3177   31.4753 N   0  0  0  0  0  0  0  0  0  0  0  0
   -8.5496    8.9763   32.4004 C   0  0  2  0  0  0  0  0  0  0  0  0
   -9.0901    9.0897   33.7657 C   0  0  0  0  0  0  0  0  0  0  0  0
   -8.3066    8.7008   34.8385 O   0  0  0  0  0  0  0  0  0  0  0  0
   -8.0985   10.3306   31.8667 C   0  0  0  0  0  0  0  0  0  0  0  0
   -7.2748   10.9733   32.8019 O   0  0  0  0  0  0  0  0  0  0  0  0
  -10.2411    9.5269   34.0111 O   0  0  0  0  0  0  0  0  0  0  0  0
  2  1  1  1
  2  3  1  0
  2  5  1  0
  3  4  2  0
  3 10  1  0
  5  6  1  0
  6  7  1  0
  7  8  2  0
  7  9  1  0
 10 11  1  0
 11 12  1  0
 11 14  1  1
 12 13  2  0
 12 18  1  0
 14 15  1  0
 15 16  1  0
 15 17  2  0
 18 19  1  0
 19 20  1  0
 19 22  1  1
 20 21  2  0
 20 27  1  0
 22 23  1  0
 23 24  1  0
 24 25  2  0
 24 26  1  0
 27 28  1  0
 28 29  1  0
 28 31  1  6
 29 30  2  0
 29 35  1  0
 31 32  1  0
 32 33  1  0
 33 34  1  0
 36 35  1  6
 36 37  1  0
 36 39  1  0
 37 38  2  0
 37 42  1  0
 39 40  1  1
 39 41  1  0
 42 43  1  0
 42 48  1  0
 43 44  1  1
 43 46  1  0
 44 45  2  0
 44 49  1  0
 46 47  1  0
 47 48  1  0
 49 50  1  0
 50 51  1  0
 50 53  1  6
 51 52  1  0
 51 55  2  0
 53 54  1  0
M  CHG  1   1   1
M  END
$$$$
