
     RDKit          3D

 55 57  0  0  0  0  0  0  0  0999 V2000
   25.6102   28.8677   14.1086 N   0  0  0  0  0  0  0  0  0  0  0  0
   24.5855   28.9660   14.9837 C   0  0  0  0  0  0  0  0  0  0  0  0
   24.0982   27.8910   15.6332 N   0  0  0  0  0  0  0  0  0  0  0  0
   24.6601   26.6965   15.3904 C   0  0  0  0  0  0  0  0  0  0  0  0
   25.7067   26.5740   14.5013 C   0  0  0  0  0  0  0  0  0  0  0  0
   26.1972   27.6897   13.8409 C   0  0  0  0  0  0  0  0  0  0  0  0
   27.2754   27.6109   12.9179 N   0  0  0  0  0  0  0  0  0  0  0  0
   26.0310   25.2846   14.4871 N   0  0  0  0  0  0  0  0  0  0  0  0
   25.2086   24.6203   15.3450 C   0  0  0  0  0  0  0  0  0  0  0  0
   24.3484   25.4788   15.9176 N   0  0  0  0  0  0  0  0  0  0  0  0
   23.2990   25.2102   16.8951 C   0  0  1  0  0  0  0  0  0  0  0  0
   21.9675   25.7037   16.3951 C   0  0  2  0  0  0  0  0  0  0  0  0
   21.2358   26.2559   17.4472 O   0  0  0  0  0  0  0  0  0  0  0  0
   21.2978   24.4068   15.9897 C   0  0  2  0  0  0  0  0  0  0  0  0
   19.9291   24.4242   16.0820 O   0  0  0  0  0  0  0  0  0  0  0  0
   21.8732   23.5129   17.1009 C   0  0  2  0  0  0  0  0  0  0  0  0
   23.2168   23.8593   17.1404 O   0  0  0  0  0  0  0  0  0  0  0  0
   21.6041   22.0680   16.8758 C   0  0  0  0  0  0  0  0  0  0  0  0
   20.2898   21.7780   16.6094 O   0  0  0  0  0  0  0  0  0  0  0  0
   18.9082   26.8671   15.8630 O   0  0  0  0  0  0  0  0  0  0  0  0
   19.3483   25.8229   16.8373 P   0  0  2  0  0  5  0  0  0  0  0  0
   20.5920   26.4379   17.8093 O   0  0  0  0  0  0  0  0  0  0  0  0
   18.0088   25.3754   17.7759 O   0  0  0  0  0  0  0  0  0  0  0  0
   19.9798   20.1278   16.4209 P   0  0  2  0  0  5  0  0  0  0  0  0
   21.4462   19.3628   16.0681 O   0  0  0  0  0  0  0  0  0  0  0  0
   19.0031   19.9420   15.2993 O   0  0  0  0  0  0  0  0  0  0  0  0
   19.4113   19.5105   17.8868 O   0  0  0  0  0  0  0  0  0  0  0  0
   20.5936   19.3183   19.0477 P   0  0  2  0  0  5  0  0  0  0  0  0
   20.0691   19.3499   20.4594 O   0  0  0  0  0  0  0  0  0  0  0  0
   21.6852   20.6246   18.8772 O   0  0  0  0  0  0  0  0  0  0  0  0
   21.5189   17.9166   18.7793 O   0  0  0  0  0  0  0  0  0  0  0  0
   22.8092   18.2373   18.4074 C   0  0  0  0  0  0  0  0  0  0  0  0
   23.8266   17.2530   18.8792 C   0  0  2  0  0  0  0  0  0  0  0  0
   24.3753   17.5103   20.2400 C   0  0  0  0  0  0  0  0  0  0  0  0
   25.0016   17.1838   17.9082 C   0  0  0  0  0  0  0  0  0  0  0  0
   23.1458   15.8817   18.8933 C   0  0  1  0  0  0  0  0  0  0  0  0
   22.8333   15.5888   17.5633 O   0  0  0  0  0  0  0  0  0  0  0  0
   24.0564   14.8455   19.4144 C   0  0  0  0  0  0  0  0  0  0  0  0
   23.8024   14.2148   20.4875 O   0  0  0  0  0  0  0  0  0  0  0  0
   25.2480   14.5352   18.7124 N   0  0  0  0  0  0  0  0  0  0  0  0
   26.2283   13.5740   19.2042 C   0  0  0  0  0  0  0  0  0  0  0  0
   27.5704   14.2510   19.2125 C   0  0  0  0  0  0  0  0  0  0  0  0
   28.3121   13.8606   17.9901 C   0  0  0  0  0  0  0  0  0  0  0  0
   27.6905   13.5962   16.9543 O   0  0  0  0  0  0  0  0  0  0  0  0
   29.7358   13.8074   18.0677 N   0  0  0  0  0  0  0  0  0  0  0  0
   30.5476   14.9024   17.6403 C   0  0  0  0  0  0  0  0  0  0  0  0
   30.4013   15.1710   16.1552 C   0  0  0  0  0  0  0  0  0  0  0  0
   31.6157   14.9396   15.4349 N   0  0  0  0  0  0  0  0  0  0  0  0
   31.7028   15.2481   14.0352 C   0  0  0  0  0  0  0  0  0  0  0  0
   30.8543   15.9832   13.4806 O   0  0  0  0  0  0  0  0  0  0  0  0
   32.8094   14.6937   13.2228 C   0  0  2  0  0  0  0  0  0  0  0  0
   33.6832   13.9077   14.2130 C   0  0  0  0  0  0  0  0  0  0  0  0
   33.5737   15.7925   12.6750 N   0  0  0  0  0  4  0  0  0  0  0  0
   34.6967   16.2336   13.3359 O   0  0  0  0  0  1  0  0  0  0  0  0
   33.2693   16.3769   11.6166 O   0  0  0  0  0  0  0  0  0  0  0  0
  1  2  2  0
  1  6  1  0
  2  3  1  0
  3  4  2  0
  4  5  1  0
  4 10  1  0
  5  6  2  0
  5  8  1  0
  6  7  1  0
  8  9  2  0
  9 10  1  0
 11 10  1  6
 11 12  1  0
 11 17  1  0
 12 13  1  1
 12 14  1  0
 14 15  1  1
 14 16  1  0
 15 21  1  0
 16 17  1  0
 16 18  1  6
 18 19  1  0
 19 24  1  0
 21 20  2  0
 21 22  1  1
 21 23  1  0
 24 25  1  6
 24 26  2  0
 24 27  1  0
 27 28  1  0
 28 29  2  0
 28 30  1  1
 28 31  1  0
 31 32  1  0
 32 33  1  0
 33 34  1  1
 33 35  1  0
 33 36  1  0
 36 37  1  6
 36 38  1  0
 38 39  2  0
 38 40  1  0
 40 41  1  0
 41 42  1  0
 42 43  1  0
 43 44  2  0
 43 45  1  0
 45 46  1  0
 46 47  1  0
 47 48  1  0
 48 49  1  0
 49 50  2  0
 49 51  1  0
 51 52  1  1
 51 53  1  0
 53 54  1  0
 53 55  2  0
M  CHG  2  53   1  54  -1
M  END
$$$$
