
     RDKit          3D

 55 57  0  0  0  0  0  0  0  0999 V2000
   29.0174  -28.4791   38.4302 N   0  0  0  0  0  0  0  0  0  0  0  0
   29.3165  -29.0366   37.2363 C   0  0  0  0  0  0  0  0  0  0  0  0
   29.3656  -30.3721   37.0665 N   0  0  0  0  0  0  0  0  0  0  0  0
   29.1070  -31.1547   38.1257 C   0  0  0  0  0  0  0  0  0  0  0  0
   28.7997  -30.6064   39.3529 C   0  0  0  0  0  0  0  0  0  0  0  0
   28.7528  -29.2302   39.5117 C   0  0  0  0  0  0  0  0  0  0  0  0
   28.4385  -28.6213   40.7571 N   0  0  0  0  0  0  0  0  0  0  0  0
   28.6000  -31.6312   40.1763 N   0  0  0  0  0  0  0  0  0  0  0  0
   28.7778  -32.7882   39.4812 C   0  0  0  0  0  0  0  0  0  0  0  0
   29.0936  -32.5155   38.2042 N   0  0  0  0  0  0  0  0  0  0  0  0
   29.3665  -33.4407   37.1094 C   0  0  1  0  0  0  0  0  0  0  0  0
   28.3984  -33.2249   35.9769 C   0  0  2  0  0  0  0  0  0  0  0  0
   28.0358  -34.4505   35.4169 O   0  0  0  0  0  0  0  0  0  0  0  0
   29.2652  -32.4909   34.9745 C   0  0  2  0  0  0  0  0  0  0  0  0
   28.9089  -32.6913   33.6650 O   0  0  0  0  0  0  0  0  0  0  0  0
   30.5881  -33.2209   35.2613 C   0  0  2  0  0  0  0  0  0  0  0  0
   30.6494  -33.2601   36.6474 O   0  0  0  0  0  0  0  0  0  0  0  0
   31.7553  -32.5802   34.5995 C   0  0  0  0  0  0  0  0  0  0  0  0
   32.9528  -32.8140   35.2270 O   0  0  0  0  0  0  0  0  0  0  0  0
   30.0430  -30.4987   32.6832 O   0  0  0  0  0  0  0  0  0  0  0  0
   28.7519  -31.2410   32.8069 P   0  0  2  0  0  5  0  0  0  0  0  0
   27.6178  -30.2811   33.6204 O   0  0  0  0  0  0  0  0  0  0  0  0
   28.2119  -31.6288   31.2469 O   0  0  0  0  0  0  0  0  0  0  0  0
   34.2787  -32.1112   34.4505 P   0  0  2  0  0  5  0  0  0  0  0  0
   35.3962  -33.3376   34.1229 O   0  0  0  0  0  0  0  0  0  0  0  0
   34.8785  -31.0767   35.3540 O   0  0  0  0  0  0  0  0  0  0  0  0
   33.7664  -31.4675   32.9753 O   0  0  0  0  0  0  0  0  0  0  0  0
   34.7301  -30.2331   32.4008 P   0  0  2  0  0  5  0  0  0  0  0  0
   34.4230  -28.8899   33.0096 O   0  0  0  0  0  0  0  0  0  0  0  0
   34.4441  -30.1108   30.7186 O   0  0  0  0  0  0  0  0  0  0  0  0
   36.3837  -30.6008   32.5538 O   0  0  0  0  0  0  0  0  0  0  0  0
   37.1510  -29.7798   31.7517 C   0  0  0  0  0  0  0  0  0  0  0  0
   38.4550  -30.3864   31.3541 C   0  0  2  0  0  0  0  0  0  0  0  0
   38.4292  -31.8595   31.1346 C   0  0  0  0  0  0  0  0  0  0  0  0
   39.5288  -30.0891   32.3967 C   0  0  0  0  0  0  0  0  0  0  0  0
   38.8747  -29.7182   30.0420 C   0  0  1  0  0  0  0  0  0  0  0  0
   37.7057  -29.2022   29.4768 O   0  0  0  0  0  0  0  0  0  0  0  0
   39.8190  -28.6131   30.2908 C   0  0  0  0  0  0  0  0  0  0  0  0
   40.8912  -28.7893   30.9489 O   0  0  0  0  0  0  0  0  0  0  0  0
   39.5368  -27.3174   29.7902 N   0  0  0  0  0  0  0  0  0  0  0  0
   40.4762  -26.2069   29.8954 C   0  0  0  0  0  0  0  0  0  0  0  0
   40.4387  -25.4499   28.5972 C   0  0  0  0  0  0  0  0  0  0  0  0
   40.8770  -24.0555   28.8423 C   0  0  0  0  0  0  0  0  0  0  0  0
   41.2485  -23.7196   29.9729 O   0  0  0  0  0  0  0  0  0  0  0  0
   40.8492  -23.1491   27.7408 N   0  0  0  0  0  0  0  0  0  0  0  0
   41.1292  -21.7587   27.9116 C   0  0  0  0  0  0  0  0  0  0  0  0
   40.1168  -20.8845   27.1976 C   0  0  0  0  0  0  0  0  0  0  0  0
   40.6637  -19.6215   26.8063 N   0  0  0  0  0  0  0  0  0  0  0  0
   41.7974  -19.5593   25.9271 C   0  0  0  0  0  0  0  0  0  0  0  0
   42.5653  -20.5390   25.7912 O   0  0  0  0  0  0  0  0  0  0  0  0
   42.0742  -18.3218   25.1631 C   0  0  2  0  0  0  0  0  0  0  0  0
   41.4800  -18.5671   23.7672 C   0  0  0  0  0  0  0  0  0  0  0  0
   43.5069  -18.1590   25.0537 N   0  0  0  0  0  4  0  0  0  0  0  0
   44.2652  -19.1715   24.5130 O   0  0  0  0  0  1  0  0  0  0  0  0
   44.1095  -17.1338   25.4282 O   0  0  0  0  0  0  0  0  0  0  0  0
  1  2  2  0
  1  6  1  0
  2  3  1  0
  3  4  2  0
  4  5  1  0
  4 10  1  0
  5  6  2  0
  5  8  1  0
  6  7  1  0
  8  9  2  0
  9 10  1  0
 11 10  1  1
 11 12  1  0
 11 17  1  0
 12 13  1  6
 12 14  1  0
 14 15  1  6
 14 16  1  0
 15 21  1  0
 16 17  1  0
 16 18  1  1
 18 19  1  0
 19 24  1  0
 21 20  2  0
 21 22  1  1
 21 23  1  0
 24 25  1  6
 24 26  2  0
 24 27  1  0
 27 28  1  0
 28 29  2  0
 28 30  1  6
 28 31  1  0
 31 32  1  0
 32 33  1  0
 33 34  1  6
 33 35  1  0
 33 36  1  0
 36 37  1  1
 36 38  1  0
 38 39  2  0
 38 40  1  0
 40 41  1  0
 41 42  1  0
 42 43  1  0
 43 44  2  0
 43 45  1  0
 45 46  1  0
 46 47  1  0
 47 48  1  0
 48 49  1  0
 49 50  2  0
 49 51  1  0
 51 52  1  6
 51 53  1  0
 53 54  1  0
 53 55  2  0
M  CHG  2  53   1  54  -1
M  END
$$$$
