
     RDKit          3D

 55 57  0  0  0  0  0  0  0  0999 V2000
   24.7525  -27.4147   35.1099 N   0  0  0  0  0  0  0  0  0  0  0  0
   24.5038  -28.7258   34.8983 C   0  0  0  0  0  0  0  0  0  0  0  0
   25.3223  -29.6898   35.3628 N   0  0  0  0  0  0  0  0  0  0  0  0
   26.4111  -29.3171   36.0533 C   0  0  0  0  0  0  0  0  0  0  0  0
   26.6836  -27.9848   36.2806 C   0  0  0  0  0  0  0  0  0  0  0  0
   25.8315  -27.0044   35.7964 C   0  0  0  0  0  0  0  0  0  0  0  0
   26.0716  -25.6195   36.0084 N   0  0  0  0  0  0  0  0  0  0  0  0
   27.8127  -27.9525   36.9821 N   0  0  0  0  0  0  0  0  0  0  0  0
   28.2334  -29.2310   37.1873 C   0  0  0  0  0  0  0  0  0  0  0  0
   27.3769  -30.0956   36.6183 N   0  0  0  0  0  0  0  0  0  0  0  0
   27.4288  -31.5535   36.5904 C   0  0  1  0  0  0  0  0  0  0  0  0
   26.2546  -32.1131   35.8324 C   0  0  2  0  0  0  0  0  0  0  0  0
   25.7905  -33.2719   36.4559 O   0  0  0  0  0  0  0  0  0  0  0  0
   26.9036  -32.5141   34.5236 C   0  0  2  0  0  0  0  0  0  0  0  0
   26.2947  -33.5674   33.8898 O   0  0  0  0  0  0  0  0  0  0  0  0
   28.2585  -32.9722   35.0887 C   0  0  2  0  0  0  0  0  0  0  0  0
   28.5940  -31.9731   35.9920 O   0  0  0  0  0  0  0  0  0  0  0  0
   29.2698  -33.2248   34.0283 C   0  0  0  0  0  0  0  0  0  0  0  0
   29.7482  -32.0874   33.4284 O   0  0  0  0  0  0  0  0  0  0  0  0
   25.9499  -36.0007   34.8989 O   0  0  0  0  0  0  0  0  0  0  0  0
   26.9612  -35.0602   34.3279 P   0  0  2  0  0  5  0  0  0  0  0  0
   28.1762  -34.7664   35.4711 O   0  0  0  0  0  0  0  0  0  0  0  0
   27.6044  -35.7616   32.9244 O   0  0  0  0  0  0  0  0  0  0  0  0
   31.4334  -32.0303   33.3200 P   0  0  2  0  0  5  0  0  0  0  0  0
   31.9428  -33.3925   32.4569 O   0  0  0  0  0  0  0  0  0  0  0  0
   32.0096  -32.0350   34.7036 O   0  0  0  0  0  0  0  0  0  0  0  0
   31.8752  -30.6602   32.4365 O   0  0  0  0  0  0  0  0  0  0  0  0
   32.1677  -30.9579   30.8215 P   0  0  2  0  0  5  0  0  0  0  0  0
   31.0631  -30.4933   29.9088 O   0  0  0  0  0  0  0  0  0  0  0  0
   32.3052  -32.6532   30.6377 O   0  0  0  0  0  0  0  0  0  0  0  0
   33.6665  -30.3253   30.3251 O   0  0  0  0  0  0  0  0  0  0  0  0
   33.8154  -29.0172   30.7410 C   0  0  0  0  0  0  0  0  0  0  0  0
   35.2395  -28.5840   30.8441 C   0  0  2  0  0  0  0  0  0  0  0  0
   36.0156  -28.6471   29.5742 C   0  0  0  0  0  0  0  0  0  0  0  0
   35.9824  -29.4149   31.8863 C   0  0  0  0  0  0  0  0  0  0  0  0
   35.2285  -27.1294   31.3220 C   0  0  1  0  0  0  0  0  0  0  0  0
   34.5532  -27.1269   32.5452 O   0  0  0  0  0  0  0  0  0  0  0  0
   36.6010  -26.6308   31.5275 C   0  0  0  0  0  0  0  0  0  0  0  0
   37.3148  -27.0283   32.5002 O   0  0  0  0  0  0  0  0  0  0  0  0
   37.1505  -25.6845   30.6266 N   0  0  0  0  0  0  0  0  0  0  0  0
   38.5713  -25.6340   30.3018 C   0  0  0  0  0  0  0  0  0  0  0  0
   38.7463  -24.6754   29.1572 C   0  0  0  0  0  0  0  0  0  0  0  0
   40.0725  -24.0243   29.2754 C   0  0  0  0  0  0  0  0  0  0  0  0
   41.0208  -24.6495   29.7641 O   0  0  0  0  0  0  0  0  0  0  0  0
   40.1946  -22.6808   28.8107 N   0  0  0  0  0  0  0  0  0  0  0  0
   41.4709  -22.0956   28.5476 C   0  0  0  0  0  0  0  0  0  0  0  0
   41.3694  -20.9150   27.6017 C   0  0  0  0  0  0  0  0  0  0  0  0
   42.6511  -20.3917   27.2400 N   0  0  0  0  0  0  0  0  0  0  0  0
   43.7782  -20.5555   28.1146 C   0  0  0  0  0  0  0  0  0  0  0  0
   43.9156  -19.8410   29.1338 O   0  0  0  0  0  0  0  0  0  0  0  0
   44.8023  -21.5824   27.8173 C   0  0  2  0  0  0  0  0  0  0  0  0
   45.2161  -22.1484   29.1848 C   0  0  0  0  0  0  0  0  0  0  0  0
   45.9391  -20.9343   27.2016 N   0  0  0  0  0  4  0  0  0  0  0  0
   45.9316  -19.5691   27.0318 O   0  0  0  0  0  1  0  0  0  0  0  0
   46.9475  -21.5519   26.8066 O   0  0  0  0  0  0  0  0  0  0  0  0
  1  2  2  0
  1  6  1  0
  2  3  1  0
  3  4  2  0
  4  5  1  0
  4 10  1  0
  5  6  2  0
  5  8  1  0
  6  7  1  0
  8  9  2  0
  9 10  1  0
 11 10  1  6
 11 12  1  0
 11 17  1  0
 12 13  1  1
 12 14  1  0
 14 15  1  1
 14 16  1  0
 15 21  1  0
 16 17  1  0
 16 18  1  6
 18 19  1  0
 19 24  1  0
 21 20  2  0
 21 22  1  1
 21 23  1  0
 24 25  1  6
 24 26  2  0
 24 27  1  0
 27 28  1  0
 28 29  2  0
 28 30  1  1
 28 31  1  0
 31 32  1  0
 32 33  1  0
 33 34  1  6
 33 35  1  0
 33 36  1  0
 36 37  1  1
 36 38  1  0
 38 39  2  0
 38 40  1  0
 40 41  1  0
 41 42  1  0
 42 43  1  0
 43 44  2  0
 43 45  1  0
 45 46  1  0
 46 47  1  0
 47 48  1  0
 48 49  1  0
 49 50  2  0
 49 51  1  0
 51 52  1  1
 51 53  1  0
 53 54  1  0
 53 55  2  0
M  CHG  2  53   1  54  -1
M  END
$$$$
