
     RDKit          3D

 55 57  0  0  0  0  0  0  0  0999 V2000
   30.0676  -31.1328   26.3186 N   0  0  0  0  0  0  0  0  0  0  0  0
   29.8389  -30.2334   27.3008 C   0  0  0  0  0  0  0  0  0  0  0  0
   29.4613  -30.6106   28.5377 N   0  0  0  0  0  0  0  0  0  0  0  0
   29.3131  -31.9220   28.7819 C   0  0  0  0  0  0  0  0  0  0  0  0
   29.5414  -32.8563   27.7941 C   0  0  0  0  0  0  0  0  0  0  0  0
   29.9298  -32.4525   26.5261 C   0  0  0  0  0  0  0  0  0  0  0  0
   30.1779  -33.3803   25.4782 N   0  0  0  0  0  0  0  0  0  0  0  0
   29.3126  -34.0434   28.3477 N   0  0  0  0  0  0  0  0  0  0  0  0
   28.9515  -33.8546   29.6468 C   0  0  0  0  0  0  0  0  0  0  0  0
   28.9453  -32.5432   29.9381 N   0  0  0  0  0  0  0  0  0  0  0  0
   28.6252  -31.8859   31.2009 C   0  0  1  0  0  0  0  0  0  0  0  0
   27.2687  -32.3136   31.6942 C   0  0  2  0  0  0  0  0  0  0  0  0
   26.6031  -31.2285   32.2657 O   0  0  0  0  0  0  0  0  0  0  0  0
   27.6405  -33.2728   32.8063 C   0  0  2  0  0  0  0  0  0  0  0  0
   26.7173  -33.3508   33.8180 O   0  0  0  0  0  0  0  0  0  0  0  0
   28.8925  -32.5372   33.3129 C   0  0  2  0  0  0  0  0  0  0  0  0
   29.5703  -32.2000   32.1495 O   0  0  0  0  0  0  0  0  0  0  0  0
   29.6784  -33.3402   34.2867 C   0  0  0  0  0  0  0  0  0  0  0  0
   30.3225  -34.4178   33.7333 O   0  0  0  0  0  0  0  0  0  0  0  0
   26.0492  -32.2917   36.1611 O   0  0  0  0  0  0  0  0  0  0  0  0
   27.1589  -32.4339   35.1703 P   0  0  2  0  0  5  0  0  0  0  0  0
   27.6337  -30.9030   34.6222 O   0  0  0  0  0  0  0  0  0  0  0  0
   28.4473  -33.2340   35.9287 O   0  0  0  0  0  0  0  0  0  0  0  0
   31.0417  -34.0897   32.2399 P   0  0  2  0  0  5  0  0  0  0  0  0
   31.8550  -32.6127   32.3707 O   0  0  0  0  0  0  0  0  0  0  0  0
   29.9728  -34.0140   31.1921 O   0  0  0  0  0  0  0  0  0  0  0  0
   32.1879  -35.2868   31.9139 O   0  0  0  0  0  0  0  0  0  0  0  0
   33.7058  -34.6951   31.5556 P   0  0  2  0  0  5  0  0  0  0  0  0
   34.4936  -35.5725   30.6183 O   0  0  0  0  0  0  0  0  0  0  0  0
   34.5737  -34.6080   33.0272 O   0  0  0  0  0  0  0  0  0  0  0  0
   33.6388  -33.0982   30.9738 O   0  0  0  0  0  0  0  0  0  0  0  0
   34.8260  -32.4339   31.2094 C   0  0  0  0  0  0  0  0  0  0  0  0
   34.9030  -31.0995   30.5461 C   0  0  2  0  0  0  0  0  0  0  0  0
   34.6620  -31.1066   29.0761 C   0  0  0  0  0  0  0  0  0  0  0  0
   36.2625  -30.4519   30.7925 C   0  0  0  0  0  0  0  0  0  0  0  0
   33.8355  -30.2164   31.1980 C   0  0  1  0  0  0  0  0  0  0  0  0
   33.0562  -31.0664   31.9870 O   0  0  0  0  0  0  0  0  0  0  0  0
   34.4527  -29.1902   32.0585 C   0  0  0  0  0  0  0  0  0  0  0  0
   34.8241  -28.0677   31.5939 O   0  0  0  0  0  0  0  0  0  0  0  0
   34.6433  -29.4483   33.4391 N   0  0  0  0  0  0  0  0  0  0  0  0
   35.1473  -28.4445   34.3692 C   0  0  0  0  0  0  0  0  0  0  0  0
   33.9815  -27.9338   35.1691 C   0  0  0  0  0  0  0  0  0  0  0  0
   34.4949  -27.1766   36.3351 C   0  0  0  0  0  0  0  0  0  0  0  0
   35.7147  -27.0665   36.5056 O   0  0  0  0  0  0  0  0  0  0  0  0
   33.5388  -26.5990   37.2229 N   0  0  0  0  0  0  0  0  0  0  0  0
   33.9300  -26.0329   38.4748 C   0  0  0  0  0  0  0  0  0  0  0  0
   34.4145  -27.0895   39.4483 C   0  0  0  0  0  0  0  0  0  0  0  0
   35.8415  -27.1322   39.5441 N   0  0  0  0  0  0  0  0  0  0  0  0
   36.4826  -28.0015   40.4905 C   0  0  0  0  0  0  0  0  0  0  0  0
   35.8126  -28.7407   41.2471 O   0  0  0  0  0  0  0  0  0  0  0  0
   37.9598  -28.0332   40.5833 C   0  0  2  0  0  0  0  0  0  0  0  0
   38.2913  -29.3492   41.3043 C   0  0  0  0  0  0  0  0  0  0  0  0
   38.3941  -26.9180   41.3950 N   0  0  0  0  0  4  0  0  0  0  0  0
   37.8512  -25.6720   41.1821 O   0  0  0  0  0  1  0  0  0  0  0  0
   39.2500  -27.0199   42.2959 O   0  0  0  0  0  0  0  0  0  0  0  0
  1  2  2  0
  1  6  1  0
  2  3  1  0
  3  4  2  0
  4  5  1  0
  4 10  1  0
  5  6  2  0
  5  8  1  0
  6  7  1  0
  8  9  2  0
  9 10  1  0
 11 10  1  6
 11 12  1  0
 11 17  1  0
 12 13  1  1
 12 14  1  0
 14 15  1  1
 14 16  1  0
 15 21  1  0
 16 17  1  0
 16 18  1  1
 18 19  1  0
 19 24  1  0
 21 20  2  0
 21 22  1  6
 21 23  1  0
 24 25  1  1
 24 26  2  0
 24 27  1  0
 27 28  1  0
 28 29  2  0
 28 30  1  1
 28 31  1  0
 31 32  1  0
 32 33  1  0
 33 34  1  6
 33 35  1  0
 33 36  1  0
 36 37  1  1
 36 38  1  0
 38 39  2  0
 38 40  1  0
 40 41  1  0
 41 42  1  0
 42 43  1  0
 43 44  2  0
 43 45  1  0
 45 46  1  0
 46 47  1  0
 47 48  1  0
 48 49  1  0
 49 50  2  0
 49 51  1  0
 51 52  1  1
 51 53  1  0
 53 54  1  0
 53 55  2  0
M  CHG  2  53   1  54  -1
M  END
$$$$
