
     RDKit          3D

 55 57  0  0  0  0  0  0  0  0999 V2000
   23.5245   15.1782   17.9546 N   0  0  0  0  0  0  0  0  0  0  0  0
   22.8062   15.3923   16.8304 C   0  0  0  0  0  0  0  0  0  0  0  0
   21.7908   16.2769   16.7919 N   0  0  0  0  0  0  0  0  0  0  0  0
   21.4996   16.9551   17.9128 C   0  0  0  0  0  0  0  0  0  0  0  0
   22.2198   16.7518   19.0707 C   0  0  0  0  0  0  0  0  0  0  0  0
   23.2622   15.8383   19.0944 C   0  0  0  0  0  0  0  0  0  0  0  0
   24.0328   15.5980   20.2644 N   0  0  0  0  0  0  0  0  0  0  0  0
   21.6913   17.5629   19.9823 N   0  0  0  0  0  0  0  0  0  0  0  0
   20.6685   18.2540   19.4082 C   0  0  0  0  0  0  0  0  0  0  0  0
   20.5316   17.8919   18.1217 N   0  0  0  0  0  0  0  0  0  0  0  0
   19.5745   18.3723   17.1307 C   0  0  1  0  0  0  0  0  0  0  0  0
   18.1702   17.9963   17.5218 C   0  0  2  0  0  0  0  0  0  0  0  0
   17.4387   17.6344   16.3900 O   0  0  0  0  0  0  0  0  0  0  0  0
   17.6316   19.3204   18.0231 C   0  0  2  0  0  0  0  0  0  0  0  0
   16.2769   19.4742   17.8705 O   0  0  0  0  0  0  0  0  0  0  0  0
   18.3648   20.2385   17.0309 C   0  0  2  0  0  0  0  0  0  0  0  0
   19.6602   19.7402   17.0159 O   0  0  0  0  0  0  0  0  0  0  0  0
   18.2503   21.6781   17.3848 C   0  0  0  0  0  0  0  0  0  0  0  0
   19.1332   22.4904   16.7190 O   0  0  0  0  0  0  0  0  0  0  0  0
   15.9870   20.3817   20.3504 O   0  0  0  0  0  0  0  0  0  0  0  0
   15.6341   20.6354   18.9206 P   0  0  2  0  0  5  0  0  0  0  0  0
   13.9501   20.6198   18.7374 O   0  0  0  0  0  0  0  0  0  0  0  0
   16.2798   22.1383   18.4738 O   0  0  0  0  0  0  0  0  0  0  0  0
   18.9534   24.1319   17.0771 P   0  0  2  0  0  5  0  0  0  0  0  0
   17.3476   24.5576   16.7604 O   0  0  0  0  0  0  0  0  0  0  0  0
   19.8901   24.9226   16.2148 O   0  0  0  0  0  0  0  0  0  0  0  0
   19.2366   24.3627   18.7262 O   0  0  0  0  0  0  0  0  0  0  0  0
   20.8393   24.2232   19.1668 P   0  0  2  0  0  5  0  0  0  0  0  0
   21.1094   24.5967   20.6009 O   0  0  0  0  0  0  0  0  0  0  0  0
   21.7295   25.3006   18.1802 O   0  0  0  0  0  0  0  0  0  0  0  0
   21.4562   22.6764   18.8200 O   0  0  0  0  0  0  0  0  0  0  0  0
   22.8171   22.7243   18.5928 C   0  0  0  0  0  0  0  0  0  0  0  0
   23.4277   21.3843   18.3521 C   0  0  2  0  0  0  0  0  0  0  0  0
   22.6438   20.4795   17.4657 C   0  0  0  0  0  0  0  0  0  0  0  0
   23.6647   20.6544   19.6710 C   0  0  0  0  0  0  0  0  0  0  0  0
   24.7901   21.6274   17.6970 C   0  0  1  0  0  0  0  0  0  0  0  0
   25.3795   22.6789   18.4035 O   0  0  0  0  0  0  0  0  0  0  0  0
   25.6482   20.4329   17.8044 C   0  0  0  0  0  0  0  0  0  0  0  0
   26.4177   20.2536   18.7992 O   0  0  0  0  0  0  0  0  0  0  0  0
   25.6252   19.4529   16.7807 N   0  0  0  0  0  0  0  0  0  0  0  0
   25.4179   18.0344   17.0482 C   0  0  0  0  0  0  0  0  0  0  0  0
   26.5808   17.5472   17.8666 C   0  0  0  0  0  0  0  0  0  0  0  0
   27.7791   17.4684   16.9979 C   0  0  0  0  0  0  0  0  0  0  0  0
   28.1914   18.4858   16.4287 O   0  0  0  0  0  0  0  0  0  0  0  0
   28.4125   16.1977   16.8567 N   0  0  0  0  0  0  0  0  0  0  0  0
   29.5908   16.0353   16.0655 C   0  0  0  0  0  0  0  0  0  0  0  0
   30.1471   14.6280   16.1588 C   0  0  0  0  0  0  0  0  0  0  0  0
   31.5733   14.6097   16.2728 N   0  0  0  0  0  0  0  0  0  0  0  0
   32.3980   14.5826   15.0975 C   0  0  0  0  0  0  0  0  0  0  0  0
   31.8921   14.5385   13.9530 O   0  0  0  0  0  0  0  0  0  0  0  0
   33.8725   14.6065   15.2277 C   0  0  2  0  0  0  0  0  0  0  0  0
   34.3615   15.5452   14.1135 C   0  0  0  0  0  0  0  0  0  0  0  0
   34.3775   13.2727   14.9883 N   0  0  0  0  0  4  0  0  0  0  0  0
   34.6293   12.8641   13.6990 O   0  0  0  0  0  1  0  0  0  0  0  0
   34.6032   12.4528   15.8999 O   0  0  0  0  0  0  0  0  0  0  0  0
  1  2  2  0
  1  6  1  0
  2  3  1  0
  3  4  2  0
  4  5  1  0
  4 10  1  0
  5  6  2  0
  5  8  1  0
  6  7  1  0
  8  9  2  0
  9 10  1  0
 11 10  1  1
 11 12  1  0
 11 17  1  0
 12 13  1  6
 12 14  1  0
 14 15  1  6
 14 16  1  0
 15 21  1  0
 16 17  1  0
 16 18  1  1
 18 19  1  0
 19 24  1  0
 21 20  2  0
 21 22  1  1
 21 23  1  0
 24 25  1  1
 24 26  2  0
 24 27  1  0
 27 28  1  0
 28 29  2  0
 28 30  1  6
 28 31  1  0
 31 32  1  0
 32 33  1  0
 33 34  1  6
 33 35  1  0
 33 36  1  0
 36 37  1  1
 36 38  1  0
 38 39  2  0
 38 40  1  0
 40 41  1  0
 41 42  1  0
 42 43  1  0
 43 44  2  0
 43 45  1  0
 45 46  1  0
 46 47  1  0
 47 48  1  0
 48 49  1  0
 49 50  2  0
 49 51  1  0
 51 52  1  6
 51 53  1  0
 53 54  1  0
 53 55  2  0
M  CHG  2  53   1  54  -1
M  END
$$$$
