
     RDKit          3D

 55 57  0  0  0  0  0  0  0  0999 V2000
   22.8586  -36.8197   30.3736 N   0  0  0  0  0  0  0  0  0  0  0  0
   22.6500  -36.0339   31.4529 C   0  0  0  0  0  0  0  0  0  0  0  0
   23.5488  -35.1105   31.8458 N   0  0  0  0  0  0  0  0  0  0  0  0
   24.6780  -34.9825   31.1317 C   0  0  0  0  0  0  0  0  0  0  0  0
   24.9107  -35.7741   30.0271 C   0  0  0  0  0  0  0  0  0  0  0  0
   23.9760  -36.7197   29.6351 C   0  0  0  0  0  0  0  0  0  0  0  0
   24.1727  -37.5557   28.5025 N   0  0  0  0  0  0  0  0  0  0  0  0
   26.0960  -35.4051   29.5506 N   0  0  0  0  0  0  0  0  0  0  0  0
   26.5896  -34.4093   30.3371 C   0  0  0  0  0  0  0  0  0  0  0  0
   25.7242  -34.1307   31.3263 N   0  0  0  0  0  0  0  0  0  0  0  0
   25.8378  -33.1408   32.3921 C   0  0  1  0  0  0  0  0  0  0  0  0
   26.4311  -33.7582   33.6303 C   0  0  2  0  0  0  0  0  0  0  0  0
   25.8053  -33.2462   34.7676 O   0  0  0  0  0  0  0  0  0  0  0  0
   27.8450  -33.2158   33.5903 C   0  0  2  0  0  0  0  0  0  0  0  0
   28.4308  -33.0724   34.8225 O   0  0  0  0  0  0  0  0  0  0  0  0
   27.5246  -31.8270   33.0125 C   0  0  2  0  0  0  0  0  0  0  0  0
   26.6330  -32.0957   31.9831 O   0  0  0  0  0  0  0  0  0  0  0  0
   28.7424  -31.0760   32.6078 C   0  0  0  0  0  0  0  0  0  0  0  0
   29.8568  -31.8603   32.4484 O   0  0  0  0  0  0  0  0  0  0  0  0
   26.8264  -31.1921   35.7962 O   0  0  0  0  0  0  0  0  0  0  0  0
   27.3294  -32.5829   36.0106 P   0  0  2  0  0  5  0  0  0  0  0  0
   28.1112  -32.6817   37.5101 O   0  0  0  0  0  0  0  0  0  0  0  0
   26.0061  -33.6412   35.9446 O   0  0  0  0  0  0  0  0  0  0  0  0
   30.2035  -32.2341   30.8374 P   0  0  2  0  0  5  0  0  0  0  0  0
   30.0712  -30.8094   29.9358 O   0  0  0  0  0  0  0  0  0  0  0  0
   29.2220  -33.2587   30.3544 O   0  0  0  0  0  0  0  0  0  0  0  0
   31.8030  -32.7671   30.7351 O   0  0  0  0  0  0  0  0  0  0  0  0
   32.9208  -31.5381   30.5848 P   0  0  2  0  0  5  0  0  0  0  0  0
   32.8407  -30.8017   29.2732 O   0  0  0  0  0  0  0  0  0  0  0  0
   34.4722  -32.2530   30.6773 O   0  0  0  0  0  0  0  0  0  0  0  0
   32.8435  -30.4523   31.8918 O   0  0  0  0  0  0  0  0  0  0  0  0
   34.0547  -29.8173   32.0818 C   0  0  0  0  0  0  0  0  0  0  0  0
   34.0412  -28.3789   31.6852 C   0  0  2  0  0  0  0  0  0  0  0  0
   33.4047  -27.4560   32.6661 C   0  0  0  0  0  0  0  0  0  0  0  0
   33.3342  -28.1951   30.3456 C   0  0  0  0  0  0  0  0  0  0  0  0
   35.5011  -27.9521   31.5098 C   0  0  1  0  0  0  0  0  0  0  0  0
   35.5588  -27.2498   30.3033 O   0  0  0  0  0  0  0  0  0  0  0  0
   35.9265  -27.0629   32.6066 C   0  0  0  0  0  0  0  0  0  0  0  0
   36.0341  -27.4833   33.8005 O   0  0  0  0  0  0  0  0  0  0  0  0
   36.2255  -25.7038   32.3377 N   0  0  0  0  0  0  0  0  0  0  0  0
   36.7360  -24.7903   33.3534 C   0  0  0  0  0  0  0  0  0  0  0  0
   38.2366  -24.7992   33.2659 C   0  0  0  0  0  0  0  0  0  0  0  0
   38.6480  -24.1226   32.0130 C   0  0  0  0  0  0  0  0  0  0  0  0
   37.7896  -23.6256   31.2745 O   0  0  0  0  0  0  0  0  0  0  0  0
   40.0420  -24.0756   31.7124 N   0  0  0  0  0  0  0  0  0  0  0  0
   40.6163  -22.9742   31.0068 C   0  0  0  0  0  0  0  0  0  0  0  0
   42.1206  -23.1087   30.8730 C   0  0  0  0  0  0  0  0  0  0  0  0
   42.5139  -23.6007   29.5883 N   0  0  0  0  0  0  0  0  0  0  0  0
   42.2920  -22.8141   28.4076 C   0  0  0  0  0  0  0  0  0  0  0  0
   41.7075  -21.7083   28.4672 O   0  0  0  0  0  0  0  0  0  0  0  0
   42.7567  -23.3078   27.0915 C   0  0  2  0  0  0  0  0  0  0  0  0
   43.9602  -22.4232   26.7300 C   0  0  0  0  0  0  0  0  0  0  0  0
   41.7016  -23.1024   26.1240 N   0  0  0  0  0  4  0  0  0  0  0  0
   40.3883  -23.1729   26.5275 O   0  0  0  0  0  1  0  0  0  0  0  0
   41.9152  -22.8603   24.9198 O   0  0  0  0  0  0  0  0  0  0  0  0
  1  2  2  0
  1  6  1  0
  2  3  1  0
  3  4  2  0
  4  5  1  0
  4 10  1  0
  5  6  2  0
  5  8  1  0
  6  7  1  0
  8  9  2  0
  9 10  1  0
 11 10  1  6
 11 12  1  0
 11 17  1  0
 12 13  1  1
 12 14  1  0
 14 15  1  1
 14 16  1  0
 15 21  1  0
 16 17  1  0
 16 18  1  6
 18 19  1  0
 19 24  1  0
 21 20  2  0
 21 22  1  1
 21 23  1  0
 24 25  1  6
 24 26  2  0
 24 27  1  0
 27 28  1  0
 28 29  2  0
 28 30  1  6
 28 31  1  0
 31 32  1  0
 32 33  1  0
 33 34  1  1
 33 35  1  0
 33 36  1  0
 36 37  1  6
 36 38  1  0
 38 39  2  0
 38 40  1  0
 40 41  1  0
 41 42  1  0
 42 43  1  0
 43 44  2  0
 43 45  1  0
 45 46  1  0
 46 47  1  0
 47 48  1  0
 48 49  1  0
 49 50  2  0
 49 51  1  0
 51 52  1  6
 51 53  1  0
 53 54  1  0
 53 55  2  0
M  CHG  2  53   1  54  -1
M  END
$$$$
