
     RDKit          3D

 55 57  0  0  0  0  0  0  0  0999 V2000
   13.2499   21.5587   20.1420 N   0  0  0  0  0  0  0  0  0  0  0  0
   13.5870   22.7136   19.5271 C   0  0  0  0  0  0  0  0  0  0  0  0
   14.8632   23.0046   19.2086 N   0  0  0  0  0  0  0  0  0  0  0  0
   15.8130   22.1086   19.5192 C   0  0  0  0  0  0  0  0  0  0  0  0
   15.4907   20.9240   20.1467 C   0  0  0  0  0  0  0  0  0  0  0  0
   14.1727   20.6389   20.4678 C   0  0  0  0  0  0  0  0  0  0  0  0
   13.7943   19.4300   21.1125 N   0  0  0  0  0  0  0  0  0  0  0  0
   16.6362   20.2689   20.3110 N   0  0  0  0  0  0  0  0  0  0  0  0
   17.6463   21.0248   19.7992 C   0  0  0  0  0  0  0  0  0  0  0  0
   17.1571   22.1729   19.3018 N   0  0  0  0  0  0  0  0  0  0  0  0
   17.8706   23.2714   18.6591 C   0  0  1  0  0  0  0  0  0  0  0  0
   18.3064   24.2906   19.6778 C   0  0  2  0  0  0  0  0  0  0  0  0
   18.1658   25.5778   19.1577 O   0  0  0  0  0  0  0  0  0  0  0  0
   19.7871   23.9909   19.7904 C   0  0  2  0  0  0  0  0  0  0  0  0
   20.5590   25.0731   20.1295 O   0  0  0  0  0  0  0  0  0  0  0  0
   20.0427   23.6220   18.3194 C   0  0  2  0  0  0  0  0  0  0  0  0
   18.9773   22.7926   17.9975 O   0  0  0  0  0  0  0  0  0  0  0  0
   21.3884   23.0291   18.0992 C   0  0  0  0  0  0  0  0  0  0  0  0
   21.4853   21.7098   18.4629 O   0  0  0  0  0  0  0  0  0  0  0  0
   20.4692   27.5689   21.0357 O   0  0  0  0  0  0  0  0  0  0  0  0
   19.6341   26.3897   20.6544 P   0  0  2  0  0  5  0  0  0  0  0  0
   18.7236   25.8803   21.9890 O   0  0  0  0  0  0  0  0  0  0  0  0
   18.6257   26.8474   19.3702 O   0  0  0  0  0  0  0  0  0  0  0  0
   21.4721   20.6390   17.1558 P   0  0  2  0  0  5  0  0  0  0  0  0
   19.9765   20.7874   16.3805 O   0  0  0  0  0  0  0  0  0  0  0  0
   21.6658   19.2441   17.6686 O   0  0  0  0  0  0  0  0  0  0  0  0
   22.6727   21.1019   16.0617 O   0  0  0  0  0  0  0  0  0  0  0  0
   23.8333   19.9346   15.7918 P   0  0  2  0  0  5  0  0  0  0  0  0
   25.1152   20.4751   15.2143 O   0  0  0  0  0  0  0  0  0  0  0  0
   23.1849   18.8313   14.6565 O   0  0  0  0  0  0  0  0  0  0  0  0
   24.1416   19.0169   17.1904 O   0  0  0  0  0  0  0  0  0  0  0  0
   25.1729   18.1233   16.9803 C   0  0  0  0  0  0  0  0  0  0  0  0
   26.3718   18.3883   17.8282 C   0  0  2  0  0  0  0  0  0  0  0  0
   26.8377   17.2345   18.6471 C   0  0  0  0  0  0  0  0  0  0  0  0
   26.1161   19.5581   18.7740 C   0  0  0  0  0  0  0  0  0  0  0  0
   27.5069   18.7876   16.8814 C   0  0  1  0  0  0  0  0  0  0  0  0
   28.0514   19.9645   17.4014 O   0  0  0  0  0  0  0  0  0  0  0  0
   28.5522   17.7481   16.8425 C   0  0  0  0  0  0  0  0  0  0  0  0
   29.3523   17.6452   15.8612 O   0  0  0  0  0  0  0  0  0  0  0  0
   28.6792   16.8344   17.9186 N   0  0  0  0  0  0  0  0  0  0  0  0
   29.7883   15.8941   18.0311 C   0  0  0  0  0  0  0  0  0  0  0  0
   29.8652   15.1195   16.7451 C   0  0  0  0  0  0  0  0  0  0  0  0
   30.8767   14.0462   16.8915 C   0  0  0  0  0  0  0  0  0  0  0  0
   31.2936   13.7462   18.0164 O   0  0  0  0  0  0  0  0  0  0  0  0
   31.3303   13.3970   15.7046 N   0  0  0  0  0  0  0  0  0  0  0  0
   32.5916   12.7281   15.6557 C   0  0  0  0  0  0  0  0  0  0  0  0
   32.8776   12.1568   14.2806 C   0  0  0  0  0  0  0  0  0  0  0  0
   34.2764   12.1261   13.9809 N   0  0  0  0  0  0  0  0  0  0  0  0
   34.7415   12.3823   12.6466 C   0  0  0  0  0  0  0  0  0  0  0  0
   35.7431   13.1043   12.4380 O   0  0  0  0  0  0  0  0  0  0  0  0
   34.0335   11.7892   11.4897 C   0  0  2  0  0  0  0  0  0  0  0  0
   35.1042   11.6300   10.3989 C   0  0  0  0  0  0  0  0  0  0  0  0
   33.0242   12.7221   11.0398 N   0  0  0  0  0  4  0  0  0  0  0  0
   32.9450   13.0438    9.7046 O   0  0  0  0  0  1  0  0  0  0  0  0
   32.2037   13.2644   11.8060 O   0  0  0  0  0  0  0  0  0  0  0  0
  1  2  2  0
  1  6  1  0
  2  3  1  0
  3  4  2  0
  4  5  1  0
  4 10  1  0
  5  6  2  0
  5  8  1  0
  6  7  1  0
  8  9  2  0
  9 10  1  0
 11 10  1  1
 11 12  1  0
 11 17  1  0
 12 13  1  6
 12 14  1  0
 14 15  1  6
 14 16  1  0
 15 21  1  0
 16 17  1  0
 16 18  1  1
 18 19  1  0
 19 24  1  0
 21 20  2  0
 21 22  1  1
 21 23  1  0
 24 25  1  6
 24 26  2  0
 24 27  1  0
 27 28  1  0
 28 29  2  0
 28 30  1  6
 28 31  1  0
 31 32  1  0
 32 33  1  0
 33 34  1  1
 33 35  1  0
 33 36  1  0
 36 37  1  1
 36 38  1  0
 38 39  2  0
 38 40  1  0
 40 41  1  0
 41 42  1  0
 42 43  1  0
 43 44  2  0
 43 45  1  0
 45 46  1  0
 46 47  1  0
 47 48  1  0
 48 49  1  0
 49 50  2  0
 49 51  1  0
 51 52  1  6
 51 53  1  0
 53 54  1  0
 53 55  2  0
M  CHG  2  53   1  54  -1
M  END
$$$$
