
     RDKit          3D

 55 57  0  0  0  0  0  0  0  0999 V2000
   27.0322   22.1848   16.8174 N   0  0  0  0  0  0  0  0  0  0  0  0
   27.0347   23.5090   17.0858 C   0  0  0  0  0  0  0  0  0  0  0  0
   25.9887   24.1176   17.6777 N   0  0  0  0  0  0  0  0  0  0  0  0
   24.9225   23.3699   18.0026 C   0  0  0  0  0  0  0  0  0  0  0  0
   24.8993   22.0170   17.7377 C   0  0  0  0  0  0  0  0  0  0  0  0
   25.9837   21.4052   17.1283 C   0  0  0  0  0  0  0  0  0  0  0  0
   26.0044   20.0138   16.8383 N   0  0  0  0  0  0  0  0  0  0  0  0
   23.7239   21.5747   18.1746 N   0  0  0  0  0  0  0  0  0  0  0  0
   23.0322   22.6239   18.6984 C   0  0  0  0  0  0  0  0  0  0  0  0
   23.7587   23.7498   18.6019 N   0  0  0  0  0  0  0  0  0  0  0  0
   23.4173   25.1012   19.0334 C   0  0  1  0  0  0  0  0  0  0  0  0
   23.2779   26.0187   17.8480 C   0  0  2  0  0  0  0  0  0  0  0  0
   23.8050   27.2748   18.1503 O   0  0  0  0  0  0  0  0  0  0  0  0
   21.7725   26.1551   17.7472 C   0  0  2  0  0  0  0  0  0  0  0  0
   21.3470   27.3446   17.2123 O   0  0  0  0  0  0  0  0  0  0  0  0
   21.4546   26.1290   19.2517 C   0  0  2  0  0  0  0  0  0  0  0  0
   22.2347   25.0879   19.7356 O   0  0  0  0  0  0  0  0  0  0  0  0
   19.9995   26.0054   19.5314 C   0  0  0  0  0  0  0  0  0  0  0  0
   19.6780   24.9772   20.3811 O   0  0  0  0  0  0  0  0  0  0  0  0
   22.5219   26.6778   14.9247 O   0  0  0  0  0  0  0  0  0  0  0  0
   21.3100   27.3178   15.5204 P   0  0  2  0  0  5  0  0  0  0  0  0
   21.1880   28.9194   14.9823 O   0  0  0  0  0  0  0  0  0  0  0  0
   19.9515   26.4157   15.0555 O   0  0  0  0  0  0  0  0  0  0  0  0
   18.5875   23.8656   19.7252 P   0  0  2  0  0  5  0  0  0  0  0  0
   17.0246   24.3890   20.1039 O   0  0  0  0  0  0  0  0  0  0  0  0
   18.8522   22.5160   20.3209 O   0  0  0  0  0  0  0  0  0  0  0  0
   18.7457   23.8763   18.0435 O   0  0  0  0  0  0  0  0  0  0  0  0
   18.1655   22.5018   17.2974 P   0  0  2  0  0  5  0  0  0  0  0  0
   17.6989   22.7297   15.8834 O   0  0  0  0  0  0  0  0  0  0  0  0
   16.8156   21.9678   18.2027 O   0  0  0  0  0  0  0  0  0  0  0  0
   19.2888   21.2264   17.3637 O   0  0  0  0  0  0  0  0  0  0  0  0
   18.6621   20.0267   17.6361 C   0  0  0  0  0  0  0  0  0  0  0  0
   19.5996   18.8679   17.7055 C   0  0  2  0  0  0  0  0  0  0  0  0
   20.7283   18.9055   16.7340 C   0  0  0  0  0  0  0  0  0  0  0  0
   18.8506   17.5546   17.4993 C   0  0  0  0  0  0  0  0  0  0  0  0
   20.1895   18.8569   19.1184 C   0  0  1  0  0  0  0  0  0  0  0  0
   19.5504   17.8172   19.7987 O   0  0  0  0  0  0  0  0  0  0  0  0
   21.6396   18.5910   19.0830 C   0  0  0  0  0  0  0  0  0  0  0  0
   22.4772   19.5049   18.8053 O   0  0  0  0  0  0  0  0  0  0  0  0
   22.1255   17.2893   19.3629 N   0  0  0  0  0  0  0  0  0  0  0  0
   22.9879   16.5529   18.4460 C   0  0  0  0  0  0  0  0  0  0  0  0
   24.4009   17.0105   18.6779 C   0  0  0  0  0  0  0  0  0  0  0  0
   25.3140   16.1851   17.8524 C   0  0  0  0  0  0  0  0  0  0  0  0
   25.2269   14.9521   17.8886 O   0  0  0  0  0  0  0  0  0  0  0  0
   26.2686   16.8653   17.0388 N   0  0  0  0  0  0  0  0  0  0  0  0
   27.3098   16.1593   16.3619 C   0  0  0  0  0  0  0  0  0  0  0  0
   27.2894   14.6769   16.6798 C   0  0  0  0  0  0  0  0  0  0  0  0
   28.5462   14.0442   16.4204 N   0  0  0  0  0  0  0  0  0  0  0  0
   29.7522   14.8207   16.3505 C   0  0  0  0  0  0  0  0  0  0  0  0
   30.2346   15.3602   17.3723 O   0  0  0  0  0  0  0  0  0  0  0  0
   30.4463   14.9941   15.0544 C   0  0  2  0  0  0  0  0  0  0  0  0
   30.2784   13.6529   14.3233 C   0  0  0  0  0  0  0  0  0  0  0  0
   31.8499   15.2288   15.3115 N   0  0  0  0  0  4  0  0  0  0  0  0
   32.2857   15.3820   16.6074 O   0  0  0  0  0  1  0  0  0  0  0  0
   32.7076   15.3024   14.4098 O   0  0  0  0  0  0  0  0  0  0  0  0
  1  2  2  0
  1  6  1  0
  2  3  1  0
  3  4  2  0
  4  5  1  0
  4 10  1  0
  5  6  2  0
  5  8  1  0
  6  7  1  0
  8  9  2  0
  9 10  1  0
 11 10  1  6
 11 12  1  0
 11 17  1  0
 12 13  1  1
 12 14  1  0
 14 15  1  1
 14 16  1  0
 15 21  1  0
 16 17  1  0
 16 18  1  6
 18 19  1  0
 19 24  1  0
 21 20  2  0
 21 22  1  6
 21 23  1  0
 24 25  1  6
 24 26  2  0
 24 27  1  0
 27 28  1  0
 28 29  2  0
 28 30  1  1
 28 31  1  0
 31 32  1  0
 32 33  1  0
 33 34  1  6
 33 35  1  0
 33 36  1  0
 36 37  1  1
 36 38  1  0
 38 39  2  0
 38 40  1  0
 40 41  1  0
 41 42  1  0
 42 43  1  0
 43 44  2  0
 43 45  1  0
 45 46  1  0
 46 47  1  0
 47 48  1  0
 48 49  1  0
 49 50  2  0
 49 51  1  0
 51 52  1  6
 51 53  1  0
 53 54  1  0
 53 55  2  0
M  CHG  2  53   1  54  -1
M  END
$$$$
