
     RDKit          3D

 55 57  0  0  0  0  0  0  0  0999 V2000
   22.7244  -29.4583   31.7785 N   0  0  0  0  0  0  0  0  0  0  0  0
   23.2065  -28.9118   32.9162 C   0  0  0  0  0  0  0  0  0  0  0  0
   24.4483  -29.1799   33.3644 N   0  0  0  0  0  0  0  0  0  0  0  0
   25.2134  -30.0166   32.6461 C   0  0  0  0  0  0  0  0  0  0  0  0
   24.7410  -30.5852   31.4823 C   0  0  0  0  0  0  0  0  0  0  0  0
   23.4609  -30.2992   31.0339 C   0  0  0  0  0  0  0  0  0  0  0  0
   22.9333  -30.8604   29.8393 N   0  0  0  0  0  0  0  0  0  0  0  0
   25.7250  -31.3497   31.0182 N   0  0  0  0  0  0  0  0  0  0  0  0
   26.7834  -31.2602   31.8699 C   0  0  0  0  0  0  0  0  0  0  0  0
   26.4872  -30.4366   32.8892 N   0  0  0  0  0  0  0  0  0  0  0  0
   27.3171  -30.0472   34.0244 C   0  0  1  0  0  0  0  0  0  0  0  0
   27.1691  -31.0316   35.1537 C   0  0  2  0  0  0  0  0  0  0  0  0
   27.1667  -30.3601   36.3769 O   0  0  0  0  0  0  0  0  0  0  0  0
   28.4657  -31.8082   35.0491 C   0  0  2  0  0  0  0  0  0  0  0  0
   28.9137  -32.3236   36.2389 O   0  0  0  0  0  0  0  0  0  0  0  0
   29.3768  -30.6457   34.6207 C   0  0  2  0  0  0  0  0  0  0  0  0
   28.6381  -29.9897   33.6457 O   0  0  0  0  0  0  0  0  0  0  0  0
   30.7249  -31.0993   34.1875 C   0  0  0  0  0  0  0  0  0  0  0  0
   30.8063  -31.4217   32.8564 O   0  0  0  0  0  0  0  0  0  0  0  0
   26.7463  -31.9295   37.7238 O   0  0  0  0  0  0  0  0  0  0  0  0
   28.1925  -31.5824   37.5787 P   0  0  2  0  0  5  0  0  0  0  0  0
   28.3611  -29.9070   37.3935 O   0  0  0  0  0  0  0  0  0  0  0  0
   29.0094  -32.1258   38.9617 O   0  0  0  0  0  0  0  0  0  0  0  0
   30.9276  -33.0813   32.5626 P   0  0  2  0  0  5  0  0  0  0  0  0
   30.4362  -33.3617   30.9688 O   0  0  0  0  0  0  0  0  0  0  0  0
   30.0411  -33.8112   33.5256 O   0  0  0  0  0  0  0  0  0  0  0  0
   32.5480  -33.5397   32.6949 O   0  0  0  0  0  0  0  0  0  0  0  0
   33.5451  -32.8510   31.5487 P   0  0  2  0  0  5  0  0  0  0  0  0
   33.2237  -33.2655   30.1367 O   0  0  0  0  0  0  0  0  0  0  0  0
   35.1386  -33.3741   31.8863 O   0  0  0  0  0  0  0  0  0  0  0  0
   33.5861  -31.1561   31.6852 O   0  0  0  0  0  0  0  0  0  0  0  0
   34.6103  -30.7498   32.5172 C   0  0  0  0  0  0  0  0  0  0  0  0
   34.5053  -29.3216   32.9365 C   0  0  2  0  0  0  0  0  0  0  0  0
   35.2587  -28.9656   34.1712 C   0  0  0  0  0  0  0  0  0  0  0  0
   33.0467  -28.9278   33.1505 C   0  0  0  0  0  0  0  0  0  0  0  0
   35.0568  -28.4779   31.7840 C   0  0  1  0  0  0  0  0  0  0  0  0
   34.8366  -27.1444   32.1380 O   0  0  0  0  0  0  0  0  0  0  0  0
   36.5047  -28.6992   31.6135 C   0  0  0  0  0  0  0  0  0  0  0  0
   37.0641  -29.7722   32.0002 O   0  0  0  0  0  0  0  0  0  0  0  0
   37.3047  -27.6994   31.0057 N   0  0  0  0  0  0  0  0  0  0  0  0
   38.5272  -27.1867   31.6136 C   0  0  0  0  0  0  0  0  0  0  0  0
   38.4921  -25.6868   31.5195 C   0  0  0  0  0  0  0  0  0  0  0  0
   39.8684  -25.1886   31.2869 C   0  0  0  0  0  0  0  0  0  0  0  0
   40.8297  -25.7911   31.7791 O   0  0  0  0  0  0  0  0  0  0  0  0
   40.0223  -24.0147   30.4906 N   0  0  0  0  0  0  0  0  0  0  0  0
   41.3003  -23.4064   30.2977 C   0  0  0  0  0  0  0  0  0  0  0  0
   42.1058  -24.1080   29.2216 C   0  0  0  0  0  0  0  0  0  0  0  0
   42.8940  -23.1987   28.4475 N   0  0  0  0  0  0  0  0  0  0  0  0
   42.7055  -21.7808   28.5742 C   0  0  0  0  0  0  0  0  0  0  0  0
   41.5847  -21.2999   28.8583 O   0  0  0  0  0  0  0  0  0  0  0  0
   43.8471  -20.8612   28.3677 C   0  0  2  0  0  0  0  0  0  0  0  0
   43.6449  -19.7301   29.3882 C   0  0  0  0  0  0  0  0  0  0  0  0
   43.7665  -20.3205   27.0288 N   0  0  0  0  0  4  0  0  0  0  0  0
   43.9198  -18.9674   26.8334 O   0  0  0  0  0  1  0  0  0  0  0  0
   43.5617  -21.0223   26.0189 O   0  0  0  0  0  0  0  0  0  0  0  0
  1  2  2  0
  1  6  1  0
  2  3  1  0
  3  4  2  0
  4  5  1  0
  4 10  1  0
  5  6  2  0
  5  8  1  0
  6  7  1  0
  8  9  2  0
  9 10  1  0
 11 10  1  6
 11 12  1  0
 11 17  1  0
 12 13  1  1
 12 14  1  0
 14 15  1  1
 14 16  1  0
 15 21  1  0
 16 17  1  0
 16 18  1  6
 18 19  1  0
 19 24  1  0
 21 20  2  0
 21 22  1  6
 21 23  1  0
 24 25  1  6
 24 26  2  0
 24 27  1  0
 27 28  1  0
 28 29  2  0
 28 30  1  1
 28 31  1  0
 31 32  1  0
 32 33  1  0
 33 34  1  1
 33 35  1  0
 33 36  1  0
 36 37  1  1
 36 38  1  0
 38 39  2  0
 38 40  1  0
 40 41  1  0
 41 42  1  0
 42 43  1  0
 43 44  2  0
 43 45  1  0
 45 46  1  0
 46 47  1  0
 47 48  1  0
 48 49  1  0
 49 50  2  0
 49 51  1  0
 51 52  1  1
 51 53  1  0
 53 54  1  0
 53 55  2  0
M  CHG  2  53   1  54  -1
M  END
$$$$
