
     RDKit          3D

 55 57  0  0  0  0  0  0  0  0999 V2000
   42.0861  -22.9969   27.6740 N   0  0  0  0  0  0  0  0  0  0  0  0
   42.2727  -23.0889   29.0091 C   0  0  0  0  0  0  0  0  0  0  0  0
   41.3425  -23.6249   29.8228 N   0  0  0  0  0  0  0  0  0  0  0  0
   40.2040  -24.0749   29.2726 C   0  0  0  0  0  0  0  0  0  0  0  0
   39.9933  -23.9907   27.9127 C   0  0  0  0  0  0  0  0  0  0  0  0
   40.9603  -23.4367   27.0884 C   0  0  0  0  0  0  0  0  0  0  0  0
   40.7870  -23.3313   25.6815 N   0  0  0  0  0  0  0  0  0  0  0  0
   38.7913  -24.5146   27.6914 N   0  0  0  0  0  0  0  0  0  0  0  0
   38.2662  -24.9153   28.8819 C   0  0  0  0  0  0  0  0  0  0  0  0
   39.1277  -24.6515   29.8785 N   0  0  0  0  0  0  0  0  0  0  0  0
   38.9846  -24.9114   31.3071 C   0  0  1  0  0  0  0  0  0  0  0  0
   37.8969  -24.0541   31.8972 C   0  0  2  0  0  0  0  0  0  0  0  0
   38.2700  -23.6147   33.1680 O   0  0  0  0  0  0  0  0  0  0  0  0
   36.7753  -25.0592   32.0604 C   0  0  2  0  0  0  0  0  0  0  0  0
   35.9120  -24.7811   33.0898 O   0  0  0  0  0  0  0  0  0  0  0  0
   37.6347  -26.2798   32.4302 C   0  0  2  0  0  0  0  0  0  0  0  0
   38.6798  -26.2360   31.5179 O   0  0  0  0  0  0  0  0  0  0  0  0
   36.8604  -27.5492   32.4371 C   0  0  0  0  0  0  0  0  0  0  0  0
   35.9097  -27.6305   31.4513 O   0  0  0  0  0  0  0  0  0  0  0  0
   36.5215  -23.0661   35.0250 O   0  0  0  0  0  0  0  0  0  0  0  0
   36.0292  -23.1776   33.6185 P   0  0  2  0  0  5  0  0  0  0  0  0
   34.4901  -22.4809   33.4959 O   0  0  0  0  0  0  0  0  0  0  0  0
   37.1360  -22.3876   32.6054 O   0  0  0  0  0  0  0  0  0  0  0  0
   35.7669  -29.1684   30.7661 P   0  0  2  0  0  5  0  0  0  0  0  0
   36.9798  -29.3293   29.5986 O   0  0  0  0  0  0  0  0  0  0  0  0
   34.4109  -29.2979   30.1412 O   0  0  0  0  0  0  0  0  0  0  0  0
   36.0433  -30.3255   31.9652 O   0  0  0  0  0  0  0  0  0  0  0  0
   34.6545  -30.8978   32.6907 P   0  0  2  0  0  5  0  0  0  0  0  0
   34.7806  -31.0853   34.1799 O   0  0  0  0  0  0  0  0  0  0  0  0
   34.3230  -32.4307   32.0073 O   0  0  0  0  0  0  0  0  0  0  0  0
   33.3043  -29.9333   32.3164 O   0  0  0  0  0  0  0  0  0  0  0  0
   32.4835  -29.7805   33.4160 C   0  0  0  0  0  0  0  0  0  0  0  0
   31.3861  -30.7894   33.4841 C   0  0  2  0  0  0  0  0  0  0  0  0
   31.3687  -31.7840   32.3754 C   0  0  0  0  0  0  0  0  0  0  0  0
   30.0235  -30.1034   33.5165 C   0  0  0  0  0  0  0  0  0  0  0  0
   31.5621  -31.5497   34.8014 C   0  0  1  0  0  0  0  0  0  0  0  0
   31.4123  -30.6044   35.8193 O   0  0  0  0  0  0  0  0  0  0  0  0
   30.5278  -32.5899   34.9528 C   0  0  0  0  0  0  0  0  0  0  0  0
   30.7371  -33.6427   35.6322 O   0  0  0  0  0  0  0  0  0  0  0  0
   29.2650  -32.4254   34.3305 N   0  0  0  0  0  0  0  0  0  0  0  0
   28.2392  -33.4619   34.3365 C   0  0  0  0  0  0  0  0  0  0  0  0
   26.9102  -32.7908   34.5437 C   0  0  0  0  0  0  0  0  0  0  0  0
   26.0566  -33.0409   33.3581 C   0  0  0  0  0  0  0  0  0  0  0  0
   24.9584  -33.5916   33.4987 O   0  0  0  0  0  0  0  0  0  0  0  0
   26.5520  -32.6261   32.0860 N   0  0  0  0  0  0  0  0  0  0  0  0
   25.7988  -32.8305   30.8894 C   0  0  0  0  0  0  0  0  0  0  0  0
   26.2287  -34.0862   30.1564 C   0  0  0  0  0  0  0  0  0  0  0  0
   27.4861  -34.5874   30.6203 N   0  0  0  0  0  0  0  0  0  0  0  0
   28.6231  -34.6266   29.7441 C   0  0  0  0  0  0  0  0  0  0  0  0
   28.5637  -34.1551   28.5856 O   0  0  0  0  0  0  0  0  0  0  0  0
   29.8925  -35.2322   30.2059 C   0  0  2  0  0  0  0  0  0  0  0  0
   29.9959  -36.5720   29.4603 C   0  0  0  0  0  0  0  0  0  0  0  0
   29.7944  -35.4796   31.6273 N   0  0  0  0  0  4  0  0  0  0  0  0
   30.6267  -34.8070   32.4919 O   0  0  0  0  0  1  0  0  0  0  0  0
   28.9832  -36.2835   32.1274 O   0  0  0  0  0  0  0  0  0  0  0  0
  1  2  2  0
  1  6  1  0
  2  3  1  0
  3  4  2  0
  4  5  1  0
  4 10  1  0
  5  6  2  0
  5  8  1  0
  6  7  1  0
  8  9  2  0
  9 10  1  0
 11 10  1  6
 11 12  1  0
 11 17  1  0
 12 13  1  1
 12 14  1  0
 14 15  1  1
 14 16  1  0
 15 21  1  0
 16 17  1  0
 16 18  1  6
 18 19  1  0
 19 24  1  0
 21 20  2  0
 21 22  1  1
 21 23  1  0
 24 25  1  6
 24 26  2  0
 24 27  1  0
 27 28  1  0
 28 29  2  0
 28 30  1  6
 28 31  1  0
 31 32  1  0
 32 33  1  0
 33 34  1  6
 33 35  1  0
 33 36  1  0
 36 37  1  1
 36 38  1  0
 38 39  2  0
 38 40  1  0
 40 41  1  0
 41 42  1  0
 42 43  1  0
 43 44  2  0
 43 45  1  0
 45 46  1  0
 46 47  1  0
 47 48  1  0
 48 49  1  0
 49 50  2  0
 49 51  1  0
 51 52  1  6
 51 53  1  0
 53 54  1  0
 53 55  2  0
M  CHG  2  53   1  54  -1
M  END
$$$$
