
     RDKit          3D

 21 23  0  0  0  0  0  0  0  0999 V2000
   24.4691   57.6710   84.7385 O   0  0  0  0  0  0  0  0  0  0  0  0
   22.8237   56.7054   87.3507 C   0  0  2  0  0  0  0  0  0  0  0  0
   19.5157   55.7146   87.3733 O   0  0  0  0  0  0  0  0  0  0  0  0
   22.4775   57.4091   86.0224 C   0  0  2  0  0  0  0  0  0  0  0  0
   27.4012   54.1466   82.4438 C   0  0  0  0  0  0  0  0  0  0  0  0
   23.0764   56.0237   83.9650 N   0  0  0  0  0  0  0  0  0  0  0  0
   23.3870   57.0533   84.8934 C   0  0  0  0  0  0  0  0  0  0  0  0
   23.9473   55.6265   82.8949 C   0  0  0  0  0  0  0  0  0  0  0  0
   25.2971   55.1651   83.3699 C   0  0  0  0  0  0  0  0  0  0  0  0
   25.8996   54.1049   82.5092 C   0  0  0  0  0  0  0  0  0  0  0  0
   21.6746   56.1414   88.1616 C   0  0  1  0  0  0  0  0  0  0  0  0
   22.2130   55.2881   89.1748 N   0  0  0  0  0  0  0  0  0  0  0  0
   21.6300   54.9893   90.4328 C   0  0  0  0  0  0  0  0  0  0  0  0
   21.7812   53.8714   91.0491 N   0  0  0  0  0  0  0  0  0  0  0  0
   20.6243   56.3142   91.1523 S   0  0  0  0  0  0  0  0  0  0  0  0
   20.9523   57.7138   90.0050 C   0  0  0  0  0  0  0  0  0  0  0  0
   20.7014   57.1587   88.6265 C   0  0  2  0  0  0  0  0  0  0  0  0
   19.3852   56.3982   88.5571 C   0  0  0  0  0  0  0  0  0  0  0  0
   20.7977   55.2460   87.2720 C   0  0  0  0  0  0  0  0  0  0  0  0
   23.0218   58.1543   87.1939 C   0  0  0  0  0  0  0  0  0  0  0  0
   20.9689   53.2350   91.0837 H   0  0  0  0  0  0  0  0  0  0  0  0
  7  1  2  0
  2  4  1  0
 11  2  1  0
  2 20  1  1
  3 18  1  0
 19  3  1  0
  4  7  1  6
 20  4  1  0
 10  5  1  0
  7  6  1  0
  6  8  1  0
  8  9  1  0
  9 10  1  0
 11 12  1  0
 11 17  1  0
 11 19  1  6
 12 13  1  0
 13 14  2  0
 13 15  1  0
 15 16  1  0
 17 16  1  1
 17 18  1  0
 14 21  1  0
M  END
$$$$
