
     RDKit          3D

 21 23  0  0  0  0  0  0  0  0999 V2000
   24.3727   57.8364   85.5861 O   0  0  0  0  0  0  0  0  0  0  0  0
   22.6909   55.1917   86.5860 C   0  0  2  0  0  0  0  0  0  0  0  0
   19.3220   55.6065   87.2212 O   0  0  0  0  0  0  0  0  0  0  0  0
   24.0428   55.8689   86.8914 C   0  0  2  0  0  0  0  0  0  0  0  0
   29.6343   58.0665   86.0187 C   0  0  0  0  0  0  0  0  0  0  0  0
   25.4607   55.9905   84.7735 N   0  0  0  0  0  0  0  0  0  0  0  0
   24.6217   56.6147   85.7350 C   0  0  0  0  0  0  0  0  0  0  0  0
   26.8262   55.6253   85.0249 C   0  0  0  0  0  0  0  0  0  0  0  0
   27.7798   56.7818   84.9083 C   0  0  0  0  0  0  0  0  0  0  0  0
   28.5107   57.0795   86.1751 C   0  0  0  0  0  0  0  0  0  0  0  0
   21.6026   55.3024   87.6346 C   0  0  1  0  0  0  0  0  0  0  0  0
   21.9935   54.5324   88.7742 N   0  0  0  0  0  0  0  0  0  0  0  0
   21.6055   54.7498   90.1210 C   0  0  0  0  0  0  0  0  0  0  0  0
   21.4699   53.8136   90.9913 N   0  0  0  0  0  0  0  0  0  0  0  0
   21.2999   56.4796   90.5671 S   0  0  0  0  0  0  0  0  0  0  0  0
   21.8675   57.3720   89.0624 C   0  0  0  0  0  0  0  0  0  0  0  0
   21.1669   56.6917   87.9146 C   0  0  2  0  0  0  0  0  0  0  0  0
   19.6809   56.5122   88.1890 C   0  0  0  0  0  0  0  0  0  0  0  0
   20.3068   54.6623   87.1118 C   0  0  0  0  0  0  0  0  0  0  0  0
   23.9012   54.3865   86.8095 C   0  0  0  0  0  0  0  0  0  0  0  0
   22.0149   53.8948   91.8645 H   0  0  0  0  0  0  0  0  0  0  0  0
  7  1  2  0
  2  4  1  0
 11  2  1  0
  2 20  1  1
  3 18  1  0
 19  3  1  0
  4  7  1  6
 20  4  1  0
 10  5  1  0
  7  6  1  0
  6  8  1  0
  8  9  1  0
  9 10  1  0
 11 12  1  0
 11 17  1  0
 11 19  1  6
 12 13  1  0
 13 14  2  0
 13 15  1  0
 15 16  1  0
 17 16  1  1
 17 18  1  0
 14 21  1  0
M  END
$$$$
