
     RDKit          3D

 21 23  0  0  0  0  0  0  0  0999 V2000
   24.7465   57.0295   84.9907 O   0  0  0  0  0  0  0  0  0  0  0  0
   22.2994   56.2764   86.2809 C   0  0  2  0  0  0  0  0  0  0  0  0
   19.0850   55.7114   87.4094 O   0  0  0  0  0  0  0  0  0  0  0  0
   23.4486   55.2921   85.9810 C   0  0  2  0  0  0  0  0  0  0  0  0
   30.6228   55.2560   86.9485 C   0  0  0  0  0  0  0  0  0  0  0  0
   25.9967   55.4160   86.0325 N   0  0  0  0  0  0  0  0  0  0  0  0
   24.7420   55.9561   85.6422 C   0  0  0  0  0  0  0  0  0  0  0  0
   26.8377   56.0010   87.0384 C   0  0  0  0  0  0  0  0  0  0  0  0
   28.2782   56.1029   86.6202 C   0  0  0  0  0  0  0  0  0  0  0  0
   29.1810   55.1792   87.3681 C   0  0  0  0  0  0  0  0  0  0  0  0
   21.4078   55.9675   87.4666 C   0  0  1  0  0  0  0  0  0  0  0  0
   22.1576   55.1925   88.4056 N   0  0  0  0  0  0  0  0  0  0  0  0
   21.9599   55.1328   89.8089 C   0  0  0  0  0  0  0  0  0  0  0  0
   22.2011   54.0938   90.5263 N   0  0  0  0  0  0  0  0  0  0  0  0
   21.3265   56.6531   90.5651 S   0  0  0  0  0  0  0  0  0  0  0  0
   21.4026   57.8417   89.1635 C   0  0  0  0  0  0  0  0  0  0  0  0
   20.7041   57.1483   88.0222 C   0  0  2  0  0  0  0  0  0  0  0  0
   19.3724   56.5530   88.4557 C   0  0  0  0  0  0  0  0  0  0  0  0
   20.2353   55.0795   87.0210 C   0  0  0  0  0  0  0  0  0  0  0  0
   22.2826   55.4498   85.0646 C   0  0  0  0  0  0  0  0  0  0  0  0
   22.7480   53.3336   90.0916 H   0  0  0  0  0  0  0  0  0  0  0  0
  7  1  2  0
  2  4  1  0
 11  2  1  0
  2 20  1  6
  3 18  1  0
 19  3  1  0
  4  7  1  6
 20  4  1  0
 10  5  1  0
  7  6  1  0
  6  8  1  0
  8  9  1  0
  9 10  1  0
 11 12  1  0
 11 17  1  0
 11 19  1  6
 12 13  1  0
 13 14  2  0
 13 15  1  0
 15 16  1  0
 17 16  1  1
 17 18  1  0
 14 21  1  0
M  END
$$$$
