
     RDKit          3D

 21 23  0  0  0  0  0  0  0  0999 V2000
   25.5261   56.6461   84.8481 O   0  0  0  0  0  0  0  0  0  0  0  0
   22.7309   56.3350   86.4780 C   0  0  2  0  0  0  0  0  0  0  0  0
   19.5142   55.3780   87.2916 O   0  0  0  0  0  0  0  0  0  0  0  0
   23.9450   55.4378   86.1610 C   0  0  2  0  0  0  0  0  0  0  0  0
   30.8921   55.6987   86.1622 C   0  0  0  0  0  0  0  0  0  0  0  0
   26.1290   56.4156   87.0469 N   0  0  0  0  0  0  0  0  0  0  0  0
   25.2218   56.1891   85.9773 C   0  0  0  0  0  0  0  0  0  0  0  0
   27.3920   55.7451   87.1759 C   0  0  0  0  0  0  0  0  0  0  0  0
   28.4527   56.2994   86.2660 C   0  0  0  0  0  0  0  0  0  0  0  0
   29.4762   55.2907   85.8626 C   0  0  0  0  0  0  0  0  0  0  0  0
   21.7834   55.8685   87.5646 C   0  0  1  0  0  0  0  0  0  0  0  0
   22.5325   55.1224   88.5273 N   0  0  0  0  0  0  0  0  0  0  0  0
   22.2278   54.9623   89.9032 C   0  0  0  0  0  0  0  0  0  0  0  0
   22.5197   53.9144   90.5880 N   0  0  0  0  0  0  0  0  0  0  0  0
   21.3746   56.3634   90.6735 S   0  0  0  0  0  0  0  0  0  0  0  0
   21.4372   57.6318   89.3431 C   0  0  0  0  0  0  0  0  0  0  0  0
   20.9135   56.9367   88.1128 C   0  0  2  0  0  0  0  0  0  0  0  0
   19.6225   56.1834   88.3986 C   0  0  0  0  0  0  0  0  0  0  0  0
   20.7537   54.8914   86.9755 C   0  0  0  0  0  0  0  0  0  0  0  0
   22.8324   55.6361   85.1879 C   0  0  0  0  0  0  0  0  0  0  0  0
   22.4110   53.9720   91.6132 H   0  0  0  0  0  0  0  0  0  0  0  0
  7  1  2  0
  2  4  1  0
 11  2  1  0
  2 20  1  6
  3 18  1  0
 19  3  1  0
  4  7  1  6
 20  4  1  0
 10  5  1  0
  7  6  1  0
  6  8  1  0
  8  9  1  0
  9 10  1  0
 11 12  1  0
 11 17  1  0
 11 19  1  6
 12 13  1  0
 13 14  2  0
 13 15  1  0
 15 16  1  0
 17 16  1  1
 17 18  1  0
 14 21  1  0
M  END
$$$$
