
     RDKit          3D

 21 23  0  0  0  0  0  0  0  0999 V2000
   23.3956   57.1647   84.5971 O   0  0  0  0  0  0  0  0  0  0  0  0
   23.1491   55.5984   87.0870 C   0  0  2  0  0  0  0  0  0  0  0  0
   19.7241   55.1575   87.0900 O   0  0  0  0  0  0  0  0  0  0  0  0
   23.7211   57.0248   86.9547 C   0  0  2  0  0  0  0  0  0  0  0  0
   28.4597   54.5020   84.1305 C   0  0  0  0  0  0  0  0  0  0  0  0
   25.4294   57.9516   85.3013 N   0  0  0  0  0  0  0  0  0  0  0  0
   24.1589   57.3760   85.5714 C   0  0  0  0  0  0  0  0  0  0  0  0
   26.6702   57.2415   85.4333 C   0  0  0  0  0  0  0  0  0  0  0  0
   26.5436   55.7701   85.1517 C   0  0  0  0  0  0  0  0  0  0  0  0
   27.2348   55.3430   83.8997 C   0  0  0  0  0  0  0  0  0  0  0  0
   21.8938   55.4244   87.9178 C   0  0  1  0  0  0  0  0  0  0  0  0
   22.2464   54.7634   89.1358 N   0  0  0  0  0  0  0  0  0  0  0  0
   21.5768   54.8636   90.3821 C   0  0  0  0  0  0  0  0  0  0  0  0
   21.5184   53.9138   91.2463 N   0  0  0  0  0  0  0  0  0  0  0  0
   20.7790   56.4586   90.7044 S   0  0  0  0  0  0  0  0  0  0  0  0
   21.3755   57.4798   89.2958 C   0  0  0  0  0  0  0  0  0  0  0  0
   21.0863   56.6591   88.0654 C   0  0  2  0  0  0  0  0  0  0  0  0
   19.6656   56.1136   88.0739 C   0  0  0  0  0  0  0  0  0  0  0  0
   20.9136   54.4884   87.1932 C   0  0  0  0  0  0  0  0  0  0  0  0
   24.4391   55.9504   87.6992 C   0  0  0  0  0  0  0  0  0  0  0  0
   22.0301   54.0471   92.1331 H   0  0  0  0  0  0  0  0  0  0  0  0
  7  1  2  0
  2  4  1  0
 11  2  1  0
  2 20  1  1
  3 18  1  0
 19  3  1  0
  4  7  1  6
 20  4  1  0
 10  5  1  0
  7  6  1  0
  6  8  1  0
  8  9  1  0
  9 10  1  0
 11 12  1  0
 11 17  1  0
 11 19  1  6
 12 13  1  0
 13 14  2  0
 13 15  1  0
 15 16  1  0
 17 16  1  1
 17 18  1  0
 14 21  1  0
M  END
$$$$
