
     RDKit          3D

 21 23  0  0  0  0  0  0  0  0999 V2000
   24.9663   57.1163   85.1937 O   0  0  0  0  0  0  0  0  0  0  0  0
   22.5231   56.4793   86.5595 C   0  0  2  0  0  0  0  0  0  0  0  0
   19.3461   55.8538   87.7598 O   0  0  0  0  0  0  0  0  0  0  0  0
   23.5075   55.4214   86.0200 C   0  0  2  0  0  0  0  0  0  0  0  0
   29.2971   55.0953   88.4600 C   0  0  0  0  0  0  0  0  0  0  0  0
   26.0483   55.2220   85.8955 N   0  0  0  0  0  0  0  0  0  0  0  0
   24.8563   55.9652   85.6829 C   0  0  0  0  0  0  0  0  0  0  0  0
   27.3666   55.7719   85.7502 C   0  0  0  0  0  0  0  0  0  0  0  0
   27.8404   56.5062   86.9735 C   0  0  0  0  0  0  0  0  0  0  0  0
   29.2287   56.1435   87.3840 C   0  0  0  0  0  0  0  0  0  0  0  0
   21.6711   56.0955   87.7525 C   0  0  1  0  0  0  0  0  0  0  0  0
   22.4479   55.2560   88.6107 N   0  0  0  0  0  0  0  0  0  0  0  0
   22.2986   55.1031   90.0129 C   0  0  0  0  0  0  0  0  0  0  0  0
   22.5576   54.0173   90.6502 N   0  0  0  0  0  0  0  0  0  0  0  0
   21.7020   56.5720   90.8908 S   0  0  0  0  0  0  0  0  0  0  0  0
   21.7373   57.8516   89.5701 C   0  0  0  0  0  0  0  0  0  0  0  0
   20.9951   57.2394   88.4102 C   0  0  2  0  0  0  0  0  0  0  0  0
   19.6753   56.6221   88.8494 C   0  0  0  0  0  0  0  0  0  0  0  0
   20.4779   55.2445   87.2898 C   0  0  0  0  0  0  0  0  0  0  0  0
   22.3206   55.8699   85.2364 C   0  0  0  0  0  0  0  0  0  0  0  0
   23.4988   53.9230   91.0641 H   0  0  0  0  0  0  0  0  0  0  0  0
  7  1  2  0
  2  4  1  0
 11  2  1  0
  2 20  1  6
  3 18  1  0
 19  3  1  0
  4  7  1  6
 20  4  1  0
 10  5  1  0
  7  6  1  0
  6  8  1  0
  8  9  1  0
  9 10  1  0
 11 12  1  0
 11 17  1  0
 11 19  1  6
 12 13  1  0
 13 14  2  0
 13 15  1  0
 15 16  1  0
 17 16  1  1
 17 18  1  0
 14 21  1  0
M  END
$$$$
