
     RDKit          3D

 21 23  0  0  0  0  0  0  0  0999 V2000
   24.9572   56.9181   84.8778 O   0  0  0  0  0  0  0  0  0  0  0  0
   22.5656   55.9712   86.3195 C   0  0  2  0  0  0  0  0  0  0  0  0
   19.2311   55.9602   87.2174 O   0  0  0  0  0  0  0  0  0  0  0  0
   24.0295   55.6028   86.6364 C   0  0  2  0  0  0  0  0  0  0  0  0
   30.2426   56.4814   86.4368 C   0  0  0  0  0  0  0  0  0  0  0  0
   26.0836   57.0992   86.8652 N   0  0  0  0  0  0  0  0  0  0  0  0
   25.0296   56.5609   86.0793 C   0  0  0  0  0  0  0  0  0  0  0  0
   27.3616   56.4651   87.0258 C   0  0  0  0  0  0  0  0  0  0  0  0
   27.8994   55.8840   85.7478 C   0  0  0  0  0  0  0  0  0  0  0  0
   29.3236   55.4483   85.8459 C   0  0  0  0  0  0  0  0  0  0  0  0
   21.5549   55.8413   87.4411 C   0  0  1  0  0  0  0  0  0  0  0  0
   22.1015   54.9813   88.4441 N   0  0  0  0  0  0  0  0  0  0  0  0
   21.7990   54.9916   89.8298 C   0  0  0  0  0  0  0  0  0  0  0  0
   21.8178   53.9470   90.5785 N   0  0  0  0  0  0  0  0  0  0  0  0
   21.3691   56.6136   90.5145 S   0  0  0  0  0  0  0  0  0  0  0  0
   21.7348   57.7367   89.1046 C   0  0  0  0  0  0  0  0  0  0  0  0
   21.0148   57.1343   87.9257 C   0  0  2  0  0  0  0  0  0  0  0  0
   19.5772   56.7723   88.2692 C   0  0  0  0  0  0  0  0  0  0  0  0
   20.2881   55.1416   86.9240 C   0  0  0  0  0  0  0  0  0  0  0  0
   23.1939   54.7924   85.7042 C   0  0  0  0  0  0  0  0  0  0  0  0
   21.8880   54.0950   91.5980 H   0  0  0  0  0  0  0  0  0  0  0  0
  7  1  2  0
  2  4  1  0
 11  2  1  0
  2 20  1  6
  3 18  1  0
 19  3  1  0
  4  7  1  6
 20  4  1  0
 10  5  1  0
  7  6  1  0
  6  8  1  0
  8  9  1  0
  9 10  1  0
 11 12  1  0
 11 17  1  0
 11 19  1  6
 12 13  1  0
 13 14  2  0
 13 15  1  0
 15 16  1  0
 17 16  1  1
 17 18  1  0
 14 21  1  0
M  END
$$$$
