
     RDKit          3D

 21 23  0  0  0  0  0  0  0  0999 V2000
   25.2562   57.0663   84.4926 O   0  0  0  0  0  0  0  0  0  0  0  0
   22.5754   56.5273   86.1658 C   0  0  2  0  0  0  0  0  0  0  0  0
   19.4271   55.4091   87.0389 O   0  0  0  0  0  0  0  0  0  0  0  0
   23.8064   55.6807   85.7817 C   0  0  2  0  0  0  0  0  0  0  0  0
   29.8748   54.3922   88.3212 C   0  0  0  0  0  0  0  0  0  0  0  0
   26.0405   56.6061   86.5960 N   0  0  0  0  0  0  0  0  0  0  0  0
   25.0523   56.4786   85.5833 C   0  0  0  0  0  0  0  0  0  0  0  0
   27.4514   56.6423   86.3325 C   0  0  0  0  0  0  0  0  0  0  0  0
   28.1681   55.3956   86.7711 C   0  0  0  0  0  0  0  0  0  0  0  0
   29.1570   55.6318   87.8638 C   0  0  0  0  0  0  0  0  0  0  0  0
   21.6785   55.9956   87.2654 C   0  0  1  0  0  0  0  0  0  0  0  0
   22.4852   55.2638   88.1918 N   0  0  0  0  0  0  0  0  0  0  0  0
   22.2242   55.0610   89.5711 C   0  0  0  0  0  0  0  0  0  0  0  0
   22.5803   54.0130   90.2247 N   0  0  0  0  0  0  0  0  0  0  0  0
   21.3299   56.4055   90.3939 S   0  0  0  0  0  0  0  0  0  0  0  0
   21.3009   57.7034   89.0910 C   0  0  0  0  0  0  0  0  0  0  0  0
   20.7766   57.0116   87.8591 C   0  0  2  0  0  0  0  0  0  0  0  0
   19.5284   56.1949   88.1605 C   0  0  0  0  0  0  0  0  0  0  0  0
   20.6784   54.9857   86.6808 C   0  0  0  0  0  0  0  0  0  0  0  0
   22.6573   55.8738   84.8508 C   0  0  0  0  0  0  0  0  0  0  0  0
   23.3240   54.1250   90.9322 H   0  0  0  0  0  0  0  0  0  0  0  0
  7  1  2  0
  2  4  1  0
 11  2  1  0
  2 20  1  6
  3 18  1  0
 19  3  1  0
  4  7  1  6
 20  4  1  0
 10  5  1  0
  7  6  1  0
  6  8  1  0
  8  9  1  0
  9 10  1  0
 11 12  1  0
 11 17  1  0
 11 19  1  6
 12 13  1  0
 13 14  2  0
 13 15  1  0
 15 16  1  0
 17 16  1  1
 17 18  1  0
 14 21  1  0
M  END
$$$$
