
     RDKit          3D

 21 23  0  0  0  0  0  0  0  0999 V2000
   22.2761   56.9155   84.6830 O   0  0  0  0  0  0  0  0  0  0  0  0
   20.7608   55.8855   86.7586 C   0  0  2  0  0  0  0  0  0  0  0  0
   18.6851   56.4156   89.4670 O   0  0  0  0  0  0  0  0  0  0  0  0
   21.9118   55.0648   86.1412 C   0  0  2  0  0  0  0  0  0  0  0  0
   28.0589   55.6836   86.4137 C   0  0  0  0  0  0  0  0  0  0  0  0
   23.8074   55.2279   84.4409 N   0  0  0  0  0  0  0  0  0  0  0  0
   22.6581   55.7822   85.0656 C   0  0  0  0  0  0  0  0  0  0  0  0
   24.9793   55.9884   84.1102 C   0  0  0  0  0  0  0  0  0  0  0  0
   25.8781   56.2347   85.2900 C   0  0  0  0  0  0  0  0  0  0  0  0
   27.1059   55.3862   85.2892 C   0  0  0  0  0  0  0  0  0  0  0  0
   20.6091   55.8500   88.2659 C   0  0  1  0  0  0  0  0  0  0  0  0
   21.4583   54.8214   88.7812 N   0  0  0  0  0  0  0  0  0  0  0  0
   22.0439   54.7696   90.0720 C   0  0  0  0  0  0  0  0  0  0  0  0
   22.2935   53.6796   90.7060 N   0  0  0  0  0  0  0  0  0  0  0  0
   22.4363   56.3789   90.8073 S   0  0  0  0  0  0  0  0  0  0  0  0
   22.1114   57.5306   89.4107 C   0  0  0  0  0  0  0  0  0  0  0  0
   20.7314   57.1745   88.9208 C   0  0  2  0  0  0  0  0  0  0  0  0
   19.7395   57.0571   90.0689 C   0  0  0  0  0  0  0  0  0  0  0  0
   19.1741   55.4435   88.6368 C   0  0  0  0  0  0  0  0  0  0  0  0
   20.4803   54.7066   85.9251 C   0  0  0  0  0  0  0  0  0  0  0  0
   23.0734   53.6922   91.3826 H   0  0  0  0  0  0  0  0  0  0  0  0
  7  1  2  0
  2  4  1  0
 11  2  1  0
  2 20  1  6
  3 18  1  0
 19  3  1  0
  4  7  1  6
 20  4  1  0
 10  5  1  0
  7  6  1  0
  6  8  1  0
  8  9  1  0
  9 10  1  0
 11 12  1  0
 11 17  1  0
 11 19  1  6
 12 13  1  0
 13 14  2  0
 13 15  1  0
 15 16  1  0
 17 16  1  1
 17 18  1  0
 14 21  1  0
M  END
$$$$
