
     RDKit          3D

 21 23  0  0  0  0  0  0  0  0999 V2000
   24.7165   56.7449   84.8320 O   0  0  0  0  0  0  0  0  0  0  0  0
   22.3742   56.3254   86.4872 C   0  0  2  0  0  0  0  0  0  0  0  0
   19.2731   55.5693   87.8051 O   0  0  0  0  0  0  0  0  0  0  0  0
   23.0392   55.2418   85.6137 C   0  0  2  0  0  0  0  0  0  0  0  0
   29.4430   56.8633   87.0999 C   0  0  0  0  0  0  0  0  0  0  0  0
   25.4710   54.6079   85.1718 N   0  0  0  0  0  0  0  0  0  0  0  0
   24.4310   55.5756   85.1895 C   0  0  0  0  0  0  0  0  0  0  0  0
   26.5112   54.5380   86.1589 C   0  0  0  0  0  0  0  0  0  0  0  0
   27.5292   55.6363   86.0256 C   0  0  0  0  0  0  0  0  0  0  0  0
   28.4523   55.7361   87.1942 C   0  0  0  0  0  0  0  0  0  0  0  0
   21.5899   55.8612   87.6979 C   0  0  1  0  0  0  0  0  0  0  0  0
   22.4241   54.9949   88.4714 N   0  0  0  0  0  0  0  0  0  0  0  0
   22.3475   54.7655   89.8689 C   0  0  0  0  0  0  0  0  0  0  0  0
   22.6584   53.6537   90.4341 N   0  0  0  0  0  0  0  0  0  0  0  0
   21.7674   56.1732   90.8520 S   0  0  0  0  0  0  0  0  0  0  0  0
   21.7128   57.5207   89.6014 C   0  0  0  0  0  0  0  0  0  0  0  0
   20.9257   56.9543   88.4478 C   0  0  2  0  0  0  0  0  0  0  0  0
   19.6413   56.2864   88.9169 C   0  0  0  0  0  0  0  0  0  0  0  0
   20.3917   55.0100   87.2489 C   0  0  0  0  0  0  0  0  0  0  0  0
   21.9037   56.0714   85.1171 C   0  0  0  0  0  0  0  0  0  0  0  0
   23.0259   53.6979   91.3980 H   0  0  0  0  0  0  0  0  0  0  0  0
  7  1  2  0
  2  4  1  0
 11  2  1  0
  2 20  1  6
  3 18  1  0
 19  3  1  0
  4  7  1  6
 20  4  1  0
 10  5  1  0
  7  6  1  0
  6  8  1  0
  8  9  1  0
  9 10  1  0
 11 12  1  0
 11 17  1  0
 11 19  1  6
 12 13  1  0
 13 14  2  0
 13 15  1  0
 15 16  1  0
 17 16  1  1
 17 18  1  0
 14 21  1  0
M  END
$$$$
