
     RDKit          3D

 21 23  0  0  0  0  0  0  0  0999 V2000
   24.4627   57.8758   84.6736 O   0  0  0  0  0  0  0  0  0  0  0  0
   23.3217   56.8382   88.0211 C   0  0  2  0  0  0  0  0  0  0  0  0
   20.0737   55.7376   87.6162 O   0  0  0  0  0  0  0  0  0  0  0  0
   23.1390   57.4150   86.6021 C   0  0  2  0  0  0  0  0  0  0  0  0
   23.1244   54.8074   82.7166 C   0  0  0  0  0  0  0  0  0  0  0  0
   25.2323   56.1202   85.9294 N   0  0  0  0  0  0  0  0  0  0  0  0
   24.2939   57.1600   85.6913 C   0  0  0  0  0  0  0  0  0  0  0  0
   25.0787   54.7803   85.4370 C   0  0  0  0  0  0  0  0  0  0  0  0
   25.3076   54.6636   83.9557 C   0  0  0  0  0  0  0  0  0  0  0  0
   24.3841   55.5089   83.1432 C   0  0  0  0  0  0  0  0  0  0  0  0
   22.1347   56.1331   88.6457 C   0  0  1  0  0  0  0  0  0  0  0  0
   22.6233   55.1741   89.5871 N   0  0  0  0  0  0  0  0  0  0  0  0
   21.9491   54.6933   90.7386 C   0  0  0  0  0  0  0  0  0  0  0  0
   22.0987   53.5104   91.2190 N   0  0  0  0  0  0  0  0  0  0  0  0
   20.8248   55.8767   91.5259 S   0  0  0  0  0  0  0  0  0  0  0  0
   21.1846   57.4249   90.6004 C   0  0  0  0  0  0  0  0  0  0  0  0
   21.0789   57.0462   89.1455 C   0  0  2  0  0  0  0  0  0  0  0  0
   19.8103   56.2556   88.8604 C   0  0  0  0  0  0  0  0  0  0  0  0
   21.3800   55.3315   87.5734 C   0  0  0  0  0  0  0  0  0  0  0  0
   23.3264   58.2913   87.7942 C   0  0  0  0  0  0  0  0  0  0  0  0
   21.6847   53.3186   92.1452 H   0  0  0  0  0  0  0  0  0  0  0  0
  7  1  2  0
  2  4  1  0
 11  2  1  0
  2 20  1  1
  3 18  1  0
 19  3  1  0
  4  7  1  6
 20  4  1  0
 10  5  1  0
  7  6  1  0
  6  8  1  0
  8  9  1  0
  9 10  1  0
 11 12  1  0
 11 17  1  0
 11 19  1  6
 12 13  1  0
 13 14  2  0
 13 15  1  0
 15 16  1  0
 17 16  1  1
 17 18  1  0
 14 21  1  0
M  END
$$$$
