
     RDKit          3D

 21 23  0  0  0  0  0  0  0  0999 V2000
   25.0782   57.0594   85.0977 O   0  0  0  0  0  0  0  0  0  0  0  0
   22.7282   56.0342   86.4035 C   0  0  2  0  0  0  0  0  0  0  0  0
   19.4817   55.5930   87.4947 O   0  0  0  0  0  0  0  0  0  0  0  0
   24.0864   55.3036   86.3695 C   0  0  2  0  0  0  0  0  0  0  0  0
   30.3712   54.2745   87.7298 C   0  0  0  0  0  0  0  0  0  0  0  0
   26.5206   56.0444   86.5609 N   0  0  0  0  0  0  0  0  0  0  0  0
   25.2329   56.1745   85.9750 C   0  0  0  0  0  0  0  0  0  0  0  0
   27.7382   56.4216   85.9004 C   0  0  0  0  0  0  0  0  0  0  0  0
   28.8494   55.4274   86.0936 C   0  0  0  0  0  0  0  0  0  0  0  0
   29.2888   55.2957   87.5139 C   0  0  0  0  0  0  0  0  0  0  0  0
   21.8125   55.7502   87.5771 C   0  0  1  0  0  0  0  0  0  0  0  0
   22.5195   54.9341   88.5144 N   0  0  0  0  0  0  0  0  0  0  0  0
   22.3054   54.8673   89.9149 C   0  0  0  0  0  0  0  0  0  0  0  0
   22.4954   53.8113   90.6227 N   0  0  0  0  0  0  0  0  0  0  0  0
   21.7290   56.4047   90.6822 S   0  0  0  0  0  0  0  0  0  0  0  0
   21.8691   57.6043   89.2950 C   0  0  0  0  0  0  0  0  0  0  0  0
   21.1536   56.9536   88.1393 C   0  0  2  0  0  0  0  0  0  0  0  0
   19.7937   56.4102   88.5532 C   0  0  0  0  0  0  0  0  0  0  0  0
   20.6082   54.9174   87.1101 C   0  0  0  0  0  0  0  0  0  0  0  0
   23.0093   55.0178   85.3783 C   0  0  0  0  0  0  0  0  0  0  0  0
   22.8726   53.9401   91.5752 H   0  0  0  0  0  0  0  0  0  0  0  0
  7  1  2  0
  2  4  1  0
 11  2  1  0
  2 20  1  6
  3 18  1  0
 19  3  1  0
  4  7  1  6
 20  4  1  0
 10  5  1  0
  7  6  1  0
  6  8  1  0
  8  9  1  0
  9 10  1  0
 11 12  1  0
 11 17  1  0
 11 19  1  6
 12 13  1  0
 13 14  2  0
 13 15  1  0
 15 16  1  0
 17 16  1  1
 17 18  1  0
 14 21  1  0
M  END
$$$$
