
     RDKit          3D

 21 23  0  0  0  0  0  0  0  0999 V2000
   25.8362   55.7782   86.1081 O   0  0  0  0  0  0  0  0  0  0  0  0
   23.5645   55.7064   87.9240 C   0  0  2  0  0  0  0  0  0  0  0  0
   20.3023   55.1238   86.9523 O   0  0  0  0  0  0  0  0  0  0  0  0
   23.8017   56.7807   86.8427 C   0  0  2  0  0  0  0  0  0  0  0  0
   28.8832   56.9642   84.2981 C   0  0  0  0  0  0  0  0  0  0  0  0
   24.5595   56.6381   84.4104 N   0  0  0  0  0  0  0  0  0  0  0  0
   24.7782   56.3745   85.7892 C   0  0  0  0  0  0  0  0  0  0  0  0
   25.2738   55.9833   83.3510 C   0  0  0  0  0  0  0  0  0  0  0  0
   26.6799   56.4885   83.1839 C   0  0  0  0  0  0  0  0  0  0  0  0
   27.4565   56.5171   84.4581 C   0  0  0  0  0  0  0  0  0  0  0  0
   22.1349   55.4625   88.3634 C   0  0  1  0  0  0  0  0  0  0  0  0
   22.1588   54.7906   89.6254 N   0  0  0  0  0  0  0  0  0  0  0  0
   21.1604   54.8358   90.6317 C   0  0  0  0  0  0  0  0  0  0  0  0
   20.9037   53.8660   91.4354 N   0  0  0  0  0  0  0  0  0  0  0  0
   20.2316   56.3890   90.7290 S   0  0  0  0  0  0  0  0  0  0  0  0
   21.1545   57.4644   89.5565 C   0  0  0  0  0  0  0  0  0  0  0  0
   21.2628   56.6592   88.2873 C   0  0  2  0  0  0  0  0  0  0  0  0
   19.9243   56.0551   87.8880 C   0  0  0  0  0  0  0  0  0  0  0  0
   21.4436   54.5025   87.3824 C   0  0  0  0  0  0  0  0  0  0  0  0
   24.2708   56.9552   88.2476 C   0  0  0  0  0  0  0  0  0  0  0  0
   19.9507   53.4695   91.4115 H   0  0  0  0  0  0  0  0  0  0  0  0
  7  1  2  0
  2  4  1  0
 11  2  1  0
  2 20  1  1
  3 18  1  0
 19  3  1  0
  4  7  1  6
 20  4  1  0
 10  5  1  0
  7  6  1  0
  6  8  1  0
  8  9  1  0
  9 10  1  0
 11 12  1  0
 11 17  1  0
 11 19  1  6
 12 13  1  0
 13 14  2  0
 13 15  1  0
 15 16  1  0
 17 16  1  1
 17 18  1  0
 14 21  1  0
M  END
$$$$
