
     RDKit          3D

 21 23  0  0  0  0  0  0  0  0999 V2000
   23.8651   56.9632   84.3911 O   0  0  0  0  0  0  0  0  0  0  0  0
   21.9086   56.0984   86.2851 C   0  0  2  0  0  0  0  0  0  0  0  0
   19.1404   55.6811   88.3069 O   0  0  0  0  0  0  0  0  0  0  0  0
   23.0175   55.1814   85.7291 C   0  0  2  0  0  0  0  0  0  0  0  0
   29.4403   55.0212   87.4792 C   0  0  0  0  0  0  0  0  0  0  0  0
   25.4643   55.4659   85.0635 N   0  0  0  0  0  0  0  0  0  0  0  0
   24.1163   55.9135   85.0326 C   0  0  0  0  0  0  0  0  0  0  0  0
   26.4480   55.9632   85.9833 C   0  0  0  0  0  0  0  0  0  0  0  0
   26.9978   54.9010   86.8942 C   0  0  0  0  0  0  0  0  0  0  0  0
   28.0334   55.4083   87.8419 C   0  0  0  0  0  0  0  0  0  0  0  0
   21.3883   55.7992   87.6765 C   0  0  1  0  0  0  0  0  0  0  0  0
   22.3286   54.9483   88.3370 N   0  0  0  0  0  0  0  0  0  0  0  0
   22.5503   54.8493   89.7344 C   0  0  0  0  0  0  0  0  0  0  0  0
   22.9230   53.7728   90.3297 N   0  0  0  0  0  0  0  0  0  0  0  0
   22.2708   56.3756   90.6708 S   0  0  0  0  0  0  0  0  0  0  0  0
   22.0086   57.6077   89.3307 C   0  0  0  0  0  0  0  0  0  0  0  0
   20.9600   56.9981   88.4364 C   0  0  2  0  0  0  0  0  0  0  0  0
   19.7791   56.4660   89.2353 C   0  0  0  0  0  0  0  0  0  0  0  0
   20.0802   54.9978   87.5836 C   0  0  0  0  0  0  0  0  0  0  0  0
   21.6431   55.2010   85.1505 C   0  0  0  0  0  0  0  0  0  0  0  0
   23.2909   53.8646   91.2901 H   0  0  0  0  0  0  0  0  0  0  0  0
  7  1  2  0
  2  4  1  0
 11  2  1  0
  2 20  1  6
  3 18  1  0
 19  3  1  0
  4  7  1  6
 20  4  1  0
 10  5  1  0
  7  6  1  0
  6  8  1  0
  8  9  1  0
  9 10  1  0
 11 12  1  0
 11 17  1  0
 11 19  1  6
 12 13  1  0
 13 14  2  0
 13 15  1  0
 15 16  1  0
 17 16  1  1
 17 18  1  0
 14 21  1  0
M  END
$$$$
