
     RDKit          3D

 21 23  0  0  0  0  0  0  0  0999 V2000
   24.9953   56.5223   84.6529 O   0  0  0  0  0  0  0  0  0  0  0  0
   22.5479   55.8198   86.3931 C   0  0  2  0  0  0  0  0  0  0  0  0
   19.3874   55.2904   87.6800 O   0  0  0  0  0  0  0  0  0  0  0  0
   23.9259   55.1374   86.2723 C   0  0  2  0  0  0  0  0  0  0  0  0
   30.0015   54.3978   87.6737 C   0  0  0  0  0  0  0  0  0  0  0  0
   26.1000   56.4162   86.6578 N   0  0  0  0  0  0  0  0  0  0  0  0
   25.0158   56.0498   85.8161 C   0  0  0  0  0  0  0  0  0  0  0  0
   27.3932   56.8029   86.1685 C   0  0  0  0  0  0  0  0  0  0  0  0
   28.5225   56.3305   87.0415 C   0  0  0  0  0  0  0  0  0  0  0  0
   29.0099   54.9631   86.6948 C   0  0  0  0  0  0  0  0  0  0  0  0
   21.7149   55.4980   87.6174 C   0  0  1  0  0  0  0  0  0  0  0  0
   22.4972   54.6836   88.4945 N   0  0  0  0  0  0  0  0  0  0  0  0
   22.3740   54.5911   89.9045 C   0  0  0  0  0  0  0  0  0  0  0  0
   22.6310   53.5290   90.5814 N   0  0  0  0  0  0  0  0  0  0  0  0
   21.8152   56.1036   90.7319 S   0  0  0  0  0  0  0  0  0  0  0  0
   21.8414   57.3267   89.3586 C   0  0  0  0  0  0  0  0  0  0  0  0
   21.0678   56.6778   88.2399 C   0  0  2  0  0  0  0  0  0  0  0  0
   19.7488   56.0983   88.7300 C   0  0  0  0  0  0  0  0  0  0  0  0
   20.5012   54.6458   87.2139 C   0  0  0  0  0  0  0  0  0  0  0  0
   22.8017   54.8192   85.3455 C   0  0  0  0  0  0  0  0  0  0  0  0
   23.0626   53.6519   91.5113 H   0  0  0  0  0  0  0  0  0  0  0  0
  7  1  2  0
  2  4  1  0
 11  2  1  0
  2 20  1  6
  3 18  1  0
 19  3  1  0
  4  7  1  6
 20  4  1  0
 10  5  1  0
  7  6  1  0
  6  8  1  0
  8  9  1  0
  9 10  1  0
 11 12  1  0
 11 17  1  0
 11 19  1  6
 12 13  1  0
 13 14  2  0
 13 15  1  0
 15 16  1  0
 17 16  1  1
 17 18  1  0
 14 21  1  0
M  END
$$$$
