
     RDKit          3D

 61 62  0  0  0  0  0  0  0  0999 V2000
   51.9528  -33.7887   -4.0968 N   0  0  0  0  0  0  0  0  0  0  0  0
   51.2931  -34.8462   -3.3677 C   0  0  2  0  0  0  0  0  0  0  0  0
   50.9121  -36.0229   -4.1678 C   0  0  0  0  0  0  0  0  0  0  0  0
   51.9441  -36.8421   -4.3193 O   0  0  0  0  0  0  0  0  0  0  0  0
   50.2375  -34.3153   -2.4424 C   0  0  0  0  0  0  0  0  0  0  0  0
   50.8430  -33.3539   -1.4756 C   0  0  0  0  0  0  0  0  0  0  0  0
   52.3199  -33.4408   -1.3071 C   0  0  0  0  0  0  0  0  0  0  0  0
   53.0364  -32.4382   -2.0711 N   0  0  0  0  0  0  0  0  0  0  0  0
   54.4528  -32.3851   -1.9567 C   0  0  0  0  0  0  0  0  0  0  0  0
   55.2146  -31.3520   -2.5744 N   0  0  0  0  0  0  0  0  0  0  0  0
   55.1026  -33.2909   -1.2740 N   0  0  0  0  0  0  0  0  0  0  0  0
   49.7632  -36.4592   -4.7744 N   0  0  0  0  0  0  0  0  0  0  0  0
   49.1144  -36.2525   -6.0418 C   0  0  2  0  0  0  0  0  0  0  0  0
   49.2234  -37.5040   -6.8798 C   0  0  0  0  0  0  0  0  0  0  0  0
   49.6063  -38.5209   -6.1686 O   0  0  0  0  0  0  0  0  0  0  0  0
   49.3773  -35.0064   -6.7797 C   0  0  0  0  0  0  0  0  0  0  0  0
   48.7327  -33.7552   -6.3284 C   0  0  0  0  0  0  0  0  0  0  0  0
   48.4405  -32.8550   -7.5292 C   0  0  0  0  0  0  0  0  0  0  0  0
   49.3941  -33.2736   -8.5709 N   0  0  0  0  0  0  0  0  0  0  0  0
   48.8999  -33.5195   -9.8770 C   0  0  0  0  0  0  0  0  0  0  0  0
   47.7555  -33.0130  -10.2317 N   0  0  0  0  0  0  0  0  0  0  0  0
   49.6817  -34.3167  -10.7500 N   0  0  0  0  0  0  0  0  0  0  0  0
   48.9893  -37.7224   -8.2102 N   0  0  0  0  0  0  0  0  0  0  0  0
   49.5854  -37.3301   -9.4429 C   0  0  2  0  0  0  0  0  0  0  0  0
   49.7175  -38.5629  -10.3219 C   0  0  0  0  0  0  0  0  0  0  0  0
   50.8380  -38.8099  -10.8614 O   0  0  0  0  0  0  0  0  0  0  0  0
   50.9313  -36.7161   -9.4162 C   0  0  0  0  0  0  0  0  0  0  0  0
   51.9990  -37.6195   -8.8357 C   0  0  0  0  0  0  0  0  0  0  0  0
   53.2382  -36.7720   -8.6138 C   0  0  0  0  0  0  0  0  0  0  0  0
   53.7249  -37.0901   -7.2115 C   0  0  0  0  0  0  0  0  0  0  0  0
   55.1488  -37.3369   -7.2928 N   0  0  0  0  0  0  0  0  0  0  0  0
   48.6764  -39.4547  -10.5798 N   0  0  0  0  0  0  0  0  0  0  0  0
   47.5170  -39.0566  -11.4149 C   0  0  2  0  0  0  0  0  0  0  0  0
   46.8075  -37.9599  -10.7707 C   0  0  0  0  0  0  0  0  0  0  0  0
   47.1285  -37.6652   -9.5709 O   0  0  0  0  0  0  0  0  0  0  0  0
   46.6882  -40.2971  -11.6927 C   0  0  0  0  0  0  0  0  0  0  0  0
   47.5932  -41.4715  -11.8871 C   0  0  0  0  0  0  0  0  0  0  0  0
   48.0181  -41.5141  -13.3572 C   0  0  0  0  0  0  0  0  0  0  0  0
   48.4950  -42.8948  -13.6836 C   0  0  0  0  0  0  0  0  0  0  0  0
   47.3539  -43.7938  -13.3936 N   0  0  0  0  0  4  0  0  0  0  0  0
   45.7854  -37.1751  -11.3607 N   0  0  0  0  0  0  0  0  0  0  0  0
   45.5490  -35.7768  -11.0942 C   0  0  0  0  0  0  0  0  0  0  0  0
   45.0565  -35.5317   -9.7154 C   0  0  0  0  0  0  0  0  0  0  0  0
   44.2897  -36.4798   -9.0546 C   0  0  0  0  0  0  0  0  0  0  0  0
   43.8396  -36.2140   -7.8028 C   0  0  0  0  0  0  0  0  0  0  0  0
   44.1221  -35.0193   -7.1573 C   0  0  0  0  0  0  0  0  0  0  0  0
   43.6300  -34.7502   -5.8126 C   0  0  0  0  0  0  0  0  0  0  0  0
   44.4684  -34.0337   -4.9183 N   0  0  0  0  0  0  0  0  0  0  0  0
   42.4709  -35.1492   -5.4523 N   0  0  0  0  0  0  0  0  0  0  0  0
   44.8824  -34.0685   -7.8008 C   0  0  0  0  0  0  0  0  0  0  0  0
   45.3397  -34.3547   -9.0909 C   0  0  0  0  0  0  0  0  0  0  0  0
   53.2466  -33.8957   -4.6778 C   0  0  0  0  0  0  0  0  0  0  0  0
   54.4740  -34.2958   -4.0054 C   0  0  0  0  0  0  0  0  0  0  0  0
   55.2216  -35.4475   -4.5736 C   0  0  0  0  0  0  0  0  0  0  0  0
   55.7766  -35.2596   -5.9470 C   0  0  0  0  0  0  0  0  0  0  0  0
   56.0766  -36.6319   -6.4875 C   0  0  0  0  0  0  0  0  0  0  0  0
   53.2974  -33.5992   -5.9220 O   0  0  0  0  0  0  0  0  0  0  0  0
   57.1644  -37.1630   -6.2226 O   0  0  0  0  0  0  0  0  0  0  0  0
   56.1429  -33.3042   -1.2390 H   0  0  0  0  0  0  0  0  0  0  0  0
   47.7680  -32.3326  -11.0320 H   0  0  0  0  0  0  0  0  0  0  0  0
   41.8915  -35.6914   -6.1129 H   0  0  0  0  0  0  0  0  0  0  0  0
  1  2  1  0
  1 52  1  0
  2  3  1  0
  2  5  1  6
  3  4  2  0
  3 12  1  0
  5  6  1  0
  6  7  1  0
  7  8  1  0
  8  9  1  0
  9 10  1  0
  9 11  2  0
 12 13  1  0
 13 14  1  0
 13 16  1  6
 14 15  2  0
 14 23  1  0
 16 17  1  0
 17 18  1  0
 18 19  1  0
 19 20  1  0
 20 21  2  0
 20 22  1  0
 23 24  1  0
 24 25  1  6
 24 27  1  0
 25 26  2  0
 25 32  1  0
 27 28  1  0
 28 29  1  0
 29 30  1  0
 30 31  1  0
 31 56  1  0
 32 33  1  0
 33 34  1  0
 33 36  1  1
 34 35  2  0
 34 41  1  0
 36 37  1  0
 37 38  1  0
 38 39  1  0
 39 40  1  0
 41 42  1  0
 42 43  1  0
 43 44  2  0
 43 51  1  0
 44 45  1  0
 45 46  2  0
 46 47  1  0
 46 50  1  0
 47 48  1  0
 47 49  2  0
 50 51  2  0
 52 53  1  0
 52 57  2  0
 53 54  1  0
 54 55  1  0
 55 56  1  0
 56 58  2  0
 11 59  1  0
 21 60  1  0
 49 61  1  0
M  CHG  1  40   1
M  END
$$$$
