
     RDKit          3D

 61 62  0  0  0  0  0  0  0  0999 V2000
   54.2577  -36.8031   -5.4800 N   0  0  0  0  0  0  0  0  0  0  0  0
   54.3547  -35.9648   -6.6517 C   0  0  2  0  0  0  0  0  0  0  0  0
   53.0733  -35.4650   -7.1789 C   0  0  0  0  0  0  0  0  0  0  0  0
   52.6757  -34.3920   -6.5082 O   0  0  0  0  0  0  0  0  0  0  0  0
   55.3040  -36.5292   -7.6679 C   0  0  0  0  0  0  0  0  0  0  0  0
   56.7125  -36.3004   -7.2328 C   0  0  0  0  0  0  0  0  0  0  0  0
   56.9090  -36.0041   -5.7869 C   0  0  0  0  0  0  0  0  0  0  0  0
   57.7130  -34.8198   -5.5562 N   0  0  0  0  0  0  0  0  0  0  0  0
   57.0949  -33.5460   -5.6893 C   0  0  0  0  0  0  0  0  0  0  0  0
   57.0674  -32.8547   -6.9344 N   0  0  0  0  0  0  0  0  0  0  0  0
   56.5276  -32.9681   -4.6632 N   0  0  0  0  0  0  0  0  0  0  0  0
   52.2183  -35.8410   -8.1819 N   0  0  0  0  0  0  0  0  0  0  0  0
   51.1222  -36.7623   -8.3220 C   0  0  2  0  0  0  0  0  0  0  0  0
   49.8245  -35.9976   -8.4290 C   0  0  0  0  0  0  0  0  0  0  0  0
   50.0332  -34.7356   -8.6535 O   0  0  0  0  0  0  0  0  0  0  0  0
   51.0614  -37.9345   -7.4339 C   0  0  0  0  0  0  0  0  0  0  0  0
   50.3470  -37.8222   -6.1448 C   0  0  0  0  0  0  0  0  0  0  0  0
   49.2954  -36.7151   -6.2246 C   0  0  0  0  0  0  0  0  0  0  0  0
   48.0999  -37.3544   -6.8004 N   0  0  0  0  0  0  0  0  0  0  0  0
   48.2303  -38.6547   -7.3506 C   0  0  0  0  0  0  0  0  0  0  0  0
   47.1615  -39.3125   -7.6930 N   0  0  0  0  0  0  0  0  0  0  0  0
   49.5338  -39.1892   -7.5048 N   0  0  0  0  0  0  0  0  0  0  0  0
   48.5233  -36.4101   -8.3330 N   0  0  0  0  0  0  0  0  0  0  0  0
   47.6723  -36.9172   -7.3096 C   0  0  2  0  0  0  0  0  0  0  0  0
   46.3493  -36.1724   -7.3776 C   0  0  0  0  0  0  0  0  0  0  0  0
   46.3214  -34.9478   -7.0501 O   0  0  0  0  0  0  0  0  0  0  0  0
   48.1151  -36.8112   -5.9018 C   0  0  0  0  0  0  0  0  0  0  0  0
   48.3311  -35.3856   -5.4393 C   0  0  0  0  0  0  0  0  0  0  0  0
   49.0414  -35.4465   -4.0996 C   0  0  0  0  0  0  0  0  0  0  0  0
   50.1894  -34.4567   -4.1819 C   0  0  0  0  0  0  0  0  0  0  0  0
   50.1546  -33.6519   -2.9794 N   0  0  0  0  0  0  0  0  0  0  0  0
   45.1460  -36.7510   -7.7814 N   0  0  0  0  0  0  0  0  0  0  0  0
   45.0610  -37.5483   -9.0293 C   0  0  2  0  0  0  0  0  0  0  0  0
   45.4783  -36.7293  -10.1589 C   0  0  0  0  0  0  0  0  0  0  0  0
   46.5615  -36.0635  -10.0448 O   0  0  0  0  0  0  0  0  0  0  0  0
   43.6617  -38.1277   -9.1240 C   0  0  0  0  0  0  0  0  0  0  0  0
   43.7437  -39.6105   -9.2986 C   0  0  0  0  0  0  0  0  0  0  0  0
   42.3232  -40.1546   -9.4712 C   0  0  0  0  0  0  0  0  0  0  0  0
   42.3909  -41.6401   -9.6416 C   0  0  0  0  0  0  0  0  0  0  0  0
   40.9894  -42.1162   -9.5831 N   0  0  0  0  0  4  0  0  0  0  0  0
   44.7891  -36.6054  -11.3911 N   0  0  0  0  0  0  0  0  0  0  0  0
   45.2836  -37.0502  -12.6716 C   0  0  0  0  0  0  0  0  0  0  0  0
   46.4579  -36.2690  -13.1349 C   0  0  0  0  0  0  0  0  0  0  0  0
   47.7484  -36.6750  -12.8291 C   0  0  0  0  0  0  0  0  0  0  0  0
   48.7974  -35.9259  -13.2518 C   0  0  0  0  0  0  0  0  0  0  0  0
   48.6223  -34.7610  -13.9839 C   0  0  0  0  0  0  0  0  0  0  0  0
   49.7607  -33.9682  -14.4295 C   0  0  0  0  0  0  0  0  0  0  0  0
   49.5234  -32.8884  -15.3203 N   0  0  0  0  0  0  0  0  0  0  0  0
   50.9413  -34.2404  -14.0239 N   0  0  0  0  0  0  0  0  0  0  0  0
   47.3470  -34.3454  -14.2952 C   0  0  0  0  0  0  0  0  0  0  0  0
   46.2744  -35.1262  -13.8532 C   0  0  0  0  0  0  0  0  0  0  0  0
   53.8303  -36.3533   -4.2002 C   0  0  0  0  0  0  0  0  0  0  0  0
   54.3725  -35.2345   -3.4433 C   0  0  0  0  0  0  0  0  0  0  0  0
   53.4257  -34.1687   -3.0240 C   0  0  0  0  0  0  0  0  0  0  0  0
   52.3532  -34.5785   -2.0695 C   0  0  0  0  0  0  0  0  0  0  0  0
   51.2841  -33.5211   -2.1348 C   0  0  0  0  0  0  0  0  0  0  0  0
   52.8686  -37.0286   -3.6926 O   0  0  0  0  0  0  0  0  0  0  0  0
   51.3917  -32.5064   -1.4315 O   0  0  0  0  0  0  0  0  0  0  0  0
   55.5435  -33.1771   -4.3957 H   0  0  0  0  0  0  0  0  0  0  0  0
   46.4621  -38.8008   -8.2868 H   0  0  0  0  0  0  0  0  0  0  0  0
   51.5156  -33.4975  -13.5948 H   0  0  0  0  0  0  0  0  0  0  0  0
  1  2  1  0
  1 52  1  0
  2  3  1  0
  2  5  1  6
  3  4  2  0
  3 12  1  0
  5  6  1  0
  6  7  1  0
  7  8  1  0
  8  9  1  0
  9 10  1  0
  9 11  2  0
 12 13  1  0
 13 14  1  0
 13 16  1  1
 14 15  2  0
 14 23  1  0
 16 17  1  0
 17 18  1  0
 18 19  1  0
 19 20  1  0
 20 21  2  0
 20 22  1  0
 23 24  1  0
 24 25  1  1
 24 27  1  0
 25 26  2  0
 25 32  1  0
 27 28  1  0
 28 29  1  0
 29 30  1  0
 30 31  1  0
 31 56  1  0
 32 33  1  0
 33 34  1  0
 33 36  1  6
 34 35  2  0
 34 41  1  0
 36 37  1  0
 37 38  1  0
 38 39  1  0
 39 40  1  0
 41 42  1  0
 42 43  1  0
 43 44  2  0
 43 51  1  0
 44 45  1  0
 45 46  2  0
 46 47  1  0
 46 50  1  0
 47 48  1  0
 47 49  2  0
 50 51  2  0
 52 53  1  0
 52 57  2  0
 53 54  1  0
 54 55  1  0
 55 56  1  0
 56 58  2  0
 11 59  1  0
 21 60  1  0
 49 61  1  0
M  CHG  1  40   1
M  END
$$$$
