
     RDKit          3D

 61 62  0  0  0  0  0  0  0  0999 V2000
   54.5143  -35.0765   -7.5782 N   0  0  0  0  0  0  0  0  0  0  0  0
   54.1875  -33.6762   -7.7094 C   0  0  2  0  0  0  0  0  0  0  0  0
   52.7483  -33.3637   -7.7419 C   0  0  0  0  0  0  0  0  0  0  0  0
   52.2511  -33.3111   -6.5135 O   0  0  0  0  0  0  0  0  0  0  0  0
   55.0270  -32.9999   -8.7535 C   0  0  0  0  0  0  0  0  0  0  0  0
   56.4734  -33.1450   -8.4181 C   0  0  0  0  0  0  0  0  0  0  0  0
   56.7944  -33.3177   -6.9744 C   0  0  0  0  0  0  0  0  0  0  0  0
   56.3561  -34.5948   -6.4462 N   0  0  0  0  0  0  0  0  0  0  0  0
   56.6725  -34.9132   -5.0968 C   0  0  0  0  0  0  0  0  0  0  0  0
   56.9269  -33.8993   -4.1292 N   0  0  0  0  0  0  0  0  0  0  0  0
   56.7385  -36.1575   -4.7017 N   0  0  0  0  0  0  0  0  0  0  0  0
   51.8261  -33.1162   -8.7252 N   0  0  0  0  0  0  0  0  0  0  0  0
   50.9663  -33.9060   -9.5659 C   0  0  2  0  0  0  0  0  0  0  0  0
   49.5317  -33.7421   -9.1241 C   0  0  0  0  0  0  0  0  0  0  0  0
   49.3962  -32.7396   -8.3098 O   0  0  0  0  0  0  0  0  0  0  0  0
   51.3500  -35.2939   -9.8703 C   0  0  0  0  0  0  0  0  0  0  0  0
   52.2505  -35.5557  -11.0127 C   0  0  0  0  0  0  0  0  0  0  0  0
   52.2817  -34.3423  -11.9426 C   0  0  0  0  0  0  0  0  0  0  0  0
   53.5642  -33.6727  -11.6661 N   0  0  0  0  0  0  0  0  0  0  0  0
   54.7180  -34.1127  -12.3631 C   0  0  0  0  0  0  0  0  0  0  0  0
   55.3878  -35.1311  -11.9089 N   0  0  0  0  0  0  0  0  0  0  0  0
   55.0975  -33.4158  -13.5375 N   0  0  0  0  0  0  0  0  0  0  0  0
   48.4044  -34.4520   -9.4368 N   0  0  0  0  0  0  0  0  0  0  0  0
   47.9072  -35.7638   -9.1908 C   0  0  2  0  0  0  0  0  0  0  0  0
   46.4605  -35.6483   -8.7398 C   0  0  0  0  0  0  0  0  0  0  0  0
   46.2107  -35.0898   -7.6292 O   0  0  0  0  0  0  0  0  0  0  0  0
   48.5766  -36.5954   -8.1662 C   0  0  0  0  0  0  0  0  0  0  0  0
   48.5430  -35.9917   -6.7779 C   0  0  0  0  0  0  0  0  0  0  0  0
   49.4929  -36.7969   -5.9105 C   0  0  0  0  0  0  0  0  0  0  0  0
   50.3436  -35.7872   -5.1614 C   0  0  0  0  0  0  0  0  0  0  0  0
   50.3567  -36.1803   -3.7684 N   0  0  0  0  0  0  0  0  0  0  0  0
   45.3724  -36.1206   -9.4737 N   0  0  0  0  0  0  0  0  0  0  0  0
   45.5682  -36.9963  -10.6548 C   0  0  2  0  0  0  0  0  0  0  0  0
   45.0018  -38.3106  -10.3847 C   0  0  0  0  0  0  0  0  0  0  0  0
   45.7202  -39.3338  -10.6423 O   0  0  0  0  0  0  0  0  0  0  0  0
   47.0427  -36.9815  -11.0132 C   0  0  0  0  0  0  0  0  0  0  0  0
   47.2006  -37.1319  -12.4926 C   0  0  0  0  0  0  0  0  0  0  0  0
   48.3196  -36.1953  -12.9553 C   0  0  0  0  0  0  0  0  0  0  0  0
   47.7716  -35.2579  -13.9855 C   0  0  0  0  0  0  0  0  0  0  0  0
   48.7847  -35.2094  -15.0651 N   0  0  0  0  0  4  0  0  0  0  0  0
   43.7137  -38.5631   -9.8502 N   0  0  0  0  0  0  0  0  0  0  0  0
   43.0373  -37.7374   -8.8792 C   0  0  0  0  0  0  0  0  0  0  0  0
   43.0233  -38.3421   -7.5235 C   0  0  0  0  0  0  0  0  0  0  0  0
   41.8281  -38.5661   -6.8565 C   0  0  0  0  0  0  0  0  0  0  0  0
   41.8538  -39.1020   -5.6105 C   0  0  0  0  0  0  0  0  0  0  0  0
   43.0419  -39.4356   -4.9772 C   0  0  0  0  0  0  0  0  0  0  0  0
   43.0510  -40.0099   -3.6382 C   0  0  0  0  0  0  0  0  0  0  0  0
   41.8061  -40.2995   -3.0199 N   0  0  0  0  0  0  0  0  0  0  0  0
   44.1548  -40.2476   -3.0401 N   0  0  0  0  0  0  0  0  0  0  0  0
   44.2364  -39.2190   -5.6271 C   0  0  0  0  0  0  0  0  0  0  0  0
   44.1961  -38.6659   -6.9107 C   0  0  0  0  0  0  0  0  0  0  0  0
   54.2499  -35.8611   -6.4218 C   0  0  0  0  0  0  0  0  0  0  0  0
   54.6549  -35.5646   -5.0555 C   0  0  0  0  0  0  0  0  0  0  0  0
   53.5870  -35.4956   -4.0245 C   0  0  0  0  0  0  0  0  0  0  0  0
   52.8429  -36.7630   -3.7612 C   0  0  0  0  0  0  0  0  0  0  0  0
   51.5667  -36.3817   -3.0602 C   0  0  0  0  0  0  0  0  0  0  0  0
   53.5864  -36.9326   -6.6460 O   0  0  0  0  0  0  0  0  0  0  0  0
   51.5710  -36.2389   -1.8292 O   0  0  0  0  0  0  0  0  0  0  0  0
   56.7983  -36.9427   -5.3826 H   0  0  0  0  0  0  0  0  0  0  0  0
   55.4019  -35.2599  -10.8664 H   0  0  0  0  0  0  0  0  0  0  0  0
   45.0358  -40.2453   -3.5784 H   0  0  0  0  0  0  0  0  0  0  0  0
  1  2  1  0
  1 52  1  0
  2  3  1  0
  2  5  1  6
  3  4  2  0
  3 12  1  0
  5  6  1  0
  6  7  1  0
  7  8  1  0
  8  9  1  0
  9 10  1  0
  9 11  2  0
 12 13  1  0
 13 14  1  0
 13 16  1  1
 14 15  2  0
 14 23  1  0
 16 17  1  0
 17 18  1  0
 18 19  1  0
 19 20  1  0
 20 21  2  0
 20 22  1  0
 23 24  1  0
 24 25  1  1
 24 27  1  0
 25 26  2  0
 25 32  1  0
 27 28  1  0
 28 29  1  0
 29 30  1  0
 30 31  1  0
 31 56  1  0
 32 33  1  0
 33 34  1  0
 33 36  1  1
 34 35  2  0
 34 41  1  0
 36 37  1  0
 37 38  1  0
 38 39  1  0
 39 40  1  0
 41 42  1  0
 42 43  1  0
 43 44  2  0
 43 51  1  0
 44 45  1  0
 45 46  2  0
 46 47  1  0
 46 50  1  0
 47 48  1  0
 47 49  2  0
 50 51  2  0
 52 53  1  0
 52 57  2  0
 53 54  1  0
 54 55  1  0
 55 56  1  0
 56 58  2  0
 11 59  1  0
 21 60  1  0
 49 61  1  0
M  CHG  1  40   1
M  END
$$$$
