
     RDKit          3D

 61 62  0  0  0  0  0  0  0  0999 V2000
   54.0180  -34.1800   -3.7908 N   0  0  0  0  0  0  0  0  0  0  0  0
   54.3883  -33.5357   -5.0288 C   0  0  2  0  0  0  0  0  0  0  0  0
   53.3060  -33.3996   -6.0187 C   0  0  0  0  0  0  0  0  0  0  0  0
   52.5557  -32.3390   -5.7518 O   0  0  0  0  0  0  0  0  0  0  0  0
   55.6969  -34.0464   -5.5571 C   0  0  0  0  0  0  0  0  0  0  0  0
   56.4585  -34.7223   -4.4668 C   0  0  0  0  0  0  0  0  0  0  0  0
   55.9707  -34.4778   -3.0814 C   0  0  0  0  0  0  0  0  0  0  0  0
   56.5841  -35.3542   -2.1027 N   0  0  0  0  0  0  0  0  0  0  0  0
   55.9921  -35.4475   -0.8131 C   0  0  0  0  0  0  0  0  0  0  0  0
   55.4356  -34.3095   -0.1617 N   0  0  0  0  0  0  0  0  0  0  0  0
   55.9400  -36.5916   -0.1829 N   0  0  0  0  0  0  0  0  0  0  0  0
   52.9064  -34.0971   -7.1288 N   0  0  0  0  0  0  0  0  0  0  0  0
   52.0662  -35.2343   -7.3948 C   0  0  2  0  0  0  0  0  0  0  0  0
   50.7881  -34.7792   -8.0577 C   0  0  0  0  0  0  0  0  0  0  0  0
   50.8794  -33.5531   -8.4756 O   0  0  0  0  0  0  0  0  0  0  0  0
   51.8736  -36.2384   -6.3360 C   0  0  0  0  0  0  0  0  0  0  0  0
   53.0557  -36.9238   -5.7728 C   0  0  0  0  0  0  0  0  0  0  0  0
   54.0346  -35.8958   -5.2046 C   0  0  0  0  0  0  0  0  0  0  0  0
   55.0443  -36.6815   -4.4746 N   0  0  0  0  0  0  0  0  0  0  0  0
   56.0767  -37.3081   -5.2176 C   0  0  0  0  0  0  0  0  0  0  0  0
   57.2273  -37.5266   -4.6516 N   0  0  0  0  0  0  0  0  0  0  0  0
   55.8088  -37.6724   -6.5608 N   0  0  0  0  0  0  0  0  0  0  0  0
   49.6046  -35.4298   -8.2781 N   0  0  0  0  0  0  0  0  0  0  0  0
   48.5370  -35.9327   -7.4806 C   0  0  2  0  0  0  0  0  0  0  0  0
   47.2248  -35.4960   -8.1107 C   0  0  0  0  0  0  0  0  0  0  0  0
   46.9145  -34.2669   -8.0835 O   0  0  0  0  0  0  0  0  0  0  0  0
   48.4539  -35.5167   -6.0630 C   0  0  0  0  0  0  0  0  0  0  0  0
   48.2947  -34.0223   -5.8775 C   0  0  0  0  0  0  0  0  0  0  0  0
   48.5070  -33.7233   -4.4049 C   0  0  0  0  0  0  0  0  0  0  0  0
   49.4616  -32.5445   -4.3440 C   0  0  0  0  0  0  0  0  0  0  0  0
   48.9053  -31.5842   -3.4149 N   0  0  0  0  0  0  0  0  0  0  0  0
   46.3251  -36.3662   -8.7263 N   0  0  0  0  0  0  0  0  0  0  0  0
   46.1919  -36.4106  -10.2030 C   0  0  2  0  0  0  0  0  0  0  0  0
   45.9179  -37.7771  -10.6256 C   0  0  0  0  0  0  0  0  0  0  0  0
   46.3549  -38.1474  -11.7664 O   0  0  0  0  0  0  0  0  0  0  0  0
   47.4308  -35.7759  -10.8072 C   0  0  0  0  0  0  0  0  0  0  0  0
   47.0491  -34.5293  -11.5395 C   0  0  0  0  0  0  0  0  0  0  0  0
   47.6791  -34.5777  -12.9339 C   0  0  0  0  0  0  0  0  0  0  0  0
   49.1040  -35.0181  -12.8066 C   0  0  0  0  0  0  0  0  0  0  0  0
   49.5954  -35.1967  -14.1925 N   0  0  0  0  0  4  0  0  0  0  0  0
   45.2080  -38.7487   -9.8768 N   0  0  0  0  0  0  0  0  0  0  0  0
   43.8582  -38.6022   -9.3883 C   0  0  0  0  0  0  0  0  0  0  0  0
   43.6300  -39.3230   -8.1107 C   0  0  0  0  0  0  0  0  0  0  0  0
   42.9130  -40.5099   -8.0815 C   0  0  0  0  0  0  0  0  0  0  0  0
   42.7065  -41.1313   -6.8934 C   0  0  0  0  0  0  0  0  0  0  0  0
   43.1911  -40.6172   -5.6999 C   0  0  0  0  0  0  0  0  0  0  0  0
   42.9595  -41.2977   -4.4326 C   0  0  0  0  0  0  0  0  0  0  0  0
   43.8033  -40.9844   -3.3346 N   0  0  0  0  0  0  0  0  0  0  0  0
   42.0174  -42.1530   -4.3164 N   0  0  0  0  0  0  0  0  0  0  0  0
   43.9049  -39.4397   -5.7132 C   0  0  0  0  0  0  0  0  0  0  0  0
   44.1103  -38.8090   -6.9442 C   0  0  0  0  0  0  0  0  0  0  0  0
   53.1209  -33.6310   -2.8333 C   0  0  0  0  0  0  0  0  0  0  0  0
   53.2081  -32.3194   -2.2083 C   0  0  0  0  0  0  0  0  0  0  0  0
   52.0340  -31.4182   -2.3413 C   0  0  0  0  0  0  0  0  0  0  0  0
   50.7702  -31.8834   -1.6965 C   0  0  0  0  0  0  0  0  0  0  0  0
   49.6488  -31.0922   -2.3142 C   0  0  0  0  0  0  0  0  0  0  0  0
   52.1500  -34.4006   -2.5112 O   0  0  0  0  0  0  0  0  0  0  0  0
   49.3652  -29.9789   -1.8496 O   0  0  0  0  0  0  0  0  0  0  0  0
   55.1706  -37.2721   -0.3522 H   0  0  0  0  0  0  0  0  0  0  0  0
   57.3457  -37.1713   -3.6701 H   0  0  0  0  0  0  0  0  0  0  0  0
   41.8636  -42.8454   -5.0667 H   0  0  0  0  0  0  0  0  0  0  0  0
  1  2  1  0
  1 52  1  0
  2  3  1  0
  2  5  1  6
  3  4  2  0
  3 12  1  0
  5  6  1  0
  6  7  1  0
  7  8  1  0
  8  9  1  0
  9 10  1  0
  9 11  2  0
 12 13  1  0
 13 14  1  0
 13 16  1  1
 14 15  2  0
 14 23  1  0
 16 17  1  0
 17 18  1  0
 18 19  1  0
 19 20  1  0
 20 21  2  0
 20 22  1  0
 23 24  1  0
 24 25  1  6
 24 27  1  0
 25 26  2  0
 25 32  1  0
 27 28  1  0
 28 29  1  0
 29 30  1  0
 30 31  1  0
 31 56  1  0
 32 33  1  0
 33 34  1  0
 33 36  1  6
 34 35  2  0
 34 41  1  0
 36 37  1  0
 37 38  1  0
 38 39  1  0
 39 40  1  0
 41 42  1  0
 42 43  1  0
 43 44  2  0
 43 51  1  0
 44 45  1  0
 45 46  2  0
 46 47  1  0
 46 50  1  0
 47 48  1  0
 47 49  2  0
 50 51  2  0
 52 53  1  0
 52 57  2  0
 53 54  1  0
 54 55  1  0
 55 56  1  0
 56 58  2  0
 11 59  1  0
 21 60  1  0
 49 61  1  0
M  CHG  1  40   1
M  END
$$$$
