
     RDKit          3D

 61 62  0  0  0  0  0  0  0  0999 V2000
   52.7716  -33.1628   -4.1970 N   0  0  0  0  0  0  0  0  0  0  0  0
   52.5577  -34.4869   -3.6622 C   0  0  2  0  0  0  0  0  0  0  0  0
   51.8246  -35.4130   -4.5424 C   0  0  0  0  0  0  0  0  0  0  0  0
   52.6412  -35.9610   -5.4323 O   0  0  0  0  0  0  0  0  0  0  0  0
   52.1042  -34.4476   -2.2321 C   0  0  0  0  0  0  0  0  0  0  0  0
   52.3510  -35.7674   -1.5820 C   0  0  0  0  0  0  0  0  0  0  0  0
   53.0840  -36.7717   -2.4014 C   0  0  0  0  0  0  0  0  0  0  0  0
   54.4683  -36.9280   -1.9997 N   0  0  0  0  0  0  0  0  0  0  0  0
   55.0590  -38.2179   -2.0959 C   0  0  0  0  0  0  0  0  0  0  0  0
   55.0657  -38.9479   -3.3191 N   0  0  0  0  0  0  0  0  0  0  0  0
   55.6193  -38.7757   -1.0549 N   0  0  0  0  0  0  0  0  0  0  0  0
   50.5244  -35.8331   -4.6496 N   0  0  0  0  0  0  0  0  0  0  0  0
   49.3321  -35.3654   -5.3050 C   0  0  2  0  0  0  0  0  0  0  0  0
   49.0048  -36.2672   -6.4712 C   0  0  0  0  0  0  0  0  0  0  0  0
   49.6867  -37.3715   -6.4245 O   0  0  0  0  0  0  0  0  0  0  0  0
   49.1981  -33.9288   -5.5959 C   0  0  0  0  0  0  0  0  0  0  0  0
   49.1115  -32.9737   -4.4713 C   0  0  0  0  0  0  0  0  0  0  0  0
   48.7143  -33.7085   -3.1907 C   0  0  0  0  0  0  0  0  0  0  0  0
   49.7671  -33.3838   -2.2129 N   0  0  0  0  0  0  0  0  0  0  0  0
   49.5815  -32.2569   -1.3725 C   0  0  0  0  0  0  0  0  0  0  0  0
   48.9520  -32.4003   -0.2433 N   0  0  0  0  0  0  0  0  0  0  0  0
   50.0942  -31.0080   -1.8038 N   0  0  0  0  0  0  0  0  0  0  0  0
   48.1393  -36.1091   -7.5191 N   0  0  0  0  0  0  0  0  0  0  0  0
   48.0448  -35.2673   -8.6642 C   0  0  2  0  0  0  0  0  0  0  0  0
   47.7174  -36.1352   -9.8680 C   0  0  0  0  0  0  0  0  0  0  0  0
   48.6614  -36.7456  -10.4545 O   0  0  0  0  0  0  0  0  0  0  0  0
   49.2283  -34.4718   -9.0591 C   0  0  0  0  0  0  0  0  0  0  0  0
   50.4396  -35.3142   -9.3997 C   0  0  0  0  0  0  0  0  0  0  0  0
   51.6284  -34.3768   -9.5050 C   0  0  0  0  0  0  0  0  0  0  0  0
   52.7468  -35.0171   -8.7027 C   0  0  0  0  0  0  0  0  0  0  0  0
   53.9408  -34.9832   -9.5203 N   0  0  0  0  0  0  0  0  0  0  0  0
   46.4316  -36.3097  -10.3798 N   0  0  0  0  0  0  0  0  0  0  0  0
   45.5787  -37.4398   -9.9374 C   0  0  2  0  0  0  0  0  0  0  0  0
   44.4537  -37.5863  -10.8505 C   0  0  0  0  0  0  0  0  0  0  0  0
   44.0190  -36.5376  -11.4343 O   0  0  0  0  0  0  0  0  0  0  0  0
   45.2135  -37.2130   -8.4820 C   0  0  0  0  0  0  0  0  0  0  0  0
   45.1246  -38.5285   -7.7766 C   0  0  0  0  0  0  0  0  0  0  0  0
   44.7567  -38.2668   -6.3138 C   0  0  0  0  0  0  0  0  0  0  0  0
   43.9602  -39.4252   -5.8000 C   0  0  0  0  0  0  0  0  0  0  0  0
   43.6604  -39.1110   -4.3837 N   0  0  0  0  0  4  0  0  0  0  0  0
   43.7917  -38.8005  -11.1605 N   0  0  0  0  0  0  0  0  0  0  0  0
   44.4410  -40.0265  -11.5574 C   0  0  0  0  0  0  0  0  0  0  0  0
   43.9835  -40.5140  -12.8828 C   0  0  0  0  0  0  0  0  0  0  0  0
   43.1159  -39.7590  -13.6580 C   0  0  0  0  0  0  0  0  0  0  0  0
   42.7025  -40.2445  -14.8555 C   0  0  0  0  0  0  0  0  0  0  0  0
   43.1207  -41.4774  -15.3337 C   0  0  0  0  0  0  0  0  0  0  0  0
   42.6663  -41.9837  -16.6221 C   0  0  0  0  0  0  0  0  0  0  0  0
   41.6042  -41.3059  -17.2767 N   0  0  0  0  0  0  0  0  0  0  0  0
   43.2148  -43.0112  -17.1472 N   0  0  0  0  0  0  0  0  0  0  0  0
   43.9822  -42.2381  -14.5752 C   0  0  0  0  0  0  0  0  0  0  0  0
   44.4003  -41.7265  -13.3428 C   0  0  0  0  0  0  0  0  0  0  0  0
   53.6047  -32.8685   -5.3115 C   0  0  0  0  0  0  0  0  0  0  0  0
   55.0023  -33.2397   -5.4776 C   0  0  0  0  0  0  0  0  0  0  0  0
   55.3638  -34.0215   -6.6885 C   0  0  0  0  0  0  0  0  0  0  0  0
   55.1629  -33.3358   -7.9995 C   0  0  0  0  0  0  0  0  0  0  0  0
   55.1489  -34.4087   -9.0550 C   0  0  0  0  0  0  0  0  0  0  0  0
   53.0312  -32.2053   -6.2442 O   0  0  0  0  0  0  0  0  0  0  0  0
   56.2223  -34.8029   -9.5325 O   0  0  0  0  0  0  0  0  0  0  0  0
   55.3258  -38.5367   -0.0851 H   0  0  0  0  0  0  0  0  0  0  0  0
   49.5392  -32.6168    0.6005 H   0  0  0  0  0  0  0  0  0  0  0  0
   44.1170  -43.3511  -16.7774 H   0  0  0  0  0  0  0  0  0  0  0  0
  1  2  1  0
  1 52  1  0
  2  3  1  0
  2  5  1  1
  3  4  2  0
  3 12  1  0
  5  6  1  0
  6  7  1  0
  7  8  1  0
  8  9  1  0
  9 10  1  0
  9 11  2  0
 12 13  1  0
 13 14  1  0
 13 16  1  6
 14 15  2  0
 14 23  1  0
 16 17  1  0
 17 18  1  0
 18 19  1  0
 19 20  1  0
 20 21  2  0
 20 22  1  0
 23 24  1  0
 24 25  1  6
 24 27  1  0
 25 26  2  0
 25 32  1  0
 27 28  1  0
 28 29  1  0
 29 30  1  0
 30 31  1  0
 31 56  1  0
 32 33  1  0
 33 34  1  0
 33 36  1  1
 34 35  2  0
 34 41  1  0
 36 37  1  0
 37 38  1  0
 38 39  1  0
 39 40  1  0
 41 42  1  0
 42 43  1  0
 43 44  2  0
 43 51  1  0
 44 45  1  0
 45 46  2  0
 46 47  1  0
 46 50  1  0
 47 48  1  0
 47 49  2  0
 50 51  2  0
 52 53  1  0
 52 57  2  0
 53 54  1  0
 54 55  1  0
 55 56  1  0
 56 58  2  0
 11 59  1  0
 21 60  1  0
 49 61  1  0
M  CHG  1  40   1
M  END
$$$$
