
     RDKit          3D

 61 62  0  0  0  0  0  0  0  0999 V2000
   53.6379  -34.3057   -2.7634 N   0  0  0  0  0  0  0  0  0  0  0  0
   53.1515  -35.6040   -2.3600 C   0  0  2  0  0  0  0  0  0  0  0  0
   52.3749  -36.3321   -3.3781 C   0  0  0  0  0  0  0  0  0  0  0  0
   53.1810  -36.9557   -4.2269 O   0  0  0  0  0  0  0  0  0  0  0  0
   52.5589  -35.5773   -0.9814 C   0  0  0  0  0  0  0  0  0  0  0  0
   52.6674  -34.2052   -0.4059 C   0  0  0  0  0  0  0  0  0  0  0  0
   53.1010  -33.1354   -1.3464 C   0  0  0  0  0  0  0  0  0  0  0  0
   54.5410  -32.9737   -1.3942 N   0  0  0  0  0  0  0  0  0  0  0  0
   55.0843  -32.0123   -2.2902 C   0  0  0  0  0  0  0  0  0  0  0  0
   54.5342  -31.8047   -3.5877 N   0  0  0  0  0  0  0  0  0  0  0  0
   56.1134  -31.2838   -1.9451 N   0  0  0  0  0  0  0  0  0  0  0  0
   51.0424  -36.5137   -3.6429 N   0  0  0  0  0  0  0  0  0  0  0  0
   50.0217  -35.8067   -4.3697 C   0  0  2  0  0  0  0  0  0  0  0  0
   49.6779  -36.5630   -5.6306 C   0  0  0  0  0  0  0  0  0  0  0  0
   50.1587  -37.7691   -5.6080 O   0  0  0  0  0  0  0  0  0  0  0  0
   50.1593  -34.3531   -4.5554 C   0  0  0  0  0  0  0  0  0  0  0  0
   49.2978  -33.4443   -3.7703 C   0  0  0  0  0  0  0  0  0  0  0  0
   49.6871  -33.5014   -2.2928 C   0  0  0  0  0  0  0  0  0  0  0  0
   49.6610  -34.9308   -1.9381 N   0  0  0  0  0  0  0  0  0  0  0  0
   48.5833  -35.4100   -1.1509 C   0  0  0  0  0  0  0  0  0  0  0  0
   47.6018  -34.6083   -0.8578 N   0  0  0  0  0  0  0  0  0  0  0  0
   48.6223  -36.7566   -0.7107 N   0  0  0  0  0  0  0  0  0  0  0  0
   48.9688  -36.1919   -6.7405 N   0  0  0  0  0  0  0  0  0  0  0  0
   49.1391  -35.2758   -7.8178 C   0  0  2  0  0  0  0  0  0  0  0  0
   48.8048  -35.9964   -9.1134 C   0  0  0  0  0  0  0  0  0  0  0  0
   49.6314  -36.8413   -9.5722 O   0  0  0  0  0  0  0  0  0  0  0  0
   50.4734  -34.6734   -8.0322 C   0  0  0  0  0  0  0  0  0  0  0  0
   51.5584  -35.6892   -8.3219 C   0  0  0  0  0  0  0  0  0  0  0  0
   52.8901  -34.9664   -8.2370 C   0  0  0  0  0  0  0  0  0  0  0  0
   53.7940  -35.8397   -7.3855 C   0  0  0  0  0  0  0  0  0  0  0  0
   55.0584  -35.9609   -8.0795 N   0  0  0  0  0  0  0  0  0  0  0  0
   47.6342  -35.7900   -9.8435 N   0  0  0  0  0  0  0  0  0  0  0  0
   46.3799  -36.5013   -9.4957 C   0  0  2  0  0  0  0  0  0  0  0  0
   45.2869  -35.9847  -10.3077 C   0  0  0  0  0  0  0  0  0  0  0  0
   45.2432  -34.7264  -10.5178 O   0  0  0  0  0  0  0  0  0  0  0  0
   46.1822  -36.4013   -7.9944 C   0  0  0  0  0  0  0  0  0  0  0  0
   46.0842  -37.7739   -7.4091 C   0  0  0  0  0  0  0  0  0  0  0  0
   45.2117  -37.7009   -6.1533 C   0  0  0  0  0  0  0  0  0  0  0  0
   43.8644  -38.2730   -6.4658 C   0  0  0  0  0  0  0  0  0  0  0  0
   43.8041  -39.5718   -5.7559 N   0  0  0  0  0  4  0  0  0  0  0  0
   44.2575  -36.7587  -10.8993 N   0  0  0  0  0  0  0  0  0  0  0  0
   43.9767  -36.8318  -12.3128 C   0  0  0  0  0  0  0  0  0  0  0  0
   45.1367  -37.3156  -13.1029 C   0  0  0  0  0  0  0  0  0  0  0  0
   45.9989  -36.4222  -13.7211 C   0  0  0  0  0  0  0  0  0  0  0  0
   47.0372  -36.8998  -14.4520 C   0  0  0  0  0  0  0  0  0  0  0  0
   47.2673  -38.2593  -14.6028 C   0  0  0  0  0  0  0  0  0  0  0  0
   48.3873  -38.7548  -15.3920 C   0  0  0  0  0  0  0  0  0  0  0  0
   49.4487  -37.8610  -15.6923 N   0  0  0  0  0  0  0  0  0  0  0  0
   48.4103  -39.9656  -15.7995 N   0  0  0  0  0  0  0  0  0  0  0  0
   46.4197  -39.1582  -13.9948 C   0  0  0  0  0  0  0  0  0  0  0  0
   45.3532  -38.6529  -13.2447 C   0  0  0  0  0  0  0  0  0  0  0  0
   54.6237  -34.0899   -3.7657 C   0  0  0  0  0  0  0  0  0  0  0  0
   55.9504  -34.6857   -3.8265 C   0  0  0  0  0  0  0  0  0  0  0  0
   56.3063  -35.4402   -5.0562 C   0  0  0  0  0  0  0  0  0  0  0  0
   56.3645  -34.6487   -6.3209 C   0  0  0  0  0  0  0  0  0  0  0  0
   56.2874  -35.6343   -7.4559 C   0  0  0  0  0  0  0  0  0  0  0  0
   54.2719  -33.2801   -4.6925 O   0  0  0  0  0  0  0  0  0  0  0  0
   57.3261  -36.1770   -7.8586 O   0  0  0  0  0  0  0  0  0  0  0  0
   56.5709  -31.3930   -1.0164 H   0  0  0  0  0  0  0  0  0  0  0  0
   47.4578  -33.7856   -1.4950 H   0  0  0  0  0  0  0  0  0  0  0  0
   49.2516  -40.3253  -16.2779 H   0  0  0  0  0  0  0  0  0  0  0  0
  1  2  1  0
  1 52  1  0
  2  3  1  0
  2  5  1  1
  3  4  2  0
  3 12  1  0
  5  6  1  0
  6  7  1  0
  7  8  1  0
  8  9  1  0
  9 10  1  0
  9 11  2  0
 12 13  1  0
 13 14  1  0
 13 16  1  6
 14 15  2  0
 14 23  1  0
 16 17  1  0
 17 18  1  0
 18 19  1  0
 19 20  1  0
 20 21  2  0
 20 22  1  0
 23 24  1  0
 24 25  1  6
 24 27  1  0
 25 26  2  0
 25 32  1  0
 27 28  1  0
 28 29  1  0
 29 30  1  0
 30 31  1  0
 31 56  1  0
 32 33  1  0
 33 34  1  0
 33 36  1  1
 34 35  2  0
 34 41  1  0
 36 37  1  0
 37 38  1  0
 38 39  1  0
 39 40  1  0
 41 42  1  0
 42 43  1  0
 43 44  2  0
 43 51  1  0
 44 45  1  0
 45 46  2  0
 46 47  1  0
 46 50  1  0
 47 48  1  0
 47 49  2  0
 50 51  2  0
 52 53  1  0
 52 57  2  0
 53 54  1  0
 54 55  1  0
 55 56  1  0
 56 58  2  0
 11 59  1  0
 21 60  1  0
 49 61  1  0
M  CHG  1  40   1
M  END
$$$$
