
     RDKit          3D

 61 62  0  0  0  0  0  0  0  0999 V2000
   52.7294  -33.6519   -3.9185 N   0  0  0  0  0  0  0  0  0  0  0  0
   52.2413  -34.7919   -3.1789 C   0  0  2  0  0  0  0  0  0  0  0  0
   51.5203  -35.8001   -3.9750 C   0  0  0  0  0  0  0  0  0  0  0  0
   52.3715  -36.6204   -4.5763 O   0  0  0  0  0  0  0  0  0  0  0  0
   51.5868  -34.3861   -1.8907 C   0  0  0  0  0  0  0  0  0  0  0  0
   52.2425  -33.1604   -1.3492 C   0  0  0  0  0  0  0  0  0  0  0  0
   53.6731  -32.9695   -1.7154 C   0  0  0  0  0  0  0  0  0  0  0  0
   54.5869  -33.4809   -0.7127 N   0  0  0  0  0  0  0  0  0  0  0  0
   55.9832  -33.3078   -0.9189 C   0  0  0  0  0  0  0  0  0  0  0  0
   56.8483  -34.4162   -1.1473 N   0  0  0  0  0  0  0  0  0  0  0  0
   56.5179  -32.1151   -0.9056 N   0  0  0  0  0  0  0  0  0  0  0  0
   50.2035  -36.0827   -4.2291 N   0  0  0  0  0  0  0  0  0  0  0  0
   49.2080  -35.6389   -5.1682 C   0  0  2  0  0  0  0  0  0  0  0  0
   48.9307  -36.7329   -6.1714 C   0  0  0  0  0  0  0  0  0  0  0  0
   49.4248  -37.8698   -5.7843 O   0  0  0  0  0  0  0  0  0  0  0  0
   49.3360  -34.2964   -5.7579 C   0  0  0  0  0  0  0  0  0  0  0  0
   49.8284  -33.1862   -4.9156 C   0  0  0  0  0  0  0  0  0  0  0  0
   49.2500  -33.3038   -3.5052 C   0  0  0  0  0  0  0  0  0  0  0  0
   49.8206  -32.1721   -2.7547 N   0  0  0  0  0  0  0  0  0  0  0  0
   50.0227  -32.3225   -1.3593 C   0  0  0  0  0  0  0  0  0  0  0  0
   51.2346  -32.4217   -0.8974 N   0  0  0  0  0  0  0  0  0  0  0  0
   48.8830  -32.3602   -0.5176 N   0  0  0  0  0  0  0  0  0  0  0  0
   48.2679  -36.7129   -7.3684 N   0  0  0  0  0  0  0  0  0  0  0  0
   48.4754  -36.1398   -8.6557 C   0  0  2  0  0  0  0  0  0  0  0  0
   48.2087  -37.2093   -9.7020 C   0  0  0  0  0  0  0  0  0  0  0  0
   48.6041  -38.3931   -9.4785 O   0  0  0  0  0  0  0  0  0  0  0  0
   49.8105  -35.5912   -8.9810 C   0  0  0  0  0  0  0  0  0  0  0  0
   50.9198  -36.6203   -8.9234 C   0  0  0  0  0  0  0  0  0  0  0  0
   52.2374  -35.8708   -8.9969 C   0  0  0  0  0  0  0  0  0  0  0  0
   53.1126  -36.4410   -7.8953 C   0  0  0  0  0  0  0  0  0  0  0  0
   54.4084  -36.7247   -8.4746 N   0  0  0  0  0  0  0  0  0  0  0  0
   47.5490  -36.9756  -10.9087 N   0  0  0  0  0  0  0  0  0  0  0  0
   46.2844  -36.2016  -10.9521 C   0  0  2  0  0  0  0  0  0  0  0  0
   45.1714  -37.0680  -10.5894 C   0  0  0  0  0  0  0  0  0  0  0  0
   44.0530  -36.5180  -10.3133 O   0  0  0  0  0  0  0  0  0  0  0  0
   46.1819  -35.5425  -12.3151 C   0  0  0  0  0  0  0  0  0  0  0  0
   47.2858  -34.5464  -12.4746 C   0  0  0  0  0  0  0  0  0  0  0  0
   46.9406  -33.6289  -13.6505 C   0  0  0  0  0  0  0  0  0  0  0  0
   47.1982  -34.3629  -14.9293 C   0  0  0  0  0  0  0  0  0  0  0  0
   47.4078  -33.3177  -15.9580 N   0  0  0  0  0  4  0  0  0  0  0  0
   45.2123  -38.4830  -10.5194 N   0  0  0  0  0  0  0  0  0  0  0  0
   44.0999  -39.3330  -10.1700 C   0  0  0  0  0  0  0  0  0  0  0  0
   44.0322  -39.6188   -8.7148 C   0  0  0  0  0  0  0  0  0  0  0  0
   43.8175  -38.5998   -7.7987 C   0  0  0  0  0  0  0  0  0  0  0  0
   43.7814  -38.8943   -6.4750 C   0  0  0  0  0  0  0  0  0  0  0  0
   43.9528  -40.1875   -6.0038 C   0  0  0  0  0  0  0  0  0  0  0  0
   43.9116  -40.4858   -4.5783 C   0  0  0  0  0  0  0  0  0  0  0  0
   43.4740  -39.4694   -3.6888 N   0  0  0  0  0  0  0  0  0  0  0  0
   44.2594  -41.6361   -4.1443 N   0  0  0  0  0  0  0  0  0  0  0  0
   44.1668  -41.2096   -6.9015 C   0  0  0  0  0  0  0  0  0  0  0  0
   44.2020  -40.8926   -8.2630 C   0  0  0  0  0  0  0  0  0  0  0  0
   53.7566  -33.7079   -4.9006 C   0  0  0  0  0  0  0  0  0  0  0  0
   55.0919  -34.2632   -4.7350 C   0  0  0  0  0  0  0  0  0  0  0  0
   55.5122  -35.3292   -5.6812 C   0  0  0  0  0  0  0  0  0  0  0  0
   55.6176  -34.9319   -7.1166 C   0  0  0  0  0  0  0  0  0  0  0  0
   55.6039  -36.2029   -7.9228 C   0  0  0  0  0  0  0  0  0  0  0  0
   53.4371  -33.2065   -6.0342 O   0  0  0  0  0  0  0  0  0  0  0  0
   56.6663  -36.8124   -8.1111 O   0  0  0  0  0  0  0  0  0  0  0  0
   57.5405  -31.9782   -0.7668 H   0  0  0  0  0  0  0  0  0  0  0  0
   51.7960  -31.5350   -0.8502 H   0  0  0  0  0  0  0  0  0  0  0  0
   45.1273  -41.7307   -3.5930 H   0  0  0  0  0  0  0  0  0  0  0  0
  1  2  1  0
  1 52  1  0
  2  3  1  0
  2  5  1  1
  3  4  2  0
  3 12  1  0
  5  6  1  0
  6  7  1  0
  7  8  1  0
  8  9  1  0
  9 10  1  0
  9 11  2  0
 12 13  1  0
 13 14  1  0
 13 16  1  6
 14 15  2  0
 14 23  1  0
 16 17  1  0
 17 18  1  0
 18 19  1  0
 19 20  1  0
 20 21  2  0
 20 22  1  0
 23 24  1  0
 24 25  1  6
 24 27  1  0
 25 26  2  0
 25 32  1  0
 27 28  1  0
 28 29  1  0
 29 30  1  0
 30 31  1  0
 31 56  1  0
 32 33  1  0
 33 34  1  0
 33 36  1  6
 34 35  2  0
 34 41  1  0
 36 37  1  0
 37 38  1  0
 38 39  1  0
 39 40  1  0
 41 42  1  0
 42 43  1  0
 43 44  2  0
 43 51  1  0
 44 45  1  0
 45 46  2  0
 46 47  1  0
 46 50  1  0
 47 48  1  0
 47 49  2  0
 50 51  2  0
 52 53  1  0
 52 57  2  0
 53 54  1  0
 54 55  1  0
 55 56  1  0
 56 58  2  0
 11 59  1  0
 21 60  1  0
 49 61  1  0
M  CHG  1  40   1
M  END
$$$$
