
     RDKit          3D

 61 62  0  0  0  0  0  0  0  0999 V2000
   52.4956  -34.3330   -4.2631 N   0  0  0  0  0  0  0  0  0  0  0  0
   52.0949  -35.4696   -3.4679 C   0  0  2  0  0  0  0  0  0  0  0  0
   51.0940  -36.3541   -4.0892 C   0  0  0  0  0  0  0  0  0  0  0  0
   51.6740  -37.2075   -4.9225 O   0  0  0  0  0  0  0  0  0  0  0  0
   51.8351  -35.0908   -2.0391 C   0  0  0  0  0  0  0  0  0  0  0  0
   52.9293  -34.2091   -1.5380 C   0  0  0  0  0  0  0  0  0  0  0  0
   54.1713  -34.1797   -2.3586 C   0  0  0  0  0  0  0  0  0  0  0  0
   53.9289  -33.8075   -3.7388 N   0  0  0  0  0  0  0  0  0  0  0  0
   55.0436  -33.4676   -4.5536 C   0  0  0  0  0  0  0  0  0  0  0  0
   56.3751  -33.4941   -4.0479 N   0  0  0  0  0  0  0  0  0  0  0  0
   54.8770  -33.1186   -5.8023 N   0  0  0  0  0  0  0  0  0  0  0  0
   49.7338  -36.4987   -4.0043 N   0  0  0  0  0  0  0  0  0  0  0  0
   48.5845  -35.9060   -4.6351 C   0  0  2  0  0  0  0  0  0  0  0  0
   47.9487  -36.9026   -5.5746 C   0  0  0  0  0  0  0  0  0  0  0  0
   48.4032  -38.1025   -5.3740 O   0  0  0  0  0  0  0  0  0  0  0  0
   48.6982  -34.5452   -5.1842 C   0  0  0  0  0  0  0  0  0  0  0  0
   48.4894  -33.3892   -4.2872 C   0  0  0  0  0  0  0  0  0  0  0  0
   48.7281  -33.8045   -2.8352 C   0  0  0  0  0  0  0  0  0  0  0  0
   50.0704  -34.4107   -2.8191 N   0  0  0  0  0  0  0  0  0  0  0  0
   50.5459  -34.9623   -1.6025 C   0  0  0  0  0  0  0  0  0  0  0  0
   51.4269  -35.9188   -1.6372 N   0  0  0  0  0  0  0  0  0  0  0  0
   50.0346  -34.4435   -0.3867 N   0  0  0  0  0  0  0  0  0  0  0  0
   47.0095  -36.7445   -6.5571 N   0  0  0  0  0  0  0  0  0  0  0  0
   46.9420  -36.1100   -7.8305 C   0  0  2  0  0  0  0  0  0  0  0  0
   46.3080  -37.0804   -8.8134 C   0  0  0  0  0  0  0  0  0  0  0  0
   46.0856  -38.2708   -8.4376 O   0  0  0  0  0  0  0  0  0  0  0  0
   48.2006  -35.6650   -8.4687 C   0  0  0  0  0  0  0  0  0  0  0  0
   49.1743  -36.7922   -8.7414 C   0  0  0  0  0  0  0  0  0  0  0  0
   50.5009  -36.1624   -9.1241 C   0  0  0  0  0  0  0  0  0  0  0  0
   51.5625  -36.8803   -8.3104 C   0  0  0  0  0  0  0  0  0  0  0  0
   52.6317  -37.2423   -9.2165 N   0  0  0  0  0  0  0  0  0  0  0  0
   45.9482  -36.7474  -10.1193 N   0  0  0  0  0  0  0  0  0  0  0  0
   45.3121  -37.7436  -11.0155 C   0  0  2  0  0  0  0  0  0  0  0  0
   45.0996  -37.1505  -12.3286 C   0  0  0  0  0  0  0  0  0  0  0  0
   44.3108  -36.1503  -12.4105 O   0  0  0  0  0  0  0  0  0  0  0  0
   44.0662  -38.2693  -10.3268 C   0  0  0  0  0  0  0  0  0  0  0  0
   44.1767  -38.0465   -8.8523 C   0  0  0  0  0  0  0  0  0  0  0  0
   44.0464  -39.4002   -8.1494 C   0  0  0  0  0  0  0  0  0  0  0  0
   42.8678  -39.3560   -7.2278 C   0  0  0  0  0  0  0  0  0  0  0  0
   43.0753  -40.4546   -6.2560 N   0  0  0  0  0  4  0  0  0  0  0  0
   45.6989  -37.5814  -13.5385 N   0  0  0  0  0  0  0  0  0  0  0  0
   45.7440  -38.9454  -14.0071 C   0  0  0  0  0  0  0  0  0  0  0  0
   47.1165  -39.5111  -13.9923 C   0  0  0  0  0  0  0  0  0  0  0  0
   47.9847  -39.2998  -15.0531 C   0  0  0  0  0  0  0  0  0  0  0  0
   49.2248  -39.8485  -15.0150 C   0  0  0  0  0  0  0  0  0  0  0  0
   49.6565  -40.6181  -13.9449 C   0  0  0  0  0  0  0  0  0  0  0  0
   50.9919  -41.2003  -13.9207 C   0  0  0  0  0  0  0  0  0  0  0  0
   51.7697  -41.1536  -15.1076 N   0  0  0  0  0  0  0  0  0  0  0  0
   51.4483  -41.7366  -12.8546 N   0  0  0  0  0  0  0  0  0  0  0  0
   48.8056  -40.8364  -12.8845 C   0  0  0  0  0  0  0  0  0  0  0  0
   47.5301  -40.2655  -12.9363 C   0  0  0  0  0  0  0  0  0  0  0  0
   53.2281  -34.4180   -5.4793 C   0  0  0  0  0  0  0  0  0  0  0  0
   54.4960  -35.1019   -5.6875 C   0  0  0  0  0  0  0  0  0  0  0  0
   54.5484  -36.1379   -6.7516 C   0  0  0  0  0  0  0  0  0  0  0  0
   54.3268  -35.6591   -8.1484 C   0  0  0  0  0  0  0  0  0  0  0  0
   53.9760  -36.8683   -8.9732 C   0  0  0  0  0  0  0  0  0  0  0  0
   52.6855  -33.8168   -6.4705 O   0  0  0  0  0  0  0  0  0  0  0  0
   54.8860  -37.5583   -9.4543 O   0  0  0  0  0  0  0  0  0  0  0  0
   55.5353  -33.4284   -6.5468 H   0  0  0  0  0  0  0  0  0  0  0  0
   51.3287  -36.6232   -2.4103 H   0  0  0  0  0  0  0  0  0  0  0  0
   51.1376  -42.6846  -12.5888 H   0  0  0  0  0  0  0  0  0  0  0  0
  1  2  1  0
  1 52  1  0
  2  3  1  0
  2  5  1  1
  3  4  2  0
  3 12  1  0
  5  6  1  0
  6  7  1  0
  7  8  1  0
  8  9  1  0
  9 10  1  0
  9 11  2  0
 12 13  1  0
 13 14  1  0
 13 16  1  6
 14 15  2  0
 14 23  1  0
 16 17  1  0
 17 18  1  0
 18 19  1  0
 19 20  1  0
 20 21  2  0
 20 22  1  0
 23 24  1  0
 24 25  1  6
 24 27  1  0
 25 26  2  0
 25 32  1  0
 27 28  1  0
 28 29  1  0
 29 30  1  0
 30 31  1  0
 31 56  1  0
 32 33  1  0
 33 34  1  0
 33 36  1  1
 34 35  2  0
 34 41  1  0
 36 37  1  0
 37 38  1  0
 38 39  1  0
 39 40  1  0
 41 42  1  0
 42 43  1  0
 43 44  2  0
 43 51  1  0
 44 45  1  0
 45 46  2  0
 46 47  1  0
 46 50  1  0
 47 48  1  0
 47 49  2  0
 50 51  2  0
 52 53  1  0
 52 57  2  0
 53 54  1  0
 54 55  1  0
 55 56  1  0
 56 58  2  0
 11 59  1  0
 21 60  1  0
 49 61  1  0
M  CHG  1  40   1
M  END
$$$$
