
     RDKit          3D

 61 62  0  0  0  0  0  0  0  0999 V2000
   51.5451  -33.8727   -5.9730 N   0  0  0  0  0  0  0  0  0  0  0  0
   50.6673  -34.7536   -5.2393 C   0  0  2  0  0  0  0  0  0  0  0  0
   49.8986  -35.7060   -6.0589 C   0  0  0  0  0  0  0  0  0  0  0  0
   50.6328  -36.7700   -6.3557 O   0  0  0  0  0  0  0  0  0  0  0  0
   49.8886  -34.0201   -4.1866 C   0  0  0  0  0  0  0  0  0  0  0  0
   50.8170  -33.2490   -3.3097 C   0  0  0  0  0  0  0  0  0  0  0  0
   51.8311  -34.0492   -2.5692 C   0  0  0  0  0  0  0  0  0  0  0  0
   51.3207  -35.3277   -2.1142 N   0  0  0  0  0  0  0  0  0  0  0  0
   52.1513  -36.1316   -1.2859 C   0  0  0  0  0  0  0  0  0  0  0  0
   51.6049  -37.0058   -0.3028 N   0  0  0  0  0  0  0  0  0  0  0  0
   53.4524  -36.0918   -1.4047 N   0  0  0  0  0  0  0  0  0  0  0  0
   48.6279  -35.7482   -6.5707 N   0  0  0  0  0  0  0  0  0  0  0  0
   47.9680  -35.2655   -7.7546 C   0  0  2  0  0  0  0  0  0  0  0  0
   47.6417  -36.4255   -8.6646 C   0  0  0  0  0  0  0  0  0  0  0  0
   47.7685  -37.5625   -8.0501 O   0  0  0  0  0  0  0  0  0  0  0  0
   48.5214  -34.0908   -8.4475 C   0  0  0  0  0  0  0  0  0  0  0  0
   49.3282  -33.1187   -7.6803 C   0  0  0  0  0  0  0  0  0  0  0  0
   50.2209  -33.8541   -6.6802 C   0  0  0  0  0  0  0  0  0  0  0  0
   49.9057  -33.2625   -5.3686 N   0  0  0  0  0  0  0  0  0  0  0  0
   50.1028  -34.0532   -4.2081 C   0  0  0  0  0  0  0  0  0  0  0  0
   49.9167  -35.3389   -4.2733 N   0  0  0  0  0  0  0  0  0  0  0  0
   50.4973  -33.4018   -3.0128 N   0  0  0  0  0  0  0  0  0  0  0  0
   47.2489  -36.4618   -9.9749 N   0  0  0  0  0  0  0  0  0  0  0  0
   47.8327  -36.1582  -11.2381 C   0  0  2  0  0  0  0  0  0  0  0  0
   47.5307  -37.3036  -12.1902 C   0  0  0  0  0  0  0  0  0  0  0  0
   48.3061  -37.4993  -13.1741 O   0  0  0  0  0  0  0  0  0  0  0  0
   49.2966  -35.9561  -11.3127 C   0  0  0  0  0  0  0  0  0  0  0  0
   50.0989  -37.1689  -10.8901 C   0  0  0  0  0  0  0  0  0  0  0  0
   51.5442  -36.7289  -10.7477 C   0  0  0  0  0  0  0  0  0  0  0  0
   52.0281  -37.2827   -9.4197 C   0  0  0  0  0  0  0  0  0  0  0  0
   53.3078  -37.9166   -9.6551 N   0  0  0  0  0  0  0  0  0  0  0  0
   46.4440  -38.1675  -12.0545 N   0  0  0  0  0  0  0  0  0  0  0  0
   45.3556  -37.8822  -11.0880 C   0  0  2  0  0  0  0  0  0  0  0  0
   44.8612  -39.1330  -10.5294 C   0  0  0  0  0  0  0  0  0  0  0  0
   44.8018  -40.1483  -11.3008 O   0  0  0  0  0  0  0  0  0  0  0  0
   44.3178  -37.0235  -11.7870 C   0  0  0  0  0  0  0  0  0  0  0  0
   44.0432  -37.5777  -13.1485 C   0  0  0  0  0  0  0  0  0  0  0  0
   44.4587  -36.5323  -14.1868 C   0  0  0  0  0  0  0  0  0  0  0  0
   45.8050  -36.8974  -14.7297 C   0  0  0  0  0  0  0  0  0  0  0  0
   46.0643  -35.9469  -15.8358 N   0  0  0  0  0  4  0  0  0  0  0  0
   44.4403  -39.3328   -9.1909 N   0  0  0  0  0  0  0  0  0  0  0  0
   43.9910  -38.2952   -8.2944 C   0  0  0  0  0  0  0  0  0  0  0  0
   44.4106  -38.5304   -6.8899 C   0  0  0  0  0  0  0  0  0  0  0  0
   45.7204  -38.3076   -6.4918 C   0  0  0  0  0  0  0  0  0  0  0  0
   46.0735  -38.5522   -5.2050 C   0  0  0  0  0  0  0  0  0  0  0  0
   45.1637  -39.0201   -4.2684 C   0  0  0  0  0  0  0  0  0  0  0  0
   45.5604  -39.2779   -2.8904 C   0  0  0  0  0  0  0  0  0  0  0  0
   46.9035  -39.6617   -2.6356 N   0  0  0  0  0  0  0  0  0  0  0  0
   44.7175  -39.1580   -1.9378 N   0  0  0  0  0  0  0  0  0  0  0  0
   43.8598  -39.2458   -4.6491 C   0  0  0  0  0  0  0  0  0  0  0  0
   43.5089  -38.9902   -5.9783 C   0  0  0  0  0  0  0  0  0  0  0  0
   52.7014  -34.2963   -6.6845 C   0  0  0  0  0  0  0  0  0  0  0  0
   53.8094  -35.0809   -6.1597 C   0  0  0  0  0  0  0  0  0  0  0  0
   54.1428  -36.3485   -6.8599 C   0  0  0  0  0  0  0  0  0  0  0  0
   54.6168  -36.2173   -8.2697 C   0  0  0  0  0  0  0  0  0  0  0  0
   54.4614  -37.5707   -8.9096 C   0  0  0  0  0  0  0  0  0  0  0  0
   52.7366  -33.9284   -7.9101 O   0  0  0  0  0  0  0  0  0  0  0  0
   55.3659  -38.4083   -8.7827 O   0  0  0  0  0  0  0  0  0  0  0  0
   54.0725  -36.6669   -0.7977 H   0  0  0  0  0  0  0  0  0  0  0  0
   50.0373  -35.8794   -3.3806 H   0  0  0  0  0  0  0  0  0  0  0  0
   43.7238  -38.9832   -2.1568 H   0  0  0  0  0  0  0  0  0  0  0  0
  1  2  1  0
  1 52  1  0
  2  3  1  0
  2  5  1  6
  3  4  2  0
  3 12  1  0
  5  6  1  0
  6  7  1  0
  7  8  1  0
  8  9  1  0
  9 10  1  0
  9 11  2  0
 12 13  1  0
 13 14  1  0
 13 16  1  6
 14 15  2  0
 14 23  1  0
 16 17  1  0
 17 18  1  0
 18 19  1  0
 19 20  1  0
 20 21  2  0
 20 22  1  0
 23 24  1  0
 24 25  1  6
 24 27  1  0
 25 26  2  0
 25 32  1  0
 27 28  1  0
 28 29  1  0
 29 30  1  0
 30 31  1  0
 31 56  1  0
 32 33  1  0
 33 34  1  0
 33 36  1  6
 34 35  2  0
 34 41  1  0
 36 37  1  0
 37 38  1  0
 38 39  1  0
 39 40  1  0
 41 42  1  0
 42 43  1  0
 43 44  2  0
 43 51  1  0
 44 45  1  0
 45 46  2  0
 46 47  1  0
 46 50  1  0
 47 48  1  0
 47 49  2  0
 50 51  2  0
 52 53  1  0
 52 57  2  0
 53 54  1  0
 54 55  1  0
 55 56  1  0
 56 58  2  0
 11 59  1  0
 21 60  1  0
 49 61  1  0
M  CHG  1  40   1
M  END
$$$$
