
     RDKit          3D

 61 62  0  0  0  0  0  0  0  0999 V2000
   53.1821  -34.6452   -4.0233 N   0  0  0  0  0  0  0  0  0  0  0  0
   52.4761  -35.4923   -3.0912 C   0  0  2  0  0  0  0  0  0  0  0  0
   51.2090  -36.0578   -3.5858 C   0  0  0  0  0  0  0  0  0  0  0  0
   51.4322  -37.1398   -4.3196 O   0  0  0  0  0  0  0  0  0  0  0  0
   52.4326  -34.8967   -1.7143 C   0  0  0  0  0  0  0  0  0  0  0  0
   53.5213  -33.8885   -1.5599 C   0  0  0  0  0  0  0  0  0  0  0  0
   54.6149  -33.9490   -2.5686 C   0  0  0  0  0  0  0  0  0  0  0  0
   55.5426  -32.8398   -2.4646 N   0  0  0  0  0  0  0  0  0  0  0  0
   56.8651  -33.0156   -2.9568 C   0  0  0  0  0  0  0  0  0  0  0  0
   57.7943  -33.8811   -2.3113 N   0  0  0  0  0  0  0  0  0  0  0  0
   57.2696  -32.3826   -4.0266 N   0  0  0  0  0  0  0  0  0  0  0  0
   49.8829  -35.7343   -3.4628 N   0  0  0  0  0  0  0  0  0  0  0  0
   48.9576  -34.8669   -4.1419 C   0  0  2  0  0  0  0  0  0  0  0  0
   47.9809  -35.6926   -4.9448 C   0  0  0  0  0  0  0  0  0  0  0  0
   48.0289  -36.9461   -4.6087 O   0  0  0  0  0  0  0  0  0  0  0  0
   49.4793  -33.6881   -4.8523 C   0  0  0  0  0  0  0  0  0  0  0  0
   49.9829  -32.5415   -4.0673 C   0  0  0  0  0  0  0  0  0  0  0  0
   49.2804  -32.4880   -2.7104 C   0  0  0  0  0  0  0  0  0  0  0  0
   50.3625  -32.4040   -1.7146 N   0  0  0  0  0  0  0  0  0  0  0  0
   51.2012  -31.2607   -1.7261 C   0  0  0  0  0  0  0  0  0  0  0  0
   51.7485  -30.8601   -0.6161 N   0  0  0  0  0  0  0  0  0  0  0  0
   51.4091  -30.5947   -2.9598 N   0  0  0  0  0  0  0  0  0  0  0  0
   47.0928  -35.3401   -5.9242 N   0  0  0  0  0  0  0  0  0  0  0  0
   47.1669  -34.8608   -7.2634 C   0  0  2  0  0  0  0  0  0  0  0  0
   46.1982  -35.6672   -8.1125 C   0  0  0  0  0  0  0  0  0  0  0  0
   44.9691  -35.6680   -7.8010 O   0  0  0  0  0  0  0  0  0  0  0  0
   48.4650  -34.9288   -7.9702 C   0  0  0  0  0  0  0  0  0  0  0  0
   49.0008  -36.3371   -8.1209 C   0  0  0  0  0  0  0  0  0  0  0  0
   50.4374  -36.2268   -8.5973 C   0  0  0  0  0  0  0  0  0  0  0  0
   51.2491  -37.1628   -7.7201 C   0  0  0  0  0  0  0  0  0  0  0  0
   52.0904  -37.9537   -8.5929 N   0  0  0  0  0  0  0  0  0  0  0  0
   46.5728  -36.4174   -9.2272 N   0  0  0  0  0  0  0  0  0  0  0  0
   46.3773  -35.8954  -10.6018 C   0  0  2  0  0  0  0  0  0  0  0  0
   46.5452  -36.9780  -11.5614 C   0  0  0  0  0  0  0  0  0  0  0  0
   47.2978  -37.9551  -11.2323 O   0  0  0  0  0  0  0  0  0  0  0  0
   47.3011  -34.7063  -10.7902 C   0  0  0  0  0  0  0  0  0  0  0  0
   48.7223  -35.1470  -10.6415 C   0  0  0  0  0  0  0  0  0  0  0  0
   49.6291  -34.0430  -11.1915 C   0  0  0  0  0  0  0  0  0  0  0  0
   51.0559  -34.4722  -11.0487 C   0  0  0  0  0  0  0  0  0  0  0  0
   51.7998  -33.7564  -12.1110 N   0  0  0  0  0  4  0  0  0  0  0  0
   45.9387  -37.0523  -12.8402 N   0  0  0  0  0  0  0  0  0  0  0  0
   44.6448  -37.6279  -13.1172 C   0  0  0  0  0  0  0  0  0  0  0  0
   44.6738  -39.1117  -13.1540 C   0  0  0  0  0  0  0  0  0  0  0  0
   45.8513  -39.8064  -12.9203 C   0  0  0  0  0  0  0  0  0  0  0  0
   45.8456  -41.1615  -12.9817 C   0  0  0  0  0  0  0  0  0  0  0  0
   44.6953  -41.8803  -13.2718 C   0  0  0  0  0  0  0  0  0  0  0  0
   44.7073  -43.3359  -13.3342 C   0  0  0  0  0  0  0  0  0  0  0  0
   43.5701  -43.9976  -13.8677 N   0  0  0  0  0  0  0  0  0  0  0  0
   45.7197  -43.9962  -12.9199 N   0  0  0  0  0  0  0  0  0  0  0  0
   43.5187  -41.2042  -13.5060 C   0  0  0  0  0  0  0  0  0  0  0  0
   43.5383  -39.8076  -13.4400 C   0  0  0  0  0  0  0  0  0  0  0  0
   53.7792  -35.0988   -5.2319 C   0  0  0  0  0  0  0  0  0  0  0  0
   54.7409  -36.1818   -5.3764 C   0  0  0  0  0  0  0  0  0  0  0  0
   54.3941  -37.2855   -6.3091 C   0  0  0  0  0  0  0  0  0  0  0  0
   54.2651  -36.9145   -7.7496 C   0  0  0  0  0  0  0  0  0  0  0  0
   53.4943  -38.0214   -8.4175 C   0  0  0  0  0  0  0  0  0  0  0  0
   53.4094  -34.4630   -6.2795 O   0  0  0  0  0  0  0  0  0  0  0  0
   54.1015  -39.0212   -8.8265 O   0  0  0  0  0  0  0  0  0  0  0  0
   57.9889  -31.6318   -3.9758 H   0  0  0  0  0  0  0  0  0  0  0  0
   52.2396  -29.9318   -0.6400 H   0  0  0  0  0  0  0  0  0  0  0  0
   46.5689  -44.0456  -13.5051 H   0  0  0  0  0  0  0  0  0  0  0  0
  1  2  1  0
  1 52  1  0
  2  3  1  0
  2  5  1  1
  3  4  2  0
  3 12  1  0
  5  6  1  0
  6  7  1  0
  7  8  1  0
  8  9  1  0
  9 10  1  0
  9 11  2  0
 12 13  1  0
 13 14  1  0
 13 16  1  6
 14 15  2  0
 14 23  1  0
 16 17  1  0
 17 18  1  0
 18 19  1  0
 19 20  1  0
 20 21  2  0
 20 22  1  0
 23 24  1  0
 24 25  1  6
 24 27  1  0
 25 26  2  0
 25 32  1  0
 27 28  1  0
 28 29  1  0
 29 30  1  0
 30 31  1  0
 31 56  1  0
 32 33  1  0
 33 34  1  0
 33 36  1  6
 34 35  2  0
 34 41  1  0
 36 37  1  0
 37 38  1  0
 38 39  1  0
 39 40  1  0
 41 42  1  0
 42 43  1  0
 43 44  2  0
 43 51  1  0
 44 45  1  0
 45 46  2  0
 46 47  1  0
 46 50  1  0
 47 48  1  0
 47 49  2  0
 50 51  2  0
 52 53  1  0
 52 57  2  0
 53 54  1  0
 54 55  1  0
 55 56  1  0
 56 58  2  0
 11 59  1  0
 21 60  1  0
 49 61  1  0
M  CHG  1  40   1
M  END
$$$$
