
     RDKit          3D

 61 62  0  0  0  0  0  0  0  0999 V2000
   52.7515  -33.7656   -3.1821 N   0  0  0  0  0  0  0  0  0  0  0  0
   52.5749  -35.1054   -2.6737 C   0  0  2  0  0  0  0  0  0  0  0  0
   52.1923  -36.1159   -3.6749 C   0  0  0  0  0  0  0  0  0  0  0  0
   53.2591  -36.5597   -4.3260 O   0  0  0  0  0  0  0  0  0  0  0  0
   51.7882  -35.1211   -1.3956 C   0  0  0  0  0  0  0  0  0  0  0  0
   52.4184  -34.2089   -0.3974 C   0  0  0  0  0  0  0  0  0  0  0  0
   53.5876  -33.4225   -0.8786 C   0  0  0  0  0  0  0  0  0  0  0  0
   54.2831  -32.7317    0.1896 N   0  0  0  0  0  0  0  0  0  0  0  0
   54.0402  -31.3419    0.3671 C   0  0  0  0  0  0  0  0  0  0  0  0
   53.2556  -30.5958   -0.5585 N   0  0  0  0  0  0  0  0  0  0  0  0
   54.5339  -30.7032    1.3953 N   0  0  0  0  0  0  0  0  0  0  0  0
   51.0163  -36.6936   -4.0773 N   0  0  0  0  0  0  0  0  0  0  0  0
   49.9703  -36.3775   -5.0132 C   0  0  2  0  0  0  0  0  0  0  0  0
   50.0447  -37.3140   -6.1954 C   0  0  0  0  0  0  0  0  0  0  0  0
   50.8222  -38.3255   -5.9529 O   0  0  0  0  0  0  0  0  0  0  0  0
   49.7395  -34.9688   -5.3717 C   0  0  0  0  0  0  0  0  0  0  0  0
   48.3771  -34.4098   -5.2459 C   0  0  0  0  0  0  0  0  0  0  0  0
   47.5392  -35.2807   -4.3093 C   0  0  0  0  0  0  0  0  0  0  0  0
   48.5112  -35.9595   -3.4352 N   0  0  0  0  0  0  0  0  0  0  0  0
   48.0276  -36.9088   -2.4994 C   0  0  0  0  0  0  0  0  0  0  0  0
   47.2449  -36.5149   -1.5381 N   0  0  0  0  0  0  0  0  0  0  0  0
   48.4230  -38.2612   -2.6520 N   0  0  0  0  0  0  0  0  0  0  0  0
   49.4452  -37.2651   -7.4245 N   0  0  0  0  0  0  0  0  0  0  0  0
   49.5299  -36.4425   -8.5842 C   0  0  2  0  0  0  0  0  0  0  0  0
   49.6091  -37.3454   -9.8041 C   0  0  0  0  0  0  0  0  0  0  0  0
   50.4186  -38.3212   -9.7890 O   0  0  0  0  0  0  0  0  0  0  0  0
   50.6696  -35.5072   -8.7086 C   0  0  0  0  0  0  0  0  0  0  0  0
   52.0192  -36.1938   -8.7231 C   0  0  0  0  0  0  0  0  0  0  0  0
   53.0772  -35.1168   -8.5695 C   0  0  0  0  0  0  0  0  0  0  0  0
   54.0373  -35.6131   -7.5035 C   0  0  0  0  0  0  0  0  0  0  0  0
   55.3804  -35.4327   -8.0120 N   0  0  0  0  0  0  0  0  0  0  0  0
   48.8415  -37.1729  -10.9559 N   0  0  0  0  0  0  0  0  0  0  0  0
   47.5549  -36.4359  -10.9149 C   0  0  2  0  0  0  0  0  0  0  0  0
   46.4903  -37.3390  -10.5000 C   0  0  0  0  0  0  0  0  0  0  0  0
   46.5155  -38.5349  -10.9458 O   0  0  0  0  0  0  0  0  0  0  0  0
   47.3538  -35.7634  -12.2603 C   0  0  0  0  0  0  0  0  0  0  0  0
   48.6830  -35.4140  -12.8498 C   0  0  0  0  0  0  0  0  0  0  0  0
   48.5216  -35.2995  -14.3678 C   0  0  0  0  0  0  0  0  0  0  0  0
   47.3756  -34.3837  -14.6653 C   0  0  0  0  0  0  0  0  0  0  0  0
   47.3748  -34.2045  -16.1357 N   0  0  0  0  0  4  0  0  0  0  0  0
   45.4188  -37.0122   -9.6319 N   0  0  0  0  0  0  0  0  0  0  0  0
   44.1355  -37.6715   -9.6064 C   0  0  0  0  0  0  0  0  0  0  0  0
   43.7526  -38.1273   -8.2465 C   0  0  0  0  0  0  0  0  0  0  0  0
   42.4197  -38.2036   -7.8705 C   0  0  0  0  0  0  0  0  0  0  0  0
   42.1069  -38.6052   -6.6131 C   0  0  0  0  0  0  0  0  0  0  0  0
   43.0804  -38.9442   -5.6852 C   0  0  0  0  0  0  0  0  0  0  0  0
   42.7264  -39.3731   -4.3385 C   0  0  0  0  0  0  0  0  0  0  0  0
   41.3531  -39.5560   -4.0279 N   0  0  0  0  0  0  0  0  0  0  0  0
   43.6332  -39.5805   -3.4627 N   0  0  0  0  0  0  0  0  0  0  0  0
   44.4079  -38.8734   -6.0441 C   0  0  0  0  0  0  0  0  0  0  0  0
   44.7169  -38.4577   -7.3429 C   0  0  0  0  0  0  0  0  0  0  0  0
   53.7876  -33.3716   -4.0733 C   0  0  0  0  0  0  0  0  0  0  0  0
   55.2180  -33.5674   -3.8884 C   0  0  0  0  0  0  0  0  0  0  0  0
   55.9520  -34.2997   -4.9529 C   0  0  0  0  0  0  0  0  0  0  0  0
   55.9930  -33.6454   -6.2943 C   0  0  0  0  0  0  0  0  0  0  0  0
   56.3627  -34.7128   -7.2889 C   0  0  0  0  0  0  0  0  0  0  0  0
   53.3811  -32.7853   -5.1361 O   0  0  0  0  0  0  0  0  0  0  0  0
   57.5589  -34.9718   -7.4831 O   0  0  0  0  0  0  0  0  0  0  0  0
   54.5263  -29.6634    1.4454 H   0  0  0  0  0  0  0  0  0  0  0  0
   47.3152  -35.5056   -1.2554 H   0  0  0  0  0  0  0  0  0  0  0  0
   44.4317  -40.1934   -3.6925 H   0  0  0  0  0  0  0  0  0  0  0  0
  1  2  1  0
  1 52  1  0
  2  3  1  0
  2  5  1  1
  3  4  2  0
  3 12  1  0
  5  6  1  0
  6  7  1  0
  7  8  1  0
  8  9  1  0
  9 10  1  0
  9 11  2  0
 12 13  1  0
 13 14  1  0
 13 16  1  6
 14 15  2  0
 14 23  1  0
 16 17  1  0
 17 18  1  0
 18 19  1  0
 19 20  1  0
 20 21  2  0
 20 22  1  0
 23 24  1  0
 24 25  1  6
 24 27  1  0
 25 26  2  0
 25 32  1  0
 27 28  1  0
 28 29  1  0
 29 30  1  0
 30 31  1  0
 31 56  1  0
 32 33  1  0
 33 34  1  0
 33 36  1  6
 34 35  2  0
 34 41  1  0
 36 37  1  0
 37 38  1  0
 38 39  1  0
 39 40  1  0
 41 42  1  0
 42 43  1  0
 43 44  2  0
 43 51  1  0
 44 45  1  0
 45 46  2  0
 46 47  1  0
 46 50  1  0
 47 48  1  0
 47 49  2  0
 50 51  2  0
 52 53  1  0
 52 57  2  0
 53 54  1  0
 54 55  1  0
 55 56  1  0
 56 58  2  0
 11 59  1  0
 21 60  1  0
 49 61  1  0
M  CHG  1  40   1
M  END
$$$$
