
     RDKit          3D

 61 62  0  0  0  0  0  0  0  0999 V2000
   52.6601  -33.8846   -3.6192 N   0  0  0  0  0  0  0  0  0  0  0  0
   52.0259  -35.0360   -3.0217 C   0  0  2  0  0  0  0  0  0  0  0  0
   51.2014  -35.8474   -3.9337 C   0  0  0  0  0  0  0  0  0  0  0  0
   51.9568  -36.6885   -4.6272 O   0  0  0  0  0  0  0  0  0  0  0  0
   51.4046  -34.7087   -1.6954 C   0  0  0  0  0  0  0  0  0  0  0  0
   52.4114  -34.0590   -0.8067 C   0  0  0  0  0  0  0  0  0  0  0  0
   53.7814  -33.9114   -1.3710 C   0  0  0  0  0  0  0  0  0  0  0  0
   54.4338  -32.6839   -0.9589 N   0  0  0  0  0  0  0  0  0  0  0  0
   55.7649  -32.4448   -1.3984 C   0  0  0  0  0  0  0  0  0  0  0  0
   56.4742  -31.2663   -1.0282 N   0  0  0  0  0  0  0  0  0  0  0  0
   56.3821  -33.3086   -2.1612 N   0  0  0  0  0  0  0  0  0  0  0  0
   49.8644  -35.9354   -4.2218 N   0  0  0  0  0  0  0  0  0  0  0  0
   48.9451  -35.2656   -5.1028 C   0  0  2  0  0  0  0  0  0  0  0  0
   48.5538  -36.1912   -6.2299 C   0  0  0  0  0  0  0  0  0  0  0  0
   48.9006  -37.4176   -5.9805 O   0  0  0  0  0  0  0  0  0  0  0  0
   49.2438  -33.8885   -5.5278 C   0  0  0  0  0  0  0  0  0  0  0  0
   48.8760  -32.7668   -4.6384 C   0  0  0  0  0  0  0  0  0  0  0  0
   48.3703  -33.3053   -3.2997 C   0  0  0  0  0  0  0  0  0  0  0  0
   49.2741  -34.4181   -2.9612 N   0  0  0  0  0  0  0  0  0  0  0  0
   49.1966  -34.9770   -1.6603 C   0  0  0  0  0  0  0  0  0  0  0  0
   48.0458  -35.3795   -1.2066 N   0  0  0  0  0  0  0  0  0  0  0  0
   50.3891  -35.0732   -0.9004 N   0  0  0  0  0  0  0  0  0  0  0  0
   47.9177  -35.9491   -7.4170 N   0  0  0  0  0  0  0  0  0  0  0  0
   48.2136  -35.2573   -8.6264 C   0  0  2  0  0  0  0  0  0  0  0  0
   47.8366  -36.1550   -9.7933 C   0  0  0  0  0  0  0  0  0  0  0  0
   48.6990  -36.9710  -10.2384 O   0  0  0  0  0  0  0  0  0  0  0  0
   49.6104  -34.8409   -8.8817 C   0  0  0  0  0  0  0  0  0  0  0  0
   50.5862  -35.9971   -8.9456 C   0  0  0  0  0  0  0  0  0  0  0  0
   51.9856  -35.4105   -8.9270 C   0  0  0  0  0  0  0  0  0  0  0  0
   52.7676  -36.2094   -7.8999 C   0  0  0  0  0  0  0  0  0  0  0  0
   54.0288  -36.5783   -8.5068 N   0  0  0  0  0  0  0  0  0  0  0  0
   46.5892  -36.1436  -10.4175 N   0  0  0  0  0  0  0  0  0  0  0  0
   45.5623  -37.1639  -10.0942 C   0  0  2  0  0  0  0  0  0  0  0  0
   44.4052  -36.9803  -10.9594 C   0  0  0  0  0  0  0  0  0  0  0  0
   43.8917  -35.8137  -11.0288 O   0  0  0  0  0  0  0  0  0  0  0  0
   45.2816  -37.0944   -8.6045 C   0  0  0  0  0  0  0  0  0  0  0  0
   45.4975  -38.4405   -7.9902 C   0  0  0  0  0  0  0  0  0  0  0  0
   44.6227  -38.5447   -6.7383 C   0  0  0  0  0  0  0  0  0  0  0  0
   45.1202  -39.6750   -5.8925 C   0  0  0  0  0  0  0  0  0  0  0  0
   44.3404  -39.6101   -4.6347 N   0  0  0  0  0  4  0  0  0  0  0  0
   43.7920  -37.9869  -11.7464 N   0  0  0  0  0  0  0  0  0  0  0  0
   44.4927  -38.9896  -12.5116 C   0  0  0  0  0  0  0  0  0  0  0  0
   44.5293  -38.6807  -13.9632 C   0  0  0  0  0  0  0  0  0  0  0  0
   45.1257  -37.5182  -14.4285 C   0  0  0  0  0  0  0  0  0  0  0  0
   45.1232  -37.2582  -15.7599 C   0  0  0  0  0  0  0  0  0  0  0  0
   44.5412  -38.1206  -16.6771 C   0  0  0  0  0  0  0  0  0  0  0  0
   44.5472  -37.8252  -18.1038 C   0  0  0  0  0  0  0  0  0  0  0  0
   44.1743  -38.8550  -19.0074 N   0  0  0  0  0  0  0  0  0  0  0  0
   44.8782  -36.6658  -18.5265 N   0  0  0  0  0  0  0  0  0  0  0  0
   43.9453  -39.2786  -16.2299 C   0  0  0  0  0  0  0  0  0  0  0  0
   43.9544  -39.5346  -14.8553 C   0  0  0  0  0  0  0  0  0  0  0  0
   53.6888  -33.9488   -4.5993 C   0  0  0  0  0  0  0  0  0  0  0  0
   54.9443  -34.6783   -4.4990 C   0  0  0  0  0  0  0  0  0  0  0  0
   55.2479  -35.6682   -5.5650 C   0  0  0  0  0  0  0  0  0  0  0  0
   55.4237  -35.1197   -6.9425 C   0  0  0  0  0  0  0  0  0  0  0  0
   55.2696  -36.2751   -7.8947 C   0  0  0  0  0  0  0  0  0  0  0  0
   53.4505  -33.2816   -5.6654 O   0  0  0  0  0  0  0  0  0  0  0  0
   56.2535  -36.9830   -8.1527 O   0  0  0  0  0  0  0  0  0  0  0  0
   56.8056  -34.1754   -1.7701 H   0  0  0  0  0  0  0  0  0  0  0  0
   47.9348  -36.4124   -1.0507 H   0  0  0  0  0  0  0  0  0  0  0  0
   45.1055  -35.9224  -17.8470 H   0  0  0  0  0  0  0  0  0  0  0  0
  1  2  1  0
  1 52  1  0
  2  3  1  0
  2  5  1  1
  3  4  2  0
  3 12  1  0
  5  6  1  0
  6  7  1  0
  7  8  1  0
  8  9  1  0
  9 10  1  0
  9 11  2  0
 12 13  1  0
 13 14  1  0
 13 16  1  6
 14 15  2  0
 14 23  1  0
 16 17  1  0
 17 18  1  0
 18 19  1  0
 19 20  1  0
 20 21  2  0
 20 22  1  0
 23 24  1  0
 24 25  1  6
 24 27  1  0
 25 26  2  0
 25 32  1  0
 27 28  1  0
 28 29  1  0
 29 30  1  0
 30 31  1  0
 31 56  1  0
 32 33  1  0
 33 34  1  0
 33 36  1  1
 34 35  2  0
 34 41  1  0
 36 37  1  0
 37 38  1  0
 38 39  1  0
 39 40  1  0
 41 42  1  0
 42 43  1  0
 43 44  2  0
 43 51  1  0
 44 45  1  0
 45 46  2  0
 46 47  1  0
 46 50  1  0
 47 48  1  0
 47 49  2  0
 50 51  2  0
 52 53  1  0
 52 57  2  0
 53 54  1  0
 54 55  1  0
 55 56  1  0
 56 58  2  0
 11 59  1  0
 21 60  1  0
 49 61  1  0
M  CHG  1  40   1
M  END
$$$$
