
     RDKit          3D

 34 38  0  0  0  0  0  0  0  0999 V2000
   41.5734   16.8879    9.5063 C   0  0  0  0  0  0  0  0  0  0  0  0
   40.6164   17.7277   12.1559 C   0  0  0  0  0  0  0  0  0  0  0  0
   40.3117   16.1785   14.0119 C   0  0  0  0  0  0  0  0  0  0  0  0
   41.4821   16.5951   14.5844 C   0  0  0  0  0  0  0  0  0  0  0  0
   42.2145   17.5628   13.9574 C   0  0  0  0  0  0  0  0  0  0  0  0
   41.7869   18.1313   12.7437 C   0  0  0  0  0  0  0  0  0  0  0  0
   39.6724   15.6231    5.3492 C   0  0  0  0  0  0  0  0  0  0  0  0
   40.9027   15.7556    6.1717 C   0  0  0  0  0  0  0  0  0  0  0  0
   41.7955   14.8642    5.9631 O   0  0  0  0  0  0  0  0  0  0  0  0
   41.0923   16.7650    7.1143 N   0  0  0  0  0  0  0  0  0  0  0  0
   42.1153   16.6079    8.1430 C   0  0  1  0  0  0  0  0  0  0  0  0
   40.5641   17.8806    9.6576 N   0  0  0  0  0  0  0  0  0  0  0  0
   40.0211   18.2471   10.9309 C   0  0  0  0  0  0  0  0  0  0  0  0
   39.9167   16.7384   12.8439 C   0  0  0  0  0  0  0  0  0  0  0  0
   42.6757   19.1283   12.1456 C   0  0  0  0  0  0  0  0  0  0  0  0
   43.2137   19.9878   13.0447 O   0  0  0  0  0  0  0  0  0  0  0  0
   40.0808   18.5176    8.4660 C   0  0  0  0  0  0  0  0  0  0  0  0
   39.3614   19.6731    8.5730 C   0  0  0  0  0  0  0  0  0  0  0  0
   38.9079   20.2652    7.3834 C   0  0  0  0  0  0  0  0  0  0  0  0
   39.1599   19.7301    6.1329 C   0  0  0  0  0  0  0  0  0  0  0  0
   39.8980   18.5513    6.0768 C   0  0  0  0  0  0  0  0  0  0  0  0
   40.3496   17.9549    7.2246 C   0  0  0  0  0  0  0  0  0  0  0  0
   38.1369   21.4937    7.4629 C   0  0  0  0  0  0  0  0  0  0  0  0
   38.4459   22.5174    8.3216 C   0  0  0  0  0  0  0  0  0  0  0  0
   37.6906   23.6349    8.3517 N   0  0  0  0  0  0  0  0  0  0  0  0
   36.6190   23.7731    7.5430 C   0  0  0  0  0  0  0  0  0  0  0  0
   36.3259   22.7761    6.7130 N   0  0  0  0  0  0  0  0  0  0  0  0
   37.0436   21.6287    6.6341 C   0  0  0  0  0  0  0  0  0  0  0  0
   35.8410   25.0000    7.6210 C   0  0  0  0  0  0  0  0  0  0  0  0
   36.2225   26.0057    8.5441 N   0  0  0  0  0  0  0  0  0  0  0  0
   34.8372   25.1931    6.8913 O   0  0  0  0  0  0  0  0  0  0  0  0
   43.2882   17.5443    7.8969 C   0  0  1  0  0  0  0  0  0  0  0  0
   44.5180   17.2669    8.6195 C   0  0  0  0  0  0  0  0  0  0  0  0
   44.4875   16.9996    7.2182 C   0  0  0  0  0  0  0  0  0  0  0  0
 11  1  1  1
 12  1  1  0
  2  6  1  0
 13  2  1  0
  2 14  2  0
  3  4  2  0
 14  3  1  0
  5  4  1  0
  6  5  2  0
  6 15  1  0
  8  7  1  0
  8  9  2  0
 10  8  1  0
 11 10  1  0
 10 22  1  0
 11 32  1  0
 12 13  1  0
 12 17  1  0
 15 16  1  0
 17 18  2  0
 17 22  1  0
 18 19  1  0
 19 20  2  0
 19 23  1  0
 20 21  1  0
 21 22  2  0
 23 24  2  0
 23 28  1  0
 24 25  1  0
 25 26  2  0
 26 27  1  0
 26 29  1  0
 27 28  2  0
 29 30  1  0
 29 31  2  0
 32 33  1  1
 32 34  1  0
 33 34  2  0
M  END
$$$$
