
     RDKit          3D

 34 38  0  0  0  0  0  0  0  0999 V2000
   41.9578   17.2425    9.7320 C   0  0  0  0  0  0  0  0  0  0  0  0
   41.0434   18.2953   12.3272 C   0  0  0  0  0  0  0  0  0  0  0  0
   40.4827   16.8085   14.1744 C   0  0  0  0  0  0  0  0  0  0  0  0
   41.6528   17.1180   14.8116 C   0  0  0  0  0  0  0  0  0  0  0  0
   42.5109   18.0019   14.2211 C   0  0  0  0  0  0  0  0  0  0  0  0
   42.2116   18.5922   12.9798 C   0  0  0  0  0  0  0  0  0  0  0  0
   39.5885   15.1997    6.1068 C   0  0  0  0  0  0  0  0  0  0  0  0
   40.8628   15.4435    6.8309 C   0  0  0  0  0  0  0  0  0  0  0  0
   41.7014   14.4787    6.7970 O   0  0  0  0  0  0  0  0  0  0  0  0
   41.1461   16.6266    7.5117 N   0  0  0  0  0  0  0  0  0  0  0  0
   42.3104   16.6926    8.3889 C   0  0  1  0  0  0  0  0  0  0  0  0
   40.9432   18.2369    9.8263 N   0  0  0  0  0  0  0  0  0  0  0  0
   40.5735   18.8528   11.0650 C   0  0  0  0  0  0  0  0  0  0  0  0
   40.2123   17.3877   12.9807 C   0  0  0  0  0  0  0  0  0  0  0  0
   43.2262   19.4905   12.4271 C   0  0  0  0  0  0  0  0  0  0  0  0
   44.2707   18.8454   11.8533 O   0  0  0  0  0  0  0  0  0  0  0  0
   40.2713   18.6114    8.6149 C   0  0  0  0  0  0  0  0  0  0  0  0
   39.5311   19.7583    8.5908 C   0  0  0  0  0  0  0  0  0  0  0  0
   38.8906   20.0896    7.3860 C   0  0  0  0  0  0  0  0  0  0  0  0
   38.9822   19.3109    6.2464 C   0  0  0  0  0  0  0  0  0  0  0  0
   39.7491   18.1517    6.3217 C   0  0  0  0  0  0  0  0  0  0  0  0
   40.3819   17.8077    7.4872 C   0  0  0  0  0  0  0  0  0  0  0  0
   38.0926   21.3019    7.3281 C   0  0  0  0  0  0  0  0  0  0  0  0
   37.9471   22.0488    6.1872 C   0  0  0  0  0  0  0  0  0  0  0  0
   37.1936   23.1679    6.1951 N   0  0  0  0  0  0  0  0  0  0  0  0
   36.5678   23.5782    7.3182 C   0  0  0  0  0  0  0  0  0  0  0  0
   36.7136   22.8485    8.4206 N   0  0  0  0  0  0  0  0  0  0  0  0
   37.4559   21.7155    8.4788 C   0  0  0  0  0  0  0  0  0  0  0  0
   35.7702   24.7937    7.2668 C   0  0  0  0  0  0  0  0  0  0  0  0
   35.4418   25.3553    6.0075 N   0  0  0  0  0  0  0  0  0  0  0  0
   35.3637   25.3617    8.3108 O   0  0  0  0  0  0  0  0  0  0  0  0
   43.3998   17.5679    7.7888 C   0  0  1  0  0  0  0  0  0  0  0  0
   44.7642   17.3124    8.2185 C   0  0  0  0  0  0  0  0  0  0  0  0
   44.3947   16.9313    6.8940 C   0  0  0  0  0  0  0  0  0  0  0  0
 11  1  1  1
 12  1  1  0
  2  6  1  0
 13  2  1  0
  2 14  2  0
  3  4  2  0
 14  3  1  0
  5  4  1  0
  6  5  2  0
  6 15  1  0
  8  7  1  0
  8  9  2  0
 10  8  1  0
 11 10  1  0
 10 22  1  0
 11 32  1  0
 12 13  1  0
 12 17  1  0
 15 16  1  0
 17 18  2  0
 17 22  1  0
 18 19  1  0
 19 20  2  0
 19 23  1  0
 20 21  1  0
 21 22  2  0
 23 24  2  0
 23 28  1  0
 24 25  1  0
 25 26  2  0
 26 27  1  0
 26 29  1  0
 27 28  2  0
 29 30  1  0
 29 31  2  0
 32 33  1  1
 32 34  1  0
 33 34  2  0
M  END
$$$$
