
     RDKit          3D

 34 38  0  0  0  0  0  0  0  0999 V2000
   42.8674   17.3601    9.0733 C   0  0  0  0  0  0  0  0  0  0  0  0
   41.4375   18.2372   11.9152 C   0  0  0  0  0  0  0  0  0  0  0  0
   42.1442   16.7726   13.7298 C   0  0  0  0  0  0  0  0  0  0  0  0
   40.8602   16.6861   14.1935 C   0  0  0  0  0  0  0  0  0  0  0  0
   39.8742   17.3630   13.5334 C   0  0  0  0  0  0  0  0  0  0  0  0
   40.1574   18.1398   12.3953 C   0  0  0  0  0  0  0  0  0  0  0  0
   39.6521   15.1738    6.1784 C   0  0  0  0  0  0  0  0  0  0  0  0
   41.0254   15.4133    6.6924 C   0  0  0  0  0  0  0  0  0  0  0  0
   41.8161   14.4108    6.6206 O   0  0  0  0  0  0  0  0  0  0  0  0
   41.4452   16.6310    7.2256 N   0  0  0  0  0  0  0  0  0  0  0  0
   42.8177   16.7756    7.6998 C   0  0  1  0  0  0  0  0  0  0  0  0
   41.8831   18.3160    9.4529 N   0  0  0  0  0  0  0  0  0  0  0  0
   41.8812   18.9620   10.7309 C   0  0  0  0  0  0  0  0  0  0  0  0
   42.3964   17.5248   12.6324 C   0  0  0  0  0  0  0  0  0  0  0  0
   39.0269   18.8523   11.7984 C   0  0  0  0  0  0  0  0  0  0  0  0
   38.8159   20.0813   12.3291 O   0  0  0  0  0  0  0  0  0  0  0  0
   40.8544   18.6186    8.4993 C   0  0  0  0  0  0  0  0  0  0  0  0
   40.0869   19.7335    8.6783 C   0  0  0  0  0  0  0  0  0  0  0  0
   39.0923   19.9944    7.7222 C   0  0  0  0  0  0  0  0  0  0  0  0
   38.8681   19.1786    6.6278 C   0  0  0  0  0  0  0  0  0  0  0  0
   39.6772   18.0544    6.4896 C   0  0  0  0  0  0  0  0  0  0  0  0
   40.6531   17.7790    7.4109 C   0  0  0  0  0  0  0  0  0  0  0  0
   38.2562   21.1710    7.8854 C   0  0  0  0  0  0  0  0  0  0  0  0
   37.8289   21.9379    6.8318 C   0  0  0  0  0  0  0  0  0  0  0  0
   37.0546   23.0218    7.0460 N   0  0  0  0  0  0  0  0  0  0  0  0
   36.6832   23.3767    8.2940 C   0  0  0  0  0  0  0  0  0  0  0  0
   37.1015   22.6279    9.3105 N   0  0  0  0  0  0  0  0  0  0  0  0
   37.8803   21.5281    9.1628 C   0  0  0  0  0  0  0  0  0  0  0  0
   35.8490   24.5564    8.4636 C   0  0  0  0  0  0  0  0  0  0  0  0
   35.3630   25.2330    7.3168 N   0  0  0  0  0  0  0  0  0  0  0  0
   35.5469   24.9938    9.6016 O   0  0  0  0  0  0  0  0  0  0  0  0
   43.6260   17.6709    6.7734 C   0  0  1  0  0  0  0  0  0  0  0  0
   44.9906   17.9728    7.1712 C   0  0  0  0  0  0  0  0  0  0  0  0
   44.7923   17.0823    6.0740 C   0  0  0  0  0  0  0  0  0  0  0  0
 11  1  1  1
 12  1  1  0
  2  6  1  0
 13  2  1  0
  2 14  2  0
  3  4  2  0
 14  3  1  0
  5  4  1  0
  6  5  2  0
  6 15  1  0
  8  7  1  0
  8  9  2  0
 10  8  1  0
 11 10  1  0
 10 22  1  0
 11 32  1  0
 12 13  1  0
 12 17  1  0
 15 16  1  0
 17 18  2  0
 17 22  1  0
 18 19  1  0
 19 20  2  0
 19 23  1  0
 20 21  1  0
 21 22  2  0
 23 24  2  0
 23 28  1  0
 24 25  1  0
 25 26  2  0
 26 27  1  0
 26 29  1  0
 27 28  2  0
 29 30  1  0
 29 31  2  0
 32 33  1  1
 32 34  1  0
 33 34  2  0
M  END
$$$$
