
     RDKit          3D

 34 38  0  0  0  0  0  0  0  0999 V2000
   42.1172   16.8579    9.5702 C   0  0  0  0  0  0  0  0  0  0  0  0
   41.4404   18.3242   12.1556 C   0  0  0  0  0  0  0  0  0  0  0  0
   43.6536   19.0687   12.8517 C   0  0  0  0  0  0  0  0  0  0  0  0
   43.4061   18.6814   14.1401 C   0  0  0  0  0  0  0  0  0  0  0  0
   42.1956   18.1236   14.4394 C   0  0  0  0  0  0  0  0  0  0  0  0
   41.2099   17.9436   13.4520 C   0  0  0  0  0  0  0  0  0  0  0  0
   40.1914   15.4781    5.4358 C   0  0  0  0  0  0  0  0  0  0  0  0
   41.4073   15.6389    6.2745 C   0  0  0  0  0  0  0  0  0  0  0  0
   42.3093   14.7491    6.1019 O   0  0  0  0  0  0  0  0  0  0  0  0
   41.5749   16.6719    7.1955 N   0  0  0  0  0  0  0  0  0  0  0  0
   42.6331   16.5809    8.1962 C   0  0  1  0  0  0  0  0  0  0  0  0
   41.0662   17.8039    9.7355 N   0  0  0  0  0  0  0  0  0  0  0  0
   40.5426   18.1656   11.0183 C   0  0  0  0  0  0  0  0  0  0  0  0
   42.6925   18.8864   11.9154 C   0  0  0  0  0  0  0  0  0  0  0  0
   39.9384   17.3747   13.9007 C   0  0  0  0  0  0  0  0  0  0  0  0
   39.6138   16.2124   13.2840 O   0  0  0  0  0  0  0  0  0  0  0  0
   40.5192   18.3970    8.5488 C   0  0  0  0  0  0  0  0  0  0  0  0
   39.7486   19.5186    8.6588 C   0  0  0  0  0  0  0  0  0  0  0  0
   39.2336   20.0684    7.4739 C   0  0  0  0  0  0  0  0  0  0  0  0
   39.4754   19.5249    6.2251 C   0  0  0  0  0  0  0  0  0  0  0  0
   40.2673   18.3817    6.1657 C   0  0  0  0  0  0  0  0  0  0  0  0
   40.7794   17.8268    7.3089 C   0  0  0  0  0  0  0  0  0  0  0  0
   38.4071   21.2600    7.5568 C   0  0  0  0  0  0  0  0  0  0  0  0
   37.7284   21.7768    6.4830 C   0  0  0  0  0  0  0  0  0  0  0  0
   36.9770   22.8888    6.6210 N   0  0  0  0  0  0  0  0  0  0  0  0
   36.8746   23.5169    7.8111 C   0  0  0  0  0  0  0  0  0  0  0  0
   37.5356   23.0096    8.8478 N   0  0  0  0  0  0  0  0  0  0  0  0
   38.3066   21.8968    8.7754 C   0  0  0  0  0  0  0  0  0  0  0  0
   36.0511   24.7129    7.8990 C   0  0  0  0  0  0  0  0  0  0  0  0
   36.0583   25.4738    9.0949 N   0  0  0  0  0  0  0  0  0  0  0  0
   35.3310   25.0908    6.9419 O   0  0  0  0  0  0  0  0  0  0  0  0
   43.7522   17.5678    7.9015 C   0  0  1  0  0  0  0  0  0  0  0  0
   44.9997   17.3871    8.6245 C   0  0  0  0  0  0  0  0  0  0  0  0
   44.9748   17.0602    7.2357 C   0  0  0  0  0  0  0  0  0  0  0  0
 11  1  1  1
 12  1  1  0
  2  6  1  0
 13  2  1  0
  2 14  2  0
  3  4  2  0
 14  3  1  0
  5  4  1  0
  6  5  2  0
  6 15  1  0
  8  7  1  0
  8  9  2  0
 10  8  1  0
 11 10  1  0
 10 22  1  0
 11 32  1  0
 12 13  1  0
 12 17  1  0
 15 16  1  0
 17 18  2  0
 17 22  1  0
 18 19  1  0
 19 20  2  0
 19 23  1  0
 20 21  1  0
 21 22  2  0
 23 24  2  0
 23 28  1  0
 24 25  1  0
 25 26  2  0
 26 27  1  0
 26 29  1  0
 27 28  2  0
 29 30  1  0
 29 31  2  0
 32 33  1  1
 32 34  1  0
 33 34  2  0
M  END
$$$$
