
     RDKit          3D

 34 38  0  0  0  0  0  0  0  0999 V2000
   42.8852   17.0533    8.9591 C   0  0  0  0  0  0  0  0  0  0  0  0
   40.9836   18.1799   11.6750 C   0  0  0  0  0  0  0  0  0  0  0  0
   39.4397   16.3998   12.2954 C   0  0  0  0  0  0  0  0  0  0  0  0
   39.0310   17.1034   13.3949 C   0  0  0  0  0  0  0  0  0  0  0  0
   39.5864   18.3276   13.6377 C   0  0  0  0  0  0  0  0  0  0  0  0
   40.5627   18.8695   12.7822 C   0  0  0  0  0  0  0  0  0  0  0  0
   39.6272   15.1907    5.8868 C   0  0  0  0  0  0  0  0  0  0  0  0
   40.9959   15.3272    6.4485 C   0  0  0  0  0  0  0  0  0  0  0  0
   41.7310   14.2854    6.3505 O   0  0  0  0  0  0  0  0  0  0  0  0
   41.4673   16.4931    7.0502 N   0  0  0  0  0  0  0  0  0  0  0  0
   42.8348   16.5405    7.5573 C   0  0  1  0  0  0  0  0  0  0  0  0
   41.9442   18.0407    9.3673 N   0  0  0  0  0  0  0  0  0  0  0  0
   41.9484   18.6222   10.6759 C   0  0  0  0  0  0  0  0  0  0  0  0
   40.3799   16.9387   11.4835 C   0  0  0  0  0  0  0  0  0  0  0  0
   41.1144   20.1690   13.1681 C   0  0  0  0  0  0  0  0  0  0  0  0
   40.4194   20.7844   14.1554 O   0  0  0  0  0  0  0  0  0  0  0  0
   40.9539   18.4444    8.4105 C   0  0  0  0  0  0  0  0  0  0  0  0
   40.2422   19.5886    8.6305 C   0  0  0  0  0  0  0  0  0  0  0  0
   39.2838   19.9490    7.6698 C   0  0  0  0  0  0  0  0  0  0  0  0
   39.0411   19.2011    6.5317 C   0  0  0  0  0  0  0  0  0  0  0  0
   39.7929   18.0434    6.3527 C   0  0  0  0  0  0  0  0  0  0  0  0
   40.7327   17.6712    7.2776 C   0  0  0  0  0  0  0  0  0  0  0  0
   38.5073   21.1592    7.8758 C   0  0  0  0  0  0  0  0  0  0  0  0
   37.8575   21.8138    6.8609 C   0  0  0  0  0  0  0  0  0  0  0  0
   37.1524   22.9360    7.1134 N   0  0  0  0  0  0  0  0  0  0  0  0
   37.0688   23.4396    8.3627 C   0  0  0  0  0  0  0  0  0  0  0  0
   37.7016   22.7990    9.3416 N   0  0  0  0  0  0  0  0  0  0  0  0
   38.4259   21.6684    9.1543 C   0  0  0  0  0  0  0  0  0  0  0  0
   36.2955   24.6535    8.5741 C   0  0  0  0  0  0  0  0  0  0  0  0
   35.5456   25.1943    7.4997 N   0  0  0  0  0  0  0  0  0  0  0  0
   36.2742   25.2379    9.6857 O   0  0  0  0  0  0  0  0  0  0  0  0
   43.7090   17.4358    6.6927 C   0  0  1  0  0  0  0  0  0  0  0  0
   45.0633   17.6841    7.1571 C   0  0  0  0  0  0  0  0  0  0  0  0
   44.8866   16.8310    6.0270 C   0  0  0  0  0  0  0  0  0  0  0  0
 11  1  1  1
 12  1  1  0
  2  6  1  0
 13  2  1  0
  2 14  2  0
  3  4  2  0
 14  3  1  0
  5  4  1  0
  6  5  2  0
  6 15  1  0
  8  7  1  0
  8  9  2  0
 10  8  1  0
 11 10  1  0
 10 22  1  0
 11 32  1  0
 12 13  1  0
 12 17  1  0
 15 16  1  0
 17 18  2  0
 17 22  1  0
 18 19  1  0
 19 20  2  0
 19 23  1  0
 20 21  1  0
 21 22  2  0
 23 24  2  0
 23 28  1  0
 24 25  1  0
 25 26  2  0
 26 27  1  0
 26 29  1  0
 27 28  2  0
 29 30  1  0
 29 31  2  0
 32 33  1  1
 32 34  1  0
 33 34  2  0
M  END
$$$$
