
     RDKit          3D

 34 38  0  0  0  0  0  0  0  0999 V2000
   41.8660   16.9175    9.5546 C   0  0  0  0  0  0  0  0  0  0  0  0
   41.0433   17.8871   12.2028 C   0  0  0  0  0  0  0  0  0  0  0  0
   40.9913   16.2960   14.0475 C   0  0  0  0  0  0  0  0  0  0  0  0
   42.0941   16.8761   14.6119 C   0  0  0  0  0  0  0  0  0  0  0  0
   42.6688   17.9458   13.9863 C   0  0  0  0  0  0  0  0  0  0  0  0
   42.1484   18.4543   12.7823 C   0  0  0  0  0  0  0  0  0  0  0  0
   39.7329   15.2861    5.6402 C   0  0  0  0  0  0  0  0  0  0  0  0
   41.0073   15.5163    6.3685 C   0  0  0  0  0  0  0  0  0  0  0  0
   41.9149   14.6379    6.1684 O   0  0  0  0  0  0  0  0  0  0  0  0
   41.2216   16.5993    7.2197 N   0  0  0  0  0  0  0  0  0  0  0  0
   42.3207   16.5562    8.1786 C   0  0  1  0  0  0  0  0  0  0  0  0
   40.8299   17.8818    9.7084 N   0  0  0  0  0  0  0  0  0  0  0  0
   40.3641   18.3224   10.9888 C   0  0  0  0  0  0  0  0  0  0  0  0
   40.5048   16.8004   12.8888 C   0  0  0  0  0  0  0  0  0  0  0  0
   42.8738   19.5759   12.1843 C   0  0  0  0  0  0  0  0  0  0  0  0
   43.9474   19.1997   11.4478 O   0  0  0  0  0  0  0  0  0  0  0  0
   40.2373   18.4103    8.5131 C   0  0  0  0  0  0  0  0  0  0  0  0
   39.4803   19.5440    8.5898 C   0  0  0  0  0  0  0  0  0  0  0  0
   38.9194   20.0291    7.3975 C   0  0  0  0  0  0  0  0  0  0  0  0
   39.1038   19.4117    6.1735 C   0  0  0  0  0  0  0  0  0  0  0  0
   39.8839   18.2592    6.1477 C   0  0  0  0  0  0  0  0  0  0  0  0
   40.4402   17.7666    7.2989 C   0  0  0  0  0  0  0  0  0  0  0  0
   38.1060   21.2316    7.4454 C   0  0  0  0  0  0  0  0  0  0  0  0
   37.2223   21.4980    8.4597 C   0  0  0  0  0  0  0  0  0  0  0  0
   36.4918   22.6322    8.4487 N   0  0  0  0  0  0  0  0  0  0  0  0
   36.6112   23.5277    7.4461 C   0  0  0  0  0  0  0  0  0  0  0  0
   37.4704   23.2624    6.4662 N   0  0  0  0  0  0  0  0  0  0  0  0
   38.2328   22.1424    6.4183 C   0  0  0  0  0  0  0  0  0  0  0  0
   35.7963   24.7321    7.4872 C   0  0  0  0  0  0  0  0  0  0  0  0
   35.8342   25.6330    6.3935 N   0  0  0  0  0  0  0  0  0  0  0  0
   35.0582   24.9972    8.4683 O   0  0  0  0  0  0  0  0  0  0  0  0
   43.4335   17.5132    7.7799 C   0  0  1  0  0  0  0  0  0  0  0  0
   44.6623   17.4566    8.5535 C   0  0  0  0  0  0  0  0  0  0  0  0
   44.6819   16.9410    7.2232 C   0  0  0  0  0  0  0  0  0  0  0  0
 11  1  1  1
 12  1  1  0
  2  6  1  0
 13  2  1  0
  2 14  2  0
  3  4  2  0
 14  3  1  0
  5  4  1  0
  6  5  2  0
  6 15  1  0
  8  7  1  0
  8  9  2  0
 10  8  1  0
 11 10  1  0
 10 22  1  0
 11 32  1  0
 12 13  1  0
 12 17  1  0
 15 16  1  0
 17 18  2  0
 17 22  1  0
 18 19  1  0
 19 20  2  0
 19 23  1  0
 20 21  1  0
 21 22  2  0
 23 24  2  0
 23 28  1  0
 24 25  1  0
 25 26  2  0
 26 27  1  0
 26 29  1  0
 27 28  2  0
 29 30  1  0
 29 31  2  0
 32 33  1  1
 32 34  1  0
 33 34  2  0
M  END
$$$$
