
     RDKit          3D

 34 38  0  0  0  0  0  0  0  0999 V2000
   42.2198   17.2870    9.3269 C   0  0  0  0  0  0  0  0  0  0  0  0
   41.6124   18.3757   12.0034 C   0  0  0  0  0  0  0  0  0  0  0  0
   43.6630   18.1195   13.2945 C   0  0  0  0  0  0  0  0  0  0  0  0
   43.0148   17.3454   14.2173 C   0  0  0  0  0  0  0  0  0  0  0  0
   41.6850   17.0865   14.0428 C   0  0  0  0  0  0  0  0  0  0  0  0
   40.9795   17.5994   12.9390 C   0  0  0  0  0  0  0  0  0  0  0  0
   39.4117   15.2036    6.0131 C   0  0  0  0  0  0  0  0  0  0  0  0
   40.7364   15.4194    6.6504 C   0  0  0  0  0  0  0  0  0  0  0  0
   41.5269   14.4147    6.6168 O   0  0  0  0  0  0  0  0  0  0  0  0
   41.1129   16.6181    7.2543 N   0  0  0  0  0  0  0  0  0  0  0  0
   42.3855   16.6994    7.9638 C   0  0  1  0  0  0  0  0  0  0  0  0
   41.2304   18.2903    9.5307 N   0  0  0  0  0  0  0  0  0  0  0  0
   41.0338   18.9412   10.7909 C   0  0  0  0  0  0  0  0  0  0  0  0
   42.9669   18.6033   12.2385 C   0  0  0  0  0  0  0  0  0  0  0  0
   39.5504   17.2896   12.8815 C   0  0  0  0  0  0  0  0  0  0  0  0
   39.2682   16.1406   12.2207 O   0  0  0  0  0  0  0  0  0  0  0  0
   40.4017   18.6371    8.4117 C   0  0  0  0  0  0  0  0  0  0  0  0
   39.6685   19.7879    8.4569 C   0  0  0  0  0  0  0  0  0  0  0  0
   38.8718   20.0915    7.3414 C   0  0  0  0  0  0  0  0  0  0  0  0
   38.8058   19.2825    6.2213 C   0  0  0  0  0  0  0  0  0  0  0  0
   39.5723   18.1206    6.2235 C   0  0  0  0  0  0  0  0  0  0  0  0
   40.3561   17.8032    7.3015 C   0  0  0  0  0  0  0  0  0  0  0  0
   38.0769   21.3072    7.3592 C   0  0  0  0  0  0  0  0  0  0  0  0
   37.2850   21.6996    6.3106 C   0  0  0  0  0  0  0  0  0  0  0  0
   36.5701   22.8414    6.3846 N   0  0  0  0  0  0  0  0  0  0  0  0
   36.6155   23.6213    7.4851 C   0  0  0  0  0  0  0  0  0  0  0  0
   37.3857   23.2341    8.4979 N   0  0  0  0  0  0  0  0  0  0  0  0
   38.1277   22.0995    8.4863 C   0  0  0  0  0  0  0  0  0  0  0  0
   35.8243   24.8419    7.5069 C   0  0  0  0  0  0  0  0  0  0  0  0
   35.9210   25.7115    8.6221 N   0  0  0  0  0  0  0  0  0  0  0  0
   35.0549   25.1473    6.5623 O   0  0  0  0  0  0  0  0  0  0  0  0
   43.3862   17.5513    7.1982 C   0  0  1  0  0  0  0  0  0  0  0  0
   44.7874   17.4050    7.5544 C   0  0  0  0  0  0  0  0  0  0  0  0
   44.3515   16.8654    6.3074 C   0  0  0  0  0  0  0  0  0  0  0  0
 11  1  1  1
 12  1  1  0
  2  6  1  0
 13  2  1  0
  2 14  2  0
  3  4  2  0
 14  3  1  0
  5  4  1  0
  6  5  2  0
  6 15  1  0
  8  7  1  0
  8  9  2  0
 10  8  1  0
 11 10  1  0
 10 22  1  0
 11 32  1  0
 12 13  1  0
 12 17  1  0
 15 16  1  0
 17 18  2  0
 17 22  1  0
 18 19  1  0
 19 20  2  0
 19 23  1  0
 20 21  1  0
 21 22  2  0
 23 24  2  0
 23 28  1  0
 24 25  1  0
 25 26  2  0
 26 27  1  0
 26 29  1  0
 27 28  2  0
 29 30  1  0
 29 31  2  0
 32 33  1  1
 32 34  1  0
 33 34  2  0
M  END
$$$$
