
     RDKit          3D

 34 38  0  0  0  0  0  0  0  0999 V2000
   42.3378   17.3724    9.8274 C   0  0  0  0  0  0  0  0  0  0  0  0
   40.7360   18.0956   12.1875 C   0  0  0  0  0  0  0  0  0  0  0  0
   40.1513   16.3643   13.7993 C   0  0  0  0  0  0  0  0  0  0  0  0
   41.0378   16.8750   14.7072 C   0  0  0  0  0  0  0  0  0  0  0  0
   41.7666   17.9792   14.3672 C   0  0  0  0  0  0  0  0  0  0  0  0
   41.6203   18.5923   13.1096 C   0  0  0  0  0  0  0  0  0  0  0  0
   43.4739   14.8551    6.5308 C   0  0  0  0  0  0  0  0  0  0  0  0
   42.2337   15.6596    6.6798 C   0  0  0  0  0  0  0  0  0  0  0  0
   41.2203   15.2224    6.0339 O   0  0  0  0  0  0  0  0  0  0  0  0
   42.1554   16.8151    7.4559 N   0  0  0  0  0  0  0  0  0  0  0  0
   43.0674   16.9907    8.5814 C   0  0  1  0  0  0  0  0  0  0  0  0
   41.1752   18.1877    9.7246 N   0  0  0  0  0  0  0  0  0  0  0  0
   40.4412   18.6399   10.8679 C   0  0  0  0  0  0  0  0  0  0  0  0
   40.0242   16.9690   12.5944 C   0  0  0  0  0  0  0  0  0  0  0  0
   42.4849   19.7429   12.8442 C   0  0  0  0  0  0  0  0  0  0  0  0
   43.7802   19.4115   12.6232 O   0  0  0  0  0  0  0  0  0  0  0  0
   40.7361   18.5481    8.4068 C   0  0  0  0  0  0  0  0  0  0  0  0
   39.8376   19.5653    8.2587 C   0  0  0  0  0  0  0  0  0  0  0  0
   39.4346   19.8874    6.9528 C   0  0  0  0  0  0  0  0  0  0  0  0
   39.9069   19.2243    5.8345 C   0  0  0  0  0  0  0  0  0  0  0  0
   40.8216   18.1951    6.0380 C   0  0  0  0  0  0  0  0  0  0  0  0
   41.2282   17.8622    7.3034 C   0  0  0  0  0  0  0  0  0  0  0  0
   38.4771   20.9628    6.7612 C   0  0  0  0  0  0  0  0  0  0  0  0
   37.4510   20.8989    5.8537 C   0  0  0  0  0  0  0  0  0  0  0  0
   36.5930   21.9314    5.7191 N   0  0  0  0  0  0  0  0  0  0  0  0
   36.7217   23.0461    6.4691 C   0  0  0  0  0  0  0  0  0  0  0  0
   37.7193   23.1005    7.3471 N   0  0  0  0  0  0  0  0  0  0  0  0
   38.6141   22.0986    7.5305 C   0  0  0  0  0  0  0  0  0  0  0  0
   35.7677   24.1277    6.2788 C   0  0  0  0  0  0  0  0  0  0  0  0
   35.9773   25.3624    6.9427 N   0  0  0  0  0  0  0  0  0  0  0  0
   34.7599   23.9973    5.5407 O   0  0  0  0  0  0  0  0  0  0  0  0
   44.0998   18.0682    8.2870 C   0  0  1  0  0  0  0  0  0  0  0  0
   45.2728   18.1108    9.1435 C   0  0  0  0  0  0  0  0  0  0  0  0
   45.4352   17.6440    7.8049 C   0  0  0  0  0  0  0  0  0  0  0  0
 11  1  1  1
 12  1  1  0
  2  6  1  0
 13  2  1  0
  2 14  2  0
  3  4  2  0
 14  3  1  0
  5  4  1  0
  6  5  2  0
  6 15  1  0
  8  7  1  0
  8  9  2  0
 10  8  1  0
 11 10  1  0
 10 22  1  0
 11 32  1  0
 12 13  1  0
 12 17  1  0
 15 16  1  0
 17 18  2  0
 17 22  1  0
 18 19  1  0
 19 20  2  0
 19 23  1  0
 20 21  1  0
 21 22  2  0
 23 24  2  0
 23 28  1  0
 24 25  1  0
 25 26  2  0
 26 27  1  0
 26 29  1  0
 27 28  2  0
 29 30  1  0
 29 31  2  0
 32 33  1  1
 32 34  1  0
 33 34  2  0
M  END
$$$$
