
     RDKit          3D

 34 38  0  0  0  0  0  0  0  0999 V2000
   42.7062   17.2545    9.4172 C   0  0  0  0  0  0  0  0  0  0  0  0
   40.7694   18.1898   12.0026 C   0  0  0  0  0  0  0  0  0  0  0  0
   40.6848   16.2701   13.5009 C   0  0  0  0  0  0  0  0  0  0  0  0
   39.4597   16.6582   13.9695 C   0  0  0  0  0  0  0  0  0  0  0  0
   38.8919   17.7946   13.4672 C   0  0  0  0  0  0  0  0  0  0  0  0
   39.5423   18.5637   12.4852 C   0  0  0  0  0  0  0  0  0  0  0  0
   39.9358   14.6506    7.1289 C   0  0  0  0  0  0  0  0  0  0  0  0
   41.1564   15.4132    6.7602 C   0  0  0  0  0  0  0  0  0  0  0  0
   41.8615   14.8946    5.8279 O   0  0  0  0  0  0  0  0  0  0  0  0
   41.5324   16.6066    7.3751 N   0  0  0  0  0  0  0  0  0  0  0  0
   42.8300   16.6994    8.0362 C   0  0  1  0  0  0  0  0  0  0  0  0
   41.7058   18.2325    9.6812 N   0  0  0  0  0  0  0  0  0  0  0  0
   41.5458   18.8525   10.9620 C   0  0  0  0  0  0  0  0  0  0  0  0
   41.2944   17.0233   12.5549 C   0  0  0  0  0  0  0  0  0  0  0  0
   38.8551   19.7821   12.0549 C   0  0  0  0  0  0  0  0  0  0  0  0
   37.5910   19.8917   12.5310 O   0  0  0  0  0  0  0  0  0  0  0  0
   40.8270   18.5855    8.6031 C   0  0  0  0  0  0  0  0  0  0  0  0
   40.0733   19.7196    8.7019 C   0  0  0  0  0  0  0  0  0  0  0  0
   39.2275   20.0300    7.6250 C   0  0  0  0  0  0  0  0  0  0  0  0
   39.1337   19.2435    6.4910 C   0  0  0  0  0  0  0  0  0  0  0  0
   39.9227   18.0980    6.4380 C   0  0  0  0  0  0  0  0  0  0  0  0
   40.7544   17.7744    7.4775 C   0  0  0  0  0  0  0  0  0  0  0  0
   38.4098   21.2282    7.7003 C   0  0  0  0  0  0  0  0  0  0  0  0
   38.1450   21.8814    8.8767 C   0  0  0  0  0  0  0  0  0  0  0  0
   37.3762   22.9901    8.8842 N   0  0  0  0  0  0  0  0  0  0  0  0
   36.8517   23.4815    7.7419 C   0  0  0  0  0  0  0  0  0  0  0  0
   37.1132   22.8427    6.6051 N   0  0  0  0  0  0  0  0  0  0  0  0
   37.8771   21.7252    6.5299 C   0  0  0  0  0  0  0  0  0  0  0  0
   36.0291   24.6793    7.8120 C   0  0  0  0  0  0  0  0  0  0  0  0
   36.0129   25.4408    9.0074 N   0  0  0  0  0  0  0  0  0  0  0  0
   35.3299   25.0582    6.8398 O   0  0  0  0  0  0  0  0  0  0  0  0
   43.7826   17.5878    7.2511 C   0  0  1  0  0  0  0  0  0  0  0  0
   45.2053   17.3628    7.4429 C   0  0  0  0  0  0  0  0  0  0  0  0
   44.6225   16.9595    6.2044 C   0  0  0  0  0  0  0  0  0  0  0  0
 11  1  1  1
 12  1  1  0
  2  6  1  0
 13  2  1  0
  2 14  2  0
  3  4  2  0
 14  3  1  0
  5  4  1  0
  6  5  2  0
  6 15  1  0
  8  7  1  0
  8  9  2  0
 10  8  1  0
 11 10  1  0
 10 22  1  0
 11 32  1  0
 12 13  1  0
 12 17  1  0
 15 16  1  0
 17 18  2  0
 17 22  1  0
 18 19  1  0
 19 20  2  0
 19 23  1  0
 20 21  1  0
 21 22  2  0
 23 24  2  0
 23 28  1  0
 24 25  1  0
 25 26  2  0
 26 27  1  0
 26 29  1  0
 27 28  2  0
 29 30  1  0
 29 31  2  0
 32 33  1  1
 32 34  1  0
 33 34  2  0
M  END
$$$$
