
     RDKit          3D

 34 38  0  0  0  0  0  0  0  0999 V2000
   41.8371   16.9878    9.6536 C   0  0  0  0  0  0  0  0  0  0  0  0
   41.2257   18.4852   12.2135 C   0  0  0  0  0  0  0  0  0  0  0  0
   43.0222   19.7583   13.2572 C   0  0  0  0  0  0  0  0  0  0  0  0
   43.1149   18.8443   14.2707 C   0  0  0  0  0  0  0  0  0  0  0  0
   42.2782   17.7645   14.2627 C   0  0  0  0  0  0  0  0  0  0  0  0
   41.3322   17.5808   13.2378 C   0  0  0  0  0  0  0  0  0  0  0  0
   40.0056   15.7187    5.3496 C   0  0  0  0  0  0  0  0  0  0  0  0
   41.0552   15.6987    6.4011 C   0  0  0  0  0  0  0  0  0  0  0  0
   41.7570   14.6308    6.4496 O   0  0  0  0  0  0  0  0  0  0  0  0
   41.2752   16.7517    7.2878 N   0  0  0  0  0  0  0  0  0  0  0  0
   42.3328   16.6434    8.2874 C   0  0  1  0  0  0  0  0  0  0  0  0
   40.8321   17.9866    9.7919 N   0  0  0  0  0  0  0  0  0  0  0  0
   40.3321   18.4131   11.0642 C   0  0  0  0  0  0  0  0  0  0  0  0
   42.1058   19.5635   12.2795 C   0  0  0  0  0  0  0  0  0  0  0  0
   40.4633   16.4094   13.3592 C   0  0  0  0  0  0  0  0  0  0  0  0
   41.0063   15.2740   12.8566 O   0  0  0  0  0  0  0  0  0  0  0  0
   40.3075   18.5664    8.5886 C   0  0  0  0  0  0  0  0  0  0  0  0
   39.5905   19.7258    8.6652 C   0  0  0  0  0  0  0  0  0  0  0  0
   39.0959   20.2609    7.4649 C   0  0  0  0  0  0  0  0  0  0  0  0
   39.3060   19.6671    6.2334 C   0  0  0  0  0  0  0  0  0  0  0  0
   40.0435   18.4868    6.2081 C   0  0  0  0  0  0  0  0  0  0  0  0
   40.5348   17.9455    7.3668 C   0  0  0  0  0  0  0  0  0  0  0  0
   38.3262   21.4918    7.5124 C   0  0  0  0  0  0  0  0  0  0  0  0
   38.7082   22.5861    8.2454 C   0  0  0  0  0  0  0  0  0  0  0  0
   37.9502   23.7022    8.2519 N   0  0  0  0  0  0  0  0  0  0  0  0
   36.8044   23.7700    7.5419 C   0  0  0  0  0  0  0  0  0  0  0  0
   36.4408   22.7048    6.8334 N   0  0  0  0  0  0  0  0  0  0  0  0
   37.1568   21.5546    6.7848 C   0  0  0  0  0  0  0  0  0  0  0  0
   36.0277   24.9992    7.5887 C   0  0  0  0  0  0  0  0  0  0  0  0
   36.4386   26.0471    8.4502 N   0  0  0  0  0  0  0  0  0  0  0  0
   34.9994   25.1579    6.8852 O   0  0  0  0  0  0  0  0  0  0  0  0
   43.4952   17.5670    7.9574 C   0  0  1  0  0  0  0  0  0  0  0  0
   44.6072   17.5895    8.8925 C   0  0  0  0  0  0  0  0  0  0  0  0
   44.8041   16.9543    7.6300 C   0  0  0  0  0  0  0  0  0  0  0  0
 11  1  1  1
 12  1  1  0
  2  6  1  0
 13  2  1  0
  2 14  2  0
  3  4  2  0
 14  3  1  0
  5  4  1  0
  6  5  2  0
  6 15  1  0
  8  7  1  0
  8  9  2  0
 10  8  1  0
 11 10  1  0
 10 22  1  0
 11 32  1  0
 12 13  1  0
 12 17  1  0
 15 16  1  0
 17 18  2  0
 17 22  1  0
 18 19  1  0
 19 20  2  0
 19 23  1  0
 20 21  1  0
 21 22  2  0
 23 24  2  0
 23 28  1  0
 24 25  1  0
 25 26  2  0
 26 27  1  0
 26 29  1  0
 27 28  2  0
 29 30  1  0
 29 31  2  0
 32 33  1  1
 32 34  1  0
 33 34  2  0
M  END
$$$$
