
     RDKit          3D

 34 38  0  0  0  0  0  0  0  0999 V2000
   42.5675   17.2052    9.2813 C   0  0  0  0  0  0  0  0  0  0  0  0
   41.2833   18.0007   12.0383 C   0  0  0  0  0  0  0  0  0  0  0  0
   39.7141   16.9015   13.5439 C   0  0  0  0  0  0  0  0  0  0  0  0
   40.7354   16.5192   14.3696 C   0  0  0  0  0  0  0  0  0  0  0  0
   42.0145   16.8683   14.0407 C   0  0  0  0  0  0  0  0  0  0  0  0
   42.2937   17.6076   12.8769 C   0  0  0  0  0  0  0  0  0  0  0  0
   39.6243   14.9649    6.2262 C   0  0  0  0  0  0  0  0  0  0  0  0
   40.9977   15.2703    6.7038 C   0  0  0  0  0  0  0  0  0  0  0  0
   41.8489   14.3281    6.5522 O   0  0  0  0  0  0  0  0  0  0  0  0
   41.3571   16.4854    7.2851 N   0  0  0  0  0  0  0  0  0  0  0  0
   42.6690   16.6263    7.9083 C   0  0  1  0  0  0  0  0  0  0  0  0
   41.5480   18.1609    9.5540 N   0  0  0  0  0  0  0  0  0  0  0  0
   41.4058   18.8017   10.8267 C   0  0  0  0  0  0  0  0  0  0  0  0
   40.0031   17.6134   12.4287 C   0  0  0  0  0  0  0  0  0  0  0  0
   43.7051   17.8857   12.6080 C   0  0  0  0  0  0  0  0  0  0  0  0
   44.4641   16.7710   12.4737 O   0  0  0  0  0  0  0  0  0  0  0  0
   40.6310   18.4685    8.4940 C   0  0  0  0  0  0  0  0  0  0  0  0
   39.8493   19.5836    8.5919 C   0  0  0  0  0  0  0  0  0  0  0  0
   38.9663   19.8496    7.5330 C   0  0  0  0  0  0  0  0  0  0  0  0
   38.8636   19.0384    6.4173 C   0  0  0  0  0  0  0  0  0  0  0  0
   39.6821   17.9139    6.3645 C   0  0  0  0  0  0  0  0  0  0  0  0
   40.5503   17.6335    7.3866 C   0  0  0  0  0  0  0  0  0  0  0  0
   38.1183   21.0265    7.6079 C   0  0  0  0  0  0  0  0  0  0  0  0
   37.7222   21.5898    8.7939 C   0  0  0  0  0  0  0  0  0  0  0  0
   36.9316   22.6830    8.8002 N   0  0  0  0  0  0  0  0  0  0  0  0
   36.5133   23.2466    7.6474 C   0  0  0  0  0  0  0  0  0  0  0  0
   36.9018   22.6947    6.5015 N   0  0  0  0  0  0  0  0  0  0  0  0
   37.6945   21.5974    6.4268 C   0  0  0  0  0  0  0  0  0  0  0  0
   35.6608   24.4234    7.7166 C   0  0  0  0  0  0  0  0  0  0  0  0
   35.1106   24.9526    6.5223 N   0  0  0  0  0  0  0  0  0  0  0  0
   35.3984   24.9858    8.8086 O   0  0  0  0  0  0  0  0  0  0  0  0
   43.5752   17.5244    7.0803 C   0  0  1  0  0  0  0  0  0  0  0  0
   44.9509   17.6662    7.5263 C   0  0  0  0  0  0  0  0  0  0  0  0
   44.7021   16.8981    6.3497 C   0  0  0  0  0  0  0  0  0  0  0  0
 11  1  1  1
 12  1  1  0
  2  6  1  0
 13  2  1  0
  2 14  2  0
  3  4  2  0
 14  3  1  0
  5  4  1  0
  6  5  2  0
  6 15  1  0
  8  7  1  0
  8  9  2  0
 10  8  1  0
 11 10  1  0
 10 22  1  0
 11 32  1  0
 12 13  1  0
 12 17  1  0
 15 16  1  0
 17 18  2  0
 17 22  1  0
 18 19  1  0
 19 20  2  0
 19 23  1  0
 20 21  1  0
 21 22  2  0
 23 24  2  0
 23 28  1  0
 24 25  1  0
 25 26  2  0
 26 27  1  0
 26 29  1  0
 27 28  2  0
 29 30  1  0
 29 31  2  0
 32 33  1  1
 32 34  1  0
 33 34  2  0
M  END
$$$$
