
     RDKit          3D

 34 38  0  0  0  0  0  0  0  0999 V2000
   42.6387   16.8251    9.1987 C   0  0  0  0  0  0  0  0  0  0  0  0
   40.6784   17.7951   11.8896 C   0  0  0  0  0  0  0  0  0  0  0  0
   39.3886   15.8244   12.5142 C   0  0  0  0  0  0  0  0  0  0  0  0
   38.7769   16.5142   13.5247 C   0  0  0  0  0  0  0  0  0  0  0  0
   39.1064   17.8252   13.7212 C   0  0  0  0  0  0  0  0  0  0  0  0
   40.0562   18.4696   12.9078 C   0  0  0  0  0  0  0  0  0  0  0  0
   39.4713   15.1621    5.9670 C   0  0  0  0  0  0  0  0  0  0  0  0
   40.8526   15.2806    6.5012 C   0  0  0  0  0  0  0  0  0  0  0  0
   41.6050   14.2674    6.2946 O   0  0  0  0  0  0  0  0  0  0  0  0
   41.3180   16.4012    7.1876 N   0  0  0  0  0  0  0  0  0  0  0  0
   42.6553   16.3850    7.7715 C   0  0  1  0  0  0  0  0  0  0  0  0
   41.7010   17.8165    9.6046 N   0  0  0  0  0  0  0  0  0  0  0  0
   41.6454   18.3312   10.9398 C   0  0  0  0  0  0  0  0  0  0  0  0
   40.2995   16.4624   11.7416 C   0  0  0  0  0  0  0  0  0  0  0  0
   40.3574   19.8626   13.2408 C   0  0  0  0  0  0  0  0  0  0  0  0
   41.1898   20.0015   14.3012 O   0  0  0  0  0  0  0  0  0  0  0  0
   40.7770   18.2952    8.6165 C   0  0  0  0  0  0  0  0  0  0  0  0
   40.0827   19.4462    8.8557 C   0  0  0  0  0  0  0  0  0  0  0  0
   39.1897   19.8809    7.8632 C   0  0  0  0  0  0  0  0  0  0  0  0
   38.9934   19.1983    6.6763 C   0  0  0  0  0  0  0  0  0  0  0  0
   39.7251   18.0306    6.4796 C   0  0  0  0  0  0  0  0  0  0  0  0
   40.6013   17.5864    7.4347 C   0  0  0  0  0  0  0  0  0  0  0  0
   38.4332   21.1004    8.0882 C   0  0  0  0  0  0  0  0  0  0  0  0
   37.2083   21.3375    7.5189 C   0  0  0  0  0  0  0  0  0  0  0  0
   36.5532   22.4912    7.7638 N   0  0  0  0  0  0  0  0  0  0  0  0
   37.0828   23.4351    8.5701 C   0  0  0  0  0  0  0  0  0  0  0  0
   38.2710   23.1978    9.1186 N   0  0  0  0  0  0  0  0  0  0  0  0
   38.9797   22.0605    8.9129 C   0  0  0  0  0  0  0  0  0  0  0  0
   36.3311   24.6599    8.7960 C   0  0  0  0  0  0  0  0  0  0  0  0
   36.8251   25.6171    9.7174 N   0  0  0  0  0  0  0  0  0  0  0  0
   35.2527   24.8933    8.1958 O   0  0  0  0  0  0  0  0  0  0  0  0
   43.5992   17.2980    7.0043 C   0  0  1  0  0  0  0  0  0  0  0  0
   44.9570   17.4179    7.5079 C   0  0  0  0  0  0  0  0  0  0  0  0
   44.7502   16.6830    6.3024 C   0  0  0  0  0  0  0  0  0  0  0  0
 11  1  1  1
 12  1  1  0
  2  6  1  0
 13  2  1  0
  2 14  2  0
  3  4  2  0
 14  3  1  0
  5  4  1  0
  6  5  2  0
  6 15  1  0
  8  7  1  0
  8  9  2  0
 10  8  1  0
 11 10  1  0
 10 22  1  0
 11 32  1  0
 12 13  1  0
 12 17  1  0
 15 16  1  0
 17 18  2  0
 17 22  1  0
 18 19  1  0
 19 20  2  0
 19 23  1  0
 20 21  1  0
 21 22  2  0
 23 24  2  0
 23 28  1  0
 24 25  1  0
 25 26  2  0
 26 27  1  0
 26 29  1  0
 27 28  2  0
 29 30  1  0
 29 31  2  0
 32 33  1  1
 32 34  1  0
 33 34  2  0
M  END
$$$$
