
     RDKit          3D

 34 38  0  0  0  0  0  0  0  0999 V2000
   42.1370   16.5118    9.2963 C   0  0  0  0  0  0  0  0  0  0  0  0
   41.5257   18.5070   11.8350 C   0  0  0  0  0  0  0  0  0  0  0  0
   43.7892   19.3061   12.2535 C   0  0  0  0  0  0  0  0  0  0  0  0
   43.4058   19.8397   13.4533 C   0  0  0  0  0  0  0  0  0  0  0  0
   42.1031   19.7132   13.8445 C   0  0  0  0  0  0  0  0  0  0  0  0
   41.1597   19.0491   13.0395 C   0  0  0  0  0  0  0  0  0  0  0  0
   39.9549   15.5084    5.2098 C   0  0  0  0  0  0  0  0  0  0  0  0
   41.2420   15.6023    5.9461 C   0  0  0  0  0  0  0  0  0  0  0  0
   42.1254   14.7408    5.6103 O   0  0  0  0  0  0  0  0  0  0  0  0
   41.4919   16.5471    6.9402 N   0  0  0  0  0  0  0  0  0  0  0  0
   42.5844   16.3299    7.8830 C   0  0  1  0  0  0  0  0  0  0  0  0
   41.1362   17.4826    9.5841 N   0  0  0  0  0  0  0  0  0  0  0  0
   40.6811   17.7568   10.9139 C   0  0  0  0  0  0  0  0  0  0  0  0
   42.8667   18.6699   11.4933 C   0  0  0  0  0  0  0  0  0  0  0  0
   39.7865   19.0137   13.5442 C   0  0  0  0  0  0  0  0  0  0  0  0
   39.5507   17.9994   14.4114 O   0  0  0  0  0  0  0  0  0  0  0  0
   40.5686   18.1945    8.4749 C   0  0  0  0  0  0  0  0  0  0  0  0
   39.8532   19.3334    8.7099 C   0  0  0  0  0  0  0  0  0  0  0  0
   39.3157   20.0007    7.5975 C   0  0  0  0  0  0  0  0  0  0  0  0
   39.4829   19.5540    6.2991 C   0  0  0  0  0  0  0  0  0  0  0  0
   40.2206   18.3886    6.1118 C   0  0  0  0  0  0  0  0  0  0  0  0
   40.7533   17.7198    7.1824 C   0  0  0  0  0  0  0  0  0  0  0  0
   38.5466   21.2138    7.8137 C   0  0  0  0  0  0  0  0  0  0  0  0
   37.4448   21.5448    7.0672 C   0  0  0  0  0  0  0  0  0  0  0  0
   36.7711   22.6875    7.3137 N   0  0  0  0  0  0  0  0  0  0  0  0
   37.1615   23.5282    8.2946 C   0  0  0  0  0  0  0  0  0  0  0  0
   38.2307   23.2002    9.0143 N   0  0  0  0  0  0  0  0  0  0  0  0
   38.9505   22.0683    8.8173 C   0  0  0  0  0  0  0  0  0  0  0  0
   36.3969   24.7465    8.5131 C   0  0  0  0  0  0  0  0  0  0  0  0
   36.8558   25.6924    9.4637 N   0  0  0  0  0  0  0  0  0  0  0  0
   35.3377   24.9838    7.8812 O   0  0  0  0  0  0  0  0  0  0  0  0
   43.7332   17.2917    7.6213 C   0  0  1  0  0  0  0  0  0  0  0  0
   43.3906   18.6877    7.4082 C   0  0  0  0  0  0  0  0  0  0  0  0
   44.0206   18.3309    8.6379 C   0  0  0  0  0  0  0  0  0  0  0  0
 11  1  1  1
 12  1  1  0
  2  6  1  0
 13  2  1  0
  2 14  2  0
  3  4  2  0
 14  3  1  0
  5  4  1  0
  6  5  2  0
  6 15  1  0
  8  7  1  0
  8  9  2  0
 10  8  1  0
 11 10  1  0
 10 22  1  0
 11 32  1  0
 12 13  1  0
 12 17  1  0
 15 16  1  0
 17 18  2  0
 17 22  1  0
 18 19  1  0
 19 20  2  0
 19 23  1  0
 20 21  1  0
 21 22  2  0
 23 24  2  0
 23 28  1  0
 24 25  1  0
 25 26  2  0
 26 27  1  0
 26 29  1  0
 27 28  2  0
 29 30  1  0
 29 31  2  0
 32 33  1  6
 32 34  1  0
 33 34  2  0
M  END
$$$$
