
     RDKit          3D

 34 38  0  0  0  0  0  0  0  0999 V2000
   42.6426   17.2785    9.3312 C   0  0  0  0  0  0  0  0  0  0  0  0
   40.9341   18.1706   11.9856 C   0  0  0  0  0  0  0  0  0  0  0  0
   41.4289   16.7531   13.9048 C   0  0  0  0  0  0  0  0  0  0  0  0
   40.0956   16.6113   14.1755 C   0  0  0  0  0  0  0  0  0  0  0  0
   39.1891   17.2375   13.3679 C   0  0  0  0  0  0  0  0  0  0  0  0
   39.6027   18.0182   12.2732 C   0  0  0  0  0  0  0  0  0  0  0  0
   39.7087   15.2463    6.0887 C   0  0  0  0  0  0  0  0  0  0  0  0
   41.0522   15.4493    6.6900 C   0  0  0  0  0  0  0  0  0  0  0  0
   41.8369   14.4418    6.6220 O   0  0  0  0  0  0  0  0  0  0  0  0
   41.4512   16.6394    7.2964 N   0  0  0  0  0  0  0  0  0  0  0  0
   42.7523   16.7129    7.9532 C   0  0  1  0  0  0  0  0  0  0  0  0
   41.6606   18.2758    9.5921 N   0  0  0  0  0  0  0  0  0  0  0  0
   41.5156   18.9062   10.8696 C   0  0  0  0  0  0  0  0  0  0  0  0
   41.8071   17.5080   12.8461 C   0  0  0  0  0  0  0  0  0  0  0  0
   38.5425   18.6737   11.5063 C   0  0  0  0  0  0  0  0  0  0  0  0
   37.7021   17.8084   10.8888 O   0  0  0  0  0  0  0  0  0  0  0  0
   40.7850   18.6380    8.5144 C   0  0  0  0  0  0  0  0  0  0  0  0
   40.0520   19.7859    8.6086 C   0  0  0  0  0  0  0  0  0  0  0  0
   39.2086   20.1049    7.5323 C   0  0  0  0  0  0  0  0  0  0  0  0
   39.0973   19.3134    6.4034 C   0  0  0  0  0  0  0  0  0  0  0  0
   39.8656   18.1537    6.3550 C   0  0  0  0  0  0  0  0  0  0  0  0
   40.6946   17.8215    7.3941 C   0  0  0  0  0  0  0  0  0  0  0  0
   38.4127   21.3180    7.6027 C   0  0  0  0  0  0  0  0  0  0  0  0
   37.0901   21.3678    7.2434 C   0  0  0  0  0  0  0  0  0  0  0  0
   36.4025   22.5254    7.3286 N   0  0  0  0  0  0  0  0  0  0  0  0
   36.9943   23.6564    7.7668 C   0  0  0  0  0  0  0  0  0  0  0  0
   38.2771   23.6000    8.1136 N   0  0  0  0  0  0  0  0  0  0  0  0
   39.0232   22.4698    8.0513 C   0  0  0  0  0  0  0  0  0  0  0  0
   36.2029   24.8751    7.8359 C   0  0  0  0  0  0  0  0  0  0  0  0
   34.8550   24.8526    7.3981 N   0  0  0  0  0  0  0  0  0  0  0  0
   36.6825   25.9503    8.2735 O   0  0  0  0  0  0  0  0  0  0  0  0
   43.7182   17.5795    7.1600 C   0  0  1  0  0  0  0  0  0  0  0  0
   45.0334   17.8010    7.7369 C   0  0  0  0  0  0  0  0  0  0  0  0
   44.9338   16.9414    6.6024 C   0  0  0  0  0  0  0  0  0  0  0  0
 11  1  1  1
 12  1  1  0
  2  6  1  0
 13  2  1  0
  2 14  2  0
  3  4  2  0
 14  3  1  0
  5  4  1  0
  6  5  2  0
  6 15  1  0
  8  7  1  0
  8  9  2  0
 10  8  1  0
 11 10  1  0
 10 22  1  0
 11 32  1  0
 12 13  1  0
 12 17  1  0
 15 16  1  0
 17 18  2  0
 17 22  1  0
 18 19  1  0
 19 20  2  0
 19 23  1  0
 20 21  1  0
 21 22  2  0
 23 24  2  0
 23 28  1  0
 24 25  1  0
 25 26  2  0
 26 27  1  0
 26 29  1  0
 27 28  2  0
 29 30  1  0
 29 31  2  0
 32 33  1  1
 32 34  1  0
 33 34  2  0
M  END
$$$$
