
     RDKit          3D

 34 38  0  0  0  0  0  0  0  0999 V2000
   42.5111   17.3612    8.9005 C   0  0  0  0  0  0  0  0  0  0  0  0
   40.8156   17.9835   11.5942 C   0  0  0  0  0  0  0  0  0  0  0  0
   38.8670   17.1160   12.7723 C   0  0  0  0  0  0  0  0  0  0  0  0
   39.6682   16.4681   13.6719 C   0  0  0  0  0  0  0  0  0  0  0  0
   41.0240   16.5712   13.5406 C   0  0  0  0  0  0  0  0  0  0  0  0
   41.6023   17.3263   12.5040 C   0  0  0  0  0  0  0  0  0  0  0  0
   39.7254   15.2575    5.6155 C   0  0  0  0  0  0  0  0  0  0  0  0
   41.0776   15.5642    6.1496 C   0  0  0  0  0  0  0  0  0  0  0  0
   41.9569   14.6552    5.9599 O   0  0  0  0  0  0  0  0  0  0  0  0
   41.3899   16.7466    6.8189 N   0  0  0  0  0  0  0  0  0  0  0  0
   42.6749   16.8723    7.4988 C   0  0  1  0  0  0  0  0  0  0  0  0
   41.4625   18.2785    9.1937 N   0  0  0  0  0  0  0  0  0  0  0  0
   41.2603   18.8347   10.4977 C   0  0  0  0  0  0  0  0  0  0  0  0
   39.4425   17.8385   11.7821 C   0  0  0  0  0  0  0  0  0  0  0  0
   43.0644   17.3282   12.4405 C   0  0  0  0  0  0  0  0  0  0  0  0
   43.6251   18.4985   12.8311 O   0  0  0  0  0  0  0  0  0  0  0  0
   40.5785   18.6354    8.1211 C   0  0  0  0  0  0  0  0  0  0  0  0
   39.7705   19.7272    8.2589 C   0  0  0  0  0  0  0  0  0  0  0  0
   38.9214   20.0431    7.1861 C   0  0  0  0  0  0  0  0  0  0  0  0
   38.8766   19.3024    6.0187 C   0  0  0  0  0  0  0  0  0  0  0  0
   39.7200   18.1989    5.9267 C   0  0  0  0  0  0  0  0  0  0  0  0
   40.5560   17.8707    6.9615 C   0  0  0  0  0  0  0  0  0  0  0  0
   38.0467   21.1969    7.3023 C   0  0  0  0  0  0  0  0  0  0  0  0
   37.2459   21.4227    8.3925 C   0  0  0  0  0  0  0  0  0  0  0  0
   36.4522   22.5125    8.4428 N   0  0  0  0  0  0  0  0  0  0  0  0
   36.4261   23.4024    7.4284 C   0  0  0  0  0  0  0  0  0  0  0  0
   37.2056   23.1766    6.3747 N   0  0  0  0  0  0  0  0  0  0  0  0
   38.0248   22.1022    6.2628 C   0  0  0  0  0  0  0  0  0  0  0  0
   35.5491   24.5580    7.5379 C   0  0  0  0  0  0  0  0  0  0  0  0
   34.7076   24.6853    8.6714 N   0  0  0  0  0  0  0  0  0  0  0  0
   35.5163   25.4485    6.6528 O   0  0  0  0  0  0  0  0  0  0  0  0
   43.5917   17.8377    6.7635 C   0  0  1  0  0  0  0  0  0  0  0  0
   44.8188   18.2266    7.4376 C   0  0  0  0  0  0  0  0  0  0  0  0
   44.9168   17.3439    6.3207 C   0  0  0  0  0  0  0  0  0  0  0  0
 11  1  1  1
 12  1  1  0
  2  6  1  0
 13  2  1  0
  2 14  2  0
  3  4  2  0
 14  3  1  0
  5  4  1  0
  6  5  2  0
  6 15  1  0
  8  7  1  0
  8  9  2  0
 10  8  1  0
 11 10  1  0
 10 22  1  0
 11 32  1  0
 12 13  1  0
 12 17  1  0
 15 16  1  0
 17 18  2  0
 17 22  1  0
 18 19  1  0
 19 20  2  0
 19 23  1  0
 20 21  1  0
 21 22  2  0
 23 24  2  0
 23 28  1  0
 24 25  1  0
 25 26  2  0
 26 27  1  0
 26 29  1  0
 27 28  2  0
 29 30  1  0
 29 31  2  0
 32 33  1  1
 32 34  1  0
 33 34  2  0
M  END
$$$$
