
     RDKit          3D

 34 38  0  0  0  0  0  0  0  0999 V2000
   41.7359   16.7298    9.8998 C   0  0  0  0  0  0  0  0  0  0  0  0
   40.7234   17.7291   12.4963 C   0  0  0  0  0  0  0  0  0  0  0  0
   40.6884   16.2084   14.3999 C   0  0  0  0  0  0  0  0  0  0  0  0
   41.7103   16.8934   14.9978 C   0  0  0  0  0  0  0  0  0  0  0  0
   42.2364   17.9809   14.3601 C   0  0  0  0  0  0  0  0  0  0  0  0
   41.7476   18.4021   13.1101 C   0  0  0  0  0  0  0  0  0  0  0  0
   40.0685   15.4068    5.7086 C   0  0  0  0  0  0  0  0  0  0  0  0
   41.2952   15.6235    6.5185 C   0  0  0  0  0  0  0  0  0  0  0  0
   42.2553   14.8133    6.2795 O   0  0  0  0  0  0  0  0  0  0  0  0
   41.4144   16.6255    7.4803 N   0  0  0  0  0  0  0  0  0  0  0  0
   42.3686   16.4662    8.5728 C   0  0  1  0  0  0  0  0  0  0  0  0
   40.7112   17.7138    9.9929 N   0  0  0  0  0  0  0  0  0  0  0  0
   40.0826   18.0645   11.2308 C   0  0  0  0  0  0  0  0  0  0  0  0
   40.2312   16.6298   13.1970 C   0  0  0  0  0  0  0  0  0  0  0  0
   42.4182   19.5540   12.5058 C   0  0  0  0  0  0  0  0  0  0  0  0
   43.6813   19.2927   12.0900 O   0  0  0  0  0  0  0  0  0  0  0  0
   40.3024   18.3582    8.7776 C   0  0  0  0  0  0  0  0  0  0  0  0
   39.5687   19.5074    8.8470 C   0  0  0  0  0  0  0  0  0  0  0  0
   39.1899   20.1072    7.6353 C   0  0  0  0  0  0  0  0  0  0  0  0
   39.5279   19.5855    6.3996 C   0  0  0  0  0  0  0  0  0  0  0  0
   40.2772   18.4126    6.3819 C   0  0  0  0  0  0  0  0  0  0  0  0
   40.6568   17.8089    7.5518 C   0  0  0  0  0  0  0  0  0  0  0  0
   38.4058   21.3294    7.6745 C   0  0  0  0  0  0  0  0  0  0  0  0
   38.7696   22.4292    8.4085 C   0  0  0  0  0  0  0  0  0  0  0  0
   37.9989   23.5366    8.4071 N   0  0  0  0  0  0  0  0  0  0  0  0
   36.8580   23.5900    7.6882 C   0  0  0  0  0  0  0  0  0  0  0  0
   36.5120   22.5195    6.9789 N   0  0  0  0  0  0  0  0  0  0  0  0
   37.2415   21.3775    6.9379 C   0  0  0  0  0  0  0  0  0  0  0  0
   36.0669   24.8103    7.7268 C   0  0  0  0  0  0  0  0  0  0  0  0
   36.4872   25.8838    8.5515 N   0  0  0  0  0  0  0  0  0  0  0  0
   35.0180   24.9393    7.0479 O   0  0  0  0  0  0  0  0  0  0  0  0
   43.5478   17.4133    8.4128 C   0  0  1  0  0  0  0  0  0  0  0  0
   44.7594   17.0897    9.1468 C   0  0  0  0  0  0  0  0  0  0  0  0
   44.7630   16.9082    7.7314 C   0  0  0  0  0  0  0  0  0  0  0  0
 11  1  1  1
 12  1  1  0
  2  6  1  0
 13  2  1  0
  2 14  2  0
  3  4  2  0
 14  3  1  0
  5  4  1  0
  6  5  2  0
  6 15  1  0
  8  7  1  0
  8  9  2  0
 10  8  1  0
 11 10  1  0
 10 22  1  0
 11 32  1  0
 12 13  1  0
 12 17  1  0
 15 16  1  0
 17 18  2  0
 17 22  1  0
 18 19  1  0
 19 20  2  0
 19 23  1  0
 20 21  1  0
 21 22  2  0
 23 24  2  0
 23 28  1  0
 24 25  1  0
 25 26  2  0
 26 27  1  0
 26 29  1  0
 27 28  2  0
 29 30  1  0
 29 31  2  0
 32 33  1  1
 32 34  1  0
 33 34  2  0
M  END
$$$$
