
     RDKit          3D

 42 45  0  0  0  0  0  0  0  0999 V2000
   71.1723   56.9403   15.2632 C   0  0  1  0  0  0  0  0  0  0  0  0
   71.3372   57.5507   16.6353 C   0  0  2  0  0  0  0  0  0  0  0  0
   73.1718   58.6542   17.8293 C   0  0  0  0  0  0  0  0  0  0  0  0
   74.7311   60.2112   18.8947 C   0  0  1  0  0  0  0  0  0  0  0  0
   75.4806   61.4798   18.5850 C   0  0  0  0  0  0  0  0  0  0  0  0
   74.4838   61.7737   20.5826 C   0  0  1  0  0  0  0  0  0  0  0  0
   72.7195   62.8870   19.8424 C   0  0  0  0  0  0  0  0  0  0  0  0
   70.5926   58.8423   16.8125 C   0  0  0  0  0  0  0  0  0  0  0  0
   67.8055   51.3371   12.8946 C   0  0  0  0  0  0  0  0  0  0  0  0
   67.5880   52.7945   12.6660 C   0  0  0  0  0  0  0  0  0  0  0  0
   67.9332   53.6534   13.8613 C   0  0  0  0  0  0  0  0  0  0  0  0
   69.3131   53.2288   14.2814 C   0  0  2  0  0  0  0  0  0  0  0  0
   69.0039   51.9145   15.0558 C   0  0  0  0  0  0  0  0  0  0  0  0
   68.5254   50.8977   14.0888 C   0  0  0  0  0  0  0  0  0  0  0  0
   72.2622   53.8729   13.7615 C   0  0  0  0  0  0  0  0  0  0  0  0
   72.2347   55.9175   15.0157 C   0  0  0  0  0  0  0  0  0  0  0  0
   73.6907   60.7098   19.8484 C   0  0  1  0  0  0  0  0  0  0  0  0
   72.6211   61.5296   19.1653 C   0  0  0  0  0  0  0  0  0  0  0  0
   70.5149   59.3718   18.2034 C   0  0  0  0  0  0  0  0  0  0  0  0
   70.0685   58.1949   19.0840 C   0  0  0  0  0  0  0  0  0  0  0  0
   68.6150   58.3062   19.4763 C   0  0  0  0  0  0  0  0  0  0  0  0
   68.4238   59.4794   20.3954 C   0  0  0  0  0  0  0  0  0  0  0  0
   69.1349   60.6778   19.8015 C   0  0  0  0  0  0  0  0  0  0  0  0
   69.4190   60.4295   18.3352 C   0  0  0  0  0  0  0  0  0  0  0  0
   66.5753   49.1694   13.0699 C   0  0  0  0  0  0  0  0  0  0  0  0
   74.2549   51.4703   13.1800 C   0  0  0  0  0  0  0  0  0  0  0  0
   73.7176   53.8542   13.4883 C   0  0  2  0  0  0  0  0  0  0  0  0
   74.1060   52.7993   12.5039 C   0  0  0  0  0  0  0  0  0  0  0  0
   74.3976   53.5059   14.8349 C   0  0  0  0  0  0  0  0  0  0  0  0
   66.4313   50.6612   12.8596 C   0  0  1  0  0  0  0  0  0  0  0  0
   71.7553   54.5584   14.8678 N   0  0  0  0  0  0  0  0  0  0  0  0
   72.7690   57.9352   16.6900 N   0  0  0  0  0  0  0  0  0  0  0  0
   69.3694   55.6649   15.2934 O   0  0  0  0  0  0  0  0  0  0  0  0
   70.0560   53.8452   16.7364 O   0  0  0  0  0  0  0  0  0  0  0  0
   69.9119   56.3765   15.1749 O   0  0  0  0  0  0  0  0  0  0  0  0
   72.5769   58.5120   18.9281 O   0  0  0  0  0  0  0  0  0  0  0  0
   74.2245   59.5327   17.7807 O   0  0  0  0  0  0  0  0  0  0  0  0
   75.3555   62.3195   19.6618 O   0  0  0  0  0  0  0  0  0  0  0  0
   73.4992   62.6730   20.9852 O   0  0  0  0  0  0  0  0  0  0  0  0
   65.5875   51.2339   13.7922 O   0  0  0  0  0  0  0  0  0  0  0  0
   67.9154   48.8623   12.7326 O   0  0  0  0  0  0  0  0  0  0  0  0
   70.1502   54.3489   15.3269 S   0  0  1  0  0  6  0  0  0  0  0  0
  1  2  1  0
 16  1  1  0
  1 35  1  1
  2  8  1  6
  2 32  1  0
 32  3  1  0
  3 36  2  0
  3 37  1  0
  4  5  1  0
  4 17  1  0
  4 37  1  6
  5 38  1  0
 17  6  1  0
  6 38  1  6
  6 39  1  0
 18  7  1  0
  7 39  1  0
  8 19  1  0
 10  9  1  0
 14  9  1  0
  9 30  1  0
 11 10  1  0
 12 11  1  1
 12 13  1  0
 42 12  1  0
 13 14  1  0
 15 27  1  0
 31 15  1  0
 31 16  1  0
 17 18  1  6
 19 20  1  0
 19 24  1  0
 20 21  1  0
 21 22  1  0
 23 22  1  0
 24 23  1  0
 30 25  1  0
 25 41  1  0
 28 26  1  0
 27 28  1  0
 27 29  1  1
 30 40  1  1
 42 31  1  6
 42 33  2  0
 42 34  2  0
M  END
$$$$
