
     RDKit          3D

 42 45  0  0  0  0  0  0  0  0999 V2000
   72.5274   55.7770   17.4567 C   0  0  1  0  0  0  0  0  0  0  0  0
   72.2665   57.1208   18.0960 C   0  0  2  0  0  0  0  0  0  0  0  0
   73.6059   59.1667   18.2671 C   0  0  0  0  0  0  0  0  0  0  0  0
   75.1828   60.4954   19.5855 C   0  0  1  0  0  0  0  0  0  0  0  0
   74.9324   61.7645   18.8150 C   0  0  0  0  0  0  0  0  0  0  0  0
   74.7084   62.2640   20.9992 C   0  0  1  0  0  0  0  0  0  0  0  0
   72.5003   62.1297   21.0814 C   0  0  0  0  0  0  0  0  0  0  0  0
   70.9787   57.7558   17.6569 C   0  0  0  0  0  0  0  0  0  0  0  0
   67.4019   51.7674   13.2029 C   0  0  0  0  0  0  0  0  0  0  0  0
   66.5799   52.6601   14.0693 C   0  0  0  0  0  0  0  0  0  0  0  0
   67.3358   53.2193   15.2531 C   0  0  0  0  0  0  0  0  0  0  0  0
   68.6037   53.7979   14.6888 C   0  0  2  0  0  0  0  0  0  0  0  0
   69.4598   52.5137   14.4868 C   0  0  0  0  0  0  0  0  0  0  0  0
   68.8484   51.7030   13.4066 C   0  0  0  0  0  0  0  0  0  0  0  0
   71.6537   53.6079   14.9885 C   0  0  0  0  0  0  0  0  0  0  0  0
   71.9192   55.7214   16.0917 C   0  0  0  0  0  0  0  0  0  0  0  0
   74.4502   60.7760   20.8604 C   0  0  1  0  0  0  0  0  0  0  0  0
   72.9496   60.7312   20.6903 C   0  0  0  0  0  0  0  0  0  0  0  0
   70.3609   58.7190   18.6117 C   0  0  0  0  0  0  0  0  0  0  0  0
   69.8409   57.8797   19.7885 C   0  0  0  0  0  0  0  0  0  0  0  0
   68.3415   57.7115   19.7395 C   0  0  0  0  0  0  0  0  0  0  0  0
   67.6723   59.0360   19.9753 C   0  0  0  0  0  0  0  0  0  0  0  0
   68.3399   60.0760   19.0995 C   0  0  0  0  0  0  0  0  0  0  0  0
   69.1300   59.3918   18.0040 C   0  0  0  0  0  0  0  0  0  0  0  0
   66.3248   49.8822   11.9664 C   0  0  0  0  0  0  0  0  0  0  0  0
   73.5913   53.6048   12.2471 C   0  0  0  0  0  0  0  0  0  0  0  0
   73.0969   53.6525   14.6597 C   0  0  2  0  0  0  0  0  0  0  0  0
   73.3871   54.4775   13.4480 C   0  0  0  0  0  0  0  0  0  0  0  0
   73.5037   52.1939   14.3367 C   0  0  0  0  0  0  0  0  0  0  0  0
   66.8156   50.3570   13.3171 C   0  0  1  0  0  0  0  0  0  0  0  0
   71.0882   54.5623   15.8371 N   0  0  0  0  0  0  0  0  0  0  0  0
   73.3243   57.9981   17.5373 N   0  0  0  0  0  0  0  0  0  0  0  0
   69.1914   56.3197   15.1956 O   0  0  0  0  0  0  0  0  0  0  0  0
   68.8036   54.8653   17.0928 O   0  0  0  0  0  0  0  0  0  0  0  0
   73.8940   55.5689   17.3988 O   0  0  0  0  0  0  0  0  0  0  0  0
   72.7742   60.1080   18.3276 O   0  0  0  0  0  0  0  0  0  0  0  0
   74.7941   59.3187   18.9358 O   0  0  0  0  0  0  0  0  0  0  0  0
   74.7420   62.7783   19.7186 O   0  0  0  0  0  0  0  0  0  0  0  0
   73.6033   62.7049   21.7236 O   0  0  0  0  0  0  0  0  0  0  0  0
   67.7442   49.4904   13.8615 O   0  0  0  0  0  0  0  0  0  0  0  0
   64.9126   49.8529   12.0603 O   0  0  0  0  0  0  0  0  0  0  0  0
   69.4451   54.9111   15.7380 S   0  0  1  0  0  6  0  0  0  0  0  0
  1  2  1  0
 16  1  1  0
  1 35  1  6
  2  8  1  6
  2 32  1  0
 32  3  1  0
  3 36  2  0
  3 37  1  0
  4  5  1  0
  4 17  1  0
  4 37  1  6
  5 38  1  0
 17  6  1  0
  6 38  1  6
  6 39  1  0
 18  7  1  0
  7 39  1  0
  8 19  1  0
 10  9  1  0
 14  9  1  0
  9 30  1  0
 11 10  1  0
 12 11  1  1
 12 13  1  0
 42 12  1  0
 13 14  1  0
 15 27  1  0
 31 15  1  0
 31 16  1  0
 17 18  1  6
 19 20  1  0
 19 24  1  0
 20 21  1  0
 21 22  1  0
 23 22  1  0
 24 23  1  0
 30 25  1  0
 25 41  1  0
 28 26  1  0
 27 28  1  0
 27 29  1  6
 30 40  1  6
 42 31  1  1
 42 33  2  0
 42 34  2  0
M  END
$$$$
