
     RDKit          3D

 42 45  0  0  0  0  0  0  0  0999 V2000
   71.3813   57.5626   15.2018 C   0  0  1  0  0  0  0  0  0  0  0  0
   71.0502   57.7872   16.6587 C   0  0  2  0  0  0  0  0  0  0  0  0
   72.8460   58.0814   18.3012 C   0  0  0  0  0  0  0  0  0  0  0  0
   74.6256   59.3059   19.4519 C   0  0  1  0  0  0  0  0  0  0  0  0
   75.2867   60.5133   18.8421 C   0  0  0  0  0  0  0  0  0  0  0  0
   74.2658   61.2021   20.7272 C   0  0  1  0  0  0  0  0  0  0  0  0
   72.4312   61.9870   19.7689 C   0  0  0  0  0  0  0  0  0  0  0  0
   69.8462   58.6578   16.8746 C   0  0  0  0  0  0  0  0  0  0  0  0
   69.0879   50.5329   13.1373 C   0  0  0  0  0  0  0  0  0  0  0  0
   68.8352   51.8962   12.5887 C   0  0  0  0  0  0  0  0  0  0  0  0
   68.4972   52.9220   13.6466 C   0  0  0  0  0  0  0  0  0  0  0  0
   69.5715   52.7970   14.6912 C   0  0  2  0  0  0  0  0  0  0  0  0
   69.0940   51.5358   15.4685 C   0  0  0  0  0  0  0  0  0  0  0  0
   69.2282   50.3553   14.5818 C   0  0  0  0  0  0  0  0  0  0  0  0
   72.2579   54.5224   15.0861 C   0  0  0  0  0  0  0  0  0  0  0  0
   70.7169   56.3201   14.7011 C   0  0  0  0  0  0  0  0  0  0  0  0
   73.5503   59.9437   20.2750 C   0  0  1  0  0  0  0  0  0  0  0  0
   72.4288   60.5047   19.4321 C   0  0  0  0  0  0  0  0  0  0  0  0
   69.2459   58.6245   18.2383 C   0  0  0  0  0  0  0  0  0  0  0  0
   67.7233   58.6317   18.0349 C   0  0  0  0  0  0  0  0  0  0  0  0
   67.1234   59.9852   18.3302 C   0  0  0  0  0  0  0  0  0  0  0  0
   67.2483   60.2889   19.7964 C   0  0  0  0  0  0  0  0  0  0  0  0
   68.6669   59.9854   20.2323 C   0  0  0  0  0  0  0  0  0  0  0  0
   69.5679   59.8989   19.0187 C   0  0  0  0  0  0  0  0  0  0  0  0
   67.2597   48.9589   13.7875 C   0  0  0  0  0  0  0  0  0  0  0  0
   73.6828   51.5208   14.2015 C   0  0  0  0  0  0  0  0  0  0  0  0
   72.3368   53.5689   13.9557 C   0  0  2  0  0  0  0  0  0  0  0  0
   73.6955   52.9655   13.8041 C   0  0  0  0  0  0  0  0  0  0  0  0
   72.0521   54.3987   12.6800 C   0  0  0  0  0  0  0  0  0  0  0  0
   67.9676   49.6220   12.6258 C   0  0  1  0  0  0  0  0  0  0  0  0
   71.0410   55.1132   15.4341 N   0  0  0  0  0  0  0  0  0  0  0  0
   72.1881   58.5915   17.1679 N   0  0  0  0  0  0  0  0  0  0  0  0
   68.3955   54.9357   15.6938 O   0  0  0  0  0  0  0  0  0  0  0  0
   69.7783   53.6239   17.1877 O   0  0  0  0  0  0  0  0  0  0  0  0
   70.9742   58.6685   14.4767 O   0  0  0  0  0  0  0  0  0  0  0  0
   72.2373   57.3618   19.1336 O   0  0  0  0  0  0  0  0  0  0  0  0
   74.1705   58.3508   18.5361 O   0  0  0  0  0  0  0  0  0  0  0  0
   75.1006   61.5731   19.6922 O   0  0  0  0  0  0  0  0  0  0  0  0
   73.2202   62.1022   20.9195 O   0  0  0  0  0  0  0  0  0  0  0  0
   67.0925   50.3341   11.8279 O   0  0  0  0  0  0  0  0  0  0  0  0
   67.4506   47.5676   13.6090 O   0  0  0  0  0  0  0  0  0  0  0  0
   69.7063   54.1508   15.7855 S   0  0  1  0  0  6  0  0  0  0  0  0
  1  2  1  0
 16  1  1  0
  1 35  1  6
  2  8  1  6
  2 32  1  0
 32  3  1  0
  3 36  2  0
  3 37  1  0
  4  5  1  0
  4 17  1  0
  4 37  1  6
  5 38  1  0
 17  6  1  0
  6 38  1  6
  6 39  1  0
 18  7  1  0
  7 39  1  0
  8 19  1  0
 10  9  1  0
 14  9  1  0
  9 30  1  0
 11 10  1  0
 12 11  1  6
 12 13  1  0
 42 12  1  0
 13 14  1  0
 15 27  1  0
 31 15  1  0
 31 16  1  0
 17 18  1  6
 19 20  1  0
 19 24  1  0
 20 21  1  0
 21 22  1  0
 23 22  1  0
 24 23  1  0
 30 25  1  0
 25 41  1  0
 28 26  1  0
 27 28  1  0
 27 29  1  6
 30 40  1  1
 42 31  1  6
 42 33  2  0
 42 34  2  0
M  END
$$$$
