
     RDKit          3D

 42 45  0  0  0  0  0  0  0  0999 V2000
   70.9396   57.6675   15.2824 C   0  0  1  0  0  0  0  0  0  0  0  0
   70.8330   58.1447   16.7119 C   0  0  2  0  0  0  0  0  0  0  0  0
   73.0265   58.3272   17.7911 C   0  0  0  0  0  0  0  0  0  0  0  0
   74.0261   59.7011   19.5528 C   0  0  1  0  0  0  0  0  0  0  0  0
   74.6267   60.5655   18.4763 C   0  0  0  0  0  0  0  0  0  0  0  0
   74.4385   61.8441   20.3202 C   0  0  1  0  0  0  0  0  0  0  0  0
   72.5413   62.8403   19.7652 C   0  0  0  0  0  0  0  0  0  0  0  0
   69.7323   59.1417   16.9326 C   0  0  0  0  0  0  0  0  0  0  0  0
   67.7103   51.9519   13.1304 C   0  0  0  0  0  0  0  0  0  0  0  0
   67.2854   53.3764   13.0141 C   0  0  0  0  0  0  0  0  0  0  0  0
   67.6288   54.2120   14.2264 C   0  0  0  0  0  0  0  0  0  0  0  0
   69.0857   53.9561   14.4964 C   0  0  2  0  0  0  0  0  0  0  0  0
   69.0241   52.5744   15.2105 C   0  0  0  0  0  0  0  0  0  0  0  0
   68.5914   51.5530   14.2269 C   0  0  0  0  0  0  0  0  0  0  0  0
   72.1165   54.3807   14.2992 C   0  0  0  0  0  0  0  0  0  0  0  0
   71.9963   56.6164   15.1604 C   0  0  0  0  0  0  0  0  0  0  0  0
   73.4163   60.7315   20.4512 C   0  0  1  0  0  0  0  0  0  0  0  0
   72.1820   61.3660   19.8541 C   0  0  0  0  0  0  0  0  0  0  0  0
   69.6237   59.7087   18.3066 C   0  0  0  0  0  0  0  0  0  0  0  0
   69.3270   58.5221   19.2360 C   0  0  0  0  0  0  0  0  0  0  0  0
   67.8780   58.4874   19.6579 C   0  0  0  0  0  0  0  0  0  0  0  0
   67.5764   59.6646   20.5416 C   0  0  0  0  0  0  0  0  0  0  0  0
   68.1394   60.9118   19.8919 C   0  0  0  0  0  0  0  0  0  0  0  0
   68.4207   60.6440   18.4285 C   0  0  0  0  0  0  0  0  0  0  0  0
   66.7624   49.6568   12.8527 C   0  0  0  0  0  0  0  0  0  0  0  0
   75.4722   52.7545   13.6029 C   0  0  0  0  0  0  0  0  0  0  0  0
   73.5791   54.1510   14.3331 C   0  0  2  0  0  0  0  0  0  0  0  0
   74.0067   53.0260   13.4472 C   0  0  0  0  0  0  0  0  0  0  0  0
   73.9115   53.7467   15.7902 C   0  0  0  0  0  0  0  0  0  0  0  0
   66.4381   51.0999   13.1732 C   0  0  1  0  0  0  0  0  0  0  0  0
   71.5126   55.2517   15.2089 N   0  0  0  0  0  0  0  0  0  0  0  0
   72.0824   58.9143   16.9300 N   0  0  0  0  0  0  0  0  0  0  0  0
   69.1399   56.4566   15.3371 O   0  0  0  0  0  0  0  0  0  0  0  0
   69.6294   54.7270   16.9600 O   0  0  0  0  0  0  0  0  0  0  0  0
   69.7080   57.1803   14.8822 O   0  0  0  0  0  0  0  0  0  0  0  0
   73.7992   57.4225   17.3838 O   0  0  0  0  0  0  0  0  0  0  0  0
   73.1360   58.7206   19.1008 O   0  0  0  0  0  0  0  0  0  0  0  0
   74.9180   61.7871   19.0270 O   0  0  0  0  0  0  0  0  0  0  0  0
   73.6836   62.9897   20.5605 O   0  0  0  0  0  0  0  0  0  0  0  0
   65.8125   51.2273   14.3988 O   0  0  0  0  0  0  0  0  0  0  0  0
   68.1755   49.5722   12.8536 O   0  0  0  0  0  0  0  0  0  0  0  0
   69.8665   55.1238   15.5333 S   0  0  1  0  0  6  0  0  0  0  0  0
  1  2  1  0
 16  1  1  0
  1 35  1  1
  2  8  1  6
  2 32  1  0
 32  3  1  0
  3 36  2  0
  3 37  1  0
  4  5  1  0
  4 17  1  0
  4 37  1  6
  5 38  1  0
 17  6  1  0
  6 38  1  6
  6 39  1  0
 18  7  1  0
  7 39  1  0
  8 19  1  0
 10  9  1  0
 14  9  1  0
  9 30  1  0
 11 10  1  0
 12 11  1  1
 12 13  1  0
 42 12  1  0
 13 14  1  0
 15 27  1  0
 31 15  1  0
 31 16  1  0
 17 18  1  6
 19 20  1  0
 19 24  1  0
 20 21  1  0
 21 22  1  0
 23 22  1  0
 24 23  1  0
 30 25  1  0
 25 41  1  0
 28 26  1  0
 27 28  1  0
 27 29  1  1
 30 40  1  1
 42 31  1  6
 42 33  2  0
 42 34  2  0
M  END
$$$$
