
     RDKit          3D

 42 45  0  0  0  0  0  0  0  0999 V2000
   70.7332   57.0713   16.0596 C   0  0  1  0  0  0  0  0  0  0  0  0
   70.9827   58.3039   16.8968 C   0  0  2  0  0  0  0  0  0  0  0  0
   73.0861   58.6605   18.1043 C   0  0  0  0  0  0  0  0  0  0  0  0
   75.3953   59.2346   18.6773 C   0  0  1  0  0  0  0  0  0  0  0  0
   75.5650   60.4212   17.7662 C   0  0  0  0  0  0  0  0  0  0  0  0
   76.0544   61.1156   19.8516 C   0  0  1  0  0  0  0  0  0  0  0  0
   74.0834   62.0153   20.3056 C   0  0  0  0  0  0  0  0  0  0  0  0
   70.4436   59.5651   16.2859 C   0  0  0  0  0  0  0  0  0  0  0  0
   68.1086   58.2922   20.1216 C   0  0  0  0  0  0  0  0  0  0  0  0
   68.8103   57.2216   20.8864 C   0  0  0  0  0  0  0  0  0  0  0  0
   68.6345   55.8408   20.2962 C   0  0  0  0  0  0  0  0  0  0  0  0
   68.9808   55.9750   18.8391 C   0  0  2  0  0  0  0  0  0  0  0  0
   67.6757   56.6074   18.2738 C   0  0  0  0  0  0  0  0  0  0  0  0
   67.5490   57.9852   18.8062 C   0  0  0  0  0  0  0  0  0  0  0  0
   69.8171   54.4616   15.3886 C   0  0  0  0  0  0  0  0  0  0  0  0
   71.1910   55.8463   16.7848 C   0  0  0  0  0  0  0  0  0  0  0  0
   75.1501   59.9063   19.9923 C   0  0  1  0  0  0  0  0  0  0  0  0
   73.7825   60.5435   20.0734 C   0  0  0  0  0  0  0  0  0  0  0  0
   69.9976   60.6198   17.2397 C   0  0  0  0  0  0  0  0  0  0  0  0
   71.2768   61.2146   17.8476 C   0  0  0  0  0  0  0  0  0  0  0  0
   71.5120   60.7217   19.2549 C   0  0  0  0  0  0  0  0  0  0  0  0
   70.4475   61.2608   20.1680 C   0  0  0  0  0  0  0  0  0  0  0  0
   69.0980   61.0477   19.5137 C   0  0  0  0  0  0  0  0  0  0  0  0
   69.2209   60.0178   18.4108 C   0  0  0  0  0  0  0  0  0  0  0  0
   65.8340   57.8777   21.0689 C   0  0  0  0  0  0  0  0  0  0  0  0
   68.6696   53.4906   12.8100 C   0  0  0  0  0  0  0  0  0  0  0  0
   70.4367   53.4306   14.5248 C   0  0  2  0  0  0  0  0  0  0  0  0
   69.4271   52.6265   13.7717 C   0  0  0  0  0  0  0  0  0  0  0  0
   71.1789   52.4657   15.4815 C   0  0  0  0  0  0  0  0  0  0  0  0
   66.9992   58.8424   21.0232 C   0  0  1  0  0  0  0  0  0  0  0  0
   70.3093   54.7021   16.6734 N   0  0  0  0  0  0  0  0  0  0  0  0
   72.4562   58.4726   16.8611 N   0  0  0  0  0  0  0  0  0  0  0  0
   69.9484   53.5283   19.0377 O   0  0  0  0  0  0  0  0  0  0  0  0
   68.0140   53.8471   17.6159 O   0  0  0  0  0  0  0  0  0  0  0  0
   69.3831   56.9977   15.7663 O   0  0  0  0  0  0  0  0  0  0  0  0
   72.4580   59.1415   19.0818 O   0  0  0  0  0  0  0  0  0  0  0  0
   74.4033   58.3261   18.2920 O   0  0  0  0  0  0  0  0  0  0  0  0
   76.0341   61.4684   18.5171 O   0  0  0  0  0  0  0  0  0  0  0  0
   75.4358   62.0627   20.6643 O   0  0  0  0  0  0  0  0  0  0  0  0
   67.4926   59.1144   22.2850 O   0  0  0  0  0  0  0  0  0  0  0  0
   65.2958   57.9882   22.3735 O   0  0  0  0  0  0  0  0  0  0  0  0
   69.3172   54.4741   18.0131 S   0  0  1  0  0  6  0  0  0  0  0  0
  1  2  1  0
 16  1  1  0
  1 35  1  1
  2  8  1  6
  2 32  1  0
 32  3  1  0
  3 36  2  0
  3 37  1  0
  4  5  1  0
  4 17  1  0
  4 37  1  6
  5 38  1  0
 17  6  1  0
  6 38  1  6
  6 39  1  0
 18  7  1  0
  7 39  1  0
  8 19  1  0
 10  9  1  0
 14  9  1  0
  9 30  1  0
 11 10  1  0
 12 11  1  1
 12 13  1  0
 42 12  1  0
 13 14  1  0
 15 27  1  0
 31 15  1  0
 31 16  1  0
 17 18  1  6
 19 20  1  0
 19 24  1  0
 20 21  1  0
 21 22  1  0
 23 22  1  0
 24 23  1  0
 30 25  1  0
 25 41  1  0
 28 26  1  0
 27 28  1  0
 27 29  1  1
 30 40  1  1
 42 31  1  6
 42 33  2  0
 42 34  2  0
M  END
$$$$
