
     RDKit          3D

 42 45  0  0  0  0  0  0  0  0999 V2000
   71.3110   57.5049   14.6909 C   0  0  1  0  0  0  0  0  0  0  0  0
   71.1668   57.9914   16.1139 C   0  0  2  0  0  0  0  0  0  0  0  0
   73.1372   58.4675   17.4924 C   0  0  0  0  0  0  0  0  0  0  0  0
   74.8553   59.6730   18.7514 C   0  0  1  0  0  0  0  0  0  0  0  0
   75.7294   60.8505   18.4102 C   0  0  0  0  0  0  0  0  0  0  0  0
   74.5453   61.4165   20.2400 C   0  0  1  0  0  0  0  0  0  0  0  0
   72.9634   62.5590   19.1947 C   0  0  0  0  0  0  0  0  0  0  0  0
   70.0362   58.9604   16.3066 C   0  0  0  0  0  0  0  0  0  0  0  0
   67.2219   51.1874   14.1801 C   0  0  0  0  0  0  0  0  0  0  0  0
   68.6536   51.4045   13.8241 C   0  0  0  0  0  0  0  0  0  0  0  0
   69.1260   52.8226   14.0507 C   0  0  0  0  0  0  0  0  0  0  0  0
   68.7138   53.1684   15.4548 C   0  0  2  0  0  0  0  0  0  0  0  0
   67.2024   53.4846   15.2585 C   0  0  0  0  0  0  0  0  0  0  0  0
   66.4981   52.2277   14.9092 C   0  0  0  0  0  0  0  0  0  0  0  0
   71.5455   54.2366   14.4319 C   0  0  0  0  0  0  0  0  0  0  0  0
   70.4012   56.3448   14.4411 C   0  0  0  0  0  0  0  0  0  0  0  0
   73.7580   60.3356   19.5245 C   0  0  1  0  0  0  0  0  0  0  0  0
   72.8358   61.1475   18.6451 C   0  0  0  0  0  0  0  0  0  0  0  0
   69.1579   58.7206   17.4865 C   0  0  0  0  0  0  0  0  0  0  0  0
   68.4528   60.0552   17.7722 C   0  0  0  0  0  0  0  0  0  0  0  0
   69.0479   60.7607   18.9667 C   0  0  0  0  0  0  0  0  0  0  0  0
   68.7607   59.9773   20.2163 C   0  0  0  0  0  0  0  0  0  0  0  0
   69.0952   58.5222   19.9604 C   0  0  0  0  0  0  0  0  0  0  0  0
   69.9797   58.4079   18.7369 C   0  0  0  0  0  0  0  0  0  0  0  0
   66.6109   49.4026   12.5418 C   0  0  0  0  0  0  0  0  0  0  0  0
   74.6833   52.7227   15.8256 C   0  0  0  0  0  0  0  0  0  0  0  0
   72.9959   54.1292   14.7113 C   0  0  2  0  0  0  0  0  0  0  0  0
   73.2922   53.2748   15.9010 C   0  0  0  0  0  0  0  0  0  0  0  0
   73.4719   55.5652   15.0407 C   0  0  0  0  0  0  0  0  0  0  0  0
   66.4734   50.8709   12.8817 C   0  0  1  0  0  0  0  0  0  0  0  0
   70.7474   55.1298   15.1502 N   0  0  0  0  0  0  0  0  0  0  0  0
   72.3912   58.7960   16.3465 N   0  0  0  0  0  0  0  0  0  0  0  0
   68.4519   55.6127   16.4133 O   0  0  0  0  0  0  0  0  0  0  0  0
   70.0636   54.1621   17.4919 O   0  0  0  0  0  0  0  0  0  0  0  0
   71.0269   58.5512   13.8313 O   0  0  0  0  0  0  0  0  0  0  0  0
   72.6452   57.7511   18.4013 O   0  0  0  0  0  0  0  0  0  0  0  0
   74.4232   58.9161   17.6567 O   0  0  0  0  0  0  0  0  0  0  0  0
   75.5519   61.8048   19.3788 O   0  0  0  0  0  0  0  0  0  0  0  0
   73.5945   62.4154   20.4360 O   0  0  0  0  0  0  0  0  0  0  0  0
   65.1496   51.2548   12.9815 O   0  0  0  0  0  0  0  0  0  0  0  0
   65.4882   49.0882   11.7389 O   0  0  0  0  0  0  0  0  0  0  0  0
   69.5226   54.5515   16.1485 S   0  0  1  0  0  6  0  0  0  0  0  0
  1  2  1  0
 16  1  1  0
  1 35  1  6
  2  8  1  6
  2 32  1  0
 32  3  1  0
  3 36  2  0
  3 37  1  0
  4  5  1  0
  4 17  1  0
  4 37  1  6
  5 38  1  0
 17  6  1  0
  6 38  1  6
  6 39  1  0
 18  7  1  0
  7 39  1  0
  8 19  1  0
 10  9  1  0
 14  9  1  0
  9 30  1  0
 11 10  1  0
 12 11  1  6
 12 13  1  0
 42 12  1  0
 13 14  1  0
 15 27  1  0
 31 15  1  0
 31 16  1  0
 17 18  1  6
 19 20  1  0
 19 24  1  0
 20 21  1  0
 21 22  1  0
 23 22  1  0
 24 23  1  0
 30 25  1  0
 25 41  1  0
 28 26  1  0
 27 28  1  0
 27 29  1  1
 30 40  1  1
 42 31  1  6
 42 33  2  0
 42 34  2  0
M  END
$$$$
