
     RDKit          3D

 42 45  0  0  0  0  0  0  0  0999 V2000
   70.8081   56.7145   16.1533 C   0  0  1  0  0  0  0  0  0  0  0  0
   70.9933   57.6761   17.3038 C   0  0  2  0  0  0  0  0  0  0  0  0
   73.1562   58.4511   18.1585 C   0  0  0  0  0  0  0  0  0  0  0  0
   74.8689   60.0228   18.9245 C   0  0  1  0  0  0  0  0  0  0  0  0
   75.4870   61.2278   18.2666 C   0  0  0  0  0  0  0  0  0  0  0  0
   74.5405   61.9357   20.1833 C   0  0  1  0  0  0  0  0  0  0  0  0
   72.6557   62.6817   19.2939 C   0  0  0  0  0  0  0  0  0  0  0  0
   70.0236   58.8224   17.2916 C   0  0  0  0  0  0  0  0  0  0  0  0
   67.0875   50.1941   13.6819 C   0  0  0  0  0  0  0  0  0  0  0  0
   68.5594   50.4110   13.5824 C   0  0  0  0  0  0  0  0  0  0  0  0
   68.9414   51.8390   13.2653 C   0  0  0  0  0  0  0  0  0  0  0  0
   68.1937   52.6886   14.2551 C   0  0  2  0  0  0  0  0  0  0  0  0
   66.7716   52.7114   13.6226 C   0  0  0  0  0  0  0  0  0  0  0  0
   66.1924   51.3498   13.7127 C   0  0  0  0  0  0  0  0  0  0  0  0
   71.0482   53.9210   15.8014 C   0  0  0  0  0  0  0  0  0  0  0  0
   69.6719   55.7825   16.4298 C   0  0  0  0  0  0  0  0  0  0  0  0
   73.8224   60.6611   19.7835 C   0  0  1  0  0  0  0  0  0  0  0  0
   72.6580   61.1940   18.9817 C   0  0  0  0  0  0  0  0  0  0  0  0
   68.8319   58.6857   18.1760 C   0  0  0  0  0  0  0  0  0  0  0  0
   68.0226   59.9801   18.0052 C   0  0  0  0  0  0  0  0  0  0  0  0
   68.1896   60.9071   19.1848 C   0  0  0  0  0  0  0  0  0  0  0  0
   67.5584   60.2980   20.4048 C   0  0  0  0  0  0  0  0  0  0  0  0
   68.0112   58.8565   20.5129 C   0  0  0  0  0  0  0  0  0  0  0  0
   69.2358   58.6386   19.6496 C   0  0  0  0  0  0  0  0  0  0  0  0
   67.5535   49.5452   11.3145 C   0  0  0  0  0  0  0  0  0  0  0  0
   73.9303   53.5891   14.4674 C   0  0  0  0  0  0  0  0  0  0  0  0
   72.2537   54.7809   15.8223 C   0  0  2  0  0  0  0  0  0  0  0  0
   73.5233   53.9934   15.8517 C   0  0  0  0  0  0  0  0  0  0  0  0
   72.1767   55.5874   17.1416 C   0  0  0  0  0  0  0  0  0  0  0  0
   66.6836   49.2769   12.5236 C   0  0  1  0  0  0  0  0  0  0  0  0
   69.7714   54.4870   15.7890 N   0  0  0  0  0  0  0  0  0  0  0  0
   72.3131   58.3015   17.0431 N   0  0  0  0  0  0  0  0  0  0  0  0
   69.5303   54.6728   13.1422 O   0  0  0  0  0  0  0  0  0  0  0  0
   67.6133   55.2498   14.5050 O   0  0  0  0  0  0  0  0  0  0  0  0
   70.5829   57.4407   14.9974 O   0  0  0  0  0  0  0  0  0  0  0  0
   72.8051   58.0418   19.2945 O   0  0  0  0  0  0  0  0  0  0  0  0
   74.3867   59.0469   18.0452 O   0  0  0  0  0  0  0  0  0  0  0  0
   75.3244   62.2994   19.1067 O   0  0  0  0  0  0  0  0  0  0  0  0
   73.4928   62.8259   20.4067 O   0  0  0  0  0  0  0  0  0  0  0  0
   66.7388   47.9525   12.9142 O   0  0  0  0  0  0  0  0  0  0  0  0
   67.3409   48.4530   10.4394 O   0  0  0  0  0  0  0  0  0  0  0  0
   68.7882   54.3205   14.4337 S   0  0  1  0  0  6  0  0  0  0  0  0
  1  2  1  0
 16  1  1  0
  1 35  1  6
  2  8  1  6
  2 32  1  0
 32  3  1  0
  3 36  2  0
  3 37  1  0
  4  5  1  0
  4 17  1  0
  4 37  1  6
  5 38  1  0
 17  6  1  0
  6 38  1  6
  6 39  1  0
 18  7  1  0
  7 39  1  0
  8 19  1  0
 10  9  1  0
 14  9  1  0
  9 30  1  0
 11 10  1  0
 12 11  1  6
 12 13  1  0
 42 12  1  0
 13 14  1  0
 15 27  1  0
 31 15  1  0
 31 16  1  0
 17 18  1  6
 19 20  1  0
 19 24  1  0
 20 21  1  0
 21 22  1  0
 23 22  1  0
 24 23  1  0
 30 25  1  0
 25 41  1  0
 28 26  1  0
 27 28  1  0
 27 29  1  1
 30 40  1  1
 42 31  1  1
 42 33  2  0
 42 34  2  0
M  END
$$$$
