
     RDKit          3D

 42 45  0  0  0  0  0  0  0  0999 V2000
   71.8135   57.1653   15.2289 C   0  0  1  0  0  0  0  0  0  0  0  0
   71.4091   57.8609   16.5076 C   0  0  2  0  0  0  0  0  0  0  0  0
   72.9608   59.0510   17.9858 C   0  0  0  0  0  0  0  0  0  0  0  0
   74.7775   59.8893   19.3955 C   0  0  1  0  0  0  0  0  0  0  0  0
   75.7043   61.0675   19.2556 C   0  0  0  0  0  0  0  0  0  0  0  0
   74.6012   61.3237   21.2019 C   0  0  1  0  0  0  0  0  0  0  0  0
   73.0561   62.7214   20.4541 C   0  0  0  0  0  0  0  0  0  0  0  0
   70.1145   58.6137   16.3992 C   0  0  0  0  0  0  0  0  0  0  0  0
   67.7284   50.9703   13.3548 C   0  0  0  0  0  0  0  0  0  0  0  0
   66.9612   52.2422   13.4858 C   0  0  0  0  0  0  0  0  0  0  0  0
   67.2459   52.9923   14.7672 C   0  0  0  0  0  0  0  0  0  0  0  0
   68.7438   53.0887   14.8570 C   0  0  2  0  0  0  0  0  0  0  0  0
   69.1096   51.6644   15.3675 C   0  0  0  0  0  0  0  0  0  0  0  0
   68.8132   50.6867   14.2932 C   0  0  0  0  0  0  0  0  0  0  0  0
   71.8258   54.0289   15.0107 C   0  0  0  0  0  0  0  0  0  0  0  0
   70.7703   56.1746   14.8211 C   0  0  0  0  0  0  0  0  0  0  0  0
   73.7383   60.4409   20.3210 C   0  0  1  0  0  0  0  0  0  0  0  0
   72.8382   61.4510   19.6483 C   0  0  0  0  0  0  0  0  0  0  0  0
   69.1635   58.4546   17.5356 C   0  0  0  0  0  0  0  0  0  0  0  0
   68.3870   59.7766   17.6309 C   0  0  0  0  0  0  0  0  0  0  0  0
   68.8658   60.6278   18.7821 C   0  0  0  0  0  0  0  0  0  0  0  0
   68.5207   59.9635   20.0849 C   0  0  0  0  0  0  0  0  0  0  0  0
   68.9306   58.5072   20.0068 C   0  0  0  0  0  0  0  0  0  0  0  0
   69.9049   58.3104   18.8647 C   0  0  0  0  0  0  0  0  0  0  0  0
   65.3489   50.3126   12.9699 C   0  0  0  0  0  0  0  0  0  0  0  0
   73.6816   52.1722   14.2651 C   0  0  0  0  0  0  0  0  0  0  0  0
   73.1187   54.5568   14.5179 C   0  0  2  0  0  0  0  0  0  0  0  0
   73.8847   53.5528   13.7190 C   0  0  0  0  0  0  0  0  0  0  0  0
   73.9539   54.8804   15.7808 C   0  0  0  0  0  0  0  0  0  0  0  0
   66.7156   49.8219   13.3963 C   0  0  1  0  0  0  0  0  0  0  0  0
   70.8429   54.8946   15.4958 N   0  0  0  0  0  0  0  0  0  0  0  0
   72.4386   58.9138   16.6873 N   0  0  0  0  0  0  0  0  0  0  0  0
   68.2875   55.3911   16.0623 O   0  0  0  0  0  0  0  0  0  0  0  0
   69.4253   53.6749   17.3371 O   0  0  0  0  0  0  0  0  0  0  0  0
   72.0034   58.1183   14.2440 O   0  0  0  0  0  0  0  0  0  0  0  0
   72.2346   58.8752   18.9972 O   0  0  0  0  0  0  0  0  0  0  0  0
   74.2765   59.3804   18.1922 O   0  0  0  0  0  0  0  0  0  0  0  0
   75.6041   61.8232   20.3955 O   0  0  0  0  0  0  0  0  0  0  0  0
   73.7111   62.3098   21.6208 O   0  0  0  0  0  0  0  0  0  0  0  0
   67.1501   48.7664   12.6174 O   0  0  0  0  0  0  0  0  0  0  0  0
   64.7705   49.2478   12.2380 O   0  0  0  0  0  0  0  0  0  0  0  0
   69.3466   54.2898   15.9715 S   0  0  1  0  0  6  0  0  0  0  0  0
  1  2  1  0
 16  1  1  0
  1 35  1  6
  2  8  1  6
  2 32  1  0
 32  3  1  0
  3 36  2  0
  3 37  1  0
  4  5  1  0
  4 17  1  0
  4 37  1  6
  5 38  1  0
 17  6  1  0
  6 38  1  6
  6 39  1  0
 18  7  1  0
  7 39  1  0
  8 19  1  0
 10  9  1  0
 14  9  1  0
  9 30  1  0
 11 10  1  0
 12 11  1  1
 12 13  1  0
 42 12  1  0
 13 14  1  0
 15 27  1  0
 31 15  1  0
 31 16  1  0
 17 18  1  6
 19 20  1  0
 19 24  1  0
 20 21  1  0
 21 22  1  0
 23 22  1  0
 24 23  1  0
 30 25  1  0
 25 41  1  0
 28 26  1  0
 27 28  1  0
 27 29  1  1
 30 40  1  6
 42 31  1  6
 42 33  2  0
 42 34  2  0
M  END
$$$$
