
     RDKit          3D

 42 45  0  0  0  0  0  0  0  0999 V2000
   72.1501   56.6888   15.0750 C   0  0  1  0  0  0  0  0  0  0  0  0
   71.6323   55.3357   15.5034 C   0  0  2  0  0  0  0  0  0  0  0  0
   69.4528   54.2363   15.2790 C   0  0  0  0  0  0  0  0  0  0  0  0
   68.1896   52.7195   13.8319 C   0  0  1  0  0  0  0  0  0  0  0  0
   68.1083   53.5244   12.5621 C   0  0  0  0  0  0  0  0  0  0  0  0
   67.2576   51.4893   12.1087 C   0  0  1  0  0  0  0  0  0  0  0  0
   69.0829   50.6312   11.1965 C   0  0  0  0  0  0  0  0  0  0  0  0
   72.4752   54.1897   15.0234 C   0  0  0  0  0  0  0  0  0  0  0  0
   70.1119   61.1814   21.2057 C   0  0  0  0  0  0  0  0  0  0  0  0
   71.4369   60.4975   21.2130 C   0  0  0  0  0  0  0  0  0  0  0  0
   71.4120   59.1214   20.5874 C   0  0  0  0  0  0  0  0  0  0  0  0
   70.7428   59.2945   19.2521 C   0  0  2  0  0  0  0  0  0  0  0  0
   69.2445   59.3573   19.6692 C   0  0  0  0  0  0  0  0  0  0  0  0
   69.0158   60.6138   20.4220 C   0  0  0  0  0  0  0  0  0  0  0  0
   72.9721   58.9642   16.6230 C   0  0  0  0  0  0  0  0  0  0  0  0
   71.2132   57.7689   15.5131 C   0  0  0  0  0  0  0  0  0  0  0  0
   68.1874   51.3222   13.2951 C   0  0  1  0  0  0  0  0  0  0  0  0
   69.4906   50.9551   12.6246 C   0  0  0  0  0  0  0  0  0  0  0  0
   71.8631   52.8347   15.1251 C   0  0  0  0  0  0  0  0  0  0  0  0
   72.4632   52.1882   16.3827 C   0  0  0  0  0  0  0  0  0  0  0  0
   73.5126   51.1588   16.0392 C   0  0  0  0  0  0  0  0  0  0  0  0
   72.8702   49.9849   15.3558 C   0  0  0  0  0  0  0  0  0  0  0  0
   71.9453   50.5039   14.2741 C   0  0  0  0  0  0  0  0  0  0  0  0
   72.2865   51.9444   13.9567 C   0  0  0  0  0  0  0  0  0  0  0  0
   68.2856   60.7302   22.8501 C   0  0  0  0  0  0  0  0  0  0  0  0
   75.4737   59.7366   17.1260 C   0  0  0  0  0  0  0  0  0  0  0  0
   74.0052   58.1685   15.9211 C   0  0  2  0  0  0  0  0  0  0  0  0
   75.3772   58.3933   16.4689 C   0  0  0  0  0  0  0  0  0  0  0  0
   74.0026   58.6683   14.4557 C   0  0  0  0  0  0  0  0  0  0  0  0
   69.6654   61.3234   22.6641 C   0  0  1  0  0  0  0  0  0  0  0  0
   71.6470   58.5252   16.6702 N   0  0  0  0  0  0  0  0  0  0  0  0
   70.3517   55.1899   14.7689 N   0  0  0  0  0  0  0  0  0  0  0  0
   71.8881   56.9586   18.8116 O   0  0  0  0  0  0  0  0  0  0  0  0
   69.6735   57.3020   17.8936 O   0  0  0  0  0  0  0  0  0  0  0  0
   73.4095   56.8759   15.6166 O   0  0  0  0  0  0  0  0  0  0  0  0
   68.7850   54.4680   16.3190 O   0  0  0  0  0  0  0  0  0  0  0  0
   69.2748   53.0245   14.6609 O   0  0  0  0  0  0  0  0  0  0  0  0
   67.4732   52.7609   11.6164 O   0  0  0  0  0  0  0  0  0  0  0  0
   67.6900   50.4965   11.2326 O   0  0  0  0  0  0  0  0  0  0  0  0
   70.5925   60.7470   23.5114 O   0  0  0  0  0  0  0  0  0  0  0  0
   68.3177   60.0701   24.1020 O   0  0  0  0  0  0  0  0  0  0  0  0
   70.9881   57.9867   18.1217 S   0  0  1  0  0  6  0  0  0  0  0  0
  1  2  1  0
 16  1  1  0
  1 35  1  1
  2  8  1  6
  2 32  1  0
 32  3  1  0
  3 36  2  0
  3 37  1  0
  4  5  1  0
  4 17  1  0
  4 37  1  6
  5 38  1  0
 17  6  1  0
  6 38  1  6
  6 39  1  0
 18  7  1  0
  7 39  1  0
  8 19  1  0
 10  9  1  0
 14  9  1  0
  9 30  1  0
 11 10  1  0
 12 11  1  1
 12 13  1  0
 42 12  1  0
 13 14  1  0
 15 27  1  0
 31 15  1  0
 31 16  1  0
 17 18  1  6
 19 20  1  0
 19 24  1  0
 20 21  1  0
 21 22  1  0
 23 22  1  0
 24 23  1  0
 30 25  1  0
 25 41  1  0
 28 26  1  0
 27 28  1  0
 27 29  1  6
 30 40  1  1
 42 31  1  6
 42 33  2  0
 42 34  2  0
M  END
$$$$
