
     RDKit          3D

 42 45  0  0  0  0  0  0  0  0999 V2000
   70.3530   57.3442   15.1114 C   0  0  1  0  0  0  0  0  0  0  0  0
   70.7149   57.7698   16.5151 C   0  0  2  0  0  0  0  0  0  0  0  0
   72.6401   58.8814   17.5481 C   0  0  0  0  0  0  0  0  0  0  0  0
   74.6029   59.7415   18.7304 C   0  0  1  0  0  0  0  0  0  0  0  0
   75.5594   60.8915   18.5580 C   0  0  0  0  0  0  0  0  0  0  0  0
   74.7252   61.0346   20.6447 C   0  0  1  0  0  0  0  0  0  0  0  0
   73.1657   62.5439   20.2088 C   0  0  0  0  0  0  0  0  0  0  0  0
   69.8924   58.9171   17.0266 C   0  0  0  0  0  0  0  0  0  0  0  0
   72.3070   49.8610   14.4442 C   0  0  0  0  0  0  0  0  0  0  0  0
   73.4055   50.5496   15.1807 C   0  0  0  0  0  0  0  0  0  0  0  0
   73.3413   52.0575   15.0934 C   0  0  0  0  0  0  0  0  0  0  0  0
   71.9333   52.4265   15.4706 C   0  0  2  0  0  0  0  0  0  0  0  0
   71.1727   52.1120   14.1494 C   0  0  0  0  0  0  0  0  0  0  0  0
   71.1820   50.6449   13.9365 C   0  0  0  0  0  0  0  0  0  0  0  0
   69.5752   54.7390   14.4108 C   0  0  0  0  0  0  0  0  0  0  0  0
   71.3434   56.3494   14.5958 C   0  0  0  0  0  0  0  0  0  0  0  0
   73.7167   60.2570   19.8210 C   0  0  1  0  0  0  0  0  0  0  0  0
   72.7876   61.3501   19.3471 C   0  0  0  0  0  0  0  0  0  0  0  0
   70.2419   59.4238   18.3838 C   0  0  0  0  0  0  0  0  0  0  0  0
   69.6232   58.4334   19.3818 C   0  0  0  0  0  0  0  0  0  0  0  0
   68.3753   58.9890   20.0244 C   0  0  0  0  0  0  0  0  0  0  0  0
   68.7316   60.1494   20.9099 C   0  0  0  0  0  0  0  0  0  0  0  0
   69.6569   61.0731   20.1449 C   0  0  0  0  0  0  0  0  0  0  0  0
   69.5732   60.7696   18.6639 C   0  0  0  0  0  0  0  0  0  0  0  0
   72.3972   49.5844   11.9625 C   0  0  0  0  0  0  0  0  0  0  0  0
   68.1141   55.3277   16.5053 C   0  0  0  0  0  0  0  0  0  0  0  0
   68.6558   55.8737   14.1653 C   0  0  2  0  0  0  0  0  0  0  0  0
   67.9676   56.3376   15.4080 C   0  0  0  0  0  0  0  0  0  0  0  0
   67.5670   55.3372   13.2041 C   0  0  0  0  0  0  0  0  0  0  0  0
   72.9485   49.0938   13.2839 C   0  0  1  0  0  0  0  0  0  0  0  0
   70.9258   54.9651   14.6856 N   0  0  0  0  0  0  0  0  0  0  0  0
   72.0851   58.3230   16.3830 N   0  0  0  0  0  0  0  0  0  0  0  0
   70.8913   54.1147   17.2102 O   0  0  0  0  0  0  0  0  0  0  0  0
   73.0285   54.7017   16.2339 O   0  0  0  0  0  0  0  0  0  0  0  0
   69.0761   56.8116   15.1224 O   0  0  0  0  0  0  0  0  0  0  0  0
   71.9680   58.9687   18.6073 O   0  0  0  0  0  0  0  0  0  0  0  0
   73.9299   59.3484   17.5683 O   0  0  0  0  0  0  0  0  0  0  0  0
   75.6404   61.5581   19.7536 O   0  0  0  0  0  0  0  0  0  0  0  0
   73.9431   62.0173   21.2471 O   0  0  0  0  0  0  0  0  0  0  0  0
   74.3253   49.1984   13.3383 O   0  0  0  0  0  0  0  0  0  0  0  0
   73.2411   49.0352   10.9675 O   0  0  0  0  0  0  0  0  0  0  0  0
   71.6942   54.0999   15.9072 S   0  0  1  0  0  6  0  0  0  0  0  0
  1  2  1  0
 16  1  1  0
  1 35  1  1
  2  8  1  6
  2 32  1  0
 32  3  1  0
  3 36  2  0
  3 37  1  0
  4  5  1  0
  4 17  1  0
  4 37  1  6
  5 38  1  0
 17  6  1  0
  6 38  1  6
  6 39  1  0
 18  7  1  0
  7 39  1  0
  8 19  1  0
 10  9  1  0
 14  9  1  0
  9 30  1  0
 11 10  1  0
 12 11  1  6
 12 13  1  0
 42 12  1  0
 13 14  1  0
 15 27  1  0
 31 15  1  0
 31 16  1  0
 17 18  1  6
 19 20  1  0
 19 24  1  0
 20 21  1  0
 21 22  1  0
 23 22  1  0
 24 23  1  0
 30 25  1  0
 25 41  1  0
 28 26  1  0
 27 28  1  0
 27 29  1  6
 30 40  1  6
 42 31  1  6
 42 33  2  0
 42 34  2  0
M  END
$$$$
