
     RDKit          3D

 42 45  0  0  0  0  0  0  0  0999 V2000
   71.4934   57.5150   15.3448 C   0  0  1  0  0  0  0  0  0  0  0  0
   71.0368   57.9867   16.7055 C   0  0  2  0  0  0  0  0  0  0  0  0
   73.0902   58.2645   18.0153 C   0  0  0  0  0  0  0  0  0  0  0  0
   74.8577   59.6038   19.0510 C   0  0  1  0  0  0  0  0  0  0  0  0
   75.5535   60.8313   18.5256 C   0  0  0  0  0  0  0  0  0  0  0  0
   74.5433   61.4189   20.4504 C   0  0  1  0  0  0  0  0  0  0  0  0
   72.7344   62.3157   19.5428 C   0  0  0  0  0  0  0  0  0  0  0  0
   69.8337   58.8837   16.6586 C   0  0  0  0  0  0  0  0  0  0  0  0
   67.0592   51.6262   13.4257 C   0  0  0  0  0  0  0  0  0  0  0  0
   66.2842   52.5407   14.3125 C   0  0  0  0  0  0  0  0  0  0  0  0
   67.0646   53.0260   15.5130 C   0  0  0  0  0  0  0  0  0  0  0  0
   68.3653   53.5473   14.9679 C   0  0  2  0  0  0  0  0  0  0  0  0
   69.1496   52.2230   14.7351 C   0  0  0  0  0  0  0  0  0  0  0  0
   68.4989   51.4760   13.6322 C   0  0  0  0  0  0  0  0  0  0  0  0
   71.4879   54.3172   14.5944 C   0  0  0  0  0  0  0  0  0  0  0  0
   70.5345   56.5095   14.7920 C   0  0  0  0  0  0  0  0  0  0  0  0
   73.7963   60.2135   19.9126 C   0  0  1  0  0  0  0  0  0  0  0  0
   72.6939   60.8601   19.1068 C   0  0  0  0  0  0  0  0  0  0  0  0
   69.5611   59.6840   17.8859 C   0  0  0  0  0  0  0  0  0  0  0  0
   69.2768   58.6688   19.0033 C   0  0  0  0  0  0  0  0  0  0  0  0
   67.8034   58.5790   19.3193 C   0  0  0  0  0  0  0  0  0  0  0  0
   67.3350   59.8670   19.9352 C   0  0  0  0  0  0  0  0  0  0  0  0
   67.8546   61.0182   19.0988 C   0  0  0  0  0  0  0  0  0  0  0  0
   68.2832   60.5099   17.7386 C   0  0  0  0  0  0  0  0  0  0  0  0
   66.5262   49.5294   12.1758 C   0  0  0  0  0  0  0  0  0  0  0  0
   73.2118   53.3266   12.5802 C   0  0  0  0  0  0  0  0  0  0  0  0
   72.9481   54.2767   14.8374 C   0  0  2  0  0  0  0  0  0  0  0  0
   73.6413   53.2407   14.0133 C   0  0  0  0  0  0  0  0  0  0  0  0
   73.1200   53.8791   16.3238 C   0  0  0  0  0  0  0  0  0  0  0  0
   66.3947   50.2482   13.5011 C   0  0  1  0  0  0  0  0  0  0  0  0
   70.6677   55.1725   15.3337 N   0  0  0  0  0  0  0  0  0  0  0  0
   72.1382   58.8644   17.1720 N   0  0  0  0  0  0  0  0  0  0  0  0
   68.3211   55.7140   16.4730 O   0  0  0  0  0  0  0  0  0  0  0  0
   69.5766   53.8137   17.2961 O   0  0  0  0  0  0  0  0  0  0  0  0
   71.6006   58.6104   14.5063 O   0  0  0  0  0  0  0  0  0  0  0  0
   72.7843   57.2861   18.7437 O   0  0  0  0  0  0  0  0  0  0  0  0
   74.3812   58.7253   18.0717 O   0  0  0  0  0  0  0  0  0  0  0  0
   75.3921   61.8360   19.4448 O   0  0  0  0  0  0  0  0  0  0  0  0
   73.5214   62.3318   20.7004 O   0  0  0  0  0  0  0  0  0  0  0  0
   66.9275   49.5114   14.5418 O   0  0  0  0  0  0  0  0  0  0  0  0
   67.6883   48.7289   12.2874 O   0  0  0  0  0  0  0  0  0  0  0  0
   69.2626   54.5844   16.0485 S   0  0  1  0  0  6  0  0  0  0  0  0
  1  2  1  0
 16  1  1  0
  1 35  1  6
  2  8  1  6
  2 32  1  0
 32  3  1  0
  3 36  2  0
  3 37  1  0
  4  5  1  0
  4 17  1  0
  4 37  1  6
  5 38  1  0
 17  6  1  0
  6 38  1  6
  6 39  1  0
 18  7  1  0
  7 39  1  0
  8 19  1  0
 10  9  1  0
 14  9  1  0
  9 30  1  0
 11 10  1  0
 12 11  1  1
 12 13  1  0
 42 12  1  0
 13 14  1  0
 15 27  1  0
 31 15  1  0
 31 16  1  0
 17 18  1  6
 19 20  1  0
 19 24  1  0
 20 21  1  0
 21 22  1  0
 23 22  1  0
 24 23  1  0
 30 25  1  0
 25 41  1  0
 28 26  1  0
 27 28  1  0
 27 29  1  1
 30 40  1  1
 42 31  1  6
 42 33  2  0
 42 34  2  0
M  END
$$$$
