
     RDKit          3D

 42 45  0  0  0  0  0  0  0  0999 V2000
   71.5194   57.9967   15.4275 C   0  0  1  0  0  0  0  0  0  0  0  0
   71.2945   58.0487   16.9206 C   0  0  2  0  0  0  0  0  0  0  0  0
   72.9165   57.7291   18.7306 C   0  0  0  0  0  0  0  0  0  0  0  0
   73.9562   59.3263   20.2663 C   0  0  1  0  0  0  0  0  0  0  0  0
   74.8803   59.7506   19.1560 C   0  0  0  0  0  0  0  0  0  0  0  0
   74.7914   61.4533   20.6268 C   0  0  1  0  0  0  0  0  0  0  0  0
   73.2846   62.6635   19.5475 C   0  0  0  0  0  0  0  0  0  0  0  0
   70.4675   59.2209   17.3638 C   0  0  0  0  0  0  0  0  0  0  0  0
   68.4848   50.8643   13.6747 C   0  0  0  0  0  0  0  0  0  0  0  0
   68.5499   52.0945   12.8346 C   0  0  0  0  0  0  0  0  0  0  0  0
   68.2813   53.3682   13.6035 C   0  0  0  0  0  0  0  0  0  0  0  0
   69.1844   53.3156   14.8045 C   0  0  2  0  0  0  0  0  0  0  0  0
   68.3980   52.3455   15.7336 C   0  0  0  0  0  0  0  0  0  0  0  0
   68.4193   50.9917   15.1298 C   0  0  0  0  0  0  0  0  0  0  0  0
   71.6060   55.0519   14.0768 C   0  0  0  0  0  0  0  0  0  0  0  0
   70.5319   57.0773   14.7827 C   0  0  0  0  0  0  0  0  0  0  0  0
   73.5164   60.6517   20.8054 C   0  0  1  0  0  0  0  0  0  0  0  0
   72.5617   61.3681   19.8792 C   0  0  0  0  0  0  0  0  0  0  0  0
   69.2162   58.9000   18.1071 C   0  0  0  0  0  0  0  0  0  0  0  0
   68.4719   60.2319   18.2853 C   0  0  0  0  0  0  0  0  0  0  0  0
   68.5985   60.7624   19.6929 C   0  0  0  0  0  0  0  0  0  0  0  0
   67.8656   59.8605   20.6452 C   0  0  0  0  0  0  0  0  0  0  0  0
   68.2526   58.4269   20.3457 C   0  0  0  0  0  0  0  0  0  0  0  0
   69.5212   58.4012   19.5195 C   0  0  0  0  0  0  0  0  0  0  0  0
   67.2169   50.0630   11.6763 C   0  0  0  0  0  0  0  0  0  0  0  0
   74.2712   53.4260   16.2264 C   0  0  0  0  0  0  0  0  0  0  0  0
   72.6250   54.0689   14.5106 C   0  0  2  0  0  0  0  0  0  0  0  0
   73.1134   54.3197   15.9004 C   0  0  0  0  0  0  0  0  0  0  0  0
   73.8286   54.2554   13.5546 C   0  0  0  0  0  0  0  0  0  0  0  0
   67.2860   50.0442   13.1881 C   0  0  1  0  0  0  0  0  0  0  0  0
   70.7681   55.6662   15.0103 N   0  0  0  0  0  0  0  0  0  0  0  0
   72.6432   58.3112   17.4801 N   0  0  0  0  0  0  0  0  0  0  0  0
   68.1422   55.6494   15.4597 O   0  0  0  0  0  0  0  0  0  0  0  0
   69.5840   54.5797   17.0851 O   0  0  0  0  0  0  0  0  0  0  0  0
   71.4111   59.2775   14.9157 O   0  0  0  0  0  0  0  0  0  0  0  0
   73.1730   56.5021   18.8310 O   0  0  0  0  0  0  0  0  0  0  0  0
   72.9125   58.4780   19.8800 O   0  0  0  0  0  0  0  0  0  0  0  0
   75.3965   60.9789   19.4803 O   0  0  0  0  0  0  0  0  0  0  0  0
   74.3216   62.7567   20.4832 O   0  0  0  0  0  0  0  0  0  0  0  0
   67.3482   48.7563   13.6850 O   0  0  0  0  0  0  0  0  0  0  0  0
   66.1962   49.1461   11.3278 O   0  0  0  0  0  0  0  0  0  0  0  0
   69.4326   54.8413   15.6162 S   0  0  1  0  0  6  0  0  0  0  0  0
  1  2  1  0
 16  1  1  0
  1 35  1  6
  2  8  1  6
  2 32  1  0
 32  3  1  0
  3 36  2  0
  3 37  1  0
  4  5  1  0
  4 17  1  0
  4 37  1  6
  5 38  1  0
 17  6  1  0
  6 38  1  6
  6 39  1  0
 18  7  1  0
  7 39  1  0
  8 19  1  0
 10  9  1  0
 14  9  1  0
  9 30  1  0
 11 10  1  0
 12 11  1  6
 12 13  1  0
 42 12  1  0
 13 14  1  0
 15 27  1  0
 31 15  1  0
 31 16  1  0
 17 18  1  6
 19 20  1  0
 19 24  1  0
 20 21  1  0
 21 22  1  0
 23 22  1  0
 24 23  1  0
 30 25  1  0
 25 41  1  0
 28 26  1  0
 27 28  1  0
 27 29  1  6
 30 40  1  6
 42 31  1  6
 42 33  2  0
 42 34  2  0
M  END
$$$$
