
     RDKit          3D

 42 45  0  0  0  0  0  0  0  0999 V2000
   71.2373   57.1789   15.5219 C   0  0  1  0  0  0  0  0  0  0  0  0
   71.2201   57.9787   16.8035 C   0  0  2  0  0  0  0  0  0  0  0  0
   72.9464   59.1432   18.0970 C   0  0  0  0  0  0  0  0  0  0  0  0
   74.7759   60.1098   19.4042 C   0  0  1  0  0  0  0  0  0  0  0  0
   75.5065   61.2895   18.8199 C   0  0  0  0  0  0  0  0  0  0  0  0
   74.5278   61.9956   20.7209 C   0  0  1  0  0  0  0  0  0  0  0  0
   72.7422   62.9072   19.7825 C   0  0  0  0  0  0  0  0  0  0  0  0
   70.2619   59.1344   16.7784 C   0  0  0  0  0  0  0  0  0  0  0  0
   67.2644   51.7431   12.9551 C   0  0  0  0  0  0  0  0  0  0  0  0
   66.8627   51.9297   14.3789 C   0  0  0  0  0  0  0  0  0  0  0  0
   67.9521   52.5231   15.2430 C   0  0  0  0  0  0  0  0  0  0  0  0
   68.4355   53.7419   14.5069 C   0  0  2  0  0  0  0  0  0  0  0  0
   69.3561   53.0999   13.4283 C   0  0  0  0  0  0  0  0  0  0  0  0
   68.5105   52.3399   12.4769 C   0  0  0  0  0  0  0  0  0  0  0  0
   71.4845   54.2184   13.9997 C   0  0  0  0  0  0  0  0  0  0  0  0
   71.7884   55.8107   15.7678 C   0  0  0  0  0  0  0  0  0  0  0  0
   73.7398   60.7914   20.2425 C   0  0  1  0  0  0  0  0  0  0  0  0
   72.6531   61.4352   19.4136 C   0  0  0  0  0  0  0  0  0  0  0  0
   69.0834   59.0320   17.6848 C   0  0  0  0  0  0  0  0  0  0  0  0
   68.5270   60.4570   17.8246 C   0  0  0  0  0  0  0  0  0  0  0  0
   68.8876   61.0732   19.1547 C   0  0  0  0  0  0  0  0  0  0  0  0
   68.1780   60.3464   20.2619 C   0  0  0  0  0  0  0  0  0  0  0  0
   68.3554   58.8568   20.0519 C   0  0  0  0  0  0  0  0  0  0  0  0
   69.5004   58.6079   19.0931 C   0  0  0  0  0  0  0  0  0  0  0  0
   65.9949   49.5981   13.1292 C   0  0  0  0  0  0  0  0  0  0  0  0
   73.3775   52.0703   13.2965 C   0  0  0  0  0  0  0  0  0  0  0  0
   72.8819   54.4667   13.5771 C   0  0  2  0  0  0  0  0  0  0  0  0
   73.3970   53.4192   12.6441 C   0  0  0  0  0  0  0  0  0  0  0  0
   73.7340   54.3985   14.8680 C   0  0  0  0  0  0  0  0  0  0  0  0
   67.2934   50.2357   12.6845 C   0  0  1  0  0  0  0  0  0  0  0  0
   71.0072   54.7254   15.2104 N   0  0  0  0  0  0  0  0  0  0  0  0
   72.5624   58.6083   16.8545 N   0  0  0  0  0  0  0  0  0  0  0  0
   68.8434   56.2768   15.1148 O   0  0  0  0  0  0  0  0  0  0  0  0
   69.0098   54.6618   16.9117 O   0  0  0  0  0  0  0  0  0  0  0  0
   69.9491   57.1114   15.0215 O   0  0  0  0  0  0  0  0  0  0  0  0
   72.0889   59.5828   18.9050 O   0  0  0  0  0  0  0  0  0  0  0  0
   74.2656   59.2032   18.4685 O   0  0  0  0  0  0  0  0  0  0  0  0
   75.3828   62.3395   19.6931 O   0  0  0  0  0  0  0  0  0  0  0  0
   73.5368   62.9509   20.9342 O   0  0  0  0  0  0  0  0  0  0  0  0
   67.5579   49.9894   11.3507 O   0  0  0  0  0  0  0  0  0  0  0  0
   66.1826   48.2028   12.9815 O   0  0  0  0  0  0  0  0  0  0  0  0
   69.3512   54.8766   15.4672 S   0  0  1  0  0  6  0  0  0  0  0  0
  1  2  1  0
 16  1  1  0
  1 35  1  1
  2  8  1  6
  2 32  1  0
 32  3  1  0
  3 36  2  0
  3 37  1  0
  4  5  1  0
  4 17  1  0
  4 37  1  6
  5 38  1  0
 17  6  1  0
  6 38  1  6
  6 39  1  0
 18  7  1  0
  7 39  1  0
  8 19  1  0
 10  9  1  0
 14  9  1  0
  9 30  1  0
 11 10  1  0
 12 11  1  1
 12 13  1  0
 42 12  1  0
 13 14  1  0
 15 27  1  0
 31 15  1  0
 31 16  1  0
 17 18  1  6
 19 20  1  0
 19 24  1  0
 20 21  1  0
 21 22  1  0
 23 22  1  0
 24 23  1  0
 30 25  1  0
 25 41  1  0
 28 26  1  0
 27 28  1  0
 27 29  1  1
 30 40  1  6
 42 31  1  1
 42 33  2  0
 42 34  2  0
M  END
$$$$
