
     RDKit          3D

 42 45  0  0  0  0  0  0  0  0999 V2000
   71.5400   57.6856   15.1756 C   0  0  1  0  0  0  0  0  0  0  0  0
   71.2259   57.8161   16.6476 C   0  0  2  0  0  0  0  0  0  0  0  0
   72.8679   57.9371   18.4637 C   0  0  0  0  0  0  0  0  0  0  0  0
   73.9743   59.5333   19.9533 C   0  0  1  0  0  0  0  0  0  0  0  0
   74.7223   60.1643   18.8091 C   0  0  0  0  0  0  0  0  0  0  0  0
   74.8400   61.5958   20.5433 C   0  0  1  0  0  0  0  0  0  0  0  0
   73.1831   62.9210   19.9119 C   0  0  0  0  0  0  0  0  0  0  0  0
   70.1236   58.7918   16.9432 C   0  0  0  0  0  0  0  0  0  0  0  0
   68.2524   51.1668   13.4183 C   0  0  0  0  0  0  0  0  0  0  0  0
   68.9978   52.2926   12.7856 C   0  0  0  0  0  0  0  0  0  0  0  0
   68.8385   53.6089   13.5120 C   0  0  0  0  0  0  0  0  0  0  0  0
   69.1441   53.3159   14.9548 C   0  0  2  0  0  0  0  0  0  0  0  0
   67.8107   52.6618   15.4208 C   0  0  0  0  0  0  0  0  0  0  0  0
   67.6664   51.3501   14.7452 C   0  0  0  0  0  0  0  0  0  0  0  0
   72.1374   54.4295   15.6837 C   0  0  0  0  0  0  0  0  0  0  0  0
   71.1126   56.3457   14.6675 C   0  0  0  0  0  0  0  0  0  0  0  0
   73.6103   60.7366   20.7659 C   0  0  1  0  0  0  0  0  0  0  0  0
   72.5251   61.5668   20.1210 C   0  0  0  0  0  0  0  0  0  0  0  0
   70.0104   59.2484   18.3573 C   0  0  0  0  0  0  0  0  0  0  0  0
   69.5929   58.0149   19.1722 C   0  0  0  0  0  0  0  0  0  0  0  0
   68.1317   58.0584   19.5486 C   0  0  0  0  0  0  0  0  0  0  0  0
   67.8893   59.1773   20.5217 C   0  0  0  0  0  0  0  0  0  0  0  0
   68.5671   60.4267   19.9980 C   0  0  0  0  0  0  0  0  0  0  0  0
   68.8780   60.2613   18.5255 C   0  0  0  0  0  0  0  0  0  0  0  0
   67.0356   49.2326   12.4075 C   0  0  0  0  0  0  0  0  0  0  0  0
   73.8650   52.4177   13.9442 C   0  0  0  0  0  0  0  0  0  0  0  0
   73.2976   54.6595   14.7926 C   0  0  2  0  0  0  0  0  0  0  0  0
   73.2952   53.7601   13.5992 C   0  0  0  0  0  0  0  0  0  0  0  0
   74.5521   54.3144   15.6317 C   0  0  0  0  0  0  0  0  0  0  0  0
   67.1543   50.7411   12.4389 C   0  0  1  0  0  0  0  0  0  0  0  0
   71.0466   55.3019   15.6701 N   0  0  0  0  0  0  0  0  0  0  0  0
   72.4419   58.4421   17.2224 N   0  0  0  0  0  0  0  0  0  0  0  0
   68.4230   55.7631   15.6282 O   0  0  0  0  0  0  0  0  0  0  0  0
   69.3029   54.3413   17.3801 O   0  0  0  0  0  0  0  0  0  0  0  0
   70.8984   58.7025   14.4912 O   0  0  0  0  0  0  0  0  0  0  0  0
   73.2413   56.7422   18.5825 O   0  0  0  0  0  0  0  0  0  0  0  0
   72.8905   58.7289   19.5839 O   0  0  0  0  0  0  0  0  0  0  0  0
   75.2728   61.3372   19.2582 O   0  0  0  0  0  0  0  0  0  0  0  0
   74.3459   62.8898   20.6907 O   0  0  0  0  0  0  0  0  0  0  0  0
   65.9552   51.3455   12.7652 O   0  0  0  0  0  0  0  0  0  0  0  0
   65.9972   48.9488   11.4881 O   0  0  0  0  0  0  0  0  0  0  0  0
   69.4933   54.7143   15.9401 S   0  0  1  0  0  6  0  0  0  0  0  0
  1  2  1  0
 16  1  1  0
  1 35  1  6
  2  8  1  6
  2 32  1  0
 32  3  1  0
  3 36  2  0
  3 37  1  0
  4  5  1  0
  4 17  1  0
  4 37  1  6
  5 38  1  0
 17  6  1  0
  6 38  1  6
  6 39  1  0
 18  7  1  0
  7 39  1  0
  8 19  1  0
 10  9  1  0
 14  9  1  0
  9 30  1  0
 11 10  1  0
 12 11  1  6
 12 13  1  0
 42 12  1  0
 13 14  1  0
 15 27  1  0
 31 15  1  0
 31 16  1  0
 17 18  1  6
 19 20  1  0
 19 24  1  0
 20 21  1  0
 21 22  1  0
 23 22  1  0
 24 23  1  0
 30 25  1  0
 25 41  1  0
 28 26  1  0
 27 28  1  0
 27 29  1  1
 30 40  1  1
 42 31  1  1
 42 33  2  0
 42 34  2  0
M  END
$$$$
