
     RDKit          3D

 42 45  0  0  0  0  0  0  0  0999 V2000
   71.2255   57.4892   15.2127 C   0  0  1  0  0  0  0  0  0  0  0  0
   71.1577   57.8568   16.6766 C   0  0  2  0  0  0  0  0  0  0  0  0
   72.7077   58.8610   18.2884 C   0  0  0  0  0  0  0  0  0  0  0  0
   74.5503   59.8491   19.5608 C   0  0  1  0  0  0  0  0  0  0  0  0
   75.2323   60.8911   18.7148 C   0  0  0  0  0  0  0  0  0  0  0  0
   74.4232   61.9443   20.5332 C   0  0  1  0  0  0  0  0  0  0  0  0
   72.5670   62.7073   19.5993 C   0  0  0  0  0  0  0  0  0  0  0  0
   70.1751   58.9517   16.9769 C   0  0  0  0  0  0  0  0  0  0  0  0
   66.9915   51.4708   13.7289 C   0  0  0  0  0  0  0  0  0  0  0  0
   67.0660   51.2653   15.2039 C   0  0  0  0  0  0  0  0  0  0  0  0
   68.2736   51.9101   15.8453 C   0  0  0  0  0  0  0  0  0  0  0  0
   68.2835   53.3314   15.3547 C   0  0  2  0  0  0  0  0  0  0  0  0
   68.8787   53.1558   13.9272 C   0  0  0  0  0  0  0  0  0  0  0  0
   67.8946   52.4276   13.0911 C   0  0  0  0  0  0  0  0  0  0  0  0
   71.2054   54.3346   14.4328 C   0  0  0  0  0  0  0  0  0  0  0  0
   70.1908   56.4608   14.8843 C   0  0  0  0  0  0  0  0  0  0  0  0
   73.5926   60.6892   20.3468 C   0  0  1  0  0  0  0  0  0  0  0  0
   72.4410   61.1951   19.5098 C   0  0  0  0  0  0  0  0  0  0  0  0
   70.0142   59.3159   18.4130 C   0  0  0  0  0  0  0  0  0  0  0  0
   69.2895   58.1341   19.0747 C   0  0  0  0  0  0  0  0  0  0  0  0
   67.8343   58.4409   19.3335 C   0  0  0  0  0  0  0  0  0  0  0  0
   67.7178   59.5107   20.3821 C   0  0  0  0  0  0  0  0  0  0  0  0
   68.6713   60.6346   20.0320 C   0  0  0  0  0  0  0  0  0  0  0  0
   69.0870   60.5196   18.5807 C   0  0  0  0  0  0  0  0  0  0  0  0
   65.8871   49.6856   12.3737 C   0  0  0  0  0  0  0  0  0  0  0  0
   74.5898   52.6696   14.0217 C   0  0  0  0  0  0  0  0  0  0  0  0
   72.6333   54.0197   14.6671 C   0  0  2  0  0  0  0  0  0  0  0  0
   73.1221   52.8920   13.8171 C   0  0  0  0  0  0  0  0  0  0  0  0
   72.7307   53.5644   16.1437 C   0  0  0  0  0  0  0  0  0  0  0  0
   67.1659   50.0993   13.0692 C   0  0  1  0  0  0  0  0  0  0  0  0
   70.4921   55.1196   15.3416 N   0  0  0  0  0  0  0  0  0  0  0  0
   72.4840   58.4580   16.9599 N   0  0  0  0  0  0  0  0  0  0  0  0
   68.3436   55.4885   16.8730 O   0  0  0  0  0  0  0  0  0  0  0  0
   69.8547   53.6843   17.4442 O   0  0  0  0  0  0  0  0  0  0  0  0
   71.0435   58.6338   14.4570 O   0  0  0  0  0  0  0  0  0  0  0  0
   71.7652   59.2901   19.0019 O   0  0  0  0  0  0  0  0  0  0  0  0
   73.9582   58.7997   18.8494 O   0  0  0  0  0  0  0  0  0  0  0  0
   75.1880   62.0825   19.3923 O   0  0  0  0  0  0  0  0  0  0  0  0
   73.4577   62.9410   20.6537 O   0  0  0  0  0  0  0  0  0  0  0  0
   68.2423   50.1135   12.2027 O   0  0  0  0  0  0  0  0  0  0  0  0
   66.2370   49.4825   11.0171 O   0  0  0  0  0  0  0  0  0  0  0  0
   69.2765   54.4305   16.2789 S   0  0  1  0  0  6  0  0  0  0  0  0
  1  2  1  0
 16  1  1  0
  1 35  1  6
  2  8  1  6
  2 32  1  0
 32  3  1  0
  3 36  2  0
  3 37  1  0
  4  5  1  0
  4 17  1  0
  4 37  1  6
  5 38  1  0
 17  6  1  0
  6 38  1  6
  6 39  1  0
 18  7  1  0
  7 39  1  0
  8 19  1  0
 10  9  1  0
 14  9  1  0
  9 30  1  0
 11 10  1  0
 12 11  1  1
 12 13  1  0
 42 12  1  0
 13 14  1  0
 15 27  1  0
 31 15  1  0
 31 16  1  0
 17 18  1  6
 19 20  1  0
 19 24  1  0
 20 21  1  0
 21 22  1  0
 23 22  1  0
 24 23  1  0
 30 25  1  0
 25 41  1  0
 28 26  1  0
 27 28  1  0
 27 29  1  1
 30 40  1  6
 42 31  1  6
 42 33  2  0
 42 34  2  0
M  END
$$$$
