
     RDKit          3D

 42 45  0  0  0  0  0  0  0  0999 V2000
   70.8199   57.9954   16.6791 C   0  0  1  0  0  0  0  0  0  0  0  0
   69.8575   58.2131   17.8232 C   0  0  2  0  0  0  0  0  0  0  0  0
   71.3503   58.4064   19.7579 C   0  0  0  0  0  0  0  0  0  0  0  0
   72.4749   59.7830   21.4404 C   0  0  1  0  0  0  0  0  0  0  0  0
   73.5109   60.0988   20.3945 C   0  0  0  0  0  0  0  0  0  0  0  0
   73.3071   61.9266   21.6938 C   0  0  1  0  0  0  0  0  0  0  0  0
   71.9345   63.0483   20.3679 C   0  0  0  0  0  0  0  0  0  0  0  0
   68.6516   59.0252   17.4484 C   0  0  0  0  0  0  0  0  0  0  0  0
   77.0072   58.0478   16.1820 C   0  0  0  0  0  0  0  0  0  0  0  0
   75.8804   58.0234   17.1583 C   0  0  0  0  0  0  0  0  0  0  0  0
   74.5489   58.4115   16.5566 C   0  0  0  0  0  0  0  0  0  0  0  0
   74.3988   57.5653   15.3227 C   0  0  2  0  0  0  0  0  0  0  0  0
   75.3087   58.3300   14.3176 C   0  0  0  0  0  0  0  0  0  0  0  0
   76.7181   58.1910   14.7559 C   0  0  0  0  0  0  0  0  0  0  0  0
   72.4532   54.8973   15.3818 C   0  0  0  0  0  0  0  0  0  0  0  0
   71.1921   56.5506   16.5779 C   0  0  0  0  0  0  0  0  0  0  0  0
   72.0071   61.1548   21.8146 C   0  0  1  0  0  0  0  0  0  0  0  0
   71.1604   61.7937   20.7387 C   0  0  0  0  0  0  0  0  0  0  0  0
   68.2553   60.0957   18.4065 C   0  0  0  0  0  0  0  0  0  0  0  0
   68.1170   59.4133   19.7759 C   0  0  0  0  0  0  0  0  0  0  0  0
   66.6711   59.2068   20.1574 C   0  0  0  0  0  0  0  0  0  0  0  0
   66.0130   60.5359   20.3982 C   0  0  0  0  0  0  0  0  0  0  0  0
   66.3617   61.4614   19.2509 C   0  0  0  0  0  0  0  0  0  0  0  0
   66.8701   60.6519   18.0768 C   0  0  0  0  0  0  0  0  0  0  0  0
   78.3806   58.9667   18.0561 C   0  0  0  0  0  0  0  0  0  0  0  0
   73.3365   52.0279   15.8408 C   0  0  0  0  0  0  0  0  0  0  0  0
   71.5723   53.7129   15.5016 C   0  0  2  0  0  0  0  0  0  0  0  0
   72.2029   52.4687   14.9656 C   0  0  0  0  0  0  0  0  0  0  0  0
   70.3307   54.0176   14.6282 C   0  0  0  0  0  0  0  0  0  0  0  0
   77.9606   59.1654   16.6158 C   0  0  1  0  0  0  0  0  0  0  0  0
   71.9148   56.1861   15.3763 N   0  0  0  0  0  0  0  0  0  0  0  0
   70.6087   59.0754   18.7681 N   0  0  0  0  0  0  0  0  0  0  0  0
   72.1025   58.8078   14.9413 O   0  0  0  0  0  0  0  0  0  0  0  0
   72.8572   57.3059   13.1979 O   0  0  0  0  0  0  0  0  0  0  0  0
   70.2286   58.4376   15.5090 O   0  0  0  0  0  0  0  0  0  0  0  0
   71.9357   57.3223   19.5059 O   0  0  0  0  0  0  0  0  0  0  0  0
   71.4599   58.9124   21.0284 O   0  0  0  0  0  0  0  0  0  0  0  0
   74.0137   61.3468   20.6593 O   0  0  0  0  0  0  0  0  0  0  0  0
   72.8761   63.2159   21.3902 O   0  0  0  0  0  0  0  0  0  0  0  0
   79.0485   59.2292   15.7660 O   0  0  0  0  0  0  0  0  0  0  0  0
   79.1131   57.7556   18.0782 O   0  0  0  0  0  0  0  0  0  0  0  0
   72.7761   57.4569   14.6877 S   0  0  1  0  0  6  0  0  0  0  0  0
  1  2  1  0
 16  1  1  0
  1 35  1  6
  2  8  1  6
  2 32  1  0
 32  3  1  0
  3 36  2  0
  3 37  1  0
  4  5  1  0
  4 17  1  0
  4 37  1  6
  5 38  1  0
 17  6  1  0
  6 38  1  6
  6 39  1  0
 18  7  1  0
  7 39  1  0
  8 19  1  0
 10  9  1  0
 14  9  1  0
  9 30  1  0
 11 10  1  0
 12 11  1  1
 12 13  1  0
 42 12  1  0
 13 14  1  0
 15 27  1  0
 31 15  1  0
 31 16  1  0
 17 18  1  6
 19 20  1  0
 19 24  1  0
 20 21  1  0
 21 22  1  0
 23 22  1  0
 24 23  1  0
 30 25  1  0
 25 41  1  0
 28 26  1  0
 27 28  1  0
 27 29  1  6
 30 40  1  6
 42 31  1  1
 42 33  2  0
 42 34  2  0
M  END
$$$$
