
     RDKit          3D

 34 37  0  0  0  0  0  0  0  0999 V2000
   69.1901   -4.6987  148.8368 C   0  0  0  0  0  0  0  0  0  0  0  0
   68.3973   -3.5742  148.8872 C   0  0  0  0  0  0  0  0  0  0  0  0
   68.1974   -2.9831  150.1085 C   0  0  0  0  0  0  0  0  0  0  0  0
   68.1396   -1.6086  147.4258 C   0  0  0  0  0  0  0  0  0  0  0  0
   69.5049   -1.3845  147.2056 C   0  0  0  0  0  0  0  0  0  0  0  0
   67.2969   -0.5486  147.3591 C   0  0  0  0  0  0  0  0  0  0  0  0
   67.0137   -3.6964  146.8871 C   0  0  0  0  0  0  0  0  0  0  0  0
   66.5732   -5.0655  147.2746 C   0  0  0  0  0  0  0  0  0  0  0  0
   65.2494   -4.9321  147.9922 C   0  0  0  0  0  0  0  0  0  0  0  0
   64.7712   -6.2725  148.5252 C   0  0  0  0  0  0  0  0  0  0  0  0
   66.4815   -3.2179  145.6165 C   0  0  0  0  0  0  0  0  0  0  0  0
   65.4454   -2.3210  145.5961 C   0  0  0  0  0  0  0  0  0  0  0  0
   64.9260   -1.8453  144.3828 C   0  0  0  0  0  0  0  0  0  0  0  0
   65.4608   -2.2826  143.1894 C   0  0  0  0  0  0  0  0  0  0  0  0
   67.0099   -3.6494  144.4218 C   0  0  0  0  0  0  0  0  0  0  0  0
   70.8861   -8.0756  156.2857 C   0  0  0  0  0  0  0  0  0  0  0  0
   71.0672   -6.5751  156.0967 C   0  0  2  0  0  0  0  0  0  0  0  0
   69.9400   -5.7957  156.7012 C   0  0  0  0  0  0  0  0  0  0  0  0
   71.2175   -4.8325  154.5270 C   0  0  0  0  0  0  0  0  0  0  0  0
   69.9767   -4.4933  153.7097 C   0  0  0  0  0  0  0  0  0  0  0  0
   70.9272   -6.3576  152.4034 C   0  0  0  0  0  0  0  0  0  0  0  0
   70.6855   -7.0417  153.7576 C   0  0  0  0  0  0  0  0  0  0  0  0
   69.5639   -4.6143  151.2256 C   0  0  0  0  0  0  0  0  0  0  0  0
   69.7637   -5.2082  149.9928 C   0  0  0  0  0  0  0  0  0  0  0  0
   68.7723   -3.4921  151.2758 C   0  0  0  0  0  0  0  0  0  0  0  0
   67.7725   -2.9907  147.6684 C   0  0  0  0  0  0  0  0  0  0  0  0
   70.0025   -0.1398  146.9296 C   0  0  0  0  0  0  0  0  0  0  0  0
   69.1365    0.9235  146.8661 C   0  0  0  0  0  0  0  0  0  0  0  0
   67.7848    0.7257  147.0797 C   0  0  0  0  0  0  0  0  0  0  0  0
   66.4963   -3.1790  143.2105 C   0  0  0  0  0  0  0  0  0  0  0  0
   71.3623   -6.2371  154.7329 N   0  0  2  0  0  4  0  0  0  0  0  0
   70.1315   -5.1217  152.4164 N   0  0  0  0  0  0  0  0  0  0  0  0
   71.3712    0.0081  146.7223 O   0  0  0  0  0  0  0  0  0  0  0  0
   64.1644   -6.9945  147.5063 O   0  0  0  0  0  0  0  0  0  0  0  0
  1  2  2  0
 24  1  1  0
  3  2  1  0
  2 26  1  0
 25  3  2  0
  4  5  2  0
  4  6  1  0
 26  4  1  0
  5 27  1  0
  6 29  2  0
  7  8  1  0
  7 11  1  0
 26  7  2  0
  8  9  1  0
  9 10  1  0
 10 34  1  0
 11 12  2  0
 11 15  1  0
 12 13  1  0
 13 14  2  0
 30 14  1  0
 15 30  2  0
 17 16  1  6
 17 18  1  0
 31 17  1  0
 20 19  1  0
 31 19  1  6
 32 20  1  0
 21 22  1  0
 32 21  1  0
 22 31  1  0
 23 24  2  0
 23 25  1  0
 23 32  1  0
 27 28  2  0
 27 33  1  0
 28 29  1  0
M  CHG  1  31   1
M  END
$$$$
