
     RDKit          3D

 34 37  0  0  0  0  0  0  0  0999 V2000
   67.2858   -3.9479  150.9542 C   0  0  0  0  0  0  0  0  0  0  0  0
   68.6356   -4.2178  150.9251 C   0  0  0  0  0  0  0  0  0  0  0  0
   69.2695   -4.1939  149.7092 C   0  0  0  0  0  0  0  0  0  0  0  0
   70.3167   -3.4589  152.5572 C   0  0  0  0  0  0  0  0  0  0  0  0
   71.6394   -3.8605  152.7849 C   0  0  0  0  0  0  0  0  0  0  0  0
   70.0143   -2.1438  152.6883 C   0  0  0  0  0  0  0  0  0  0  0  0
   69.2287   -5.6176  152.8273 C   0  0  0  0  0  0  0  0  0  0  0  0
   68.3139   -6.6802  152.3246 C   0  0  0  0  0  0  0  0  0  0  0  0
   67.1195   -6.7283  153.2500 C   0  0  0  0  0  0  0  0  0  0  0  0
   66.0820   -7.7263  152.7631 C   0  0  0  0  0  0  0  0  0  0  0  0
   69.9229   -5.9429  154.0678 C   0  0  0  0  0  0  0  0  0  0  0  0
   70.8328   -6.9674  154.1013 C   0  0  0  0  0  0  0  0  0  0  0  0
   71.5144   -7.2892  155.2845 C   0  0  0  0  0  0  0  0  0  0  0  0
   71.2702   -6.5686  156.4344 C   0  0  0  0  0  0  0  0  0  0  0  0
   69.6847   -5.2285  155.2192 C   0  0  0  0  0  0  0  0  0  0  0  0
   64.2471   -2.1526  142.7612 C   0  0  0  0  0  0  0  0  0  0  0  0
   64.8106   -3.2298  143.6787 C   0  0  2  0  0  0  0  0  0  0  0  0
   63.9930   -4.4841  143.6356 C   0  0  0  0  0  0  0  0  0  0  0  0
   66.4513   -2.4182  145.1526 C   0  0  0  0  0  0  0  0  0  0  0  0
   67.1744   -3.4203  146.0445 C   0  0  0  0  0  0  0  0  0  0  0  0
   65.1333   -2.9809  147.3585 C   0  0  0  0  0  0  0  0  0  0  0  0
   64.5313   -3.5356  146.0585 C   0  0  0  0  0  0  0  0  0  0  0  0
   67.2361   -3.6370  148.5555 C   0  0  0  0  0  0  0  0  0  0  0  0
   66.5994   -3.6618  149.7830 C   0  0  0  0  0  0  0  0  0  0  0  0
   68.5832   -3.9067  148.5266 C   0  0  0  0  0  0  0  0  0  0  0  0
   69.4097   -4.5190  152.1606 C   0  0  0  0  0  0  0  0  0  0  0  0
   72.6201   -2.9713  153.1323 C   0  0  0  0  0  0  0  0  0  0  0  0
   72.2979   -1.6431  153.2617 C   0  0  0  0  0  0  0  0  0  0  0  0
   70.9988   -1.2240  153.0413 C   0  0  0  0  0  0  0  0  0  0  0  0
   70.3606   -5.5450  156.4003 C   0  0  0  0  0  0  0  0  0  0  0  0
   65.0673   -2.7300  144.9999 N   0  0  2  0  0  4  0  0  0  0  0  0
   66.5545   -3.3564  147.3495 N   0  0  0  0  0  0  0  0  0  0  0  0
   73.9129   -3.4423  153.3436 O   0  0  0  0  0  0  0  0  0  0  0  0
   65.8632   -7.5515  151.4032 O   0  0  0  0  0  0  0  0  0  0  0  0
  1  2  2  0
 24  1  1  0
  3  2  1  0
  2 26  1  0
 25  3  2  0
  4  5  2  0
  4  6  1  0
 26  4  1  0
  5 27  1  0
  6 29  2  0
  7  8  1  0
  7 11  1  0
 26  7  2  0
  8  9  1  0
  9 10  1  0
 10 34  1  0
 11 12  2  0
 11 15  1  0
 12 13  1  0
 13 14  2  0
 30 14  1  0
 15 30  2  0
 17 16  1  6
 17 18  1  0
 31 17  1  0
 20 19  1  0
 31 19  1  1
 32 20  1  0
 21 22  1  0
 32 21  1  0
 22 31  1  0
 23 24  2  0
 23 25  1  0
 23 32  1  0
 27 28  2  0
 27 33  1  0
 28 29  1  0
M  CHG  1  31   1
M  END
$$$$
