
     RDKit          3D

 34 37  0  0  0  0  0  0  0  0999 V2000
   68.6286   -4.1096  148.7865 C   0  0  0  0  0  0  0  0  0  0  0  0
   68.1690   -3.7251  150.0261 C   0  0  0  0  0  0  0  0  0  0  0  0
   67.1019   -2.8652  150.0774 C   0  0  0  0  0  0  0  0  0  0  0  0
   69.6502   -3.2529  151.9362 C   0  0  0  0  0  0  0  0  0  0  0  0
   70.9455   -3.1643  151.4098 C   0  0  0  0  0  0  0  0  0  0  0  0
   69.3142   -2.4241  152.9551 C   0  0  0  0  0  0  0  0  0  0  0  0
   68.5134   -5.3963  151.7634 C   0  0  0  0  0  0  0  0  0  0  0  0
   69.0668   -5.8432  153.0720 C   0  0  0  0  0  0  0  0  0  0  0  0
   69.2107   -7.3470  153.0162 C   0  0  0  0  0  0  0  0  0  0  0  0
   70.4492   -7.8126  153.7636 C   0  0  0  0  0  0  0  0  0  0  0  0
   67.6199   -6.3509  151.1177 C   0  0  0  0  0  0  0  0  0  0  0  0
   68.0525   -7.0834  150.0431 C   0  0  0  0  0  0  0  0  0  0  0  0
   67.2082   -8.0108  149.4145 C   0  0  0  0  0  0  0  0  0  0  0  0
   65.9228   -8.1931  149.8792 C   0  0  0  0  0  0  0  0  0  0  0  0
   66.3361   -6.5384  151.5755 C   0  0  0  0  0  0  0  0  0  0  0  0
   63.3846    0.0952  143.1413 C   0  0  0  0  0  0  0  0  0  0  0  0
   64.8679   -0.1894  143.3377 C   0  0  2  0  0  0  0  0  0  0  0  0
   65.6244   -0.1280  142.0464 C   0  0  0  0  0  0  0  0  0  0  0  0
   64.4621   -1.2790  145.3801 C   0  0  0  0  0  0  0  0  0  0  0  0
   65.4724   -1.0936  146.5060 C   0  0  0  0  0  0  0  0  0  0  0  0
   66.5075   -2.9252  145.2178 C   0  0  0  0  0  0  0  0  0  0  0  0
   66.4562   -1.8140  144.1582 C   0  0  0  0  0  0  0  0  0  0  0  0
   66.9461   -2.7679  147.6811 C   0  0  0  0  0  0  0  0  0  0  0  0
   68.0222   -3.6351  147.6324 C   0  0  0  0  0  0  0  0  0  0  0  0
   66.4877   -2.3840  148.9184 C   0  0  0  0  0  0  0  0  0  0  0  0
   68.7855   -4.2200  151.2876 C   0  0  0  0  0  0  0  0  0  0  0  0
   71.8675   -2.2751  151.8921 C   0  0  0  0  0  0  0  0  0  0  0  0
   71.5121   -1.4431  152.9246 C   0  0  0  0  0  0  0  0  0  0  0  0
   70.2390   -1.5128  153.4594 C   0  0  0  0  0  0  0  0  0  0  0  0
   65.4911   -7.4607  150.9531 C   0  0  0  0  0  0  0  0  0  0  0  0
   65.0891   -1.3841  144.1026 N   0  0  2  0  0  4  0  0  0  0  0  0
   66.3192   -2.2658  146.5181 N   0  0  0  0  0  0  0  0  0  0  0  0
   73.1364   -2.2433  151.3202 O   0  0  0  0  0  0  0  0  0  0  0  0
   70.3548   -7.4521  155.1011 O   0  0  0  0  0  0  0  0  0  0  0  0
  1  2  2  0
 24  1  1  0
  3  2  1  0
  2 26  1  0
 25  3  2  0
  4  5  2  0
  4  6  1  0
 26  4  1  0
  5 27  1  0
  6 29  2  0
  7  8  1  0
  7 11  1  0
 26  7  2  0
  8  9  1  0
  9 10  1  0
 10 34  1  0
 11 12  2  0
 11 15  1  0
 12 13  1  0
 13 14  2  0
 30 14  1  0
 15 30  2  0
 17 16  1  6
 17 18  1  0
 31 17  1  0
 20 19  1  0
 31 19  1  1
 32 20  1  0
 21 22  1  0
 32 21  1  0
 22 31  1  0
 23 24  2  0
 23 25  1  0
 23 32  1  0
 27 28  2  0
 27 33  1  0
 28 29  1  0
M  CHG  1  31   1
M  END
$$$$
