
     RDKit          3D

 34 37  0  0  0  0  0  0  0  0999 V2000
   68.3672   -2.4454  150.0314 C   0  0  0  0  0  0  0  0  0  0  0  0
   68.1428   -3.2287  148.9215 C   0  0  0  0  0  0  0  0  0  0  0  0
   68.4680   -4.5588  148.9973 C   0  0  0  0  0  0  0  0  0  0  0  0
   68.0639   -1.3660  147.3122 C   0  0  0  0  0  0  0  0  0  0  0  0
   69.4443   -1.3031  147.0815 C   0  0  0  0  0  0  0  0  0  0  0  0
   67.3348   -0.2343  147.1516 C   0  0  0  0  0  0  0  0  0  0  0  0
   66.7105   -3.3554  146.9563 C   0  0  0  0  0  0  0  0  0  0  0  0
   66.1912   -2.8227  145.6659 C   0  0  0  0  0  0  0  0  0  0  0  0
   65.2563   -1.6794  145.9883 C   0  0  0  0  0  0  0  0  0  0  0  0
   63.8878   -1.8900  145.3619 C   0  0  0  0  0  0  0  0  0  0  0  0
   66.2385   -4.6912  147.3023 C   0  0  0  0  0  0  0  0  0  0  0  0
   66.9052   -5.7984  146.8461 C   0  0  0  0  0  0  0  0  0  0  0  0
   66.4687   -7.0905  147.1751 C   0  0  0  0  0  0  0  0  0  0  0  0
   65.3531   -7.2563  147.9684 C   0  0  0  0  0  0  0  0  0  0  0  0
   65.1264   -4.8648  148.0934 C   0  0  0  0  0  0  0  0  0  0  0  0
   71.4962   -7.7915  156.3604 C   0  0  0  0  0  0  0  0  0  0  0  0
   71.9575   -6.7768  155.3225 C   0  0  2  0  0  0  0  0  0  0  0  0
   73.1557   -6.0074  155.7874 C   0  0  0  0  0  0  0  0  0  0  0  0
   70.0292   -6.7194  153.9804 C   0  0  0  0  0  0  0  0  0  0  0  0
   70.1819   -6.3072  152.5212 C   0  0  0  0  0  0  0  0  0  0  0  0
   70.0197   -4.1117  153.6345 C   0  0  0  0  0  0  0  0  0  0  0  0
   71.2695   -4.6929  154.3130 C   0  0  0  0  0  0  0  0  0  0  0  0
   69.2347   -4.3376  151.2643 C   0  0  0  0  0  0  0  0  0  0  0  0
   68.9059   -2.9967  151.1850 C   0  0  0  0  0  0  0  0  0  0  0  0
   69.0110   -5.1191  150.1563 C   0  0  0  0  0  0  0  0  0  0  0  0
   67.5571   -2.6774  147.6687 C   0  0  0  0  0  0  0  0  0  0  0  0
   70.0667   -0.1441  146.7040 C   0  0  0  0  0  0  0  0  0  0  0  0
   69.3148    0.9935  146.5461 C   0  0  0  0  0  0  0  0  0  0  0  0
   67.9505    0.9547  146.7682 C   0  0  0  0  0  0  0  0  0  0  0  0
   64.6873   -6.1493  148.4239 C   0  0  0  0  0  0  0  0  0  0  0  0
   70.8739   -5.9637  154.8473 N   0  0  2  0  0  4  0  0  0  0  0  0
   69.7923   -4.9177  152.4263 N   0  0  0  0  0  0  0  0  0  0  0  0
   71.4426   -0.1561  146.4926 O   0  0  0  0  0  0  0  0  0  0  0  0
   64.0103   -2.6563  144.2106 O   0  0  0  0  0  0  0  0  0  0  0  0
  1  2  2  0
 24  1  1  0
  3  2  1  0
  2 26  1  0
 25  3  2  0
  4  5  2  0
  4  6  1  0
 26  4  1  0
  5 27  1  0
  6 29  2  0
  7  8  1  0
  7 11  1  0
 26  7  2  0
  8  9  1  0
  9 10  1  0
 10 34  1  0
 11 12  2  0
 11 15  1  0
 12 13  1  0
 13 14  2  0
 30 14  1  0
 15 30  2  0
 17 16  1  1
 17 18  1  0
 31 17  1  0
 20 19  1  0
 31 19  1  6
 32 20  1  0
 21 22  1  0
 32 21  1  0
 22 31  1  0
 23 24  2  0
 23 25  1  0
 23 32  1  0
 27 28  2  0
 27 33  1  0
 28 29  1  0
M  CHG  1  31   1
M  END
$$$$
