
     RDKit          3D

 34 37  0  0  0  0  0  0  0  0999 V2000
   68.0959   -2.7955  150.1014 C   0  0  0  0  0  0  0  0  0  0  0  0
   68.2604   -3.4309  148.8910 C   0  0  0  0  0  0  0  0  0  0  0  0
   69.0230   -4.5704  148.8619 C   0  0  0  0  0  0  0  0  0  0  0  0
   68.0163   -1.5677  147.2990 C   0  0  0  0  0  0  0  0  0  0  0  0
   69.3965   -1.3342  147.2439 C   0  0  0  0  0  0  0  0  0  0  0  0
   67.1802   -0.5425  147.0022 C   0  0  0  0  0  0  0  0  0  0  0  0
   66.8589   -3.6722  146.9145 C   0  0  0  0  0  0  0  0  0  0  0  0
   66.6257   -5.1018  147.2616 C   0  0  0  0  0  0  0  0  0  0  0  0
   65.1390   -5.2845  147.4653 C   0  0  0  0  0  0  0  0  0  0  0  0
   64.8002   -6.7260  147.8071 C   0  0  0  0  0  0  0  0  0  0  0  0
   66.1135   -3.1934  145.7561 C   0  0  0  0  0  0  0  0  0  0  0  0
   64.8338   -2.7255  145.9040 C   0  0  0  0  0  0  0  0  0  0  0  0
   64.1052   -2.2549  144.8014 C   0  0  0  0  0  0  0  0  0  0  0  0
   64.6787   -2.2603  143.5474 C   0  0  0  0  0  0  0  0  0  0  0  0
   66.6789   -3.1955  144.5018 C   0  0  0  0  0  0  0  0  0  0  0  0
   71.6925   -7.9001  156.2984 C   0  0  0  0  0  0  0  0  0  0  0  0
   71.1725   -6.5032  155.9851 C   0  0  2  0  0  0  0  0  0  0  0  0
   69.7591   -6.3172  156.4445 C   0  0  0  0  0  0  0  0  0  0  0  0
   71.2497   -4.7285  154.4464 C   0  0  0  0  0  0  0  0  0  0  0  0
   69.9743   -4.3787  153.6892 C   0  0  0  0  0  0  0  0  0  0  0  0
   70.8761   -6.2116  152.3062 C   0  0  0  0  0  0  0  0  0  0  0  0
   70.6944   -6.9241  153.6550 C   0  0  0  0  0  0  0  0  0  0  0  0
   69.4576   -4.4513  151.2227 C   0  0  0  0  0  0  0  0  0  0  0  0
   68.6881   -3.3024  151.2490 C   0  0  0  0  0  0  0  0  0  0  0  0
   69.6220   -5.0851  150.0145 C   0  0  0  0  0  0  0  0  0  0  0  0
   67.6332   -2.9246  147.6394 C   0  0  0  0  0  0  0  0  0  0  0  0
   69.9149   -0.1141  146.9035 C   0  0  0  0  0  0  0  0  0  0  0  0
   69.0552    0.9141  146.6063 C   0  0  0  0  0  0  0  0  0  0  0  0
   67.6890    0.7063  146.6538 C   0  0  0  0  0  0  0  0  0  0  0  0
   65.9577   -2.7281  143.4003 C   0  0  0  0  0  0  0  0  0  0  0  0
   71.4086   -6.1363  154.6173 N   0  0  2  0  0  4  0  0  0  0  0  0
   70.0768   -4.9800  152.3780 N   0  0  0  0  0  0  0  0  0  0  0  0
   71.2974    0.0451  146.8699 O   0  0  0  0  0  0  0  0  0  0  0  0
   65.1777   -7.0006  149.1147 O   0  0  0  0  0  0  0  0  0  0  0  0
  1  2  2  0
 24  1  1  0
  3  2  1  0
  2 26  1  0
 25  3  2  0
  4  5  2  0
  4  6  1  0
 26  4  1  0
  5 27  1  0
  6 29  2  0
  7  8  1  0
  7 11  1  0
 26  7  2  0
  8  9  1  0
  9 10  1  0
 10 34  1  0
 11 12  2  0
 11 15  1  0
 12 13  1  0
 13 14  2  0
 30 14  1  0
 15 30  2  0
 17 16  1  6
 17 18  1  0
 31 17  1  0
 20 19  1  0
 31 19  1  1
 32 20  1  0
 21 22  1  0
 32 21  1  0
 22 31  1  0
 23 24  2  0
 23 25  1  0
 23 32  1  0
 27 28  2  0
 27 33  1  0
 28 29  1  0
M  CHG  1  31   1
M  END
$$$$
