
     RDKit          3D

 34 37  0  0  0  0  0  0  0  0999 V2000
   68.9909   -4.7031  148.8712 C   0  0  0  0  0  0  0  0  0  0  0  0
   68.2517   -3.5416  148.8533 C   0  0  0  0  0  0  0  0  0  0  0  0
   68.0073   -2.9171  150.0496 C   0  0  0  0  0  0  0  0  0  0  0  0
   68.4641   -1.7869  147.1383 C   0  0  0  0  0  0  0  0  0  0  0  0
   67.7190   -0.6022  147.0761 C   0  0  0  0  0  0  0  0  0  0  0  0
   69.7799   -1.7344  146.8157 C   0  0  0  0  0  0  0  0  0  0  0  0
   66.7403   -3.4920  146.9447 C   0  0  0  0  0  0  0  0  0  0  0  0
   66.2212   -4.8375  147.3172 C   0  0  0  0  0  0  0  0  0  0  0  0
   64.7131   -4.7462  147.3673 C   0  0  0  0  0  0  0  0  0  0  0  0
   64.0814   -6.1163  147.5489 C   0  0  0  0  0  0  0  0  0  0  0  0
   66.0167   -2.8338  145.8631 C   0  0  0  0  0  0  0  0  0  0  0  0
   64.7158   -2.4411  146.0418 C   0  0  0  0  0  0  0  0  0  0  0  0
   64.0074   -1.8006  145.0141 C   0  0  0  0  0  0  0  0  0  0  0  0
   64.6227   -1.5596  143.8038 C   0  0  0  0  0  0  0  0  0  0  0  0
   66.6238   -2.5897  144.6528 C   0  0  0  0  0  0  0  0  0  0  0  0
   72.8843   -5.5272  155.5795 C   0  0  0  0  0  0  0  0  0  0  0  0
   71.7164   -6.4903  155.7484 C   0  0  2  0  0  0  0  0  0  0  0  0
   72.1077   -7.9026  155.4389 C   0  0  0  0  0  0  0  0  0  0  0  0
   70.2265   -6.9055  153.9790 C   0  0  0  0  0  0  0  0  0  0  0  0
   70.5258   -6.2735  152.6250 C   0  0  0  0  0  0  0  0  0  0  0  0
   69.3549   -4.4319  153.7752 C   0  0  0  0  0  0  0  0  0  0  0  0
   70.5563   -4.6441  154.7090 C   0  0  0  0  0  0  0  0  0  0  0  0
   69.2235   -4.5878  151.2766 C   0  0  0  0  0  0  0  0  0  0  0  0
   69.4684   -5.2155  150.0688 C   0  0  0  0  0  0  0  0  0  0  0  0
   68.4854   -3.4288  151.2585 C   0  0  0  0  0  0  0  0  0  0  0  0
   67.7305   -2.9543  147.5885 C   0  0  0  0  0  0  0  0  0  0  0  0
   68.2779    0.5900  146.7025 C   0  0  0  0  0  0  0  0  0  0  0  0
   69.6114    0.6266  146.3783 C   0  0  0  0  0  0  0  0  0  0  0  0
   70.3664   -0.5305  146.4328 C   0  0  0  0  0  0  0  0  0  0  0  0
   65.9228   -1.9524  143.6260 C   0  0  0  0  0  0  0  0  0  0  0  0
   70.5399   -6.0335  155.0642 N   0  0  2  0  0  4  0  0  0  0  0  0
   69.6930   -5.0970  152.5086 N   0  0  0  0  0  0  0  0  0  0  0  0
   67.4760    1.7272  146.6630 O   0  0  0  0  0  0  0  0  0  0  0  0
   63.9144   -6.3818  148.9014 O   0  0  0  0  0  0  0  0  0  0  0  0
  1  2  2  0
 24  1  1  0
  3  2  1  0
  2 26  1  0
 25  3  2  0
  4  5  2  0
  4  6  1  0
 26  4  1  0
  5 27  1  0
  6 29  2  0
  7  8  1  0
  7 11  1  0
 26  7  2  0
  8  9  1  0
  9 10  1  0
 10 34  1  0
 11 12  2  0
 11 15  1  0
 12 13  1  0
 13 14  2  0
 30 14  1  0
 15 30  2  0
 17 16  1  6
 17 18  1  0
 31 17  1  0
 20 19  1  0
 31 19  1  6
 32 20  1  0
 21 22  1  0
 32 21  1  0
 22 31  1  0
 23 24  2  0
 23 25  1  0
 23 32  1  0
 27 28  2  0
 27 33  1  0
 28 29  1  0
M  CHG  1  31   1
M  END
$$$$
