
     RDKit          3D

 34 37  0  0  0  0  0  0  0  0999 V2000
   68.8531   -4.2581  148.9030 C   0  0  0  0  0  0  0  0  0  0  0  0
   67.9280   -3.2493  149.0521 C   0  0  0  0  0  0  0  0  0  0  0  0
   67.5927   -2.8681  150.3262 C   0  0  0  0  0  0  0  0  0  0  0  0
   67.8870   -1.2777  147.5767 C   0  0  0  0  0  0  0  0  0  0  0  0
   69.2399   -1.3067  147.2141 C   0  0  0  0  0  0  0  0  0  0  0  0
   67.2479   -0.0821  147.5738 C   0  0  0  0  0  0  0  0  0  0  0  0
   66.3579   -3.1303  147.1946 C   0  0  0  0  0  0  0  0  0  0  0  0
   65.7794   -2.4609  145.9964 C   0  0  0  0  0  0  0  0  0  0  0  0
   66.4790   -3.0213  144.7792 C   0  0  0  0  0  0  0  0  0  0  0  0
   65.9246   -2.4221  143.4974 C   0  0  0  0  0  0  0  0  0  0  0  0
   65.8206   -4.4568  147.4749 C   0  0  0  0  0  0  0  0  0  0  0  0
   66.5378   -5.5764  147.1420 C   0  0  0  0  0  0  0  0  0  0  0  0
   66.0387   -6.8597  147.4106 C   0  0  0  0  0  0  0  0  0  0  0  0
   64.8093   -7.0043  148.0180 C   0  0  0  0  0  0  0  0  0  0  0  0
   64.5949   -4.6092  148.0807 C   0  0  0  0  0  0  0  0  0  0  0  0
   72.0413   -5.1995  156.5171 C   0  0  0  0  0  0  0  0  0  0  0  0
   71.8446   -6.4030  155.6045 C   0  0  2  0  0  0  0  0  0  0  0  0
   73.0755   -6.7062  154.8067 C   0  0  0  0  0  0  0  0  0  0  0  0
   70.8380   -6.8553  153.5296 C   0  0  0  0  0  0  0  0  0  0  0  0
   70.9126   -5.7853  152.4469 C   0  0  0  0  0  0  0  0  0  0  0  0
   68.9526   -5.0332  153.7424 C   0  0  0  0  0  0  0  0  0  0  0  0
   70.0486   -4.9920  154.8182 C   0  0  0  0  0  0  0  0  0  0  0  0
   69.0855   -4.4797  151.3009 C   0  0  0  0  0  0  0  0  0  0  0  0
   69.4217   -4.8621  150.0150 C   0  0  0  0  0  0  0  0  0  0  0  0
   68.1619   -3.4731  151.4496 C   0  0  0  0  0  0  0  0  0  0  0  0
   67.3030   -2.5692  147.8845 C   0  0  0  0  0  0  0  0  0  0  0  0
   69.9233   -0.1740  146.8627 C   0  0  0  0  0  0  0  0  0  0  0  0
   69.2622    1.0291  146.8653 C   0  0  0  0  0  0  0  0  0  0  0  0
   67.9267    1.0814  147.2194 C   0  0  0  0  0  0  0  0  0  0  0  0
   64.0931   -5.8850  148.3503 C   0  0  0  0  0  0  0  0  0  0  0  0
   70.6414   -6.2978  154.8283 N   0  0  2  0  0  4  0  0  0  0  0  0
   69.6460   -5.0874  152.4473 N   0  0  0  0  0  0  0  0  0  0  0  0
   71.2670   -0.2785  146.5142 O   0  0  0  0  0  0  0  0  0  0  0  0
   65.8963   -1.0377  143.5990 O   0  0  0  0  0  0  0  0  0  0  0  0
  1  2  2  0
 24  1  1  0
  3  2  1  0
  2 26  1  0
 25  3  2  0
  4  5  2  0
  4  6  1  0
 26  4  1  0
  5 27  1  0
  6 29  2  0
  7  8  1  0
  7 11  1  0
 26  7  2  0
  8  9  1  0
  9 10  1  0
 10 34  1  0
 11 12  2  0
 11 15  1  0
 12 13  1  0
 13 14  2  0
 30 14  1  0
 15 30  2  0
 17 16  1  6
 17 18  1  0
 31 17  1  0
 20 19  1  0
 31 19  1  6
 32 20  1  0
 21 22  1  0
 32 21  1  0
 22 31  1  0
 23 24  2  0
 23 25  1  0
 23 32  1  0
 27 28  2  0
 27 33  1  0
 28 29  1  0
M  CHG  1  31   1
M  END
$$$$
