
     RDKit          3D

 34 37  0  0  0  0  0  0  0  0999 V2000
   69.3049   -3.9368  149.1005 C   0  0  0  0  0  0  0  0  0  0  0  0
   68.1368   -3.2084  149.0758 C   0  0  0  0  0  0  0  0  0  0  0  0
   67.4284   -3.0904  150.2442 C   0  0  0  0  0  0  0  0  0  0  0  0
   68.2098   -1.2373  147.6010 C   0  0  0  0  0  0  0  0  0  0  0  0
   68.9471   -1.1112  146.4164 C   0  0  0  0  0  0  0  0  0  0  0  0
   68.0658   -0.1416  148.3864 C   0  0  0  0  0  0  0  0  0  0  0  0
   66.8118   -3.1453  147.0338 C   0  0  0  0  0  0  0  0  0  0  0  0
   66.5622   -2.6235  145.6612 C   0  0  0  0  0  0  0  0  0  0  0  0
   65.5574   -1.5001  145.7766 C   0  0  0  0  0  0  0  0  0  0  0  0
   64.3388   -1.7557  144.9052 C   0  0  0  0  0  0  0  0  0  0  0  0
   66.1056   -4.3792  147.3583 C   0  0  0  0  0  0  0  0  0  0  0  0
   66.7534   -5.5849  147.2853 C   0  0  0  0  0  0  0  0  0  0  0  0
   66.0910   -6.7807  147.6005 C   0  0  0  0  0  0  0  0  0  0  0  0
   64.7686   -6.7501  147.9901 C   0  0  0  0  0  0  0  0  0  0  0  0
   64.7863   -4.3569  147.7478 C   0  0  0  0  0  0  0  0  0  0  0  0
   70.7627   -5.9267  157.5065 C   0  0  0  0  0  0  0  0  0  0  0  0
   71.2328   -6.2650  156.0978 C   0  0  2  0  0  0  0  0  0  0  0  0
   72.4421   -5.4724  155.7069 C   0  0  0  0  0  0  0  0  0  0  0  0
   70.5903   -6.7241  153.8842 C   0  0  0  0  0  0  0  0  0  0  0  0
   70.7507   -5.6197  152.8463 C   0  0  0  0  0  0  0  0  0  0  0  0
   68.5663   -5.0445  153.8378 C   0  0  0  0  0  0  0  0  0  0  0  0
   69.4793   -4.9593  155.0703 C   0  0  0  0  0  0  0  0  0  0  0  0
   69.0292   -4.4106  151.4568 C   0  0  0  0  0  0  0  0  0  0  0  0
   69.7415   -4.5280  150.2772 C   0  0  0  0  0  0  0  0  0  0  0  0
   67.8632   -3.6839  151.4320 C   0  0  0  0  0  0  0  0  0  0  0  0
   67.6401   -2.5503  147.8363 C   0  0  0  0  0  0  0  0  0  0  0  0
   69.5182    0.0736  146.0377 C   0  0  0  0  0  0  0  0  0  0  0  0
   69.3639    1.1739  146.8440 C   0  0  0  0  0  0  0  0  0  0  0  0
   68.6399    1.0726  148.0177 C   0  0  0  0  0  0  0  0  0  0  0  0
   64.1218   -5.5449  148.0627 C   0  0  0  0  0  0  0  0  0  0  0  0
   70.1576   -6.2206  155.1474 N   0  0  2  0  0  4  0  0  0  0  0  0
   69.4512   -5.0118  152.6644 N   0  0  0  0  0  0  0  0  0  0  0  0
   70.2377    0.1247  144.8470 O   0  0  0  0  0  0  0  0  0  0  0  0
   64.5720   -2.8468  144.0789 O   0  0  0  0  0  0  0  0  0  0  0  0
  1  2  2  0
 24  1  1  0
  3  2  1  0
  2 26  1  0
 25  3  2  0
  4  5  2  0
  4  6  1  0
 26  4  1  0
  5 27  1  0
  6 29  2  0
  7  8  1  0
  7 11  1  0
 26  7  2  0
  8  9  1  0
  9 10  1  0
 10 34  1  0
 11 12  2  0
 11 15  1  0
 12 13  1  0
 13 14  2  0
 30 14  1  0
 15 30  2  0
 17 16  1  1
 17 18  1  0
 31 17  1  0
 20 19  1  0
 31 19  1  6
 32 20  1  0
 21 22  1  0
 32 21  1  0
 22 31  1  0
 23 24  2  0
 23 25  1  0
 23 32  1  0
 27 28  2  0
 27 33  1  0
 28 29  1  0
M  CHG  1  31   1
M  END
$$$$
