
     RDKit          3D

 34 37  0  0  0  0  0  0  0  0999 V2000
   68.8891   -4.9094  149.1864 C   0  0  0  0  0  0  0  0  0  0  0  0
   68.1955   -3.7221  149.2562 C   0  0  0  0  0  0  0  0  0  0  0  0
   68.1357   -3.0832  150.4682 C   0  0  0  0  0  0  0  0  0  0  0  0
   68.0135   -1.7968  147.7312 C   0  0  0  0  0  0  0  0  0  0  0  0
   69.4051   -1.6800  147.6201 C   0  0  0  0  0  0  0  0  0  0  0  0
   67.2564   -0.6990  147.4868 C   0  0  0  0  0  0  0  0  0  0  0  0
   66.6397   -3.7737  147.3837 C   0  0  0  0  0  0  0  0  0  0  0  0
   66.0471   -5.0384  147.9013 C   0  0  0  0  0  0  0  0  0  0  0  0
   65.2061   -5.6337  146.7951 C   0  0  0  0  0  0  0  0  0  0  0  0
   63.9527   -6.2929  147.3464 C   0  0  0  0  0  0  0  0  0  0  0  0
   66.0992   -3.3212  146.1070 C   0  0  0  0  0  0  0  0  0  0  0  0
   66.6920   -3.7040  144.9320 C   0  0  0  0  0  0  0  0  0  0  0  0
   66.1810   -3.2833  143.6951 C   0  0  0  0  0  0  0  0  0  0  0  0
   65.0664   -2.4725  143.6533 C   0  0  0  0  0  0  0  0  0  0  0  0
   64.9875   -2.5122  146.0572 C   0  0  0  0  0  0  0  0  0  0  0  0
   72.3265   -8.3251  155.8357 C   0  0  0  0  0  0  0  0  0  0  0  0
   72.4355   -6.8193  155.6339 C   0  0  2  0  0  0  0  0  0  0  0  0
   72.9837   -6.1314  156.8463 C   0  0  0  0  0  0  0  0  0  0  0  0
   70.6360   -7.1203  154.1526 C   0  0  0  0  0  0  0  0  0  0  0  0
   70.7701   -6.5686  152.7383 C   0  0  0  0  0  0  0  0  0  0  0  0
   70.0079   -4.5723  153.9711 C   0  0  0  0  0  0  0  0  0  0  0  0
   71.3191   -4.8883  154.7068 C   0  0  0  0  0  0  0  0  0  0  0  0
   69.4459   -4.7907  151.5378 C   0  0  0  0  0  0  0  0  0  0  0  0
   69.5045   -5.4328  150.3143 C   0  0  0  0  0  0  0  0  0  0  0  0
   68.7532   -3.6058  151.6073 C   0  0  0  0  0  0  0  0  0  0  0  0
   67.5304   -3.1226  148.0668 C   0  0  0  0  0  0  0  0  0  0  0  0
   70.0112   -0.5019  147.2765 C   0  0  0  0  0  0  0  0  0  0  0  0
   69.2308    0.6010  147.0328 C   0  0  0  0  0  0  0  0  0  0  0  0
   67.8551    0.5087  147.1361 C   0  0  0  0  0  0  0  0  0  0  0  0
   64.4747   -2.0902  144.8280 C   0  0  0  0  0  0  0  0  0  0  0  0
   71.2160   -6.2553  155.1281 N   0  0  2  0  0  4  0  0  0  0  0  0
   70.0581   -5.3104  152.7009 N   0  0  0  0  0  0  0  0  0  0  0  0
   71.3997   -0.4598  147.1857 O   0  0  0  0  0  0  0  0  0  0  0  0
   64.2818   -7.5009  147.9465 O   0  0  0  0  0  0  0  0  0  0  0  0
  1  2  2  0
 24  1  1  0
  3  2  1  0
  2 26  1  0
 25  3  2  0
  4  5  2  0
  4  6  1  0
 26  4  1  0
  5 27  1  0
  6 29  2  0
  7  8  1  0
  7 11  1  0
 26  7  2  0
  8  9  1  0
  9 10  1  0
 10 34  1  0
 11 12  2  0
 11 15  1  0
 12 13  1  0
 13 14  2  0
 30 14  1  0
 15 30  2  0
 17 16  1  1
 17 18  1  0
 31 17  1  0
 20 19  1  0
 31 19  1  6
 32 20  1  0
 21 22  1  0
 32 21  1  0
 22 31  1  0
 23 24  2  0
 23 25  1  0
 23 32  1  0
 27 28  2  0
 27 33  1  0
 28 29  1  0
M  CHG  1  31   1
M  END
$$$$
