
     RDKit          3D

 34 37  0  0  0  0  0  0  0  0999 V2000
   69.2629   -4.5541  148.8274 C   0  0  0  0  0  0  0  0  0  0  0  0
   68.4728   -3.4276  148.8777 C   0  0  0  0  0  0  0  0  0  0  0  0
   68.2855   -2.8281  150.0970 C   0  0  0  0  0  0  0  0  0  0  0  0
   68.3040   -1.5174  147.3324 C   0  0  0  0  0  0  0  0  0  0  0  0
   69.6958   -1.3719  147.2677 C   0  0  0  0  0  0  0  0  0  0  0  0
   67.5328   -0.4375  147.0546 C   0  0  0  0  0  0  0  0  0  0  0  0
   66.9858   -3.5259  146.9520 C   0  0  0  0  0  0  0  0  0  0  0  0
   66.6266   -4.9265  147.3096 C   0  0  0  0  0  0  0  0  0  0  0  0
   65.1180   -5.0152  147.3446 C   0  0  0  0  0  0  0  0  0  0  0  0
   64.6546   -6.3962  147.7774 C   0  0  0  0  0  0  0  0  0  0  0  0
   66.2696   -2.9838  145.8032 C   0  0  0  0  0  0  0  0  0  0  0  0
   65.1108   -2.2745  145.9842 C   0  0  0  0  0  0  0  0  0  0  0  0
   64.4130   -1.7403  144.8906 C   0  0  0  0  0  0  0  0  0  0  0  0
   64.8941   -1.9280  143.6120 C   0  0  0  0  0  0  0  0  0  0  0  0
   66.7433   -3.1667  144.5245 C   0  0  0  0  0  0  0  0  0  0  0  0
   73.0070   -5.3712  156.5711 C   0  0  0  0  0  0  0  0  0  0  0  0
   72.5436   -6.3085  155.4635 C   0  0  2  0  0  0  0  0  0  0  0  0
   73.6350   -6.5905  154.4772 C   0  0  0  0  0  0  0  0  0  0  0  0
   70.9265   -6.7540  153.8175 C   0  0  0  0  0  0  0  0  0  0  0  0
   71.1024   -6.1131  152.4460 C   0  0  0  0  0  0  0  0  0  0  0  0
   69.9867   -4.3002  153.6926 C   0  0  0  0  0  0  0  0  0  0  0  0
   71.2633   -4.4870  154.5266 C   0  0  0  0  0  0  0  0  0  0  0  0
   69.6593   -4.4547  151.2119 C   0  0  0  0  0  0  0  0  0  0  0  0
   69.8463   -5.0571  149.9812 C   0  0  0  0  0  0  0  0  0  0  0  0
   68.8704   -3.3306  151.2621 C   0  0  0  0  0  0  0  0  0  0  0  0
   67.8377   -2.8509  147.6610 C   0  0  0  0  0  0  0  0  0  0  0  0
   70.2884   -0.1834  146.9363 C   0  0  0  0  0  0  0  0  0  0  0  0
   69.4938    0.9010  146.6583 C   0  0  0  0  0  0  0  0  0  0  0  0
   68.1176    0.7803  146.7157 C   0  0  0  0  0  0  0  0  0  0  0  0
   66.0521   -2.6370  143.4319 C   0  0  0  0  0  0  0  0  0  0  0  0
   71.3062   -5.8770  154.8771 N   0  0  2  0  0  4  0  0  0  0  0  0
   70.2370   -4.9554  152.4007 N   0  0  0  0  0  0  0  0  0  0  0  0
   71.6780   -0.1124  146.8922 O   0  0  0  0  0  0  0  0  0  0  0  0
   65.1118   -7.3494  146.8773 O   0  0  0  0  0  0  0  0  0  0  0  0
  1  2  2  0
 24  1  1  0
  3  2  1  0
  2 26  1  0
 25  3  2  0
  4  5  2  0
  4  6  1  0
 26  4  1  0
  5 27  1  0
  6 29  2  0
  7  8  1  0
  7 11  1  0
 26  7  2  0
  8  9  1  0
  9 10  1  0
 10 34  1  0
 11 12  2  0
 11 15  1  0
 12 13  1  0
 13 14  2  0
 30 14  1  0
 15 30  2  0
 17 16  1  1
 17 18  1  0
 31 17  1  0
 20 19  1  0
 31 19  1  6
 32 20  1  0
 21 22  1  0
 32 21  1  0
 22 31  1  0
 23 24  2  0
 23 25  1  0
 23 32  1  0
 27 28  2  0
 27 33  1  0
 28 29  1  0
M  CHG  1  31   1
M  END
$$$$
