
     RDKit          3D

 34 37  0  0  0  0  0  0  0  0999 V2000
   68.4499   -4.7074  149.2154 C   0  0  0  0  0  0  0  0  0  0  0  0
   68.0502   -3.3903  149.2474 C   0  0  0  0  0  0  0  0  0  0  0  0
   68.2122   -2.6979  150.4202 C   0  0  0  0  0  0  0  0  0  0  0  0
   68.3052   -1.6599  147.5135 C   0  0  0  0  0  0  0  0  0  0  0  0
   67.7263   -0.3842  147.4969 C   0  0  0  0  0  0  0  0  0  0  0  0
   69.5777   -1.7925  147.0648 C   0  0  0  0  0  0  0  0  0  0  0  0
   66.3328   -3.0829  147.5487 C   0  0  0  0  0  0  0  0  0  0  0  0
   65.4895   -4.1116  148.2189 C   0  0  0  0  0  0  0  0  0  0  0  0
   65.6433   -5.4012  147.4454 C   0  0  0  0  0  0  0  0  0  0  0  0
   64.7161   -6.4806  147.9789 C   0  0  0  0  0  0  0  0  0  0  0  0
   65.7552   -2.5106  146.3381 C   0  0  0  0  0  0  0  0  0  0  0  0
   64.7679   -1.5640  146.4252 C   0  0  0  0  0  0  0  0  0  0  0  0
   64.2062   -0.9983  145.2708 C   0  0  0  0  0  0  0  0  0  0  0  0
   64.6490   -1.3960  144.0269 C   0  0  0  0  0  0  0  0  0  0  0  0
   66.1918   -2.9022  145.0935 C   0  0  0  0  0  0  0  0  0  0  0  0
   72.9159   -6.2948  156.3056 C   0  0  0  0  0  0  0  0  0  0  0  0
   71.8467   -7.0994  155.5780 C   0  0  2  0  0  0  0  0  0  0  0  0
   72.4375   -8.0038  154.5404 C   0  0  0  0  0  0  0  0  0  0  0  0
   69.9184   -7.0070  154.2378 C   0  0  0  0  0  0  0  0  0  0  0  0
   70.0770   -6.5958  152.7789 C   0  0  0  0  0  0  0  0  0  0  0  0
   69.9539   -4.3992  153.8949 C   0  0  0  0  0  0  0  0  0  0  0  0
   71.1940   -5.0028  154.5716 C   0  0  0  0  0  0  0  0  0  0  0  0
   69.1630   -4.6087  151.5251 C   0  0  0  0  0  0  0  0  0  0  0  0
   68.9985   -5.3044  150.3413 C   0  0  0  0  0  0  0  0  0  0  0  0
   68.7637   -3.2941  151.5570 C   0  0  0  0  0  0  0  0  0  0  0  0
   67.4669   -2.7108  148.0581 C   0  0  0  0  0  0  0  0  0  0  0  0
   68.4034    0.7160  147.0449 C   0  0  0  0  0  0  0  0  0  0  0  0
   69.6910    0.5653  146.5932 C   0  0  0  0  0  0  0  0  0  0  0  0
   70.2825   -0.6844  146.6007 C   0  0  0  0  0  0  0  0  0  0  0  0
   65.6357   -2.3421  143.9406 C   0  0  0  0  0  0  0  0  0  0  0  0
   70.7769   -6.2671  155.1048 N   0  0  2  0  0  4  0  0  0  0  0  0
   69.7115   -5.1997  152.6860 N   0  0  0  0  0  0  0  0  0  0  0  0
   67.7643    1.9527  147.0573 O   0  0  0  0  0  0  0  0  0  0  0  0
   64.3471   -7.3351  146.9487 O   0  0  0  0  0  0  0  0  0  0  0  0
  1  2  2  0
 24  1  1  0
  3  2  1  0
  2 26  1  0
 25  3  2  0
  4  5  2  0
  4  6  1  0
 26  4  1  0
  5 27  1  0
  6 29  2  0
  7  8  1  0
  7 11  1  0
 26  7  2  0
  8  9  1  0
  9 10  1  0
 10 34  1  0
 11 12  2  0
 11 15  1  0
 12 13  1  0
 13 14  2  0
 30 14  1  0
 15 30  2  0
 17 16  1  6
 17 18  1  0
 31 17  1  0
 20 19  1  0
 31 19  1  6
 32 20  1  0
 21 22  1  0
 32 21  1  0
 22 31  1  0
 23 24  2  0
 23 25  1  0
 23 32  1  0
 27 28  2  0
 27 33  1  0
 28 29  1  0
M  CHG  1  31   1
M  END
$$$$
