
     RDKit          3D

 34 37  0  0  0  0  0  0  0  0999 V2000
   67.7990   -2.8000  150.1061 C   0  0  0  0  0  0  0  0  0  0  0  0
   68.2071   -3.3619  148.9172 C   0  0  0  0  0  0  0  0  0  0  0  0
   69.0469   -4.4448  148.9731 C   0  0  0  0  0  0  0  0  0  0  0  0
   68.5594   -1.7346  147.1025 C   0  0  0  0  0  0  0  0  0  0  0  0
   68.4484   -0.5428  147.8306 C   0  0  0  0  0  0  0  0  0  0  0  0
   69.4104   -1.7645  146.0475 C   0  0  0  0  0  0  0  0  0  0  0  0
   66.7682   -3.3733  146.9528 C   0  0  0  0  0  0  0  0  0  0  0  0
   66.2718   -2.7833  145.6784 C   0  0  0  0  0  0  0  0  0  0  0  0
   64.7662   -2.6894  145.7758 C   0  0  0  0  0  0  0  0  0  0  0  0
   64.1684   -2.0668  144.5251 C   0  0  0  0  0  0  0  0  0  0  0  0
   66.0973   -4.6019  147.3617 C   0  0  0  0  0  0  0  0  0  0  0  0
   65.0415   -4.5542  148.2343 C   0  0  0  0  0  0  0  0  0  0  0  0
   64.3806   -5.7258  148.6327 C   0  0  0  0  0  0  0  0  0  0  0  0
   64.7941   -6.9468  148.1432 C   0  0  0  0  0  0  0  0  0  0  0  0
   66.5040   -5.8238  146.8775 C   0  0  0  0  0  0  0  0  0  0  0  0
   72.3502   -7.3862  155.2903 C   0  0  0  0  0  0  0  0  0  0  0  0
   71.5184   -6.2644  155.8983 C   0  0  2  0  0  0  0  0  0  0  0  0
   71.2742   -6.4794  157.3604 C   0  0  0  0  0  0  0  0  0  0  0  0
   70.3336   -6.7730  153.9334 C   0  0  0  0  0  0  0  0  0  0  0  0
   70.6029   -5.9285  152.6936 C   0  0  0  0  0  0  0  0  0  0  0  0
   68.9386   -4.5434  153.8759 C   0  0  0  0  0  0  0  0  0  0  0  0
   70.0653   -4.6020  154.9186 C   0  0  0  0  0  0  0  0  0  0  0  0
   69.0774   -4.4143  151.3761 C   0  0  0  0  0  0  0  0  0  0  0  0
   68.2306   -3.3225  151.3167 C   0  0  0  0  0  0  0  0  0  0  0  0
   69.4849   -4.9748  150.1894 C   0  0  0  0  0  0  0  0  0  0  0  0
   67.7582   -2.8373  147.5982 C   0  0  0  0  0  0  0  0  0  0  0  0
   69.1668    0.5765  147.5077 C   0  0  0  0  0  0  0  0  0  0  0  0
   70.0239    0.5304  146.4363 C   0  0  0  0  0  0  0  0  0  0  0  0
   70.1498   -0.6354  145.7035 C   0  0  0  0  0  0  0  0  0  0  0  0
   65.8494   -6.9937  147.2711 C   0  0  0  0  0  0  0  0  0  0  0  0
   70.3365   -5.9945  155.1293 N   0  0  2  0  0  4  0  0  0  0  0  0
   69.5359   -4.9570  152.5979 N   0  0  0  0  0  0  0  0  0  0  0  0
   69.0051    1.7260  148.2761 O   0  0  0  0  0  0  0  0  0  0  0  0
   64.6548   -0.7765  144.3634 O   0  0  0  0  0  0  0  0  0  0  0  0
  1  2  2  0
 24  1  1  0
  3  2  1  0
  2 26  1  0
 25  3  2  0
  4  5  2  0
  4  6  1  0
 26  4  1  0
  5 27  1  0
  6 29  2  0
  7  8  1  0
  7 11  1  0
 26  7  2  0
  8  9  1  0
  9 10  1  0
 10 34  1  0
 11 12  2  0
 11 15  1  0
 12 13  1  0
 13 14  2  0
 30 14  1  0
 15 30  2  0
 17 16  1  6
 17 18  1  0
 31 17  1  0
 20 19  1  0
 31 19  1  6
 32 20  1  0
 21 22  1  0
 32 21  1  0
 22 31  1  0
 23 24  2  0
 23 25  1  0
 23 32  1  0
 27 28  2  0
 27 33  1  0
 28 29  1  0
M  CHG  1  31   1
M  END
$$$$
