
     RDKit          3D

 34 37  0  0  0  0  0  0  0  0999 V2000
   68.1854   -2.7250  150.4668 C   0  0  0  0  0  0  0  0  0  0  0  0
   68.1673   -3.4480  149.2953 C   0  0  0  0  0  0  0  0  0  0  0  0
   68.7062   -4.7091  149.3101 C   0  0  0  0  0  0  0  0  0  0  0  0
   68.3630   -1.8481  147.4332 C   0  0  0  0  0  0  0  0  0  0  0  0
   67.7669   -0.5804  147.4495 C   0  0  0  0  0  0  0  0  0  0  0  0
   69.6034   -1.9665  146.8989 C   0  0  0  0  0  0  0  0  0  0  0  0
   66.4877   -3.3940  147.5330 C   0  0  0  0  0  0  0  0  0  0  0  0
   65.7081   -4.4415  148.2497 C   0  0  0  0  0  0  0  0  0  0  0  0
   64.7099   -5.0162  147.2707 C   0  0  0  0  0  0  0  0  0  0  0  0
   64.2419   -6.3958  147.7032 C   0  0  0  0  0  0  0  0  0  0  0  0
   65.8977   -2.9417  146.2784 C   0  0  0  0  0  0  0  0  0  0  0  0
   65.2567   -1.7320  146.2138 C   0  0  0  0  0  0  0  0  0  0  0  0
   64.6895   -1.2787  145.0134 C   0  0  0  0  0  0  0  0  0  0  0  0
   64.7742   -2.0566  143.8780 C   0  0  0  0  0  0  0  0  0  0  0  0
   65.9781   -3.7122  145.1415 C   0  0  0  0  0  0  0  0  0  0  0  0
   72.1962   -8.2449  155.2033 C   0  0  0  0  0  0  0  0  0  0  0  0
   72.1024   -6.8155  155.7209 C   0  0  2  0  0  0  0  0  0  0  0  0
   72.2739   -6.7471  157.2073 C   0  0  0  0  0  0  0  0  0  0  0  0
   70.2650   -6.9511  154.2619 C   0  0  0  0  0  0  0  0  0  0  0  0
   70.4361   -6.4269  152.8411 C   0  0  0  0  0  0  0  0  0  0  0  0
   69.8872   -4.3554  154.0631 C   0  0  0  0  0  0  0  0  0  0  0  0
   71.1696   -4.7922  154.7876 C   0  0  0  0  0  0  0  0  0  0  0  0
   69.2783   -4.5379  151.6381 C   0  0  0  0  0  0  0  0  0  0  0  0
   68.7343   -3.2666  151.6202 C   0  0  0  0  0  0  0  0  0  0  0  0
   69.2605   -5.2593  150.4686 C   0  0  0  0  0  0  0  0  0  0  0  0
   67.5785   -2.9066  148.0397 C   0  0  0  0  0  0  0  0  0  0  0  0
   68.3962    0.5259  146.9461 C   0  0  0  0  0  0  0  0  0  0  0  0
   69.6517    0.3895  146.4079 C   0  0  0  0  0  0  0  0  0  0  0  0
   70.2595   -0.8522  146.3815 C   0  0  0  0  0  0  0  0  0  0  0  0
   65.4148   -3.2656  143.9434 C   0  0  0  0  0  0  0  0  0  0  0  0
   70.9382   -6.1390  155.2228 N   0  0  2  0  0  4  0  0  0  0  0  0
   69.8501   -5.1054  152.7994 N   0  0  0  0  0  0  0  0  0  0  0  0
   67.7425    1.7540  146.9957 O   0  0  0  0  0  0  0  0  0  0  0  0
   65.1361   -7.3582  147.2538 O   0  0  0  0  0  0  0  0  0  0  0  0
  1  2  2  0
 24  1  1  0
  3  2  1  0
  2 26  1  0
 25  3  2  0
  4  5  2  0
  4  6  1  0
 26  4  1  0
  5 27  1  0
  6 29  2  0
  7  8  1  0
  7 11  1  0
 26  7  2  0
  8  9  1  0
  9 10  1  0
 10 34  1  0
 11 12  2  0
 11 15  1  0
 12 13  1  0
 13 14  2  0
 30 14  1  0
 15 30  2  0
 17 16  1  1
 17 18  1  0
 31 17  1  0
 20 19  1  0
 31 19  1  6
 32 20  1  0
 21 22  1  0
 32 21  1  0
 22 31  1  0
 23 24  2  0
 23 25  1  0
 23 32  1  0
 27 28  2  0
 27 33  1  0
 28 29  1  0
M  CHG  1  31   1
M  END
$$$$
