
     RDKit          3D

 34 37  0  0  0  0  0  0  0  0999 V2000
   68.6057   -2.4808  150.2530 C   0  0  0  0  0  0  0  0  0  0  0  0
   68.3970   -3.2298  149.1167 C   0  0  0  0  0  0  0  0  0  0  0  0
   68.7701   -4.5493  149.1394 C   0  0  0  0  0  0  0  0  0  0  0  0
   68.5083   -1.5286  147.3394 C   0  0  0  0  0  0  0  0  0  0  0  0
   67.7710   -0.3441  147.2128 C   0  0  0  0  0  0  0  0  0  0  0  0
   69.8152   -1.5120  146.9788 C   0  0  0  0  0  0  0  0  0  0  0  0
   66.7106   -3.1669  147.3612 C   0  0  0  0  0  0  0  0  0  0  0  0
   66.0245   -4.3311  147.9878 C   0  0  0  0  0  0  0  0  0  0  0  0
   66.1223   -5.4908  147.0231 C   0  0  0  0  0  0  0  0  0  0  0  0
   65.3521   -6.6988  147.5301 C   0  0  0  0  0  0  0  0  0  0  0  0
   66.0576   -2.6398  146.1686 C   0  0  0  0  0  0  0  0  0  0  0  0
   64.8502   -1.9990  146.2690 C   0  0  0  0  0  0  0  0  0  0  0  0
   64.2116   -1.4800  145.1328 C   0  0  0  0  0  0  0  0  0  0  0  0
   64.8015   -1.6131  143.8936 C   0  0  0  0  0  0  0  0  0  0  0  0
   66.6399   -2.7685  144.9288 C   0  0  0  0  0  0  0  0  0  0  0  0
   71.0667   -7.8662  156.6288 C   0  0  0  0  0  0  0  0  0  0  0  0
   71.2706   -6.4279  156.1711 C   0  0  2  0  0  0  0  0  0  0  0  0
   70.2806   -5.4960  156.7996 C   0  0  0  0  0  0  0  0  0  0  0  0
   71.6957   -4.9931  154.3590 C   0  0  0  0  0  0  0  0  0  0  0  0
   70.5162   -4.2592  153.7322 C   0  0  0  0  0  0  0  0  0  0  0  0
   70.4127   -6.4325  152.5696 C   0  0  0  0  0  0  0  0  0  0  0  0
   70.2423   -6.8735  154.0313 C   0  0  0  0  0  0  0  0  0  0  0  0
   69.5535   -4.3851  151.4055 C   0  0  0  0  0  0  0  0  0  0  0  0
   69.1763   -3.0548  151.3798 C   0  0  0  0  0  0  0  0  0  0  0  0
   69.3455   -5.1324  150.2712 C   0  0  0  0  0  0  0  0  0  0  0  0
   67.7782   -2.6537  147.8913 C   0  0  0  0  0  0  0  0  0  0  0  0
   68.3288    0.8130  146.7401 C   0  0  0  0  0  0  0  0  0  0  0  0
   69.6531    0.8134  146.3785 C   0  0  0  0  0  0  0  0  0  0  0  0
   70.4003   -0.3441  146.4954 C   0  0  0  0  0  0  0  0  0  0  0  0
   66.0082   -2.2536  143.7940 C   0  0  0  0  0  0  0  0  0  0  0  0
   71.3614   -6.3265  154.7419 N   0  0  2  0  0  4  0  0  0  0  0  0
   70.1442   -4.9875  152.5395 N   0  0  0  0  0  0  0  0  0  0  0  0
   67.5350    1.9523  146.6409 O   0  0  0  0  0  0  0  0  0  0  0  0
   64.0497   -6.6616  147.0504 O   0  0  0  0  0  0  0  0  0  0  0  0
  1  2  2  0
 24  1  1  0
  3  2  1  0
  2 26  1  0
 25  3  2  0
  4  5  2  0
  4  6  1  0
 26  4  1  0
  5 27  1  0
  6 29  2  0
  7  8  1  0
  7 11  1  0
 26  7  2  0
  8  9  1  0
  9 10  1  0
 10 34  1  0
 11 12  2  0
 11 15  1  0
 12 13  1  0
 13 14  2  0
 30 14  1  0
 15 30  2  0
 17 16  1  6
 17 18  1  0
 31 17  1  0
 20 19  1  0
 31 19  1  1
 32 20  1  0
 21 22  1  0
 32 21  1  0
 22 31  1  0
 23 24  2  0
 23 25  1  0
 23 32  1  0
 27 28  2  0
 27 33  1  0
 28 29  1  0
M  CHG  1  31   1
M  END
$$$$
