
     RDKit          3D

 34 37  0  0  0  0  0  0  0  0999 V2000
   68.8839   -5.1390  149.1784 C   0  0  0  0  0  0  0  0  0  0  0  0
   67.7978   -4.2951  149.2419 C   0  0  0  0  0  0  0  0  0  0  0  0
   67.4428   -3.7958  150.4689 C   0  0  0  0  0  0  0  0  0  0  0  0
   66.2324   -4.9936  147.4735 C   0  0  0  0  0  0  0  0  0  0  0  0
   66.7223   -5.5334  146.2772 C   0  0  0  0  0  0  0  0  0  0  0  0
   65.1134   -5.5380  148.0117 C   0  0  0  0  0  0  0  0  0  0  0  0
   67.0310   -2.6982  147.5712 C   0  0  0  0  0  0  0  0  0  0  0  0
   67.8991   -1.6521  148.1802 C   0  0  0  0  0  0  0  0  0  0  0  0
   69.0303   -1.3803  147.2150 C   0  0  0  0  0  0  0  0  0  0  0  0
   70.1517   -0.6010  147.8819 C   0  0  0  0  0  0  0  0  0  0  0  0
   66.2634   -2.2588  146.4117 C   0  0  0  0  0  0  0  0  0  0  0  0
   64.9837   -1.7930  146.5673 C   0  0  0  0  0  0  0  0  0  0  0  0
   64.2338   -1.3601  145.4636 C   0  0  0  0  0  0  0  0  0  0  0  0
   64.7858   -1.4011  144.2006 C   0  0  0  0  0  0  0  0  0  0  0  0
   66.8072   -2.2966  145.1486 C   0  0  0  0  0  0  0  0  0  0  0  0
   72.5527   -5.3208  157.1971 C   0  0  0  0  0  0  0  0  0  0  0  0
   72.5329   -5.9435  155.8073 C   0  0  2  0  0  0  0  0  0  0  0  0
   73.6268   -5.4041  154.9378 C   0  0  0  0  0  0  0  0  0  0  0  0
   71.1367   -6.8247  154.1348 C   0  0  0  0  0  0  0  0  0  0  0  0
   71.1121   -6.1284  152.7794 C   0  0  0  0  0  0  0  0  0  0  0  0
   69.4890   -4.7757  154.0527 C   0  0  0  0  0  0  0  0  0  0  0  0
   70.7583   -4.5813  154.8961 C   0  0  0  0  0  0  0  0  0  0  0  0
   69.2337   -4.9643  151.5659 C   0  0  0  0  0  0  0  0  0  0  0  0
   69.5894   -5.4662  150.3273 C   0  0  0  0  0  0  0  0  0  0  0  0
   68.1495   -4.1224  151.6291 C   0  0  0  0  0  0  0  0  0  0  0  0
   67.0213   -3.9117  148.0309 C   0  0  0  0  0  0  0  0  0  0  0  0
   66.1080   -6.5813  145.6465 C   0  0  0  0  0  0  0  0  0  0  0  0
   64.9755   -7.1213  146.2038 C   0  0  0  0  0  0  0  0  0  0  0  0
   64.4743   -6.6047  147.3844 C   0  0  0  0  0  0  0  0  0  0  0  0
   66.0647   -1.8668  144.0459 C   0  0  0  0  0  0  0  0  0  0  0  0
   71.2249   -5.8989  155.2171 N   0  0  2  0  0  4  0  0  0  0  0  0
   69.9330   -5.2915  152.7498 N   0  0  0  0  0  0  0  0  0  0  0  0
   66.6512   -7.0659  144.4599 O   0  0  0  0  0  0  0  0  0  0  0  0
   69.6226    0.4624  148.6009 O   0  0  0  0  0  0  0  0  0  0  0  0
  1  2  2  0
 24  1  1  0
  3  2  1  0
  2 26  1  0
 25  3  2  0
  4  5  2  0
  4  6  1  0
 26  4  1  0
  5 27  1  0
  6 29  2  0
  7  8  1  0
  7 11  1  0
 26  7  2  0
  8  9  1  0
  9 10  1  0
 10 34  1  0
 11 12  2  0
 11 15  1  0
 12 13  1  0
 13 14  2  0
 30 14  1  0
 15 30  2  0
 17 16  1  1
 17 18  1  0
 31 17  1  0
 20 19  1  0
 31 19  1  6
 32 20  1  0
 21 22  1  0
 32 21  1  0
 22 31  1  0
 23 24  2  0
 23 25  1  0
 23 32  1  0
 27 28  2  0
 27 33  1  0
 28 29  1  0
M  CHG  1  31   1
M  END
$$$$
