
     RDKit          3D

 34 37  0  0  0  0  0  0  0  0999 V2000
   68.1683   -2.8358  149.9263 C   0  0  0  0  0  0  0  0  0  0  0  0
   68.1386   -3.5527  148.7512 C   0  0  0  0  0  0  0  0  0  0  0  0
   68.6029   -4.8430  148.7738 C   0  0  0  0  0  0  0  0  0  0  0  0
   68.3674   -1.8295  147.0066 C   0  0  0  0  0  0  0  0  0  0  0  0
   67.6569   -0.6227  146.9687 C   0  0  0  0  0  0  0  0  0  0  0  0
   69.6722   -1.8172  146.6385 C   0  0  0  0  0  0  0  0  0  0  0  0
   66.6056   -3.5001  146.8600 C   0  0  0  0  0  0  0  0  0  0  0  0
   66.1071   -2.9236  145.5802 C   0  0  0  0  0  0  0  0  0  0  0  0
   64.6621   -2.5321  145.7892 C   0  0  0  0  0  0  0  0  0  0  0  0
   64.1618   -1.6412  144.6643 C   0  0  0  0  0  0  0  0  0  0  0  0
   65.9129   -4.7055  147.3002 C   0  0  0  0  0  0  0  0  0  0  0  0
   66.0280   -5.8682  146.5836 C   0  0  0  0  0  0  0  0  0  0  0  0
   65.3739   -7.0385  146.9967 C   0  0  0  0  0  0  0  0  0  0  0  0
   64.6021   -7.0261  148.1393 C   0  0  0  0  0  0  0  0  0  0  0  0
   65.1412   -4.7010  148.4391 C   0  0  0  0  0  0  0  0  0  0  0  0
   70.5168   -8.2937  156.3815 C   0  0  0  0  0  0  0  0  0  0  0  0
   70.4568   -6.8278  155.9726 C   0  0  2  0  0  0  0  0  0  0  0  0
   69.2158   -6.1575  156.4768 C   0  0  0  0  0  0  0  0  0  0  0  0
   70.9571   -5.2772  154.2790 C   0  0  0  0  0  0  0  0  0  0  0  0
   69.7966   -4.6170  153.5442 C   0  0  0  0  0  0  0  0  0  0  0  0
   70.0237   -6.7332  152.2969 C   0  0  0  0  0  0  0  0  0  0  0  0
   69.7263   -7.2564  153.7104 C   0  0  0  0  0  0  0  0  0  0  0  0
   69.1238   -4.7129  151.1164 C   0  0  0  0  0  0  0  0  0  0  0  0
   68.6549   -3.4121  151.0907 C   0  0  0  0  0  0  0  0  0  0  0  0
   69.0944   -5.4282  149.9434 C   0  0  0  0  0  0  0  0  0  0  0  0
   67.6147   -2.9739  147.4836 C   0  0  0  0  0  0  0  0  0  0  0  0
   68.2385    0.5519  146.5743 C   0  0  0  0  0  0  0  0  0  0  0  0
   69.5604    0.5478  146.2040 C   0  0  0  0  0  0  0  0  0  0  0  0
   70.2813   -0.6317  146.2340 C   0  0  0  0  0  0  0  0  0  0  0  0
   64.4875   -5.8638  148.8549 C   0  0  0  0  0  0  0  0  0  0  0  0
   70.7023   -6.6509  154.5692 N   0  0  2  0  0  4  0  0  0  0  0  0
   69.6316   -5.3165  152.2892 N   0  0  0  0  0  0  0  0  0  0  0  0
   67.4706    1.7130  146.5611 O   0  0  0  0  0  0  0  0  0  0  0  0
   65.0700   -0.6159  144.4369 O   0  0  0  0  0  0  0  0  0  0  0  0
  1  2  2  0
 24  1  1  0
  3  2  1  0
  2 26  1  0
 25  3  2  0
  4  5  2  0
  4  6  1  0
 26  4  1  0
  5 27  1  0
  6 29  2  0
  7  8  1  0
  7 11  1  0
 26  7  2  0
  8  9  1  0
  9 10  1  0
 10 34  1  0
 11 12  2  0
 11 15  1  0
 12 13  1  0
 13 14  2  0
 30 14  1  0
 15 30  2  0
 17 16  1  6
 17 18  1  0
 31 17  1  0
 20 19  1  0
 31 19  1  1
 32 20  1  0
 21 22  1  0
 32 21  1  0
 22 31  1  0
 23 24  2  0
 23 25  1  0
 23 32  1  0
 27 28  2  0
 27 33  1  0
 28 29  1  0
M  CHG  1  31   1
M  END
$$$$
