
     RDKit          3D

 24 27  0  0  0  0  0  0  0  0999 V2000
  -13.4723   10.6246  -26.6783 C   0  0  0  0  0  0  0  0  0  0  0  0
  -12.0191    8.7654  -28.0540 C   0  0  0  0  0  0  0  0  0  0  0  0
  -10.8994    5.7201  -28.2238 C   0  0  0  0  0  0  0  0  0  0  0  0
  -11.7905    3.3107  -27.3563 C   0  0  0  0  0  0  0  0  0  0  0  0
  -10.4497    3.5967  -27.2373 C   0  0  0  0  0  0  0  0  0  0  0  0
   -9.9976    4.8215  -27.6784 C   0  0  0  0  0  0  0  0  0  0  0  0
  -13.0887    9.0186  -30.0488 C   0  0  0  0  0  0  0  0  0  0  0  0
  -13.0992   10.5524  -21.0807 N   0  0  0  0  0  0  0  0  0  0  0  0
  -12.5117   10.4832  -22.3693 C   0  0  0  0  0  0  0  0  0  0  0  0
  -11.2274   10.7043  -22.6814 N   0  0  0  0  0  0  0  0  0  0  0  0
  -11.0537   10.5475  -23.9796 N   0  0  0  0  0  0  0  0  0  0  0  0
  -12.2141   10.2169  -24.5776 C   0  0  0  0  0  0  0  0  0  0  0  0
  -13.1513   10.1700  -23.5787 C   0  0  0  0  0  0  0  0  0  0  0  0
  -14.5534    9.8609  -23.6647 C   0  0  0  0  0  0  0  0  0  0  0  0
  -15.6897    9.6311  -23.7354 N   0  0  0  0  0  0  0  0  0  0  0  0
  -12.4740    9.9475  -25.9959 C   0  0  0  0  0  0  0  0  0  0  0  0
  -13.7426   10.3866  -28.0054 C   0  0  0  0  0  0  0  0  0  0  0  0
  -13.0196    9.4479  -28.7268 C   0  0  0  0  0  0  0  0  0  0  0  0
  -11.7595    9.0180  -26.7140 C   0  0  0  0  0  0  0  0  0  0  0  0
  -11.4795    7.9227  -28.9620 N   0  0  0  0  0  0  0  0  0  0  0  0
  -10.3776    7.0059  -28.6846 C   0  0  0  0  0  0  0  0  0  0  0  0
  -12.2302    5.4053  -28.3289 C   0  0  0  0  0  0  0  0  0  0  0  0
  -12.6539    4.1862  -27.8850 N   0  0  0  0  0  0  0  0  0  0  0  0
  -12.1103    8.0619  -30.1654 C   0  0  0  0  0  0  0  0  0  0  0  0
 16  1  2  0
 17  1  1  0
  2 18  1  0
  2 19  2  0
 20  2  1  0
  3  6  2  0
 21  3  1  0
  3 22  1  0
  5  4  2  0
  4 23  1  0
  6  5  1  0
 18  7  1  0
  7 24  2  0
  9  8  1  0
  9 10  1  0
 13  9  2  0
 11 10  1  0
 12 11  2  0
 12 13  1  0
 16 12  1  0
 13 14  1  0
 14 15  3  0
 19 16  1  0
 18 17  2  0
 20 21  1  0
 20 24  1  0
 22 23  2  0
M  END
$$$$
