
     RDKit          3D

 24 27  0  0  0  0  0  0  0  0999 V2000
  -13.6167   11.5651  -25.1454 C   0  0  0  0  0  0  0  0  0  0  0  0
  -12.9883    9.8290  -27.1584 C   0  0  0  0  0  0  0  0  0  0  0  0
  -10.8783    8.1583  -29.2614 C   0  0  0  0  0  0  0  0  0  0  0  0
   -8.6024    8.6176  -30.6618 C   0  0  0  0  0  0  0  0  0  0  0  0
   -8.5280    8.5576  -29.2890 C   0  0  0  0  0  0  0  0  0  0  0  0
   -9.6851    8.3241  -28.5780 C   0  0  0  0  0  0  0  0  0  0  0  0
  -14.0881   10.9384  -28.8158 C   0  0  0  0  0  0  0  0  0  0  0  0
  -12.7988    9.6072  -19.9124 N   0  0  0  0  0  0  0  0  0  0  0  0
  -12.3795    9.8435  -21.2462 C   0  0  0  0  0  0  0  0  0  0  0  0
  -11.1181    9.9321  -21.6896 N   0  0  0  0  0  0  0  0  0  0  0  0
  -11.1203   10.1588  -22.9892 N   0  0  0  0  0  0  0  0  0  0  0  0
  -12.3811   10.2293  -23.4569 C   0  0  0  0  0  0  0  0  0  0  0  0
  -13.1956   10.0327  -22.3722 C   0  0  0  0  0  0  0  0  0  0  0  0
  -14.6323   10.0051  -22.3103 C   0  0  0  0  0  0  0  0  0  0  0  0
  -15.7931    9.9998  -22.2713 N   0  0  0  0  0  0  0  0  0  0  0  0
  -12.8412   10.4605  -24.8304 C   0  0  0  0  0  0  0  0  0  0  0  0
  -14.0680   11.8022  -26.4226 C   0  0  0  0  0  0  0  0  0  0  0  0
  -13.7632   10.9365  -27.4626 C   0  0  0  0  0  0  0  0  0  0  0  0
  -12.5410    9.6047  -25.8636 C   0  0  0  0  0  0  0  0  0  0  0  0
  -12.8408    9.1575  -28.3217 N   0  0  0  0  0  0  0  0  0  0  0  0
  -12.0834    7.9181  -28.4689 C   0  0  0  0  0  0  0  0  0  0  0  0
  -10.9199    8.2238  -30.6307 C   0  0  0  0  0  0  0  0  0  0  0  0
   -9.7607    8.4560  -31.3128 N   0  0  0  0  0  0  0  0  0  0  0  0
  -13.4952    9.8101  -29.3273 C   0  0  0  0  0  0  0  0  0  0  0  0
 16  1  2  0
 17  1  1  0
  2 18  1  0
  2 19  2  0
 20  2  1  0
  3  6  2  0
 21  3  1  0
  3 22  1  0
  5  4  2  0
  4 23  1  0
  6  5  1  0
 18  7  1  0
  7 24  2  0
  9  8  1  0
  9 10  1  0
 13  9  2  0
 11 10  1  0
 12 11  2  0
 12 13  1  0
 16 12  1  0
 13 14  1  0
 14 15  3  0
 19 16  1  0
 18 17  2  0
 20 21  1  0
 20 24  1  0
 22 23  2  0
M  END
$$$$
