
     RDKit          3D

 24 27  0  0  0  0  0  0  0  0999 V2000
  -11.7078   11.4202  -24.6100 C   0  0  0  0  0  0  0  0  0  0  0  0
  -13.7039   10.6374  -26.3023 C   0  0  0  0  0  0  0  0  0  0  0  0
  -16.7788   10.8493  -26.8421 C   0  0  0  0  0  0  0  0  0  0  0  0
  -18.4808   12.8522  -26.1763 C   0  0  0  0  0  0  0  0  0  0  0  0
  -17.8386   12.9130  -27.3918 C   0  0  0  0  0  0  0  0  0  0  0  0
  -16.9737   11.8946  -27.7294 C   0  0  0  0  0  0  0  0  0  0  0  0
  -12.5973   11.0886  -28.2412 C   0  0  0  0  0  0  0  0  0  0  0  0
  -14.1373    9.3953  -19.4754 N   0  0  0  0  0  0  0  0  0  0  0  0
  -13.6233   10.1719  -20.5446 C   0  0  0  0  0  0  0  0  0  0  0  0
  -12.9953   11.3522  -20.4529 N   0  0  0  0  0  0  0  0  0  0  0  0
  -12.6619   11.7713  -21.6584 N   0  0  0  0  0  0  0  0  0  0  0  0
  -13.0552   10.8869  -22.5945 C   0  0  0  0  0  0  0  0  0  0  0  0
  -13.6660    9.8661  -21.9137 C   0  0  0  0  0  0  0  0  0  0  0  0
  -14.2639    8.6633  -22.4280 C   0  0  0  0  0  0  0  0  0  0  0  0
  -14.7412    7.6823  -22.8265 N   0  0  0  0  0  0  0  0  0  0  0  0
  -12.8857   10.9515  -24.0502 C   0  0  0  0  0  0  0  0  0  0  0  0
  -11.5246   11.4987  -25.9706 C   0  0  0  0  0  0  0  0  0  0  0  0
  -12.5222   11.1078  -26.8517 C   0  0  0  0  0  0  0  0  0  0  0  0
  -13.8721   10.5648  -24.9263 C   0  0  0  0  0  0  0  0  0  0  0  0
  -14.4974   10.3323  -27.3526 N   0  0  0  0  0  0  0  0  0  0  0  0
  -15.8488    9.7923  -27.2366 C   0  0  0  0  0  0  0  0  0  0  0  0
  -17.4338   10.8174  -25.6375 C   0  0  0  0  0  0  0  0  0  0  0  0
  -18.2854   11.8374  -25.3256 N   0  0  0  0  0  0  0  0  0  0  0  0
  -13.8481   10.5974  -28.5246 C   0  0  0  0  0  0  0  0  0  0  0  0
 16  1  2  0
 17  1  1  0
  2 18  1  0
  2 19  2  0
 20  2  1  0
  3  6  2  0
 21  3  1  0
  3 22  1  0
  5  4  2  0
  4 23  1  0
  6  5  1  0
 18  7  1  0
  7 24  2  0
  9  8  1  0
  9 10  1  0
 13  9  2  0
 11 10  1  0
 12 11  2  0
 12 13  1  0
 16 12  1  0
 13 14  1  0
 14 15  3  0
 19 16  1  0
 18 17  2  0
 20 21  1  0
 20 24  1  0
 22 23  2  0
M  END
$$$$
