
     RDKit          3D

 24 27  0  0  0  0  0  0  0  0999 V2000
  -12.9013   10.9039  -26.5735 C   0  0  0  0  0  0  0  0  0  0  0  0
  -12.6414    8.6807  -28.1390 C   0  0  0  0  0  0  0  0  0  0  0  0
  -11.1269    5.8490  -28.7453 C   0  0  0  0  0  0  0  0  0  0  0  0
   -8.6262    4.8855  -28.3332 C   0  0  0  0  0  0  0  0  0  0  0  0
   -9.6991    4.0803  -28.0262 C   0  0  0  0  0  0  0  0  0  0  0  0
  -10.9697    4.5708  -28.2359 C   0  0  0  0  0  0  0  0  0  0  0  0
  -12.3674    9.7803  -30.1146 C   0  0  0  0  0  0  0  0  0  0  0  0
  -12.8418   10.5516  -21.0471 N   0  0  0  0  0  0  0  0  0  0  0  0
  -13.1284    9.9677  -22.3070 C   0  0  0  0  0  0  0  0  0  0  0  0
  -13.8774    8.8810  -22.5388 N   0  0  0  0  0  0  0  0  0  0  0  0
  -13.9174    8.6388  -23.8349 N   0  0  0  0  0  0  0  0  0  0  0  0
  -13.1977    9.5539  -24.5115 C   0  0  0  0  0  0  0  0  0  0  0  0
  -12.6888   10.4056  -23.5658 C   0  0  0  0  0  0  0  0  0  0  0  0
  -11.8531   11.5627  -23.7434 C   0  0  0  0  0  0  0  0  0  0  0  0
  -11.1915   12.5080  -23.8762 N   0  0  0  0  0  0  0  0  0  0  0  0
  -12.9767    9.6648  -25.9574 C   0  0  0  0  0  0  0  0  0  0  0  0
  -12.7026   11.0371  -27.9277 C   0  0  0  0  0  0  0  0  0  0  0  0
  -12.5676    9.9244  -28.7450 C   0  0  0  0  0  0  0  0  0  0  0  0
  -12.8424    8.5643  -26.7704 C   0  0  0  0  0  0  0  0  0  0  0  0
  -12.4867    7.7808  -29.1351 N   0  0  0  0  0  0  0  0  0  0  0  0
  -12.4918    6.3330  -28.9475 C   0  0  0  0  0  0  0  0  0  0  0  0
  -10.0372    6.6275  -29.0413 C   0  0  0  0  0  0  0  0  0  0  0  0
   -8.7890    6.1197  -28.8250 N   0  0  0  0  0  0  0  0  0  0  0  0
  -12.3211    8.4244  -30.3283 C   0  0  0  0  0  0  0  0  0  0  0  0
 16  1  2  0
 17  1  1  0
  2 18  1  0
  2 19  2  0
 20  2  1  0
  3  6  2  0
 21  3  1  0
  3 22  1  0
  5  4  2  0
  4 23  1  0
  6  5  1  0
 18  7  1  0
  7 24  2  0
  9  8  1  0
  9 10  1  0
 13  9  2  0
 11 10  1  0
 12 11  2  0
 12 13  1  0
 16 12  1  0
 13 14  1  0
 14 15  3  0
 19 16  1  0
 18 17  2  0
 20 21  1  0
 20 24  1  0
 22 23  2  0
M  END
$$$$
