
     RDKit          3D

 24 27  0  0  0  0  0  0  0  0999 V2000
  -12.8976   11.1450  -26.2845 C   0  0  0  0  0  0  0  0  0  0  0  0
  -12.7247    8.8880  -27.8132 C   0  0  0  0  0  0  0  0  0  0  0  0
  -11.3854    5.9054  -28.5841 C   0  0  0  0  0  0  0  0  0  0  0  0
   -8.9257    4.7664  -28.6530 C   0  0  0  0  0  0  0  0  0  0  0  0
   -9.4165    5.3395  -29.8038 C   0  0  0  0  0  0  0  0  0  0  0  0
  -10.6667    5.9181  -29.7680 C   0  0  0  0  0  0  0  0  0  0  0  0
  -12.2686    9.9380  -29.7822 C   0  0  0  0  0  0  0  0  0  0  0  0
  -13.2680   10.9525  -20.7801 N   0  0  0  0  0  0  0  0  0  0  0  0
  -13.4676   10.3263  -22.0365 C   0  0  0  0  0  0  0  0  0  0  0  0
  -14.1773    9.2156  -22.2785 N   0  0  0  0  0  0  0  0  0  0  0  0
  -14.1362    8.9357  -23.5669 N   0  0  0  0  0  0  0  0  0  0  0  0
  -13.3991    9.8483  -24.2280 C   0  0  0  0  0  0  0  0  0  0  0  0
  -12.9654   10.7386  -23.2804 C   0  0  0  0  0  0  0  0  0  0  0  0
  -12.1469   11.9099  -23.4440 C   0  0  0  0  0  0  0  0  0  0  0  0
  -11.5008   12.8671  -23.5683 N   0  0  0  0  0  0  0  0  0  0  0  0
  -13.0968    9.9232  -25.6615 C   0  0  0  0  0  0  0  0  0  0  0  0
  -12.6205   11.2450  -27.6277 C   0  0  0  0  0  0  0  0  0  0  0  0
  -12.5274   10.1147  -28.4263 C   0  0  0  0  0  0  0  0  0  0  0  0
  -13.0036    8.8051  -26.4559 C   0  0  0  0  0  0  0  0  0  0  0  0
  -12.5869    7.9660  -28.7913 N   0  0  0  0  0  0  0  0  0  0  0  0
  -12.7097    6.5251  -28.5906 C   0  0  0  0  0  0  0  0  0  0  0  0
  -10.8686    5.3259  -27.4535 C   0  0  0  0  0  0  0  0  0  0  0  0
   -9.6284    4.7593  -27.5138 N   0  0  0  0  0  0  0  0  0  0  0  0
  -12.3129    8.5796  -29.9803 C   0  0  0  0  0  0  0  0  0  0  0  0
 16  1  2  0
 17  1  1  0
  2 18  1  0
  2 19  2  0
 20  2  1  0
  3  6  2  0
 21  3  1  0
  3 22  1  0
  5  4  2  0
  4 23  1  0
  6  5  1  0
 18  7  1  0
  7 24  2  0
  9  8  1  0
  9 10  1  0
 13  9  2  0
 11 10  1  0
 12 11  2  0
 12 13  1  0
 16 12  1  0
 13 14  1  0
 14 15  3  0
 19 16  1  0
 18 17  2  0
 20 21  1  0
 20 24  1  0
 22 23  2  0
M  END
$$$$
