
     RDKit          3D

 24 27  0  0  0  0  0  0  0  0999 V2000
  -24.5181   20.2505   -9.2551 C   0  0  0  0  0  0  0  0  0  0  0  0
  -22.9961   19.4475  -11.3763 C   0  0  0  0  0  0  0  0  0  0  0  0
  -20.3097   17.9660  -12.9161 C   0  0  0  0  0  0  0  0  0  0  0  0
  -18.7111   15.7795  -12.7932 C   0  0  0  0  0  0  0  0  0  0  0  0
  -18.3966   16.7733  -13.6915 C   0  0  0  0  0  0  0  0  0  0  0  0
  -19.2096   17.8843  -13.7534 C   0  0  0  0  0  0  0  0  0  0  0  0
  -24.5277   18.0206  -12.2740 C   0  0  0  0  0  0  0  0  0  0  0  0
  -21.9653   22.9603   -5.0741 N   0  0  0  0  0  0  0  0  0  0  0  0
  -22.1635   22.7141   -6.4563 C   0  0  0  0  0  0  0  0  0  0  0  0
  -21.8373   23.5239   -7.4730 N   0  0  0  0  0  0  0  0  0  0  0  0
  -22.1740   22.9576   -8.6158 N   0  0  0  0  0  0  0  0  0  0  0  0
  -22.7355   21.7526   -8.4016 C   0  0  0  0  0  0  0  0  0  0  0  0
  -22.7397   21.5765   -7.0424 C   0  0  0  0  0  0  0  0  0  0  0  0
  -23.2219   20.4602   -6.2742 C   0  0  0  0  0  0  0  0  0  0  0  0
  -23.5994   19.5644   -5.6385 N   0  0  0  0  0  0  0  0  0  0  0  0
  -23.2473   20.7888   -9.3819 C   0  0  0  0  0  0  0  0  0  0  0  0
  -25.0202   19.3397  -10.1547 C   0  0  0  0  0  0  0  0  0  0  0  0
  -24.2681   18.9153  -11.2402 C   0  0  0  0  0  0  0  0  0  0  0  0
  -22.5048   20.3661  -10.4589 C   0  0  0  0  0  0  0  0  0  0  0  0
  -22.4813   18.8797  -12.4892 N   0  0  0  0  0  0  0  0  0  0  0  0
  -21.1493   19.1589  -13.0176 C   0  0  0  0  0  0  0  0  0  0  0  0
  -20.5969   16.9583  -12.0311 C   0  0  0  0  0  0  0  0  0  0  0  0
  -19.7769   15.8681  -11.9883 N   0  0  0  0  0  0  0  0  0  0  0  0
  -23.3881   18.0200  -13.0406 C   0  0  0  0  0  0  0  0  0  0  0  0
 16  1  2  0
 17  1  1  0
  2 18  1  0
  2 19  2  0
 20  2  1  0
  3  6  2  0
 21  3  1  0
  3 22  1  0
  5  4  2  0
  4 23  1  0
  6  5  1  0
 18  7  1  0
  7 24  2  0
  9  8  1  0
  9 10  1  0
 13  9  2  0
 11 10  1  0
 12 11  2  0
 12 13  1  0
 16 12  1  0
 13 14  1  0
 14 15  3  0
 19 16  1  0
 18 17  2  0
 20 21  1  0
 20 24  1  0
 22 23  2  0
M  END
$$$$
