
     RDKit          3D

 24 27  0  0  0  0  0  0  0  0999 V2000
  -22.7164   18.0864  -12.7411 C   0  0  0  0  0  0  0  0  0  0  0  0
  -23.3506   20.5139  -11.6612 C   0  0  0  0  0  0  0  0  0  0  0  0
  -22.8028   22.7597   -9.3656 C   0  0  0  0  0  0  0  0  0  0  0  0
  -22.0501   22.5723   -6.7675 C   0  0  0  0  0  0  0  0  0  0  0  0
  -22.9580   21.6606   -7.2556 C   0  0  0  0  0  0  0  0  0  0  0  0
  -23.3400   21.7565   -8.5762 C   0  0  0  0  0  0  0  0  0  0  0  0
  -25.5813   20.1210  -11.4222 C   0  0  0  0  0  0  0  0  0  0  0  0
  -17.4854   16.4844  -13.4947 N   0  0  0  0  0  0  0  0  0  0  0  0
  -18.4316   17.5321  -13.3620 C   0  0  0  0  0  0  0  0  0  0  0  0
  -18.2392   18.8298  -13.6356 N   0  0  0  0  0  0  0  0  0  0  0  0
  -19.3467   19.5031  -13.3900 N   0  0  0  0  0  0  0  0  0  0  0  0
  -20.3146   18.6795  -12.9449 C   0  0  0  0  0  0  0  0  0  0  0  0
  -19.7591   17.4268  -12.9189 C   0  0  0  0  0  0  0  0  0  0  0  0
  -20.3562   16.1781  -12.5277 C   0  0  0  0  0  0  0  0  0  0  0  0
  -20.8239   15.1674  -12.1980 N   0  0  0  0  0  0  0  0  0  0  0  0
  -21.6926   19.0028  -12.5600 C   0  0  0  0  0  0  0  0  0  0  0  0
  -24.0181   18.3657  -12.3965 C   0  0  0  0  0  0  0  0  0  0  0  0
  -24.3668   19.5905  -11.8466 C   0  0  0  0  0  0  0  0  0  0  0  0
  -22.0418   20.2155  -12.0147 C   0  0  0  0  0  0  0  0  0  0  0  0
  -23.9428   21.6040  -11.1256 N   0  0  0  0  0  0  0  0  0  0  0  0
  -23.2390   22.8295  -10.7595 C   0  0  0  0  0  0  0  0  0  0  0  0
  -21.8998   23.6537   -8.8496 C   0  0  0  0  0  0  0  0  0  0  0  0
  -21.5369   23.5383   -7.5390 N   0  0  0  0  0  0  0  0  0  0  0  0
  -25.2825   21.3849  -10.9755 C   0  0  0  0  0  0  0  0  0  0  0  0
 16  1  2  0
 17  1  1  0
  2 18  1  0
  2 19  2  0
 20  2  1  0
  3  6  2  0
 21  3  1  0
  3 22  1  0
  5  4  2  0
  4 23  1  0
  6  5  1  0
 18  7  1  0
  7 24  2  0
  9  8  1  0
  9 10  1  0
 13  9  2  0
 11 10  1  0
 12 11  2  0
 12 13  1  0
 16 12  1  0
 13 14  1  0
 14 15  3  0
 19 16  1  0
 18 17  2  0
 20 21  1  0
 20 24  1  0
 22 23  2  0
M  END
$$$$
