
     RDKit          3D

 24 27  0  0  0  0  0  0  0  0999 V2000
  -14.6244    9.0689  -27.0546 C   0  0  0  0  0  0  0  0  0  0  0  0
  -12.3047    8.5582  -28.4033 C   0  0  0  0  0  0  0  0  0  0  0  0
   -9.5668    6.7609  -28.7878 C   0  0  0  0  0  0  0  0  0  0  0  0
   -8.8473    4.1671  -28.4612 C   0  0  0  0  0  0  0  0  0  0  0  0
   -7.9728    5.0157  -29.1006 C   0  0  0  0  0  0  0  0  0  0  0  0
   -8.3393    6.3338  -29.2662 C   0  0  0  0  0  0  0  0  0  0  0  0
  -13.2440    8.3295  -30.4655 C   0  0  0  0  0  0  0  0  0  0  0  0
  -12.4940   10.9670  -21.8215 N   0  0  0  0  0  0  0  0  0  0  0  0
  -13.0094   10.1520  -22.8611 C   0  0  0  0  0  0  0  0  0  0  0  0
  -13.8539    9.1197  -22.7310 N   0  0  0  0  0  0  0  0  0  0  0  0
  -14.1095    8.6043  -23.9181 N   0  0  0  0  0  0  0  0  0  0  0  0
  -13.4456    9.2737  -24.8795 C   0  0  0  0  0  0  0  0  0  0  0  0
  -12.7426   10.2579  -24.2348 C   0  0  0  0  0  0  0  0  0  0  0  0
  -11.8714   11.2602  -24.7873 C   0  0  0  0  0  0  0  0  0  0  0  0
  -11.1557   12.0674  -25.2176 N   0  0  0  0  0  0  0  0  0  0  0  0
  -13.4445    9.0426  -26.3281 C   0  0  0  0  0  0  0  0  0  0  0  0
  -14.6534    8.8482  -28.4116 C   0  0  0  0  0  0  0  0  0  0  0  0
  -13.4899    8.5867  -29.1201 C   0  0  0  0  0  0  0  0  0  0  0  0
  -12.2933    8.7832  -27.0335 C   0  0  0  0  0  0  0  0  0  0  0  0
  -11.3389    8.2847  -29.3078 N   0  0  0  0  0  0  0  0  0  0  0  0
   -9.9192    8.1656  -28.9889 C   0  0  0  0  0  0  0  0  0  0  0  0
  -10.4168    5.8903  -28.1546 C   0  0  0  0  0  0  0  0  0  0  0  0
  -10.0315    4.5899  -28.0026 N   0  0  0  0  0  0  0  0  0  0  0  0
  -11.8859    8.1442  -30.5514 C   0  0  0  0  0  0  0  0  0  0  0  0
 16  1  2  0
 17  1  1  0
  2 18  1  0
  2 19  2  0
 20  2  1  0
  3  6  2  0
 21  3  1  0
  3 22  1  0
  5  4  2  0
  4 23  1  0
  6  5  1  0
 18  7  1  0
  7 24  2  0
  9  8  1  0
  9 10  1  0
 13  9  2  0
 11 10  1  0
 12 11  2  0
 12 13  1  0
 16 12  1  0
 13 14  1  0
 14 15  3  0
 19 16  1  0
 18 17  2  0
 20 21  1  0
 20 24  1  0
 22 23  2  0
M  END
$$$$
