
     RDKit          3D

 24 27  0  0  0  0  0  0  0  0999 V2000
  -21.3884   19.0349  -10.0893 C   0  0  0  0  0  0  0  0  0  0  0  0
  -23.6668   20.4109  -10.7029 C   0  0  0  0  0  0  0  0  0  0  0  0
  -25.1510   23.0800  -11.9583 C   0  0  0  0  0  0  0  0  0  0  0  0
  -24.6269   25.7349  -12.1279 C   0  0  0  0  0  0  0  0  0  0  0  0
  -25.5396   25.1886  -13.0009 C   0  0  0  0  0  0  0  0  0  0  0  0
  -25.8054   23.8392  -12.9140 C   0  0  0  0  0  0  0  0  0  0  0  0
  -24.5439   20.4184   -8.6010 C   0  0  0  0  0  0  0  0  0  0  0  0
  -18.2672   16.9555  -14.2110 N   0  0  0  0  0  0  0  0  0  0  0  0
  -19.0983   17.9786  -13.6885 C   0  0  0  0  0  0  0  0  0  0  0  0
  -19.2054   19.2366  -14.1377 N   0  0  0  0  0  0  0  0  0  0  0  0
  -20.0772   19.8974  -13.4005 N   0  0  0  0  0  0  0  0  0  0  0  0
  -20.5810   19.1047  -12.4356 C   0  0  0  0  0  0  0  0  0  0  0  0
  -19.9766   17.8853  -12.5978 C   0  0  0  0  0  0  0  0  0  0  0  0
  -20.1545   16.6769  -11.8381 C   0  0  0  0  0  0  0  0  0  0  0  0
  -20.3175   15.7007  -11.2304 N   0  0  0  0  0  0  0  0  0  0  0  0
  -21.5742   19.4271  -11.4055 C   0  0  0  0  0  0  0  0  0  0  0  0
  -22.3064   19.3169   -9.1050 C   0  0  0  0  0  0  0  0  0  0  0  0
  -23.4713   20.0139   -9.3900 C   0  0  0  0  0  0  0  0  0  0  0  0
  -22.7297   20.1178  -11.6843 C   0  0  0  0  0  0  0  0  0  0  0  0
  -24.8544   21.0553  -10.7152 N   0  0  0  0  0  0  0  0  0  0  0  0
  -25.4577   21.6514  -11.9035 C   0  0  0  0  0  0  0  0  0  0  0  0
  -24.2461   23.6540  -11.1023 C   0  0  0  0  0  0  0  0  0  0  0  0
  -23.9997   24.9923  -11.2077 N   0  0  0  0  0  0  0  0  0  0  0  0
  -25.3947   21.0688   -9.4609 C   0  0  0  0  0  0  0  0  0  0  0  0
 16  1  2  0
 17  1  1  0
  2 18  1  0
  2 19  2  0
 20  2  1  0
  3  6  2  0
 21  3  1  0
  3 22  1  0
  5  4  2  0
  4 23  1  0
  6  5  1  0
 18  7  1  0
  7 24  2  0
  9  8  1  0
  9 10  1  0
 13  9  2  0
 11 10  1  0
 12 11  2  0
 12 13  1  0
 16 12  1  0
 13 14  1  0
 14 15  3  0
 19 16  1  0
 18 17  2  0
 20 21  1  0
 20 24  1  0
 22 23  2  0
M  END
$$$$
