
     RDKit          3D

 24 27  0  0  0  0  0  0  0  0999 V2000
  -10.5326    6.6252  -28.9156 C   0  0  0  0  0  0  0  0  0  0  0  0
  -12.4986    8.2502  -27.9382 C   0  0  0  0  0  0  0  0  0  0  0  0
  -13.8473    9.9566  -25.4408 C   0  0  0  0  0  0  0  0  0  0  0  0
  -12.8314   11.3137  -23.3247 C   0  0  0  0  0  0  0  0  0  0  0  0
  -11.9774   10.5483  -24.0852 C   0  0  0  0  0  0  0  0  0  0  0  0
  -12.4946    9.8589  -25.1605 C   0  0  0  0  0  0  0  0  0  0  0  0
  -12.2344    9.9263  -29.4575 C   0  0  0  0  0  0  0  0  0  0  0  0
   -9.3800    1.6379  -26.9542 N   0  0  0  0  0  0  0  0  0  0  0  0
  -10.0935    2.8546  -26.8092 C   0  0  0  0  0  0  0  0  0  0  0  0
  -10.8705    3.2141  -25.7782 N   0  0  0  0  0  0  0  0  0  0  0  0
  -11.3681    4.4161  -25.9967 N   0  0  0  0  0  0  0  0  0  0  0  0
  -10.9412    4.8993  -27.1788 C   0  0  0  0  0  0  0  0  0  0  0  0
  -10.1331    3.9288  -27.7114 C   0  0  0  0  0  0  0  0  0  0  0  0
   -9.4147    3.9304  -28.9576 C   0  0  0  0  0  0  0  0  0  0  0  0
   -8.8332    3.9115  -29.9628 N   0  0  0  0  0  0  0  0  0  0  0  0
  -11.2433    6.1892  -27.8085 C   0  0  0  0  0  0  0  0  0  0  0  0
  -10.7894    7.8329  -29.5210 C   0  0  0  0  0  0  0  0  0  0  0  0
  -11.7820    8.6767  -29.0446 C   0  0  0  0  0  0  0  0  0  0  0  0
  -12.2263    7.0279  -27.3391 C   0  0  0  0  0  0  0  0  0  0  0  0
  -13.3851    9.2359  -27.6768 N   0  0  0  0  0  0  0  0  0  0  0  0
  -14.3562    9.2049  -26.5871 C   0  0  0  0  0  0  0  0  0  0  0  0
  -14.6730   10.7280  -24.6634 C   0  0  0  0  0  0  0  0  0  0  0  0
  -14.1376   11.4015  -23.6040 N   0  0  0  0  0  0  0  0  0  0  0  0
  -13.2399   10.2502  -28.5798 C   0  0  0  0  0  0  0  0  0  0  0  0
 16  1  2  0
 17  1  1  0
  2 18  1  0
  2 19  2  0
 20  2  1  0
  3  6  2  0
 21  3  1  0
  3 22  1  0
  5  4  2  0
  4 23  1  0
  6  5  1  0
 18  7  1  0
  7 24  2  0
  9  8  1  0
  9 10  1  0
 13  9  2  0
 11 10  1  0
 12 11  2  0
 12 13  1  0
 16 12  1  0
 13 14  1  0
 14 15  3  0
 19 16  1  0
 18 17  2  0
 20 21  1  0
 20 24  1  0
 22 23  2  0
M  END
$$$$
