
     RDKit          3D

 24 27  0  0  0  0  0  0  0  0999 V2000
  -21.0516   17.1099  -14.5308 C   0  0  0  0  0  0  0  0  0  0  0  0
  -22.5601   18.9093  -13.1354 C   0  0  0  0  0  0  0  0  0  0  0  0
  -24.3956   19.9114  -10.4737 C   0  0  0  0  0  0  0  0  0  0  0  0
  -26.1873   18.9172   -8.6980 C   0  0  0  0  0  0  0  0  0  0  0  0
  -25.4043   19.9819   -8.3146 C   0  0  0  0  0  0  0  0  0  0  0  0
  -24.4939   20.4866   -9.2177 C   0  0  0  0  0  0  0  0  0  0  0  0
  -24.2202   19.1159  -14.6811 C   0  0  0  0  0  0  0  0  0  0  0  0
  -16.0683   17.2882  -11.1859 N   0  0  0  0  0  0  0  0  0  0  0  0
  -17.2922   16.9228  -11.8016 C   0  0  0  0  0  0  0  0  0  0  0  0
  -17.6949   15.6851  -12.1203 N   0  0  0  0  0  0  0  0  0  0  0  0
  -18.8889   15.7377  -12.6786 N   0  0  0  0  0  0  0  0  0  0  0  0
  -19.3234   17.0101  -12.7516 C   0  0  0  0  0  0  0  0  0  0  0  0
  -18.3299   17.7784  -12.2026 C   0  0  0  0  0  0  0  0  0  0  0  0
  -18.2797   19.2050  -12.0261 C   0  0  0  0  0  0  0  0  0  0  0  0
  -18.2340   20.3542  -11.8642 N   0  0  0  0  0  0  0  0  0  0  0  0
  -20.5884   17.5208  -13.2910 C   0  0  0  0  0  0  0  0  0  0  0  0
  -22.2296   17.5780  -15.0639 C   0  0  0  0  0  0  0  0  0  0  0  0
  -23.0142   18.4921  -14.3761 C   0  0  0  0  0  0  0  0  0  0  0  0
  -21.3685   18.4266  -12.6121 C   0  0  0  0  0  0  0  0  0  0  0  0
  -23.4857   19.7846  -12.6848 N   0  0  0  0  0  0  0  0  0  0  0  0
  -23.4134   20.4735  -11.3996 C   0  0  0  0  0  0  0  0  0  0  0  0
  -25.1903   18.8506  -10.8260 C   0  0  0  0  0  0  0  0  0  0  0  0
  -26.0844   18.3684   -9.9145 N   0  0  0  0  0  0  0  0  0  0  0  0
  -24.4895   19.9204  -13.6009 C   0  0  0  0  0  0  0  0  0  0  0  0
 16  1  2  0
 17  1  1  0
  2 18  1  0
  2 19  2  0
 20  2  1  0
  3  6  2  0
 21  3  1  0
  3 22  1  0
  5  4  2  0
  4 23  1  0
  6  5  1  0
 18  7  1  0
  7 24  2  0
  9  8  1  0
  9 10  1  0
 13  9  2  0
 11 10  1  0
 12 11  2  0
 12 13  1  0
 16 12  1  0
 13 14  1  0
 14 15  3  0
 19 16  1  0
 18 17  2  0
 20 21  1  0
 20 24  1  0
 22 23  2  0
M  END
$$$$
