
     RDKit          3D

 24 27  0  0  0  0  0  0  0  0999 V2000
  -13.5397    8.2727  -26.2060 C   0  0  0  0  0  0  0  0  0  0  0  0
  -12.7372    9.2974  -28.6074 C   0  0  0  0  0  0  0  0  0  0  0  0
  -10.3163   10.5155  -30.3485 C   0  0  0  0  0  0  0  0  0  0  0  0
   -7.6268   10.1740  -30.3054 C   0  0  0  0  0  0  0  0  0  0  0  0
   -8.1248   11.4511  -30.4263 C   0  0  0  0  0  0  0  0  0  0  0  0
   -9.4919   11.6238  -30.4481 C   0  0  0  0  0  0  0  0  0  0  0  0
  -13.5516    7.6081  -29.8999 C   0  0  0  0  0  0  0  0  0  0  0  0
  -12.6406   10.6379  -21.3503 N   0  0  0  0  0  0  0  0  0  0  0  0
  -12.4898   10.6882  -22.7593 C   0  0  0  0  0  0  0  0  0  0  0  0
  -11.8861   11.6503  -23.4703 N   0  0  0  0  0  0  0  0  0  0  0  0
  -11.9418   11.3532  -24.7544 N   0  0  0  0  0  0  0  0  0  0  0  0
  -12.5834   10.1846  -24.9441 C   0  0  0  0  0  0  0  0  0  0  0  0
  -12.9395    9.7447  -23.6958 C   0  0  0  0  0  0  0  0  0  0  0  0
  -13.6421    8.5462  -23.3231 C   0  0  0  0  0  0  0  0  0  0  0  0
  -14.2105    7.5852  -23.0030 N   0  0  0  0  0  0  0  0  0  0  0  0
  -12.8643    9.4829  -26.2013 C   0  0  0  0  0  0  0  0  0  0  0  0
  -13.8096    7.5897  -27.3686 C   0  0  0  0  0  0  0  0  0  0  0  0
  -13.4131    8.0880  -28.6010 C   0  0  0  0  0  0  0  0  0  0  0  0
  -12.4729    9.9738  -27.4243 C   0  0  0  0  0  0  0  0  0  0  0  0
  -12.4643    9.5547  -29.9055 N   0  0  0  0  0  0  0  0  0  0  0  0
  -11.7605   10.7421  -30.3813 C   0  0  0  0  0  0  0  0  0  0  0  0
   -9.7893    9.2548  -30.2292 C   0  0  0  0  0  0  0  0  0  0  0  0
   -8.4324    9.1093  -30.2099 N   0  0  0  0  0  0  0  0  0  0  0  0
  -12.9464    8.5501  -30.6952 C   0  0  0  0  0  0  0  0  0  0  0  0
 16  1  2  0
 17  1  1  0
  2 18  1  0
  2 19  2  0
 20  2  1  0
  3  6  2  0
 21  3  1  0
  3 22  1  0
  5  4  2  0
  4 23  1  0
  6  5  1  0
 18  7  1  0
  7 24  2  0
  9  8  1  0
  9 10  1  0
 13  9  2  0
 11 10  1  0
 12 11  2  0
 12 13  1  0
 16 12  1  0
 13 14  1  0
 14 15  3  0
 19 16  1  0
 18 17  2  0
 20 21  1  0
 20 24  1  0
 22 23  2  0
M  END
$$$$
