
     RDKit          3D

 18 20  0  0  0  0  0  0  0  0999 V2000
   -3.3843    8.5250  -21.5247 N   0  0  0  0  0  0  0  0  0  0  0  0
   -2.7565    9.0490  -19.5191 N   0  0  0  0  0  0  0  0  0  0  0  0
   -3.3660    7.8578  -19.4284 C   0  0  0  0  0  0  0  0  0  0  0  0
   -3.7546    7.5401  -20.6897 C   0  0  0  0  0  0  0  0  0  0  0  0
   -3.5396    7.1070  -18.1770 C   0  0  0  0  0  0  0  0  0  0  0  0
   -4.4652    6.3086  -21.0506 C   0  0  0  0  0  0  0  0  0  0  0  0
   -4.8107    6.8582  -17.7046 C   0  0  0  0  0  0  0  0  0  0  0  0
   -3.9511    5.6771  -15.7900 C   0  0  0  0  0  0  0  0  0  0  0  0
   -3.6272    8.5474  -22.9745 C   0  0  0  0  0  0  0  0  0  0  0  0
   -6.4210    5.1703  -21.8977 C   0  0  0  0  0  0  0  0  0  0  0  0
   -4.5678    3.9318  -21.2444 C   0  0  0  0  0  0  0  0  0  0  0  0
   -2.7648    9.4593  -20.7911 C   0  0  0  0  0  0  0  0  0  0  0  0
   -5.0201    6.1489  -16.5204 C   0  0  0  0  0  0  0  0  0  0  0  0
   -2.6727    5.9190  -16.2515 C   0  0  0  0  0  0  0  0  0  0  0  0
   -2.4832    6.6272  -17.4333 C   0  0  0  0  0  0  0  0  0  0  0  0
   -5.7483    6.3165  -21.5577 C   0  0  0  0  0  0  0  0  0  0  0  0
   -5.8183    3.9902  -21.7354 N   0  0  0  0  0  0  0  0  0  0  0  0
   -3.8552    5.0682  -20.8892 C   0  0  0  0  0  0  0  0  0  0  0  0
  1  4  1  0
  1  9  1  0
 12  1  1  0
  2  3  1  0
  2 12  2  0
  3  4  2  0
  3  5  1  0
  4  6  1  0
  5  7  2  0
  5 15  1  0
  6 16  1  0
  6 18  2  0
  7 13  1  0
 13  8  2  0
  8 14  1  0
 16 10  2  0
 10 17  1  0
 17 11  2  0
 11 18  1  0
 14 15  2  0
M  END
$$$$
