
     RDKit          3D

 18 20  0  0  0  0  0  0  0  0999 V2000
   -5.5210    8.5145  -22.3221 N   0  0  0  0  0  0  0  0  0  0  0  0
   -5.0868    9.6603  -20.5361 N   0  0  0  0  0  0  0  0  0  0  0  0
   -4.5323    8.4522  -20.3578 C   0  0  0  0  0  0  0  0  0  0  0  0
   -4.8107    7.7439  -21.4819 C   0  0  0  0  0  0  0  0  0  0  0  0
   -3.7866    8.0498  -19.1570 C   0  0  0  0  0  0  0  0  0  0  0  0
   -4.3886    6.3579  -21.7118 C   0  0  0  0  0  0  0  0  0  0  0  0
   -2.4787    7.6310  -19.2779 C   0  0  0  0  0  0  0  0  0  0  0  0
   -2.2959    7.2645  -16.9047 C   0  0  0  0  0  0  0  0  0  0  0  0
   -6.0115    8.1026  -23.6454 C   0  0  0  0  0  0  0  0  0  0  0  0
   -3.0537    4.7252  -22.8909 C   0  0  0  0  0  0  0  0  0  0  0  0
   -4.4979    4.0267  -21.2112 C   0  0  0  0  0  0  0  0  0  0  0  0
   -5.6891    9.7038  -21.7284 C   0  0  0  0  0  0  0  0  0  0  0  0
   -1.7347    7.2403  -18.1630 C   0  0  0  0  0  0  0  0  0  0  0  0
   -3.6048    7.6818  -16.7691 C   0  0  0  0  0  0  0  0  0  0  0  0
   -4.3307    8.0675  -17.8909 C   0  0  0  0  0  0  0  0  0  0  0  0
   -3.4545    6.0182  -22.6685 C   0  0  0  0  0  0  0  0  0  0  0  0
   -3.5835    3.7447  -22.1560 N   0  0  0  0  0  0  0  0  0  0  0  0
   -4.9285    5.3210  -20.9567 C   0  0  0  0  0  0  0  0  0  0  0  0
  1  4  1  0
  1  9  1  0
 12  1  1  0
  2  3  1  0
  2 12  2  0
  3  4  2  0
  3  5  1  0
  4  6  1  0
  5  7  2  0
  5 15  1  0
  6 16  1  0
  6 18  2  0
  7 13  1  0
 13  8  2  0
  8 14  1  0
 16 10  2  0
 10 17  1  0
 17 11  2  0
 11 18  1  0
 14 15  2  0
M  END
$$$$
