
     RDKit          3D

 18 20  0  0  0  0  0  0  0  0999 V2000
    5.4662    7.6783   -8.3159 N   0  0  0  0  0  0  0  0  0  0  0  0
    4.9314    6.1352   -6.8933 N   0  0  0  0  0  0  0  0  0  0  0  0
    4.3670    5.7899   -8.0599 C   0  0  0  0  0  0  0  0  0  0  0  0
    4.7086    6.7630   -8.9425 C   0  0  0  0  0  0  0  0  0  0  0  0
    3.5545    4.5823   -8.2641 C   0  0  0  0  0  0  0  0  0  0  0  0
    4.2986    6.7831  -10.3509 C   0  0  0  0  0  0  0  0  0  0  0  0
    2.6449    4.2043   -7.2996 C   0  0  0  0  0  0  0  0  0  0  0  0
    1.9645    2.2843   -8.5843 C   0  0  0  0  0  0  0  0  0  0  0  0
    6.0314    8.8847   -8.9376 C   0  0  0  0  0  0  0  0  0  0  0  0
    4.8311    6.7026  -12.7063 C   0  0  0  0  0  0  0  0  0  0  0  0
    2.6169    6.9194  -12.0391 C   0  0  0  0  0  0  0  0  0  0  0  0
    5.6008    7.2822   -7.0431 C   0  0  0  0  0  0  0  0  0  0  0  0
    1.8534    3.0646   -7.4540 C   0  0  0  0  0  0  0  0  0  0  0  0
    2.8714    2.6513   -9.5583 C   0  0  0  0  0  0  0  0  0  0  0  0
    3.6515    3.7899   -9.3875 C   0  0  0  0  0  0  0  0  0  0  0  0
    5.2049    6.6845  -11.3865 C   0  0  0  0  0  0  0  0  0  0  0  0
    3.5374    6.8202  -13.0143 N   0  0  0  0  0  0  0  0  0  0  0  0
    2.9554    6.9050  -10.6935 C   0  0  0  0  0  0  0  0  0  0  0  0
  1  4  1  0
  1  9  1  0
 12  1  1  0
  2  3  1  0
  2 12  2  0
  3  4  2  0
  3  5  1  0
  4  6  1  0
  5  7  2  0
  5 15  1  0
  6 16  1  0
  6 18  2  0
  7 13  1  0
 13  8  2  0
  8 14  1  0
 16 10  2  0
 10 17  1  0
 17 11  2  0
 11 18  1  0
 14 15  2  0
M  END
$$$$
