
     RDKit          3D

 18 20  0  0  0  0  0  0  0  0999 V2000
   -3.1698    8.4732  -22.0475 N   0  0  0  0  0  0  0  0  0  0  0  0
   -3.5049    9.2755  -20.0638 N   0  0  0  0  0  0  0  0  0  0  0  0
   -4.0219    8.0380  -20.0665 C   0  0  0  0  0  0  0  0  0  0  0  0
   -3.8063    7.5459  -21.3132 C   0  0  0  0  0  0  0  0  0  0  0  0
   -4.6758    7.4087  -18.9105 C   0  0  0  0  0  0  0  0  0  0  0  0
   -4.2164    6.2092  -21.7569 C   0  0  0  0  0  0  0  0  0  0  0  0
   -3.9814    7.2743  -17.7271 C   0  0  0  0  0  0  0  0  0  0  0  0
   -5.8604    6.2152  -16.6557 C   0  0  0  0  0  0  0  0  0  0  0  0
   -2.7617    8.3140  -23.4509 C   0  0  0  0  0  0  0  0  0  0  0  0
   -3.7505    3.8634  -22.1009 C   0  0  0  0  0  0  0  0  0  0  0  0
   -5.8331    4.7145  -22.6784 C   0  0  0  0  0  0  0  0  0  0  0  0
   -2.9857    9.5453  -21.2654 C   0  0  0  0  0  0  0  0  0  0  0  0
   -4.5651    6.6826  -16.6052 C   0  0  0  0  0  0  0  0  0  0  0  0
   -6.5673    6.3435  -17.8345 C   0  0  0  0  0  0  0  0  0  0  0  0
   -5.9698    6.9356  -18.9420 C   0  0  0  0  0  0  0  0  0  0  0  0
   -3.3762    5.1170  -21.6883 C   0  0  0  0  0  0  0  0  0  0  0  0
   -4.9784    3.6800  -22.5918 N   0  0  0  0  0  0  0  0  0  0  0  0
   -5.4917    5.9964  -22.2716 C   0  0  0  0  0  0  0  0  0  0  0  0
  1  4  1  0
  1  9  1  0
 12  1  1  0
  2  3  1  0
  2 12  2  0
  3  4  2  0
  3  5  1  0
  4  6  1  0
  5  7  2  0
  5 15  1  0
  6 16  1  0
  6 18  2  0
  7 13  1  0
 13  8  2  0
  8 14  1  0
 16 10  2  0
 10 17  1  0
 17 11  2  0
 11 18  1  0
 14 15  2  0
M  END
$$$$
