
     RDKit          3D

 18 20  0  0  0  0  0  0  0  0999 V2000
   -4.3853    9.1194  -23.7297 N   0  0  0  0  0  0  0  0  0  0  0  0
   -6.2471    8.6946  -22.7079 N   0  0  0  0  0  0  0  0  0  0  0  0
   -5.2627    8.3500  -21.8647 C   0  0  0  0  0  0  0  0  0  0  0  0
   -4.1022    8.6203  -22.5152 C   0  0  0  0  0  0  0  0  0  0  0  0
   -5.4766    7.7968  -20.5201 C   0  0  0  0  0  0  0  0  0  0  0  0
   -2.7666    8.3916  -21.9532 C   0  0  0  0  0  0  0  0  0  0  0  0
   -4.8357    8.3670  -19.4408 C   0  0  0  0  0  0  0  0  0  0  0  0
   -5.8367    6.7933  -17.9172 C   0  0  0  0  0  0  0  0  0  0  0  0
   -3.3925    9.5341  -24.7316 C   0  0  0  0  0  0  0  0  0  0  0  0
   -1.0116    6.9021  -21.2187 C   0  0  0  0  0  0  0  0  0  0  0  0
   -0.6980    9.1992  -21.0781 C   0  0  0  0  0  0  0  0  0  0  0  0
   -5.7196    9.1629  -23.8430 C   0  0  0  0  0  0  0  0  0  0  0  0
   -5.0113    7.8725  -18.1470 C   0  0  0  0  0  0  0  0  0  0  0  0
   -6.4848    6.2126  -18.9889 C   0  0  0  0  0  0  0  0  0  0  0  0
   -6.2980    6.7186  -20.2708 C   0  0  0  0  0  0  0  0  0  0  0  0
   -2.2591    7.1259  -21.7438 C   0  0  0  0  0  0  0  0  0  0  0  0
   -0.2465    7.9463  -20.8923 N   0  0  0  0  0  0  0  0  0  0  0  0
   -1.9531    9.4661  -21.6062 C   0  0  0  0  0  0  0  0  0  0  0  0
  1  4  1  0
  1  9  1  0
 12  1  1  0
  2  3  1  0
  2 12  2  0
  3  4  2  0
  3  5  1  0
  4  6  1  0
  5  7  2  0
  5 15  1  0
  6 16  1  0
  6 18  2  0
  7 13  1  0
 13  8  2  0
  8 14  1  0
 16 10  2  0
 10 17  1  0
 17 11  2  0
 11 18  1  0
 14 15  2  0
M  END
$$$$
