
     RDKit          3D

 18 20  0  0  0  0  0  0  0  0999 V2000
   -3.6927    8.4390  -23.6168 N   0  0  0  0  0  0  0  0  0  0  0  0
   -3.5933    9.6217  -21.8050 N   0  0  0  0  0  0  0  0  0  0  0  0
   -3.9486    8.3832  -21.4324 C   0  0  0  0  0  0  0  0  0  0  0  0
   -4.0077    7.6521  -22.5747 C   0  0  0  0  0  0  0  0  0  0  0  0
   -4.2053    7.9753  -20.0440 C   0  0  0  0  0  0  0  0  0  0  0  0
   -4.3630    6.2299  -22.6287 C   0  0  0  0  0  0  0  0  0  0  0  0
   -5.2062    8.5960  -19.3274 C   0  0  0  0  0  0  0  0  0  0  0  0
   -4.7551    7.2486  -17.3830 C   0  0  0  0  0  0  0  0  0  0  0  0
   -3.6456    8.0108  -25.0224 C   0  0  0  0  0  0  0  0  0  0  0  0
   -5.9732    4.4450  -22.3840 C   0  0  0  0  0  0  0  0  0  0  0  0
   -3.7960    3.9446  -23.0201 C   0  0  0  0  0  0  0  0  0  0  0  0
   -3.4364    9.6613  -23.1316 C   0  0  0  0  0  0  0  0  0  0  0  0
   -5.4829    8.2388  -18.0064 C   0  0  0  0  0  0  0  0  0  0  0  0
   -3.7499    6.6186  -18.0890 C   0  0  0  0  0  0  0  0  0  0  0  0
   -3.4883    6.9874  -19.4041 C   0  0  0  0  0  0  0  0  0  0  0  0
   -5.6315    5.7728  -22.3365 C   0  0  0  0  0  0  0  0  0  0  0  0
   -5.0466    3.5470  -22.7265 N   0  0  0  0  0  0  0  0  0  0  0  0
   -3.4122    5.2776  -22.9834 C   0  0  0  0  0  0  0  0  0  0  0  0
  1  4  1  0
  1  9  1  0
 12  1  1  0
  2  3  1  0
  2 12  2  0
  3  4  2  0
  3  5  1  0
  4  6  1  0
  5  7  2  0
  5 15  1  0
  6 16  1  0
  6 18  2  0
  7 13  1  0
 13  8  2  0
  8 14  1  0
 16 10  2  0
 10 17  1  0
 17 11  2  0
 11 18  1  0
 14 15  2  0
M  END
$$$$
