
     RDKit          3D

 18 20  0  0  0  0  0  0  0  0999 V2000
   -3.4382    8.4486  -22.3538 N   0  0  0  0  0  0  0  0  0  0  0  0
   -1.3991    8.7740  -21.7001 N   0  0  0  0  0  0  0  0  0  0  0  0
   -2.0815    8.3546  -20.6244 C   0  0  0  0  0  0  0  0  0  0  0  0
   -3.3564    8.1543  -21.0457 C   0  0  0  0  0  0  0  0  0  0  0  0
   -1.4962    8.1723  -19.2887 C   0  0  0  0  0  0  0  0  0  0  0  0
   -4.4488    7.6899  -20.1838 C   0  0  0  0  0  0  0  0  0  0  0  0
   -0.4698    8.9963  -18.8784 C   0  0  0  0  0  0  0  0  0  0  0  0
   -0.3260    7.8841  -16.7472 C   0  0  0  0  0  0  0  0  0  0  0  0
   -4.6562    8.3566  -23.1719 C   0  0  0  0  0  0  0  0  0  0  0  0
   -6.0773    6.0198  -19.5541 C   0  0  0  0  0  0  0  0  0  0  0  0
   -5.9527    8.0067  -18.3576 C   0  0  0  0  0  0  0  0  0  0  0  0
   -2.2187    8.8329  -22.7541 C   0  0  0  0  0  0  0  0  0  0  0  0
    0.1142    8.8572  -17.6179 C   0  0  0  0  0  0  0  0  0  0  0  0
   -1.3532    7.0521  -17.1452 C   0  0  0  0  0  0  0  0  0  0  0  0
   -1.9231    7.2053  -18.4045 C   0  0  0  0  0  0  0  0  0  0  0  0
   -5.0551    6.4625  -20.3548 C   0  0  0  0  0  0  0  0  0  0  0  0
   -6.5127    6.8016  -18.5634 N   0  0  0  0  0  0  0  0  0  0  0  0
   -4.9175    8.4893  -19.1455 C   0  0  0  0  0  0  0  0  0  0  0  0
  1  4  1  0
  1  9  1  0
 12  1  1  0
  2  3  1  0
  2 12  2  0
  3  4  2  0
  3  5  1  0
  4  6  1  0
  5  7  2  0
  5 15  1  0
  6 16  1  0
  6 18  2  0
  7 13  1  0
 13  8  2  0
  8 14  1  0
 16 10  2  0
 10 17  1  0
 17 11  2  0
 11 18  1  0
 14 15  2  0
M  END
$$$$
