
     RDKit          3D

 18 20  0  0  0  0  0  0  0  0999 V2000
   -2.4190    7.4866  -20.4010 N   0  0  0  0  0  0  0  0  0  0  0  0
   -3.4035    9.1842  -21.3172 N   0  0  0  0  0  0  0  0  0  0  0  0
   -4.2006    8.1253  -21.5224 C   0  0  0  0  0  0  0  0  0  0  0  0
   -3.5740    7.0687  -20.9447 C   0  0  0  0  0  0  0  0  0  0  0  0
   -5.4826    8.1774  -22.2391 C   0  0  0  0  0  0  0  0  0  0  0  0
   -4.1010    5.6998  -20.9336 C   0  0  0  0  0  0  0  0  0  0  0  0
   -5.9051    7.0786  -22.9566 C   0  0  0  0  0  0  0  0  0  0  0  0
   -7.9240    8.2023  -23.6358 C   0  0  0  0  0  0  0  0  0  0  0  0
   -1.4587    6.6346  -19.6844 C   0  0  0  0  0  0  0  0  0  0  0  0
   -5.5896    4.0174  -20.0437 C   0  0  0  0  0  0  0  0  0  0  0  0
   -4.1390    3.4652  -21.7716 C   0  0  0  0  0  0  0  0  0  0  0  0
   -2.3192    8.8018  -20.6360 C   0  0  0  0  0  0  0  0  0  0  0  0
   -7.1161    7.0861  -23.6515 C   0  0  0  0  0  0  0  0  0  0  0  0
   -7.5132    9.3097  -22.9212 C   0  0  0  0  0  0  0  0  0  0  0  0
   -6.3038    9.2842  -22.2350 C   0  0  0  0  0  0  0  0  0  0  0  0
   -5.0906    5.2952  -20.0616 C   0  0  0  0  0  0  0  0  0  0  0  0
   -5.1044    3.1177  -20.9024 N   0  0  0  0  0  0  0  0  0  0  0  0
   -3.6091    4.7467  -21.8204 C   0  0  0  0  0  0  0  0  0  0  0  0
  1  4  1  0
  1  9  1  0
 12  1  1  0
  2  3  1  0
  2 12  2  0
  3  4  2  0
  3  5  1  0
  4  6  1  0
  5  7  2  0
  5 15  1  0
  6 16  1  0
  6 18  2  0
  7 13  1  0
 13  8  2  0
  8 14  1  0
 16 10  2  0
 10 17  1  0
 17 11  2  0
 11 18  1  0
 14 15  2  0
M  END
$$$$
