
     RDKit          3D

 18 20  0  0  0  0  0  0  0  0999 V2000
   -2.3561    8.3336  -21.4914 N   0  0  0  0  0  0  0  0  0  0  0  0
   -2.0504    7.9952  -19.3741 N   0  0  0  0  0  0  0  0  0  0  0  0
   -3.3020    7.5976  -19.6465 C   0  0  0  0  0  0  0  0  0  0  0  0
   -3.4819    7.8143  -20.9745 C   0  0  0  0  0  0  0  0  0  0  0  0
   -4.2335    7.0471  -18.6519 C   0  0  0  0  0  0  0  0  0  0  0  0
   -4.7218    7.5179  -21.7001 C   0  0  0  0  0  0  0  0  0  0  0  0
   -4.9792    5.9304  -18.9644 C   0  0  0  0  0  0  0  0  0  0  0  0
   -6.0364    5.9363  -16.8006 C   0  0  0  0  0  0  0  0  0  0  0  0
   -2.1590    8.7044  -22.9003 C   0  0  0  0  0  0  0  0  0  0  0  0
   -7.0242    8.0160  -22.2379 C   0  0  0  0  0  0  0  0  0  0  0  0
   -5.9851    6.1909  -23.2300 C   0  0  0  0  0  0  0  0  0  0  0  0
   -1.4708    8.4434  -20.4918 C   0  0  0  0  0  0  0  0  0  0  0  0
   -5.8753    5.3754  -18.0489 C   0  0  0  0  0  0  0  0  0  0  0  0
   -5.2958    7.0548  -16.4744 C   0  0  0  0  0  0  0  0  0  0  0  0
   -4.4079    7.5940  -17.3990 C   0  0  0  0  0  0  0  0  0  0  0  0
   -5.8601    8.2854  -21.5638 C   0  0  0  0  0  0  0  0  0  0  0  0
   -7.0696    6.9685  -23.0643 N   0  0  0  0  0  0  0  0  0  0  0  0
   -4.7903    6.4308  -22.5663 C   0  0  0  0  0  0  0  0  0  0  0  0
  1  4  1  0
  1  9  1  0
 12  1  1  0
  2  3  1  0
  2 12  2  0
  3  4  2  0
  3  5  1  0
  4  6  1  0
  5  7  2  0
  5 15  1  0
  6 16  1  0
  6 18  2  0
  7 13  1  0
 13  8  2  0
  8 14  1  0
 16 10  2  0
 10 17  1  0
 17 11  2  0
 11 18  1  0
 14 15  2  0
M  END
$$$$
