
     RDKit          3D

 18 20  0  0  0  0  0  0  0  0999 V2000
   -1.9471    8.0278  -22.0568 N   0  0  0  0  0  0  0  0  0  0  0  0
   -2.3009    8.7487  -20.0453 N   0  0  0  0  0  0  0  0  0  0  0  0
   -3.3312    7.9455  -20.3487 C   0  0  0  0  0  0  0  0  0  0  0  0
   -3.0989    7.5004  -21.6099 C   0  0  0  0  0  0  0  0  0  0  0  0
   -4.4514    7.6538  -19.4432 C   0  0  0  0  0  0  0  0  0  0  0  0
   -3.9852    6.5886  -22.3414 C   0  0  0  0  0  0  0  0  0  0  0  0
   -4.8119    6.3440  -19.2083 C   0  0  0  0  0  0  0  0  0  0  0  0
   -6.5839    7.0174  -17.7230 C   0  0  0  0  0  0  0  0  0  0  0  0
   -1.3563    7.7826  -23.3805 C   0  0  0  0  0  0  0  0  0  0  0  0
   -4.6042    4.3641  -23.0530 C   0  0  0  0  0  0  0  0  0  0  0  0
   -5.8908    6.1795  -23.7192 C   0  0  0  0  0  0  0  0  0  0  0  0
   -1.4565    8.8023  -21.0798 C   0  0  0  0  0  0  0  0  0  0  0  0
   -5.8696    6.0231  -18.3553 C   0  0  0  0  0  0  0  0  0  0  0  0
   -6.2336    8.3335  -17.9491 C   0  0  0  0  0  0  0  0  0  0  0  0
   -5.1771    8.6344  -18.8020 C   0  0  0  0  0  0  0  0  0  0  0  0
   -3.7811    5.2245  -22.3717 C   0  0  0  0  0  0  0  0  0  0  0  0
   -5.6511    4.8564  -23.7193 N   0  0  0  0  0  0  0  0  0  0  0  0
   -5.0819    7.0812  -23.0424 C   0  0  0  0  0  0  0  0  0  0  0  0
  1  4  1  0
  1  9  1  0
 12  1  1  0
  2  3  1  0
  2 12  2  0
  3  4  2  0
  3  5  1  0
  4  6  1  0
  5  7  2  0
  5 15  1  0
  6 16  1  0
  6 18  2  0
  7 13  1  0
 13  8  2  0
  8 14  1  0
 16 10  2  0
 10 17  1  0
 17 11  2  0
 11 18  1  0
 14 15  2  0
M  END
$$$$
