
     RDKit          3D

 18 20  0  0  0  0  0  0  0  0999 V2000
   -2.4706    8.7928  -21.8349 N   0  0  0  0  0  0  0  0  0  0  0  0
   -3.6249    8.7769  -23.6675 N   0  0  0  0  0  0  0  0  0  0  0  0
   -4.4090    8.2441  -22.7189 C   0  0  0  0  0  0  0  0  0  0  0  0
   -3.6759    8.2592  -21.5765 C   0  0  0  0  0  0  0  0  0  0  0  0
   -5.7786    7.7625  -22.9474 C   0  0  0  0  0  0  0  0  0  0  0  0
   -4.1533    7.7632  -20.2810 C   0  0  0  0  0  0  0  0  0  0  0  0
   -6.6331    8.4963  -23.7425 C   0  0  0  0  0  0  0  0  0  0  0  0
   -8.4135    6.9049  -23.4307 C   0  0  0  0  0  0  0  0  0  0  0  0
   -1.3946    8.9802  -20.8509 C   0  0  0  0  0  0  0  0  0  0  0  0
   -4.1231    6.1234  -18.5067 C   0  0  0  0  0  0  0  0  0  0  0  0
   -5.5355    7.9602  -18.3451 C   0  0  0  0  0  0  0  0  0  0  0  0
   -2.4455    9.1123  -23.1358 C   0  0  0  0  0  0  0  0  0  0  0  0
   -7.9418    8.0747  -23.9853 C   0  0  0  0  0  0  0  0  0  0  0  0
   -7.5685    6.1601  -22.6325 C   0  0  0  0  0  0  0  0  0  0  0  0
   -6.2680    6.5955  -22.4016 C   0  0  0  0  0  0  0  0  0  0  0  0
   -3.6828    6.5952  -19.7173 C   0  0  0  0  0  0  0  0  0  0  0  0
   -5.0467    6.8157  -17.8359 N   0  0  0  0  0  0  0  0  0  0  0  0
   -5.1155    8.4696  -19.5656 C   0  0  0  0  0  0  0  0  0  0  0  0
  1  4  1  0
  1  9  1  0
 12  1  1  0
  2  3  1  0
  2 12  2  0
  3  4  2  0
  3  5  1  0
  4  6  1  0
  5  7  2  0
  5 15  1  0
  6 16  1  0
  6 18  2  0
  7 13  1  0
 13  8  2  0
  8 14  1  0
 16 10  2  0
 10 17  1  0
 17 11  2  0
 11 18  1  0
 14 15  2  0
M  END
$$$$
