
     RDKit          3D

 18 20  0  0  0  0  0  0  0  0999 V2000
   -4.7877    8.7678  -22.1364 N   0  0  0  0  0  0  0  0  0  0  0  0
   -2.7618    9.3639  -22.6173 N   0  0  0  0  0  0  0  0  0  0  0  0
   -2.7039    8.7401  -21.4314 C   0  0  0  0  0  0  0  0  0  0  0  0
   -3.9777    8.3717  -21.1407 C   0  0  0  0  0  0  0  0  0  0  0  0
   -1.4696    8.5346  -20.6605 C   0  0  0  0  0  0  0  0  0  0  0  0
   -4.3741    7.6557  -19.9233 C   0  0  0  0  0  0  0  0  0  0  0  0
   -0.5284    9.5404  -20.6040 C   0  0  0  0  0  0  0  0  0  0  0  0
    0.9163    8.2148  -19.2056 C   0  0  0  0  0  0  0  0  0  0  0  0
   -6.2410    8.5517  -22.1878 C   0  0  0  0  0  0  0  0  0  0  0  0
   -4.8483    5.6026  -18.7409 C   0  0  0  0  0  0  0  0  0  0  0  0
   -5.0342    7.6337  -17.6296 C   0  0  0  0  0  0  0  0  0  0  0  0
   -4.0259    9.3835  -23.0504 C   0  0  0  0  0  0  0  0  0  0  0  0
    0.6574    9.3864  -19.8832 C   0  0  0  0  0  0  0  0  0  0  0  0
   -0.0178    7.1993  -19.2536 C   0  0  0  0  0  0  0  0  0  0  0  0
   -1.1934    7.3705  -19.9766 C   0  0  0  0  0  0  0  0  0  0  0  0
   -4.4783    6.2809  -19.8745 C   0  0  0  0  0  0  0  0  0  0  0  0
   -5.1219    6.2918  -17.6308 N   0  0  0  0  0  0  0  0  0  0  0  0
   -4.6636    8.3551  -18.7555 C   0  0  0  0  0  0  0  0  0  0  0  0
  1  4  1  0
  1  9  1  0
 12  1  1  0
  2  3  1  0
  2 12  2  0
  3  4  2  0
  3  5  1  0
  4  6  1  0
  5  7  2  0
  5 15  1  0
  6 16  1  0
  6 18  2  0
  7 13  1  0
 13  8  2  0
  8 14  1  0
 16 10  2  0
 10 17  1  0
 17 11  2  0
 11 18  1  0
 14 15  2  0
M  END
$$$$
