
     RDKit          3D

 18 20  0  0  0  0  0  0  0  0999 V2000
   -3.9629    8.8297  -22.7163 N   0  0  0  0  0  0  0  0  0  0  0  0
   -5.9943    8.0784  -22.7137 N   0  0  0  0  0  0  0  0  0  0  0  0
   -5.4898    7.8167  -21.4989 C   0  0  0  0  0  0  0  0  0  0  0  0
   -4.2181    8.2913  -21.5124 C   0  0  0  0  0  0  0  0  0  0  0  0
   -6.2287    7.1462  -20.4198 C   0  0  0  0  0  0  0  0  0  0  0  0
   -3.2940    8.2128  -20.3758 C   0  0  0  0  0  0  0  0  0  0  0  0
   -6.3157    7.7458  -19.1814 C   0  0  0  0  0  0  0  0  0  0  0  0
   -7.6253    5.9241  -18.3061 C   0  0  0  0  0  0  0  0  0  0  0  0
   -2.6915    9.4482  -23.1194 C   0  0  0  0  0  0  0  0  0  0  0  0
   -1.7801    6.9621  -18.9679 C   0  0  0  0  0  0  0  0  0  0  0  0
   -2.1559    9.2122  -18.5311 C   0  0  0  0  0  0  0  0  0  0  0  0
   -5.0705    8.6941  -23.4578 C   0  0  0  0  0  0  0  0  0  0  0  0
   -7.0078    7.1432  -18.1292 C   0  0  0  0  0  0  0  0  0  0  0  0
   -7.5462    5.3125  -19.5412 C   0  0  0  0  0  0  0  0  0  0  0  0
   -6.8525    5.9275  -20.5778 C   0  0  0  0  0  0  0  0  0  0  0  0
   -2.6457    7.0454  -20.0290 C   0  0  0  0  0  0  0  0  0  0  0  0
   -1.5472    8.0512  -18.2318 N   0  0  0  0  0  0  0  0  0  0  0  0
   -3.0373    9.3362  -19.5956 C   0  0  0  0  0  0  0  0  0  0  0  0
  1  4  1  0
  1  9  1  0
 12  1  1  0
  2  3  1  0
  2 12  2  0
  3  4  2  0
  3  5  1  0
  4  6  1  0
  5  7  2  0
  5 15  1  0
  6 16  1  0
  6 18  2  0
  7 13  1  0
 13  8  2  0
  8 14  1  0
 16 10  2  0
 10 17  1  0
 17 11  2  0
 11 18  1  0
 14 15  2  0
M  END
$$$$
