
     RDKit          3D

 18 20  0  0  0  0  0  0  0  0999 V2000
   -1.8247    8.8580  -21.8760 N   0  0  0  0  0  0  0  0  0  0  0  0
   -3.5470    8.8835  -23.1891 N   0  0  0  0  0  0  0  0  0  0  0  0
   -3.9780    8.4258  -22.0045 C   0  0  0  0  0  0  0  0  0  0  0  0
   -2.8914    8.4142  -21.1908 C   0  0  0  0  0  0  0  0  0  0  0  0
   -5.3660    8.0350  -21.7203 C   0  0  0  0  0  0  0  0  0  0  0  0
   -2.9120    7.9794  -19.7899 C   0  0  0  0  0  0  0  0  0  0  0  0
   -5.6188    6.8339  -21.0925 C   0  0  0  0  0  0  0  0  0  0  0  0
   -7.9955    7.2196  -21.1436 C   0  0  0  0  0  0  0  0  0  0  0  0
   -0.4632    8.9914  -21.3377 C   0  0  0  0  0  0  0  0  0  0  0  0
   -3.6871    8.2237  -17.5145 C   0  0  0  0  0  0  0  0  0  0  0  0
   -2.2121    6.5095  -18.0444 C   0  0  0  0  0  0  0  0  0  0  0  0
   -2.2389    9.1478  -23.1168 C   0  0  0  0  0  0  0  0  0  0  0  0
   -6.9222    6.4249  -20.8041 C   0  0  0  0  0  0  0  0  0  0  0  0
   -7.7567    8.4250  -21.7726 C   0  0  0  0  0  0  0  0  0  0  0  0
   -6.4517    8.8163  -22.0520 C   0  0  0  0  0  0  0  0  0  0  0  0
   -3.6617    8.6226  -18.8268 C   0  0  0  0  0  0  0  0  0  0  0  0
   -2.9590    7.1688  -17.1413 N   0  0  0  0  0  0  0  0  0  0  0  0
   -2.1603    6.8823  -19.3800 C   0  0  0  0  0  0  0  0  0  0  0  0
  1  4  1  0
  1  9  1  0
 12  1  1  0
  2  3  1  0
  2 12  2  0
  3  4  2  0
  3  5  1  0
  4  6  1  0
  5  7  2  0
  5 15  1  0
  6 16  1  0
  6 18  2  0
  7 13  1  0
 13  8  2  0
  8 14  1  0
 16 10  2  0
 10 17  1  0
 17 11  2  0
 11 18  1  0
 14 15  2  0
M  END
$$$$
