
     RDKit          3D

 18 20  0  0  0  0  0  0  0  0999 V2000
   -3.3160    8.3908  -22.1449 N   0  0  0  0  0  0  0  0  0  0  0  0
   -3.4356    9.2638  -20.1664 N   0  0  0  0  0  0  0  0  0  0  0  0
   -3.7975    7.9787  -20.0382 C   0  0  0  0  0  0  0  0  0  0  0  0
   -3.7189    7.4427  -21.2829 C   0  0  0  0  0  0  0  0  0  0  0  0
   -4.1880    7.3486  -18.7692 C   0  0  0  0  0  0  0  0  0  0  0  0
   -4.0318    6.0456  -21.6028 C   0  0  0  0  0  0  0  0  0  0  0  0
   -5.4175    6.7335  -18.6660 C   0  0  0  0  0  0  0  0  0  0  0  0
   -5.0048    6.1214  -16.3736 C   0  0  0  0  0  0  0  0  0  0  0  0
   -3.1117    8.1972  -23.5879 C   0  0  0  0  0  0  0  0  0  0  0  0
   -3.5321    3.6855  -21.4672 C   0  0  0  0  0  0  0  0  0  0  0  0
   -5.4060    4.3941  -22.6425 C   0  0  0  0  0  0  0  0  0  0  0  0
   -3.1418    9.5197  -21.4448 C   0  0  0  0  0  0  0  0  0  0  0  0
   -5.8274    6.1230  -17.4791 C   0  0  0  0  0  0  0  0  0  0  0  0
   -3.7707    6.7337  -16.4631 C   0  0  0  0  0  0  0  0  0  0  0  0
   -3.3791    7.3367  -17.6535 C   0  0  0  0  0  0  0  0  0  0  0  0
   -3.2478    4.9949  -21.1729 C   0  0  0  0  0  0  0  0  0  0  0  0
   -4.6114    3.4034  -22.2006 N   0  0  0  0  0  0  0  0  0  0  0  0
   -5.1519    5.7299  -22.3659 C   0  0  0  0  0  0  0  0  0  0  0  0
  1  4  1  0
  1  9  1  0
 12  1  1  0
  2  3  1  0
  2 12  2  0
  3  4  2  0
  3  5  1  0
  4  6  1  0
  5  7  2  0
  5 15  1  0
  6 16  1  0
  6 18  2  0
  7 13  1  0
 13  8  2  0
  8 14  1  0
 16 10  2  0
 10 17  1  0
 17 11  2  0
 11 18  1  0
 14 15  2  0
M  END
$$$$
