
     RDKit          3D

 18 20  0  0  0  0  0  0  0  0999 V2000
   -9.5911   11.2778  -25.8167 N   0  0  0  0  0  0  0  0  0  0  0  0
  -11.3628   11.4476  -27.0509 N   0  0  0  0  0  0  0  0  0  0  0  0
  -10.7919   12.6612  -27.0350 C   0  0  0  0  0  0  0  0  0  0  0  0
   -9.6841   12.5426  -26.2595 C   0  0  0  0  0  0  0  0  0  0  0  0
  -11.3199   13.8366  -27.7419 C   0  0  0  0  0  0  0  0  0  0  0  0
   -8.7561   13.6411  -25.9697 C   0  0  0  0  0  0  0  0  0  0  0  0
  -12.6282   14.2207  -27.5388 C   0  0  0  0  0  0  0  0  0  0  0  0
  -12.4006   16.0747  -29.0589 C   0  0  0  0  0  0  0  0  0  0  0  0
   -8.5254   10.7567  -24.9484 C   0  0  0  0  0  0  0  0  0  0  0  0
   -6.5776   14.6696  -26.1564 C   0  0  0  0  0  0  0  0  0  0  0  0
   -8.2554   15.7479  -24.9658 C   0  0  0  0  0  0  0  0  0  0  0  0
  -10.6371   10.6029  -26.3120 C   0  0  0  0  0  0  0  0  0  0  0  0
  -13.1692   15.3308  -28.1901 C   0  0  0  0  0  0  0  0  0  0  0  0
  -11.0887   15.7013  -29.2715 C   0  0  0  0  0  0  0  0  0  0  0  0
  -10.5667   14.5926  -28.6140 C   0  0  0  0  0  0  0  0  0  0  0  0
   -7.4528   13.6471  -26.4223 C   0  0  0  0  0  0  0  0  0  0  0  0
   -6.9936   15.7090  -25.4291 N   0  0  0  0  0  0  0  0  0  0  0  0
   -9.1695   14.7337  -25.2135 C   0  0  0  0  0  0  0  0  0  0  0  0
  1  4  1  0
  1  9  1  0
 12  1  1  0
  2  3  1  0
  2 12  2  0
  3  4  2  0
  3  5  1  0
  4  6  1  0
  5  7  2  0
  5 15  1  0
  6 16  1  0
  6 18  2  0
  7 13  1  0
 13  8  2  0
  8 14  1  0
 16 10  2  0
 10 17  1  0
 17 11  2  0
 11 18  1  0
 14 15  2  0
M  END
$$$$
