
     RDKit          3D

 18 20  0  0  0  0  0  0  0  0999 V2000
   -4.1723    8.8056  -21.9467 N   0  0  0  0  0  0  0  0  0  0  0  0
   -3.1143    9.5135  -20.1944 N   0  0  0  0  0  0  0  0  0  0  0  0
   -3.6300    8.3184  -19.8710 C   0  0  0  0  0  0  0  0  0  0  0  0
   -4.2899    7.8852  -20.9754 C   0  0  0  0  0  0  0  0  0  0  0  0
   -3.4693    7.6716  -18.5612 C   0  0  0  0  0  0  0  0  0  0  0  0
   -5.0084    6.6092  -21.0620 C   0  0  0  0  0  0  0  0  0  0  0  0
   -4.5165    6.9525  -18.0254 C   0  0  0  0  0  0  0  0  0  0  0  0
   -3.2365    6.4061  -16.0600 C   0  0  0  0  0  0  0  0  0  0  0  0
   -4.7508    8.6991  -23.2941 C   0  0  0  0  0  0  0  0  0  0  0  0
   -5.0230    4.1936  -21.1163 C   0  0  0  0  0  0  0  0  0  0  0  0
   -7.0299    5.3547  -21.2550 C   0  0  0  0  0  0  0  0  0  0  0  0
   -3.4408    9.8146  -21.4550 C   0  0  0  0  0  0  0  0  0  0  0  0
   -4.4057    6.3226  -16.7844 C   0  0  0  0  0  0  0  0  0  0  0  0
   -2.1798    7.1230  -16.5847 C   0  0  0  0  0  0  0  0  0  0  0  0
   -2.3081    7.7439  -17.8225 C   0  0  0  0  0  0  0  0  0  0  0  0
   -4.3598    5.3919  -21.0358 C   0  0  0  0  0  0  0  0  0  0  0  0
   -6.3535    4.1929  -21.2252 N   0  0  0  0  0  0  0  0  0  0  0  0
   -6.3952    6.5862  -21.1760 C   0  0  0  0  0  0  0  0  0  0  0  0
  1  4  1  0
  1  9  1  0
 12  1  1  0
  2  3  1  0
  2 12  2  0
  3  4  2  0
  3  5  1  0
  4  6  1  0
  5  7  2  0
  5 15  1  0
  6 16  1  0
  6 18  2  0
  7 13  1  0
 13  8  2  0
  8 14  1  0
 16 10  2  0
 10 17  1  0
 17 11  2  0
 11 18  1  0
 14 15  2  0
M  END
$$$$
