
     RDKit          3D

 18 20  0  0  0  0  0  0  0  0999 V2000
   -5.0822    6.6934  -23.6686 N   0  0  0  0  0  0  0  0  0  0  0  0
   -6.6208    6.4885  -22.1582 N   0  0  0  0  0  0  0  0  0  0  0  0
   -5.4986    6.8403  -21.5134 C   0  0  0  0  0  0  0  0  0  0  0  0
   -4.5426    6.9656  -22.4690 C   0  0  0  0  0  0  0  0  0  0  0  0
   -5.4018    7.0331  -20.0597 C   0  0  0  0  0  0  0  0  0  0  0  0
   -3.1498    7.3400  -22.2011 C   0  0  0  0  0  0  0  0  0  0  0  0
   -5.9352    6.0861  -19.2116 C   0  0  0  0  0  0  0  0  0  0  0  0
   -5.2550    7.3330  -17.2668 C   0  0  0  0  0  0  0  0  0  0  0  0
   -4.3636    6.7224  -24.9509 C   0  0  0  0  0  0  0  0  0  0  0  0
   -1.3403    8.9393  -22.2817 C   0  0  0  0  0  0  0  0  0  0  0  0
   -0.9717    6.8376  -21.3642 C   0  0  0  0  0  0  0  0  0  0  0  0
   -6.3735    6.3978  -23.4684 C   0  0  0  0  0  0  0  0  0  0  0  0
   -5.8648    6.2304  -17.8247 C   0  0  0  0  0  0  0  0  0  0  0  0
   -4.7166    8.2892  -18.1044 C   0  0  0  0  0  0  0  0  0  0  0  0
   -4.7959    8.1287  -19.4835 C   0  0  0  0  0  0  0  0  0  0  0  0
   -2.6413    8.5802  -22.5280 C   0  0  0  0  0  0  0  0  0  0  0  0
   -0.5215    8.0591  -21.7011 N   0  0  0  0  0  0  0  0  0  0  0  0
   -2.2798    6.4374  -21.5968 C   0  0  0  0  0  0  0  0  0  0  0  0
  1  4  1  0
  1  9  1  0
 12  1  1  0
  2  3  1  0
  2 12  2  0
  3  4  2  0
  3  5  1  0
  4  6  1  0
  5  7  2  0
  5 15  1  0
  6 16  1  0
  6 18  2  0
  7 13  1  0
 13  8  2  0
  8 14  1  0
 16 10  2  0
 10 17  1  0
 17 11  2  0
 11 18  1  0
 14 15  2  0
M  END
$$$$
