
     RDKit          3D

 18 20  0  0  0  0  0  0  0  0999 V2000
   -4.6474    8.6526  -22.7605 N   0  0  0  0  0  0  0  0  0  0  0  0
   -6.5711    7.8615  -22.1570 N   0  0  0  0  0  0  0  0  0  0  0  0
   -5.7206    7.6024  -21.1528 C   0  0  0  0  0  0  0  0  0  0  0  0
   -4.5200    8.1021  -21.5420 C   0  0  0  0  0  0  0  0  0  0  0  0
   -6.0897    6.9110  -19.9095 C   0  0  0  0  0  0  0  0  0  0  0  0
   -3.2959    8.0348  -20.7362 C   0  0  0  0  0  0  0  0  0  0  0  0
   -5.6846    7.4292  -18.6979 C   0  0  0  0  0  0  0  0  0  0  0  0
   -6.7574    5.6441  -17.4886 C   0  0  0  0  0  0  0  0  0  0  0  0
   -3.5665    9.2984  -23.5195 C   0  0  0  0  0  0  0  0  0  0  0  0
   -1.4508    6.7877  -19.7992 C   0  0  0  0  0  0  0  0  0  0  0  0
   -1.6316    9.0630  -19.3687 C   0  0  0  0  0  0  0  0  0  0  0  0
   -5.9241    8.4997  -23.1368 C   0  0  0  0  0  0  0  0  0  0  0  0
   -6.0136    6.8040  -17.4936 C   0  0  0  0  0  0  0  0  0  0  0  0
   -7.1698    5.1142  -18.6949 C   0  0  0  0  0  0  0  0  0  0  0  0
   -6.8328    5.7506  -19.8846 C   0  0  0  0  0  0  0  0  0  0  0  0
   -2.5960    6.8604  -20.5509 C   0  0  0  0  0  0  0  0  0  0  0  0
   -0.9837    7.8945  -19.2169 N   0  0  0  0  0  0  0  0  0  0  0  0
   -2.7922    9.1768  -20.1208 C   0  0  0  0  0  0  0  0  0  0  0  0
  1  4  1  0
  1  9  1  0
 12  1  1  0
  2  3  1  0
  2 12  2  0
  3  4  2  0
  3  5  1  0
  4  6  1  0
  5  7  2  0
  5 15  1  0
  6 16  1  0
  6 18  2  0
  7 13  1  0
 13  8  2  0
  8 14  1  0
 16 10  2  0
 10 17  1  0
 17 11  2  0
 11 18  1  0
 14 15  2  0
M  END
$$$$
