
     RDKit          3D

 20 20  0  0  0  0  0  0  0  0999 V2000
   18.3765   -7.7693   13.8368 C   0  0  0  0  0  0  0  0  0  0  0  0
   18.0206   -6.4098   14.3219 C   0  0  0  0  0  0  0  0  0  0  0  0
   16.8347   -6.1661   14.6389 O   0  0  0  0  0  0  0  0  0  0  0  0
   18.9692   -5.3561   14.4469 N   0  0  0  0  0  0  0  0  0  0  0  0
   18.6698   -4.2033   15.2422 C   0  0  0  0  0  0  0  0  0  0  0  0
   17.9380   -4.3468   16.3882 C   0  0  0  0  0  0  0  0  0  0  0  0
   19.0935   -2.9385   14.8974 C   0  0  0  0  0  0  0  0  0  0  0  0
   18.8152   -1.8284   15.6451 C   0  0  0  0  0  0  0  0  0  0  0  0
   18.0618   -2.0006   16.8163 C   0  0  0  0  0  0  0  0  0  0  0  0
   17.6641   -0.5379   17.7140 Cl  0  0  0  0  0  0  0  0  0  0  0  0
   17.6247   -3.2396   17.1936 C   0  0  0  0  0  0  0  0  0  0  0  0
   16.7513   -3.4551   18.6803 S   0  0  1  0  0  6  0  0  0  0  0  0
   17.1684   -4.8106   19.2720 O   0  0  0  0  0  0  0  0  0  0  0  0
   17.2790   -2.4049   19.6506 O   0  0  0  0  0  0  0  0  0  0  0  0
   15.0903   -3.2903   18.5995 N   0  0  0  0  0  0  0  0  0  0  0  0
   14.5124   -2.0261   18.4404 C   0  0  0  0  0  0  0  0  0  0  0  0
   14.4083   -4.3926   17.9357 C   0  0  0  0  0  0  0  0  0  0  0  0
   12.9532   -4.0353   17.8950 C   0  0  0  0  0  0  0  0  0  0  0  0
   12.1621   -5.1563   17.8558 O   0  0  0  0  0  0  0  0  0  0  0  0
   10.9916   -4.9579   18.5603 C   0  0  0  0  0  0  0  0  0  0  0  0
  1  2  1  0
  2  3  2  0
  2  4  1  0
  4  5  1  0
  5  6  2  0
  5  7  1  0
  6 11  1  0
  7  8  2  0
  8  9  1  0
  9 10  1  0
  9 11  2  0
 11 12  1  0
 12 13  2  0
 12 14  2  0
 12 15  1  6
 15 16  1  0
 15 17  1  0
 17 18  1  0
 18 19  1  0
 19 20  1  0
M  END
$$$$
