
     RDKit          3D

 20 20  0  0  0  0  0  0  0  0999 V2000
   18.7958   -7.5367   14.2797 C   0  0  0  0  0  0  0  0  0  0  0  0
   18.4382   -6.1500   14.6787 C   0  0  0  0  0  0  0  0  0  0  0  0
   17.2355   -5.8606   14.8684 O   0  0  0  0  0  0  0  0  0  0  0  0
   19.4035   -5.1196   14.8590 N   0  0  0  0  0  0  0  0  0  0  0  0
   19.0669   -3.9314   15.5840 C   0  0  0  0  0  0  0  0  0  0  0  0
   17.9232   -3.9000   16.3327 C   0  0  0  0  0  0  0  0  0  0  0  0
   19.8568   -2.8029   15.5591 C   0  0  0  0  0  0  0  0  0  0  0  0
   19.5489   -1.6610   16.2447 C   0  0  0  0  0  0  0  0  0  0  0  0
   18.3697   -1.6525   17.0052 C   0  0  0  0  0  0  0  0  0  0  0  0
   17.9716   -0.1400   17.8162 Cl  0  0  0  0  0  0  0  0  0  0  0  0
   17.5603   -2.7527   17.0571 C   0  0  0  0  0  0  0  0  0  0  0  0
   16.1378   -2.7587   18.0552 S   0  0  1  0  0  6  0  0  0  0  0  0
   16.1483   -4.0606   18.8714 O   0  0  0  0  0  0  0  0  0  0  0  0
   16.3151   -1.6367   19.0713 O   0  0  0  0  0  0  0  0  0  0  0  0
   14.6793   -2.5189   17.2755 N   0  0  0  0  0  0  0  0  0  0  0  0
   13.6332   -3.4339   17.4359 C   0  0  0  0  0  0  0  0  0  0  0  0
   14.2911   -1.1215   17.1428 C   0  0  0  0  0  0  0  0  0  0  0  0
   12.8426   -1.0405   17.5199 C   0  0  0  0  0  0  0  0  0  0  0  0
   12.5084    0.2157   17.9608 O   0  0  0  0  0  0  0  0  0  0  0  0
   11.6517    0.8369   17.0743 C   0  0  0  0  0  0  0  0  0  0  0  0
  1  2  1  0
  2  3  2  0
  2  4  1  0
  4  5  1  0
  5  6  2  0
  5  7  1  0
  6 11  1  0
  7  8  2  0
  8  9  1  0
  9 10  1  0
  9 11  2  0
 11 12  1  0
 12 13  2  0
 12 14  2  0
 12 15  1  6
 15 16  1  0
 15 17  1  0
 17 18  1  0
 18 19  1  0
 19 20  1  0
M  END
$$$$
