
     RDKit          3D

 20 20  0  0  0  0  0  0  0  0999 V2000
   18.3036   -7.2018   13.5350 C   0  0  0  0  0  0  0  0  0  0  0  0
   17.9462   -5.9306   14.2180 C   0  0  0  0  0  0  0  0  0  0  0  0
   16.8283   -5.8285   14.7712 O   0  0  0  0  0  0  0  0  0  0  0  0
   18.8192   -4.8080   14.2773 N   0  0  0  0  0  0  0  0  0  0  0  0
   18.7615   -3.9041   15.3867 C   0  0  0  0  0  0  0  0  0  0  0  0
   17.6505   -3.8853   16.1834 C   0  0  0  0  0  0  0  0  0  0  0  0
   19.7915   -3.0409   15.6897 C   0  0  0  0  0  0  0  0  0  0  0  0
   19.7513   -2.1718   16.7442 C   0  0  0  0  0  0  0  0  0  0  0  0
   18.6003   -2.1701   17.5468 C   0  0  0  0  0  0  0  0  0  0  0  0
   18.5572   -0.9873   18.8518 Cl  0  0  0  0  0  0  0  0  0  0  0  0
   17.5576   -3.0128   17.2802 C   0  0  0  0  0  0  0  0  0  0  0  0
   16.1649   -3.0536   18.3185 S   0  0  1  0  0  6  0  0  0  0  0  0
   16.5586   -2.3957   19.6503 O   0  0  0  0  0  0  0  0  0  0  0  0
   15.1296   -2.1260   17.6937 O   0  0  0  0  0  0  0  0  0  0  0  0
   15.4470   -4.5458   18.5440 N   0  0  0  0  0  0  0  0  0  0  0  0
   14.4760   -4.7203   19.5362 C   0  0  0  0  0  0  0  0  0  0  0  0
   15.2549   -5.3116   17.3204 C   0  0  0  0  0  0  0  0  0  0  0  0
   14.7846   -6.6731   17.7352 C   0  0  0  0  0  0  0  0  0  0  0  0
   14.8152   -7.5562   16.6848 O   0  0  0  0  0  0  0  0  0  0  0  0
   15.4206   -8.7404   17.0546 C   0  0  0  0  0  0  0  0  0  0  0  0
  1  2  1  0
  2  3  2  0
  2  4  1  0
  4  5  1  0
  5  6  2  0
  5  7  1  0
  6 11  1  0
  7  8  2  0
  8  9  1  0
  9 10  1  0
  9 11  2  0
 11 12  1  0
 12 13  2  0
 12 14  2  0
 12 15  1  1
 15 16  1  0
 15 17  1  0
 17 18  1  0
 18 19  1  0
 19 20  1  0
M  END
$$$$
