
     RDKit          3D

 20 20  0  0  0  0  0  0  0  0999 V2000
   18.1885   -7.5015   13.4444 C   0  0  0  0  0  0  0  0  0  0  0  0
   17.7426   -6.4609   14.4079 C   0  0  0  0  0  0  0  0  0  0  0  0
   18.0715   -5.2690   14.2144 O   0  0  0  0  0  0  0  0  0  0  0  0
   16.9508   -6.7513   15.5545 N   0  0  0  0  0  0  0  0  0  0  0  0
   16.6746   -5.7310   16.5207 C   0  0  0  0  0  0  0  0  0  0  0  0
   17.4727   -4.6222   16.5767 C   0  0  0  0  0  0  0  0  0  0  0  0
   15.6248   -5.8200   17.4084 C   0  0  0  0  0  0  0  0  0  0  0  0
   15.3486   -4.8553   18.3368 C   0  0  0  0  0  0  0  0  0  0  0  0
   16.1822   -3.7273   18.3758 C   0  0  0  0  0  0  0  0  0  0  0  0
   15.8369   -2.5412   19.6320 Cl  0  0  0  0  0  0  0  0  0  0  0  0
   17.2329   -3.6009   17.5106 C   0  0  0  0  0  0  0  0  0  0  0  0
   18.2190   -2.1702   17.5188 S   0  0  1  0  0  6  0  0  0  0  0  0
   18.8175   -2.0263   18.9268 O   0  0  0  0  0  0  0  0  0  0  0  0
   19.4006   -2.4515   16.5983 O   0  0  0  0  0  0  0  0  0  0  0  0
   17.4892   -0.7591   17.0002 N   0  0  0  0  0  0  0  0  0  0  0  0
   18.0038    0.4846   17.3824 C   0  0  0  0  0  0  0  0  0  0  0  0
   16.9236   -0.8321   15.6602 C   0  0  0  0  0  0  0  0  0  0  0  0
   15.7155    0.0553   15.6551 C   0  0  0  0  0  0  0  0  0  0  0  0
   16.0129    1.3051   15.1716 O   0  0  0  0  0  0  0  0  0  0  0  0
   15.1467    1.6594   14.1568 C   0  0  0  0  0  0  0  0  0  0  0  0
  1  2  1  0
  2  3  2  0
  2  4  1  0
  4  5  1  0
  5  6  2  0
  5  7  1  0
  6 11  1  0
  7  8  2  0
  8  9  1  0
  9 10  1  0
  9 11  2  0
 11 12  1  0
 12 13  2  0
 12 14  2  0
 12 15  1  6
 15 16  1  0
 15 17  1  0
 17 18  1  0
 18 19  1  0
 19 20  1  0
M  END
$$$$
