
     RDKit          3D

 20 20  0  0  0  0  0  0  0  0999 V2000
   18.4878   -7.6279   12.9722 C   0  0  0  0  0  0  0  0  0  0  0  0
   17.9431   -6.5599   13.8513 C   0  0  0  0  0  0  0  0  0  0  0  0
   18.4093   -5.4017   13.7649 O   0  0  0  0  0  0  0  0  0  0  0  0
   16.9057   -6.7869   14.7989 N   0  0  0  0  0  0  0  0  0  0  0  0
   16.5668   -5.7777   15.7568 C   0  0  0  0  0  0  0  0  0  0  0  0
   17.4707   -4.7938   16.0473 C   0  0  0  0  0  0  0  0  0  0  0  0
   15.3526   -5.7555   16.4073 C   0  0  0  0  0  0  0  0  0  0  0  0
   15.0146   -4.7999   17.3246 C   0  0  0  0  0  0  0  0  0  0  0  0
   15.9588   -3.8011   17.6068 C   0  0  0  0  0  0  0  0  0  0  0  0
   15.5138   -2.6300   18.8454 Cl  0  0  0  0  0  0  0  0  0  0  0  0
   17.1740   -3.7873   16.9811 C   0  0  0  0  0  0  0  0  0  0  0  0
   18.3113   -2.5090   17.2844 S   0  0  1  0  0  6  0  0  0  0  0  0
   18.2809   -2.2078   18.7909 O   0  0  0  0  0  0  0  0  0  0  0  0
   19.6955   -3.0844   17.0096 O   0  0  0  0  0  0  0  0  0  0  0  0
   18.1393   -1.1246   16.3642 N   0  0  0  0  0  0  0  0  0  0  0  0
   18.4634   -1.1357   15.0032 C   0  0  0  0  0  0  0  0  0  0  0  0
   17.0119   -0.2854   16.7457 C   0  0  0  0  0  0  0  0  0  0  0  0
   17.1376    0.9854   15.9607 C   0  0  0  0  0  0  0  0  0  0  0  0
   16.2797    1.9502   16.4271 O   0  0  0  0  0  0  0  0  0  0  0  0
   16.3341    3.0809   15.6371 C   0  0  0  0  0  0  0  0  0  0  0  0
  1  2  1  0
  2  3  2  0
  2  4  1  0
  4  5  1  0
  5  6  2  0
  5  7  1  0
  6 11  1  0
  7  8  2  0
  8  9  1  0
  9 10  1  0
  9 11  2  0
 11 12  1  0
 12 13  2  0
 12 14  2  0
 12 15  1  6
 15 16  1  0
 15 17  1  0
 17 18  1  0
 18 19  1  0
 19 20  1  0
M  END
$$$$
