
     RDKit          3D

 20 20  0  0  0  0  0  0  0  0999 V2000
   18.7892   -7.2924   13.2758 C   0  0  0  0  0  0  0  0  0  0  0  0
   18.0439   -6.5102   14.2970 C   0  0  0  0  0  0  0  0  0  0  0  0
   18.0234   -5.2616   14.2140 O   0  0  0  0  0  0  0  0  0  0  0  0
   17.3428   -7.1133   15.3789 N   0  0  0  0  0  0  0  0  0  0  0  0
   16.8330   -6.3094   16.4489 C   0  0  0  0  0  0  0  0  0  0  0  0
   17.3412   -5.0563   16.6514 C   0  0  0  0  0  0  0  0  0  0  0  0
   15.8389   -6.7506   17.2946 C   0  0  0  0  0  0  0  0  0  0  0  0
   15.3425   -5.9959   18.3207 C   0  0  0  0  0  0  0  0  0  0  0  0
   15.8804   -4.7137   18.5094 C   0  0  0  0  0  0  0  0  0  0  0  0
   15.2650   -3.8007   19.8846 Cl  0  0  0  0  0  0  0  0  0  0  0  0
   16.8665   -4.2390   17.6904 C   0  0  0  0  0  0  0  0  0  0  0  0
   17.4796   -2.6250   17.8870 S   0  0  1  0  0  6  0  0  0  0  0  0
   17.9498   -2.4806   19.3428 O   0  0  0  0  0  0  0  0  0  0  0  0
   18.7418   -2.5331   17.0379 O   0  0  0  0  0  0  0  0  0  0  0  0
   16.4622   -1.3805   17.4300 N   0  0  0  0  0  0  0  0  0  0  0  0
   16.5667   -0.1235   18.0354 C   0  0  0  0  0  0  0  0  0  0  0  0
   16.1075   -1.3818   16.0175 C   0  0  0  0  0  0  0  0  0  0  0  0
   15.9403    0.0525   15.6154 C   0  0  0  0  0  0  0  0  0  0  0  0
   16.4370    0.2819   14.3565 O   0  0  0  0  0  0  0  0  0  0  0  0
   16.9828    1.5467   14.2654 C   0  0  0  0  0  0  0  0  0  0  0  0
  1  2  1  0
  2  3  2  0
  2  4  1  0
  4  5  1  0
  5  6  2  0
  5  7  1  0
  6 11  1  0
  7  8  2  0
  8  9  1  0
  9 10  1  0
  9 11  2  0
 11 12  1  0
 12 13  2  0
 12 14  2  0
 12 15  1  6
 15 16  1  0
 15 17  1  0
 17 18  1  0
 18 19  1  0
 19 20  1  0
M  END
$$$$
