
     RDKit          3D

 20 20  0  0  0  0  0  0  0  0999 V2000
   18.2681   -7.2625   13.6324 C   0  0  0  0  0  0  0  0  0  0  0  0
   18.0005   -5.9601   14.2974 C   0  0  0  0  0  0  0  0  0  0  0  0
   16.9152   -5.7931   14.8977 O   0  0  0  0  0  0  0  0  0  0  0  0
   18.9250   -4.8779   14.2878 N   0  0  0  0  0  0  0  0  0  0  0  0
   18.8204   -3.8281   15.2562 C   0  0  0  0  0  0  0  0  0  0  0  0
   17.7510   -3.8009   16.1078 C   0  0  0  0  0  0  0  0  0  0  0  0
   19.7641   -2.8306   15.3682 C   0  0  0  0  0  0  0  0  0  0  0  0
   19.6782   -1.8215   16.2864 C   0  0  0  0  0  0  0  0  0  0  0  0
   18.5713   -1.8142   17.1487 C   0  0  0  0  0  0  0  0  0  0  0  0
   18.4600   -0.4592   18.2691 Cl  0  0  0  0  0  0  0  0  0  0  0  0
   17.6144   -2.7873   17.0704 C   0  0  0  0  0  0  0  0  0  0  0  0
   16.2826   -2.8107   18.1863 S   0  0  1  0  0  6  0  0  0  0  0  0
   16.8001   -2.2955   19.5384 O   0  0  0  0  0  0  0  0  0  0  0  0
   15.2902   -1.7609   17.7007 O   0  0  0  0  0  0  0  0  0  0  0  0
   15.4634   -4.2593   18.3388 N   0  0  0  0  0  0  0  0  0  0  0  0
   15.0287   -4.6967   19.5947 C   0  0  0  0  0  0  0  0  0  0  0  0
   14.5950   -4.5801   17.2147 C   0  0  0  0  0  0  0  0  0  0  0  0
   14.1094   -5.9813   17.4333 C   0  0  0  0  0  0  0  0  0  0  0  0
   13.5300   -6.4942   16.2996 O   0  0  0  0  0  0  0  0  0  0  0  0
   13.9119   -7.8059   16.1017 C   0  0  0  0  0  0  0  0  0  0  0  0
  1  2  1  0
  2  3  2  0
  2  4  1  0
  4  5  1  0
  5  6  2  0
  5  7  1  0
  6 11  1  0
  7  8  2  0
  8  9  1  0
  9 10  1  0
  9 11  2  0
 11 12  1  0
 12 13  2  0
 12 14  2  0
 12 15  1  1
 15 16  1  0
 15 17  1  0
 17 18  1  0
 18 19  1  0
 19 20  1  0
M  END
$$$$
