
     RDKit          3D

 20 20  0  0  0  0  0  0  0  0999 V2000
   18.4557   -6.9757   13.0122 C   0  0  0  0  0  0  0  0  0  0  0  0
   18.0493   -5.8006   13.8272 C   0  0  0  0  0  0  0  0  0  0  0  0
   17.0637   -5.8999   14.5920 O   0  0  0  0  0  0  0  0  0  0  0  0
   18.7303   -4.5515   13.7837 N   0  0  0  0  0  0  0  0  0  0  0  0
   18.7002   -3.6711   14.9128 C   0  0  0  0  0  0  0  0  0  0  0  0
   17.5662   -3.5877   15.6722 C   0  0  0  0  0  0  0  0  0  0  0  0
   19.7795   -2.8938   15.2716 C   0  0  0  0  0  0  0  0  0  0  0  0
   19.7661   -2.0480   16.3456 C   0  0  0  0  0  0  0  0  0  0  0  0
   18.5909   -1.9789   17.1091 C   0  0  0  0  0  0  0  0  0  0  0  0
   18.5888   -0.8258   18.4411 Cl  0  0  0  0  0  0  0  0  0  0  0  0
   17.4991   -2.7356   16.7867 C   0  0  0  0  0  0  0  0  0  0  0  0
   16.0715   -2.6963   17.7766 S   0  0  1  0  0  6  0  0  0  0  0  0
   16.1647   -1.4549   18.6775 O   0  0  0  0  0  0  0  0  0  0  0  0
   14.8993   -2.4344   16.8385 O   0  0  0  0  0  0  0  0  0  0  0  0
   15.7311   -4.0804   18.6489 N   0  0  0  0  0  0  0  0  0  0  0  0
   14.7383   -4.0684   19.6347 C   0  0  0  0  0  0  0  0  0  0  0  0
   15.8637   -5.3167   17.8908 C   0  0  0  0  0  0  0  0  0  0  0  0
   14.6761   -6.1628   18.2379 C   0  0  0  0  0  0  0  0  0  0  0  0
   14.7294   -7.3833   17.6121 O   0  0  0  0  0  0  0  0  0  0  0  0
   13.4602   -7.8793   17.3911 C   0  0  0  0  0  0  0  0  0  0  0  0
  1  2  1  0
  2  3  2  0
  2  4  1  0
  4  5  1  0
  5  6  2  0
  5  7  1  0
  6 11  1  0
  7  8  2  0
  8  9  1  0
  9 10  1  0
  9 11  2  0
 11 12  1  0
 12 13  2  0
 12 14  2  0
 12 15  1  1
 15 16  1  0
 15 17  1  0
 17 18  1  0
 18 19  1  0
 19 20  1  0
M  END
$$$$
