
     RDKit          3D

 20 20  0  0  0  0  0  0  0  0999 V2000
   16.5204   -8.6106   13.9958 C   0  0  0  0  0  0  0  0  0  0  0  0
   16.8333   -7.1895   14.3003 C   0  0  0  0  0  0  0  0  0  0  0  0
   16.1573   -6.5875   15.1644 O   0  0  0  0  0  0  0  0  0  0  0  0
   17.8747   -6.4669   13.6528 N   0  0  0  0  0  0  0  0  0  0  0  0
   18.2065   -5.1398   14.0765 C   0  0  0  0  0  0  0  0  0  0  0  0
   17.4266   -4.5157   15.0102 C   0  0  0  0  0  0  0  0  0  0  0  0
   19.2928   -4.4554   13.5769 C   0  0  0  0  0  0  0  0  0  0  0  0
   19.6221   -3.1883   13.9703 C   0  0  0  0  0  0  0  0  0  0  0  0
   18.8062   -2.5682   14.9287 C   0  0  0  0  0  0  0  0  0  0  0  0
   19.2218   -0.9105   15.3568 Cl  0  0  0  0  0  0  0  0  0  0  0  0
   17.7205   -3.2147   15.4501 C   0  0  0  0  0  0  0  0  0  0  0  0
   16.7549   -2.4673   16.6865 S   0  0  1  0  0  6  0  0  0  0  0  0
   16.1298   -1.1990   16.0848 O   0  0  0  0  0  0  0  0  0  0  0  0
   15.5885   -3.4104   16.9564 O   0  0  0  0  0  0  0  0  0  0  0  0
   17.5152   -2.1617   18.1430 N   0  0  0  0  0  0  0  0  0  0  0  0
   17.8294   -0.8500   18.5148 C   0  0  0  0  0  0  0  0  0  0  0  0
   17.1253   -3.0562   19.2240 C   0  0  0  0  0  0  0  0  0  0  0  0
   17.6333   -2.4424   20.4937 C   0  0  0  0  0  0  0  0  0  0  0  0
   17.3716   -3.2427   21.5777 O   0  0  0  0  0  0  0  0  0  0  0  0
   18.2620   -2.9909   22.6021 C   0  0  0  0  0  0  0  0  0  0  0  0
  1  2  1  0
  2  3  2  0
  2  4  1  0
  4  5  1  0
  5  6  2  0
  5  7  1  0
  6 11  1  0
  7  8  2  0
  8  9  1  0
  9 10  1  0
  9 11  2  0
 11 12  1  0
 12 13  2  0
 12 14  2  0
 12 15  1  1
 15 16  1  0
 15 17  1  0
 17 18  1  0
 18 19  1  0
 19 20  1  0
M  END
$$$$
