
     RDKit          3D

 20 20  0  0  0  0  0  0  0  0999 V2000
   18.3523   -7.8725   13.5237 C   0  0  0  0  0  0  0  0  0  0  0  0
   17.7558   -6.8424   14.4144 C   0  0  0  0  0  0  0  0  0  0  0  0
   17.8035   -5.6392   14.0733 O   0  0  0  0  0  0  0  0  0  0  0  0
   17.1248   -7.1554   15.6512 N   0  0  0  0  0  0  0  0  0  0  0  0
   16.8061   -6.1169   16.5844 C   0  0  0  0  0  0  0  0  0  0  0  0
   17.3673   -4.8793   16.4327 C   0  0  0  0  0  0  0  0  0  0  0  0
   15.9466   -6.3139   17.6428 C   0  0  0  0  0  0  0  0  0  0  0  0
   15.6332   -5.3334   18.5424 C   0  0  0  0  0  0  0  0  0  0  0  0
   16.2222   -4.0720   18.3667 C   0  0  0  0  0  0  0  0  0  0  0  0
   15.8492   -2.8566   19.5863 Cl  0  0  0  0  0  0  0  0  0  0  0  0
   17.0787   -3.8360   17.3278 C   0  0  0  0  0  0  0  0  0  0  0  0
   17.7504   -2.2533   17.0766 S   0  0  1  0  0  6  0  0  0  0  0  0
   18.4851   -1.8505   18.3648 O   0  0  0  0  0  0  0  0  0  0  0  0
   18.8351   -2.4047   16.0168 O   0  0  0  0  0  0  0  0  0  0  0  0
   16.6916   -1.0675   16.5613 N   0  0  0  0  0  0  0  0  0  0  0  0
   16.9484    0.2792   16.8404 C   0  0  0  0  0  0  0  0  0  0  0  0
   16.0555   -1.3446   15.2809 C   0  0  0  0  0  0  0  0  0  0  0  0
   16.2605   -0.1293   14.4276 C   0  0  0  0  0  0  0  0  0  0  0  0
   15.4706   -0.1651   13.3056 O   0  0  0  0  0  0  0  0  0  0  0  0
   15.8619    0.7979   12.3971 C   0  0  0  0  0  0  0  0  0  0  0  0
  1  2  1  0
  2  3  2  0
  2  4  1  0
  4  5  1  0
  5  6  2  0
  5  7  1  0
  6 11  1  0
  7  8  2  0
  8  9  1  0
  9 10  1  0
  9 11  2  0
 11 12  1  0
 12 13  2  0
 12 14  2  0
 12 15  1  6
 15 16  1  0
 15 17  1  0
 17 18  1  0
 18 19  1  0
 19 20  1  0
M  END
$$$$
