
     RDKit          3D

 20 20  0  0  0  0  0  0  0  0999 V2000
   18.0145   -7.6507   13.3539 C   0  0  0  0  0  0  0  0  0  0  0  0
   17.6835   -6.3491   13.9914 C   0  0  0  0  0  0  0  0  0  0  0  0
   18.6066   -5.5455   14.2529 O   0  0  0  0  0  0  0  0  0  0  0  0
   16.3549   -5.9625   14.3250 N   0  0  0  0  0  0  0  0  0  0  0  0
   16.1108   -4.7305   15.0132 C   0  0  0  0  0  0  0  0  0  0  0  0
   16.9093   -4.3767   16.0652 C   0  0  0  0  0  0  0  0  0  0  0  0
   15.0919   -3.8748   14.6558 C   0  0  0  0  0  0  0  0  0  0  0  0
   14.8455   -2.6962   15.3030 C   0  0  0  0  0  0  0  0  0  0  0  0
   15.6776   -2.3550   16.3801 C   0  0  0  0  0  0  0  0  0  0  0  0
   15.2840   -0.8643   17.2325 Cl  0  0  0  0  0  0  0  0  0  0  0  0
   16.7005   -3.1764   16.7642 C   0  0  0  0  0  0  0  0  0  0  0  0
   17.7692   -2.7151   18.0544 S   0  0  1  0  0  6  0  0  0  0  0  0
   16.9127   -2.0881   19.1656 O   0  0  0  0  0  0  0  0  0  0  0  0
   18.3224   -4.0073   18.6435 O   0  0  0  0  0  0  0  0  0  0  0  0
   19.0648   -1.7451   17.6382 N   0  0  0  0  0  0  0  0  0  0  0  0
   18.8559   -0.4227   17.2320 C   0  0  0  0  0  0  0  0  0  0  0  0
   20.2740   -1.9927   18.4112 C   0  0  0  0  0  0  0  0  0  0  0  0
   21.2350   -0.8945   18.0687 C   0  0  0  0  0  0  0  0  0  0  0  0
   22.3718   -0.9655   18.8347 O   0  0  0  0  0  0  0  0  0  0  0  0
   23.4978   -0.7486   18.0661 C   0  0  0  0  0  0  0  0  0  0  0  0
  1  2  1  0
  2  3  2  0
  2  4  1  0
  4  5  1  0
  5  6  2  0
  5  7  1  0
  6 11  1  0
  7  8  2  0
  8  9  1  0
  9 10  1  0
  9 11  2  0
 11 12  1  0
 12 13  2  0
 12 14  2  0
 12 15  1  6
 15 16  1  0
 15 17  1  0
 17 18  1  0
 18 19  1  0
 19 20  1  0
M  END
$$$$
