
     RDKit          3D

 36 36  0  0  0  0  0  0  0  0999 V2000
  -16.3591   26.1136  -86.6589 C   0  0  2  0  0  0  0  0  0  0  0  0
  -15.6716   26.8663  -87.7744 C   0  0  2  0  0  0  0  0  0  0  0  0
  -14.1989   26.6750  -87.6969 C   0  0  1  0  0  0  0  0  0  0  0  0
  -13.5903   26.7787  -86.3464 C   0  0  2  0  0  0  0  0  0  0  0  0
  -14.4796   26.4483  -85.1947 C   0  0  1  0  0  0  0  0  0  0  0  0
  -15.9094   26.8270  -85.3776 C   0  0  2  0  0  0  0  0  0  0  0  0
  -15.7875   24.8391  -86.6111 O   0  0  0  0  0  0  0  0  0  0  0  0
  -17.0159   23.7101  -86.7943 P   0  0  2  0  0  5  0  0  0  0  0  0
  -16.7615   22.8957  -88.2521 O   0  0  0  0  0  0  0  0  0  0  0  0
  -18.3283   24.4439  -86.8209 O   0  0  0  0  0  0  0  0  0  0  0  0
  -17.0655   22.5818  -85.5640 O   0  0  0  0  0  0  0  0  0  0  0  0
  -16.0753   28.1814  -87.7055 O   0  0  0  0  0  0  0  0  0  0  0  0
  -16.7821   28.6786  -89.1587 P   0  0  1  0  0  5  0  0  0  0  0  0
  -17.9015   29.9116  -88.9315 O   0  0  0  0  0  0  0  0  0  0  0  0
  -15.5816   29.1941  -90.2593 O   0  0  0  0  0  0  0  0  0  0  0  0
  -17.5065   27.5326  -89.8406 O   0  0  0  0  0  0  0  0  0  0  0  0
  -13.8708   25.4700  -88.3204 O   0  0  0  0  0  0  0  0  0  0  0  0
  -13.1142   25.6760  -89.7948 P   0  0  2  0  0  5  0  0  0  0  0  0
  -13.0755   27.1701  -90.1062 O   0  0  0  0  0  0  0  0  0  0  0  0
  -13.9048   24.9228  -91.0587 O   0  0  0  0  0  0  0  0  0  0  0  0
  -11.5062   25.1444  -89.7765 O   0  0  0  0  0  0  0  0  0  0  0  0
  -13.0433   28.0419  -86.1126 O   0  0  0  0  0  0  0  0  0  0  0  0
  -12.7156   28.8784  -87.5461 P   0  0  2  0  0  5  0  0  0  0  0  0
  -13.7807   29.9027  -87.8604 O   0  0  0  0  0  0  0  0  0  0  0  0
  -12.6899   27.7755  -88.8303 O   0  0  0  0  0  0  0  0  0  0  0  0
  -11.2219   29.6631  -87.4808 O   0  0  0  0  0  0  0  0  0  0  0  0
  -14.4264   25.0797  -84.9272 O   0  0  0  0  0  0  0  0  0  0  0  0
  -13.1814   24.6781  -83.8828 P   0  0  1  0  0  5  0  0  0  0  0  0
  -12.0417   23.9817  -84.5725 O   0  0  0  0  0  0  0  0  0  0  0  0
  -12.6721   26.0842  -83.0961 O   0  0  0  0  0  0  0  0  0  0  0  0
  -13.8336   23.6452  -82.6888 O   0  0  0  0  0  0  0  0  0  0  0  0
  -16.6442   26.2236  -84.3427 O   0  0  0  0  0  0  0  0  0  0  0  0
  -17.2460   24.7256  -84.7647 P   0  0  2  0  0  5  0  0  0  0  0  0
  -16.4627   23.5596  -83.8026 O   0  0  0  0  0  0  0  0  0  0  0  0
  -16.9086   24.3668  -86.2116 O   0  0  0  0  0  0  0  0  0  0  0  0
  -18.8915   24.5719  -84.5063 O   0  0  0  0  0  0  0  0  0  0  0  0
  1  2  1  0
  1  6  1  0
  1  7  1  1
  2  3  1  0
  2 12  1  1
  3  4  1  0
  3 17  1  1
  4  5  1  0
  4 22  1  1
  5  6  1  0
  5 27  1  6
  6 32  1  1
  7  8  1  0
  8  9  1  6
  8 10  2  0
  8 11  1  0
 12 13  1  0
 13 14  1  1
 13 15  1  0
 13 16  2  0
 17 18  1  0
 18 19  2  0
 18 20  1  6
 18 21  1  0
 22 23  1  0
 23 24  2  0
 23 25  1  6
 23 26  1  0
 27 28  1  0
 28 29  2  0
 28 30  1  1
 28 31  1  0
 32 33  1  0
 33 34  1  1
 33 35  2  0
 33 36  1  0
M  END
$$$$
