
     RDKit          3D

 36 36  0  0  0  0  0  0  0  0999 V2000
  -13.2823   26.2216  -85.9758 C   0  0  2  0  0  0  0  0  0  0  0  0
  -14.3030   26.9530  -85.1350 C   0  0  2  0  0  0  0  0  0  0  0  0
  -15.4658   26.0712  -84.8493 C   0  0  1  0  0  0  0  0  0  0  0  0
  -15.9861   25.2752  -85.9897 C   0  0  2  0  0  0  0  0  0  0  0  0
  -15.0070   24.9473  -87.0668 C   0  0  1  0  0  0  0  0  0  0  0  0
  -13.9812   25.9977  -87.3228 C   0  0  2  0  0  0  0  0  0  0  0  0
  -13.1188   24.9537  -85.4112 O   0  0  0  0  0  0  0  0  0  0  0  0
  -11.4732   24.6495  -85.2815 P   0  0  2  0  0  5  0  0  0  0  0  0
  -11.2642   23.3664  -84.2031 O   0  0  0  0  0  0  0  0  0  0  0  0
  -10.8054   25.8921  -84.7604 O   0  0  0  0  0  0  0  0  0  0  0  0
  -10.7610   24.2358  -86.7344 O   0  0  0  0  0  0  0  0  0  0  0  0
  -14.6267   28.1215  -85.7886 O   0  0  0  0  0  0  0  0  0  0  0  0
  -13.6660   29.4055  -85.2529 P   0  0  1  0  0  5  0  0  0  0  0  0
  -14.0647   30.8544  -86.0055 O   0  0  0  0  0  0  0  0  0  0  0  0
  -13.8028   29.5858  -83.5597 O   0  0  0  0  0  0  0  0  0  0  0  0
  -12.1957   29.1459  -85.5255 O   0  0  0  0  0  0  0  0  0  0  0  0
  -15.1562   25.2634  -83.7539 O   0  0  0  0  0  0  0  0  0  0  0  0
  -15.8845   25.7663  -82.3378 P   0  0  2  0  0  5  0  0  0  0  0  0
  -15.5503   24.7547  -81.2443 O   0  0  0  0  0  0  0  0  0  0  0  0
  -17.5490   25.8571  -82.4422 O   0  0  0  0  0  0  0  0  0  0  0  0
  -15.2991   27.2639  -81.8058 O   0  0  0  0  0  0  0  0  0  0  0  0
  -17.0924   25.8794  -86.5902 O   0  0  0  0  0  0  0  0  0  0  0  0
  -18.5058   24.9689  -86.4026 P   0  0  2  0  0  5  0  0  0  0  0  0
  -19.2670   25.3550  -85.1559 O   0  0  0  0  0  0  0  0  0  0  0  0
  -18.0886   23.3356  -86.2463 O   0  0  0  0  0  0  0  0  0  0  0  0
  -19.5348   25.1368  -87.7307 O   0  0  0  0  0  0  0  0  0  0  0  0
  -14.3414   23.7592  -86.7620 O   0  0  0  0  0  0  0  0  0  0  0  0
  -14.8492   22.4775  -87.7115 P   0  0  1  0  0  5  0  0  0  0  0  0
  -15.1885   21.2533  -86.9080 O   0  0  0  0  0  0  0  0  0  0  0  0
  -16.1574   22.9945  -88.6479 O   0  0  0  0  0  0  0  0  0  0  0  0
  -13.5767   22.1093  -88.7900 O   0  0  0  0  0  0  0  0  0  0  0  0
  -12.9996   25.4379  -88.1585 O   0  0  0  0  0  0  0  0  0  0  0  0
  -13.3614   25.5986  -89.7794 P   0  0  2  0  0  5  0  0  0  0  0  0
  -11.9413   25.2829  -90.6640 O   0  0  0  0  0  0  0  0  0  0  0  0
  -13.7615   27.0311  -90.1311 O   0  0  0  0  0  0  0  0  0  0  0  0
  -14.5350   24.5308  -90.3090 O   0  0  0  0  0  0  0  0  0  0  0  0
  1  2  1  0
  1  6  1  0
  1  7  1  1
  2  3  1  0
  2 12  1  6
  3  4  1  0
  3 17  1  1
  4  5  1  0
  4 22  1  6
  5  6  1  0
  5 27  1  1
  6 32  1  6
  7  8  1  0
  8  9  1  1
  8 10  2  0
  8 11  1  0
 12 13  1  0
 13 14  1  6
 13 15  1  0
 13 16  2  0
 17 18  1  0
 18 19  2  0
 18 20  1  6
 18 21  1  0
 22 23  1  0
 23 24  2  0
 23 25  1  1
 23 26  1  0
 27 28  1  0
 28 29  2  0
 28 30  1  6
 28 31  1  0
 32 33  1  0
 33 34  1  6
 33 35  2  0
 33 36  1  0
M  END
$$$$
