
     RDKit          3D

 36 36  0  0  0  0  0  0  0  0999 V2000
  -15.8601   26.5041  -85.7670 C   0  0  2  0  0  0  0  0  0  0  0  0
  -16.7780   26.9849  -86.8670 C   0  0  2  0  0  0  0  0  0  0  0  0
  -16.7807   26.0193  -87.9978 C   0  0  1  0  0  0  0  0  0  0  0  0
  -15.4581   25.4886  -88.4153 C   0  0  2  0  0  0  0  0  0  0  0  0
  -14.3997   25.4531  -87.3642 C   0  0  1  0  0  0  0  0  0  0  0  0
  -14.4555   26.5708  -86.3800 C   0  0  2  0  0  0  0  0  0  0  0  0
  -16.1308   25.1472  -85.5709 O   0  0  0  0  0  0  0  0  0  0  0  0
  -17.1283   25.0038  -84.2286 P   0  0  2  0  0  5  0  0  0  0  0  0
  -16.1777   25.2154  -82.8485 O   0  0  0  0  0  0  0  0  0  0  0  0
  -17.7409   23.6305  -84.2430 O   0  0  0  0  0  0  0  0  0  0  0  0
  -18.3595   26.1319  -84.1964 O   0  0  0  0  0  0  0  0  0  0  0  0
  -16.3880   28.2599  -87.2130 O   0  0  0  0  0  0  0  0  0  0  0  0
  -17.7279   29.2492  -87.5032 P   0  0  1  0  0  5  0  0  0  0  0  0
  -19.1376   28.3609  -87.7237 O   0  0  0  0  0  0  0  0  0  0  0  0
  -17.9442   30.3518  -86.2164 O   0  0  0  0  0  0  0  0  0  0  0  0
  -17.5298   30.0959  -88.7470 O   0  0  0  0  0  0  0  0  0  0  0  0
  -17.6811   24.9929  -87.7078 O   0  0  0  0  0  0  0  0  0  0  0  0
  -18.7425   24.6752  -88.9573 P   0  0  2  0  0  5  0  0  0  0  0  0
  -17.9851   23.9181  -90.0453 O   0  0  0  0  0  0  0  0  0  0  0  0
  -19.3772   26.0526  -89.6569 O   0  0  0  0  0  0  0  0  0  0  0  0
  -20.0254   23.6783  -88.4785 O   0  0  0  0  0  0  0  0  0  0  0  0
  -14.9412   26.1740  -89.5165 O   0  0  0  0  0  0  0  0  0  0  0  0
  -14.5194   25.1351  -90.7832 P   0  0  2  0  0  5  0  0  0  0  0  0
  -14.6454   25.8053  -92.1313 O   0  0  0  0  0  0  0  0  0  0  0  0
  -15.5769   23.8130  -90.7827 O   0  0  0  0  0  0  0  0  0  0  0  0
  -12.9401   24.5611  -90.6172 O   0  0  0  0  0  0  0  0  0  0  0  0
  -14.4683   24.2518  -86.6574 O   0  0  0  0  0  0  0  0  0  0  0  0
  -13.1785   23.2376  -86.9892 P   0  0  1  0  0  5  0  0  0  0  0  0
  -12.3132   22.9801  -85.7873 O   0  0  0  0  0  0  0  0  0  0  0  0
  -13.7846   21.8024  -87.6435 O   0  0  0  0  0  0  0  0  0  0  0  0
  -12.2437   23.9869  -88.2068 O   0  0  0  0  0  0  0  0  0  0  0  0
  -13.5791   26.2544  -85.3279 O   0  0  0  0  0  0  0  0  0  0  0  0
  -14.3111   25.3640  -84.1215 P   0  0  2  0  0  5  0  0  0  0  0  0
  -15.9917   25.6107  -84.2386 O   0  0  0  0  0  0  0  0  0  0  0  0
  -13.9132   25.8592  -82.7313 O   0  0  0  0  0  0  0  0  0  0  0  0
  -14.0316   23.7194  -84.2444 O   0  0  0  0  0  0  0  0  0  0  0  0
  1  2  1  0
  1  6  1  0
  1  7  1  6
  2  3  1  0
  2 12  1  6
  3  4  1  0
  3 17  1  1
  4  5  1  0
  4 22  1  6
  5  6  1  0
  5 27  1  1
  6 32  1  1
  7  8  1  0
  8  9  1  1
  8 10  2  0
  8 11  1  0
 12 13  1  0
 13 14  1  6
 13 15  1  0
 13 16  2  0
 17 18  1  0
 18 19  2  0
 18 20  1  6
 18 21  1  0
 22 23  1  0
 23 24  2  0
 23 25  1  6
 23 26  1  0
 27 28  1  0
 28 29  2  0
 28 30  1  6
 28 31  1  0
 32 33  1  0
 33 34  1  6
 33 35  2  0
 33 36  1  0
M  END
$$$$
