
     RDKit          3D

 36 36  0  0  0  0  0  0  0  0999 V2000
  -15.1498   36.2517  -70.3747 C   0  0  2  0  0  0  0  0  0  0  0  0
  -14.1483   35.3768  -69.6568 C   0  0  2  0  0  0  0  0  0  0  0  0
  -13.7667   35.9873  -68.3556 C   0  0  1  0  0  0  0  0  0  0  0  0
  -13.4923   37.4467  -68.3669 C   0  0  2  0  0  0  0  0  0  0  0  0
  -14.1819   38.2397  -69.4260 C   0  0  1  0  0  0  0  0  0  0  0  0
  -14.3699   37.5265  -70.7210 C   0  0  2  0  0  0  0  0  0  0  0  0
  -16.1109   36.6317  -69.4339 O   0  0  0  0  0  0  0  0  0  0  0  0
  -17.4939   35.7201  -69.7049 P   0  0  2  0  0  5  0  0  0  0  0  0
  -18.2732   36.3482  -71.0655 O   0  0  0  0  0  0  0  0  0  0  0  0
  -18.3757   35.8323  -68.4919 O   0  0  0  0  0  0  0  0  0  0  0  0
  -17.1767   34.1037  -69.9807 O   0  0  0  0  0  0  0  0  0  0  0  0
  -13.0902   35.1601  -70.5116 O   0  0  0  0  0  0  0  0  0  0  0  0
  -13.2068   33.6454  -71.2535 P   0  0  1  0  0  5  0  0  0  0  0  0
  -12.3581   32.4607  -70.4162 O   0  0  0  0  0  0  0  0  0  0  0  0
  -14.8435   33.1782  -71.4001 O   0  0  0  0  0  0  0  0  0  0  0  0
  -12.6563   33.6795  -72.6674 O   0  0  0  0  0  0  0  0  0  0  0  0
  -14.7300   35.6500  -67.4034 O   0  0  0  0  0  0  0  0  0  0  0  0
  -14.1112   34.7775  -66.1210 P   0  0  2  0  0  5  0  0  0  0  0  0
  -13.9389   35.7265  -64.9376 O   0  0  0  0  0  0  0  0  0  0  0  0
  -12.6186   34.0981  -66.4377 O   0  0  0  0  0  0  0  0  0  0  0  0
  -15.1597   33.5504  -65.6077 O   0  0  0  0  0  0  0  0  0  0  0  0
  -12.1262   37.7233  -68.4500 O   0  0  0  0  0  0  0  0  0  0  0  0
  -11.5865   38.6974  -67.1765 P   0  0  2  0  0  5  0  0  0  0  0  0
  -10.1364   39.0893  -67.3384 O   0  0  0  0  0  0  0  0  0  0  0  0
  -11.7092   37.8259  -65.7302 O   0  0  0  0  0  0  0  0  0  0  0  0
  -12.5082   40.1052  -67.0364 O   0  0  0  0  0  0  0  0  0  0  0  0
  -15.4363   38.6515  -68.9741 O   0  0  0  0  0  0  0  0  0  0  0  0
  -16.0531   39.9264  -69.8666 P   0  0  1  0  0  5  0  0  0  0  0  0
  -17.3623   39.5976  -70.5279 O   0  0  0  0  0  0  0  0  0  0  0  0
  -16.1841   41.2717  -68.8525 O   0  0  0  0  0  0  0  0  0  0  0  0
  -14.8980   40.3134  -71.0641 O   0  0  0  0  0  0  0  0  0  0  0  0
  -15.2483   38.2940  -71.5050 O   0  0  0  0  0  0  0  0  0  0  0  0
  -15.6517   39.7469  -70.7905 P   0  0  2  0  0  5  0  0  0  0  0  0
  -17.3485   39.8128  -70.6657 O   0  0  0  0  0  0  0  0  0  0  0  0
  -15.2516   40.9370  -71.6621 O   0  0  0  0  0  0  0  0  0  0  0  0
  -15.0239   39.9291  -69.2509 O   0  0  0  0  0  0  0  0  0  0  0  0
  1  2  1  0
  1  6  1  0
  1  7  1  1
  2  3  1  0
  2 12  1  6
  3  4  1  0
  3 17  1  1
  4  5  1  0
  4 22  1  6
  5  6  1  0
  5 27  1  1
  6 32  1  6
  7  8  1  0
  8  9  1  6
  8 10  2  0
  8 11  1  0
 12 13  1  0
 13 14  1  1
 13 15  1  0
 13 16  2  0
 17 18  1  0
 18 19  2  0
 18 20  1  6
 18 21  1  0
 22 23  1  0
 23 24  2  0
 23 25  1  1
 23 26  1  0
 27 28  1  0
 28 29  2  0
 28 30  1  1
 28 31  1  0
 32 33  1  0
 33 34  1  1
 33 35  2  0
 33 36  1  0
M  END
$$$$
