
     RDKit          3D

 36 36  0  0  0  0  0  0  0  0999 V2000
   10.5884  -19.8028  -80.2709 C   0  0  2  0  0  0  0  0  0  0  0  0
    9.3320  -19.5910  -79.4582 C   0  0  2  0  0  0  0  0  0  0  0  0
    8.7564  -20.8984  -79.0450 C   0  0  1  0  0  0  0  0  0  0  0  0
    8.7090  -21.9568  -80.0856 C   0  0  2  0  0  0  0  0  0  0  0  0
    9.7314  -21.8640  -81.1683 C   0  0  1  0  0  0  0  0  0  0  0  0
   10.1042  -20.4757  -81.5615 C   0  0  2  0  0  0  0  0  0  0  0  0
   11.3536  -20.7610  -79.6005 O   0  0  0  0  0  0  0  0  0  0  0  0
   12.9338  -20.2010  -79.5182 P   0  0  2  0  0  5  0  0  0  0  0  0
   13.8477  -21.0520  -80.6556 O   0  0  0  0  0  0  0  0  0  0  0  0
   13.4502  -20.4544  -78.1287 O   0  0  0  0  0  0  0  0  0  0  0  0
   13.0748  -18.5694  -79.8456 O   0  0  0  0  0  0  0  0  0  0  0  0
    8.4777  -18.8066  -80.2013 O   0  0  0  0  0  0  0  0  0  0  0  0
    8.3134  -17.2688  -79.5184 P   0  0  1  0  0  5  0  0  0  0  0  0
    6.7168  -16.7439  -79.5118 O   0  0  0  0  0  0  0  0  0  0  0  0
    8.9241  -17.2570  -77.9231 O   0  0  0  0  0  0  0  0  0  0  0  0
    9.1237  -16.2368  -80.2811 O   0  0  0  0  0  0  0  0  0  0  0  0
    9.4159  -21.3342  -77.8946 O   0  0  0  0  0  0  0  0  0  0  0  0
    8.3803  -21.9261  -76.7259 P   0  0  2  0  0  5  0  0  0  0  0  0
    7.1557  -21.0162  -76.6690 O   0  0  0  0  0  0  0  0  0  0  0  0
    9.0513  -21.9565  -75.1967 O   0  0  0  0  0  0  0  0  0  0  0  0
    7.8118  -23.4790  -77.0920 O   0  0  0  0  0  0  0  0  0  0  0  0
    7.4539  -22.0410  -80.6918 O   0  0  0  0  0  0  0  0  0  0  0  0
    6.6650  -23.4962  -80.3423 P   0  0  2  0  0  5  0  0  0  0  0  0
    7.5891  -24.6852  -80.4651 O   0  0  0  0  0  0  0  0  0  0  0  0
    5.4116  -23.7214  -81.4578 O   0  0  0  0  0  0  0  0  0  0  0  0
    6.0069  -23.4891  -78.7874 O   0  0  0  0  0  0  0  0  0  0  0  0
   10.8955  -22.5312  -80.7847 O   0  0  0  0  0  0  0  0  0  0  0  0
   11.1424  -23.9412  -81.6526 P   0  0  1  0  0  5  0  0  0  0  0  0
   12.3831  -23.8962  -82.5001 O   0  0  0  0  0  0  0  0  0  0  0  0
   11.1720  -25.2360  -80.5672 O   0  0  0  0  0  0  0  0  0  0  0  0
    9.7800  -24.1631  -82.6589 O   0  0  0  0  0  0  0  0  0  0  0  0
   11.2415  -20.5579  -82.3831 O   0  0  0  0  0  0  0  0  0  0  0  0
   12.5974  -21.0775  -81.5611 P   0  0  2  0  0  5  0  0  0  0  0  0
   13.5750  -21.9362  -82.6591 O   0  0  0  0  0  0  0  0  0  0  0  0
   12.2429  -22.0701  -80.4543 O   0  0  0  0  0  0  0  0  0  0  0  0
   13.5167  -19.8279  -80.9355 O   0  0  0  0  0  0  0  0  0  0  0  0
  1  2  1  0
  1  6  1  0
  1  7  1  1
  2  3  1  0
  2 12  1  6
  3  4  1  0
  3 17  1  1
  4  5  1  0
  4 22  1  6
  5  6  1  0
  5 27  1  1
  6 32  1  6
  7  8  1  0
  8  9  1  6
  8 10  2  0
  8 11  1  0
 12 13  1  0
 13 14  1  1
 13 15  1  0
 13 16  2  0
 17 18  1  0
 18 19  2  0
 18 20  1  1
 18 21  1  0
 22 23  1  0
 23 24  2  0
 23 25  1  6
 23 26  1  0
 27 28  1  0
 28 29  2  0
 28 30  1  1
 28 31  1  0
 32 33  1  0
 33 34  1  6
 33 35  2  0
 33 36  1  0
M  END
$$$$
