
     RDKit          3D

 36 36  0  0  0  0  0  0  0  0999 V2000
    6.6513  -16.7233  -77.1564 C   0  0  2  0  0  0  0  0  0  0  0  0
    6.3962  -18.2107  -77.2356 C   0  0  2  0  0  0  0  0  0  0  0  0
    6.9866  -18.7715  -78.4799 C   0  0  1  0  0  0  0  0  0  0  0  0
    6.7706  -17.9891  -79.7234 C   0  0  2  0  0  0  0  0  0  0  0  0
    6.5658  -16.5211  -79.5523 C   0  0  1  0  0  0  0  0  0  0  0  0
    5.8366  -16.1300  -78.3128 C   0  0  2  0  0  0  0  0  0  0  0  0
    7.9939  -16.5195  -77.4866 O   0  0  0  0  0  0  0  0  0  0  0  0
    8.6300  -15.3976  -76.4124 P   0  0  2  0  0  5  0  0  0  0  0  0
   10.1722  -15.9214  -75.9649 O   0  0  0  0  0  0  0  0  0  0  0  0
    7.7257  -15.3307  -75.2127 O   0  0  0  0  0  0  0  0  0  0  0  0
    8.7636  -13.8640  -77.0603 O   0  0  0  0  0  0  0  0  0  0  0  0
    5.0390  -18.4117  -77.1133 O   0  0  0  0  0  0  0  0  0  0  0  0
    4.6753  -19.2740  -75.7052 P   0  0  1  0  0  5  0  0  0  0  0  0
    5.5355  -18.7111  -74.3755 O   0  0  0  0  0  0  0  0  0  0  0  0
    3.0010  -19.1972  -75.3753 O   0  0  0  0  0  0  0  0  0  0  0  0
    5.0008  -20.7481  -75.8611 O   0  0  0  0  0  0  0  0  0  0  0  0
    8.3411  -19.0251  -78.2577 O   0  0  0  0  0  0  0  0  0  0  0  0
    8.7553  -20.6283  -78.4750 P   0  0  2  0  0  5  0  0  0  0  0  0
    7.8423  -21.4799  -77.5964 O   0  0  0  0  0  0  0  0  0  0  0  0
   10.3305  -20.9728  -78.0397 O   0  0  0  0  0  0  0  0  0  0  0  0
    8.5145  -21.1482  -80.0688 O   0  0  0  0  0  0  0  0  0  0  0  0
    5.7027  -18.4828  -80.4754 O   0  0  0  0  0  0  0  0  0  0  0  0
    6.2168  -19.3762  -81.8169 P   0  0  2  0  0  5  0  0  0  0  0  0
    6.1020  -20.8645  -81.5839 O   0  0  0  0  0  0  0  0  0  0  0  0
    7.8511  -19.0410  -82.1048 O   0  0  0  0  0  0  0  0  0  0  0  0
    5.3346  -18.9823  -83.2017 O   0  0  0  0  0  0  0  0  0  0  0  0
    7.7966  -15.8635  -79.5547 O   0  0  0  0  0  0  0  0  0  0  0  0
    8.1903  -15.2444  -81.0593 P   0  0  1  0  0  5  0  0  0  0  0  0
    7.0127  -14.6341  -81.7666 O   0  0  0  0  0  0  0  0  0  0  0  0
    9.4488  -14.1336  -80.8652 O   0  0  0  0  0  0  0  0  0  0  0  0
    8.8028  -16.5357  -81.9951 O   0  0  0  0  0  0  0  0  0  0  0  0
    5.9567  -14.7369  -78.1712 O   0  0  0  0  0  0  0  0  0  0  0  0
    4.6901  -14.0614  -77.3205 P   0  0  2  0  0  5  0  0  0  0  0  0
    3.7665  -15.3324  -76.6644 O   0  0  0  0  0  0  0  0  0  0  0  0
    3.7422  -13.2871  -78.2359 O   0  0  0  0  0  0  0  0  0  0  0  0
    5.1831  -13.0878  -76.0529 O   0  0  0  0  0  0  0  0  0  0  0  0
  1  2  1  0
  1  6  1  0
  1  7  1  6
  2  3  1  0
  2 12  1  6
  3  4  1  0
  3 17  1  1
  4  5  1  0
  4 22  1  1
  5  6  1  0
  5 27  1  1
  6 32  1  1
  7  8  1  0
  8  9  1  1
  8 10  2  0
  8 11  1  0
 12 13  1  0
 13 14  1  1
 13 15  1  0
 13 16  2  0
 17 18  1  0
 18 19  2  0
 18 20  1  1
 18 21  1  0
 22 23  1  0
 23 24  2  0
 23 25  1  6
 23 26  1  0
 27 28  1  0
 28 29  2  0
 28 30  1  1
 28 31  1  0
 32 33  1  0
 33 34  1  1
 33 35  2  0
 33 36  1  0
M  END
$$$$
