
     RDKit          3D

 36 36  0  0  0  0  0  0  0  0999 V2000
    7.9351  -22.4114  -79.3292 C   0  0  2  0  0  0  0  0  0  0  0  0
    9.2538  -22.8556  -78.7399 C   0  0  2  0  0  0  0  0  0  0  0  0
   10.3698  -22.0502  -79.3031 C   0  0  1  0  0  0  0  0  0  0  0  0
   10.3385  -21.8137  -80.7688 C   0  0  2  0  0  0  0  0  0  0  0  0
    8.9924  -21.8350  -81.4121 C   0  0  1  0  0  0  0  0  0  0  0  0
    8.0254  -22.7968  -80.8112 C   0  0  2  0  0  0  0  0  0  0  0  0
    7.9204  -21.0144  -79.2946 O   0  0  0  0  0  0  0  0  0  0  0  0
    6.9040  -20.5349  -78.0479 P   0  0  2  0  0  5  0  0  0  0  0  0
    7.8082  -19.6022  -76.9684 O   0  0  0  0  0  0  0  0  0  0  0  0
    6.3790  -21.7695  -77.3686 O   0  0  0  0  0  0  0  0  0  0  0  0
    5.6042  -19.6240  -78.5679 O   0  0  0  0  0  0  0  0  0  0  0  0
    9.3730  -24.2117  -78.9501 O   0  0  0  0  0  0  0  0  0  0  0  0
    9.1302  -25.0741  -77.5164 P   0  0  1  0  0  5  0  0  0  0  0  0
    9.5382  -26.6969  -77.6743 O   0  0  0  0  0  0  0  0  0  0  0  0
   10.0338  -24.3802  -76.2435 O   0  0  0  0  0  0  0  0  0  0  0  0
    7.6791  -25.0153  -77.0758 O   0  0  0  0  0  0  0  0  0  0  0  0
   10.4639  -20.8547  -78.5887 O   0  0  0  0  0  0  0  0  0  0  0  0
   11.8565  -19.9957  -78.9227 P   0  0  2  0  0  5  0  0  0  0  0  0
   12.7981  -20.1311  -77.7287 O   0  0  0  0  0  0  0  0  0  0  0  0
   11.5894  -18.3649  -79.1656 O   0  0  0  0  0  0  0  0  0  0  0  0
   12.6877  -20.6077  -80.2655 O   0  0  0  0  0  0  0  0  0  0  0  0
   11.1557  -22.7084  -81.4625 O   0  0  0  0  0  0  0  0  0  0  0  0
   11.8114  -22.0284  -82.8659 P   0  0  2  0  0  5  0  0  0  0  0  0
   10.9784  -20.8777  -83.3803 O   0  0  0  0  0  0  0  0  0  0  0  0
   11.8415  -23.2053  -84.0825 O   0  0  0  0  0  0  0  0  0  0  0  0
   13.3868  -21.4762  -82.6121 O   0  0  0  0  0  0  0  0  0  0  0  0
    8.4207  -20.5629  -81.3663 O   0  0  0  0  0  0  0  0  0  0  0  0
    7.7698  -20.0987  -82.8371 P   0  0  1  0  0  5  0  0  0  0  0  0
    8.7862  -20.0737  -83.9443 O   0  0  0  0  0  0  0  0  0  0  0  0
    6.4781  -21.1275  -83.1958 O   0  0  0  0  0  0  0  0  0  0  0  0
    7.1198  -18.5322  -82.6329 O   0  0  0  0  0  0  0  0  0  0  0  0
    6.7565  -22.5118  -81.3439 O   0  0  0  0  0  0  0  0  0  0  0  0
    6.3913  -20.8841  -81.3105 P   0  0  2  0  0  5  0  0  0  0  0  0
    5.7698  -20.5211  -79.7674 O   0  0  0  0  0  0  0  0  0  0  0  0
    5.2810  -20.5323  -82.3001 O   0  0  0  0  0  0  0  0  0  0  0  0
    7.7183  -19.8983  -81.5659 O   0  0  0  0  0  0  0  0  0  0  0  0
  1  2  1  0
  1  6  1  0
  1  7  1  6
  2  3  1  0
  2 12  1  6
  3  4  1  0
  3 17  1  1
  4  5  1  0
  4 22  1  6
  5  6  1  0
  5 27  1  1
  6 32  1  6
  7  8  1  0
  8  9  1  1
  8 10  2  0
  8 11  1  0
 12 13  1  0
 13 14  1  6
 13 15  1  0
 13 16  2  0
 17 18  1  0
 18 19  2  0
 18 20  1  6
 18 21  1  0
 22 23  1  0
 23 24  2  0
 23 25  1  6
 23 26  1  0
 27 28  1  0
 28 29  2  0
 28 30  1  6
 28 31  1  0
 32 33  1  0
 33 34  1  1
 33 35  2  0
 33 36  1  0
M  END
$$$$
