
     RDKit          3D

 36 36  0  0  0  0  0  0  0  0999 V2000
  -16.2030   24.9980  -85.8996 C   0  0  2  0  0  0  0  0  0  0  0  0
  -15.1671   26.0866  -85.7399 C   0  0  2  0  0  0  0  0  0  0  0  0
  -15.0185   26.8497  -87.0075 C   0  0  1  0  0  0  0  0  0  0  0  0
  -14.9593   26.0488  -88.2566 C   0  0  2  0  0  0  0  0  0  0  0  0
  -15.6404   24.7217  -88.2225 C   0  0  1  0  0  0  0  0  0  0  0  0
  -15.5842   24.0216  -86.9081 C   0  0  2  0  0  0  0  0  0  0  0  0
  -17.3035   25.5706  -86.5432 O   0  0  0  0  0  0  0  0  0  0  0  0
  -18.3359   26.1786  -85.3678 P   0  0  2  0  0  5  0  0  0  0  0  0
  -19.1870   27.4729  -86.0413 O   0  0  0  0  0  0  0  0  0  0  0  0
  -17.5027   26.6419  -84.2048 O   0  0  0  0  0  0  0  0  0  0  0  0
  -19.4405   25.0555  -84.8131 O   0  0  0  0  0  0  0  0  0  0  0  0
  -14.0039   25.4982  -85.2945 O   0  0  0  0  0  0  0  0  0  0  0  0
  -13.5225   26.1477  -83.8097 P   0  0  1  0  0  5  0  0  0  0  0  0
  -14.6714   27.1958  -83.1722 O   0  0  0  0  0  0  0  0  0  0  0  0
  -13.2052   24.8990  -82.6880 O   0  0  0  0  0  0  0  0  0  0  0  0
  -12.2266   26.9265  -83.9420 O   0  0  0  0  0  0  0  0  0  0  0  0
  -16.0182   27.8222  -87.0642 O   0  0  0  0  0  0  0  0  0  0  0  0
  -15.4191   29.3763  -87.1852 P   0  0  2  0  0  5  0  0  0  0  0  0
  -16.4683   30.3363  -86.6299 O   0  0  0  0  0  0  0  0  0  0  0  0
  -15.0960   29.8438  -88.7558 O   0  0  0  0  0  0  0  0  0  0  0  0
  -14.0185   29.6035  -86.2603 O   0  0  0  0  0  0  0  0  0  0  0  0
  -13.6469   25.8425  -88.6862 O   0  0  0  0  0  0  0  0  0  0  0  0
  -13.4499   26.1635  -90.3354 P   0  0  2  0  0  5  0  0  0  0  0  0
  -14.2243   27.3854  -90.7712 O   0  0  0  0  0  0  0  0  0  0  0  0
  -14.0466   24.8518  -91.2240 O   0  0  0  0  0  0  0  0  0  0  0  0
  -11.8251   26.3897  -90.7353 O   0  0  0  0  0  0  0  0  0  0  0  0
  -16.9821   24.8639  -88.5788 O   0  0  0  0  0  0  0  0  0  0  0  0
  -17.4441   23.7929  -89.7795 P   0  0  1  0  0  5  0  0  0  0  0  0
  -16.8848   24.1501  -91.1282 O   0  0  0  0  0  0  0  0  0  0  0  0
  -16.9911   22.2352  -89.3063 O   0  0  0  0  0  0  0  0  0  0  0  0
  -19.1506   23.8171  -89.8523 O   0  0  0  0  0  0  0  0  0  0  0  0
  -16.4765   22.9373  -86.9659 O   0  0  0  0  0  0  0  0  0  0  0  0
  -18.0083   23.3307  -86.4339 P   0  0  2  0  0  5  0  0  0  0  0  0
  -18.9924   21.9531  -86.6148 O   0  0  0  0  0  0  0  0  0  0  0  0
  -18.6473   24.4159  -87.3000 O   0  0  0  0  0  0  0  0  0  0  0  0
  -18.0591   23.7806  -84.8237 O   0  0  0  0  0  0  0  0  0  0  0  0
  1  2  1  0
  1  6  1  0
  1  7  1  6
  2  3  1  0
  2 12  1  6
  3  4  1  0
  3 17  1  6
  4  5  1  0
  4 22  1  1
  5  6  1  0
  5 27  1  1
  6 32  1  6
  7  8  1  0
  8  9  1  6
  8 10  2  0
  8 11  1  0
 12 13  1  0
 13 14  1  1
 13 15  1  0
 13 16  2  0
 17 18  1  0
 18 19  2  0
 18 20  1  6
 18 21  1  0
 22 23  1  0
 23 24  2  0
 23 25  1  6
 23 26  1  0
 27 28  1  0
 28 29  2  0
 28 30  1  1
 28 31  1  0
 32 33  1  0
 33 34  1  1
 33 35  2  0
 33 36  1  0
M  END
$$$$
