
     RDKit          3D

 36 36  0  0  0  0  0  0  0  0999 V2000
   -0.5637   -4.3903  -72.1697 C   0  0  2  0  0  0  0  0  0  0  0  0
    0.4174   -3.4348  -72.8085 C   0  0  2  0  0  0  0  0  0  0  0  0
    1.7582   -3.5732  -72.1806 C   0  0  1  0  0  0  0  0  0  0  0  0
    1.7862   -3.6685  -70.6990 C   0  0  2  0  0  0  0  0  0  0  0  0
    0.5622   -4.2225  -70.0501 C   0  0  1  0  0  0  0  0  0  0  0  0
   -0.7183   -3.8802  -70.7314 C   0  0  2  0  0  0  0  0  0  0  0  0
    0.0752   -5.6295  -72.0723 O   0  0  0  0  0  0  0  0  0  0  0  0
   -0.1762   -6.4595  -73.5095 P   0  0  2  0  0  5  0  0  0  0  0  0
    1.2552   -6.3973  -74.4039 O   0  0  0  0  0  0  0  0  0  0  0  0
   -1.2942   -5.7826  -74.2534 O   0  0  0  0  0  0  0  0  0  0  0  0
   -0.5854   -8.0629  -73.2839 O   0  0  0  0  0  0  0  0  0  0  0  0
   -0.1166   -2.1676  -72.7280 O   0  0  0  0  0  0  0  0  0  0  0  0
   -0.9109   -1.7490  -74.1605 P   0  0  1  0  0  5  0  0  0  0  0  0
   -2.0282   -2.9131  -74.6308 O   0  0  0  0  0  0  0  0  0  0  0  0
   -1.6962   -0.2418  -73.9878 O   0  0  0  0  0  0  0  0  0  0  0  0
    0.0701   -1.5775  -75.3057 O   0  0  0  0  0  0  0  0  0  0  0  0
    2.4247   -4.6433  -72.7799 O   0  0  0  0  0  0  0  0  0  0  0  0
    3.6231   -4.1629  -73.8391 P   0  0  2  0  0  5  0  0  0  0  0  0
    4.4460   -5.3920  -74.2170 O   0  0  0  0  0  0  0  0  0  0  0  0
    4.6737   -3.0392  -73.1888 O   0  0  0  0  0  0  0  0  0  0  0  0
    2.9972   -3.5376  -75.2833 O   0  0  0  0  0  0  0  0  0  0  0  0
    2.0663   -2.4391  -70.0991 O   0  0  0  0  0  0  0  0  0  0  0  0
    3.2810   -2.5549  -68.9273 P   0  0  2  0  0  5  0  0  0  0  0  0
    2.8837   -1.8870  -67.6317 O   0  0  0  0  0  0  0  0  0  0  0  0
    4.6655   -1.7615  -69.4933 O   0  0  0  0  0  0  0  0  0  0  0  0
    3.6783   -4.1630  -68.5999 O   0  0  0  0  0  0  0  0  0  0  0  0
    0.6508   -5.6129  -69.9713 O   0  0  0  0  0  0  0  0  0  0  0  0
    0.2795   -6.1941  -68.4459 P   0  0  1  0  0  5  0  0  0  0  0  0
   -0.1076   -7.6465  -68.4520 O   0  0  0  0  0  0  0  0  0  0  0  0
    1.5973   -5.9014  -67.4295 O   0  0  0  0  0  0  0  0  0  0  0  0
   -1.0257   -5.2652  -67.8527 O   0  0  0  0  0  0  0  0  0  0  0  0
   -1.7274   -4.6773  -70.1643 O   0  0  0  0  0  0  0  0  0  0  0  0
   -2.3065   -5.8345  -71.2177 P   0  0  2  0  0  5  0  0  0  0  0  0
   -3.4955   -6.7365  -70.3984 O   0  0  0  0  0  0  0  0  0  0  0  0
   -1.2211   -6.8361  -71.6112 O   0  0  0  0  0  0  0  0  0  0  0  0
   -3.0155   -5.1914  -72.5895 O   0  0  0  0  0  0  0  0  0  0  0  0
  1  2  1  0
  1  6  1  0
  1  7  1  1
  2  3  1  0
  2 12  1  1
  3  4  1  0
  3 17  1  6
  4  5  1  0
  4 22  1  1
  5  6  1  0
  5 27  1  6
  6 32  1  1
  7  8  1  0
  8  9  1  6
  8 10  2  0
  8 11  1  0
 12 13  1  0
 13 14  1  6
 13 15  1  0
 13 16  2  0
 17 18  1  0
 18 19  2  0
 18 20  1  1
 18 21  1  0
 22 23  1  0
 23 24  2  0
 23 25  1  6
 23 26  1  0
 27 28  1  0
 28 29  2  0
 28 30  1  1
 28 31  1  0
 32 33  1  0
 33 34  1  1
 33 35  2  0
 33 36  1  0
M  END
$$$$
