
     RDKit          3D

 36 36  0  0  0  0  0  0  0  0999 V2000
    7.6233  -21.1928  -78.9259 C   0  0  2  0  0  0  0  0  0  0  0  0
    8.2935  -21.1795  -80.2803 C   0  0  2  0  0  0  0  0  0  0  0  0
    9.7652  -21.0312  -80.1280 C   0  0  1  0  0  0  0  0  0  0  0  0
   10.2281  -20.0207  -79.1432 C   0  0  2  0  0  0  0  0  0  0  0  0
    9.2952  -19.7199  -78.0183 C   0  0  1  0  0  0  0  0  0  0  0  0
    7.8483  -19.7809  -78.3702 C   0  0  2  0  0  0  0  0  0  0  0  0
    8.3654  -22.0509  -78.1097 O   0  0  0  0  0  0  0  0  0  0  0  0
    7.3471  -23.2752  -77.5791 P   0  0  2  0  0  5  0  0  0  0  0  0
    7.5768  -24.6147  -78.5821 O   0  0  0  0  0  0  0  0  0  0  0  0
    5.9298  -22.7812  -77.6732 O   0  0  0  0  0  0  0  0  0  0  0  0
    7.6409  -23.7427  -76.0029 O   0  0  0  0  0  0  0  0  0  0  0  0
    7.7004  -20.1902  -81.0332 O   0  0  0  0  0  0  0  0  0  0  0  0
    6.2942  -20.7553  -81.7827 P   0  0  1  0  0  5  0  0  0  0  0  0
    5.6225  -19.6133  -82.8168 O   0  0  0  0  0  0  0  0  0  0  0  0
    6.6175  -22.1905  -82.6510 O   0  0  0  0  0  0  0  0  0  0  0  0
    5.2320  -21.1181  -80.7612 O   0  0  0  0  0  0  0  0  0  0  0  0
   10.3181  -22.2881  -79.8772 O   0  0  0  0  0  0  0  0  0  0  0  0
   11.0739  -22.9530  -81.2097 P   0  0  2  0  0  5  0  0  0  0  0  0
   10.0181  -23.6672  -82.0497 O   0  0  0  0  0  0  0  0  0  0  0  0
   12.2448  -24.0777  -80.8175 O   0  0  0  0  0  0  0  0  0  0  0  0
   11.7735  -21.7784  -82.2095 O   0  0  0  0  0  0  0  0  0  0  0  0
   10.5646  -18.8101  -79.7521 O   0  0  0  0  0  0  0  0  0  0  0  0
   12.2197  -18.4750  -79.6507 P   0  0  2  0  0  5  0  0  0  0  0  0
   12.9443  -18.8058  -80.9345 O   0  0  0  0  0  0  0  0  0  0  0  0
   12.8994  -19.4348  -78.4329 O   0  0  0  0  0  0  0  0  0  0  0  0
   12.5043  -16.8527  -79.2790 O   0  0  0  0  0  0  0  0  0  0  0  0
    9.5200  -20.6034  -76.9618 O   0  0  0  0  0  0  0  0  0  0  0  0
    9.3065  -19.8825  -75.4661 P   0  0  1  0  0  5  0  0  0  0  0  0
    9.8723  -18.4914  -75.4016 O   0  0  0  0  0  0  0  0  0  0  0  0
    7.6583  -19.9061  -75.0944 O   0  0  0  0  0  0  0  0  0  0  0  0
   10.0937  -20.8654  -74.3118 O   0  0  0  0  0  0  0  0  0  0  0  0
    7.1173  -19.7364  -77.1707 O   0  0  0  0  0  0  0  0  0  0  0  0
    5.7282  -18.8200  -77.2930 P   0  0  2  0  0  5  0  0  0  0  0  0
    4.5032  -19.8138  -77.9337 O   0  0  0  0  0  0  0  0  0  0  0  0
    5.8940  -17.6701  -78.2861 O   0  0  0  0  0  0  0  0  0  0  0  0
    5.1862  -18.2327  -75.8236 O   0  0  0  0  0  0  0  0  0  0  0  0
  1  2  1  0
  1  6  1  0
  1  7  1  1
  2  3  1  0
  2 12  1  6
  3  4  1  0
  3 17  1  1
  4  5  1  0
  4 22  1  6
  5  6  1  0
  5 27  1  1
  6 32  1  1
  7  8  1  0
  8  9  1  6
  8 10  2  0
  8 11  1  0
 12 13  1  0
 13 14  1  6
 13 15  1  0
 13 16  2  0
 17 18  1  0
 18 19  2  0
 18 20  1  1
 18 21  1  0
 22 23  1  0
 23 24  2  0
 23 25  1  1
 23 26  1  0
 27 28  1  0
 28 29  2  0
 28 30  1  1
 28 31  1  0
 32 33  1  0
 33 34  1  6
 33 35  2  0
 33 36  1  0
M  END
$$$$
