
     RDKit          3D

 36 36  0  0  0  0  0  0  0  0999 V2000
    2.5237    1.4944  -80.5058 C   0  0  2  0  0  0  0  0  0  0  0  0
    3.7201    0.8278  -81.1444 C   0  0  2  0  0  0  0  0  0  0  0  0
    3.6471    0.9423  -82.6253 C   0  0  1  0  0  0  0  0  0  0  0  0
    2.3237    0.6743  -83.2432 C   0  0  2  0  0  0  0  0  0  0  0  0
    1.1306    0.9268  -82.3835 C   0  0  1  0  0  0  0  0  0  0  0  0
    1.3281    0.6348  -80.9354 C   0  0  2  0  0  0  0  0  0  0  0  0
    2.3568    2.7298  -81.1376 O   0  0  0  0  0  0  0  0  0  0  0  0
    1.7735    3.8206  -80.0031 P   0  0  2  0  0  5  0  0  0  0  0  0
    3.0889    4.6782  -79.3810 O   0  0  0  0  0  0  0  0  0  0  0  0
    1.0865    3.0435  -78.9142 O   0  0  0  0  0  0  0  0  0  0  0  0
    0.6850    4.9165  -80.6385 O   0  0  0  0  0  0  0  0  0  0  0  0
    3.7777   -0.4675  -80.6796 O   0  0  0  0  0  0  0  0  0  0  0  0
    5.2213   -0.7523  -79.8469 P   0  0  1  0  0  5  0  0  0  0  0  0
    6.5690   -0.2743  -80.7299 O   0  0  0  0  0  0  0  0  0  0  0  0
    5.2100    0.0553  -78.3416 O   0  0  0  0  0  0  0  0  0  0  0  0
    5.3921   -2.2259  -79.5264 O   0  0  0  0  0  0  0  0  0  0  0  0
    4.1511    2.1879  -83.0032 O   0  0  0  0  0  0  0  0  0  0  0  0
    5.5046    2.0832  -83.9758 P   0  0  2  0  0  5  0  0  0  0  0  0
    5.3534    0.8572  -84.8728 O   0  0  0  0  0  0  0  0  0  0  0  0
    6.9267    1.9025  -83.1187 O   0  0  0  0  0  0  0  0  0  0  0  0
    5.6661    3.4184  -85.0053 O   0  0  0  0  0  0  0  0  0  0  0  0
    2.2272   -0.6299  -83.7323 O   0  0  0  0  0  0  0  0  0  0  0  0
    2.1017   -0.6790  -85.4187 P   0  0  2  0  0  5  0  0  0  0  0  0
    3.2183   -1.4800  -86.0467 O   0  0  0  0  0  0  0  0  0  0  0  0
    2.2187    0.8982  -86.0228 O   0  0  0  0  0  0  0  0  0  0  0  0
    0.6278   -1.3371  -85.9139 O   0  0  0  0  0  0  0  0  0  0  0  0
    0.7275    2.2573  -82.5044 O   0  0  0  0  0  0  0  0  0  0  0  0
   -0.7628    2.4107  -83.2511 P   0  0  1  0  0  5  0  0  0  0  0  0
   -0.6773    2.3266  -84.7495 O   0  0  0  0  0  0  0  0  0  0  0  0
   -1.7996    1.2371  -82.6161 O   0  0  0  0  0  0  0  0  0  0  0  0
   -1.3987    3.9328  -82.8073 O   0  0  0  0  0  0  0  0  0  0  0  0
    0.2262    1.1634  -80.2416 O   0  0  0  0  0  0  0  0  0  0  0  0
    0.0160    0.4717  -78.7377 P   0  0  2  0  0  5  0  0  0  0  0  0
    0.2501    1.6867  -77.5681 O   0  0  0  0  0  0  0  0  0  0  0  0
    1.0750   -0.5923  -78.4508 O   0  0  0  0  0  0  0  0  0  0  0  0
   -1.5128   -0.1660  -78.5056 O   0  0  0  0  0  0  0  0  0  0  0  0
  1  2  1  0
  1  6  1  0
  1  7  1  6
  2  3  1  0
  2 12  1  6
  3  4  1  0
  3 17  1  1
  4  5  1  0
  4 22  1  1
  5  6  1  0
  5 27  1  1
  6 32  1  1
  7  8  1  0
  8  9  1  1
  8 10  2  0
  8 11  1  0
 12 13  1  0
 13 14  1  6
 13 15  1  0
 13 16  2  0
 17 18  1  0
 18 19  2  0
 18 20  1  1
 18 21  1  0
 22 23  1  0
 23 24  2  0
 23 25  1  6
 23 26  1  0
 27 28  1  0
 28 29  2  0
 28 30  1  1
 28 31  1  0
 32 33  1  0
 33 34  1  1
 33 35  2  0
 33 36  1  0
M  END
$$$$
