
     RDKit          3D

 33 37  0  0  0  0  0  0  0  0999 V2000
   26.9031   19.7943    6.2183 O   0  0  0  0  0  0  0  0  0  0  0  0
   27.1643   19.7168    7.4404 C   0  0  0  0  0  0  0  0  0  0  0  0
   26.0964   19.6530    8.3630 N   0  0  0  0  0  0  0  0  0  0  0  0
   28.5791   19.6974    7.8328 C   0  0  0  0  0  0  0  0  0  0  0  0
   29.5239   19.0345    7.0814 C   0  0  0  0  0  0  0  0  0  0  0  0
   30.8682   19.0204    7.4609 C   0  0  0  0  0  0  0  0  0  0  0  0
   31.8605   18.2971    6.6294 C   0  0  0  0  0  0  0  0  0  0  0  0
   29.0136   20.3467    8.9750 C   0  0  0  0  0  0  0  0  0  0  0  0
   30.3473   20.3238    9.3379 C   0  0  0  0  0  0  0  0  0  0  0  0
   31.2994   19.6649    8.5948 C   0  0  0  0  0  0  0  0  0  0  0  0
   32.6829   19.6077    8.9189 N   0  0  0  0  0  0  0  0  0  0  0  0
   33.7070   20.0719    8.2277 N   0  0  0  0  0  0  0  0  0  0  0  0
   34.8642   19.8024    8.9055 C   0  0  0  0  0  0  0  0  0  0  0  0
   36.2340   20.1564    8.4482 C   0  0  1  0  0  0  0  0  0  0  0  0
   36.6001   19.4094    7.1607 C   0  0  0  0  0  0  0  0  0  0  0  0
   36.1570   21.6325    8.0182 C   0  0  0  0  0  0  0  0  0  0  0  0
   34.5054   19.1545   10.0399 C   0  0  0  0  0  0  0  0  0  0  0  0
   33.1350   19.0331   10.0462 C   0  0  0  0  0  0  0  0  0  0  0  0
   32.4586   18.4201   11.0682 N   0  0  0  0  0  0  0  0  0  0  0  0
   33.1208   17.9147   12.1049 C   0  0  0  0  0  0  0  0  0  0  0  0
   34.4735   18.0265   12.1144 C   0  0  0  0  0  0  0  0  0  0  0  0
   35.2183   18.6429   11.0970 C   0  0  0  0  0  0  0  0  0  0  0  0
   36.6230   18.7263   11.1808 N   0  0  0  0  0  0  0  0  0  0  0  0
   37.4314   17.7430   11.5763 C   0  0  0  0  0  0  0  0  0  0  0  0
   38.7057   18.1516   11.5253 N   0  0  0  0  0  0  0  0  0  0  0  0
   37.4063   19.7668   10.8776 C   0  0  0  0  0  0  0  0  0  0  0  0
   38.7468   19.4223   11.0906 C   0  0  0  0  0  0  0  0  0  0  0  0
   39.8975   20.2889   10.8732 C   0  0  0  0  0  0  0  0  0  0  0  0
   39.9056   21.4976   10.2120 C   0  0  0  0  0  0  0  0  0  0  0  0
   41.1758   21.9630   10.2414 N   0  0  0  0  0  0  0  0  0  0  0  0
   41.2031   20.0984   11.2704 C   0  0  0  0  0  0  0  0  0  0  0  0
   41.9759   21.1271   10.8793 N   0  0  0  0  0  0  0  0  0  0  0  0
   43.4181   21.2928   11.1116 C   0  0  0  0  0  0  0  0  0  0  0  0
  1  2  2  0
  2  3  1  0
  2  4  1  0
  4  5  2  0
  4  8  1  0
  5  6  1  0
  6  7  1  0
  6 10  2  0
  8  9  2  0
  9 10  1  0
 10 11  1  0
 11 12  1  0
 11 18  1  0
 12 13  2  0
 13 14  1  0
 13 17  1  0
 14 15  1  6
 14 16  1  0
 17 18  2  0
 17 22  1  0
 18 19  1  0
 19 20  2  0
 20 21  1  0
 21 22  2  0
 22 23  1  0
 23 24  1  0
 23 26  1  0
 24 25  2  0
 25 27  1  0
 26 27  2  0
 27 28  1  0
 28 29  1  0
 28 31  2  0
 29 30  2  0
 30 32  1  0
 31 32  1  0
 32 33  1  0
M  END
$$$$
