
     RDKit          3D

 33 37  0  0  0  0  0  0  0  0999 V2000
   26.5899   21.6441    7.4921 O   0  0  0  0  0  0  0  0  0  0  0  0
   27.1404   20.5441    7.2578 C   0  0  0  0  0  0  0  0  0  0  0  0
   26.4053   19.5440    6.5834 N   0  0  0  0  0  0  0  0  0  0  0  0
   28.5277   20.3696    7.7061 C   0  0  0  0  0  0  0  0  0  0  0  0
   29.3111   19.3399    7.2337 C   0  0  0  0  0  0  0  0  0  0  0  0
   30.6302   19.1800    7.6647 C   0  0  0  0  0  0  0  0  0  0  0  0
   31.4468   18.0607    7.1364 C   0  0  0  0  0  0  0  0  0  0  0  0
   29.0982   21.2363    8.6217 C   0  0  0  0  0  0  0  0  0  0  0  0
   30.4049   21.0653    9.0389 C   0  0  0  0  0  0  0  0  0  0  0  0
   31.1963   20.0406    8.5737 C   0  0  0  0  0  0  0  0  0  0  0  0
   32.5444   19.8160    8.9666 N   0  0  0  0  0  0  0  0  0  0  0  0
   33.6508   20.1464    8.3273 N   0  0  0  0  0  0  0  0  0  0  0  0
   34.7311   19.7414    9.0622 C   0  0  0  0  0  0  0  0  0  0  0  0
   36.1550   19.9215    8.6739 C   0  0  1  0  0  0  0  0  0  0  0  0
   36.4623   19.2173    7.3476 C   0  0  0  0  0  0  0  0  0  0  0  0
   36.3082   21.4187    8.3497 C   0  0  0  0  0  0  0  0  0  0  0  0
   34.2395   19.1500   10.1776 C   0  0  0  0  0  0  0  0  0  0  0  0
   32.8660   19.1978   10.1154 C   0  0  0  0  0  0  0  0  0  0  0  0
   32.0695   18.6793   11.1025 N   0  0  0  0  0  0  0  0  0  0  0  0
   32.6123   18.1033   12.1714 C   0  0  0  0  0  0  0  0  0  0  0  0
   33.9663   18.0482   12.2485 C   0  0  0  0  0  0  0  0  0  0  0  0
   34.8308   18.5618   11.2693 C   0  0  0  0  0  0  0  0  0  0  0  0
   36.2292   18.4727   11.4233 N   0  0  0  0  0  0  0  0  0  0  0  0
   36.8793   17.4552   11.9879 C   0  0  0  0  0  0  0  0  0  0  0  0
   38.1984   17.6842   11.9591 N   0  0  0  0  0  0  0  0  0  0  0  0
   37.1587   19.3523   11.0353 C   0  0  0  0  0  0  0  0  0  0  0  0
   38.4299   18.8685   11.3683 C   0  0  0  0  0  0  0  0  0  0  0  0
   39.6959   19.5411   11.1089 C   0  0  0  0  0  0  0  0  0  0  0  0
   40.9514   19.1015   11.4681 C   0  0  0  0  0  0  0  0  0  0  0  0
   41.8397   20.0254   11.0344 N   0  0  0  0  0  0  0  0  0  0  0  0
   39.9158   20.7378   10.4622 C   0  0  0  0  0  0  0  0  0  0  0  0
   41.2291   21.0245   10.4222 N   0  0  0  0  0  0  0  0  0  0  0  0
   41.8618   22.2074    9.8208 C   0  0  0  0  0  0  0  0  0  0  0  0
  1  2  2  0
  2  3  1  0
  2  4  1  0
  4  5  2  0
  4  8  1  0
  5  6  1  0
  6  7  1  0
  6 10  2  0
  8  9  2  0
  9 10  1  0
 10 11  1  0
 11 12  1  0
 11 18  1  0
 12 13  2  0
 13 14  1  0
 13 17  1  0
 14 15  1  6
 14 16  1  0
 17 18  2  0
 17 22  1  0
 18 19  1  0
 19 20  2  0
 20 21  1  0
 21 22  2  0
 22 23  1  0
 23 24  1  0
 23 26  1  0
 24 25  2  0
 25 27  1  0
 26 27  2  0
 27 28  1  0
 28 29  1  0
 28 31  2  0
 29 30  2  0
 30 32  1  0
 31 32  1  0
 32 33  1  0
M  END
$$$$
