
     RDKit          3D

 33 37  0  0  0  0  0  0  0  0999 V2000
   26.3460   20.0607    9.0023 O   0  0  0  0  0  0  0  0  0  0  0  0
   27.1007   20.9978    8.6556 C   0  0  0  0  0  0  0  0  0  0  0  0
   26.5304   22.1551    8.0804 N   0  0  0  0  0  0  0  0  0  0  0  0
   28.5424   20.8253    8.8740 C   0  0  0  0  0  0  0  0  0  0  0  0
   29.1222   19.5760    8.8897 C   0  0  0  0  0  0  0  0  0  0  0  0
   30.4946   19.4196    9.0982 C   0  0  0  0  0  0  0  0  0  0  0  0
   31.0874   18.0604    9.1092 C   0  0  0  0  0  0  0  0  0  0  0  0
   29.3714   21.9154    9.0724 C   0  0  0  0  0  0  0  0  0  0  0  0
   30.7278   21.7449    9.2774 C   0  0  0  0  0  0  0  0  0  0  0  0
   31.3173   20.5019    9.2951 C   0  0  0  0  0  0  0  0  0  0  0  0
   32.7046   20.2665    9.5011 N   0  0  0  0  0  0  0  0  0  0  0  0
   33.7043   20.4717    8.6643 N   0  0  0  0  0  0  0  0  0  0  0  0
   34.8765   20.1087    9.2687 C   0  0  0  0  0  0  0  0  0  0  0  0
   36.2256   20.1803    8.6477 C   0  0  1  0  0  0  0  0  0  0  0  0
   36.4109   19.0825    7.5941 C   0  0  0  0  0  0  0  0  0  0  0  0
   36.2370   21.4878    7.8352 C   0  0  0  0  0  0  0  0  0  0  0  0
   34.5522   19.6732   10.5100 C   0  0  0  0  0  0  0  0  0  0  0  0
   33.1876   19.7730   10.6537 C   0  0  0  0  0  0  0  0  0  0  0  0
   32.5439   19.4083   11.8071 N   0  0  0  0  0  0  0  0  0  0  0  0
   33.2338   18.9378   12.8423 C   0  0  0  0  0  0  0  0  0  0  0  0
   34.5813   18.8334   12.7170 C   0  0  0  0  0  0  0  0  0  0  0  0
   35.2933   19.1912   11.5616 C   0  0  0  0  0  0  0  0  0  0  0  0
   36.6959   19.0601   11.5091 N   0  0  0  0  0  0  0  0  0  0  0  0
   37.3753   17.9410   11.7592 C   0  0  0  0  0  0  0  0  0  0  0  0
   38.6876   18.1601   11.6063 N   0  0  0  0  0  0  0  0  0  0  0  0
   37.5996   19.9941   11.1945 C   0  0  0  0  0  0  0  0  0  0  0  0
   38.8847   19.4405   11.2499 C   0  0  0  0  0  0  0  0  0  0  0  0
   40.1309   20.1423   10.9728 C   0  0  0  0  0  0  0  0  0  0  0  0
   40.3337   21.1164   10.0197 C   0  0  0  0  0  0  0  0  0  0  0  0
   41.6301   21.4952   10.1021 N   0  0  0  0  0  0  0  0  0  0  0  0
   41.3555   19.9926   11.5865 C   0  0  0  0  0  0  0  0  0  0  0  0
   42.2645   20.8239   11.0469 N   0  0  0  0  0  0  0  0  0  0  0  0
   43.6779   20.9617   11.4273 C   0  0  0  0  0  0  0  0  0  0  0  0
  1  2  2  0
  2  3  1  0
  2  4  1  0
  4  5  2  0
  4  8  1  0
  5  6  1  0
  6  7  1  0
  6 10  2  0
  8  9  2  0
  9 10  1  0
 10 11  1  0
 11 12  1  0
 11 18  1  0
 12 13  2  0
 13 14  1  0
 13 17  1  0
 14 15  1  6
 14 16  1  0
 17 18  2  0
 17 22  1  0
 18 19  1  0
 19 20  2  0
 20 21  1  0
 21 22  2  0
 22 23  1  0
 23 24  1  0
 23 26  1  0
 24 25  2  0
 25 27  1  0
 26 27  2  0
 27 28  1  0
 28 29  1  0
 28 31  2  0
 29 30  2  0
 30 32  1  0
 31 32  1  0
 32 33  1  0
M  END
$$$$
