
     RDKit          3D

 33 37  0  0  0  0  0  0  0  0999 V2000
   26.9977   18.9208    6.7094 O   0  0  0  0  0  0  0  0  0  0  0  0
   27.3809   19.3846    7.8075 C   0  0  0  0  0  0  0  0  0  0  0  0
   26.4143   19.8607    8.7210 N   0  0  0  0  0  0  0  0  0  0  0  0
   28.8253   19.4009    8.0711 C   0  0  0  0  0  0  0  0  0  0  0  0
   29.3465   20.0352    9.1770 C   0  0  0  0  0  0  0  0  0  0  0  0
   30.7218   20.0466    9.4214 C   0  0  0  0  0  0  0  0  0  0  0  0
   31.2507   20.7387   10.6215 C   0  0  0  0  0  0  0  0  0  0  0  0
   29.7159   18.7775    7.2149 C   0  0  0  0  0  0  0  0  0  0  0  0
   31.0744   18.7972    7.4699 C   0  0  0  0  0  0  0  0  0  0  0  0
   31.6058   19.4277    8.5713 C   0  0  0  0  0  0  0  0  0  0  0  0
   32.9921   19.4804    8.8838 N   0  0  0  0  0  0  0  0  0  0  0  0
   33.9719   20.0148    8.1793 N   0  0  0  0  0  0  0  0  0  0  0  0
   35.1518   19.8422    8.8495 C   0  0  0  0  0  0  0  0  0  0  0  0
   36.4866   20.2958    8.3769 C   0  0  1  0  0  0  0  0  0  0  0  0
   36.7651   19.8098    6.9501 C   0  0  0  0  0  0  0  0  0  0  0  0
   36.3779   21.8253    8.2392 C   0  0  0  0  0  0  0  0  0  0  0  0
   34.8530   19.1805    9.9932 C   0  0  0  0  0  0  0  0  0  0  0  0
   33.4961   18.9541   10.0127 C   0  0  0  0  0  0  0  0  0  0  0  0
   32.8770   18.3015   11.0464 N   0  0  0  0  0  0  0  0  0  0  0  0
   33.5845   17.8593   12.0823 C   0  0  0  0  0  0  0  0  0  0  0  0
   34.9245   18.0750   12.0789 C   0  0  0  0  0  0  0  0  0  0  0  0
   35.6115   18.7362   11.0490 C   0  0  0  0  0  0  0  0  0  0  0  0
   37.0063   18.9284   11.1198 N   0  0  0  0  0  0  0  0  0  0  0  0
   37.9022   17.9800   11.3929 C   0  0  0  0  0  0  0  0  0  0  0  0
   39.1370   18.4977   11.3672 N   0  0  0  0  0  0  0  0  0  0  0  0
   37.6937   20.0579   10.9201 C   0  0  0  0  0  0  0  0  0  0  0  0
   39.0628   19.8068   11.0735 C   0  0  0  0  0  0  0  0  0  0  0  0
   40.1327   20.7857   10.9344 C   0  0  0  0  0  0  0  0  0  0  0  0
   40.0143   22.0741   10.4607 C   0  0  0  0  0  0  0  0  0  0  0  0
   41.2467   22.6313   10.5002 N   0  0  0  0  0  0  0  0  0  0  0  0
   41.4695   20.6457   11.2378 C   0  0  0  0  0  0  0  0  0  0  0  0
   42.1412   21.7792   10.9687 N   0  0  0  0  0  0  0  0  0  0  0  0
   43.5785   22.0253   11.1560 C   0  0  0  0  0  0  0  0  0  0  0  0
  1  2  2  0
  2  3  1  0
  2  4  1  0
  4  5  2  0
  4  8  1  0
  5  6  1  0
  6  7  1  0
  6 10  2  0
  8  9  2  0
  9 10  1  0
 10 11  1  0
 11 12  1  0
 11 18  1  0
 12 13  2  0
 13 14  1  0
 13 17  1  0
 14 15  1  6
 14 16  1  0
 17 18  2  0
 17 22  1  0
 18 19  1  0
 19 20  2  0
 20 21  1  0
 21 22  2  0
 22 23  1  0
 23 24  1  0
 23 26  1  0
 24 25  2  0
 25 27  1  0
 26 27  2  0
 27 28  1  0
 28 29  1  0
 28 31  2  0
 29 30  2  0
 30 32  1  0
 31 32  1  0
 32 33  1  0
M  END
$$$$
