
     RDKit          3D

 33 37  0  0  0  0  0  0  0  0999 V2000
   26.5759   18.8559    6.7239 O   0  0  0  0  0  0  0  0  0  0  0  0
   26.9331   19.6709    7.6048 C   0  0  0  0  0  0  0  0  0  0  0  0
   25.9612   20.5143    8.1876 N   0  0  0  0  0  0  0  0  0  0  0  0
   28.3541   19.6926    7.9743 C   0  0  0  0  0  0  0  0  0  0  0  0
   29.2414   18.7672    7.4709 C   0  0  0  0  0  0  0  0  0  0  0  0
   30.5919   18.7939    7.8268 C   0  0  0  0  0  0  0  0  0  0  0  0
   31.5211   17.7829    7.2670 C   0  0  0  0  0  0  0  0  0  0  0  0
   28.8528   20.6467    8.8438 C   0  0  0  0  0  0  0  0  0  0  0  0
   30.1918   20.6605    9.1868 C   0  0  0  0  0  0  0  0  0  0  0  0
   31.0867   19.7412    8.6901 C   0  0  0  0  0  0  0  0  0  0  0  0
   32.4726   19.7070    9.0072 N   0  0  0  0  0  0  0  0  0  0  0  0
   33.4899   20.1376    8.2850 N   0  0  0  0  0  0  0  0  0  0  0  0
   34.6529   19.9095    8.9683 C   0  0  0  0  0  0  0  0  0  0  0  0
   36.0180   20.2440    8.4832 C   0  0  1  0  0  0  0  0  0  0  0  0
   36.2908   19.6128    7.1133 C   0  0  0  0  0  0  0  0  0  0  0  0
   35.9971   21.7576    8.2030 C   0  0  0  0  0  0  0  0  0  0  0  0
   34.3045   19.3220   10.1383 C   0  0  0  0  0  0  0  0  0  0  0  0
   32.9347   19.1955   10.1605 C   0  0  0  0  0  0  0  0  0  0  0  0
   32.2679   18.6356   11.2186 N   0  0  0  0  0  0  0  0  0  0  0  0
   32.9393   18.1892   12.2763 C   0  0  0  0  0  0  0  0  0  0  0  0
   34.2915   18.3068   12.2705 C   0  0  0  0  0  0  0  0  0  0  0  0
   35.0267   18.8707   11.2163 C   0  0  0  0  0  0  0  0  0  0  0  0
   36.4316   18.9642   11.2859 N   0  0  0  0  0  0  0  0  0  0  0  0
   37.1124   20.0142   11.7448 C   0  0  0  0  0  0  0  0  0  0  0  0
   38.4273   19.7674   11.6838 N   0  0  0  0  0  0  0  0  0  0  0  0
   37.3370   18.0459   10.9323 C   0  0  0  0  0  0  0  0  0  0  0  0
   38.6247   18.5383   11.1783 C   0  0  0  0  0  0  0  0  0  0  0  0
   39.8734   17.8322   10.9240 C   0  0  0  0  0  0  0  0  0  0  0  0
   40.0109   16.5480   10.4441 C   0  0  0  0  0  0  0  0  0  0  0  0
   41.3366   16.2910   10.3587 N   0  0  0  0  0  0  0  0  0  0  0  0
   41.1644   18.2795   11.1020 C   0  0  0  0  0  0  0  0  0  0  0  0
   42.0508   17.3301   10.7536 N   0  0  0  0  0  0  0  0  0  0  0  0
   43.5172   17.4241   10.8008 C   0  0  0  0  0  0  0  0  0  0  0  0
  1  2  2  0
  2  3  1  0
  2  4  1  0
  4  5  2  0
  4  8  1  0
  5  6  1  0
  6  7  1  0
  6 10  2  0
  8  9  2  0
  9 10  1  0
 10 11  1  0
 11 12  1  0
 11 18  1  0
 12 13  2  0
 13 14  1  0
 13 17  1  0
 14 15  1  6
 14 16  1  0
 17 18  2  0
 17 22  1  0
 18 19  1  0
 19 20  2  0
 20 21  1  0
 21 22  2  0
 22 23  1  0
 23 24  1  0
 23 26  1  0
 24 25  2  0
 25 27  1  0
 26 27  2  0
 27 28  1  0
 28 29  1  0
 28 31  2  0
 29 30  2  0
 30 32  1  0
 31 32  1  0
 32 33  1  0
M  END
$$$$
