
     RDKit          3D

 33 37  0  0  0  0  0  0  0  0999 V2000
   27.1625   18.9378    6.6151 O   0  0  0  0  0  0  0  0  0  0  0  0
   27.5549   19.3557    7.7283 C   0  0  0  0  0  0  0  0  0  0  0  0
   26.5938   19.7430    8.6884 N   0  0  0  0  0  0  0  0  0  0  0  0
   29.0037   19.4144    7.9597 C   0  0  0  0  0  0  0  0  0  0  0  0
   29.5216   19.6716    9.2098 C   0  0  0  0  0  0  0  0  0  0  0  0
   30.9011   19.7259    9.4225 C   0  0  0  0  0  0  0  0  0  0  0  0
   31.4262   20.0050   10.7809 C   0  0  0  0  0  0  0  0  0  0  0  0
   29.9020   19.2127    6.9266 C   0  0  0  0  0  0  0  0  0  0  0  0
   31.2645   19.2696    7.1524 C   0  0  0  0  0  0  0  0  0  0  0  0
   31.7927   19.5257    8.3968 C   0  0  0  0  0  0  0  0  0  0  0  0
   33.1830   19.5960    8.6876 N   0  0  0  0  0  0  0  0  0  0  0  0
   33.8884   18.8399    9.5077 N   0  0  0  0  0  0  0  0  0  0  0  0
   35.1927   19.2519    9.4869 C   0  0  0  0  0  0  0  0  0  0  0  0
   36.2977   18.6580   10.2850 C   0  0  1  0  0  0  0  0  0  0  0  0
   35.8031   18.1951   11.6600 C   0  0  0  0  0  0  0  0  0  0  0  0
   36.6742   17.3525    9.5611 C   0  0  0  0  0  0  0  0  0  0  0  0
   35.2556   20.2910    8.6199 C   0  0  0  0  0  0  0  0  0  0  0  0
   33.9923   20.5055    8.1192 C   0  0  0  0  0  0  0  0  0  0  0  0
   33.7229   21.4944    7.2096 N   0  0  0  0  0  0  0  0  0  0  0  0
   34.6949   22.2916    6.7755 C   0  0  0  0  0  0  0  0  0  0  0  0
   35.9474   22.0931    7.2593 C   0  0  0  0  0  0  0  0  0  0  0  0
   36.2815   21.0977    8.1907 C   0  0  0  0  0  0  0  0  0  0  0  0
   37.6086   20.9487    8.6423 N   0  0  0  0  0  0  0  0  0  0  0  0
   38.6661   20.7172    7.8647 C   0  0  0  0  0  0  0  0  0  0  0  0
   39.7748   20.6438    8.6122 N   0  0  0  0  0  0  0  0  0  0  0  0
   38.0650   21.0210    9.8972 C   0  0  0  0  0  0  0  0  0  0  0  0
   39.4520   20.8285    9.9033 C   0  0  0  0  0  0  0  0  0  0  0  0
   40.3113   20.8362   11.0797 C   0  0  0  0  0  0  0  0  0  0  0  0
   39.9057   20.8468   12.3964 C   0  0  0  0  0  0  0  0  0  0  0  0
   41.0224   20.8511   13.1606 N   0  0  0  0  0  0  0  0  0  0  0  0
   41.6880   20.8347   11.1375 C   0  0  0  0  0  0  0  0  0  0  0  0
   42.1122   20.8439   12.4136 N   0  0  0  0  0  0  0  0  0  0  0  0
   43.5041   20.8455   12.8866 C   0  0  0  0  0  0  0  0  0  0  0  0
  1  2  2  0
  2  3  1  0
  2  4  1  0
  4  5  2  0
  4  8  1  0
  5  6  1  0
  6  7  1  0
  6 10  2  0
  8  9  2  0
  9 10  1  0
 10 11  1  0
 11 12  1  0
 11 18  1  0
 12 13  2  0
 13 14  1  0
 13 17  1  0
 14 15  1  1
 14 16  1  0
 17 18  2  0
 17 22  1  0
 18 19  1  0
 19 20  2  0
 20 21  1  0
 21 22  2  0
 22 23  1  0
 23 24  1  0
 23 26  1  0
 24 25  2  0
 25 27  1  0
 26 27  2  0
 27 28  1  0
 28 29  1  0
 28 31  2  0
 29 30  2  0
 30 32  1  0
 31 32  1  0
 32 33  1  0
M  END
$$$$
