
     RDKit          3D

 33 37  0  0  0  0  0  0  0  0999 V2000
   26.2626   20.9728    7.8345 O   0  0  0  0  0  0  0  0  0  0  0  0
   27.0133   20.0510    7.4412 C   0  0  0  0  0  0  0  0  0  0  0  0
   26.4700   19.0271    6.6337 N   0  0  0  0  0  0  0  0  0  0  0  0
   28.4221   20.1002    7.8522 C   0  0  0  0  0  0  0  0  0  0  0  0
   29.2799   19.0518    7.6034 C   0  0  0  0  0  0  0  0  0  0  0  0
   30.6191   19.1055    7.9973 C   0  0  0  0  0  0  0  0  0  0  0  0
   31.5164   17.9595    7.7142 C   0  0  0  0  0  0  0  0  0  0  0  0
   28.9385   21.2052    8.5059 C   0  0  0  0  0  0  0  0  0  0  0  0
   30.2659   21.2439    8.8896 C   0  0  0  0  0  0  0  0  0  0  0  0
   31.1315   20.2026    8.6462 C   0  0  0  0  0  0  0  0  0  0  0  0
   32.5042   20.1870    9.0173 N   0  0  0  0  0  0  0  0  0  0  0  0
   33.5374   20.6773    8.3586 N   0  0  0  0  0  0  0  0  0  0  0  0
   34.6782   20.4447    9.0767 C   0  0  0  0  0  0  0  0  0  0  0  0
   36.0521   20.8360    8.6641 C   0  0  1  0  0  0  0  0  0  0  0  0
   36.3117   20.4851    7.1947 C   0  0  0  0  0  0  0  0  0  0  0  0
   36.0689   22.3751    8.6923 C   0  0  0  0  0  0  0  0  0  0  0  0
   34.2998   19.7921   10.2020 C   0  0  0  0  0  0  0  0  0  0  0  0
   32.9340   19.6312   10.1626 C   0  0  0  0  0  0  0  0  0  0  0  0
   32.2411   19.0038   11.1646 N   0  0  0  0  0  0  0  0  0  0  0  0
   32.8820   18.5228   12.2262 C   0  0  0  0  0  0  0  0  0  0  0  0
   34.2297   18.6737   12.2809 C   0  0  0  0  0  0  0  0  0  0  0  0
   34.9907   19.3065   11.2856 C   0  0  0  0  0  0  0  0  0  0  0  0
   36.3888   19.4310   11.4166 N   0  0  0  0  0  0  0  0  0  0  0  0
   37.0152   20.1271   12.3650 C   0  0  0  0  0  0  0  0  0  0  0  0
   38.3410   20.0240   12.2063 N   0  0  0  0  0  0  0  0  0  0  0  0
   37.3399   18.8837   10.6524 C   0  0  0  0  0  0  0  0  0  0  0  0
   38.6008   19.2499   11.1393 C   0  0  0  0  0  0  0  0  0  0  0  0
   39.8839   18.8518   10.5757 C   0  0  0  0  0  0  0  0  0  0  0  0
   40.0868   18.0463    9.4765 C   0  0  0  0  0  0  0  0  0  0  0  0
   41.4239   17.9346    9.3017 N   0  0  0  0  0  0  0  0  0  0  0  0
   41.1504   19.1834   11.0053 C   0  0  0  0  0  0  0  0  0  0  0  0
   42.0842   18.6179   10.2199 N   0  0  0  0  0  0  0  0  0  0  0  0
   43.5438   18.7331   10.3519 C   0  0  0  0  0  0  0  0  0  0  0  0
  1  2  2  0
  2  3  1  0
  2  4  1  0
  4  5  2  0
  4  8  1  0
  5  6  1  0
  6  7  1  0
  6 10  2  0
  8  9  2  0
  9 10  1  0
 10 11  1  0
 11 12  1  0
 11 18  1  0
 12 13  2  0
 13 14  1  0
 13 17  1  0
 14 15  1  6
 14 16  1  0
 17 18  2  0
 17 22  1  0
 18 19  1  0
 19 20  2  0
 20 21  1  0
 21 22  2  0
 22 23  1  0
 23 24  1  0
 23 26  1  0
 24 25  2  0
 25 27  1  0
 26 27  2  0
 27 28  1  0
 28 29  1  0
 28 31  2  0
 29 30  2  0
 30 32  1  0
 31 32  1  0
 32 33  1  0
M  END
$$$$
