
     RDKit          3D

 33 37  0  0  0  0  0  0  0  0999 V2000
   26.3821   20.8243    7.4956 O   0  0  0  0  0  0  0  0  0  0  0  0
   26.9668   19.7295    7.3301 C   0  0  0  0  0  0  0  0  0  0  0  0
   26.2493   18.6521    6.7645 N   0  0  0  0  0  0  0  0  0  0  0  0
   28.3739   19.6421    7.7404 C   0  0  0  0  0  0  0  0  0  0  0  0
   29.1073   20.7697    8.0364 C   0  0  0  0  0  0  0  0  0  0  0  0
   30.4457   20.6788    8.4262 C   0  0  0  0  0  0  0  0  0  0  0  0
   31.2071   21.9124    8.7380 C   0  0  0  0  0  0  0  0  0  0  0  0
   29.0142   18.4197    7.8444 C   0  0  0  0  0  0  0  0  0  0  0  0
   30.3392   18.3455    8.2314 C   0  0  0  0  0  0  0  0  0  0  0  0
   31.0810   19.4652    8.5293 C   0  0  0  0  0  0  0  0  0  0  0  0
   32.4449   19.4495    8.9319 N   0  0  0  0  0  0  0  0  0  0  0  0
   33.5229   19.3790    8.1737 N   0  0  0  0  0  0  0  0  0  0  0  0
   34.6338   19.3913    8.9718 C   0  0  0  0  0  0  0  0  0  0  0  0
   36.0399   19.3158    8.4943 C   0  0  1  0  0  0  0  0  0  0  0  0
   36.2653   18.0732    7.6256 C   0  0  0  0  0  0  0  0  0  0  0  0
   36.2078   20.4938    7.5175 C   0  0  0  0  0  0  0  0  0  0  0  0
   34.1904   19.4728   10.2494 C   0  0  0  0  0  0  0  0  0  0  0  0
   32.8154   19.5090   10.2220 C   0  0  0  0  0  0  0  0  0  0  0  0
   32.0619   19.5925   11.3635 N   0  0  0  0  0  0  0  0  0  0  0  0
   32.6501   19.6423   12.5553 C   0  0  0  0  0  0  0  0  0  0  0  0
   34.0063   19.6080   12.6000 C   0  0  0  0  0  0  0  0  0  0  0  0
   34.8280   19.5229   11.4653 C   0  0  0  0  0  0  0  0  0  0  0  0
   36.2318   19.4984   11.5917 N   0  0  0  0  0  0  0  0  0  0  0  0
   36.9177   18.7086   12.4177 C   0  0  0  0  0  0  0  0  0  0  0  0
   38.2308   18.9303   12.2756 N   0  0  0  0  0  0  0  0  0  0  0  0
   37.1322   20.2258   10.9222 C   0  0  0  0  0  0  0  0  0  0  0  0
   38.4219   19.8792   11.3437 C   0  0  0  0  0  0  0  0  0  0  0  0
   39.6664   20.4520   10.8485 C   0  0  0  0  0  0  0  0  0  0  0  0
   40.8691   20.5137   11.5180 C   0  0  0  0  0  0  0  0  0  0  0  0
   41.7553   21.1226   10.6965 N   0  0  0  0  0  0  0  0  0  0  0  0
   39.9133   21.0458    9.6298 C   0  0  0  0  0  0  0  0  0  0  0  0
   41.1927   21.4520    9.5472 N   0  0  0  0  0  0  0  0  0  0  0  0
   41.8388   22.1259    8.4116 C   0  0  0  0  0  0  0  0  0  0  0  0
  1  2  2  0
  2  3  1  0
  2  4  1  0
  4  5  2  0
  4  8  1  0
  5  6  1  0
  6  7  1  0
  6 10  2  0
  8  9  2  0
  9 10  1  0
 10 11  1  0
 11 12  1  0
 11 18  1  0
 12 13  2  0
 13 14  1  0
 13 17  1  0
 14 15  1  6
 14 16  1  0
 17 18  2  0
 17 22  1  0
 18 19  1  0
 19 20  2  0
 20 21  1  0
 21 22  2  0
 22 23  1  0
 23 24  1  0
 23 26  1  0
 24 25  2  0
 25 27  1  0
 26 27  2  0
 27 28  1  0
 28 29  1  0
 28 31  2  0
 29 30  2  0
 30 32  1  0
 31 32  1  0
 32 33  1  0
M  END
$$$$
