
     RDKit          3D

 33 37  0  0  0  0  0  0  0  0999 V2000
   26.3535   17.3850    7.1932 O   0  0  0  0  0  0  0  0  0  0  0  0
   26.8075   18.5106    6.8853 C   0  0  0  0  0  0  0  0  0  0  0  0
   26.1059   19.2938    5.9420 N   0  0  0  0  0  0  0  0  0  0  0  0
   28.0520   18.9419    7.5344 C   0  0  0  0  0  0  0  0  0  0  0  0
   28.3425   18.5925    8.8346 C   0  0  0  0  0  0  0  0  0  0  0  0
   29.5285   19.0065    9.4456 C   0  0  0  0  0  0  0  0  0  0  0  0
   29.8110   18.6130   10.8471 C   0  0  0  0  0  0  0  0  0  0  0  0
   28.9792   19.7169    6.8601 C   0  0  0  0  0  0  0  0  0  0  0  0
   30.1485   20.1190    7.4780 C   0  0  0  0  0  0  0  0  0  0  0  0
   30.4488   19.7758    8.7760 C   0  0  0  0  0  0  0  0  0  0  0  0
   31.6339   20.1601    9.4618 N   0  0  0  0  0  0  0  0  0  0  0  0
   32.8508   19.6645    9.3372 N   0  0  0  0  0  0  0  0  0  0  0  0
   33.6936   20.3265   10.1872 C   0  0  0  0  0  0  0  0  0  0  0  0
   35.1459   20.0520   10.3492 C   0  0  1  0  0  0  0  0  0  0  0  0
   35.4265   18.5453   10.3769 C   0  0  0  0  0  0  0  0  0  0  0  0
   35.8051   20.5338    9.0441 C   0  0  0  0  0  0  0  0  0  0  0  0
   32.9418   21.2478   10.8365 C   0  0  0  0  0  0  0  0  0  0  0  0
   31.6485   21.1414   10.3795 C   0  0  0  0  0  0  0  0  0  0  0  0
   30.6390   21.9429   10.8445 N   0  0  0  0  0  0  0  0  0  0  0  0
   30.8853   22.8659   11.7698 C   0  0  0  0  0  0  0  0  0  0  0  0
   32.1563   22.9842   12.2312 C   0  0  0  0  0  0  0  0  0  0  0  0
   33.2286   22.1921   11.7922 C   0  0  0  0  0  0  0  0  0  0  0  0
   34.5245   22.3788   12.3148 N   0  0  0  0  0  0  0  0  0  0  0  0
   35.6327   21.7997   11.8530 C   0  0  0  0  0  0  0  0  0  0  0  0
   36.6907   22.2045   12.5673 N   0  0  0  0  0  0  0  0  0  0  0  0
   34.8971   23.1588   13.3350 C   0  0  0  0  0  0  0  0  0  0  0  0
   36.2824   23.0636   13.5163 C   0  0  0  0  0  0  0  0  0  0  0  0
   37.0627   23.7640   14.5277 C   0  0  0  0  0  0  0  0  0  0  0  0
   36.5761   24.5841   15.5222 C   0  0  0  0  0  0  0  0  0  0  0  0
   37.6384   25.0243   16.2354 N   0  0  0  0  0  0  0  0  0  0  0  0
   38.4283   23.7630   14.7117 C   0  0  0  0  0  0  0  0  0  0  0  0
   38.7696   24.5362   15.7577 N   0  0  0  0  0  0  0  0  0  0  0  0
   40.1240   24.7902   16.2697 C   0  0  0  0  0  0  0  0  0  0  0  0
  1  2  2  0
  2  3  1  0
  2  4  1  0
  4  5  2  0
  4  8  1  0
  5  6  1  0
  6  7  1  0
  6 10  2  0
  8  9  2  0
  9 10  1  0
 10 11  1  0
 11 12  1  0
 11 18  1  0
 12 13  2  0
 13 14  1  0
 13 17  1  0
 14 15  1  6
 14 16  1  0
 17 18  2  0
 17 22  1  0
 18 19  1  0
 19 20  2  0
 20 21  1  0
 21 22  2  0
 22 23  1  0
 23 24  1  0
 23 26  1  0
 24 25  2  0
 25 27  1  0
 26 27  2  0
 27 28  1  0
 28 29  1  0
 28 31  2  0
 29 30  2  0
 30 32  1  0
 31 32  1  0
 32 33  1  0
M  END
$$$$
