
     RDKit          3D

 33 37  0  0  0  0  0  0  0  0999 V2000
   26.6181   19.6791    8.0351 O   0  0  0  0  0  0  0  0  0  0  0  0
   27.3668   18.7083    7.7805 C   0  0  0  0  0  0  0  0  0  0  0  0
   26.7999   17.5353    7.2343 N   0  0  0  0  0  0  0  0  0  0  0  0
   28.7981   18.8597    8.0710 C   0  0  0  0  0  0  0  0  0  0  0  0
   29.3768   20.1025    8.2030 C   0  0  0  0  0  0  0  0  0  0  0  0
   30.7393   20.2389    8.4794 C   0  0  0  0  0  0  0  0  0  0  0  0
   31.3312   21.5917    8.6155 C   0  0  0  0  0  0  0  0  0  0  0  0
   29.6180   17.7553    8.2228 C   0  0  0  0  0  0  0  0  0  0  0  0
   30.9646   17.9059    8.4962 C   0  0  0  0  0  0  0  0  0  0  0  0
   31.5530   19.1424    8.6301 C   0  0  0  0  0  0  0  0  0  0  0  0
   32.9305   19.3576    8.9105 N   0  0  0  0  0  0  0  0  0  0  0  0
   33.8893   19.7216    8.0797 N   0  0  0  0  0  0  0  0  0  0  0  0
   35.0681   19.8120    8.7678 C   0  0  0  0  0  0  0  0  0  0  0  0
   36.3828   20.1841    8.1815 C   0  0  1  0  0  0  0  0  0  0  0  0
   36.6157   19.4724    6.8440 C   0  0  0  0  0  0  0  0  0  0  0  0
   36.2590   21.6705    7.8005 C   0  0  0  0  0  0  0  0  0  0  0  0
   34.7903   19.4886   10.0538 C   0  0  0  0  0  0  0  0  0  0  0  0
   33.4473   19.2035   10.1411 C   0  0  0  0  0  0  0  0  0  0  0  0
   32.8506   18.8401   11.3200 N   0  0  0  0  0  0  0  0  0  0  0  0
   33.5673   18.7510   12.4368 C   0  0  0  0  0  0  0  0  0  0  0  0
   34.8940   19.0295   12.3681 C   0  0  0  0  0  0  0  0  0  0  0  0
   35.5579   19.4061   11.1902 C   0  0  0  0  0  0  0  0  0  0  0  0
   36.9394   19.6863   11.1991 N   0  0  0  0  0  0  0  0  0  0  0  0
   37.4799   20.9020   11.1185 C   0  0  0  0  0  0  0  0  0  0  0  0
   38.8152   20.8120   11.1687 N   0  0  0  0  0  0  0  0  0  0  0  0
   37.9548   18.8222   11.3015 C   0  0  0  0  0  0  0  0  0  0  0  0
   39.1684   19.5208   11.2843 C   0  0  0  0  0  0  0  0  0  0  0  0
   40.4968   18.9297   11.3747 C   0  0  0  0  0  0  0  0  0  0  0  0
   40.8318   17.6148   11.1354 C   0  0  0  0  0  0  0  0  0  0  0  0
   42.1652   17.4976   11.3333 N   0  0  0  0  0  0  0  0  0  0  0  0
   41.6863   19.5382   11.7116 C   0  0  0  0  0  0  0  0  0  0  0  0
   42.6994   18.6543   11.6833 N   0  0  0  0  0  0  0  0  0  0  0  0
   44.1151   18.9165   11.9803 C   0  0  0  0  0  0  0  0  0  0  0  0
  1  2  2  0
  2  3  1  0
  2  4  1  0
  4  5  2  0
  4  8  1  0
  5  6  1  0
  6  7  1  0
  6 10  2  0
  8  9  2  0
  9 10  1  0
 10 11  1  0
 11 12  1  0
 11 18  1  0
 12 13  2  0
 13 14  1  0
 13 17  1  0
 14 15  1  6
 14 16  1  0
 17 18  2  0
 17 22  1  0
 18 19  1  0
 19 20  2  0
 20 21  1  0
 21 22  2  0
 22 23  1  0
 23 24  1  0
 23 26  1  0
 24 25  2  0
 25 27  1  0
 26 27  2  0
 27 28  1  0
 28 29  1  0
 28 31  2  0
 29 30  2  0
 30 32  1  0
 31 32  1  0
 32 33  1  0
M  END
$$$$
