
     RDKit          3D

 33 37  0  0  0  0  0  0  0  0999 V2000
   26.6221   21.1457    7.5830 O   0  0  0  0  0  0  0  0  0  0  0  0
   27.1104   20.0022    7.7306 C   0  0  0  0  0  0  0  0  0  0  0  0
   26.2603   18.8790    7.6239 N   0  0  0  0  0  0  0  0  0  0  0  0
   28.5494   19.9085    8.0075 C   0  0  0  0  0  0  0  0  0  0  0  0
   29.1327   20.6261    9.0283 C   0  0  0  0  0  0  0  0  0  0  0  0
   30.5024   20.5320    9.2859 C   0  0  0  0  0  0  0  0  0  0  0  0
   31.0991   21.3180   10.3927 C   0  0  0  0  0  0  0  0  0  0  0  0
   29.3721   19.0934    7.2501 C   0  0  0  0  0  0  0  0  0  0  0  0
   30.7259   19.0105    7.5170 C   0  0  0  0  0  0  0  0  0  0  0  0
   31.3189   19.7227    8.5339 C   0  0  0  0  0  0  0  0  0  0  0  0
   32.7038   19.6771    8.8539 N   0  0  0  0  0  0  0  0  0  0  0  0
   33.7245   20.1195    8.1438 N   0  0  0  0  0  0  0  0  0  0  0  0
   34.8848   19.8731    8.8250 C   0  0  0  0  0  0  0  0  0  0  0  0
   36.2524   20.2132    8.3508 C   0  0  1  0  0  0  0  0  0  0  0  0
   36.5653   19.5243    7.0178 C   0  0  0  0  0  0  0  0  0  0  0  0
   36.2065   21.7112    7.9989 C   0  0  0  0  0  0  0  0  0  0  0  0
   34.5314   19.2619    9.9813 C   0  0  0  0  0  0  0  0  0  0  0  0
   33.1611   19.1396    9.9972 C   0  0  0  0  0  0  0  0  0  0  0  0
   32.4896   18.5595   11.0413 N   0  0  0  0  0  0  0  0  0  0  0  0
   33.1566   18.0884   12.0911 C   0  0  0  0  0  0  0  0  0  0  0  0
   34.5092   18.2016   12.0914 C   0  0  0  0  0  0  0  0  0  0  0  0
   35.2492   18.7853   11.0514 C   0  0  0  0  0  0  0  0  0  0  0  0
   36.6541   18.8726   11.1266 N   0  0  0  0  0  0  0  0  0  0  0  0
   37.4712   17.8762   11.4673 C   0  0  0  0  0  0  0  0  0  0  0  0
   38.7429   18.2939   11.4246 N   0  0  0  0  0  0  0  0  0  0  0  0
   37.4291   19.9309   10.8667 C   0  0  0  0  0  0  0  0  0  0  0  0
   38.7733   19.5842   11.0510 C   0  0  0  0  0  0  0  0  0  0  0  0
   39.9174   20.4667   10.8651 C   0  0  0  0  0  0  0  0  0  0  0  0
   39.9362   21.6564   10.1704 C   0  0  0  0  0  0  0  0  0  0  0  0
   41.1947   22.1472   10.2484 N   0  0  0  0  0  0  0  0  0  0  0  0
   41.2051   20.3129   11.3308 C   0  0  0  0  0  0  0  0  0  0  0  0
   41.9774   21.3452   10.9484 N   0  0  0  0  0  0  0  0  0  0  0  0
   43.4031   21.5455   11.2460 C   0  0  0  0  0  0  0  0  0  0  0  0
  1  2  2  0
  2  3  1  0
  2  4  1  0
  4  5  2  0
  4  8  1  0
  5  6  1  0
  6  7  1  0
  6 10  2  0
  8  9  2  0
  9 10  1  0
 10 11  1  0
 11 12  1  0
 11 18  1  0
 12 13  2  0
 13 14  1  0
 13 17  1  0
 14 15  1  6
 14 16  1  0
 17 18  2  0
 17 22  1  0
 18 19  1  0
 19 20  2  0
 20 21  1  0
 21 22  2  0
 22 23  1  0
 23 24  1  0
 23 26  1  0
 24 25  2  0
 25 27  1  0
 26 27  2  0
 27 28  1  0
 28 29  1  0
 28 31  2  0
 29 30  2  0
 30 32  1  0
 31 32  1  0
 32 33  1  0
M  END
$$$$
