
     RDKit          3D

 33 37  0  0  0  0  0  0  0  0999 V2000
   26.4505   21.4101    7.9023 O   0  0  0  0  0  0  0  0  0  0  0  0
   27.0646   20.3439    7.6697 C   0  0  0  0  0  0  0  0  0  0  0  0
   26.3586   19.2611    7.0999 N   0  0  0  0  0  0  0  0  0  0  0  0
   28.4921   20.2941    8.0097 C   0  0  0  0  0  0  0  0  0  0  0  0
   29.3391   19.3807    7.4221 C   0  0  0  0  0  0  0  0  0  0  0  0
   30.6962   19.3391    7.7505 C   0  0  0  0  0  0  0  0  0  0  0  0
   31.5811   18.3431    7.0995 C   0  0  0  0  0  0  0  0  0  0  0  0
   29.0380   21.1661    8.9353 C   0  0  0  0  0  0  0  0  0  0  0  0
   30.3829   21.1129    9.2501 C   0  0  0  0  0  0  0  0  0  0  0  0
   31.2378   20.2048    8.6694 C   0  0  0  0  0  0  0  0  0  0  0  0
   32.6275   20.1042    8.9540 N   0  0  0  0  0  0  0  0  0  0  0  0
   33.6460   20.5205    8.2251 N   0  0  0  0  0  0  0  0  0  0  0  0
   34.8129   20.2216    8.8735 C   0  0  0  0  0  0  0  0  0  0  0  0
   36.1800   20.5195    8.3703 C   0  0  1  0  0  0  0  0  0  0  0  0
   36.4411   19.8261    7.0284 C   0  0  0  0  0  0  0  0  0  0  0  0
   36.1747   22.0196    8.0243 C   0  0  0  0  0  0  0  0  0  0  0  0
   34.4657   19.6057   10.0292 C   0  0  0  0  0  0  0  0  0  0  0  0
   33.0928   19.5328   10.0776 C   0  0  0  0  0  0  0  0  0  0  0  0
   32.4262   18.9612   11.1295 N   0  0  0  0  0  0  0  0  0  0  0  0
   33.1010   18.4500   12.1553 C   0  0  0  0  0  0  0  0  0  0  0  0
   34.4565   18.5142   12.1234 C   0  0  0  0  0  0  0  0  0  0  0  0
   35.1916   19.0870   11.0739 C   0  0  0  0  0  0  0  0  0  0  0  0
   36.6002   19.1222   11.1152 N   0  0  0  0  0  0  0  0  0  0  0  0
   37.3902   18.0799   11.3725 C   0  0  0  0  0  0  0  0  0  0  0  0
   38.6743   18.4565   11.3198 N   0  0  0  0  0  0  0  0  0  0  0  0
   37.4051   20.1678   10.8980 C   0  0  0  0  0  0  0  0  0  0  0  0
   38.7405   19.7655   11.0238 C   0  0  0  0  0  0  0  0  0  0  0  0
   39.9098   20.6187   10.8597 C   0  0  0  0  0  0  0  0  0  0  0  0
   39.9368   21.8840   10.3149 C   0  0  0  0  0  0  0  0  0  0  0  0
   41.2199   22.3116   10.3558 N   0  0  0  0  0  0  0  0  0  0  0  0
   41.2183   20.3579   11.2040 C   0  0  0  0  0  0  0  0  0  0  0  0
   42.0106   21.3987   10.8918 N   0  0  0  0  0  0  0  0  0  0  0  0
   43.4617   21.5044   11.1021 C   0  0  0  0  0  0  0  0  0  0  0  0
  1  2  2  0
  2  3  1  0
  2  4  1  0
  4  5  2  0
  4  8  1  0
  5  6  1  0
  6  7  1  0
  6 10  2  0
  8  9  2  0
  9 10  1  0
 10 11  1  0
 11 12  1  0
 11 18  1  0
 12 13  2  0
 13 14  1  0
 13 17  1  0
 14 15  1  6
 14 16  1  0
 17 18  2  0
 17 22  1  0
 18 19  1  0
 19 20  2  0
 20 21  1  0
 21 22  2  0
 22 23  1  0
 23 24  1  0
 23 26  1  0
 24 25  2  0
 25 27  1  0
 26 27  2  0
 27 28  1  0
 28 29  1  0
 28 31  2  0
 29 30  2  0
 30 32  1  0
 31 32  1  0
 32 33  1  0
M  END
$$$$
