
     RDKit          3D

 33 37  0  0  0  0  0  0  0  0999 V2000
   26.3192   21.1735    8.3077 O   0  0  0  0  0  0  0  0  0  0  0  0
   26.9670   20.2052    7.8489 C   0  0  0  0  0  0  0  0  0  0  0  0
   26.2926   19.2457    7.0614 N   0  0  0  0  0  0  0  0  0  0  0  0
   28.3990   20.1345    8.1658 C   0  0  0  0  0  0  0  0  0  0  0  0
   29.2112   19.1712    7.6095 C   0  0  0  0  0  0  0  0  0  0  0  0
   30.5727   19.1101    7.9156 C   0  0  0  0  0  0  0  0  0  0  0  0
   31.4195   18.0602    7.2994 C   0  0  0  0  0  0  0  0  0  0  0  0
   28.9843   21.0363    9.0371 C   0  0  0  0  0  0  0  0  0  0  0  0
   30.3332   20.9633    9.3304 C   0  0  0  0  0  0  0  0  0  0  0  0
   31.1535   20.0054    8.7806 C   0  0  0  0  0  0  0  0  0  0  0  0
   32.5454   19.8823    9.0453 N   0  0  0  0  0  0  0  0  0  0  0  0
   33.5602   20.2322    8.2774 N   0  0  0  0  0  0  0  0  0  0  0  0
   34.7311   19.9363    8.9198 C   0  0  0  0  0  0  0  0  0  0  0  0
   36.0956   20.1704    8.3773 C   0  0  1  0  0  0  0  0  0  0  0  0
   36.3262   19.3704    7.0903 C   0  0  0  0  0  0  0  0  0  0  0  0
   36.1098   21.6389    7.9155 C   0  0  0  0  0  0  0  0  0  0  0  0
   34.3903   19.3914   10.1124 C   0  0  0  0  0  0  0  0  0  0  0  0
   33.0170   19.3583   10.1890 C   0  0  0  0  0  0  0  0  0  0  0  0
   32.3561   18.8607   11.2815 N   0  0  0  0  0  0  0  0  0  0  0  0
   33.0370   18.3860   12.3206 C   0  0  0  0  0  0  0  0  0  0  0  0
   34.3928   18.4117   12.2612 C   0  0  0  0  0  0  0  0  0  0  0  0
   35.1223   18.9087   11.1700 C   0  0  0  0  0  0  0  0  0  0  0  0
   36.5319   18.9079   11.1843 N   0  0  0  0  0  0  0  0  0  0  0  0
   37.3002   17.8369   11.3821 C   0  0  0  0  0  0  0  0  0  0  0  0
   38.5921   18.1841   11.3191 N   0  0  0  0  0  0  0  0  0  0  0  0
   37.3584   19.9419   10.9945 C   0  0  0  0  0  0  0  0  0  0  0  0
   38.6855   19.5023   11.0765 C   0  0  0  0  0  0  0  0  0  0  0  0
   39.8726   20.3331   10.9244 C   0  0  0  0  0  0  0  0  0  0  0  0
   39.9317   21.5916   10.3666 C   0  0  0  0  0  0  0  0  0  0  0  0
   41.2212   21.9971   10.4261 N   0  0  0  0  0  0  0  0  0  0  0  0
   41.1698   20.0532   11.2951 C   0  0  0  0  0  0  0  0  0  0  0  0
   41.9859   21.0765   10.9861 N   0  0  0  0  0  0  0  0  0  0  0  0
   43.4347   21.1591   11.2215 C   0  0  0  0  0  0  0  0  0  0  0  0
  1  2  2  0
  2  3  1  0
  2  4  1  0
  4  5  2  0
  4  8  1  0
  5  6  1  0
  6  7  1  0
  6 10  2  0
  8  9  2  0
  9 10  1  0
 10 11  1  0
 11 12  1  0
 11 18  1  0
 12 13  2  0
 13 14  1  0
 13 17  1  0
 14 15  1  6
 14 16  1  0
 17 18  2  0
 17 22  1  0
 18 19  1  0
 19 20  2  0
 20 21  1  0
 21 22  2  0
 22 23  1  0
 23 24  1  0
 23 26  1  0
 24 25  2  0
 25 27  1  0
 26 27  2  0
 27 28  1  0
 28 29  1  0
 28 31  2  0
 29 30  2  0
 30 32  1  0
 31 32  1  0
 32 33  1  0
M  END
$$$$
