
     RDKit          3D

 33 37  0  0  0  0  0  0  0  0999 V2000
   25.7308   20.6011    8.4213 O   0  0  0  0  0  0  0  0  0  0  0  0
   26.4508   19.6843    7.9642 C   0  0  0  0  0  0  0  0  0  0  0  0
   25.8966   18.7862    7.0251 N   0  0  0  0  0  0  0  0  0  0  0  0
   27.8369   19.6067    8.4423 C   0  0  0  0  0  0  0  0  0  0  0  0
   28.6859   18.6058    8.0246 C   0  0  0  0  0  0  0  0  0  0  0  0
   30.0035   18.5382    8.4837 C   0  0  0  0  0  0  0  0  0  0  0  0
   30.8917   17.4475    8.0143 C   0  0  0  0  0  0  0  0  0  0  0  0
   28.3401   20.5394    9.3321 C   0  0  0  0  0  0  0  0  0  0  0  0
   29.6462   20.4596    9.7777 C   0  0  0  0  0  0  0  0  0  0  0  0
   30.5027   19.4643    9.3671 C   0  0  0  0  0  0  0  0  0  0  0  0
   31.8537   19.3324    9.7913 N   0  0  0  0  0  0  0  0  0  0  0  0
   32.3097   18.9794   10.9784 N   0  0  0  0  0  0  0  0  0  0  0  0
   33.6773   18.9809   10.9518 C   0  0  0  0  0  0  0  0  0  0  0  0
   34.5628   18.6491   12.0993 C   0  0  1  0  0  0  0  0  0  0  0  0
   34.3934   19.6576   13.2411 C   0  0  0  0  0  0  0  0  0  0  0  0
   34.0144   17.3314   12.6763 C   0  0  0  0  0  0  0  0  0  0  0  0
   34.0388   19.3492    9.6992 C   0  0  0  0  0  0  0  0  0  0  0  0
   32.8919   19.5696    8.9720 C   0  0  0  0  0  0  0  0  0  0  0  0
   32.9208   19.9567    7.6578 N   0  0  0  0  0  0  0  0  0  0  0  0
   34.0822   20.1338    7.0344 C   0  0  0  0  0  0  0  0  0  0  0  0
   35.2233   19.9200    7.7375 C   0  0  0  0  0  0  0  0  0  0  0  0
   35.2545   19.5233    9.0834 C   0  0  0  0  0  0  0  0  0  0  0  0
   36.4813   19.3142    9.7455 N   0  0  0  0  0  0  0  0  0  0  0  0
   36.8228   18.2071   10.4045 C   0  0  0  0  0  0  0  0  0  0  0  0
   38.0597   18.3352   10.9018 N   0  0  0  0  0  0  0  0  0  0  0  0
   37.5231   20.1480    9.8328 C   0  0  0  0  0  0  0  0  0  0  0  0
   38.5480   19.5421   10.5700 C   0  0  0  0  0  0  0  0  0  0  0  0
   39.8424   20.1338   10.8814 C   0  0  0  0  0  0  0  0  0  0  0  0
   40.2874   21.3842   10.5114 C   0  0  0  0  0  0  0  0  0  0  0  0
   41.5381   21.5283   11.0071 N   0  0  0  0  0  0  0  0  0  0  0  0
   40.8856   19.5888   11.5979 C   0  0  0  0  0  0  0  0  0  0  0  0
   41.9168   20.4491   11.6688 N   0  0  0  0  0  0  0  0  0  0  0  0
   43.2054   20.2369   12.3438 C   0  0  0  0  0  0  0  0  0  0  0  0
  1  2  2  0
  2  3  1  0
  2  4  1  0
  4  5  2  0
  4  8  1  0
  5  6  1  0
  6  7  1  0
  6 10  2  0
  8  9  2  0
  9 10  1  0
 10 11  1  0
 11 12  1  0
 11 18  1  0
 12 13  2  0
 13 14  1  0
 13 17  1  0
 14 15  1  1
 14 16  1  0
 17 18  2  0
 17 22  1  0
 18 19  1  0
 19 20  2  0
 20 21  1  0
 21 22  2  0
 22 23  1  0
 23 24  1  0
 23 26  1  0
 24 25  2  0
 25 27  1  0
 26 27  2  0
 27 28  1  0
 28 29  1  0
 28 31  2  0
 29 30  2  0
 30 32  1  0
 31 32  1  0
 32 33  1  0
M  END
$$$$
