
     RDKit          3D

 33 37  0  0  0  0  0  0  0  0999 V2000
   26.3533   18.5557    7.1005 O   0  0  0  0  0  0  0  0  0  0  0  0
   26.8491   19.4862    7.7759 C   0  0  0  0  0  0  0  0  0  0  0  0
   25.9999   20.5088    8.2542 N   0  0  0  0  0  0  0  0  0  0  0  0
   28.2955   19.4482    8.0259 C   0  0  0  0  0  0  0  0  0  0  0  0
   28.8852   20.2730    8.9581 C   0  0  0  0  0  0  0  0  0  0  0  0
   30.2620   20.2313    9.1907 C   0  0  0  0  0  0  0  0  0  0  0  0
   30.8656   21.1329   10.2015 C   0  0  0  0  0  0  0  0  0  0  0  0
   29.1190   18.5796    7.3315 C   0  0  0  0  0  0  0  0  0  0  0  0
   30.4798   18.5497    7.5726 C   0  0  0  0  0  0  0  0  0  0  0  0
   31.0793   19.3689    8.5011 C   0  0  0  0  0  0  0  0  0  0  0  0
   32.4716   19.3819    8.7907 N   0  0  0  0  0  0  0  0  0  0  0  0
   33.4630   19.8099    8.0320 N   0  0  0  0  0  0  0  0  0  0  0  0
   34.6447   19.6376    8.6992 C   0  0  0  0  0  0  0  0  0  0  0  0
   35.9909   19.9876    8.1738 C   0  0  1  0  0  0  0  0  0  0  0  0
   36.2111   19.4001    6.7753 C   0  0  0  0  0  0  0  0  0  0  0  0
   35.9610   21.5093    7.9426 C   0  0  0  0  0  0  0  0  0  0  0  0
   34.3347   19.0869    9.8975 C   0  0  0  0  0  0  0  0  0  0  0  0
   32.9694   18.9269    9.9528 C   0  0  0  0  0  0  0  0  0  0  0  0
   32.3382   18.3913   11.0448 N   0  0  0  0  0  0  0  0  0  0  0  0
   33.0416   18.0030   12.1047 C   0  0  0  0  0  0  0  0  0  0  0  0
   34.3899   18.1543   12.0665 C   0  0  0  0  0  0  0  0  0  0  0  0
   35.0895   18.6957   10.9768 C   0  0  0  0  0  0  0  0  0  0  0  0
   36.4925   18.8272   11.0138 N   0  0  0  0  0  0  0  0  0  0  0  0
   37.3580   17.8212   11.1388 C   0  0  0  0  0  0  0  0  0  0  0  0
   38.6113   18.2930   11.1243 N   0  0  0  0  0  0  0  0  0  0  0  0
   37.2180   19.9465   10.9196 C   0  0  0  0  0  0  0  0  0  0  0  0
   38.5803   19.6293   10.9880 C   0  0  0  0  0  0  0  0  0  0  0  0
   39.6837   20.5782   10.9211 C   0  0  0  0  0  0  0  0  0  0  0  0
   39.6270   21.8773   10.4658 C   0  0  0  0  0  0  0  0  0  0  0  0
   40.8714   22.3968   10.5777 N   0  0  0  0  0  0  0  0  0  0  0  0
   40.9986   20.3933   11.2892 C   0  0  0  0  0  0  0  0  0  0  0  0
   41.7158   21.5107   11.0753 N   0  0  0  0  0  0  0  0  0  0  0  0
   43.1480   21.7108   11.3395 C   0  0  0  0  0  0  0  0  0  0  0  0
  1  2  2  0
  2  3  1  0
  2  4  1  0
  4  5  2  0
  4  8  1  0
  5  6  1  0
  6  7  1  0
  6 10  2  0
  8  9  2  0
  9 10  1  0
 10 11  1  0
 11 12  1  0
 11 18  1  0
 12 13  2  0
 13 14  1  0
 13 17  1  0
 14 15  1  6
 14 16  1  0
 17 18  2  0
 17 22  1  0
 18 19  1  0
 19 20  2  0
 20 21  1  0
 21 22  2  0
 22 23  1  0
 23 24  1  0
 23 26  1  0
 24 25  2  0
 25 27  1  0
 26 27  2  0
 27 28  1  0
 28 29  1  0
 28 31  2  0
 29 30  2  0
 30 32  1  0
 31 32  1  0
 32 33  1  0
M  END
$$$$
