
     RDKit          3D

122123  0  0  0  0  0  0  0  0999 V2000
  -56.9749  -54.1759   94.9076 C   0  0  0  0  0  0  0  0  0  0  0  0
  -56.9916  -53.3371   94.0133 O   0  0  0  0  0  0  0  0  0  0  0  0
  -57.8198  -55.4158   94.8463 C   0  0  0  0  0  0  0  0  0  0  0  0
  -56.2023  -54.0533   96.0393 N   0  0  0  0  0  0  0  0  0  0  0  0
  -56.5942  -53.1853   97.1538 C   0  0  2  0  0  0  0  0  0  0  0  0
  -56.2995  -51.7005   96.7801 C   0  0  0  0  0  0  0  0  0  0  0  0
  -55.3263  -51.4666   96.0655 O   0  0  0  0  0  0  0  0  0  0  0  0
  -55.7573  -53.5915   98.3865 C   0  0  0  0  0  0  0  0  0  0  0  0
  -56.3917  -54.6550   99.2861 C   0  0  0  0  0  0  0  0  0  0  0  0
  -57.6957  -54.1343   99.8916 C   0  0  0  0  0  0  0  0  0  0  0  0
  -58.2235  -55.1032  100.8445 N   0  0  0  0  0  0  0  0  0  0  0  0
  -58.9011  -56.1878  100.3891 C   0  0  0  0  0  0  0  0  0  0  0  0
  -58.3832  -57.3409  100.1882 N   0  0  0  0  0  0  0  0  0  0  0  0
  -60.1998  -55.9041  100.1515 N   0  0  0  0  0  0  0  0  0  0  0  0
  -57.1005  -50.6529   97.2108 N   0  0  0  0  0  0  0  0  0  0  0  0
  -56.7460  -49.2360   96.9326 C   0  0  2  0  0  0  0  0  0  0  0  0
  -55.7324  -48.5225   97.8823 C   0  0  0  0  0  0  0  0  0  0  0  0
  -54.6244  -49.0014   98.1144 O   0  0  0  0  0  0  0  0  0  0  0  0
  -57.9883  -48.2967   96.7238 C   0  0  2  0  0  0  0  0  0  0  0  0
  -58.8421  -48.7776   95.5221 C   0  0  0  0  0  0  0  0  0  0  0  0
  -57.6547  -46.8154   96.5751 C   0  0  0  0  0  0  0  0  0  0  0  0
  -58.3340  -48.3163   94.1620 C   0  0  0  0  0  0  0  0  0  0  0  0
  -56.0252  -47.2421   98.3171 N   0  0  0  0  0  0  0  0  0  0  0  0
  -55.1007  -46.6427   99.2897 C   0  0  2  0  0  0  0  0  0  0  0  0
  -55.4439  -45.1707   99.6921 C   0  0  0  0  0  0  0  0  0  0  0  0
  -55.2826  -44.2028   98.9544 O   0  0  0  0  0  0  0  0  0  0  0  0
  -53.6087  -46.7271   98.8879 C   0  0  2  0  0  0  0  0  0  0  0  0
  -52.7094  -47.2086  100.0385 C   0  0  0  0  0  0  0  0  0  0  0  0
  -53.1241  -45.3931   98.3148 C   0  0  0  0  0  0  0  0  0  0  0  0
  -51.4849  -47.9845   99.5689 C   0  0  0  0  0  0  0  0  0  0  0  0
  -55.8884  -45.0592  101.0071 N   0  0  0  0  0  0  0  0  0  0  0  0
  -57.2339  -44.5145  101.2901 C   0  0  2  0  0  0  0  0  0  0  0  0
  -57.5876  -44.5167  102.8032 C   0  0  0  0  0  0  0  0  0  0  0  0
  -57.9107  -45.5353  103.4101 O   0  0  0  0  0  0  0  0  0  0  0  0
  -58.3428  -45.3040  100.5398 C   0  0  0  0  0  0  0  0  0  0  0  0
  -59.7542  -45.0674  101.0195 C   0  0  0  0  0  0  0  0  0  0  0  0
  -60.4506  -46.0316  101.7520 C   0  0  0  0  0  0  0  0  0  0  0  0
  -60.3661  -43.8260  100.7628 C   0  0  0  0  0  0  0  0  0  0  0  0
  -61.7383  -45.7519  102.2171 C   0  0  0  0  0  0  0  0  0  0  0  0
  -61.6456  -43.5452  101.2456 C   0  0  0  0  0  0  0  0  0  0  0  0
  -62.3206  -44.5120  101.9790 C   0  0  0  0  0  0  0  0  0  0  0  0
  -63.5607  -44.2727  102.4938 O   0  0  0  0  0  0  0  0  0  0  0  0
  -57.5797  -43.2860  103.4150 N   0  0  0  0  0  0  0  0  0  0  0  0
  -58.0581  -43.1547  104.7986 C   0  0  2  0  0  0  0  0  0  0  0  0
  -59.5836  -42.9868  104.7834 C   0  0  0  0  0  0  0  0  0  0  0  0
  -60.3355  -43.8586  104.3692 O   0  0  0  0  0  0  0  0  0  0  0  0
  -57.4218  -41.9563  105.5197 C   0  0  0  0  0  0  0  0  0  0  0  0
  -56.4713  -41.2791  104.7009 O   0  0  0  0  0  0  0  0  0  0  0  0
  -60.0298  -41.7995  105.3209 N   0  0  0  0  0  0  0  0  0  0  0  0
  -60.9901  -41.7326  106.4275 C   0  0  2  0  0  0  0  0  0  0  0  0
  -60.9084  -40.3705  107.1437 C   0  0  0  0  0  0  0  0  0  0  0  0
  -61.6272  -40.0902  108.0997 O   0  0  0  0  0  0  0  0  0  0  0  0
  -60.7997  -42.9162  107.3904 C   0  0  0  0  0  0  0  0  0  0  0  0
  -61.8660  -42.9976  108.4897 C   0  0  0  0  0  0  0  0  0  0  0  0
  -63.1992  -43.4990  107.9355 C   0  0  0  0  0  0  0  0  0  0  0  0
  -63.7840  -44.4527  108.8744 N   0  0  0  0  0  0  0  0  0  0  0  0
  -64.9500  -45.0783  108.5697 C   0  0  0  0  0  0  0  0  0  0  0  0
  -65.5646  -45.8909  109.3433 N   0  0  0  0  0  0  0  0  0  0  0  0
  -65.3899  -44.7273  107.3426 N   0  0  0  0  0  0  0  0  0  0  0  0
  -58.5962  -41.3335  106.0250 C   0  0  0  0  0  0  0  0  0  0  0  0
  -60.0507  -39.4741  106.5483 N   0  0  0  0  0  0  0  0  0  0  0  0
  -59.5237  -42.1293  106.2057 O   0  0  0  0  0  0  0  0  0  0  0  0
  -58.9307  -39.8168  105.6524 C   0  0  1  0  0  0  0  0  0  0  0  0
  -57.7517  -38.8249  105.8287 C   0  0  0  0  0  0  0  0  0  0  0  0
  -56.6595  -36.4997  105.3019 C   0  0  0  0  0  0  0  0  0  0  0  0
  -56.0005  -36.4218  103.9508 C   0  0  0  0  0  0  0  0  0  0  0  0
  -57.9479  -37.3543  105.3906 C   0  0  0  0  0  0  0  0  0  0  0  0
  -59.4027  -39.8997  104.1890 C   0  0  0  0  0  0  0  0  0  0  0  0
  -57.3061  -41.7856  105.9252 N   0  0  0  0  0  0  0  0  0  0  0  0
  -56.8691  -43.1999  105.9242 C   0  0  2  0  0  0  0  0  0  0  0  0
  -55.3816  -43.2381  106.4800 C   0  0  0  0  0  0  0  0  0  0  0  0
  -55.0933  -42.7119  107.5544 O   0  0  0  0  0  0  0  0  0  0  0  0
  -57.0065  -43.8246  104.5334 C   0  0  0  0  0  0  0  0  0  0  0  0
  -56.2458  -43.1161  103.4092 C   0  0  0  0  0  0  0  0  0  0  0  0
  -55.5976  -41.8440  103.9059 C   0  0  0  0  0  0  0  0  0  0  0  0
  -54.9715  -41.0533  103.2090 O   0  0  0  0  0  0  0  0  0  0  0  0
  -55.7588  -41.6207  105.2461 N   0  0  0  0  0  0  0  0  0  0  0  0
  -54.3942  -43.8095  105.7007 N   0  0  0  0  0  0  0  0  0  0  0  0
  -52.9616  -43.4039  105.7548 C   0  0  2  0  0  0  0  0  0  0  0  0
  -52.7029  -42.7706  104.3581 C   0  0  0  0  0  0  0  0  0  0  0  0
  -53.4123  -43.1305  103.3985 O   0  0  0  0  0  0  0  0  0  0  0  0
  -52.0942  -44.6636  105.9078 C   0  0  0  0  0  0  0  0  0  0  0  0
  -52.5604  -45.7283  106.9271 C   0  0  1  0  0  0  0  0  0  0  0  0
  -51.4410  -46.6794  107.3410 C   0  0  0  0  0  0  0  0  0  0  0  0
  -53.2393  -45.1458  108.1643 C   0  0  0  0  0  0  0  0  0  0  0  0
  -51.7529  -41.8728  104.0156 N   0  0  0  0  0  0  0  0  0  0  0  0
  -50.6716  -41.0431  104.6298 C   0  0  2  0  0  0  0  0  0  0  0  0
  -50.0590  -40.3313  103.3883 C   0  0  0  0  0  0  0  0  0  0  0  0
  -49.6910  -41.0547  102.4411 O   0  0  0  0  0  0  0  0  0  0  0  0
  -49.6697  -42.0146  105.2690 C   0  0  0  0  0  0  0  0  0  0  0  0
  -49.9324  -43.5214  105.2758 C   0  0  1  0  0  0  0  0  0  0  0  0
  -51.2952  -43.9150  105.8309 C   0  0  0  0  0  0  0  0  0  0  0  0
  -49.6646  -44.1488  103.9198 C   0  0  0  0  0  0  0  0  0  0  0  0
  -49.3956  -37.3127  104.8927 C   0  0  0  0  0  0  0  0  0  0  0  0
  -49.9142  -39.0124  103.1244 N   0  0  0  0  0  0  0  0  0  0  0  0
  -49.4344  -36.2020  105.4260 O   0  0  0  0  0  0  0  0  0  0  0  0
  -50.2430  -37.6449  103.6309 C   0  0  1  0  0  0  0  0  0  0  0  0
  -51.7471  -37.4426  103.9641 C   0  0  0  0  0  0  0  0  0  0  0  0
  -53.6303  -35.6678  104.5977 C   0  0  0  0  0  0  0  0  0  0  0  0
  -54.7276  -36.0719  103.6567 C   0  0  0  0  0  0  0  0  0  0  0  0
  -52.1870  -35.9643  104.1333 C   0  0  0  0  0  0  0  0  0  0  0  0
  -49.8809  -36.6689  102.4791 C   0  0  0  0  0  0  0  0  0  0  0  0
  -48.6456  -38.3258  105.4385 N   0  0  0  0  0  0  0  0  0  0  0  0
  -47.9091  -39.2938  104.6202 C   0  0  2  0  0  0  0  0  0  0  0  0
  -48.3613  -39.0406  103.1656 C   0  0  0  0  0  0  0  0  0  0  0  0
  -47.5806  -38.6228  102.3108 O   0  0  0  0  0  0  0  0  0  0  0  0
  -48.2216  -40.7114  105.1025 C   0  0  0  0  0  0  0  0  0  0  0  0
  -47.9552  -41.0289  106.5820 C   0  0  1  0  0  0  0  0  0  0  0  0
  -48.2124  -42.5012  106.9151 C   0  0  0  0  0  0  0  0  0  0  0  0
  -46.4948  -40.6891  106.9137 C   0  0  0  0  0  0  0  0  0  0  0  0
  -49.6921  -39.2689  102.8869 N   0  0  0  0  0  0  0  0  0  0  0  0
  -50.1909  -39.2870  101.5080 C   0  0  2  0  0  0  0  0  0  0  0  0
  -49.8202  -37.9926  100.7327 C   0  0  0  0  0  0  0  0  0  0  0  0
  -50.2580  -37.7332   99.6129 O   0  0  0  0  0  0  0  0  0  0  0  0
  -51.7212  -39.4554  101.4755 C   0  0  0  0  0  0  0  0  0  0  0  0
  -52.3757  -39.1311  100.1294 C   0  0  0  0  0  0  0  0  0  0  0  0
  -53.2787  -37.8982  100.2821 C   0  0  0  0  0  0  0  0  0  0  0  0
  -53.6742  -37.2495   98.9635 C   0  0  0  0  0  0  0  0  0  0  0  0
  -52.4935  -36.6352   98.3145 N   0  0  0  0  0  4  0  0  0  0  0  0
  -48.8552  -37.1993  101.2895 N   0  0  0  0  0  0  0  0  0  0  0  0
  -57.3816  -57.2579  100.0119 H   0  0  0  0  0  0  0  0  0  0  0  0
  -65.3968  -45.6554  110.3225 H   0  0  0  0  0  0  0  0  0  0  0  0
  1  2  2  0
  1  3  1  0
  4  1  1  0
  5  4  1  0
  6  5  1  0
  5  8  1  1
  6  7  2  0
 15  6  1  0
  8  9  1  0
  9 10  1  0
 10 11  1  0
 11 12  1  0
 12 13  2  0
 12 14  1  0
 16 15  1  1
 17 16  1  0
 16 19  1  0
 17 18  2  0
 23 17  1  0
 19 20  1  0
 19 21  1  6
 20 22  1  0
 24 23  1  6
 25 24  1  0
 24 27  1  0
 25 26  2  0
 31 25  1  0
 27 28  1  0
 27 29  1  1
 28 30  1  0
 32 31  1  0
 33 32  1  0
 32 35  1  6
 33 34  2  0
 43 33  1  0
 35 36  1  0
 36 37  2  0
 36 38  1  0
 37 39  1  0
 38 40  2  0
 39 41  2  0
 40 41  1  0
 41 42  1  0
 44 43  1  0
 45 44  1  0
 44 47  1  6
 45 46  2  0
 49 45  1  0
 47 48  1  0
 50 49  1  0
 51 50  1  0
 50 53  1  1
 51 52  2  0
 61 51  1  0
 53 54  1  0
 54 55  1  0
 55 56  1  0
 56 57  1  0
 57 58  2  0
 57 59  1  0
 60 62  2  0
 60 63  1  0
 69 60  1  0
 63 61  1  0
 63 64  1  0
 63 68  1  6
 64 67  1  0
 65 66  1  0
 67 65  1  0
 66100  2  0
 70 69  1  0
 71 70  1  0
 70 73  1  6
 71 72  2  0
 78 71  1  0
 73 74  1  0
 74 75  1  0
 75 76  2  0
 75 77  1  0
 79 78  1  0
 80 79  1  0
 79 82  1  6
 80 81  2  0
 86 80  1  0
 82 83  1  0
 83 84  1  1
 83 85  1  0
 87 86  1  0
 88 87  1  0
 87 90  1  6
 88 89  2  0
 95 88  1  0
 90 91  1  0
 91 92  1  6
 91 93  1  0
 94 96  2  0
 97 94  1  0
 94103  1  0
 95 97  1  0
 97 98  1  0
 97102  1  6
 98101  1  0
100 99  1  0
 99101  1  0
103104  1  0
104105  1  0
104107  1  1
105106  2  0
105111  1  0
107108  1  0
108109  1  6
108110  1  0
111112  1  0
112113  1  0
112115  1  1
113114  2  0
113120  1  0
115116  1  0
116117  1  0
117118  1  0
118119  1  0
 13121  1  0
 58122  1  0
M  CHG  1 119   1
M  END
$$$$
