
     RDKit          3D

122123  0  0  0  0  0  0  0  0999 V2000
  -55.3904  -54.2786   96.0460 C   0  0  0  0  0  0  0  0  0  0  0  0
  -54.1874  -54.1170   96.2199 O   0  0  0  0  0  0  0  0  0  0  0  0
  -55.9973  -55.6474   95.9316 C   0  0  0  0  0  0  0  0  0  0  0  0
  -56.2799  -53.2357   95.9275 N   0  0  0  0  0  0  0  0  0  0  0  0
  -57.6254  -53.4247   95.3771 C   0  0  2  0  0  0  0  0  0  0  0  0
  -58.3961  -52.0699   95.4210 C   0  0  0  0  0  0  0  0  0  0  0  0
  -59.6216  -52.1050   95.5170 O   0  0  0  0  0  0  0  0  0  0  0  0
  -58.3517  -54.4694   96.2522 C   0  0  0  0  0  0  0  0  0  0  0  0
  -59.8102  -54.7388   95.8740 C   0  0  0  0  0  0  0  0  0  0  0  0
  -60.2738  -56.0769   96.4510 C   0  0  0  0  0  0  0  0  0  0  0  0
  -59.2051  -56.6746   97.2422 N   0  0  0  0  0  0  0  0  0  0  0  0
  -59.3909  -57.8978   97.8010 C   0  0  0  0  0  0  0  0  0  0  0  0
  -60.2375  -58.7663   97.3922 N   0  0  0  0  0  0  0  0  0  0  0  0
  -58.5815  -58.0912   98.8645 N   0  0  0  0  0  0  0  0  0  0  0  0
  -57.7478  -50.8444   95.3716 N   0  0  0  0  0  0  0  0  0  0  0  0
  -58.1304  -49.7239   96.2710 C   0  0  2  0  0  0  0  0  0  0  0  0
  -57.8278  -49.8586   97.7970 C   0  0  0  0  0  0  0  0  0  0  0  0
  -57.4204  -50.9131   98.2798 O   0  0  0  0  0  0  0  0  0  0  0  0
  -59.6147  -49.2405   96.0921 C   0  0  2  0  0  0  0  0  0  0  0  0
  -60.0878  -49.4553   94.6311 C   0  0  0  0  0  0  0  0  0  0  0  0
  -59.8773  -47.8015   96.5258 C   0  0  0  0  0  0  0  0  0  0  0  0
  -61.5511  -49.8564   94.4940 C   0  0  0  0  0  0  0  0  0  0  0  0
  -57.8457  -48.7154   98.5762 N   0  0  0  0  0  0  0  0  0  0  0  0
  -56.7156  -48.5196   99.4952 C   0  0  2  0  0  0  0  0  0  0  0  0
  -56.8060  -47.2273  100.3716 C   0  0  0  0  0  0  0  0  0  0  0  0
  -56.0139  -46.9495  101.2673 O   0  0  0  0  0  0  0  0  0  0  0  0
  -55.3251  -48.5814   98.8190 C   0  0  2  0  0  0  0  0  0  0  0  0
  -55.0135  -49.9650   98.2251 C   0  0  0  0  0  0  0  0  0  0  0  0
  -54.2301  -48.1241   99.7859 C   0  0  0  0  0  0  0  0  0  0  0  0
  -54.1814  -50.8486   99.1464 C   0  0  0  0  0  0  0  0  0  0  0  0
  -57.9250  -46.4521  100.0784 N   0  0  0  0  0  0  0  0  0  0  0  0
  -58.9572  -46.2210  101.1120 C   0  0  2  0  0  0  0  0  0  0  0  0
  -58.3751  -45.6738  102.4446 C   0  0  0  0  0  0  0  0  0  0  0  0
  -57.3053  -46.0580  102.9116 O   0  0  0  0  0  0  0  0  0  0  0  0
  -59.7481  -47.5196  101.4343 C   0  0  0  0  0  0  0  0  0  0  0  0
  -59.4482  -48.1549  102.7702 C   0  0  0  0  0  0  0  0  0  0  0  0
  -58.4261  -47.6792  103.5950 C   0  0  0  0  0  0  0  0  0  0  0  0
  -60.2493  -49.2229  103.2163 C   0  0  0  0  0  0  0  0  0  0  0  0
  -58.2142  -48.2673  104.8448 C   0  0  0  0  0  0  0  0  0  0  0  0
  -60.0449  -49.7945  104.4735 C   0  0  0  0  0  0  0  0  0  0  0  0
  -59.0297  -49.3041  105.2841 C   0  0  0  0  0  0  0  0  0  0  0  0
  -58.8106  -49.8128  106.5305 O   0  0  0  0  0  0  0  0  0  0  0  0
  -59.1683  -44.7703  103.1106 N   0  0  0  0  0  0  0  0  0  0  0  0
  -58.5511  -43.6450  103.8270 C   0  0  2  0  0  0  0  0  0  0  0  0
  -59.3363  -43.3883  105.1205 C   0  0  0  0  0  0  0  0  0  0  0  0
  -60.5084  -43.0375  105.1178 O   0  0  0  0  0  0  0  0  0  0  0  0
  -58.5307  -42.3621  102.9815 C   0  0  0  0  0  0  0  0  0  0  0  0
  -58.9996  -42.5858  101.6538 O   0  0  0  0  0  0  0  0  0  0  0  0
  -58.6262  -43.6360  106.2747 N   0  0  0  0  0  0  0  0  0  0  0  0
  -59.2093  -44.2972  107.4469 C   0  0  2  0  0  0  0  0  0  0  0  0
  -59.3917  -43.2986  108.6063 C   0  0  0  0  0  0  0  0  0  0  0  0
  -59.9572  -43.6073  109.6524 O   0  0  0  0  0  0  0  0  0  0  0  0
  -58.3781  -45.5253  107.8532 C   0  0  0  0  0  0  0  0  0  0  0  0
  -59.0163  -46.3637  108.9676 C   0  0  0  0  0  0  0  0  0  0  0  0
  -58.1764  -47.6010  109.2832 C   0  0  0  0  0  0  0  0  0  0  0  0
  -58.4868  -48.6536  108.3194 N   0  0  0  0  0  0  0  0  0  0  0  0
  -57.7014  -49.7587  108.2437 C   0  0  0  0  0  0  0  0  0  0  0  0
  -56.7047  -49.8913  107.4528 N   0  0  0  0  0  0  0  0  0  0  0  0
  -58.0996  -50.7056  109.1197 N   0  0  0  0  0  0  0  0  0  0  0  0
  -58.3258  -42.7976  106.1205 C   0  0  0  0  0  0  0  0  0  0  0  0
  -58.9712  -42.0206  108.3175 N   0  0  0  0  0  0  0  0  0  0  0  0
  -59.0146  -43.8135  106.2611 O   0  0  0  0  0  0  0  0  0  0  0  0
  -58.6767  -41.4928  106.9724 C   0  0  1  0  0  0  0  0  0  0  0  0
  -57.5532  -40.4251  107.0257 C   0  0  0  0  0  0  0  0  0  0  0  0
  -56.8069  -37.9545  107.4905 C   0  0  0  0  0  0  0  0  0  0  0  0
  -57.1145  -36.9979  106.3696 C   0  0  0  0  0  0  0  0  0  0  0  0
  -57.8404  -39.0814  107.7363 C   0  0  0  0  0  0  0  0  0  0  0  0
  -59.9539  -40.9553  106.3008 C   0  0  0  0  0  0  0  0  0  0  0  0
  -57.4187  -42.7130  105.0966 N   0  0  0  0  0  0  0  0  0  0  0  0
  -57.2078  -43.7128  104.0256 C   0  0  2  0  0  0  0  0  0  0  0  0
  -55.7046  -43.5709  103.5322 C   0  0  0  0  0  0  0  0  0  0  0  0
  -54.7695  -43.6102  104.3312 O   0  0  0  0  0  0  0  0  0  0  0  0
  -58.2284  -43.5442  102.8971 C   0  0  0  0  0  0  0  0  0  0  0  0
  -59.6993  -43.5994  103.3185 C   0  0  0  0  0  0  0  0  0  0  0  0
  -59.8337  -43.6910  104.8213 C   0  0  0  0  0  0  0  0  0  0  0  0
  -60.4547  -44.5609  105.4219 O   0  0  0  0  0  0  0  0  0  0  0  0
  -59.1904  -42.6936  105.5020 N   0  0  0  0  0  0  0  0  0  0  0  0
  -55.4634  -43.3272  102.1939 N   0  0  0  0  0  0  0  0  0  0  0  0
  -54.2707  -42.5893  101.6911 C   0  0  2  0  0  0  0  0  0  0  0  0
  -54.8685  -41.2868  101.0868 C   0  0  0  0  0  0  0  0  0  0  0  0
  -56.0474  -41.3024  100.6824 O   0  0  0  0  0  0  0  0  0  0  0  0
  -53.6138  -43.4117  100.5709 C   0  0  0  0  0  0  0  0  0  0  0  0
  -52.8114  -44.6660  100.9868 C   0  0  1  0  0  0  0  0  0  0  0  0
  -53.6818  -45.9150  101.0937 C   0  0  0  0  0  0  0  0  0  0  0  0
  -51.5975  -44.9455  100.1043 C   0  0  0  0  0  0  0  0  0  0  0  0
  -54.2521  -40.0994  100.8972 N   0  0  0  0  0  0  0  0  0  0  0  0
  -52.9509  -39.4159  101.1703 C   0  0  2  0  0  0  0  0  0  0  0  0
  -53.1688  -38.0213  100.5142 C   0  0  0  0  0  0  0  0  0  0  0  0
  -53.5299  -38.0038   99.3204 O   0  0  0  0  0  0  0  0  0  0  0  0
  -51.8630  -40.2148  100.4391 C   0  0  0  0  0  0  0  0  0  0  0  0
  -51.7730  -40.2030   98.9123 C   0  0  1  0  0  0  0  0  0  0  0  0
  -51.8601  -38.8144   98.2924 C   0  0  0  0  0  0  0  0  0  0  0  0
  -50.5687  -40.9786   98.4102 C   0  0  0  0  0  0  0  0  0  0  0  0
  -51.4451  -36.1658  102.8382 C   0  0  0  0  0  0  0  0  0  0  0  0
  -53.0958  -36.7836  101.0554 N   0  0  0  0  0  0  0  0  0  0  0  0
  -50.8721  -35.2300  103.4002 O   0  0  0  0  0  0  0  0  0  0  0  0
  -52.9154  -36.0467  102.3435 C   0  0  1  0  0  0  0  0  0  0  0  0
  -53.8697  -36.5170  103.4758 C   0  0  0  0  0  0  0  0  0  0  0  0
  -54.7908  -35.9960  105.9208 C   0  0  0  0  0  0  0  0  0  0  0  0
  -56.2661  -36.1757  105.7113 C   0  0  0  0  0  0  0  0  0  0  0  0
  -53.9735  -35.5527  104.6871 C   0  0  0  0  0  0  0  0  0  0  0  0
  -53.2499  -34.5629  102.0323 C   0  0  0  0  0  0  0  0  0  0  0  0
  -50.8207  -37.3799  102.6869 N   0  0  0  0  0  0  0  0  0  0  0  0
  -51.5559  -38.6475  102.6437 C   0  0  2  0  0  0  0  0  0  0  0  0
  -51.1055  -39.4342  103.8938 C   0  0  0  0  0  0  0  0  0  0  0  0
  -50.6255  -40.5641  103.8066 O   0  0  0  0  0  0  0  0  0  0  0  0
  -51.2400  -39.3757  101.3362 C   0  0  0  0  0  0  0  0  0  0  0  0
  -50.2699  -40.5651  101.4066 C   0  0  1  0  0  0  0  0  0  0  0  0
  -50.7502  -41.6492  102.3755 C   0  0  0  0  0  0  0  0  0  0  0  0
  -50.1221  -41.1764  100.0058 C   0  0  0  0  0  0  0  0  0  0  0  0
  -51.3065  -38.8205  105.1119 N   0  0  0  0  0  0  0  0  0  0  0  0
  -50.2752  -38.8373  106.1543 C   0  0  2  0  0  0  0  0  0  0  0  0
  -50.7760  -38.2121  107.4855 C   0  0  0  0  0  0  0  0  0  0  0  0
  -50.9144  -38.8615  108.5210 O   0  0  0  0  0  0  0  0  0  0  0  0
  -49.0164  -38.0760  105.6993 C   0  0  0  0  0  0  0  0  0  0  0  0
  -47.9377  -37.9157  106.7747 C   0  0  0  0  0  0  0  0  0  0  0  0
  -47.3064  -39.2831  107.0756 C   0  0  0  0  0  0  0  0  0  0  0  0
  -46.1040  -39.2219  108.0064 C   0  0  0  0  0  0  0  0  0  0  0  0
  -45.3836  -40.5155  108.0067 N   0  0  0  0  0  4  0  0  0  0  0  0
  -51.2047  -36.9145  107.4306 N   0  0  0  0  0  0  0  0  0  0  0  0
  -60.8905  -58.3460   96.7302 H   0  0  0  0  0  0  0  0  0  0  0  0
  -56.6432  -50.8494  107.1053 H   0  0  0  0  0  0  0  0  0  0  0  0
  1  2  2  0
  1  3  1  0
  4  1  1  0
  5  4  1  0
  6  5  1  0
  5  8  1  1
  6  7  2  0
 15  6  1  0
  8  9  1  0
  9 10  1  0
 10 11  1  0
 11 12  1  0
 12 13  2  0
 12 14  1  0
 16 15  1  6
 17 16  1  0
 16 19  1  0
 17 18  2  0
 23 17  1  0
 19 20  1  0
 19 21  1  6
 20 22  1  0
 24 23  1  6
 25 24  1  0
 24 27  1  0
 25 26  2  0
 31 25  1  0
 27 28  1  0
 27 29  1  1
 28 30  1  0
 32 31  1  0
 33 32  1  0
 32 35  1  1
 33 34  2  0
 43 33  1  0
 35 36  1  0
 36 37  2  0
 36 38  1  0
 37 39  1  0
 38 40  2  0
 39 41  2  0
 40 41  1  0
 41 42  1  0
 44 43  1  0
 45 44  1  0
 44 47  1  6
 45 46  2  0
 49 45  1  0
 47 48  1  0
 50 49  1  0
 51 50  1  0
 50 53  1  1
 51 52  2  0
 61 51  1  0
 53 54  1  0
 54 55  1  0
 55 56  1  0
 56 57  1  0
 57 58  2  0
 57 59  1  0
 60 62  2  0
 60 63  1  0
 69 60  1  0
 63 61  1  0
 63 64  1  0
 63 68  1  6
 64 67  1  0
 65 66  1  0
 67 65  1  0
 66100  2  0
 70 69  1  0
 71 70  1  0
 70 73  1  6
 71 72  2  0
 78 71  1  0
 73 74  1  0
 74 75  1  0
 75 76  2  0
 75 77  1  0
 79 78  1  0
 80 79  1  0
 79 82  1  6
 80 81  2  0
 86 80  1  0
 82 83  1  0
 83 84  1  6
 83 85  1  0
 87 86  1  0
 88 87  1  0
 87 90  1  6
 88 89  2  0
 95 88  1  0
 90 91  1  0
 91 92  1  1
 91 93  1  0
 94 96  2  0
 97 94  1  0
 94103  1  0
 95 97  1  0
 97 98  1  0
 97102  1  6
 98101  1  0
100 99  1  0
 99101  1  0
103104  1  0
104105  1  0
104107  1  6
105106  2  0
105111  1  0
107108  1  0
108109  1  1
108110  1  0
111112  1  0
112113  1  0
112115  1  6
113114  2  0
113120  1  0
115116  1  0
116117  1  0
117118  1  0
118119  1  0
 13121  1  0
 58122  1  0
M  CHG  1 119   1
M  END
$$$$
