
     RDKit          3D

122123  0  0  0  0  0  0  0  0999 V2000
  -61.4221  -52.9375   96.3181 C   0  0  0  0  0  0  0  0  0  0  0  0
  -62.1474  -52.3666   97.1254 O   0  0  0  0  0  0  0  0  0  0  0  0
  -61.8822  -53.2512   94.9236 C   0  0  0  0  0  0  0  0  0  0  0  0
  -60.1437  -53.3495   96.6158 N   0  0  0  0  0  0  0  0  0  0  0  0
  -59.8415  -54.1239   97.8233 C   0  0  2  0  0  0  0  0  0  0  0  0
  -58.8042  -53.3458   98.6894 C   0  0  0  0  0  0  0  0  0  0  0  0
  -58.1455  -53.9807   99.5112 O   0  0  0  0  0  0  0  0  0  0  0  0
  -59.2441  -55.4772   97.3800 C   0  0  0  0  0  0  0  0  0  0  0  0
  -58.8568  -56.4251   98.5175 C   0  0  0  0  0  0  0  0  0  0  0  0
  -58.2177  -57.6972   97.9592 C   0  0  0  0  0  0  0  0  0  0  0  0
  -56.9279  -57.3830   97.3568 N   0  0  0  0  0  0  0  0  0  0  0  0
  -55.8205  -57.3251   98.1400 C   0  0  0  0  0  0  0  0  0  0  0  0
  -55.6718  -56.5363   99.1370 N   0  0  0  0  0  0  0  0  0  0  0  0
  -54.8716  -58.1945   97.7314 N   0  0  0  0  0  0  0  0  0  0  0  0
  -58.5950  -51.9815   98.5507 N   0  0  0  0  0  0  0  0  0  0  0  0
  -57.5622  -51.2670   99.3468 C   0  0  2  0  0  0  0  0  0  0  0  0
  -57.5730  -49.7055   99.3483 C   0  0  0  0  0  0  0  0  0  0  0  0
  -56.8048  -49.0592  100.0578 O   0  0  0  0  0  0  0  0  0  0  0  0
  -56.0949  -51.7608   99.0782 C   0  0  2  0  0  0  0  0  0  0  0  0
  -55.9302  -53.2431   99.5024 C   0  0  0  0  0  0  0  0  0  0  0  0
  -55.0036  -50.9053   99.7144 C   0  0  0  0  0  0  0  0  0  0  0  0
  -55.0404  -54.0682   98.5814 C   0  0  0  0  0  0  0  0  0  0  0  0
  -58.3348  -49.0503   98.3972 N   0  0  0  0  0  0  0  0  0  0  0  0
  -58.4108  -47.5862   98.4995 C   0  0  2  0  0  0  0  0  0  0  0  0
  -58.8818  -47.0550   99.8932 C   0  0  0  0  0  0  0  0  0  0  0  0
  -59.8724  -47.4714  100.4867 O   0  0  0  0  0  0  0  0  0  0  0  0
  -59.2478  -46.9112   97.3867 C   0  0  2  0  0  0  0  0  0  0  0  0
  -58.8219  -47.3471   95.9750 C   0  0  0  0  0  0  0  0  0  0  0  0
  -59.2237  -45.3881   97.5371 C   0  0  0  0  0  0  0  0  0  0  0  0
  -58.3790  -48.8030   95.8962 C   0  0  0  0  0  0  0  0  0  0  0  0
  -58.0985  -46.0045  100.3645 N   0  0  0  0  0  0  0  0  0  0  0  0
  -58.5477  -45.2102  101.5284 C   0  0  2  0  0  0  0  0  0  0  0  0
  -59.1065  -43.8145  101.1360 C   0  0  0  0  0  0  0  0  0  0  0  0
  -59.9035  -43.6511  100.2148 O   0  0  0  0  0  0  0  0  0  0  0  0
  -57.3997  -44.9935  102.5535 C   0  0  0  0  0  0  0  0  0  0  0  0
  -56.2001  -45.8958  102.3944 C   0  0  0  0  0  0  0  0  0  0  0  0
  -55.0526  -45.7336  103.1741 C   0  0  0  0  0  0  0  0  0  0  0  0
  -56.2581  -46.9560  101.4703 C   0  0  0  0  0  0  0  0  0  0  0  0
  -53.9836  -46.6215  103.0265 C   0  0  0  0  0  0  0  0  0  0  0  0
  -55.1945  -47.8509  101.3400 C   0  0  0  0  0  0  0  0  0  0  0  0
  -54.0645  -47.6801  102.1288 C   0  0  0  0  0  0  0  0  0  0  0  0
  -53.0126  -48.5452  102.0557 O   0  0  0  0  0  0  0  0  0  0  0  0
  -58.6012  -42.7528  101.8476 N   0  0  0  0  0  0  0  0  0  0  0  0
  -59.1053  -41.3959  101.5923 C   0  0  2  0  0  0  0  0  0  0  0  0
  -60.4981  -41.2563  102.2217 C   0  0  0  0  0  0  0  0  0  0  0  0
  -61.5080  -41.6871  101.6820 O   0  0  0  0  0  0  0  0  0  0  0  0
  -59.1925  -41.0841  100.0902 C   0  0  0  0  0  0  0  0  0  0  0  0
  -60.1888  -40.1061   99.8012 O   0  0  0  0  0  0  0  0  0  0  0  0
  -60.5037  -40.6548  103.4610 N   0  0  0  0  0  0  0  0  0  0  0  0
  -61.7295  -40.1931  104.1212 C   0  0  2  0  0  0  0  0  0  0  0  0
  -61.8780  -40.8351  105.5142 C   0  0  0  0  0  0  0  0  0  0  0  0
  -62.9005  -41.4231  105.8576 O   0  0  0  0  0  0  0  0  0  0  0  0
  -62.9573  -40.4351  103.2277 C   0  0  0  0  0  0  0  0  0  0  0  0
  -64.2184  -40.8349  104.0036 C   0  0  0  0  0  0  0  0  0  0  0  0
  -64.0525  -42.2008  104.6689 C   0  0  0  0  0  0  0  0  0  0  0  0
  -64.9900  -42.3118  105.7832 N   0  0  0  0  0  0  0  0  0  0  0  0
  -66.3013  -42.5718  105.5449 C   0  0  0  0  0  0  0  0  0  0  0  0
  -66.7598  -43.6968  105.1443 N   0  0  0  0  0  0  0  0  0  0  0  0
  -67.0699  -41.4901  105.7933 N   0  0  0  0  0  0  0  0  0  0  0  0
  -59.4961  -40.1332  104.3895 C   0  0  0  0  0  0  0  0  0  0  0  0
  -60.8205  -40.5910  106.3602 N   0  0  0  0  0  0  0  0  0  0  0  0
  -60.5196  -39.9067  103.7359 O   0  0  0  0  0  0  0  0  0  0  0  0
  -59.5346  -39.9781  105.9787 C   0  0  1  0  0  0  0  0  0  0  0  0
  -58.3536  -40.6461  106.7297 C   0  0  0  0  0  0  0  0  0  0  0  0
  -56.9006  -40.8779  108.9004 C   0  0  0  0  0  0  0  0  0  0  0  0
  -55.8731  -39.7912  109.0716 C   0  0  0  0  0  0  0  0  0  0  0  0
  -58.2470  -40.4572  108.2614 C   0  0  0  0  0  0  0  0  0  0  0  0
  -59.5674  -38.4534  106.1924 C   0  0  0  0  0  0  0  0  0  0  0  0
  -58.2923  -40.2975  103.7551 N   0  0  0  0  0  0  0  0  0  0  0  0
  -58.0362  -40.1462  102.3050 C   0  0  2  0  0  0  0  0  0  0  0  0
  -56.7885  -41.0608  101.9448 C   0  0  0  0  0  0  0  0  0  0  0  0
  -56.7673  -42.2524  102.2512 O   0  0  0  0  0  0  0  0  0  0  0  0
  -57.8332  -38.6772  101.9254 C   0  0  0  0  0  0  0  0  0  0  0  0
  -56.9091  -37.8751  102.8456 C   0  0  0  0  0  0  0  0  0  0  0  0
  -56.3160  -38.7531  103.9237 C   0  0  0  0  0  0  0  0  0  0  0  0
  -55.9489  -38.3643  105.0269 O   0  0  0  0  0  0  0  0  0  0  0  0
  -56.2070  -40.0715  103.5741 N   0  0  0  0  0  0  0  0  0  0  0  0
  -55.6884  -40.4796  101.3442 N   0  0  0  0  0  0  0  0  0  0  0  0
  -54.2971  -40.9891  101.5006 C   0  0  2  0  0  0  0  0  0  0  0  0
  -53.5741  -39.8574  102.2851 C   0  0  0  0  0  0  0  0  0  0  0  0
  -54.0100  -38.6934  102.1916 O   0  0  0  0  0  0  0  0  0  0  0  0
  -53.6594  -41.1272  100.1089 C   0  0  0  0  0  0  0  0  0  0  0  0
  -54.5300  -40.7527   98.8876 C   0  0  1  0  0  0  0  0  0  0  0  0
  -55.2157  -41.9621   98.2581 C   0  0  0  0  0  0  0  0  0  0  0  0
  -55.5540  -39.6562   99.1699 C   0  0  0  0  0  0  0  0  0  0  0  0
  -52.4707  -39.9562  103.0587 N   0  0  0  0  0  0  0  0  0  0  0  0
  -51.5280  -40.9815  103.6019 C   0  0  2  0  0  0  0  0  0  0  0  0
  -50.5051  -40.1057  104.3827 C   0  0  0  0  0  0  0  0  0  0  0  0
  -49.9618  -39.1720  103.7589 O   0  0  0  0  0  0  0  0  0  0  0  0
  -50.8712  -41.6695  102.3970 C   0  0  0  0  0  0  0  0  0  0  0  0
  -51.0386  -41.1070  100.9846 C   0  0  1  0  0  0  0  0  0  0  0  0
  -52.2088  -41.7004  100.2109 C   0  0  0  0  0  0  0  0  0  0  0  0
  -51.0602  -39.5893  100.9785 C   0  0  0  0  0  0  0  0  0  0  0  0
  -49.9712  -42.2739  106.9958 C   0  0  0  0  0  0  0  0  0  0  0  0
  -50.1420  -40.1436  105.6853 N   0  0  0  0  0  0  0  0  0  0  0  0
  -50.3065  -43.0635  107.8811 O   0  0  0  0  0  0  0  0  0  0  0  0
  -50.4473  -40.7927  106.9968 C   0  0  1  0  0  0  0  0  0  0  0  0
  -51.9504  -40.7449  107.3873 C   0  0  0  0  0  0  0  0  0  0  0  0
  -53.7237  -41.1766  109.3281 C   0  0  0  0  0  0  0  0  0  0  0  0
  -54.5387  -39.9185  109.2514 C   0  0  0  0  0  0  0  0  0  0  0  0
  -52.2509  -41.0665  108.8752 C   0  0  0  0  0  0  0  0  0  0  0  0
  -49.6586  -39.9847  108.0623 C   0  0  0  0  0  0  0  0  0  0  0  0
  -49.2117  -42.6959  105.9319 N   0  0  0  0  0  0  0  0  0  0  0  0
  -48.6765  -41.7728  104.9266 C   0  0  2  0  0  0  0  0  0  0  0  0
  -49.9050  -41.0702  104.3088 C   0  0  0  0  0  0  0  0  0  0  0  0
  -51.0433  -41.2716  104.7310 O   0  0  0  0  0  0  0  0  0  0  0  0
  -47.8594  -42.5568  103.8983 C   0  0  0  0  0  0  0  0  0  0  0  0
  -48.6285  -43.4776  102.9385 C   0  0  1  0  0  0  0  0  0  0  0  0
  -49.7130  -42.7282  102.1595 C   0  0  0  0  0  0  0  0  0  0  0  0
  -47.6406  -44.1038  101.9435 C   0  0  0  0  0  0  0  0  0  0  0  0
  -49.6627  -40.2387  103.2360 N   0  0  0  0  0  0  0  0  0  0  0  0
  -49.4368  -38.8015  103.4203 C   0  0  2  0  0  0  0  0  0  0  0  0
  -49.7843  -38.3325  104.8601 C   0  0  0  0  0  0  0  0  0  0  0  0
  -49.3054  -37.3206  105.3696 O   0  0  0  0  0  0  0  0  0  0  0  0
  -50.2720  -37.9780  102.4225 C   0  0  0  0  0  0  0  0  0  0  0  0
  -49.7288  -37.9588  100.9907 C   0  0  0  0  0  0  0  0  0  0  0  0
  -50.6581  -37.1202  100.1008 C   0  0  0  0  0  0  0  0  0  0  0  0
  -52.1375  -37.2828  100.4188 C   0  0  0  0  0  0  0  0  0  0  0  0
  -52.7478  -35.9694  100.7272 N   0  0  0  0  0  4  0  0  0  0  0  0
  -50.5490  -39.1801  105.6133 N   0  0  0  0  0  0  0  0  0  0  0  0
  -56.4900  -55.9360   99.2439 H   0  0  0  0  0  0  0  0  0  0  0  0
  -66.0391  -44.4186  105.1904 H   0  0  0  0  0  0  0  0  0  0  0  0
  1  2  2  0
  1  3  1  0
  4  1  1  0
  5  4  1  0
  6  5  1  0
  5  8  1  6
  6  7  2  0
 15  6  1  0
  8  9  1  0
  9 10  1  0
 10 11  1  0
 11 12  1  0
 12 13  2  0
 12 14  1  0
 16 15  1  6
 17 16  1  0
 16 19  1  0
 17 18  2  0
 23 17  1  0
 19 20  1  0
 19 21  1  1
 20 22  1  0
 24 23  1  1
 25 24  1  0
 24 27  1  0
 25 26  2  0
 31 25  1  0
 27 28  1  0
 27 29  1  6
 28 30  1  0
 32 31  1  0
 33 32  1  0
 32 35  1  1
 33 34  2  0
 43 33  1  0
 35 36  1  0
 36 37  2  0
 36 38  1  0
 37 39  1  0
 38 40  2  0
 39 41  2  0
 40 41  1  0
 41 42  1  0
 44 43  1  0
 45 44  1  0
 44 47  1  6
 45 46  2  0
 49 45  1  0
 47 48  1  0
 50 49  1  0
 51 50  1  0
 50 53  1  6
 51 52  2  0
 61 51  1  0
 53 54  1  0
 54 55  1  0
 55 56  1  0
 56 57  1  0
 57 58  2  0
 57 59  1  0
 60 62  2  0
 60 63  1  0
 69 60  1  0
 63 61  1  0
 63 64  1  0
 63 68  1  6
 64 67  1  0
 65 66  1  0
 67 65  1  0
 66100  2  0
 70 69  1  0
 71 70  1  0
 70 73  1  1
 71 72  2  0
 78 71  1  0
 73 74  1  0
 74 75  1  0
 75 76  2  0
 75 77  1  0
 79 78  1  0
 80 79  1  0
 79 82  1  6
 80 81  2  0
 86 80  1  0
 82 83  1  0
 83 84  1  1
 83 85  1  0
 87 86  1  0
 88 87  1  0
 87 90  1  6
 88 89  2  0
 95 88  1  0
 90 91  1  0
 91 92  1  1
 91 93  1  0
 94 96  2  0
 97 94  1  0
 94103  1  0
 95 97  1  0
 97 98  1  0
 97102  1  1
 98101  1  0
100 99  1  0
 99101  1  0
103104  1  0
104105  1  0
104107  1  6
105106  2  0
105111  1  0
107108  1  0
108109  1  6
108110  1  0
111112  1  0
112113  1  0
112115  1  6
113114  2  0
113120  1  0
115116  1  0
116117  1  0
117118  1  0
118119  1  0
 13121  1  0
 58122  1  0
M  CHG  1 119   1
M  END
$$$$
