
     RDKit          3D

122123  0  0  0  0  0  0  0  0999 V2000
  -61.8163  -60.2327   94.8057 C   0  0  0  0  0  0  0  0  0  0  0  0
  -61.6528  -61.4098   94.5029 O   0  0  0  0  0  0  0  0  0  0  0  0
  -62.5279  -59.8304   96.0653 C   0  0  0  0  0  0  0  0  0  0  0  0
  -61.3813  -59.1878   94.0237 N   0  0  0  0  0  0  0  0  0  0  0  0
  -60.2462  -58.3472   94.4165 C   0  0  2  0  0  0  0  0  0  0  0  0
  -60.7058  -57.3388   95.5134 C   0  0  0  0  0  0  0  0  0  0  0  0
  -61.9044  -57.2853   95.7836 O   0  0  0  0  0  0  0  0  0  0  0  0
  -59.7711  -57.5788   93.1640 C   0  0  0  0  0  0  0  0  0  0  0  0
  -60.8827  -57.1236   92.2153 C   0  0  0  0  0  0  0  0  0  0  0  0
  -60.8190  -57.9058   90.9030 C   0  0  0  0  0  0  0  0  0  0  0  0
  -59.4298  -58.0974   90.5048 N   0  0  0  0  0  0  0  0  0  0  0  0
  -59.1436  -58.8756   89.4298 C   0  0  0  0  0  0  0  0  0  0  0  0
  -59.9843  -59.6340   88.8329 N   0  0  0  0  0  0  0  0  0  0  0  0
  -57.8473  -58.7711   89.0663 N   0  0  0  0  0  0  0  0  0  0  0  0
  -59.8132  -56.5237   96.1941 N   0  0  0  0  0  0  0  0  0  0  0  0
  -60.2792  -55.4990   97.1655 C   0  0  2  0  0  0  0  0  0  0  0  0
  -59.8772  -54.0093   96.9253 C   0  0  0  0  0  0  0  0  0  0  0  0
  -59.2783  -53.6621   95.9095 O   0  0  0  0  0  0  0  0  0  0  0  0
  -59.9892  -55.8638   98.6661 C   0  0  2  0  0  0  0  0  0  0  0  0
  -60.8616  -55.0038   99.6167 C   0  0  0  0  0  0  0  0  0  0  0  0
  -58.5218  -55.7789   99.0749 C   0  0  0  0  0  0  0  0  0  0  0  0
  -61.5180  -53.7992   98.9544 C   0  0  0  0  0  0  0  0  0  0  0  0
  -60.3699  -53.0461   97.7877 N   0  0  0  0  0  0  0  0  0  0  0  0
  -59.9466  -51.6594   97.5472 C   0  0  2  0  0  0  0  0  0  0  0  0
  -60.6216  -50.6017   98.4810 C   0  0  0  0  0  0  0  0  0  0  0  0
  -61.3286  -49.6828   98.0777 O   0  0  0  0  0  0  0  0  0  0  0  0
  -60.0773  -51.1983   96.0758 C   0  0  2  0  0  0  0  0  0  0  0  0
  -61.5278  -50.8755   95.6804 C   0  0  0  0  0  0  0  0  0  0  0  0
  -59.4499  -52.2230   95.1276 C   0  0  0  0  0  0  0  0  0  0  0  0
  -61.8807  -51.3041   94.2614 C   0  0  0  0  0  0  0  0  0  0  0  0
  -60.2797  -50.7667   99.8208 N   0  0  0  0  0  0  0  0  0  0  0  0
  -60.7991  -49.8277  100.8385 C   0  0  2  0  0  0  0  0  0  0  0  0
  -61.1532  -48.4311  100.2565 C   0  0  0  0  0  0  0  0  0  0  0  0
  -61.5167  -48.2667   99.0941 O   0  0  0  0  0  0  0  0  0  0  0  0
  -59.7851  -49.6183  101.9977 C   0  0  0  0  0  0  0  0  0  0  0  0
  -58.3994  -50.1689  101.7635 C   0  0  0  0  0  0  0  0  0  0  0  0
  -58.0532  -50.7967  100.5647 C   0  0  0  0  0  0  0  0  0  0  0  0
  -57.4189  -50.0033  102.7598 C   0  0  0  0  0  0  0  0  0  0  0  0
  -56.7452  -51.2493  100.3723 C   0  0  0  0  0  0  0  0  0  0  0  0
  -56.1091  -50.4410  102.5549 C   0  0  0  0  0  0  0  0  0  0  0  0
  -55.7800  -51.0557  101.3540 C   0  0  0  0  0  0  0  0  0  0  0  0
  -54.5074  -51.4747  101.0986 O   0  0  0  0  0  0  0  0  0  0  0  0
  -60.9719  -47.3701  101.1111 N   0  0  0  0  0  0  0  0  0  0  0  0
  -61.9321  -46.2572  101.1081 C   0  0  2  0  0  0  0  0  0  0  0  0
  -61.6605  -45.3628  102.3254 C   0  0  0  0  0  0  0  0  0  0  0  0
  -62.4930  -45.1784  103.2028 O   0  0  0  0  0  0  0  0  0  0  0  0
  -63.3874  -46.7484  101.1526 C   0  0  0  0  0  0  0  0  0  0  0  0
  -63.9044  -46.7776  102.4809 O   0  0  0  0  0  0  0  0  0  0  0  0
  -60.3897  -44.8329  102.3687 N   0  0  0  0  0  0  0  0  0  0  0  0
  -60.0051  -43.7487  103.2787 C   0  0  2  0  0  0  0  0  0  0  0  0
  -59.9440  -44.2498  104.7347 C   0  0  0  0  0  0  0  0  0  0  0  0
  -60.6665  -45.1544  105.1458 O   0  0  0  0  0  0  0  0  0  0  0  0
  -60.9369  -42.5370  103.1119 C   0  0  0  0  0  0  0  0  0  0  0  0
  -60.3920  -41.2465  103.7362 C   0  0  0  0  0  0  0  0  0  0  0  0
  -61.3831  -40.0931  103.5835 C   0  0  0  0  0  0  0  0  0  0  0  0
  -60.8204  -39.0892  102.6843 N   0  0  0  0  0  0  0  0  0  0  0  0
  -61.5010  -37.9404  102.4371 C   0  0  0  0  0  0  0  0  0  0  0  0
  -62.4781  -37.5070  103.1399 N   0  0  0  0  0  0  0  0  0  0  0  0
  -61.0097  -37.3015  101.3542 N   0  0  0  0  0  0  0  0  0  0  0  0
  -57.7837  -42.7838  103.6549 C   0  0  0  0  0  0  0  0  0  0  0  0
  -59.1008  -43.5228  105.5434 N   0  0  0  0  0  0  0  0  0  0  0  0
  -58.5854  -43.3050  102.8728 O   0  0  0  0  0  0  0  0  0  0  0  0
  -58.2744  -42.3773  105.1196 C   0  0  1  0  0  0  0  0  0  0  0  0
  -57.1371  -42.1029  106.1375 C   0  0  0  0  0  0  0  0  0  0  0  0
  -56.3417  -41.0534  108.4052 C   0  0  0  0  0  0  0  0  0  0  0  0
  -56.1054  -39.5678  108.3460 C   0  0  0  0  0  0  0  0  0  0  0  0
  -57.5126  -41.5983  107.5508 C   0  0  0  0  0  0  0  0  0  0  0  0
  -59.1456  -41.1311  104.8760 C   0  0  0  0  0  0  0  0  0  0  0  0
  -56.5600  -42.3569  103.2090 N   0  0  0  0  0  0  0  0  0  0  0  0
  -56.0836  -42.3679  101.8075 C   0  0  2  0  0  0  0  0  0  0  0  0
  -54.4986  -42.4661  101.8452 C   0  0  0  0  0  0  0  0  0  0  0  0
  -53.9341  -43.3522  102.4860 O   0  0  0  0  0  0  0  0  0  0  0  0
  -56.5912  -41.1466  101.0368 C   0  0  0  0  0  0  0  0  0  0  0  0
  -55.5773  -40.4841  100.1001 C   0  0  0  0  0  0  0  0  0  0  0  0
  -56.2040  -39.3375   99.3402 C   0  0  0  0  0  0  0  0  0  0  0  0
  -57.2856  -38.8242   99.6043 O   0  0  0  0  0  0  0  0  0  0  0  0
  -55.4544  -38.8883   98.2874 N   0  0  0  0  0  0  0  0  0  0  0  0
  -53.7560  -41.4930  101.2048 N   0  0  0  0  0  0  0  0  0  0  0  0
  -52.3871  -41.0861  101.6297 C   0  0  2  0  0  0  0  0  0  0  0  0
  -52.5699  -39.6193  102.1134 C   0  0  0  0  0  0  0  0  0  0  0  0
  -53.5109  -38.9490  101.6455 O   0  0  0  0  0  0  0  0  0  0  0  0
  -51.4609  -41.1027  100.4031 C   0  0  0  0  0  0  0  0  0  0  0  0
  -49.9446  -40.9372  100.6550 C   0  0  1  0  0  0  0  0  0  0  0  0
  -49.3819  -39.6548  100.0485 C   0  0  0  0  0  0  0  0  0  0  0  0
  -49.5458  -41.0422  102.1249 C   0  0  0  0  0  0  0  0  0  0  0  0
  -51.7977  -38.9275  102.9800 N   0  0  0  0  0  0  0  0  0  0  0  0
  -50.6205  -39.1142  103.8823 C   0  0  2  0  0  0  0  0  0  0  0  0
  -50.4232  -37.6841  104.4644 C   0  0  0  0  0  0  0  0  0  0  0  0
  -50.3151  -36.7469  103.6483 O   0  0  0  0  0  0  0  0  0  0  0  0
  -49.4370  -39.5257  102.9955 C   0  0  0  0  0  0  0  0  0  0  0  0
  -48.9180  -38.5956  101.8977 C   0  0  1  0  0  0  0  0  0  0  0  0
  -49.8806  -38.4072  100.7324 C   0  0  0  0  0  0  0  0  0  0  0  0
  -48.4347  -37.2711  102.4597 C   0  0  0  0  0  0  0  0  0  0  0  0
  -49.4792  -38.6236  107.6332 C   0  0  0  0  0  0  0  0  0  0  0  0
  -50.4159  -37.2605  105.7492 N   0  0  0  0  0  0  0  0  0  0  0  0
  -49.5407  -39.2525  108.6917 O   0  0  0  0  0  0  0  0  0  0  0  0
  -50.6407  -37.7033  107.1592 C   0  0  1  0  0  0  0  0  0  0  0  0
  -51.9912  -38.4394  107.3793 C   0  0  0  0  0  0  0  0  0  0  0  0
  -53.6828  -39.4168  109.1906 C   0  0  0  0  0  0  0  0  0  0  0  0
  -54.9876  -38.8819  108.6765 C   0  0  0  0  0  0  0  0  0  0  0  0
  -52.4245  -38.5829  108.8623 C   0  0  0  0  0  0  0  0  0  0  0  0
  -50.6681  -36.4055  108.0108 C   0  0  0  0  0  0  0  0  0  0  0  0
  -48.4001  -38.7664  106.7954 N   0  0  0  0  0  0  0  0  0  0  0  0
  -48.2724  -38.0257  105.5367 C   0  0  2  0  0  0  0  0  0  0  0  0
  -47.0047  -38.5813  104.8521 C   0  0  0  0  0  0  0  0  0  0  0  0
  -46.7480  -38.3364  103.6736 O   0  0  0  0  0  0  0  0  0  0  0  0
  -48.1809  -36.5280  105.8336 C   0  0  0  0  0  0  0  0  0  0  0  0
  -49.4521  -35.8293  106.3401 C   0  0  1  0  0  0  0  0  0  0  0  0
  -50.6930  -36.2283  105.5367 C   0  0  0  0  0  0  0  0  0  0  0  0
  -49.6726  -36.1950  107.8151 C   0  0  0  0  0  0  0  0  0  0  0  0
  -46.1993  -39.3967  105.6185 N   0  0  0  0  0  0  0  0  0  0  0  0
  -45.3010  -38.8427  106.6367 C   0  0  2  0  0  0  0  0  0  0  0  0
  -43.8555  -39.3976  106.5086 C   0  0  0  0  0  0  0  0  0  0  0  0
  -42.9858  -39.2052  107.3569 O   0  0  0  0  0  0  0  0  0  0  0  0
  -45.8180  -39.1469  108.0550 C   0  0  0  0  0  0  0  0  0  0  0  0
  -46.0647  -37.9131  108.9282 C   0  0  0  0  0  0  0  0  0  0  0  0
  -45.1988  -36.7482  108.4263 C   0  0  0  0  0  0  0  0  0  0  0  0
  -45.2733  -35.4992  109.2926 C   0  0  0  0  0  0  0  0  0  0  0  0
  -44.3683  -34.4511  108.7684 N   0  0  0  0  0  4  0  0  0  0  0  0
  -43.5330  -40.0013  105.3245 N   0  0  0  0  0  0  0  0  0  0  0  0
  -59.7779  -60.6154   89.0213 H   0  0  0  0  0  0  0  0  0  0  0  0
  -62.4187  -36.4944  103.2569 H   0  0  0  0  0  0  0  0  0  0  0  0
  1  2  2  0
  1  3  1  0
  4  1  1  0
  5  4  1  0
  6  5  1  0
  5  8  1  6
  6  7  2  0
 15  6  1  0
  8  9  1  0
  9 10  1  0
 10 11  1  0
 11 12  1  0
 12 13  2  0
 12 14  1  0
 16 15  1  6
 17 16  1  0
 16 19  1  0
 17 18  2  0
 23 17  1  0
 19 20  1  0
 19 21  1  1
 20 22  1  0
 24 23  1  6
 25 24  1  0
 24 27  1  0
 25 26  2  0
 31 25  1  0
 27 28  1  0
 27 29  1  6
 28 30  1  0
 32 31  1  0
 33 32  1  0
 32 35  1  1
 33 34  2  0
 43 33  1  0
 35 36  1  0
 36 37  2  0
 36 38  1  0
 37 39  1  0
 38 40  2  0
 39 41  2  0
 40 41  1  0
 41 42  1  0
 44 43  1  0
 45 44  1  0
 44 47  1  1
 45 46  2  0
 49 45  1  0
 47 48  1  0
 50 49  1  0
 51 50  1  0
 50 53  1  1
 51 52  2  0
 61 51  1  0
 53 54  1  0
 54 55  1  0
 55 56  1  0
 56 57  1  0
 57 58  2  0
 57 59  1  0
 60 62  2  0
 60 63  1  0
 69 60  1  0
 63 61  1  0
 63 64  1  0
 63 68  1  6
 64 67  1  0
 65 66  1  0
 67 65  1  0
 66100  2  0
 70 69  1  0
 71 70  1  0
 70 73  1  1
 71 72  2  0
 78 71  1  0
 73 74  1  0
 74 75  1  0
 75 76  2  0
 75 77  1  0
 79 78  1  0
 80 79  1  0
 79 82  1  6
 80 81  2  0
 86 80  1  0
 82 83  1  0
 83 84  1  1
 83 85  1  0
 87 86  1  0
 88 87  1  0
 87 90  1  6
 88 89  2  0
 95 88  1  0
 90 91  1  0
 91 92  1  6
 91 93  1  0
 94 96  2  0
 97 94  1  0
 94103  1  0
 95 97  1  0
 97 98  1  0
 97102  1  1
 98101  1  0
100 99  1  0
 99101  1  0
103104  1  0
104105  1  0
104107  1  1
105106  2  0
105111  1  0
107108  1  0
108109  1  6
108110  1  0
111112  1  0
112113  1  0
112115  1  1
113114  2  0
113120  1  0
115116  1  0
116117  1  0
117118  1  0
118119  1  0
 13121  1  0
 58122  1  0
M  CHG  1 119   1
M  END
$$$$
