
     RDKit          3D

122123  0  0  0  0  0  0  0  0999 V2000
  -54.9404  -53.0402   94.0280 C   0  0  0  0  0  0  0  0  0  0  0  0
  -55.1835  -52.4555   92.9779 O   0  0  0  0  0  0  0  0  0  0  0  0
  -54.0852  -54.2739   94.0678 C   0  0  0  0  0  0  0  0  0  0  0  0
  -55.4328  -52.6336   95.2465 N   0  0  0  0  0  0  0  0  0  0  0  0
  -56.3797  -51.5209   95.3665 C   0  0  2  0  0  0  0  0  0  0  0  0
  -56.1268  -50.7703   96.7096 C   0  0  0  0  0  0  0  0  0  0  0  0
  -55.0910  -51.0187   97.3242 O   0  0  0  0  0  0  0  0  0  0  0  0
  -57.8067  -52.1113   95.3568 C   0  0  0  0  0  0  0  0  0  0  0  0
  -58.8657  -51.2510   94.6633 C   0  0  0  0  0  0  0  0  0  0  0  0
  -60.2180  -51.9649   94.6625 C   0  0  0  0  0  0  0  0  0  0  0  0
  -61.2947  -50.9913   94.7966 N   0  0  0  0  0  0  0  0  0  0  0  0
  -62.3912  -51.3043   95.5333 C   0  0  0  0  0  0  0  0  0  0  0  0
  -63.0795  -52.3751   95.3995 N   0  0  0  0  0  0  0  0  0  0  0  0
  -62.6892  -50.3352   96.4251 N   0  0  0  0  0  0  0  0  0  0  0  0
  -57.0154  -49.8328   97.2155 N   0  0  0  0  0  0  0  0  0  0  0  0
  -56.6183  -48.8824   98.2878 C   0  0  2  0  0  0  0  0  0  0  0  0
  -57.6551  -47.8120   98.7545 C   0  0  0  0  0  0  0  0  0  0  0  0
  -57.9353  -46.8419   98.0536 O   0  0  0  0  0  0  0  0  0  0  0  0
  -55.2402  -48.1720   98.0326 C   0  0  2  0  0  0  0  0  0  0  0  0
  -54.2231  -48.5348   99.1452 C   0  0  0  0  0  0  0  0  0  0  0  0
  -55.3207  -46.6577   97.8643 C   0  0  0  0  0  0  0  0  0  0  0  0
  -53.0608  -49.4026   98.6794 C   0  0  0  0  0  0  0  0  0  0  0  0
  -58.3991  -48.0669   99.8927 N   0  0  0  0  0  0  0  0  0  0  0  0
  -59.4387  -47.0880  100.2404 C   0  0  2  0  0  0  0  0  0  0  0  0
  -58.9278  -45.8619  101.0663 C   0  0  0  0  0  0  0  0  0  0  0  0
  -57.8131  -45.7951  101.5763 O   0  0  0  0  0  0  0  0  0  0  0  0
  -60.6779  -47.6945  100.9411 C   0  0  2  0  0  0  0  0  0  0  0  0
  -61.8752  -46.7303  100.9717 C   0  0  0  0  0  0  0  0  0  0  0  0
  -60.3196  -48.1921  102.3436 C   0  0  0  0  0  0  0  0  0  0  0  0
  -61.9451  -45.8095   99.7596 C   0  0  0  0  0  0  0  0  0  0  0  0
  -59.8976  -44.8754  101.2260 N   0  0  0  0  0  0  0  0  0  0  0  0
  -59.5998  -43.6667  102.0244 C   0  0  2  0  0  0  0  0  0  0  0  0
  -60.8068  -42.6942  102.1334 C   0  0  0  0  0  0  0  0  0  0  0  0
  -61.3007  -42.1337  101.1575 O   0  0  0  0  0  0  0  0  0  0  0  0
  -58.3988  -42.8728  101.4385 C   0  0  0  0  0  0  0  0  0  0  0  0
  -58.7161  -41.9729  100.2691 C   0  0  0  0  0  0  0  0  0  0  0  0
  -57.7107  -41.3152   99.5565 C   0  0  0  0  0  0  0  0  0  0  0  0
  -60.0547  -41.8308   99.8573 C   0  0  0  0  0  0  0  0  0  0  0  0
  -58.0461  -40.5293   98.4508 C   0  0  0  0  0  0  0  0  0  0  0  0
  -60.3821  -41.0592   98.7409 C   0  0  0  0  0  0  0  0  0  0  0  0
  -59.3694  -40.4188   98.0389 C   0  0  0  0  0  0  0  0  0  0  0  0
  -59.6386  -39.6770   96.9265 O   0  0  0  0  0  0  0  0  0  0  0  0
  -61.2536  -42.4455  103.4091 N   0  0  0  0  0  0  0  0  0  0  0  0
  -62.6251  -41.9614  103.6216 C   0  0  2  0  0  0  0  0  0  0  0  0
  -62.5952  -40.4345  103.7752 C   0  0  0  0  0  0  0  0  0  0  0  0
  -63.6046  -39.7476  103.6978 O   0  0  0  0  0  0  0  0  0  0  0  0
  -63.2725  -42.5852  104.8677 C   0  0  0  0  0  0  0  0  0  0  0  0
  -62.4841  -43.6413  105.4114 O   0  0  0  0  0  0  0  0  0  0  0  0
  -61.3504  -39.9163  104.0572 N   0  0  0  0  0  0  0  0  0  0  0  0
  -61.1523  -38.6010  104.6755 C   0  0  2  0  0  0  0  0  0  0  0  0
  -60.3877  -37.6579  103.7264 C   0  0  0  0  0  0  0  0  0  0  0  0
  -60.9596  -36.8076  103.0488 O   0  0  0  0  0  0  0  0  0  0  0  0
  -60.4690  -38.7372  106.0462 C   0  0  0  0  0  0  0  0  0  0  0  0
  -61.3853  -38.4055  107.2304 C   0  0  0  0  0  0  0  0  0  0  0  0
  -60.6444  -38.5366  108.5608 C   0  0  0  0  0  0  0  0  0  0  0  0
  -59.3733  -39.2210  108.3398 N   0  0  0  0  0  0  0  0  0  0  0  0
  -58.5576  -39.4953  109.3902 C   0  0  0  0  0  0  0  0  0  0  0  0
  -57.4422  -40.1155  109.3037 N   0  0  0  0  0  0  0  0  0  0  0  0
  -59.0686  -39.0209  110.5462 N   0  0  0  0  0  0  0  0  0  0  0  0
  -58.1930  -39.3902  105.3581 C   0  0  0  0  0  0  0  0  0  0  0  0
  -59.0429  -37.9319  103.6266 N   0  0  0  0  0  0  0  0  0  0  0  0
  -59.0844  -39.0194  106.1288 O   0  0  0  0  0  0  0  0  0  0  0  0
  -58.4192  -39.2590  103.7824 C   0  0  1  0  0  0  0  0  0  0  0  0
  -57.1320  -39.3747  102.9252 C   0  0  0  0  0  0  0  0  0  0  0  0
  -56.0001  -39.7930  100.5970 C   0  0  0  0  0  0  0  0  0  0  0  0
  -55.9104  -41.2447  100.2087 C   0  0  0  0  0  0  0  0  0  0  0  0
  -57.2644  -39.3682  101.3840 C   0  0  0  0  0  0  0  0  0  0  0  0
  -59.4264  -40.3804  103.4673 C   0  0  0  0  0  0  0  0  0  0  0  0
  -57.1230  -40.1047  105.8305 N   0  0  0  0  0  0  0  0  0  0  0  0
  -56.9327  -40.5872  107.2169 C   0  0  2  0  0  0  0  0  0  0  0  0
  -55.3689  -40.7132  107.4659 C   0  0  0  0  0  0  0  0  0  0  0  0
  -54.6143  -39.7665  107.2451 O   0  0  0  0  0  0  0  0  0  0  0  0
  -57.6866  -41.8973  107.4594 C   0  0  0  0  0  0  0  0  0  0  0  0
  -57.1681  -43.1142  106.6884 C   0  0  0  0  0  0  0  0  0  0  0  0
  -56.1473  -42.7084  105.6501 C   0  0  0  0  0  0  0  0  0  0  0  0
  -56.0811  -43.1600  104.5123 O   0  0  0  0  0  0  0  0  0  0  0  0
  -55.2577  -41.7621  106.0805 N   0  0  0  0  0  0  0  0  0  0  0  0
  -54.8546  -41.9313  107.8661 N   0  0  0  0  0  0  0  0  0  0  0  0
  -53.4696  -42.3847  107.5560 C   0  0  2  0  0  0  0  0  0  0  0  0
  -53.6808  -43.5937  106.6007 C   0  0  0  0  0  0  0  0  0  0  0  0
  -54.7502  -44.2302  106.6703 O   0  0  0  0  0  0  0  0  0  0  0  0
  -52.8053  -42.8743  108.8527 C   0  0  0  0  0  0  0  0  0  0  0  0
  -53.7236  -43.1275  110.0703 C   0  0  1  0  0  0  0  0  0  0  0  0
  -53.8586  -41.9041  110.9725 C   0  0  0  0  0  0  0  0  0  0  0  0
  -55.1047  -43.6646  109.7032 C   0  0  0  0  0  0  0  0  0  0  0  0
  -52.8163  -44.0954  105.6914 N   0  0  0  0  0  0  0  0  0  0  0  0
  -51.4727  -43.8174  105.0977 C   0  0  2  0  0  0  0  0  0  0  0  0
  -51.2901  -45.0173  104.1230 C   0  0  0  0  0  0  0  0  0  0  0  0
  -51.4268  -46.1626  104.5979 O   0  0  0  0  0  0  0  0  0  0  0  0
  -50.4558  -43.8696  106.2464 C   0  0  0  0  0  0  0  0  0  0  0  0
  -49.9546  -42.5858  106.9100 C   0  0  1  0  0  0  0  0  0  0  0  0
  -50.0802  -41.3427  106.0388 C   0  0  0  0  0  0  0  0  0  0  0  0
  -50.5644  -42.3841  108.2852 C   0  0  0  0  0  0  0  0  0  0  0  0
  -49.6624  -43.3109  101.6223 C   0  0  0  0  0  0  0  0  0  0  0  0
  -51.0668  -45.0289  102.7888 N   0  0  0  0  0  0  0  0  0  0  0  0
  -49.3492  -42.5540  100.7010 O   0  0  0  0  0  0  0  0  0  0  0  0
  -50.9701  -44.1527  101.5815 C   0  0  1  0  0  0  0  0  0  0  0  0
  -52.1815  -43.1968  101.3997 C   0  0  0  0  0  0  0  0  0  0  0  0
  -53.3916  -41.4829   99.7577 C   0  0  0  0  0  0  0  0  0  0  0  0
  -54.8135  -41.9531   99.8562 C   0  0  0  0  0  0  0  0  0  0  0  0
  -52.3001  -42.5503   99.9941 C   0  0  0  0  0  0  0  0  0  0  0  0
  -50.9423  -45.1138  100.3626 C   0  0  0  0  0  0  0  0  0  0  0  0
  -48.8929  -43.3881  102.7575 N   0  0  0  0  0  0  0  0  0  0  0  0
  -49.3756  -43.9976  104.0004 C   0  0  2  0  0  0  0  0  0  0  0  0
  -50.8142  -43.4705  104.1926 C   0  0  0  0  0  0  0  0  0  0  0  0
  -51.7222  -44.2023  104.5857 O   0  0  0  0  0  0  0  0  0  0  0  0
  -48.4429  -43.6158  105.1511 C   0  0  0  0  0  0  0  0  0  0  0  0
  -46.9370  -43.5614  104.8514 C   0  0  1  0  0  0  0  0  0  0  0  0
  -46.1152  -43.1570  106.0786 C   0  0  0  0  0  0  0  0  0  0  0  0
  -46.4702  -44.9429  104.3704 C   0  0  0  0  0  0  0  0  0  0  0  0
  -51.0343  -42.1500  103.8629 N   0  0  0  0  0  0  0  0  0  0  0  0
  -52.3662  -41.5469  103.9762 C   0  0  2  0  0  0  0  0  0  0  0  0
  -53.2141  -41.7507  102.6904 C   0  0  0  0  0  0  0  0  0  0  0  0
  -54.3263  -41.2491  102.5341 O   0  0  0  0  0  0  0  0  0  0  0  0
  -52.2672  -40.0372  104.2628 C   0  0  0  0  0  0  0  0  0  0  0  0
  -51.6586  -39.6789  105.6218 C   0  0  0  0  0  0  0  0  0  0  0  0
  -52.5368  -38.6273  106.3158 C   0  0  0  0  0  0  0  0  0  0  0  0
  -52.7014  -37.3359  105.5275 C   0  0  0  0  0  0  0  0  0  0  0  0
  -53.6027  -36.4042  106.2431 N   0  0  0  0  0  4  0  0  0  0  0  0
  -52.7332  -42.6447  101.7739 N   0  0  0  0  0  0  0  0  0  0  0  0
  -62.6487  -52.9942   94.7120 H   0  0  0  0  0  0  0  0  0  0  0  0
  -57.0844  -40.3480  110.2314 H   0  0  0  0  0  0  0  0  0  0  0  0
  1  2  2  0
  1  3  1  0
  4  1  1  0
  5  4  1  0
  6  5  1  0
  5  8  1  1
  6  7  2  0
 15  6  1  0
  8  9  1  0
  9 10  1  0
 10 11  1  0
 11 12  1  0
 12 13  2  0
 12 14  1  0
 16 15  1  6
 17 16  1  0
 16 19  1  0
 17 18  2  0
 23 17  1  0
 19 20  1  0
 19 21  1  1
 20 22  1  0
 24 23  1  1
 25 24  1  0
 24 27  1  0
 25 26  2  0
 31 25  1  0
 27 28  1  0
 27 29  1  1
 28 30  1  0
 32 31  1  0
 33 32  1  0
 32 35  1  6
 33 34  2  0
 43 33  1  0
 35 36  1  0
 36 37  2  0
 36 38  1  0
 37 39  1  0
 38 40  2  0
 39 41  2  0
 40 41  1  0
 41 42  1  0
 44 43  1  0
 45 44  1  0
 44 47  1  1
 45 46  2  0
 49 45  1  0
 47 48  1  0
 50 49  1  0
 51 50  1  0
 50 53  1  1
 51 52  2  0
 61 51  1  0
 53 54  1  0
 54 55  1  0
 55 56  1  0
 56 57  1  0
 57 58  2  0
 57 59  1  0
 60 62  2  0
 60 63  1  0
 69 60  1  0
 63 61  1  0
 63 64  1  0
 63 68  1  6
 64 67  1  0
 65 66  1  0
 67 65  1  0
 66100  2  0
 70 69  1  0
 71 70  1  0
 70 73  1  6
 71 72  2  0
 78 71  1  0
 73 74  1  0
 74 75  1  0
 75 76  2  0
 75 77  1  0
 79 78  1  0
 80 79  1  0
 79 82  1  1
 80 81  2  0
 86 80  1  0
 82 83  1  0
 83 84  1  6
 83 85  1  0
 87 86  1  0
 88 87  1  0
 87 90  1  1
 88 89  2  0
 95 88  1  0
 90 91  1  0
 91 92  1  6
 91 93  1  0
 94 96  2  0
 97 94  1  0
 94103  1  0
 95 97  1  0
 97 98  1  0
 97102  1  6
 98101  1  0
100 99  1  0
 99101  1  0
103104  1  0
104105  1  0
104107  1  1
105106  2  0
105111  1  0
107108  1  0
108109  1  1
108110  1  0
111112  1  0
112113  1  0
112115  1  6
113114  2  0
113120  1  0
115116  1  0
116117  1  0
117118  1  0
118119  1  0
 13121  1  0
 58122  1  0
M  CHG  1 119   1
M  END
$$$$
