
     RDKit          3D

122123  0  0  0  0  0  0  0  0999 V2000
  -60.7072  -58.1256   94.4144 C   0  0  0  0  0  0  0  0  0  0  0  0
  -61.6330  -58.8363   94.7907 O   0  0  0  0  0  0  0  0  0  0  0  0
  -59.8952  -58.4616   93.1968 C   0  0  0  0  0  0  0  0  0  0  0  0
  -60.3239  -56.9794   95.0716 N   0  0  0  0  0  0  0  0  0  0  0  0
  -60.0776  -55.7232   94.3573 C   0  0  2  0  0  0  0  0  0  0  0  0
  -59.9121  -54.5662   95.3895 C   0  0  0  0  0  0  0  0  0  0  0  0
  -59.6529  -53.4427   94.9618 O   0  0  0  0  0  0  0  0  0  0  0  0
  -61.2978  -55.4470   93.4518 C   0  0  0  0  0  0  0  0  0  0  0  0
  -60.9759  -54.8152   92.0954 C   0  0  0  0  0  0  0  0  0  0  0  0
  -60.5210  -55.8849   91.1019 C   0  0  0  0  0  0  0  0  0  0  0  0
  -59.6463  -55.2916   90.0978 N   0  0  0  0  0  0  0  0  0  0  0  0
  -60.1903  -54.6727   89.0189 C   0  0  0  0  0  0  0  0  0  0  0  0
  -60.8760  -53.5930   89.0652 N   0  0  0  0  0  0  0  0  0  0  0  0
  -59.9374  -55.3447   87.8753 N   0  0  0  0  0  0  0  0  0  0  0  0
  -60.0622  -54.7615   96.7548 N   0  0  0  0  0  0  0  0  0  0  0  0
  -59.8547  -53.6561   97.7273 C   0  0  2  0  0  0  0  0  0  0  0  0
  -59.5532  -52.2268   97.1753 C   0  0  0  0  0  0  0  0  0  0  0  0
  -59.4778  -52.0079   95.9681 O   0  0  0  0  0  0  0  0  0  0  0  0
  -58.8172  -53.9886   98.8595 C   0  0  2  0  0  0  0  0  0  0  0  0
  -58.6502  -55.5223   99.0154 C   0  0  0  0  0  0  0  0  0  0  0  0
  -59.1173  -53.3500  100.2122 C   0  0  0  0  0  0  0  0  0  0  0  0
  -58.0069  -55.9572  100.3261 C   0  0  0  0  0  0  0  0  0  0  0  0
  -59.5559  -51.1638   98.0610 N   0  0  0  0  0  0  0  0  0  0  0  0
  -60.2725  -49.9511   97.6417 C   0  0  2  0  0  0  0  0  0  0  0  0
  -60.2065  -48.7698   98.6646 C   0  0  0  0  0  0  0  0  0  0  0  0
  -60.5259  -47.6145   98.3996 O   0  0  0  0  0  0  0  0  0  0  0  0
  -61.7456  -50.1897   97.2321 C   0  0  2  0  0  0  0  0  0  0  0  0
  -61.8803  -50.8157   95.8342 C   0  0  0  0  0  0  0  0  0  0  0  0
  -62.5586  -48.8983   97.3516 C   0  0  0  0  0  0  0  0  0  0  0  0
  -60.8502  -50.3013   94.8361 C   0  0  0  0  0  0  0  0  0  0  0  0
  -59.6778  -49.1493   99.8958 N   0  0  0  0  0  0  0  0  0  0  0  0
  -58.3455  -48.6605  100.3119 C   0  0  2  0  0  0  0  0  0  0  0  0
  -58.1936  -47.1193  100.1849 C   0  0  0  0  0  0  0  0  0  0  0  0
  -57.2043  -46.5864   99.6873 O   0  0  0  0  0  0  0  0  0  0  0  0
  -57.2071  -49.3218   99.4858 C   0  0  0  0  0  0  0  0  0  0  0  0
  -55.8017  -48.9557   99.8966 C   0  0  0  0  0  0  0  0  0  0  0  0
  -55.0956  -49.7046  100.8410 C   0  0  0  0  0  0  0  0  0  0  0  0
  -55.1703  -47.8604   99.2778 C   0  0  0  0  0  0  0  0  0  0  0  0
  -53.7793  -49.3577  101.1566 C   0  0  0  0  0  0  0  0  0  0  0  0
  -53.8489  -47.5295   99.5835 C   0  0  0  0  0  0  0  0  0  0  0  0
  -53.1588  -48.2896  100.5185 C   0  0  0  0  0  0  0  0  0  0  0  0
  -51.8581  -48.0207  100.8288 O   0  0  0  0  0  0  0  0  0  0  0  0
  -59.2153  -46.3769  100.7269 N   0  0  0  0  0  0  0  0  0  0  0  0
  -59.1023  -44.9125  100.7869 C   0  0  2  0  0  0  0  0  0  0  0  0
  -58.8810  -44.4902  102.2458 C   0  0  0  0  0  0  0  0  0  0  0  0
  -59.2815  -43.4219  102.6874 O   0  0  0  0  0  0  0  0  0  0  0  0
  -60.3558  -44.2125  100.2394 C   0  0  0  0  0  0  0  0  0  0  0  0
  -60.3234  -42.8040  100.4576 O   0  0  0  0  0  0  0  0  0  0  0  0
  -58.2434  -45.4345  103.0200 N   0  0  0  0  0  0  0  0  0  0  0  0
  -57.8377  -45.1901  104.4082 C   0  0  2  0  0  0  0  0  0  0  0  0
  -56.6773  -46.1199  104.8128 C   0  0  0  0  0  0  0  0  0  0  0  0
  -56.7832  -47.3436  104.7951 O   0  0  0  0  0  0  0  0  0  0  0  0
  -59.0411  -45.3030  105.3586 C   0  0  0  0  0  0  0  0  0  0  0  0
  -60.3135  -45.8331  104.6862 C   0  0  0  0  0  0  0  0  0  0  0  0
  -61.4381  -46.0318  105.7020 C   0  0  0  0  0  0  0  0  0  0  0  0
  -62.6511  -46.4486  105.0035 N   0  0  0  0  0  0  0  0  0  0  0  0
  -63.1989  -45.6460  104.0550 C   0  0  0  0  0  0  0  0  0  0  0  0
  -62.7051  -45.4520  102.8910 N   0  0  0  0  0  0  0  0  0  0  0  0
  -64.3438  -45.0797  104.4919 N   0  0  0  0  0  0  0  0  0  0  0  0
  -55.7226  -43.3803  104.0709 C   0  0  0  0  0  0  0  0  0  0  0  0
  -55.5715  -45.4591  105.2968 N   0  0  0  0  0  0  0  0  0  0  0  0
  -56.6243  -43.8445  103.3654 O   0  0  0  0  0  0  0  0  0  0  0  0
  -55.4638  -44.0051  105.5179 C   0  0  1  0  0  0  0  0  0  0  0  0
  -54.0983  -43.6371  106.1543 C   0  0  0  0  0  0  0  0  0  0  0  0
  -52.5743  -43.4555  108.2806 C   0  0  0  0  0  0  0  0  0  0  0  0
  -52.8458  -42.2427  109.1301 C   0  0  0  0  0  0  0  0  0  0  0  0
  -53.8027  -44.1065  107.5984 C   0  0  0  0  0  0  0  0  0  0  0  0
  -56.6494  -43.4867  106.3528 C   0  0  0  0  0  0  0  0  0  0  0  0
  -55.1008  -42.2109  103.7182 N   0  0  0  0  0  0  0  0  0  0  0  0
  -55.4521  -41.3402  102.5738 C   0  0  2  0  0  0  0  0  0  0  0  0
  -54.1353  -40.5605  102.1480 C   0  0  0  0  0  0  0  0  0  0  0  0
  -53.0908  -41.1653  101.9083 O   0  0  0  0  0  0  0  0  0  0  0  0
  -56.6163  -40.4082  102.9196 C   0  0  0  0  0  0  0  0  0  0  0  0
  -56.2622  -38.9246  103.0527 C   0  0  0  0  0  0  0  0  0  0  0  0
  -55.8346  -38.3440  101.7242 C   0  0  0  0  0  0  0  0  0  0  0  0
  -56.3213  -37.3480  101.2006 O   0  0  0  0  0  0  0  0  0  0  0  0
  -54.8238  -39.0337  101.1118 N   0  0  0  0  0  0  0  0  0  0  0  0
  -54.1586  -39.1794  102.1219 N   0  0  0  0  0  0  0  0  0  0  0  0
  -52.9574  -38.3290  102.3544 C   0  0  2  0  0  0  0  0  0  0  0  0
  -53.2739  -37.5981  103.6903 C   0  0  0  0  0  0  0  0  0  0  0  0
  -54.4666  -37.4288  104.0104 O   0  0  0  0  0  0  0  0  0  0  0  0
  -52.8554  -37.2936  101.2230 C   0  0  0  0  0  0  0  0  0  0  0  0
  -53.8731  -37.4039  100.0645 C   0  0  1  0  0  0  0  0  0  0  0  0
  -54.5317  -38.7784   99.9861 C   0  0  0  0  0  0  0  0  0  0  0  0
  -54.9385  -36.3104  100.0698 C   0  0  0  0  0  0  0  0  0  0  0  0
  -52.4009  -37.0659  104.5736 N   0  0  0  0  0  0  0  0  0  0  0  0
  -50.9308  -36.9533  104.8209 C   0  0  2  0  0  0  0  0  0  0  0  0
  -50.8807  -36.0842  106.1113 C   0  0  0  0  0  0  0  0  0  0  0  0
  -51.4937  -34.9981  106.0905 O   0  0  0  0  0  0  0  0  0  0  0  0
  -50.3302  -36.2083  103.6206 C   0  0  0  0  0  0  0  0  0  0  0  0
  -51.2127  -35.7553  102.4564 C   0  0  1  0  0  0  0  0  0  0  0  0
  -52.5181  -35.0959  102.8822 C   0  0  0  0  0  0  0  0  0  0  0  0
  -50.4433  -34.9083  101.4590 C   0  0  0  0  0  0  0  0  0  0  0  0
  -48.1895  -37.6347  107.5838 C   0  0  0  0  0  0  0  0  0  0  0  0
  -50.3227  -36.3454  107.3157 N   0  0  0  0  0  0  0  0  0  0  0  0
  -47.2347  -37.7867  108.3486 O   0  0  0  0  0  0  0  0  0  0  0  0
  -49.6342  -37.4054  108.1138 C   0  0  1  0  0  0  0  0  0  0  0  0
  -50.3867  -38.7646  108.1355 C   0  0  0  0  0  0  0  0  0  0  0  0
  -50.5069  -41.1838  109.2449 C   0  0  0  0  0  0  0  0  0  0  0  0
  -51.9759  -41.2893  109.5344 C   0  0  0  0  0  0  0  0  0  0  0  0
  -49.9133  -39.7576  109.2297 C   0  0  0  0  0  0  0  0  0  0  0  0
  -49.5842  -36.8721  109.5710 C   0  0  0  0  0  0  0  0  0  0  0  0
  -48.0197  -37.7294  106.2241 N   0  0  0  0  0  0  0  0  0  0  0  0
  -48.9766  -38.4190  105.3535 C   0  0  2  0  0  0  0  0  0  0  0  0
  -49.5006  -37.3451  104.3755 C   0  0  0  0  0  0  0  0  0  0  0  0
  -50.1055  -37.6487  103.3476 O   0  0  0  0  0  0  0  0  0  0  0  0
  -50.0850  -39.0400  106.2054 C   0  0  0  0  0  0  0  0  0  0  0  0
  -51.3278  -39.5676  105.4721 C   0  0  1  0  0  0  0  0  0  0  0  0
  -51.8685  -38.5639  104.4500 C   0  0  0  0  0  0  0  0  0  0  0  0
  -50.9675  -40.8731  104.7483 C   0  0  0  0  0  0  0  0  0  0  0  0
  -49.2199  -36.0335  104.6946 N   0  0  0  0  0  0  0  0  0  0  0  0
  -48.4716  -35.1682  103.7771 C   0  0  2  0  0  0  0  0  0  0  0  0
  -47.0926  -35.7724  103.3936 C   0  0  0  0  0  0  0  0  0  0  0  0
  -46.5697  -35.6045  102.2930 O   0  0  0  0  0  0  0  0  0  0  0  0
  -48.2413  -33.7761  104.3939 C   0  0  0  0  0  0  0  0  0  0  0  0
  -49.2501  -32.7069  103.9636 C   0  0  0  0  0  0  0  0  0  0  0  0
  -48.6685  -31.8926  102.7985 C   0  0  0  0  0  0  0  0  0  0  0  0
  -49.5648  -30.7577  102.3243 C   0  0  0  0  0  0  0  0  0  0  0  0
  -48.9021  -29.4510  102.5385 N   0  0  0  0  0  4  0  0  0  0  0  0
  -46.5308  -36.6371  104.2920 N   0  0  0  0  0  0  0  0  0  0  0  0
  -61.7867  -53.7279   88.6249 H   0  0  0  0  0  0  0  0  0  0  0  0
  -61.6905  -45.3490  102.9408 H   0  0  0  0  0  0  0  0  0  0  0  0
  1  2  2  0
  1  3  1  0
  4  1  1  0
  5  4  1  0
  6  5  1  0
  5  8  1  6
  6  7  2  0
 15  6  1  0
  8  9  1  0
  9 10  1  0
 10 11  1  0
 11 12  1  0
 12 13  2  0
 12 14  1  0
 16 15  1  6
 17 16  1  0
 16 19  1  0
 17 18  2  0
 23 17  1  0
 19 20  1  0
 19 21  1  1
 20 22  1  0
 24 23  1  1
 25 24  1  0
 24 27  1  0
 25 26  2  0
 31 25  1  0
 27 28  1  0
 27 29  1  6
 28 30  1  0
 32 31  1  0
 33 32  1  0
 32 35  1  6
 33 34  2  0
 43 33  1  0
 35 36  1  0
 36 37  2  0
 36 38  1  0
 37 39  1  0
 38 40  2  0
 39 41  2  0
 40 41  1  0
 41 42  1  0
 44 43  1  0
 45 44  1  0
 44 47  1  1
 45 46  2  0
 49 45  1  0
 47 48  1  0
 50 49  1  0
 51 50  1  0
 50 53  1  1
 51 52  2  0
 61 51  1  0
 53 54  1  0
 54 55  1  0
 55 56  1  0
 56 57  1  0
 57 58  2  0
 57 59  1  0
 60 62  2  0
 60 63  1  0
 69 60  1  0
 63 61  1  0
 63 64  1  0
 63 68  1  1
 64 67  1  0
 65 66  1  0
 67 65  1  0
 66100  2  0
 70 69  1  0
 71 70  1  0
 70 73  1  1
 71 72  2  0
 78 71  1  0
 73 74  1  0
 74 75  1  0
 75 76  2  0
 75 77  1  0
 79 78  1  0
 80 79  1  0
 79 82  1  6
 80 81  2  0
 86 80  1  0
 82 83  1  0
 83 84  1  1
 83 85  1  0
 87 86  1  0
 88 87  1  0
 87 90  1  6
 88 89  2  0
 95 88  1  0
 90 91  1  0
 91 92  1  1
 91 93  1  0
 94 96  2  0
 97 94  1  0
 94103  1  0
 95 97  1  0
 97 98  1  0
 97102  1  1
 98101  1  0
100 99  1  0
 99101  1  0
103104  1  0
104105  1  0
104107  1  1
105106  2  0
105111  1  0
107108  1  0
108109  1  6
108110  1  0
111112  1  0
112113  1  0
112115  1  1
113114  2  0
113120  1  0
115116  1  0
116117  1  0
117118  1  0
118119  1  0
 13121  1  0
 58122  1  0
M  CHG  1 119   1
M  END
$$$$
