
     RDKit          3D

122123  0  0  0  0  0  0  0  0999 V2000
  -60.4699  -57.9510  109.6365 C   0  0  0  0  0  0  0  0  0  0  0  0
  -61.5136  -57.3576  109.8862 O   0  0  0  0  0  0  0  0  0  0  0  0
  -60.2993  -59.4129  109.9341 C   0  0  0  0  0  0  0  0  0  0  0  0
  -59.3705  -57.3377  109.0816 N   0  0  0  0  0  0  0  0  0  0  0  0
  -59.1591  -55.8904  109.1810 C   0  0  2  0  0  0  0  0  0  0  0  0
  -59.2539  -55.2561  107.7597 C   0  0  0  0  0  0  0  0  0  0  0  0
  -58.8140  -55.9001  106.8088 O   0  0  0  0  0  0  0  0  0  0  0  0
  -57.7489  -55.6576  109.7658 C   0  0  0  0  0  0  0  0  0  0  0  0
  -57.2583  -54.2082  109.7327 C   0  0  0  0  0  0  0  0  0  0  0  0
  -55.7828  -54.1340  110.1275 C   0  0  0  0  0  0  0  0  0  0  0  0
  -55.3506  -52.7428  110.1781 N   0  0  0  0  0  0  0  0  0  0  0  0
  -55.1586  -52.1455  111.3821 C   0  0  0  0  0  0  0  0  0  0  0  0
  -55.7223  -52.5050  112.4735 N   0  0  0  0  0  0  0  0  0  0  0  0
  -54.3061  -51.1021  111.2937 N   0  0  0  0  0  0  0  0  0  0  0  0
  -59.8258  -54.0118  107.5382 N   0  0  0  0  0  0  0  0  0  0  0  0
  -60.2933  -53.5985  106.1885 C   0  0  2  0  0  0  0  0  0  0  0  0
  -59.2294  -53.1438  105.1398 C   0  0  0  0  0  0  0  0  0  0  0  0
  -58.0674  -53.5416  105.1908 O   0  0  0  0  0  0  0  0  0  0  0  0
  -61.4600  -52.5463  106.2119 C   0  0  2  0  0  0  0  0  0  0  0  0
  -62.6419  -53.0587  107.0749 C   0  0  0  0  0  0  0  0  0  0  0  0
  -61.9595  -52.1117  104.8374 C   0  0  0  0  0  0  0  0  0  0  0  0
  -62.3239  -54.2902  107.9135 C   0  0  0  0  0  0  0  0  0  0  0  0
  -59.6563  -52.4292  104.0347 N   0  0  0  0  0  0  0  0  0  0  0  0
  -58.6300  -52.0414  103.0568 C   0  0  2  0  0  0  0  0  0  0  0  0
  -59.1753  -51.2606  101.8161 C   0  0  0  0  0  0  0  0  0  0  0  0
  -58.4721  -50.8680  100.8897 O   0  0  0  0  0  0  0  0  0  0  0  0
  -57.7363  -53.2084  102.5728 C   0  0  2  0  0  0  0  0  0  0  0  0
  -58.4897  -54.1998  101.6708 C   0  0  0  0  0  0  0  0  0  0  0  0
  -57.0767  -53.9157  103.7593 C   0  0  0  0  0  0  0  0  0  0  0  0
  -57.9134  -54.3002  100.2637 C   0  0  0  0  0  0  0  0  0  0  0  0
  -60.5389  -50.9919  101.9027 N   0  0  0  0  0  0  0  0  0  0  0  0
  -61.2546  -50.4132  100.7451 C   0  0  2  0  0  0  0  0  0  0  0  0
  -60.7686  -48.9833  100.3794 C   0  0  0  0  0  0  0  0  0  0  0  0
  -60.4719  -48.6536   99.2333 O   0  0  0  0  0  0  0  0  0  0  0  0
  -62.7878  -50.3476  100.9917 C   0  0  0  0  0  0  0  0  0  0  0  0
  -63.6154  -49.8330   99.8392 C   0  0  0  0  0  0  0  0  0  0  0  0
  -64.2617  -48.5959   99.8959 C   0  0  0  0  0  0  0  0  0  0  0  0
  -63.6988  -50.5977   98.6603 C   0  0  0  0  0  0  0  0  0  0  0  0
  -64.9784  -48.1373   98.7874 C   0  0  0  0  0  0  0  0  0  0  0  0
  -64.4008  -50.1263   97.5495 C   0  0  0  0  0  0  0  0  0  0  0  0
  -65.0306  -48.8907   97.6200 C   0  0  0  0  0  0  0  0  0  0  0  0
  -65.7047  -48.3775   96.5512 O   0  0  0  0  0  0  0  0  0  0  0  0
  -60.6275  -48.1172  101.4372 N   0  0  0  0  0  0  0  0  0  0  0  0
  -60.1286  -46.7544  101.2041 C   0  0  2  0  0  0  0  0  0  0  0  0
  -60.5764  -46.2925   99.8106 C   0  0  0  0  0  0  0  0  0  0  0  0
  -61.7375  -46.3747   99.4340 O   0  0  0  0  0  0  0  0  0  0  0  0
  -58.5969  -46.6749  101.2982 C   0  0  0  0  0  0  0  0  0  0  0  0
  -57.9946  -46.3952  100.0367 O   0  0  0  0  0  0  0  0  0  0  0  0
  -59.5742  -45.7341   99.0480 N   0  0  0  0  0  0  0  0  0  0  0  0
  -59.8271  -44.7493   97.9908 C   0  0  2  0  0  0  0  0  0  0  0  0
  -61.1357  -43.9807   98.2582 C   0  0  0  0  0  0  0  0  0  0  0  0
  -62.2292  -44.4035   97.8910 O   0  0  0  0  0  0  0  0  0  0  0  0
  -59.8088  -45.4160   96.6053 C   0  0  0  0  0  0  0  0  0  0  0  0
  -59.9313  -46.9440   96.6519 C   0  0  0  0  0  0  0  0  0  0  0  0
  -59.8093  -47.5547   95.2561 C   0  0  0  0  0  0  0  0  0  0  0  0
  -60.8628  -47.0160   94.4000 N   0  0  0  0  0  0  0  0  0  0  0  0
  -60.5625  -46.5652   93.1548 C   0  0  0  0  0  0  0  0  0  0  0  0
  -61.3090  -46.7137   92.1266 N   0  0  0  0  0  0  0  0  0  0  0  0
  -59.3728  -45.9274   93.1367 N   0  0  0  0  0  0  0  0  0  0  0  0
  -58.5761  -43.0904   98.5523 C   0  0  0  0  0  0  0  0  0  0  0  0
  -60.9527  -42.7445   98.8343 N   0  0  0  0  0  0  0  0  0  0  0  0
  -58.7875  -43.9235   97.6650 O   0  0  0  0  0  0  0  0  0  0  0  0
  -59.6876  -41.9876   98.8681 C   0  0  1  0  0  0  0  0  0  0  0  0
  -59.5131  -41.2527  100.2226 C   0  0  0  0  0  0  0  0  0  0  0  0
  -60.0669  -39.2094  101.7701 C   0  0  0  0  0  0  0  0  0  0  0  0
  -59.2839  -37.9645  101.4488 C   0  0  0  0  0  0  0  0  0  0  0  0
  -60.4778  -40.0934  100.5669 C   0  0  0  0  0  0  0  0  0  0  0  0
  -59.5911  -41.0240   97.6709 C   0  0  0  0  0  0  0  0  0  0  0  0
  -57.3277  -42.9700   99.1051 N   0  0  0  0  0  0  0  0  0  0  0  0
  -56.1091  -43.7000   98.6889 C   0  0  2  0  0  0  0  0  0  0  0  0
  -55.1544  -43.7918   99.9550 C   0  0  0  0  0  0  0  0  0  0  0  0
  -55.5641  -44.2382  101.0261 O   0  0  0  0  0  0  0  0  0  0  0  0
  -55.4441  -43.0319   97.4827 C   0  0  0  0  0  0  0  0  0  0  0  0
  -55.6772  -41.5249   97.3462 C   0  0  0  0  0  0  0  0  0  0  0  0
  -56.4321  -40.9791   98.5366 C   0  0  0  0  0  0  0  0  0  0  0  0
  -57.4885  -41.4278   98.9677 O   0  0  0  0  0  0  0  0  0  0  0  0
  -55.8359  -39.9000   99.1301 N   0  0  0  0  0  0  0  0  0  0  0  0
  -53.8701  -43.2919   99.8579 N   0  0  0  0  0  0  0  0  0  0  0  0
  -53.1061  -42.7484  101.0159 C   0  0  2  0  0  0  0  0  0  0  0  0
  -52.9551  -41.2366  100.6833 C   0  0  0  0  0  0  0  0  0  0  0  0
  -52.9863  -40.8818   99.4889 O   0  0  0  0  0  0  0  0  0  0  0  0
  -51.7150  -43.4018  101.0438 C   0  0  0  0  0  0  0  0  0  0  0  0
  -51.3874  -44.4242   99.9314 C   0  0  1  0  0  0  0  0  0  0  0  0
  -50.5729  -45.6100  100.4406 C   0  0  0  0  0  0  0  0  0  0  0  0
  -52.6113  -44.9181   99.1641 C   0  0  0  0  0  0  0  0  0  0  0  0
  -52.7499  -40.2133  101.5415 N   0  0  0  0  0  0  0  0  0  0  0  0
  -52.6580  -39.9349  103.0075 C   0  0  2  0  0  0  0  0  0  0  0  0
  -52.3418  -38.4109  103.0328 C   0  0  0  0  0  0  0  0  0  0  0  0
  -51.3647  -38.0209  102.3627 O   0  0  0  0  0  0  0  0  0  0  0  0
  -51.4814  -40.7598  103.5474 C   0  0  0  0  0  0  0  0  0  0  0  0
  -50.6115  -41.5954  102.6069 C   0  0  1  0  0  0  0  0  0  0  0  0
  -51.3988  -42.4305  101.6054 C   0  0  0  0  0  0  0  0  0  0  0  0
  -49.5386  -40.7582  101.9348 C   0  0  0  0  0  0  0  0  0  0  0  0
  -54.1827  -37.6243  105.8269 C   0  0  0  0  0  0  0  0  0  0  0  0
  -53.0086  -37.3931  103.6240 N   0  0  0  0  0  0  0  0  0  0  0  0
  -54.4424  -38.8044  106.0716 O   0  0  0  0  0  0  0  0  0  0  0  0
  -54.2521  -37.0538  104.3812 C   0  0  1  0  0  0  0  0  0  0  0  0
  -55.5575  -37.5531  103.7024 C   0  0  0  0  0  0  0  0  0  0  0  0
  -58.2194  -37.4454  103.7296 C   0  0  0  0  0  0  0  0  0  0  0  0
  -58.5082  -37.2245  102.2734 C   0  0  0  0  0  0  0  0  0  0  0  0
  -56.8634  -36.9154  104.2462 C   0  0  0  0  0  0  0  0  0  0  0  0
  -54.3093  -35.5030  104.4271 C   0  0  0  0  0  0  0  0  0  0  0  0
  -53.7551  -36.7803  106.8226 N   0  0  0  0  0  0  0  0  0  0  0  0
  -53.0069  -35.5496  106.5492 C   0  0  2  0  0  0  0  0  0  0  0  0
  -52.3377  -35.7645  105.1743 C   0  0  0  0  0  0  0  0  0  0  0  0
  -51.8461  -34.8294  104.5429 O   0  0  0  0  0  0  0  0  0  0  0  0
  -51.9965  -35.3073  107.6717 C   0  0  0  0  0  0  0  0  0  0  0  0
  -52.5537  -34.9634  109.0617 C   0  0  1  0  0  0  0  0  0  0  0  0
  -53.4825  -36.0548  109.6009 C   0  0  0  0  0  0  0  0  0  0  0  0
  -51.3845  -34.7743  110.0390 C   0  0  0  0  0  0  0  0  0  0  0  0
  -52.3563  -37.0497  104.6756 N   0  0  0  0  0  0  0  0  0  0  0  0
  -51.1661  -37.6475  104.0620 C   0  0  2  0  0  0  0  0  0  0  0  0
  -51.5263  -38.7952  103.0787 C   0  0  0  0  0  0  0  0  0  0  0  0
  -50.9772  -38.9404  101.9877 O   0  0  0  0  0  0  0  0  0  0  0  0
  -50.2111  -38.2037  105.1345 C   0  0  0  0  0  0  0  0  0  0  0  0
  -50.6312  -39.5486  105.7348 C   0  0  0  0  0  0  0  0  0  0  0  0
  -49.5784  -40.0059  106.7552 C   0  0  0  0  0  0  0  0  0  0  0  0
  -49.7602  -41.4378  107.2375 C   0  0  0  0  0  0  0  0  0  0  0  0
  -48.7027  -41.7942  108.2107 N   0  0  0  0  0  4  0  0  0  0  0  0
  -52.5999  -39.5740  103.4121 N   0  0  0  0  0  0  0  0  0  0  0  0
  -55.4651  -51.8749  113.2338 H   0  0  0  0  0  0  0  0  0  0  0  0
  -62.1875  -46.2061   92.2407 H   0  0  0  0  0  0  0  0  0  0  0  0
  1  2  2  0
  1  3  1  0
  4  1  1  0
  5  4  1  0
  6  5  1  0
  5  8  1  6
  6  7  2  0
 15  6  1  0
  8  9  1  0
  9 10  1  0
 10 11  1  0
 11 12  1  0
 12 13  2  0
 12 14  1  0
 16 15  1  1
 17 16  1  0
 16 19  1  0
 17 18  2  0
 23 17  1  0
 19 20  1  0
 19 21  1  6
 20 22  1  0
 24 23  1  6
 25 24  1  0
 24 27  1  0
 25 26  2  0
 31 25  1  0
 27 28  1  0
 27 29  1  1
 28 30  1  0
 32 31  1  0
 33 32  1  0
 32 35  1  1
 33 34  2  0
 43 33  1  0
 35 36  1  0
 36 37  2  0
 36 38  1  0
 37 39  1  0
 38 40  2  0
 39 41  2  0
 40 41  1  0
 41 42  1  0
 44 43  1  0
 45 44  1  0
 44 47  1  6
 45 46  2  0
 49 45  1  0
 47 48  1  0
 50 49  1  0
 51 50  1  0
 50 53  1  6
 51 52  2  0
 61 51  1  0
 53 54  1  0
 54 55  1  0
 55 56  1  0
 56 57  1  0
 57 58  2  0
 57 59  1  0
 60 62  2  0
 60 63  1  0
 69 60  1  0
 63 61  1  0
 63 64  1  0
 63 68  1  6
 64 67  1  0
 65 66  1  0
 67 65  1  0
 66100  2  0
 70 69  1  0
 71 70  1  0
 70 73  1  6
 71 72  2  0
 78 71  1  0
 73 74  1  0
 74 75  1  0
 75 76  2  0
 75 77  1  0
 79 78  1  0
 80 79  1  0
 79 82  1  6
 80 81  2  0
 86 80  1  0
 82 83  1  0
 83 84  1  1
 83 85  1  0
 87 86  1  0
 88 87  1  0
 87 90  1  6
 88 89  2  0
 95 88  1  0
 90 91  1  0
 91 92  1  6
 91 93  1  0
 94 96  2  0
 97 94  1  0
 94103  1  0
 95 97  1  0
 97 98  1  0
 97102  1  1
 98101  1  0
100 99  1  0
 99101  1  0
103104  1  0
104105  1  0
104107  1  1
105106  2  0
105111  1  0
107108  1  0
108109  1  1
108110  1  0
111112  1  0
112113  1  0
112115  1  1
113114  2  0
113120  1  0
115116  1  0
116117  1  0
117118  1  0
118119  1  0
 13121  1  0
 58122  1  0
M  CHG  1 119   1
M  END
$$$$
