
     RDKit          3D

122123  0  0  0  0  0  0  0  0999 V2000
  -61.3874  -52.8608   94.2601 C   0  0  0  0  0  0  0  0  0  0  0  0
  -61.3441  -54.0377   93.9184 O   0  0  0  0  0  0  0  0  0  0  0  0
  -62.5941  -52.0051   94.0019 C   0  0  0  0  0  0  0  0  0  0  0  0
  -60.3445  -52.2217   94.8897 N   0  0  0  0  0  0  0  0  0  0  0  0
  -59.8738  -52.6307   96.2165 C   0  0  2  0  0  0  0  0  0  0  0  0
  -60.3026  -51.5625   97.2683 C   0  0  0  0  0  0  0  0  0  0  0  0
  -60.2259  -50.3766   96.9519 O   0  0  0  0  0  0  0  0  0  0  0  0
  -58.3333  -52.7250   96.1634 C   0  0  0  0  0  0  0  0  0  0  0  0
  -57.7712  -54.1327   95.9510 C   0  0  0  0  0  0  0  0  0  0  0  0
  -57.6626  -54.4455   94.4582 C   0  0  0  0  0  0  0  0  0  0  0  0
  -56.5787  -53.6717   93.8652 N   0  0  0  0  0  0  0  0  0  0  0  0
  -55.5174  -54.3178   93.3182 C   0  0  0  0  0  0  0  0  0  0  0  0
  -55.4213  -55.5880   93.1928 N   0  0  0  0  0  0  0  0  0  0  0  0
  -54.5517  -53.4570   92.9312 N   0  0  0  0  0  0  0  0  0  0  0  0
  -60.7759  -51.9066   98.5261 N   0  0  0  0  0  0  0  0  0  0  0  0
  -60.8459  -50.9135   99.6306 C   0  0  2  0  0  0  0  0  0  0  0  0
  -59.5874  -50.0368   99.9233 C   0  0  0  0  0  0  0  0  0  0  0  0
  -58.6007  -50.0657   99.1908 O   0  0  0  0  0  0  0  0  0  0  0  0
  -61.3757  -51.5040  100.9869 C   0  0  2  0  0  0  0  0  0  0  0  0
  -62.5013  -52.5392  100.7305 C   0  0  0  0  0  0  0  0  0  0  0  0
  -61.8369  -50.4635  102.0029 C   0  0  0  0  0  0  0  0  0  0  0  0
  -63.7404  -52.3520  101.5967 C   0  0  0  0  0  0  0  0  0  0  0  0
  -59.6673  -49.0805  100.9200 N   0  0  0  0  0  0  0  0  0  0  0  0
  -58.6035  -48.0671  100.9558 C   0  0  2  0  0  0  0  0  0  0  0  0
  -58.4186  -47.3663  102.3418 C   0  0  0  0  0  0  0  0  0  0  0  0
  -59.3320  -47.1699  103.1381 O   0  0  0  0  0  0  0  0  0  0  0  0
  -58.7106  -46.9901   99.8498 C   0  0  2  0  0  0  0  0  0  0  0  0
  -57.8402  -45.7552  100.1359 C   0  0  0  0  0  0  0  0  0  0  0  0
  -60.1719  -46.6048   99.6063 C   0  0  0  0  0  0  0  0  0  0  0  0
  -56.5738  -46.0731  100.9215 C   0  0  0  0  0  0  0  0  0  0  0  0
  -57.1163  -46.9208  102.5531 N   0  0  0  0  0  0  0  0  0  0  0  0
  -56.7166  -46.4041  103.8800 C   0  0  2  0  0  0  0  0  0  0  0  0
  -56.3746  -44.8884  103.8672 C   0  0  0  0  0  0  0  0  0  0  0  0
  -55.3569  -44.4397  103.3446 O   0  0  0  0  0  0  0  0  0  0  0  0
  -55.4861  -47.1662  104.4464 C   0  0  0  0  0  0  0  0  0  0  0  0
  -55.0541  -46.7709  105.8376 C   0  0  0  0  0  0  0  0  0  0  0  0
  -54.2194  -45.6735  106.0617 C   0  0  0  0  0  0  0  0  0  0  0  0
  -55.5430  -47.4978  106.9394 C   0  0  0  0  0  0  0  0  0  0  0  0
  -53.8830  -45.3147  107.3697 C   0  0  0  0  0  0  0  0  0  0  0  0
  -55.2185  -47.1238  108.2447 C   0  0  0  0  0  0  0  0  0  0  0  0
  -54.3941  -46.0253  108.4499 C   0  0  0  0  0  0  0  0  0  0  0  0
  -54.0724  -45.6065  109.7074 O   0  0  0  0  0  0  0  0  0  0  0  0
  -57.2567  -44.0767  104.5395 N   0  0  0  0  0  0  0  0  0  0  0  0
  -57.0160  -42.6278  104.5996 C   0  0  2  0  0  0  0  0  0  0  0  0
  -58.1134  -41.9080  103.8039 C   0  0  0  0  0  0  0  0  0  0  0  0
  -57.8629  -41.0450  102.9737 O   0  0  0  0  0  0  0  0  0  0  0  0
  -55.6411  -42.2455  104.0300 C   0  0  0  0  0  0  0  0  0  0  0  0
  -54.5877  -42.4887  104.9594 O   0  0  0  0  0  0  0  0  0  0  0  0
  -59.3904  -42.3526  104.0673 N   0  0  0  0  0  0  0  0  0  0  0  0
  -60.4850  -42.2649  103.0948 C   0  0  2  0  0  0  0  0  0  0  0  0
  -61.2063  -40.9073  103.2011 C   0  0  0  0  0  0  0  0  0  0  0  0
  -62.0589  -40.6851  104.0572 O   0  0  0  0  0  0  0  0  0  0  0  0
  -61.4466  -43.4555  103.2435 C   0  0  0  0  0  0  0  0  0  0  0  0
  -62.6956  -43.3568  102.3590 C   0  0  0  0  0  0  0  0  0  0  0  0
  -62.7066  -44.4473  101.2882 C   0  0  0  0  0  0  0  0  0  0  0  0
  -62.1446  -43.9137  100.0503 N   0  0  0  0  0  0  0  0  0  0  0  0
  -62.5274  -44.4278   98.8532 C   0  0  0  0  0  0  0  0  0  0  0  0
  -62.9145  -43.7322   97.8519 N   0  0  0  0  0  0  0  0  0  0  0  0
  -62.4398  -45.7749   98.8463 N   0  0  0  0  0  0  0  0  0  0  0  0
  -59.1556  -41.4152  101.2460 C   0  0  0  0  0  0  0  0  0  0  0  0
  -60.8929  -40.0249  102.1927 N   0  0  0  0  0  0  0  0  0  0  0  0
  -60.0014  -42.2105  100.8237 O   0  0  0  0  0  0  0  0  0  0  0  0
  -59.5808  -39.9022  101.5310 C   0  0  1  0  0  0  0  0  0  0  0  0
  -58.5866  -39.0979  102.4084 C   0  0  0  0  0  0  0  0  0  0  0  0
  -57.6879  -36.7868  103.2618 C   0  0  0  0  0  0  0  0  0  0  0  0
  -56.7793  -36.0832  102.2894 C   0  0  0  0  0  0  0  0  0  0  0  0
  -58.8586  -37.5941  102.6487 C   0  0  0  0  0  0  0  0  0  0  0  0
  -59.7296  -39.2971  100.1228 C   0  0  0  0  0  0  0  0  0  0  0  0
  -57.8289  -41.7589  101.2602 N   0  0  0  0  0  0  0  0  0  0  0  0
  -57.2394  -43.0064  100.7241 C   0  0  2  0  0  0  0  0  0  0  0  0
  -55.9034  -43.2879  101.5359 C   0  0  0  0  0  0  0  0  0  0  0  0
  -55.9049  -43.3209  102.7660 O   0  0  0  0  0  0  0  0  0  0  0  0
  -57.0149  -42.9119   99.2128 C   0  0  0  0  0  0  0  0  0  0  0  0
  -55.5568  -42.7777   98.7652 C   0  0  0  0  0  0  0  0  0  0  0  0
  -54.6137  -42.8672   99.9431 C   0  0  0  0  0  0  0  0  0  0  0  0
  -54.9314  -43.2114  101.0761 O   0  0  0  0  0  0  0  0  0  0  0  0
  -53.3221  -42.5212   99.6528 N   0  0  0  0  0  0  0  0  0  0  0  0
  -54.7176  -43.4229  100.8400 N   0  0  0  0  0  0  0  0  0  0  0  0
  -53.3837  -43.0783  101.4074 C   0  0  2  0  0  0  0  0  0  0  0  0
  -52.9194  -41.8652  100.5521 C   0  0  0  0  0  0  0  0  0  0  0  0
  -53.3700  -41.7418   99.3965 O   0  0  0  0  0  0  0  0  0  0  0  0
  -52.4255  -44.2576  101.1751 C   0  0  0  0  0  0  0  0  0  0  0  0
  -51.5258  -44.6861  102.3570 C   0  0  1  0  0  0  0  0  0  0  0  0
  -50.1170  -45.0736  101.9163 C   0  0  0  0  0  0  0  0  0  0  0  0
  -51.4597  -43.6627  103.4878 C   0  0  0  0  0  0  0  0  0  0  0  0
  -52.0305  -40.9040  100.8865 N   0  0  0  0  0  0  0  0  0  0  0  0
  -51.2022  -40.4480  102.0444 C   0  0  2  0  0  0  0  0  0  0  0  0
  -50.4351  -39.2351  101.4416 C   0  0  0  0  0  0  0  0  0  0  0  0
  -49.7989  -39.4309  100.3867 O   0  0  0  0  0  0  0  0  0  0  0  0
  -50.2466  -41.5979  102.3924 C   0  0  0  0  0  0  0  0  0  0  0  0
  -49.5164  -41.6324  103.7359 C   0  0  1  0  0  0  0  0  0  0  0  0
  -48.3255  -40.6869  103.8237 C   0  0  0  0  0  0  0  0  0  0  0  0
  -50.4707  -41.4596  104.9035 C   0  0  0  0  0  0  0  0  0  0  0  0
  -50.4503  -37.2605  104.2551 C   0  0  0  0  0  0  0  0  0  0  0  0
  -50.3937  -37.9441  101.8438 N   0  0  0  0  0  0  0  0  0  0  0  0
  -50.1843  -36.3503  105.0429 O   0  0  0  0  0  0  0  0  0  0  0  0
  -50.9762  -36.9728  102.8194 C   0  0  1  0  0  0  0  0  0  0  0  0
  -52.5298  -36.9604  102.8429 C   0  0  0  0  0  0  0  0  0  0  0  0
  -54.6964  -35.6997  103.7452 C   0  0  0  0  0  0  0  0  0  0  0  0
  -55.5226  -35.6270  102.4943 C   0  0  0  0  0  0  0  0  0  0  0  0
  -53.1640  -35.7346  103.5520 C   0  0  0  0  0  0  0  0  0  0  0  0
  -50.5016  -35.5697  102.3539 C   0  0  0  0  0  0  0  0  0  0  0  0
  -50.3532  -38.5742  104.6442 N   0  0  0  0  0  0  0  0  0  0  0  0
  -50.8888  -39.6783  103.8422 C   0  0  2  0  0  0  0  0  0  0  0  0
  -52.2723  -40.0012  104.4475 C   0  0  0  0  0  0  0  0  0  0  0  0
  -53.2435  -40.2576  103.7365 O   0  0  0  0  0  0  0  0  0  0  0  0
  -49.9236  -40.8636  103.8975 C   0  0  0  0  0  0  0  0  0  0  0  0
  -49.9934  -41.7744  105.1329 C   0  0  1  0  0  0  0  0  0  0  0  0
  -51.3248  -42.5250  105.2262 C   0  0  0  0  0  0  0  0  0  0  0  0
  -48.8476  -42.7949  105.0701 C   0  0  0  0  0  0  0  0  0  0  0  0
  -52.3698  -39.9474  105.8217 N   0  0  0  0  0  0  0  0  0  0  0  0
  -53.6574  -40.1180  106.5026 C   0  0  2  0  0  0  0  0  0  0  0  0
  -54.5384  -41.2057  105.8284 C   0  0  0  0  0  0  0  0  0  0  0  0
  -54.1102  -41.9813  104.9752 O   0  0  0  0  0  0  0  0  0  0  0  0
  -54.4475  -38.7966  106.5308 C   0  0  0  0  0  0  0  0  0  0  0  0
  -55.8837  -38.9167  107.0491 C   0  0  0  0  0  0  0  0  0  0  0  0
  -55.8800  -39.6299  108.4092 C   0  0  0  0  0  0  0  0  0  0  0  0
  -57.2475  -39.7126  109.0721 C   0  0  0  0  0  0  0  0  0  0  0  0
  -57.1291  -40.2840  110.4329 N   0  0  0  0  0  4  0  0  0  0  0  0
  -55.8748  -41.1784  106.1177 N   0  0  0  0  0  0  0  0  0  0  0  0
  -55.7877  -56.0584   94.0209 H   0  0  0  0  0  0  0  0  0  0  0  0
  -62.7281  -42.7403   98.0064 H   0  0  0  0  0  0  0  0  0  0  0  0
  1  2  2  0
  1  3  1  0
  4  1  1  0
  5  4  1  0
  6  5  1  0
  5  8  1  6
  6  7  2  0
 15  6  1  0
  8  9  1  0
  9 10  1  0
 10 11  1  0
 11 12  1  0
 12 13  2  0
 12 14  1  0
 16 15  1  6
 17 16  1  0
 16 19  1  0
 17 18  2  0
 23 17  1  0
 19 20  1  0
 19 21  1  1
 20 22  1  0
 24 23  1  1
 25 24  1  0
 24 27  1  0
 25 26  2  0
 31 25  1  0
 27 28  1  0
 27 29  1  1
 28 30  1  0
 32 31  1  0
 33 32  1  0
 32 35  1  6
 33 34  2  0
 43 33  1  0
 35 36  1  0
 36 37  2  0
 36 38  1  0
 37 39  1  0
 38 40  2  0
 39 41  2  0
 40 41  1  0
 41 42  1  0
 44 43  1  0
 45 44  1  0
 44 47  1  6
 45 46  2  0
 49 45  1  0
 47 48  1  0
 50 49  1  0
 51 50  1  0
 50 53  1  1
 51 52  2  0
 61 51  1  0
 53 54  1  0
 54 55  1  0
 55 56  1  0
 56 57  1  0
 57 58  2  0
 57 59  1  0
 60 62  2  0
 60 63  1  0
 69 60  1  0
 63 61  1  0
 63 64  1  0
 63 68  1  6
 64 67  1  0
 65 66  1  0
 67 65  1  0
 66100  2  0
 70 69  1  0
 71 70  1  0
 70 73  1  6
 71 72  2  0
 78 71  1  0
 73 74  1  0
 74 75  1  0
 75 76  2  0
 75 77  1  0
 79 78  1  0
 80 79  1  0
 79 82  1  6
 80 81  2  0
 86 80  1  0
 82 83  1  0
 83 84  1  6
 83 85  1  0
 87 86  1  0
 88 87  1  0
 87 90  1  6
 88 89  2  0
 95 88  1  0
 90 91  1  0
 91 92  1  6
 91 93  1  0
 94 96  2  0
 97 94  1  0
 94103  1  0
 95 97  1  0
 97 98  1  0
 97102  1  6
 98101  1  0
100 99  1  0
 99101  1  0
103104  1  0
104105  1  0
104107  1  1
105106  2  0
105111  1  0
107108  1  0
108109  1  6
108110  1  0
111112  1  0
112113  1  0
112115  1  6
113114  2  0
113120  1  0
115116  1  0
116117  1  0
117118  1  0
118119  1  0
 13121  1  0
 58122  1  0
M  CHG  1 119   1
M  END
$$$$
