
     RDKit          3D

122123  0  0  0  0  0  0  0  0999 V2000
  -55.5265  -49.8712  113.8179 C   0  0  0  0  0  0  0  0  0  0  0  0
  -54.9850  -50.9619  113.6735 O   0  0  0  0  0  0  0  0  0  0  0  0
  -55.4569  -49.1180  115.1151 C   0  0  0  0  0  0  0  0  0  0  0  0
  -56.2489  -49.2527  112.8237 N   0  0  0  0  0  0  0  0  0  0  0  0
  -56.3549  -49.8205  111.4764 C   0  0  2  0  0  0  0  0  0  0  0  0
  -56.1125  -48.6974  110.4222 C   0  0  0  0  0  0  0  0  0  0  0  0
  -55.6117  -47.6421  110.8068 O   0  0  0  0  0  0  0  0  0  0  0  0
  -57.7804  -50.3920  111.3150 C   0  0  0  0  0  0  0  0  0  0  0  0
  -58.8630  -49.3637  110.9785 C   0  0  0  0  0  0  0  0  0  0  0  0
  -60.2063  -50.0573  110.7488 C   0  0  0  0  0  0  0  0  0  0  0  0
  -60.9987  -49.3011  109.7869 N   0  0  0  0  0  0  0  0  0  0  0  0
  -62.2494  -49.7243  109.4711 C   0  0  0  0  0  0  0  0  0  0  0  0
  -62.7201  -49.7885  108.2826 N   0  0  0  0  0  0  0  0  0  0  0  0
  -62.9580  -50.0585  110.5709 N   0  0  0  0  0  0  0  0  0  0  0  0
  -56.4262  -48.8577  109.0804 N   0  0  0  0  0  0  0  0  0  0  0  0
  -55.6459  -48.1797  108.0117 C   0  0  2  0  0  0  0  0  0  0  0  0
  -55.9624  -48.5305  106.5233 C   0  0  0  0  0  0  0  0  0  0  0  0
  -56.1589  -49.6898  106.1652 O   0  0  0  0  0  0  0  0  0  0  0  0
  -54.0900  -48.2372  108.2234 C   0  0  2  0  0  0  0  0  0  0  0  0
  -53.3617  -47.3627  107.1704 C   0  0  0  0  0  0  0  0  0  0  0  0
  -53.4969  -49.6428  108.2437 C   0  0  0  0  0  0  0  0  0  0  0  0
  -53.2770  -47.9851  105.7825 C   0  0  0  0  0  0  0  0  0  0  0  0
  -56.2048  -47.4945  105.6389 N   0  0  0  0  0  0  0  0  0  0  0  0
  -57.4764  -47.5326  104.9030 C   0  0  2  0  0  0  0  0  0  0  0  0
  -58.5040  -46.4305  105.3220 C   0  0  0  0  0  0  0  0  0  0  0  0
  -59.2482  -46.5208  106.2941 O   0  0  0  0  0  0  0  0  0  0  0  0
  -58.1768  -48.9125  104.9101 C   0  0  2  0  0  0  0  0  0  0  0  0
  -57.3220  -50.0099  105.5652 C   0  0  0  0  0  0  0  0  0  0  0  0
  -58.6138  -49.3071  103.4972 C   0  0  0  0  0  0  0  0  0  0  0  0
  -56.1832  -49.4651  106.4186 C   0  0  0  0  0  0  0  0  0  0  0  0
  -58.5399  -45.3586  104.4338 N   0  0  0  0  0  0  0  0  0  0  0  0
  -59.3771  -44.1767  104.7329 C   0  0  2  0  0  0  0  0  0  0  0  0
  -60.6269  -44.0661  103.8164 C   0  0  0  0  0  0  0  0  0  0  0  0
  -60.7648  -43.1734  102.9831 O   0  0  0  0  0  0  0  0  0  0  0  0
  -58.5712  -42.8541  104.6026 C   0  0  0  0  0  0  0  0  0  0  0  0
  -58.1919  -42.4536  103.1976 C   0  0  0  0  0  0  0  0  0  0  0  0
  -58.7570  -41.3377  102.5759 C   0  0  0  0  0  0  0  0  0  0  0  0
  -57.2097  -43.1958  102.5151 C   0  0  0  0  0  0  0  0  0  0  0  0
  -58.3415  -40.9757  101.2917 C   0  0  0  0  0  0  0  0  0  0  0  0
  -56.7852  -42.8189  101.2397 C   0  0  0  0  0  0  0  0  0  0  0  0
  -57.3515  -41.7020  100.6395 C   0  0  0  0  0  0  0  0  0  0  0  0
  -56.9490  -41.2802   99.4064 O   0  0  0  0  0  0  0  0  0  0  0  0
  -61.6100  -45.0001  104.0403 N   0  0  0  0  0  0  0  0  0  0  0  0
  -62.7951  -45.0362  103.1715 C   0  0  2  0  0  0  0  0  0  0  0  0
  -62.5620  -44.1054  101.9736 C   0  0  0  0  0  0  0  0  0  0  0  0
  -62.0164  -43.0162  102.0856 O   0  0  0  0  0  0  0  0  0  0  0  0
  -64.0693  -44.6018  103.9124 C   0  0  0  0  0  0  0  0  0  0  0  0
  -63.9692  -43.2736  104.4206 O   0  0  0  0  0  0  0  0  0  0  0  0
  -62.9707  -44.6230  100.7641 N   0  0  0  0  0  0  0  0  0  0  0  0
  -62.7296  -43.9504   99.4831 C   0  0  2  0  0  0  0  0  0  0  0  0
  -63.6920  -42.7612   99.2979 C   0  0  0  0  0  0  0  0  0  0  0  0
  -64.8860  -42.9179   99.0552 O   0  0  0  0  0  0  0  0  0  0  0  0
  -62.7991  -44.9508   98.3175 C   0  0  0  0  0  0  0  0  0  0  0  0
  -61.4479  -45.5843   97.9640 C   0  0  0  0  0  0  0  0  0  0  0  0
  -61.1177  -46.7480   98.8983 C   0  0  0  0  0  0  0  0  0  0  0  0
  -59.7707  -47.2322   98.6084 N   0  0  0  0  0  0  0  0  0  0  0  0
  -59.3132  -48.3645   99.2022 C   0  0  0  0  0  0  0  0  0  0  0  0
  -60.0329  -49.1689   99.8888 N   0  0  0  0  0  0  0  0  0  0  0  0
  -57.9956  -48.5436   98.9692 N   0  0  0  0  0  0  0  0  0  0  0  0
  -60.9981  -42.7432   99.0554 C   0  0  0  0  0  0  0  0  0  0  0  0
  -63.0745  -41.5315   99.3156 N   0  0  0  0  0  0  0  0  0  0  0  0
  -61.5881  -43.6589   98.4727 O   0  0  0  0  0  0  0  0  0  0  0  0
  -61.6427  -41.2818   99.0661 C   0  0  1  0  0  0  0  0  0  0  0  0
  -61.0523  -40.3145  100.1247 C   0  0  0  0  0  0  0  0  0  0  0  0
  -60.6992  -37.8675  100.9990 C   0  0  0  0  0  0  0  0  0  0  0  0
  -59.6140  -37.1091  100.2826 C   0  0  0  0  0  0  0  0  0  0  0  0
  -61.5373  -38.8456  100.1393 C   0  0  0  0  0  0  0  0  0  0  0  0
  -61.4150  -40.7758   97.6296 C   0  0  0  0  0  0  0  0  0  0  0  0
  -59.7113  -42.9179   99.4940 N   0  0  0  0  0  0  0  0  0  0  0  0
  -58.8616  -44.1091   99.2700 C   0  0  2  0  0  0  0  0  0  0  0  0
  -57.8163  -44.1785  100.4640 C   0  0  0  0  0  0  0  0  0  0  0  0
  -58.1905  -44.1460  101.6359 O   0  0  0  0  0  0  0  0  0  0  0  0
  -58.1967  -44.0680   97.8917 C   0  0  0  0  0  0  0  0  0  0  0  0
  -58.2995  -42.7357   97.1444 C   0  0  0  0  0  0  0  0  0  0  0  0
  -58.5109  -41.5866   98.1034 C   0  0  0  0  0  0  0  0  0  0  0  0
  -59.1146  -41.6588   99.1679 O   0  0  0  0  0  0  0  0  0  0  0  0
  -57.9624  -40.4038   97.6884 N   0  0  0  0  0  0  0  0  0  0  0  0
  -56.4673  -44.2018  100.1672 N   0  0  0  0  0  0  0  0  0  0  0  0
  -55.4134  -43.6642  101.0729 C   0  0  2  0  0  0  0  0  0  0  0  0
  -54.8367  -42.4500  100.2906 C   0  0  0  0  0  0  0  0  0  0  0  0
  -54.9226  -42.4453   99.0471 O   0  0  0  0  0  0  0  0  0  0  0  0
  -54.3145  -44.7257  101.2413 C   0  0  0  0  0  0  0  0  0  0  0  0
  -54.4849  -45.7498  102.3868 C   0  0  1  0  0  0  0  0  0  0  0  0
  -54.6546  -45.0869  103.7509 C   0  0  0  0  0  0  0  0  0  0  0  0
  -55.6036  -46.7617  102.1516 C   0  0  0  0  0  0  0  0  0  0  0  0
  -54.1960  -41.3693  100.7879 N   0  0  0  0  0  0  0  0  0  0  0  0
  -53.8127  -40.7527  102.0947 C   0  0  2  0  0  0  0  0  0  0  0  0
  -53.0265  -39.4876  101.6426 C   0  0  0  0  0  0  0  0  0  0  0  0
  -52.0817  -39.6586  100.8463 O   0  0  0  0  0  0  0  0  0  0  0  0
  -52.8967  -41.7546  102.8114 C   0  0  0  0  0  0  0  0  0  0  0  0
  -53.1212  -43.2612  102.6735 C   0  0  1  0  0  0  0  0  0  0  0  0
  -54.4631  -43.6389  102.0595 C   0  0  0  0  0  0  0  0  0  0  0  0
  -51.9602  -43.9449  101.9745 C   0  0  0  0  0  0  0  0  0  0  0  0
  -54.1034  -37.3832  104.1380 C   0  0  0  0  0  0  0  0  0  0  0  0
  -53.2425  -38.1819  101.9231 N   0  0  0  0  0  0  0  0  0  0  0  0
  -54.5115  -36.5004  104.8954 O   0  0  0  0  0  0  0  0  0  0  0  0
  -54.1918  -37.2401  102.5913 C   0  0  1  0  0  0  0  0  0  0  0  0
  -55.6708  -37.4199  102.1504 C   0  0  0  0  0  0  0  0  0  0  0  0
  -58.1267  -36.3923  102.2522 C   0  0  0  0  0  0  0  0  0  0  0  0
  -58.5338  -36.4897  100.8109 C   0  0  0  0  0  0  0  0  0  0  0  0
  -56.6136  -36.2466  102.5275 C   0  0  0  0  0  0  0  0  0  0  0  0
  -53.7440  -35.8157  102.1659 C   0  0  0  0  0  0  0  0  0  0  0  0
  -53.6119  -38.5640  104.6392 N   0  0  0  0  0  0  0  0  0  0  0  0
  -53.4423  -39.7638  103.8141 C   0  0  2  0  0  0  0  0  0  0  0  0
  -52.1696  -39.5170  102.9751 C   0  0  0  0  0  0  0  0  0  0  0  0
  -51.7182  -38.3848  102.8056 O   0  0  0  0  0  0  0  0  0  0  0  0
  -54.6906  -39.9723  102.9550 C   0  0  0  0  0  0  0  0  0  0  0  0
  -55.0883  -41.4196  102.6265 C   0  0  1  0  0  0  0  0  0  0  0  0
  -55.7130  -41.5481  101.2344 C   0  0  0  0  0  0  0  0  0  0  0  0
  -53.8409  -42.3122  102.6990 C   0  0  0  0  0  0  0  0  0  0  0  0
  -51.5912  -40.6259  102.3949 N   0  0  0  0  0  0  0  0  0  0  0  0
  -50.7352  -40.5083  101.2100 C   0  0  2  0  0  0  0  0  0  0  0  0
  -50.7159  -39.0627  100.6410 C   0  0  0  0  0  0  0  0  0  0  0  0
  -50.0685  -38.7427   99.6453 O   0  0  0  0  0  0  0  0  0  0  0  0
  -51.1976  -41.4662  100.0964 C   0  0  0  0  0  0  0  0  0  0  0  0
  -50.6597  -42.8955  100.2129 C   0  0  0  0  0  0  0  0  0  0  0  0
  -49.2793  -42.8706  100.8856 C   0  0  0  0  0  0  0  0  0  0  0  0
  -48.5763  -44.2202  100.9133 C   0  0  0  0  0  0  0  0  0  0  0  0
  -47.8826  -44.4156  102.2068 N   0  0  0  0  0  4  0  0  0  0  0  0
  -51.3440  -38.1024  101.3851 N   0  0  0  0  0  0  0  0  0  0  0  0
  -63.3092  -50.6148  108.1749 H   0  0  0  0  0  0  0  0  0  0  0  0
  -60.1739  -48.8111  100.8346 H   0  0  0  0  0  0  0  0  0  0  0  0
  1  2  2  0
  1  3  1  0
  4  1  1  0
  5  4  1  0
  6  5  1  0
  5  8  1  6
  6  7  2  0
 15  6  1  0
  8  9  1  0
  9 10  1  0
 10 11  1  0
 11 12  1  0
 12 13  2  0
 12 14  1  0
 16 15  1  1
 17 16  1  0
 16 19  1  0
 17 18  2  0
 23 17  1  0
 19 20  1  0
 19 21  1  6
 20 22  1  0
 24 23  1  1
 25 24  1  0
 24 27  1  0
 25 26  2  0
 31 25  1  0
 27 28  1  0
 27 29  1  6
 28 30  1  0
 32 31  1  0
 33 32  1  0
 32 35  1  6
 33 34  2  0
 43 33  1  0
 35 36  1  0
 36 37  2  0
 36 38  1  0
 37 39  1  0
 38 40  2  0
 39 41  2  0
 40 41  1  0
 41 42  1  0
 44 43  1  0
 45 44  1  0
 44 47  1  1
 45 46  2  0
 49 45  1  0
 47 48  1  0
 50 49  1  0
 51 50  1  0
 50 53  1  6
 51 52  2  0
 61 51  1  0
 53 54  1  0
 54 55  1  0
 55 56  1  0
 56 57  1  0
 57 58  2  0
 57 59  1  0
 60 62  2  0
 60 63  1  0
 69 60  1  0
 63 61  1  0
 63 64  1  0
 63 68  1  6
 64 67  1  0
 65 66  1  0
 67 65  1  0
 66100  2  0
 70 69  1  0
 71 70  1  0
 70 73  1  6
 71 72  2  0
 78 71  1  0
 73 74  1  0
 74 75  1  0
 75 76  2  0
 75 77  1  0
 79 78  1  0
 80 79  1  0
 79 82  1  6
 80 81  2  0
 86 80  1  0
 82 83  1  0
 83 84  1  1
 83 85  1  0
 87 86  1  0
 88 87  1  0
 87 90  1  6
 88 89  2  0
 95 88  1  0
 90 91  1  0
 91 92  1  6
 91 93  1  0
 94 96  2  0
 97 94  1  0
 94103  1  0
 95 97  1  0
 97 98  1  0
 97102  1  1
 98101  1  0
100 99  1  0
 99101  1  0
103104  1  0
104105  1  0
104107  1  6
105106  2  0
105111  1  0
107108  1  0
108109  1  6
108110  1  0
111112  1  0
112113  1  0
112115  1  6
113114  2  0
113120  1  0
115116  1  0
116117  1  0
117118  1  0
118119  1  0
 13121  1  0
 58122  1  0
M  CHG  1 119   1
M  END
$$$$
