
     RDKit          3D

122123  0  0  0  0  0  0  0  0999 V2000
  -52.4327  -45.9252  107.0957 C   0  0  0  0  0  0  0  0  0  0  0  0
  -53.3539  -46.2241  107.8479 O   0  0  0  0  0  0  0  0  0  0  0  0
  -51.4534  -46.9487  106.5972 C   0  0  0  0  0  0  0  0  0  0  0  0
  -52.2066  -44.6411  106.6570 N   0  0  0  0  0  0  0  0  0  0  0  0
  -51.5435  -43.6409  107.4990 C   0  0  2  0  0  0  0  0  0  0  0  0
  -51.1284  -42.4206  106.6215 C   0  0  0  0  0  0  0  0  0  0  0  0
  -49.9826  -41.9890  106.7367 O   0  0  0  0  0  0  0  0  0  0  0  0
  -50.2871  -44.2970  108.1121 C   0  0  0  0  0  0  0  0  0  0  0  0
  -50.4583  -44.8345  109.5350 C   0  0  0  0  0  0  0  0  0  0  0  0
  -49.1577  -44.6812  110.3245 C   0  0  0  0  0  0  0  0  0  0  0  0
  -49.4289  -44.7771  111.7536 N   0  0  0  0  0  0  0  0  0  0  0  0
  -48.3988  -44.7127  112.6355 C   0  0  0  0  0  0  0  0  0  0  0  0
  -48.5291  -44.5892  113.9027 N   0  0  0  0  0  0  0  0  0  0  0  0
  -47.2019  -44.7769  112.0136 N   0  0  0  0  0  0  0  0  0  0  0  0
  -51.9963  -41.8267  105.7168 N   0  0  0  0  0  0  0  0  0  0  0  0
  -51.5730  -40.6817  104.8679 C   0  0  2  0  0  0  0  0  0  0  0  0
  -52.6310  -40.0215  103.9281 C   0  0  0  0  0  0  0  0  0  0  0  0
  -53.7279  -40.5405  103.7322 O   0  0  0  0  0  0  0  0  0  0  0  0
  -50.2628  -40.9492  104.0430 C   0  0  2  0  0  0  0  0  0  0  0  0
  -49.2682  -41.8132  104.8605 C   0  0  0  0  0  0  0  0  0  0  0  0
  -49.5671  -39.6961  103.5198 C   0  0  0  0  0  0  0  0  0  0  0  0
  -49.1878  -43.2696  104.4208 C   0  0  0  0  0  0  0  0  0  0  0  0
  -52.3903  -38.7418  103.4604 N   0  0  0  0  0  0  0  0  0  0  0  0
  -52.8587  -37.6289  104.2982 C   0  0  2  0  0  0  0  0  0  0  0  0
  -52.1951  -36.2492  103.9780 C   0  0  0  0  0  0  0  0  0  0  0  0
  -51.1660  -35.8434  104.5100 O   0  0  0  0  0  0  0  0  0  0  0  0
  -52.7728  -37.8954  105.8200 C   0  0  2  0  0  0  0  0  0  0  0  0
  -52.9833  -39.3761  106.1772 C   0  0  0  0  0  0  0  0  0  0  0  0
  -53.7392  -36.9885  106.5858 C   0  0  0  0  0  0  0  0  0  0  0  0
  -52.1166  -40.3274  105.3612 C   0  0  0  0  0  0  0  0  0  0  0  0
  -52.9335  -35.4909  103.0730 N   0  0  0  0  0  0  0  0  0  0  0  0
  -53.7906  -36.1612  102.0713 C   0  0  2  0  0  0  0  0  0  0  0  0
  -55.0425  -36.8387  102.6944 C   0  0  0  0  0  0  0  0  0  0  0  0
  -55.1010  -38.0440  102.9271 O   0  0  0  0  0  0  0  0  0  0  0  0
  -53.0074  -37.2440  101.2776 C   0  0  0  0  0  0  0  0  0  0  0  0
  -53.2699  -37.2853   99.7918 C   0  0  0  0  0  0  0  0  0  0  0  0
  -54.1085  -36.3574   99.1697 C   0  0  0  0  0  0  0  0  0  0  0  0
  -52.6161  -38.2539   99.0072 C   0  0  0  0  0  0  0  0  0  0  0  0
  -54.2857  -36.4035   97.7844 C   0  0  0  0  0  0  0  0  0  0  0  0
  -52.7825  -38.2838   97.6214 C   0  0  0  0  0  0  0  0  0  0  0  0
  -53.6132  -37.3488   97.0181 C   0  0  0  0  0  0  0  0  0  0  0  0
  -53.7847  -37.3224   95.6653 O   0  0  0  0  0  0  0  0  0  0  0  0
  -56.1171  -36.0102  102.9129 N   0  0  0  0  0  0  0  0  0  0  0  0
  -57.4139  -36.3165  102.2923 C   0  0  2  0  0  0  0  0  0  0  0  0
  -57.7516  -37.7917  102.5483 C   0  0  0  0  0  0  0  0  0  0  0  0
  -56.8892  -38.6526  102.6575 O   0  0  0  0  0  0  0  0  0  0  0  0
  -57.4081  -36.0515  100.7787 C   0  0  0  0  0  0  0  0  0  0  0  0
  -58.6675  -36.3425  100.1773 O   0  0  0  0  0  0  0  0  0  0  0  0
  -59.0969  -38.0492  102.6949 N   0  0  0  0  0  0  0  0  0  0  0  0
  -59.7462  -39.2472  102.1521 C   0  0  2  0  0  0  0  0  0  0  0  0
  -60.4049  -38.9460  100.7919 C   0  0  0  0  0  0  0  0  0  0  0  0
  -60.6038  -37.7983  100.4015 O   0  0  0  0  0  0  0  0  0  0  0  0
  -60.7370  -39.8409  103.1672 C   0  0  0  0  0  0  0  0  0  0  0  0
  -60.1738  -41.0253  103.9621 C   0  0  0  0  0  0  0  0  0  0  0  0
  -58.9808  -40.6031  104.8192 C   0  0  0  0  0  0  0  0  0  0  0  0
  -58.3881  -41.7862  105.4373 N   0  0  0  0  0  0  0  0  0  0  0  0
  -58.3004  -41.8746  106.7895 C   0  0  0  0  0  0  0  0  0  0  0  0
  -58.4160  -42.9594  107.4576 N   0  0  0  0  0  0  0  0  0  0  0  0
  -58.0651  -40.6677  107.3467 N   0  0  0  0  0  0  0  0  0  0  0  0
  -59.4981  -41.5384  101.4856 C   0  0  0  0  0  0  0  0  0  0  0  0
  -60.8450  -40.0644  100.1217 N   0  0  0  0  0  0  0  0  0  0  0  0
  -59.1571  -40.5901  102.2001 O   0  0  0  0  0  0  0  0  0  0  0  0
  -60.8583  -41.4395  100.6542 C   0  0  1  0  0  0  0  0  0  0  0  0
  -61.0037  -42.4786   99.5123 C   0  0  0  0  0  0  0  0  0  0  0  0
  -62.5312  -43.7730   97.8187 C   0  0  0  0  0  0  0  0  0  0  0  0
  -63.2813  -44.9283   98.4260 C   0  0  0  0  0  0  0  0  0  0  0  0
  -62.3325  -42.5309   98.7220 C   0  0  0  0  0  0  0  0  0  0  0  0
  -61.9505  -41.6030  101.7273 C   0  0  0  0  0  0  0  0  0  0  0  0
  -58.8440  -42.7398  101.5717 N   0  0  0  0  0  0  0  0  0  0  0  0
  -57.7706  -43.0884  102.5296 C   0  0  2  0  0  0  0  0  0  0  0  0
  -56.8798  -44.2173  101.8550 C   0  0  0  0  0  0  0  0  0  0  0  0
  -56.4032  -44.0607  100.7313 O   0  0  0  0  0  0  0  0  0  0  0  0
  -58.3472  -43.5082  103.8841 C   0  0  0  0  0  0  0  0  0  0  0  0
  -57.3993  -44.2932  104.7947 C   0  0  0  0  0  0  0  0  0  0  0  0
  -55.9627  -44.1384  104.3507 C   0  0  0  0  0  0  0  0  0  0  0  0
  -55.1995  -45.0637  104.0972 O   0  0  0  0  0  0  0  0  0  0  0  0
  -55.5465  -42.8391  104.2467 N   0  0  0  0  0  0  0  0  0  0  0  0
  -56.7072  -45.4155  102.5206 N   0  0  0  0  0  0  0  0  0  0  0  0
  -56.4664  -46.7149  101.8325 C   0  0  2  0  0  0  0  0  0  0  0  0
  -57.7443  -47.5434  102.1476 C   0  0  0  0  0  0  0  0  0  0  0  0
  -58.3910  -47.2749  103.1788 O   0  0  0  0  0  0  0  0  0  0  0  0
  -55.2488  -47.3988  102.4748 C   0  0  0  0  0  0  0  0  0  0  0  0
  -53.8568  -46.7935  102.1816 C   0  0  1  0  0  0  0  0  0  0  0  0
  -53.6575  -46.4585  100.7062 C   0  0  0  0  0  0  0  0  0  0  0  0
  -53.5131  -45.5832  103.0463 C   0  0  0  0  0  0  0  0  0  0  0  0
  -58.2546  -48.5819  101.4498 N   0  0  0  0  0  0  0  0  0  0  0  0
  -58.0287  -49.3475  100.1858 C   0  0  2  0  0  0  0  0  0  0  0  0
  -59.1367  -50.4383  100.2604 C   0  0  0  0  0  0  0  0  0  0  0  0
  -59.1816  -51.1346  101.2943 O   0  0  0  0  0  0  0  0  0  0  0  0
  -56.6270  -49.9660  100.2808 C   0  0  0  0  0  0  0  0  0  0  0  0
  -56.4118  -51.3233  100.9522 C   0  0  1  0  0  0  0  0  0  0  0  0
  -56.7072  -51.3346  102.4464 C   0  0  0  0  0  0  0  0  0  0  0  0
  -57.1340  -52.4386  100.2184 C   0  0  0  0  0  0  0  0  0  0  0  0
  -59.8851  -50.5377   96.9070 C   0  0  0  0  0  0  0  0  0  0  0  0
  -60.1356  -50.7253   99.3943 N   0  0  0  0  0  0  0  0  0  0  0  0
  -60.3454  -50.9043   95.8238 O   0  0  0  0  0  0  0  0  0  0  0  0
  -60.8001  -50.2675   98.1360 C   0  0  1  0  0  0  0  0  0  0  0  0
  -61.2021  -48.7667   98.1472 C   0  0  0  0  0  0  0  0  0  0  0  0
  -62.5596  -46.8537   96.8842 C   0  0  0  0  0  0  0  0  0  0  0  0
  -63.2921  -46.2221   98.0319 C   0  0  0  0  0  0  0  0  0  0  0  0
  -62.2046  -48.3492   97.0389 C   0  0  0  0  0  0  0  0  0  0  0  0
  -62.1036  -51.1027   98.0181 C   0  0  0  0  0  0  0  0  0  0  0  0
  -58.5417  -50.2888   97.0490 N   0  0  0  0  0  0  0  0  0  0  0  0
  -57.8744  -50.2692   98.3541 C   0  0  2  0  0  0  0  0  0  0  0  0
  -58.8709  -49.5954   99.3224 C   0  0  0  0  0  0  0  0  0  0  0  0
  -59.0443  -50.0165  100.4658 O   0  0  0  0  0  0  0  0  0  0  0  0
  -56.5511  -49.5108   98.2388 C   0  0  0  0  0  0  0  0  0  0  0  0
  -55.3481  -50.2730   97.6622 C   0  0  1  0  0  0  0  0  0  0  0  0
  -54.9297  -51.4513   98.5460 C   0  0  0  0  0  0  0  0  0  0  0  0
  -55.7093  -50.7992   96.2655 C   0  0  0  0  0  0  0  0  0  0  0  0
  -59.5827  -48.5246   98.8251 N   0  0  0  0  0  0  0  0  0  0  0  0
  -60.1302  -47.4937   99.7128 C   0  0  2  0  0  0  0  0  0  0  0  0
  -61.6783  -47.5713   99.8179 C   0  0  0  0  0  0  0  0  0  0  0  0
  -62.4222  -46.6683   99.4382 O   0  0  0  0  0  0  0  0  0  0  0  0
  -59.7428  -46.0842   99.2285 C   0  0  0  0  0  0  0  0  0  0  0  0
  -58.2783  -45.7028   99.4642 C   0  0  0  0  0  0  0  0  0  0  0  0
  -57.9187  -44.4878   98.5964 C   0  0  0  0  0  0  0  0  0  0  0  0
  -56.9516  -43.5159   99.2568 C   0  0  0  0  0  0  0  0  0  0  0  0
  -56.7249  -42.3397   98.3863 N   0  0  0  0  0  4  0  0  0  0  0  0
  -62.1942  -48.6424  100.4940 N   0  0  0  0  0  0  0  0  0  0  0  0
  -49.3678  -45.0728  114.2253 H   0  0  0  0  0  0  0  0  0  0  0  0
  -58.3826  -43.7709  106.8389 H   0  0  0  0  0  0  0  0  0  0  0  0
  1  2  2  0
  1  3  1  0
  4  1  1  0
  5  4  1  0
  6  5  1  0
  5  8  1  6
  6  7  2  0
 15  6  1  0
  8  9  1  0
  9 10  1  0
 10 11  1  0
 11 12  1  0
 12 13  2  0
 12 14  1  0
 16 15  1  6
 17 16  1  0
 16 19  1  0
 17 18  2  0
 23 17  1  0
 19 20  1  0
 19 21  1  1
 20 22  1  0
 24 23  1  6
 25 24  1  0
 24 27  1  0
 25 26  2  0
 31 25  1  0
 27 28  1  0
 27 29  1  1
 28 30  1  0
 32 31  1  0
 33 32  1  0
 32 35  1  1
 33 34  2  0
 43 33  1  0
 35 36  1  0
 36 37  2  0
 36 38  1  0
 37 39  1  0
 38 40  2  0
 39 41  2  0
 40 41  1  0
 41 42  1  0
 44 43  1  0
 45 44  1  0
 44 47  1  6
 45 46  2  0
 49 45  1  0
 47 48  1  0
 50 49  1  0
 51 50  1  0
 50 53  1  1
 51 52  2  0
 61 51  1  0
 53 54  1  0
 54 55  1  0
 55 56  1  0
 56 57  1  0
 57 58  2  0
 57 59  1  0
 60 62  2  0
 60 63  1  0
 69 60  1  0
 63 61  1  0
 63 64  1  0
 63 68  1  1
 64 67  1  0
 65 66  1  0
 67 65  1  0
 66100  2  0
 70 69  1  0
 71 70  1  0
 70 73  1  1
 71 72  2  0
 78 71  1  0
 73 74  1  0
 74 75  1  0
 75 76  2  0
 75 77  1  0
 79 78  1  0
 80 79  1  0
 79 82  1  1
 80 81  2  0
 86 80  1  0
 82 83  1  0
 83 84  1  6
 83 85  1  0
 87 86  1  0
 88 87  1  0
 87 90  1  1
 88 89  2  0
 95 88  1  0
 90 91  1  0
 91 92  1  1
 91 93  1  0
 94 96  2  0
 97 94  1  0
 94103  1  0
 95 97  1  0
 97 98  1  0
 97102  1  6
 98101  1  0
100 99  1  0
 99101  1  0
103104  1  0
104105  1  0
104107  1  6
105106  2  0
105111  1  0
107108  1  0
108109  1  1
108110  1  0
111112  1  0
112113  1  0
112115  1  6
113114  2  0
113120  1  0
115116  1  0
116117  1  0
117118  1  0
118119  1  0
 13121  1  0
 58122  1  0
M  CHG  1 119   1
M  END
$$$$
