
     RDKit          3D

122123  0  0  0  0  0  0  0  0999 V2000
  -70.8222  -52.3588  103.3613 C   0  0  0  0  0  0  0  0  0  0  0  0
  -71.9809  -52.7374  103.4944 O   0  0  0  0  0  0  0  0  0  0  0  0
  -69.8473  -53.0867  102.4813 C   0  0  0  0  0  0  0  0  0  0  0  0
  -70.3125  -51.2563  104.0074 N   0  0  0  0  0  0  0  0  0  0  0  0
  -69.2009  -50.4787  103.4518 C   0  0  2  0  0  0  0  0  0  0  0  0
  -69.3016  -50.4733  101.8958 C   0  0  0  0  0  0  0  0  0  0  0  0
  -70.3975  -50.7020  101.3867 O   0  0  0  0  0  0  0  0  0  0  0  0
  -67.8842  -51.1568  103.8894 C   0  0  0  0  0  0  0  0  0  0  0  0
  -67.8685  -51.6898  105.3241 C   0  0  0  0  0  0  0  0  0  0  0  0
  -66.5191  -52.3363  105.6394 C   0  0  0  0  0  0  0  0  0  0  0  0
  -66.5251  -52.8626  106.9989 N   0  0  0  0  0  0  0  0  0  0  0  0
  -65.3579  -52.9515  107.6866 C   0  0  0  0  0  0  0  0  0  0  0  0
  -64.2522  -53.3712  107.1971 N   0  0  0  0  0  0  0  0  0  0  0  0
  -65.5013  -52.5578  108.9703 N   0  0  0  0  0  0  0  0  0  0  0  0
  -68.2105  -50.2064  101.0816 N   0  0  0  0  0  0  0  0  0  0  0  0
  -68.3448  -50.1172   99.6035 C   0  0  2  0  0  0  0  0  0  0  0  0
  -67.0758  -49.7745   98.7607 C   0  0  0  0  0  0  0  0  0  0  0  0
  -67.0897  -49.8201   97.5324 O   0  0  0  0  0  0  0  0  0  0  0  0
  -69.5301  -49.2036   99.1246 C   0  0  2  0  0  0  0  0  0  0  0  0
  -69.8540  -48.1243  100.1896 C   0  0  0  0  0  0  0  0  0  0  0  0
  -70.7990  -49.9534   98.7300 C   0  0  0  0  0  0  0  0  0  0  0  0
  -70.9678  -48.5057  101.1565 C   0  0  0  0  0  0  0  0  0  0  0  0
  -65.9795  -49.2344   99.4093 N   0  0  0  0  0  0  0  0  0  0  0  0
  -65.0280  -48.4747   98.5863 C   0  0  2  0  0  0  0  0  0  0  0  0
  -63.8060  -47.8952   99.3720 C   0  0  0  0  0  0  0  0  0  0  0  0
  -63.8012  -47.6972  100.5835 O   0  0  0  0  0  0  0  0  0  0  0  0
  -65.6715  -47.3492   97.7415 C   0  0  2  0  0  0  0  0  0  0  0  0
  -65.0393  -45.9724   98.0048 C   0  0  0  0  0  0  0  0  0  0  0  0
  -67.1888  -47.3197   97.9416 C   0  0  0  0  0  0  0  0  0  0  0  0
  -64.1931  -45.9243   99.2710 C   0  0  0  0  0  0  0  0  0  0  0  0
  -62.7400  -47.5576   98.5420 N   0  0  0  0  0  0  0  0  0  0  0  0
  -61.4008  -48.1362   98.7844 C   0  0  2  0  0  0  0  0  0  0  0  0
  -60.3594  -47.7404   97.7011 C   0  0  0  0  0  0  0  0  0  0  0  0
  -60.5599  -47.8911   96.4981 O   0  0  0  0  0  0  0  0  0  0  0  0
  -61.4496  -49.6881   98.8548 C   0  0  0  0  0  0  0  0  0  0  0  0
  -61.0788  -50.4137   97.5843 C   0  0  0  0  0  0  0  0  0  0  0  0
  -62.0478  -50.9918   96.7610 C   0  0  0  0  0  0  0  0  0  0  0  0
  -59.7269  -50.4678   97.1959 C   0  0  0  0  0  0  0  0  0  0  0  0
  -61.6636  -51.6126   95.5695 C   0  0  0  0  0  0  0  0  0  0  0  0
  -59.3507  -51.0732   95.9954 C   0  0  0  0  0  0  0  0  0  0  0  0
  -60.3278  -51.6358   95.1848 C   0  0  0  0  0  0  0  0  0  0  0  0
  -60.0107  -52.2135   93.9907 O   0  0  0  0  0  0  0  0  0  0  0  0
  -59.1608  -47.2657   98.1774 N   0  0  0  0  0  0  0  0  0  0  0  0
  -58.8841  -45.8223   98.1508 C   0  0  2  0  0  0  0  0  0  0  0  0
  -57.5827  -45.5512   98.9178 C   0  0  0  0  0  0  0  0  0  0  0  0
  -57.4371  -45.8601  100.0926 O   0  0  0  0  0  0  0  0  0  0  0  0
  -60.0234  -45.0031   98.7769 C   0  0  0  0  0  0  0  0  0  0  0  0
  -60.2158  -43.7557   98.1139 O   0  0  0  0  0  0  0  0  0  0  0  0
  -56.5840  -44.9819   98.1587 N   0  0  0  0  0  0  0  0  0  0  0  0
  -55.3679  -44.4034   98.7399 C   0  0  2  0  0  0  0  0  0  0  0  0
  -54.9661  -43.1127   97.9999 C   0  0  0  0  0  0  0  0  0  0  0  0
  -55.1449  -42.9682   96.7932 O   0  0  0  0  0  0  0  0  0  0  0  0
  -54.2319  -45.4390   98.7762 C   0  0  0  0  0  0  0  0  0  0  0  0
  -54.7177  -46.8928   98.7303 C   0  0  0  0  0  0  0  0  0  0  0  0
  -53.5960  -47.8412   98.3081 C   0  0  0  0  0  0  0  0  0  0  0  0
  -54.1094  -49.2079   98.2672 N   0  0  0  0  0  0  0  0  0  0  0  0
  -53.5042  -50.1831   98.9928 C   0  0  0  0  0  0  0  0  0  0  0  0
  -52.2541  -50.2219   99.2613 N   0  0  0  0  0  0  0  0  0  0  0  0
  -54.3932  -51.1106   99.4075 N   0  0  0  0  0  0  0  0  0  0  0  0
  -54.9134  -41.1482  100.8709 C   0  0  0  0  0  0  0  0  0  0  0  0
  -54.2957  -42.2019   98.7840 N   0  0  0  0  0  0  0  0  0  0  0  0
  -56.0532  -40.9368  100.4441 O   0  0  0  0  0  0  0  0  0  0  0  0
  -54.0472  -42.3283  100.2320 C   0  0  1  0  0  0  0  0  0  0  0  0
  -52.5295  -42.2687  100.5449 C   0  0  0  0  0  0  0  0  0  0  0  0
  -50.1995  -43.4666  100.6609 C   0  0  0  0  0  0  0  0  0  0  0  0
  -50.0112  -44.3285  101.8806 C   0  0  0  0  0  0  0  0  0  0  0  0
  -51.6263  -43.4272  100.0600 C   0  0  0  0  0  0  0  0  0  0  0  0
  -54.7037  -43.6032  100.7934 C   0  0  0  0  0  0  0  0  0  0  0  0
  -54.4786  -40.5340  102.0164 N   0  0  0  0  0  0  0  0  0  0  0  0
  -55.2806  -39.6617  102.9036 C   0  0  2  0  0  0  0  0  0  0  0  0
  -54.2747  -38.6722  103.6331 C   0  0  0  0  0  0  0  0  0  0  0  0
  -53.4760  -37.9928  102.9890 O   0  0  0  0  0  0  0  0  0  0  0  0
  -56.1258  -40.4851  103.8788 C   0  0  0  0  0  0  0  0  0  0  0  0
  -55.5879  -41.8800  104.2095 C   0  0  0  0  0  0  0  0  0  0  0  0
  -54.6670  -42.3822  103.1212 C   0  0  0  0  0  0  0  0  0  0  0  0
  -54.1403  -41.6813  102.2642 O   0  0  0  0  0  0  0  0  0  0  0  0
  -54.4492  -43.7326  103.1520 N   0  0  0  0  0  0  0  0  0  0  0  0
  -54.2577  -38.6391  105.0141 N   0  0  0  0  0  0  0  0  0  0  0  0
  -53.0526  -38.2873  105.8167 C   0  0  2  0  0  0  0  0  0  0  0  0
  -52.7003  -39.6100  106.5551 C   0  0  0  0  0  0  0  0  0  0  0  0
  -53.6098  -40.4349  106.7694 O   0  0  0  0  0  0  0  0  0  0  0  0
  -53.4395  -37.2180  106.8508 C   0  0  0  0  0  0  0  0  0  0  0  0
  -53.3355  -35.7380  106.4161 C   0  0  1  0  0  0  0  0  0  0  0  0
  -51.9770  -35.3942  105.8119 C   0  0  0  0  0  0  0  0  0  0  0  0
  -54.4554  -35.2869  105.4817 C   0  0  0  0  0  0  0  0  0  0  0  0
  -51.5025  -39.9917  107.0505 N   0  0  0  0  0  0  0  0  0  0  0  0
  -50.0779  -39.5418  107.1053 C   0  0  2  0  0  0  0  0  0  0  0  0
  -49.4151  -40.6553  107.9678 C   0  0  0  0  0  0  0  0  0  0  0  0
  -49.9311  -40.8994  109.0769 O   0  0  0  0  0  0  0  0  0  0  0  0
  -50.0629  -38.1888  107.8302 C   0  0  0  0  0  0  0  0  0  0  0  0
  -51.2512  -37.2311  107.7296 C   0  0  1  0  0  0  0  0  0  0  0  0
  -51.9195  -37.2070  106.3611 C   0  0  0  0  0  0  0  0  0  0  0  0
  -52.2512  -37.4501  108.8503 C   0  0  0  0  0  0  0  0  0  0  0  0
  -46.4062  -40.7659  106.3098 C   0  0  0  0  0  0  0  0  0  0  0  0
  -48.3800  -41.4780  107.6815 N   0  0  0  0  0  0  0  0  0  0  0  0
  -45.3527  -40.9902  105.7102 O   0  0  0  0  0  0  0  0  0  0  0  0
  -47.4423  -41.8914  106.5932 C   0  0  1  0  0  0  0  0  0  0  0  0
  -48.1508  -42.2730  105.2641 C   0  0  0  0  0  0  0  0  0  0  0  0
  -47.8398  -43.3515  102.8479 C   0  0  0  0  0  0  0  0  0  0  0  0
  -49.0190  -44.2789  102.7984 C   0  0  0  0  0  0  0  0  0  0  0  0
  -47.2674  -43.0469  104.2501 C   0  0  0  0  0  0  0  0  0  0  0  0
  -46.7158  -43.1584  107.1196 C   0  0  0  0  0  0  0  0  0  0  0  0
  -46.7350  -39.4888  106.6941 N   0  0  0  0  0  0  0  0  0  0  0  0
  -47.1360  -39.1535  108.0638 C   0  0  2  0  0  0  0  0  0  0  0  0
  -48.3914  -38.2650  107.9257 C   0  0  0  0  0  0  0  0  0  0  0  0
  -49.2270  -38.1845  108.8257 O   0  0  0  0  0  0  0  0  0  0  0  0
  -45.9810  -38.4458  108.7743 C   0  0  0  0  0  0  0  0  0  0  0  0
  -44.6737  -38.2632  107.9880 C   0  0  1  0  0  0  0  0  0  0  0  0
  -43.6319  -37.4607  108.7723 C   0  0  0  0  0  0  0  0  0  0  0  0
  -44.0921  -39.6443  107.6526 C   0  0  0  0  0  0  0  0  0  0  0  0
  -48.5453  -37.6004  106.7276 N   0  0  0  0  0  0  0  0  0  0  0  0
  -49.5807  -36.5770  106.5502 C   0  0  2  0  0  0  0  0  0  0  0  0
  -50.9638  -37.1949  106.2053 C   0  0  0  0  0  0  0  0  0  0  0  0
  -51.9964  -36.5302  106.1352 O   0  0  0  0  0  0  0  0  0  0  0  0
  -49.1950  -35.5877  105.4349 C   0  0  0  0  0  0  0  0  0  0  0  0
  -48.7266  -36.2394  104.1304 C   0  0  0  0  0  0  0  0  0  0  0  0
  -47.2063  -36.4515  104.1803 C   0  0  0  0  0  0  0  0  0  0  0  0
  -46.6315  -37.1272  102.9438 C   0  0  0  0  0  0  0  0  0  0  0  0
  -45.1809  -37.3706  103.1144 N   0  0  0  0  0  4  0  0  0  0  0  0
  -51.0222  -38.5587  106.1204 N   0  0  0  0  0  0  0  0  0  0  0  0
  -64.1763  -53.1149  106.2123 H   0  0  0  0  0  0  0  0  0  0  0  0
  -51.7781  -49.3990   98.8889 H   0  0  0  0  0  0  0  0  0  0  0  0
  1  2  2  0
  1  3  1  0
  4  1  1  0
  5  4  1  0
  6  5  1  0
  5  8  1  6
  6  7  2  0
 15  6  1  0
  8  9  1  0
  9 10  1  0
 10 11  1  0
 11 12  1  0
 12 13  2  0
 12 14  1  0
 16 15  1  1
 17 16  1  0
 16 19  1  0
 17 18  2  0
 23 17  1  0
 19 20  1  0
 19 21  1  1
 20 22  1  0
 24 23  1  1
 25 24  1  0
 24 27  1  0
 25 26  2  0
 31 25  1  0
 27 28  1  0
 27 29  1  1
 28 30  1  0
 32 31  1  0
 33 32  1  0
 32 35  1  6
 33 34  2  0
 43 33  1  0
 35 36  1  0
 36 37  2  0
 36 38  1  0
 37 39  1  0
 38 40  2  0
 39 41  2  0
 40 41  1  0
 41 42  1  0
 44 43  1  0
 45 44  1  0
 44 47  1  1
 45 46  2  0
 49 45  1  0
 47 48  1  0
 50 49  1  0
 51 50  1  0
 50 53  1  6
 51 52  2  0
 61 51  1  0
 53 54  1  0
 54 55  1  0
 55 56  1  0
 56 57  1  0
 57 58  2  0
 57 59  1  0
 60 62  2  0
 60 63  1  0
 69 60  1  0
 63 61  1  0
 63 64  1  0
 63 68  1  1
 64 67  1  0
 65 66  1  0
 67 65  1  0
 66100  2  0
 70 69  1  0
 71 70  1  0
 70 73  1  1
 71 72  2  0
 78 71  1  0
 73 74  1  0
 74 75  1  0
 75 76  2  0
 75 77  1  0
 79 78  1  0
 80 79  1  0
 79 82  1  1
 80 81  2  0
 86 80  1  0
 82 83  1  0
 83 84  1  6
 83 85  1  0
 87 86  1  0
 88 87  1  0
 87 90  1  1
 88 89  2  0
 95 88  1  0
 90 91  1  0
 91 92  1  6
 91 93  1  0
 94 96  2  0
 97 94  1  0
 94103  1  0
 95 97  1  0
 97 98  1  0
 97102  1  1
 98101  1  0
100 99  1  0
 99101  1  0
103104  1  0
104105  1  0
104107  1  6
105106  2  0
105111  1  0
107108  1  0
108109  1  1
108110  1  0
111112  1  0
112113  1  0
112115  1  6
113114  2  0
113120  1  0
115116  1  0
116117  1  0
117118  1  0
118119  1  0
 13121  1  0
 58122  1  0
M  CHG  1 119   1
M  END
$$$$
