
     RDKit          3D

122123  0  0  0  0  0  0  0  0999 V2000
  -59.7333  -45.7795  108.2983 C   0  0  0  0  0  0  0  0  0  0  0  0
  -60.6331  -46.1126  107.5347 O   0  0  0  0  0  0  0  0  0  0  0  0
  -59.7415  -46.1673  109.7490 C   0  0  0  0  0  0  0  0  0  0  0  0
  -58.6563  -45.0191  107.9051 N   0  0  0  0  0  0  0  0  0  0  0  0
  -58.4609  -44.6176  106.5088 C   0  0  2  0  0  0  0  0  0  0  0  0
  -58.3316  -45.8912  105.6186 C   0  0  0  0  0  0  0  0  0  0  0  0
  -57.5908  -46.7936  106.0050 O   0  0  0  0  0  0  0  0  0  0  0  0
  -57.1589  -43.7905  106.4325 C   0  0  0  0  0  0  0  0  0  0  0  0
  -57.1539  -42.5012  107.2574 C   0  0  0  0  0  0  0  0  0  0  0  0
  -55.8299  -41.7574  107.0788 C   0  0  0  0  0  0  0  0  0  0  0  0
  -55.1597  -41.6183  108.3659 N   0  0  0  0  0  0  0  0  0  0  0  0
  -54.8651  -40.3793  108.8360 C   0  0  0  0  0  0  0  0  0  0  0  0
  -53.9341  -40.1189  109.6748 N   0  0  0  0  0  0  0  0  0  0  0  0
  -55.6895  -39.4401  108.3244 N   0  0  0  0  0  0  0  0  0  0  0  0
  -59.0297  -46.0402  104.4291 N   0  0  0  0  0  0  0  0  0  0  0  0
  -58.7386  -47.1551  103.4894 C   0  0  2  0  0  0  0  0  0  0  0  0
  -57.4635  -47.0587  102.5932 C   0  0  0  0  0  0  0  0  0  0  0  0
  -56.6846  -46.1122  102.6852 O   0  0  0  0  0  0  0  0  0  0  0  0
  -59.9586  -47.5648  102.5880 C   0  0  2  0  0  0  0  0  0  0  0  0
  -61.1933  -47.9076  103.4611 C   0  0  0  0  0  0  0  0  0  0  0  0
  -59.6776  -48.6962  101.6037 C   0  0  0  0  0  0  0  0  0  0  0  0
  -62.4432  -48.2739  102.6709 C   0  0  0  0  0  0  0  0  0  0  0  0
  -57.1180  -48.1515  101.8181 N   0  0  0  0  0  0  0  0  0  0  0  0
  -55.9598  -47.9950  100.9271 C   0  0  2  0  0  0  0  0  0  0  0  0
  -56.3039  -48.0236   99.4016 C   0  0  0  0  0  0  0  0  0  0  0  0
  -55.4633  -48.1036   98.5105 O   0  0  0  0  0  0  0  0  0  0  0  0
  -54.8011  -48.9815  101.2074 C   0  0  2  0  0  0  0  0  0  0  0  0
  -54.0621  -49.4097   99.9287 C   0  0  0  0  0  0  0  0  0  0  0  0
  -55.2980  -50.1914  102.0025 C   0  0  0  0  0  0  0  0  0  0  0  0
  -52.7126  -50.0646  100.1970 C   0  0  0  0  0  0  0  0  0  0  0  0
  -57.6659  -47.8770   99.1515 N   0  0  0  0  0  0  0  0  0  0  0  0
  -58.3763  -48.8692   98.3160 C   0  0  2  0  0  0  0  0  0  0  0  0
  -59.8864  -48.5489   98.1387 C   0  0  0  0  0  0  0  0  0  0  0  0
  -60.7001  -49.3772   97.7360 O   0  0  0  0  0  0  0  0  0  0  0  0
  -58.2585  -50.3037   98.9026 C   0  0  0  0  0  0  0  0  0  0  0  0
  -58.8190  -51.4110   98.0435 C   0  0  0  0  0  0  0  0  0  0  0  0
  -58.0197  -52.1111   97.1368 C   0  0  0  0  0  0  0  0  0  0  0  0
  -60.1695  -51.7783   98.1942 C   0  0  0  0  0  0  0  0  0  0  0  0
  -58.5691  -53.1608   96.3959 C   0  0  0  0  0  0  0  0  0  0  0  0
  -60.7083  -52.8397   97.4648 C   0  0  0  0  0  0  0  0  0  0  0  0
  -59.8975  -53.5304   96.5738 C   0  0  0  0  0  0  0  0  0  0  0  0
  -60.3728  -54.5911   95.8600 O   0  0  0  0  0  0  0  0  0  0  0  0
  -60.2510  -47.2500   98.4013 N   0  0  0  0  0  0  0  0  0  0  0  0
  -61.5475  -46.9689   99.0344 C   0  0  2  0  0  0  0  0  0  0  0  0
  -61.3775  -45.8047  100.0200 C   0  0  0  0  0  0  0  0  0  0  0  0
  -60.3503  -45.6334  100.6619 O   0  0  0  0  0  0  0  0  0  0  0  0
  -62.1036  -48.1908   99.7818 C   0  0  0  0  0  0  0  0  0  0  0  0
  -62.1041  -48.0022  101.1949 O   0  0  0  0  0  0  0  0  0  0  0  0
  -62.4547  -44.9479  100.0782 N   0  0  0  0  0  0  0  0  0  0  0  0
  -62.3220  -43.4891  100.0028 C   0  0  2  0  0  0  0  0  0  0  0  0
  -62.9207  -42.8180  101.2542 C   0  0  0  0  0  0  0  0  0  0  0  0
  -64.1232  -42.5910  101.3624 O   0  0  0  0  0  0  0  0  0  0  0  0
  -62.9310  -42.9502   98.6978 C   0  0  0  0  0  0  0  0  0  0  0  0
  -62.4949  -41.5203   98.3552 C   0  0  0  0  0  0  0  0  0  0  0  0
  -63.0916  -41.0603   97.0255 C   0  0  0  0  0  0  0  0  0  0  0  0
  -62.7449  -42.0222   95.9826 N   0  0  0  0  0  0  0  0  0  0  0  0
  -62.1144  -41.6041   94.8549 C   0  0  0  0  0  0  0  0  0  0  0  0
  -62.0498  -42.2724   93.7661 N   0  0  0  0  0  0  0  0  0  0  0  0
  -61.5668  -40.3815   95.0225 N   0  0  0  0  0  0  0  0  0  0  0  0
  -59.8631  -43.0817  101.2262 C   0  0  0  0  0  0  0  0  0  0  0  0
  -61.9826  -42.4013  102.1707 N   0  0  0  0  0  0  0  0  0  0  0  0
  -60.4410  -43.8256  100.4270 O   0  0  0  0  0  0  0  0  0  0  0  0
  -60.6547  -41.8441  101.8530 C   0  0  1  0  0  0  0  0  0  0  0  0
  -59.9978  -41.2165  103.1098 C   0  0  0  0  0  0  0  0  0  0  0  0
  -59.7709  -39.1988  104.7693 C   0  0  0  0  0  0  0  0  0  0  0  0
  -58.9215  -38.0690  104.2514 C   0  0  0  0  0  0  0  0  0  0  0  0
  -60.6335  -39.9465  103.7229 C   0  0  0  0  0  0  0  0  0  0  0  0
  -60.7433  -40.8433  100.6860 C   0  0  0  0  0  0  0  0  0  0  0  0
  -58.5076  -43.1781  101.4053 N   0  0  0  0  0  0  0  0  0  0  0  0
  -57.5834  -44.0582  100.6553 C   0  0  2  0  0  0  0  0  0  0  0  0
  -56.3419  -44.3583  101.5996 C   0  0  0  0  0  0  0  0  0  0  0  0
  -56.5036  -44.7952  102.7386 O   0  0  0  0  0  0  0  0  0  0  0  0
  -57.1822  -43.4333   99.3166 C   0  0  0  0  0  0  0  0  0  0  0  0
  -57.9902  -43.8936   98.1003 C   0  0  0  0  0  0  0  0  0  0  0  0
  -58.6885  -45.2061   98.3736 C   0  0  0  0  0  0  0  0  0  0  0  0
  -58.6164  -45.8382   99.4216 O   0  0  0  0  0  0  0  0  0  0  0  0
  -59.4399  -45.6681   97.3276 N   0  0  0  0  0  0  0  0  0  0  0  0
  -55.0728  -44.0508  101.1485 N   0  0  0  0  0  0  0  0  0  0  0  0
  -53.9418  -43.6895  102.0487 C   0  0  2  0  0  0  0  0  0  0  0  0
  -53.6523  -42.2015  101.7009 C   0  0  0  0  0  0  0  0  0  0  0  0
  -53.9572  -41.7830  100.5671 O   0  0  0  0  0  0  0  0  0  0  0  0
  -52.7189  -44.5433  101.6768 C   0  0  0  0  0  0  0  0  0  0  0  0
  -51.3900  -44.2369  102.4050 C   0  0  1  0  0  0  0  0  0  0  0  0
  -51.3282  -42.8112  102.9458 C   0  0  0  0  0  0  0  0  0  0  0  0
  -51.0450  -45.2331  103.5093 C   0  0  0  0  0  0  0  0  0  0  0  0
  -53.0583  -41.2673  102.4756 N   0  0  0  0  0  0  0  0  0  0  0  0
  -52.5207  -41.0841  103.8584 C   0  0  2  0  0  0  0  0  0  0  0  0
  -51.9734  -39.6277  103.8074 C   0  0  0  0  0  0  0  0  0  0  0  0
  -51.1717  -39.3524  102.8924 O   0  0  0  0  0  0  0  0  0  0  0  0
  -51.3861  -42.1025  104.0368 C   0  0  0  0  0  0  0  0  0  0  0  0
  -50.7391  -42.7768  102.8259 C   0  0  1  0  0  0  0  0  0  0  0  0
  -51.5112  -43.9768  102.2930 C   0  0  0  0  0  0  0  0  0  0  0  0
  -50.4080  -41.7784  101.7317 C   0  0  0  0  0  0  0  0  0  0  0  0
  -52.8191  -38.7256  107.0146 C   0  0  0  0  0  0  0  0  0  0  0  0
  -52.2808  -38.5549  104.5721 N   0  0  0  0  0  0  0  0  0  0  0  0
  -53.1384  -38.2122  108.0890 O   0  0  0  0  0  0  0  0  0  0  0  0
  -53.1957  -38.0750  105.6525 C   0  0  1  0  0  0  0  0  0  0  0  0
  -54.6999  -38.3375  105.3653 C   0  0  0  0  0  0  0  0  0  0  0  0
  -57.1981  -37.8363  106.1437 C   0  0  0  0  0  0  0  0  0  0  0  0
  -57.8409  -37.4977  104.8303 C   0  0  0  0  0  0  0  0  0  0  0  0
  -55.6860  -37.5424  106.2614 C   0  0  0  0  0  0  0  0  0  0  0  0
  -52.9924  -36.5376  105.7269 C   0  0  0  0  0  0  0  0  0  0  0  0
  -52.1705  -39.9361  106.9822 N   0  0  0  0  0  0  0  0  0  0  0  0
  -51.6931  -40.5445  105.7368 C   0  0  2  0  0  0  0  0  0  0  0  0
  -50.7122  -41.6575  106.1651 C   0  0  0  0  0  0  0  0  0  0  0  0
  -50.0116  -42.2506  105.3453 O   0  0  0  0  0  0  0  0  0  0  0  0
  -51.0344  -39.4732  104.8660 C   0  0  0  0  0  0  0  0  0  0  0  0
  -49.9404  -39.9312  103.8892 C   0  0  1  0  0  0  0  0  0  0  0  0
  -49.7577  -41.4515  103.8937 C   0  0  0  0  0  0  0  0  0  0  0  0
  -50.3115  -39.4766  102.4702 C   0  0  0  0  0  0  0  0  0  0  0  0
  -50.6930  -41.9775  107.5060 N   0  0  0  0  0  0  0  0  0  0  0  0
  -49.9425  -43.1349  108.0038 C   0  0  2  0  0  0  0  0  0  0  0  0
  -48.8532  -43.6038  107.0002 C   0  0  0  0  0  0  0  0  0  0  0  0
  -49.1181  -44.1351  105.9229 O   0  0  0  0  0  0  0  0  0  0  0  0
  -50.8821  -44.3197  108.2950 C   0  0  0  0  0  0  0  0  0  0  0  0
  -50.1921  -45.5631  108.8641 C   0  0  0  0  0  0  0  0  0  0  0  0
  -51.1769  -46.3325  109.7567 C   0  0  0  0  0  0  0  0  0  0  0  0
  -51.8121  -47.5412  109.0846 C   0  0  0  0  0  0  0  0  0  0  0  0
  -52.8565  -48.1278  109.9550 N   0  0  0  0  0  4  0  0  0  0  0  0
  -47.5557  -43.5349  107.4269 N   0  0  0  0  0  0  0  0  0  0  0  0
  -53.6361  -40.9688  110.1544 H   0  0  0  0  0  0  0  0  0  0  0  0
  -62.9611  -42.6671   93.5290 H   0  0  0  0  0  0  0  0  0  0  0  0
  1  2  2  0
  1  3  1  0
  4  1  1  0
  5  4  1  0
  6  5  1  0
  5  8  1  1
  6  7  2  0
 15  6  1  0
  8  9  1  0
  9 10  1  0
 10 11  1  0
 11 12  1  0
 12 13  2  0
 12 14  1  0
 16 15  1  6
 17 16  1  0
 16 19  1  0
 17 18  2  0
 23 17  1  0
 19 20  1  0
 19 21  1  1
 20 22  1  0
 24 23  1  1
 25 24  1  0
 24 27  1  0
 25 26  2  0
 31 25  1  0
 27 28  1  0
 27 29  1  6
 28 30  1  0
 32 31  1  0
 33 32  1  0
 32 35  1  1
 33 34  2  0
 43 33  1  0
 35 36  1  0
 36 37  2  0
 36 38  1  0
 37 39  1  0
 38 40  2  0
 39 41  2  0
 40 41  1  0
 41 42  1  0
 44 43  1  0
 45 44  1  0
 44 47  1  1
 45 46  2  0
 49 45  1  0
 47 48  1  0
 50 49  1  0
 51 50  1  0
 50 53  1  6
 51 52  2  0
 61 51  1  0
 53 54  1  0
 54 55  1  0
 55 56  1  0
 56 57  1  0
 57 58  2  0
 57 59  1  0
 60 62  2  0
 60 63  1  0
 69 60  1  0
 63 61  1  0
 63 64  1  0
 63 68  1  6
 64 67  1  0
 65 66  1  0
 67 65  1  0
 66100  2  0
 70 69  1  0
 71 70  1  0
 70 73  1  6
 71 72  2  0
 78 71  1  0
 73 74  1  0
 74 75  1  0
 75 76  2  0
 75 77  1  0
 79 78  1  0
 80 79  1  0
 79 82  1  6
 80 81  2  0
 86 80  1  0
 82 83  1  0
 83 84  1  1
 83 85  1  0
 87 86  1  0
 88 87  1  0
 87 90  1  6
 88 89  2  0
 95 88  1  0
 90 91  1  0
 91 92  1  6
 91 93  1  0
 94 96  2  0
 97 94  1  0
 94103  1  0
 95 97  1  0
 97 98  1  0
 97102  1  1
 98101  1  0
100 99  1  0
 99101  1  0
103104  1  0
104105  1  0
104107  1  6
105106  2  0
105111  1  0
107108  1  0
108109  1  6
108110  1  0
111112  1  0
112113  1  0
112115  1  6
113114  2  0
113120  1  0
115116  1  0
116117  1  0
117118  1  0
118119  1  0
 13121  1  0
 58122  1  0
M  CHG  1 119   1
M  END
$$$$
