
     RDKit          3D

122123  0  0  0  0  0  0  0  0999 V2000
  -46.8700  -46.8735  106.4361 C   0  0  0  0  0  0  0  0  0  0  0  0
  -47.7971  -46.9871  107.2307 O   0  0  0  0  0  0  0  0  0  0  0  0
  -45.6450  -47.7380  106.5195 C   0  0  0  0  0  0  0  0  0  0  0  0
  -46.8610  -45.9477  105.4186 N   0  0  0  0  0  0  0  0  0  0  0  0
  -47.9775  -45.0220  105.2044 C   0  0  2  0  0  0  0  0  0  0  0  0
  -49.3029  -45.8330  105.0753 C   0  0  0  0  0  0  0  0  0  0  0  0
  -49.2852  -46.8672  104.4099 O   0  0  0  0  0  0  0  0  0  0  0  0
  -47.7064  -44.2490  103.8952 C   0  0  0  0  0  0  0  0  0  0  0  0
  -46.6348  -43.1601  103.9886 C   0  0  0  0  0  0  0  0  0  0  0  0
  -46.4529  -42.4715  102.6355 C   0  0  0  0  0  0  0  0  0  0  0  0
  -45.1196  -41.8886  102.5490 N   0  0  0  0  0  0  0  0  0  0  0  0
  -44.6040  -41.5763  101.3326 C   0  0  0  0  0  0  0  0  0  0  0  0
  -43.9054  -40.5336  101.0816 N   0  0  0  0  0  0  0  0  0  0  0  0
  -44.9313  -42.4950  100.3986 N   0  0  0  0  0  0  0  0  0  0  0  0
  -50.4800  -45.4361  105.6929 N   0  0  0  0  0  0  0  0  0  0  0  0
  -51.6556  -46.3419  105.7843 C   0  0  2  0  0  0  0  0  0  0  0  0
  -52.7296  -46.2829  104.6523 C   0  0  0  0  0  0  0  0  0  0  0  0
  -52.7889  -45.3344  103.8728 O   0  0  0  0  0  0  0  0  0  0  0  0
  -52.3859  -46.3011  107.1749 C   0  0  2  0  0  0  0  0  0  0  0  0
  -51.3717  -46.4957  108.3316 C   0  0  0  0  0  0  0  0  0  0  0  0
  -53.5459  -47.2816  107.3193 C   0  0  0  0  0  0  0  0  0  0  0  0
  -51.9737  -47.0654  109.6098 C   0  0  0  0  0  0  0  0  0  0  0  0
  -53.5021  -47.4064  104.4172 N   0  0  0  0  0  0  0  0  0  0  0  0
  -54.7810  -47.2004  103.7230 C   0  0  2  0  0  0  0  0  0  0  0  0
  -56.0280  -47.1276  104.6644 C   0  0  0  0  0  0  0  0  0  0  0  0
  -55.9649  -47.1615  105.8898 O   0  0  0  0  0  0  0  0  0  0  0  0
  -55.0594  -48.2110  102.5847 C   0  0  2  0  0  0  0  0  0  0  0  0
  -54.2798  -47.8884  101.2992 C   0  0  0  0  0  0  0  0  0  0  0  0
  -56.5620  -48.3280  102.3176 C   0  0  0  0  0  0  0  0  0  0  0  0
  -53.3574  -49.0147  100.8489 C   0  0  0  0  0  0  0  0  0  0  0  0
  -57.2319  -47.0911  103.9654 N   0  0  0  0  0  0  0  0  0  0  0  0
  -58.2090  -46.0128  104.2295 C   0  0  2  0  0  0  0  0  0  0  0  0
  -59.5464  -46.1990  103.4608 C   0  0  0  0  0  0  0  0  0  0  0  0
  -60.1028  -47.2889  103.3466 O   0  0  0  0  0  0  0  0  0  0  0  0
  -57.6367  -44.6158  103.8599 C   0  0  0  0  0  0  0  0  0  0  0  0
  -58.3856  -43.4316  104.4213 C   0  0  0  0  0  0  0  0  0  0  0  0
  -59.7269  -43.1978  104.1093 C   0  0  0  0  0  0  0  0  0  0  0  0
  -57.7289  -42.5685  105.3187 C   0  0  0  0  0  0  0  0  0  0  0  0
  -60.3946  -42.1159  104.6893 C   0  0  0  0  0  0  0  0  0  0  0  0
  -58.4061  -41.5000  105.9093 C   0  0  0  0  0  0  0  0  0  0  0  0
  -59.7417  -41.2868  105.5944 C   0  0  0  0  0  0  0  0  0  0  0  0
  -60.4511  -40.2725  106.1673 O   0  0  0  0  0  0  0  0  0  0  0  0
  -60.0430  -45.0701  102.8543 N   0  0  0  0  0  0  0  0  0  0  0  0
  -60.4668  -45.1226  101.4478 C   0  0  2  0  0  0  0  0  0  0  0  0
  -59.3692  -45.8088  100.6231 C   0  0  0  0  0  0  0  0  0  0  0  0
  -58.2975  -46.1447  101.1081 O   0  0  0  0  0  0  0  0  0  0  0  0
  -60.7358  -43.7236  100.8719 C   0  0  0  0  0  0  0  0  0  0  0  0
  -59.5521  -42.9318  100.8081 O   0  0  0  0  0  0  0  0  0  0  0  0
  -59.7149  -46.0577   99.3130 N   0  0  0  0  0  0  0  0  0  0  0  0
  -59.7449  -47.4056   98.7354 C   0  0  2  0  0  0  0  0  0  0  0  0
  -58.3551  -48.0669   98.8125 C   0  0  0  0  0  0  0  0  0  0  0  0
  -58.2135  -49.2681   99.0275 O   0  0  0  0  0  0  0  0  0  0  0  0
  -60.3036  -47.3756   97.3031 C   0  0  0  0  0  0  0  0  0  0  0  0
  -60.9538  -48.6935   96.8645 C   0  0  0  0  0  0  0  0  0  0  0  0
  -62.4784  -48.6114   96.9328 C   0  0  0  0  0  0  0  0  0  0  0  0
  -63.0542  -49.4455   95.8812 N   0  0  0  0  0  0  0  0  0  0  0  0
  -63.7940  -48.8792   94.8934 C   0  0  0  0  0  0  0  0  0  0  0  0
  -64.5442  -47.8538   95.0417 N   0  0  0  0  0  0  0  0  0  0  0  0
  -63.6322  -49.5318   93.7227 N   0  0  0  0  0  0  0  0  0  0  0  0
  -55.9336  -45.2986   99.3860 C   0  0  0  0  0  0  0  0  0  0  0  0
  -57.3063  -47.1795   98.7339 N   0  0  0  0  0  0  0  0  0  0  0  0
  -54.9504  -45.8067   98.8371 O   0  0  0  0  0  0  0  0  0  0  0  0
  -57.3984  -45.7179   98.9066 C   0  0  1  0  0  0  0  0  0  0  0  0
  -58.5397  -45.3429   99.8874 C   0  0  0  0  0  0  0  0  0  0  0  0
  -61.0926  -44.9419  100.3331 C   0  0  0  0  0  0  0  0  0  0  0  0
  -61.5960  -43.6031   99.8636 C   0  0  0  0  0  0  0  0  0  0  0  0
  -60.0022  -45.6113   99.4607 C   0  0  0  0  0  0  0  0  0  0  0  0
  -57.5495  -45.0119   97.5465 C   0  0  0  0  0  0  0  0  0  0  0  0
  -55.7788  -44.2334  100.2345 N   0  0  0  0  0  0  0  0  0  0  0  0
  -54.5148  -43.5213  100.5280 C   0  0  2  0  0  0  0  0  0  0  0  0
  -54.6494  -42.8932  101.9808 C   0  0  0  0  0  0  0  0  0  0  0  0
  -54.9713  -43.5884  102.9438 O   0  0  0  0  0  0  0  0  0  0  0  0
  -54.1986  -42.4803   99.4510 C   0  0  0  0  0  0  0  0  0  0  0  0
  -55.3788  -41.6191   98.9931 C   0  0  0  0  0  0  0  0  0  0  0  0
  -56.5753  -41.8073   99.8975 C   0  0  0  0  0  0  0  0  0  0  0  0
  -57.5806  -41.1056   99.8918 O   0  0  0  0  0  0  0  0  0  0  0  0
  -56.4599  -42.8581  100.7661 N   0  0  0  0  0  0  0  0  0  0  0  0
  -54.4710  -41.5322  102.1368 N   0  0  0  0  0  0  0  0  0  0  0  0
  -55.1296  -40.7305  103.2061 C   0  0  2  0  0  0  0  0  0  0  0  0
  -56.0944  -39.7932  102.4254 C   0  0  0  0  0  0  0  0  0  0  0  0
  -55.8226  -39.5073  101.2430 O   0  0  0  0  0  0  0  0  0  0  0  0
  -54.0642  -39.8811  103.9175 C   0  0  0  0  0  0  0  0  0  0  0  0
  -52.8935  -39.3461  103.0612 C   0  0  1  0  0  0  0  0  0  0  0  0
  -52.1043  -40.4596  102.3785 C   0  0  0  0  0  0  0  0  0  0  0  0
  -53.3062  -38.2911  102.0378 C   0  0  0  0  0  0  0  0  0  0  0  0
  -57.2153  -39.1900  102.8789 N   0  0  0  0  0  0  0  0  0  0  0  0
  -58.0855  -39.1307  104.0930 C   0  0  2  0  0  0  0  0  0  0  0  0
  -59.1608  -38.0856  103.6752 C   0  0  0  0  0  0  0  0  0  0  0  0
  -58.7521  -36.9796  103.2685 O   0  0  0  0  0  0  0  0  0  0  0  0
  -57.2143  -38.6080  105.2438 C   0  0  0  0  0  0  0  0  0  0  0  0
  -56.1645  -37.5221  105.0029 C   0  0  1  0  0  0  0  0  0  0  0  0
  -55.5795  -37.5203  103.5965 C   0  0  0  0  0  0  0  0  0  0  0  0
  -56.6646  -36.1497  105.4157 C   0  0  0  0  0  0  0  0  0  0  0  0
  -61.8421  -39.5611  105.2401 C   0  0  0  0  0  0  0  0  0  0  0  0
  -60.5074  -38.1995  103.6124 N   0  0  0  0  0  0  0  0  0  0  0  0
  -62.9658  -39.7370  105.7155 O   0  0  0  0  0  0  0  0  0  0  0  0
  -61.6364  -39.1699  103.7484 C   0  0  1  0  0  0  0  0  0  0  0  0
  -61.4587  -40.4634  102.9061 C   0  0  0  0  0  0  0  0  0  0  0  0
  -62.6414  -42.6812  102.0228 C   0  0  0  0  0  0  0  0  0  0  0  0
  -62.2467  -42.6545  100.5749 C   0  0  0  0  0  0  0  0  0  0  0  0
  -62.7462  -41.3110  102.7287 C   0  0  0  0  0  0  0  0  0  0  0  0
  -62.8947  -38.4318  103.2172 C   0  0  0  0  0  0  0  0  0  0  0  0
  -60.7186  -39.7710  106.0021 N   0  0  0  0  0  0  0  0  0  0  0  0
  -59.4305  -39.1383  105.7030 C   0  0  2  0  0  0  0  0  0  0  0  0
  -59.5467  -38.6195  104.2533 C   0  0  0  0  0  0  0  0  0  0  0  0
  -60.6391  -38.3815  103.7389 O   0  0  0  0  0  0  0  0  0  0  0  0
  -58.3068  -40.1608  105.8811 C   0  0  0  0  0  0  0  0  0  0  0  0
  -57.4046  -40.0110  107.1157 C   0  0  1  0  0  0  0  0  0  0  0  0
  -58.1828  -40.1644  108.4254 C   0  0  0  0  0  0  0  0  0  0  0  0
  -56.2999  -41.0763  107.0629 C   0  0  0  0  0  0  0  0  0  0  0  0
  -58.3665  -38.4759  103.5552 N   0  0  0  0  0  0  0  0  0  0  0  0
  -58.0802  -37.2637  102.7811 C   0  0  2  0  0  0  0  0  0  0  0  0
  -57.6067  -37.5875  101.3372 C   0  0  0  0  0  0  0  0  0  0  0  0
  -56.5371  -37.1905  100.8776 O   0  0  0  0  0  0  0  0  0  0  0  0
  -57.0000  -36.4096  103.4703 C   0  0  0  0  0  0  0  0  0  0  0  0
  -56.2898  -35.4086  102.5541 C   0  0  0  0  0  0  0  0  0  0  0  0
  -56.7496  -33.9840  102.8971 C   0  0  0  0  0  0  0  0  0  0  0  0
  -56.1334  -32.9034  102.0203 C   0  0  0  0  0  0  0  0  0  0  0  0
  -56.6455  -31.5689  102.4071 N   0  0  0  0  0  4  0  0  0  0  0  0
  -58.5047  -38.2243  100.5257 N   0  0  0  0  0  0  0  0  0  0  0  0
  -43.1230  -40.7657  100.4689 H   0  0  0  0  0  0  0  0  0  0  0  0
  -64.2174  -47.2751   95.8168 H   0  0  0  0  0  0  0  0  0  0  0  0
  1  2  2  0
  1  3  1  0
  4  1  1  0
  5  4  1  0
  6  5  1  0
  5  8  1  6
  6  7  2  0
 15  6  1  0
  8  9  1  0
  9 10  1  0
 10 11  1  0
 11 12  1  0
 12 13  2  0
 12 14  1  0
 16 15  1  6
 17 16  1  0
 16 19  1  0
 17 18  2  0
 23 17  1  0
 19 20  1  0
 19 21  1  6
 20 22  1  0
 24 23  1  1
 25 24  1  0
 24 27  1  0
 25 26  2  0
 31 25  1  0
 27 28  1  0
 27 29  1  6
 28 30  1  0
 32 31  1  0
 33 32  1  0
 32 35  1  6
 33 34  2  0
 43 33  1  0
 35 36  1  0
 36 37  2  0
 36 38  1  0
 37 39  1  0
 38 40  2  0
 39 41  2  0
 40 41  1  0
 41 42  1  0
 44 43  1  0
 45 44  1  0
 44 47  1  6
 45 46  2  0
 49 45  1  0
 47 48  1  0
 50 49  1  0
 51 50  1  0
 50 53  1  6
 51 52  2  0
 61 51  1  0
 53 54  1  0
 54 55  1  0
 55 56  1  0
 56 57  1  0
 57 58  2  0
 57 59  1  0
 60 62  2  0
 60 63  1  0
 69 60  1  0
 63 61  1  0
 63 64  1  0
 63 68  1  6
 64 67  1  0
 65 66  1  0
 67 65  1  0
 66100  2  0
 70 69  1  0
 71 70  1  0
 70 73  1  6
 71 72  2  0
 78 71  1  0
 73 74  1  0
 74 75  1  0
 75 76  2  0
 75 77  1  0
 79 78  1  0
 80 79  1  0
 79 82  1  6
 80 81  2  0
 86 80  1  0
 82 83  1  0
 83 84  1  6
 83 85  1  0
 87 86  1  0
 88 87  1  0
 87 90  1  1
 88 89  2  0
 95 88  1  0
 90 91  1  0
 91 92  1  6
 91 93  1  0
 94 96  2  0
 97 94  1  0
 94103  1  0
 95 97  1  0
 97 98  1  0
 97102  1  6
 98101  1  0
100 99  1  0
 99101  1  0
103104  1  0
104105  1  0
104107  1  6
105106  2  0
105111  1  0
107108  1  0
108109  1  1
108110  1  0
111112  1  0
112113  1  0
112115  1  1
113114  2  0
113120  1  0
115116  1  0
116117  1  0
117118  1  0
118119  1  0
 13121  1  0
 58122  1  0
M  CHG  1 119   1
M  END
$$$$
