
     RDKit          3D

122123  0  0  0  0  0  0  0  0999 V2000
  -56.2517  -54.4164   97.0667 C   0  0  0  0  0  0  0  0  0  0  0  0
  -57.4174  -54.3520   96.6915 O   0  0  0  0  0  0  0  0  0  0  0  0
  -55.1069  -54.4366   96.0952 C   0  0  0  0  0  0  0  0  0  0  0  0
  -55.8915  -54.4890   98.3925 N   0  0  0  0  0  0  0  0  0  0  0  0
  -56.7169  -53.9018   99.4521 C   0  0  2  0  0  0  0  0  0  0  0  0
  -57.0068  -52.4078   99.1126 C   0  0  0  0  0  0  0  0  0  0  0  0
  -56.0518  -51.6792   98.8490 O   0  0  0  0  0  0  0  0  0  0  0  0
  -55.9249  -53.9944  100.7746 C   0  0  0  0  0  0  0  0  0  0  0  0
  -56.5849  -53.3218  101.9807 C   0  0  0  0  0  0  0  0  0  0  0  0
  -57.2101  -54.3701  102.9018 C   0  0  0  0  0  0  0  0  0  0  0  0
  -56.1633  -55.1509  103.5497 N   0  0  0  0  0  0  0  0  0  0  0  0
  -56.3461  -55.5890  104.8215 C   0  0  0  0  0  0  0  0  0  0  0  0
  -55.4787  -55.4947  105.7580 N   0  0  0  0  0  0  0  0  0  0  0  0
  -57.5586  -56.1603  104.9855 N   0  0  0  0  0  0  0  0  0  0  0  0
  -58.2929  -51.8884   99.0841 N   0  0  0  0  0  0  0  0  0  0  0  0
  -58.5412  -50.4224   99.0894 C   0  0  2  0  0  0  0  0  0  0  0  0
  -58.2571  -49.6247  100.4014 C   0  0  0  0  0  0  0  0  0  0  0  0
  -57.9165  -50.1929  101.4368 O   0  0  0  0  0  0  0  0  0  0  0  0
  -59.9582  -50.0134   98.5474 C   0  0  2  0  0  0  0  0  0  0  0  0
  -60.1141  -48.4707   98.5328 C   0  0  0  0  0  0  0  0  0  0  0  0
  -61.1341  -50.6559   99.2769 C   0  0  0  0  0  0  0  0  0  0  0  0
  -60.9878  -47.9139   99.6497 C   0  0  0  0  0  0  0  0  0  0  0  0
  -58.2119  -48.2434  100.3366 N   0  0  0  0  0  0  0  0  0  0  0  0
  -57.2916  -47.5644  101.2595 C   0  0  2  0  0  0  0  0  0  0  0  0
  -57.8882  -46.2998  101.9602 C   0  0  0  0  0  0  0  0  0  0  0  0
  -59.0904  -46.1026  102.1114 O   0  0  0  0  0  0  0  0  0  0  0  0
  -55.9185  -47.2057  100.6425 C   0  0  2  0  0  0  0  0  0  0  0  0
  -54.8317  -46.9729  101.7051 C   0  0  0  0  0  0  0  0  0  0  0  0
  -56.0444  -46.0106   99.6945 C   0  0  0  0  0  0  0  0  0  0  0  0
  -54.8920  -45.5906  102.3434 C   0  0  0  0  0  0  0  0  0  0  0  0
  -56.9133  -45.3789  102.3357 N   0  0  0  0  0  0  0  0  0  0  0  0
  -57.3077  -44.0331  102.8051 C   0  0  2  0  0  0  0  0  0  0  0  0
  -57.0997  -42.9274  101.7334 C   0  0  0  0  0  0  0  0  0  0  0  0
  -56.1582  -42.9341  100.9436 O   0  0  0  0  0  0  0  0  0  0  0  0
  -56.5218  -43.6161  104.0796 C   0  0  0  0  0  0  0  0  0  0  0  0
  -56.2831  -44.7118  105.0900 C   0  0  0  0  0  0  0  0  0  0  0  0
  -56.8001  -45.9972  104.9128 C   0  0  0  0  0  0  0  0  0  0  0  0
  -55.4801  -44.4436  106.2146 C   0  0  0  0  0  0  0  0  0  0  0  0
  -56.5145  -46.9939  105.8499 C   0  0  0  0  0  0  0  0  0  0  0  0
  -55.1830  -45.4479  107.1377 C   0  0  0  0  0  0  0  0  0  0  0  0
  -55.6984  -46.7224  106.9422 C   0  0  0  0  0  0  0  0  0  0  0  0
  -55.4126  -47.7415  107.8025 O   0  0  0  0  0  0  0  0  0  0  0  0
  -58.0065  -41.8951  101.7639 N   0  0  0  0  0  0  0  0  0  0  0  0
  -58.5829  -41.3916  100.5089 C   0  0  2  0  0  0  0  0  0  0  0  0
  -60.0770  -41.7407  100.4727 C   0  0  0  0  0  0  0  0  0  0  0  0
  -60.8492  -41.4122  101.3630 O   0  0  0  0  0  0  0  0  0  0  0  0
  -57.8910  -41.9889   99.2738 C   0  0  0  0  0  0  0  0  0  0  0  0
  -58.3658  -41.4114   98.0598 O   0  0  0  0  0  0  0  0  0  0  0  0
  -60.4776  -42.4050   99.3343 N   0  0  0  0  0  0  0  0  0  0  0  0
  -61.8407  -42.3247   98.7985 C   0  0  2  0  0  0  0  0  0  0  0  0
  -62.7510  -43.3818   99.4532 C   0  0  0  0  0  0  0  0  0  0  0  0
  -63.9337  -43.5071   99.1455 O   0  0  0  0  0  0  0  0  0  0  0  0
  -61.8329  -42.4238   97.2641 C   0  0  0  0  0  0  0  0  0  0  0  0
  -62.8161  -41.4682   96.5770 C   0  0  0  0  0  0  0  0  0  0  0  0
  -62.7258  -41.5768   95.0551 C   0  0  0  0  0  0  0  0  0  0  0  0
  -62.8821  -42.9744   94.6610 N   0  0  0  0  0  0  0  0  0  0  0  0
  -63.9300  -43.3477   93.8823 C   0  0  0  0  0  0  0  0  0  0  0  0
  -64.9065  -44.0749   94.2747 N   0  0  0  0  0  0  0  0  0  0  0  0
  -63.8184  -42.8453   92.6342 N   0  0  0  0  0  0  0  0  0  0  0  0
  -60.9703  -42.0260  100.9545 C   0  0  0  0  0  0  0  0  0  0  0  0
  -62.1534  -44.0801  100.4773 N   0  0  0  0  0  0  0  0  0  0  0  0
  -61.9671  -41.3633  100.6489 O   0  0  0  0  0  0  0  0  0  0  0  0
  -61.1542  -43.5430  101.4194 C   0  0  1  0  0  0  0  0  0  0  0  0
  -59.8577  -44.3937  101.4025 C   0  0  0  0  0  0  0  0  0  0  0  0
  -58.5470  -46.5271  102.1823 C   0  0  0  0  0  0  0  0  0  0  0  0
  -57.9908  -46.4312  103.5778 C   0  0  0  0  0  0  0  0  0  0  0  0
  -59.9151  -45.8437  101.9386 C   0  0  0  0  0  0  0  0  0  0  0  0
  -61.7453  -43.4178  102.8358 C   0  0  0  0  0  0  0  0  0  0  0  0
  -59.7533  -41.4145  101.1080 N   0  0  0  0  0  0  0  0  0  0  0  0
  -59.4851  -39.9608  101.0298 C   0  0  2  0  0  0  0  0  0  0  0  0
  -57.9733  -39.7801  100.5770 C   0  0  0  0  0  0  0  0  0  0  0  0
  -57.5429  -40.3398   99.5691 O   0  0  0  0  0  0  0  0  0  0  0  0
  -59.8023  -39.2635  102.3552 C   0  0  0  0  0  0  0  0  0  0  0  0
  -60.8890  -39.9227  103.2088 C   0  0  0  0  0  0  0  0  0  0  0  0
  -60.5102  -41.3391  103.5765 C   0  0  0  0  0  0  0  0  0  0  0  0
  -59.3773  -41.7165  103.8538 O   0  0  0  0  0  0  0  0  0  0  0  0
  -61.5604  -42.2162  103.5783 N   0  0  0  0  0  0  0  0  0  0  0  0
  -57.1230  -39.0406  101.3762 N   0  0  0  0  0  0  0  0  0  0  0  0
  -55.6531  -39.2717  101.4530 C   0  0  2  0  0  0  0  0  0  0  0  0
  -55.4322  -39.7714  102.9092 C   0  0  0  0  0  0  0  0  0  0  0  0
  -56.2513  -39.4354  103.7866 O   0  0  0  0  0  0  0  0  0  0  0  0
  -54.9287  -37.9292  101.2634 C   0  0  0  0  0  0  0  0  0  0  0  0
  -55.7858  -36.7115  100.8479 C   0  0  1  0  0  0  0  0  0  0  0  0
  -56.4400  -36.8889   99.4806 C   0  0  0  0  0  0  0  0  0  0  0  0
  -56.8331  -36.3091  101.8832 C   0  0  0  0  0  0  0  0  0  0  0  0
  -54.4139  -40.5212  103.3851 N   0  0  0  0  0  0  0  0  0  0  0  0
  -53.1988  -41.2533  102.9134 C   0  0  2  0  0  0  0  0  0  0  0  0
  -52.6063  -41.7984  104.2457 C   0  0  0  0  0  0  0  0  0  0  0  0
  -52.3999  -40.9722  105.1572 O   0  0  0  0  0  0  0  0  0  0  0  0
  -52.2699  -40.2133  102.2718 C   0  0  0  0  0  0  0  0  0  0  0  0
  -52.7509  -38.7846  102.0132 C   0  0  1  0  0  0  0  0  0  0  0  0
  -54.2588  -38.6552  101.8406 C   0  0  0  0  0  0  0  0  0  0  0  0
  -52.2076  -37.8094  103.0417 C   0  0  0  0  0  0  0  0  0  0  0  0
  -51.4811  -44.8098  103.0293 C   0  0  0  0  0  0  0  0  0  0  0  0
  -52.3301  -43.0686  104.6205 N   0  0  0  0  0  0  0  0  0  0  0  0
  -51.5353  -45.8717  102.4055 O   0  0  0  0  0  0  0  0  0  0  0  0
  -52.4571  -44.4974  104.1999 C   0  0  1  0  0  0  0  0  0  0  0  0
  -53.8969  -44.9037  103.7800 C   0  0  0  0  0  0  0  0  0  0  0  0
  -55.5057  -46.9337  103.1569 C   0  0  0  0  0  0  0  0  0  0  0  0
  -56.7126  -46.6026  103.9855 C   0  0  0  0  0  0  0  0  0  0  0  0
  -54.1474  -46.4327  103.6958 C   0  0  0  0  0  0  0  0  0  0  0  0
  -52.0750  -45.3407  105.4461 C   0  0  0  0  0  0  0  0  0  0  0  0
  -50.5911  -43.8287  102.6658 N   0  0  0  0  0  0  0  0  0  0  0  0
  -50.4373  -42.5813  103.4204 C   0  0  2  0  0  0  0  0  0  0  0  0
  -51.8414  -41.9398  103.4574 C   0  0  0  0  0  0  0  0  0  0  0  0
  -52.8004  -42.5156  103.9708 O   0  0  0  0  0  0  0  0  0  0  0  0
  -49.3960  -41.6955  102.7342 C   0  0  0  0  0  0  0  0  0  0  0  0
  -48.8775  -42.1491  101.3608 C   0  0  1  0  0  0  0  0  0  0  0  0
  -50.0146  -42.5179  100.4039 C   0  0  0  0  0  0  0  0  0  0  0  0
  -48.0476  -41.0171  100.7382 C   0  0  0  0  0  0  0  0  0  0  0  0
  -51.9711  -40.7087  102.8505 N   0  0  0  0  0  0  0  0  0  0  0  0
  -52.3532  -39.5173  103.6154 C   0  0  2  0  0  0  0  0  0  0  0  0
  -53.5283  -38.7464  102.9530 C   0  0  0  0  0  0  0  0  0  0  0  0
  -54.0898  -37.7915  103.4877 O   0  0  0  0  0  0  0  0  0  0  0  0
  -51.1619  -38.5539  103.7707 C   0  0  0  0  0  0  0  0  0  0  0  0
  -50.6478  -38.3923  105.2043 C   0  0  0  0  0  0  0  0  0  0  0  0
  -50.5338  -36.8986  105.5428 C   0  0  0  0  0  0  0  0  0  0  0  0
  -50.1261  -36.6161  106.9816 C   0  0  0  0  0  0  0  0  0  0  0  0
  -50.8888  -35.4666  107.5193 N   0  0  0  0  0  4  0  0  0  0  0  0
  -54.0246  -39.2667  101.7896 N   0  0  0  0  0  0  0  0  0  0  0  0
  -54.6934  -56.1224  105.5833 H   0  0  0  0  0  0  0  0  0  0  0  0
  -64.5860  -45.0154   94.5096 H   0  0  0  0  0  0  0  0  0  0  0  0
  1  2  2  0
  1  3  1  0
  4  1  1  0
  5  4  1  0
  6  5  1  0
  5  8  1  1
  6  7  2  0
 15  6  1  0
  8  9  1  0
  9 10  1  0
 10 11  1  0
 11 12  1  0
 12 13  2  0
 12 14  1  0
 16 15  1  1
 17 16  1  0
 16 19  1  0
 17 18  2  0
 23 17  1  0
 19 20  1  0
 19 21  1  1
 20 22  1  0
 24 23  1  6
 25 24  1  0
 24 27  1  0
 25 26  2  0
 31 25  1  0
 27 28  1  0
 27 29  1  1
 28 30  1  0
 32 31  1  0
 33 32  1  0
 32 35  1  1
 33 34  2  0
 43 33  1  0
 35 36  1  0
 36 37  2  0
 36 38  1  0
 37 39  1  0
 38 40  2  0
 39 41  2  0
 40 41  1  0
 41 42  1  0
 44 43  1  0
 45 44  1  0
 44 47  1  6
 45 46  2  0
 49 45  1  0
 47 48  1  0
 50 49  1  0
 51 50  1  0
 50 53  1  6
 51 52  2  0
 61 51  1  0
 53 54  1  0
 54 55  1  0
 55 56  1  0
 56 57  1  0
 57 58  2  0
 57 59  1  0
 60 62  2  0
 60 63  1  0
 69 60  1  0
 63 61  1  0
 63 64  1  0
 63 68  1  1
 64 67  1  0
 65 66  1  0
 67 65  1  0
 66100  2  0
 70 69  1  0
 71 70  1  0
 70 73  1  1
 71 72  2  0
 78 71  1  0
 73 74  1  0
 74 75  1  0
 75 76  2  0
 75 77  1  0
 79 78  1  0
 80 79  1  0
 79 82  1  1
 80 81  2  0
 86 80  1  0
 82 83  1  0
 83 84  1  6
 83 85  1  0
 87 86  1  0
 88 87  1  0
 87 90  1  1
 88 89  2  0
 95 88  1  0
 90 91  1  0
 91 92  1  1
 91 93  1  0
 94 96  2  0
 97 94  1  0
 94103  1  0
 95 97  1  0
 97 98  1  0
 97102  1  1
 98101  1  0
100 99  1  0
 99101  1  0
103104  1  0
104105  1  0
104107  1  6
105106  2  0
105111  1  0
107108  1  0
108109  1  6
108110  1  0
111112  1  0
112113  1  0
112115  1  6
113114  2  0
113120  1  0
115116  1  0
116117  1  0
117118  1  0
118119  1  0
 13121  1  0
 58122  1  0
M  CHG  1 119   1
M  END
$$$$
