
     RDKit          3D

122123  0  0  0  0  0  0  0  0999 V2000
  -44.0852  -39.0078  106.8710 C   0  0  0  0  0  0  0  0  0  0  0  0
  -44.4291  -39.4638  107.9562 O   0  0  0  0  0  0  0  0  0  0  0  0
  -43.0617  -39.6935  106.0124 C   0  0  0  0  0  0  0  0  0  0  0  0
  -44.5878  -37.8360  106.3543 N   0  0  0  0  0  0  0  0  0  0  0  0
  -44.0416  -37.2301  105.1363 C   0  0  2  0  0  0  0  0  0  0  0  0
  -44.7274  -37.8686  103.8899 C   0  0  0  0  0  0  0  0  0  0  0  0
  -44.6090  -37.2956  102.8082 O   0  0  0  0  0  0  0  0  0  0  0  0
  -42.5246  -37.5175  105.1044 C   0  0  0  0  0  0  0  0  0  0  0  0
  -41.6999  -36.7965  106.1734 C   0  0  0  0  0  0  0  0  0  0  0  0
  -40.3884  -36.2813  105.5796 C   0  0  0  0  0  0  0  0  0  0  0  0
  -39.3053  -37.2074  105.8869 N   0  0  0  0  0  0  0  0  0  0  0  0
  -38.0318  -36.8841  105.5449 C   0  0  0  0  0  0  0  0  0  0  0  0
  -37.6292  -35.7023  105.2631 N   0  0  0  0  0  0  0  0  0  0  0  0
  -37.2291  -37.9696  105.5180 N   0  0  0  0  0  0  0  0  0  0  0  0
  -45.4432  -39.0548  103.9619 N   0  0  0  0  0  0  0  0  0  0  0  0
  -46.7775  -39.1995  103.3220 C   0  0  2  0  0  0  0  0  0  0  0  0
  -48.0431  -38.7915  104.1406 C   0  0  0  0  0  0  0  0  0  0  0  0
  -47.9491  -38.2305  105.2302 O   0  0  0  0  0  0  0  0  0  0  0  0
  -47.0267  -40.6111  102.6783 C   0  0  2  0  0  0  0  0  0  0  0  0
  -45.9056  -40.9556  101.6640 C   0  0  0  0  0  0  0  0  0  0  0  0
  -48.3969  -40.7880  102.0309 C   0  0  0  0  0  0  0  0  0  0  0  0
  -45.6688  -42.4476  101.4675 C   0  0  0  0  0  0  0  0  0  0  0  0
  -49.2830  -38.9017  103.5364 N   0  0  0  0  0  0  0  0  0  0  0  0
  -50.4583  -38.6352  104.3775 C   0  0  2  0  0  0  0  0  0  0  0  0
  -51.3922  -39.8698  104.6007 C   0  0  0  0  0  0  0  0  0  0  0  0
  -52.2018  -40.2759  103.7721 O   0  0  0  0  0  0  0  0  0  0  0  0
  -51.3102  -37.4272  103.9195 C   0  0  2  0  0  0  0  0  0  0  0  0
  -50.5013  -36.1214  103.8499 C   0  0  0  0  0  0  0  0  0  0  0  0
  -52.5527  -37.2737  104.8002 C   0  0  0  0  0  0  0  0  0  0  0  0
  -51.3228  -34.9211  103.3956 C   0  0  0  0  0  0  0  0  0  0  0  0
  -51.2618  -40.4239  105.8716 N   0  0  0  0  0  0  0  0  0  0  0  0
  -51.9587  -41.6851  106.2046 C   0  0  2  0  0  0  0  0  0  0  0  0
  -53.5045  -41.5776  106.0889 C   0  0  0  0  0  0  0  0  0  0  0  0
  -54.1674  -42.2907  105.3390 O   0  0  0  0  0  0  0  0  0  0  0  0
  -51.6202  -42.1659  107.6434 C   0  0  0  0  0  0  0  0  0  0  0  0
  -52.3337  -43.4145  108.1018 C   0  0  0  0  0  0  0  0  0  0  0  0
  -53.4231  -43.3575  108.9742 C   0  0  0  0  0  0  0  0  0  0  0  0
  -51.9205  -44.6631  107.6002 C   0  0  0  0  0  0  0  0  0  0  0  0
  -54.0839  -44.5347  109.3351 C   0  0  0  0  0  0  0  0  0  0  0  0
  -52.5958  -45.8339  107.9497 C   0  0  0  0  0  0  0  0  0  0  0  0
  -53.6819  -45.7584  108.8116 C   0  0  0  0  0  0  0  0  0  0  0  0
  -54.3888  -46.8718  109.1593 O   0  0  0  0  0  0  0  0  0  0  0  0
  -54.0864  -40.5820  106.8365 N   0  0  0  0  0  0  0  0  0  0  0  0
  -55.5409  -40.3784  106.7763 C   0  0  2  0  0  0  0  0  0  0  0  0
  -55.9499  -40.1418  105.3161 C   0  0  0  0  0  0  0  0  0  0  0  0
  -55.1408  -40.1515  104.3984 O   0  0  0  0  0  0  0  0  0  0  0  0
  -55.9940  -39.1845  107.6310 C   0  0  0  0  0  0  0  0  0  0  0  0
  -55.3390  -37.9752  107.2554 O   0  0  0  0  0  0  0  0  0  0  0  0
  -57.3035  -39.9710  105.1259 N   0  0  0  0  0  0  0  0  0  0  0  0
  -58.1286  -40.9095  104.3578 C   0  0  2  0  0  0  0  0  0  0  0  0
  -59.5886  -40.4223  104.2824 C   0  0  0  0  0  0  0  0  0  0  0  0
  -60.0478  -39.6070  105.0784 O   0  0  0  0  0  0  0  0  0  0  0  0
  -58.0121  -42.3335  104.9263 C   0  0  0  0  0  0  0  0  0  0  0  0
  -58.6095  -42.4905  106.3300 C   0  0  0  0  0  0  0  0  0  0  0  0
  -58.4030  -43.9064  106.8673 C   0  0  0  0  0  0  0  0  0  0  0  0
  -58.9724  -44.0012  108.2089 N   0  0  0  0  0  0  0  0  0  0  0  0
  -58.9235  -45.1770  108.8863 C   0  0  0  0  0  0  0  0  0  0  0  0
  -59.1401  -45.3046  110.1406 N   0  0  0  0  0  0  0  0  0  0  0  0
  -58.6242  -46.2055  108.0647 N   0  0  0  0  0  0  0  0  0  0  0  0
  -58.9854  -43.0620  103.3376 C   0  0  0  0  0  0  0  0  0  0  0  0
  -60.3453  -41.0625  103.3278 N   0  0  0  0  0  0  0  0  0  0  0  0
  -58.2684  -42.5881  104.2250 O   0  0  0  0  0  0  0  0  0  0  0  0
  -60.4795  -42.5226  103.1703 C   0  0  1  0  0  0  0  0  0  0  0  0
  -61.1558  -42.8783  101.8208 C   0  0  0  0  0  0  0  0  0  0  0  0
  -63.3366  -43.1385  100.3879 C   0  0  0  0  0  0  0  0  0  0  0  0
  -64.0944  -44.4131  100.6471 C   0  0  0  0  0  0  0  0  0  0  0  0
  -62.6389  -42.4923  101.6102 C   0  0  0  0  0  0  0  0  0  0  0  0
  -61.2228  -43.1390  104.3698 C   0  0  0  0  0  0  0  0  0  0  0  0
  -58.5900  -44.1815  102.6528 N   0  0  0  0  0  0  0  0  0  0  0  0
  -57.3778  -44.9892  102.9160 C   0  0  2  0  0  0  0  0  0  0  0  0
  -56.9670  -45.6887  101.5502 C   0  0  0  0  0  0  0  0  0  0  0  0
  -56.8157  -45.0300  100.5218 O   0  0  0  0  0  0  0  0  0  0  0  0
  -57.6085  -45.9855  104.0550 C   0  0  0  0  0  0  0  0  0  0  0  0
  -59.0079  -46.6027  104.1240 C   0  0  0  0  0  0  0  0  0  0  0  0
  -59.4925  -47.0117  102.7519 C   0  0  0  0  0  0  0  0  0  0  0  0
  -59.9401  -48.1157  102.4623 O   0  0  0  0  0  0  0  0  0  0  0  0
  -59.3936  -46.0267  101.8073 N   0  0  0  0  0  0  0  0  0  0  0  0
  -56.8531  -47.0650  101.5152 N   0  0  0  0  0  0  0  0  0  0  0  0
  -57.0886  -47.8820  100.2917 C   0  0  2  0  0  0  0  0  0  0  0  0
  -58.3594  -48.7093  100.6376 C   0  0  0  0  0  0  0  0  0  0  0  0
  -58.6111  -48.9445  101.8354 O   0  0  0  0  0  0  0  0  0  0  0  0
  -55.9005  -48.8374  100.0961 C   0  0  0  0  0  0  0  0  0  0  0  0
  -54.4800  -48.2395  100.2178 C   0  0  1  0  0  0  0  0  0  0  0  0
  -54.4385  -46.7471   99.9014 C   0  0  0  0  0  0  0  0  0  0  0  0
  -53.8068  -48.5108  101.5608 C   0  0  0  0  0  0  0  0  0  0  0  0
  -59.2481  -49.2637   99.7839 N   0  0  0  0  0  0  0  0  0  0  0  0
  -59.5575  -49.3356   98.3231 C   0  0  2  0  0  0  0  0  0  0  0  0
  -60.7917  -50.2837   98.2954 C   0  0  0  0  0  0  0  0  0  0  0  0
  -60.6735  -51.3890   98.8614 O   0  0  0  0  0  0  0  0  0  0  0  0
  -58.3427  -49.9778   97.6388 C   0  0  0  0  0  0  0  0  0  0  0  0
  -56.9996  -50.0848   98.3627 C   0  0  1  0  0  0  0  0  0  0  0  0
  -55.9181  -49.1649   97.8111 C   0  0  0  0  0  0  0  0  0  0  0  0
  -57.1544  -49.9476   99.8664 C   0  0  0  0  0  0  0  0  0  0  0  0
  -62.4850  -48.7296   95.7395 C   0  0  0  0  0  0  0  0  0  0  0  0
  -62.0353  -50.0798   97.8034 N   0  0  0  0  0  0  0  0  0  0  0  0
  -62.8011  -47.6775   95.1801 O   0  0  0  0  0  0  0  0  0  0  0  0
  -62.9303  -49.0480   97.1959 C   0  0  1  0  0  0  0  0  0  0  0  0
  -63.0014  -47.7229   98.0042 C   0  0  0  0  0  0  0  0  0  0  0  0
  -64.2536  -45.3868   98.2740 C   0  0  0  0  0  0  0  0  0  0  0  0
  -64.4789  -45.3567   99.7577 C   0  0  0  0  0  0  0  0  0  0  0  0
  -64.1771  -46.7852   97.6219 C   0  0  0  0  0  0  0  0  0  0  0  0
  -64.3518  -49.6720   97.1896 C   0  0  0  0  0  0  0  0  0  0  0  0
  -61.6656  -49.6369   95.1135 N   0  0  0  0  0  0  0  0  0  0  0  0
  -61.7293  -51.0768   95.3815 C   0  0  2  0  0  0  0  0  0  0  0  0
  -60.5144  -51.3881   96.2825 C   0  0  0  0  0  0  0  0  0  0  0  0
  -59.8820  -52.4381   96.1726 O   0  0  0  0  0  0  0  0  0  0  0  0
  -61.7010  -51.8434   94.0581 C   0  0  0  0  0  0  0  0  0  0  0  0
  -61.6523  -51.0168   92.7639 C   0  0  1  0  0  0  0  0  0  0  0  0
  -61.5501  -51.8980   91.5159 C   0  0  0  0  0  0  0  0  0  0  0  0
  -62.9224  -50.1591   92.6675 C   0  0  0  0  0  0  0  0  0  0  0  0
  -60.2022  -50.4468   97.2402 N   0  0  0  0  0  0  0  0  0  0  0  0
  -59.9360  -50.8315   98.6301 C   0  0  2  0  0  0  0  0  0  0  0  0
  -58.4701  -51.3024   98.8383 C   0  0  0  0  0  0  0  0  0  0  0  0
  -58.0003  -51.5628   99.9448 O   0  0  0  0  0  0  0  0  0  0  0  0
  -60.8812  -51.9599   99.0824 C   0  0  0  0  0  0  0  0  0  0  0  0
  -60.3667  -52.7983  100.2563 C   0  0  0  0  0  0  0  0  0  0  0  0
  -59.0701  -52.1794  100.7990 C   0  0  0  0  0  0  0  0  0  0  0  0
  -59.0052  -52.1031  102.3176 C   0  0  0  0  0  0  0  0  0  0  0  0
  -57.7946  -51.3668  102.7473 N   0  0  0  0  0  4  0  0  0  0  0  0
  -57.6568  -51.2802   97.7389 N   0  0  0  0  0  0  0  0  0  0  0  0
  -38.4223  -35.0910  105.0667 H   0  0  0  0  0  0  0  0  0  0  0  0
  -60.1405  -45.2653  110.3411 H   0  0  0  0  0  0  0  0  0  0  0  0
  1  2  2  0
  1  3  1  0
  4  1  1  0
  5  4  1  0
  6  5  1  0
  5  8  1  6
  6  7  2  0
 15  6  1  0
  8  9  1  0
  9 10  1  0
 10 11  1  0
 11 12  1  0
 12 13  2  0
 12 14  1  0
 16 15  1  1
 17 16  1  0
 16 19  1  0
 17 18  2  0
 23 17  1  0
 19 20  1  0
 19 21  1  6
 20 22  1  0
 24 23  1  6
 25 24  1  0
 24 27  1  0
 25 26  2  0
 31 25  1  0
 27 28  1  0
 27 29  1  1
 28 30  1  0
 32 31  1  0
 33 32  1  0
 32 35  1  1
 33 34  2  0
 43 33  1  0
 35 36  1  0
 36 37  2  0
 36 38  1  0
 37 39  1  0
 38 40  2  0
 39 41  2  0
 40 41  1  0
 41 42  1  0
 44 43  1  0
 45 44  1  0
 44 47  1  1
 45 46  2  0
 49 45  1  0
 47 48  1  0
 50 49  1  0
 51 50  1  0
 50 53  1  1
 51 52  2  0
 61 51  1  0
 53 54  1  0
 54 55  1  0
 55 56  1  0
 56 57  1  0
 57 58  2  0
 57 59  1  0
 60 62  2  0
 60 63  1  0
 69 60  1  0
 63 61  1  0
 63 64  1  0
 63 68  1  1
 64 67  1  0
 65 66  1  0
 67 65  1  0
 66100  2  0
 70 69  1  0
 71 70  1  0
 70 73  1  1
 71 72  2  0
 78 71  1  0
 73 74  1  0
 74 75  1  0
 75 76  2  0
 75 77  1  0
 79 78  1  0
 80 79  1  0
 79 82  1  1
 80 81  2  0
 86 80  1  0
 82 83  1  0
 83 84  1  1
 83 85  1  0
 87 86  1  0
 88 87  1  0
 87 90  1  6
 88 89  2  0
 95 88  1  0
 90 91  1  0
 91 92  1  6
 91 93  1  0
 94 96  2  0
 97 94  1  0
 94103  1  0
 95 97  1  0
 97 98  1  0
 97102  1  6
 98101  1  0
100 99  1  0
 99101  1  0
103104  1  0
104105  1  0
104107  1  6
105106  2  0
105111  1  0
107108  1  0
108109  1  6
108110  1  0
111112  1  0
112113  1  0
112115  1  6
113114  2  0
113120  1  0
115116  1  0
116117  1  0
117118  1  0
118119  1  0
 13121  1  0
 58122  1  0
M  CHG  1 119   1
M  END
$$$$
