
     RDKit          3D

122123  0  0  0  0  0  0  0  0999 V2000
  -54.1092  -53.2318  108.3064 C   0  0  0  0  0  0  0  0  0  0  0  0
  -54.5133  -54.1375  107.5852 O   0  0  0  0  0  0  0  0  0  0  0  0
  -52.7130  -53.2225  108.8591 C   0  0  0  0  0  0  0  0  0  0  0  0
  -54.8908  -52.1636  108.6814 N   0  0  0  0  0  0  0  0  0  0  0  0
  -56.2181  -51.9348  108.1026 C   0  0  2  0  0  0  0  0  0  0  0  0
  -56.1083  -51.9244  106.5472 C   0  0  0  0  0  0  0  0  0  0  0  0
  -55.1095  -52.4269  106.0350 O   0  0  0  0  0  0  0  0  0  0  0  0
  -56.7214  -50.5627  108.6017 C   0  0  0  0  0  0  0  0  0  0  0  0
  -58.1073  -50.1520  108.0985 C   0  0  0  0  0  0  0  0  0  0  0  0
  -58.0424  -48.7909  107.4045 C   0  0  0  0  0  0  0  0  0  0  0  0
  -57.6886  -47.7569  108.3692 N   0  0  0  0  0  0  0  0  0  0  0  0
  -56.5255  -47.0728  108.2198 C   0  0  0  0  0  0  0  0  0  0  0  0
  -55.8512  -47.0075  107.1339 N   0  0  0  0  0  0  0  0  0  0  0  0
  -56.1449  -46.4742  109.3689 N   0  0  0  0  0  0  0  0  0  0  0  0
  -57.0972  -51.3869  105.7363 N   0  0  0  0  0  0  0  0  0  0  0  0
  -56.9681  -51.3738  104.2550 C   0  0  2  0  0  0  0  0  0  0  0  0
  -58.1602  -50.8241  103.4094 C   0  0  0  0  0  0  0  0  0  0  0  0
  -58.0729  -50.6865  102.1910 O   0  0  0  0  0  0  0  0  0  0  0  0
  -56.5055  -52.7450  103.6428 C   0  0  2  0  0  0  0  0  0  0  0  0
  -57.4458  -53.8916  104.0960 C   0  0  0  0  0  0  0  0  0  0  0  0
  -55.0514  -53.1137  103.9208 C   0  0  0  0  0  0  0  0  0  0  0  0
  -57.6709  -54.9747  103.0486 C   0  0  0  0  0  0  0  0  0  0  0  0
  -59.3889  -50.6675  104.0257 N   0  0  0  0  0  0  0  0  0  0  0  0
  -60.4942  -50.1776  103.1900 C   0  0  2  0  0  0  0  0  0  0  0  0
  -60.0759  -49.1301  102.1065 C   0  0  0  0  0  0  0  0  0  0  0  0
  -59.1545  -48.3309  102.2451 O   0  0  0  0  0  0  0  0  0  0  0  0
  -61.7036  -49.6325  103.9867 C   0  0  2  0  0  0  0  0  0  0  0  0
  -62.3178  -50.6822  104.9277 C   0  0  0  0  0  0  0  0  0  0  0  0
  -62.7529  -49.0396  103.0431 C   0  0  0  0  0  0  0  0  0  0  0  0
  -61.2816  -51.4583  105.7313 C   0  0  0  0  0  0  0  0  0  0  0  0
  -60.9056  -49.1479  100.9882 N   0  0  0  0  0  0  0  0  0  0  0  0
  -60.7746  -48.1005   99.9524 C   0  0  2  0  0  0  0  0  0  0  0  0
  -61.9602  -47.0960   99.9465 C   0  0  0  0  0  0  0  0  0  0  0  0
  -63.1281  -47.4433  100.1066 O   0  0  0  0  0  0  0  0  0  0  0  0
  -60.6604  -48.7122   98.5281 C   0  0  0  0  0  0  0  0  0  0  0  0
  -59.6333  -49.8062   98.3653 C   0  0  0  0  0  0  0  0  0  0  0  0
  -59.8609  -51.1011   98.8371 C   0  0  0  0  0  0  0  0  0  0  0  0
  -58.4366  -49.5259   97.6792 C   0  0  0  0  0  0  0  0  0  0  0  0
  -58.9023  -52.0950   98.6226 C   0  0  0  0  0  0  0  0  0  0  0  0
  -57.4906  -50.5271   97.4517 C   0  0  0  0  0  0  0  0  0  0  0  0
  -57.7365  -51.8110   97.9203 C   0  0  0  0  0  0  0  0  0  0  0  0
  -56.8541  -52.8270   97.6980 O   0  0  0  0  0  0  0  0  0  0  0  0
  -61.6273  -45.7886   99.6844 N   0  0  0  0  0  0  0  0  0  0  0  0
  -62.6025  -44.7200   99.9448 C   0  0  2  0  0  0  0  0  0  0  0  0
  -61.9562  -43.3667   99.6185 C   0  0  0  0  0  0  0  0  0  0  0  0
  -60.7507  -43.2380   99.4544 O   0  0  0  0  0  0  0  0  0  0  0  0
  -63.0807  -44.7163  101.4051 C   0  0  0  0  0  0  0  0  0  0  0  0
  -62.1939  -43.9976  102.2593 O   0  0  0  0  0  0  0  0  0  0  0  0
  -62.8514  -42.3293   99.4768 N   0  0  0  0  0  0  0  0  0  0  0  0
  -62.4443  -40.9615   99.1376 C   0  0  2  0  0  0  0  0  0  0  0  0
  -62.9717  -39.9572  100.1806 C   0  0  0  0  0  0  0  0  0  0  0  0
  -64.1680  -39.7036  100.2976 O   0  0  0  0  0  0  0  0  0  0  0  0
  -62.8724  -40.6018   97.7052 C   0  0  0  0  0  0  0  0  0  0  0  0
  -62.5624  -41.6936   96.6737 C   0  0  0  0  0  0  0  0  0  0  0  0
  -63.2328  -41.3981   95.3324 C   0  0  0  0  0  0  0  0  0  0  0  0
  -62.6069  -42.2088   94.2912 N   0  0  0  0  0  0  0  0  0  0  0  0
  -63.3562  -42.7027   93.2722 C   0  0  0  0  0  0  0  0  0  0  0  0
  -63.1400  -42.4751   92.0321 N   0  0  0  0  0  0  0  0  0  0  0  0
  -64.3613  -43.4779   93.7321 N   0  0  0  0  0  0  0  0  0  0  0  0
  -60.2998  -40.8410  100.0785 C   0  0  0  0  0  0  0  0  0  0  0  0
  -61.9831  -39.2990  100.8757 N   0  0  0  0  0  0  0  0  0  0  0  0
  -61.1191  -41.3649   99.3167 O   0  0  0  0  0  0  0  0  0  0  0  0
  -60.5408  -39.3410  100.5716 C   0  0  1  0  0  0  0  0  0  0  0  0
  -59.6986  -38.9139  101.8018 C   0  0  0  0  0  0  0  0  0  0  0  0
  -58.7033  -37.0098  103.3053 C   0  0  0  0  0  0  0  0  0  0  0  0
  -57.4717  -36.3574  102.7364 C   0  0  0  0  0  0  0  0  0  0  0  0
  -59.7836  -37.4470  102.2854 C   0  0  0  0  0  0  0  0  0  0  0  0
  -60.2164  -38.4948   99.3267 C   0  0  0  0  0  0  0  0  0  0  0  0
  -59.0950  -41.4476  100.3219 N   0  0  0  0  0  0  0  0  0  0  0  0
  -58.5896  -42.6837   99.6835 C   0  0  2  0  0  0  0  0  0  0  0  0
  -57.5761  -43.3635  100.7003 C   0  0  0  0  0  0  0  0  0  0  0  0
  -57.9065  -43.5978  101.8623 O   0  0  0  0  0  0  0  0  0  0  0  0
  -57.9633  -42.3897   98.3180 C   0  0  0  0  0  0  0  0  0  0  0  0
  -57.2629  -43.5708   97.6406 C   0  0  0  0  0  0  0  0  0  0  0  0
  -57.5360  -44.8626   98.3764 C   0  0  0  0  0  0  0  0  0  0  0  0
  -58.0033  -45.8768   97.8706 O   0  0  0  0  0  0  0  0  0  0  0  0
  -57.2163  -44.8270   99.7063 N   0  0  0  0  0  0  0  0  0  0  0  0
  -56.2856  -43.6227  100.2806 N   0  0  0  0  0  0  0  0  0  0  0  0
  -55.1110  -43.6578  101.1966 C   0  0  2  0  0  0  0  0  0  0  0  0
  -54.2528  -42.4419  100.7452 C   0  0  0  0  0  0  0  0  0  0  0  0
  -54.3580  -42.0399   99.5701 O   0  0  0  0  0  0  0  0  0  0  0  0
  -54.3239  -44.9540  100.9454 C   0  0  0  0  0  0  0  0  0  0  0  0
  -53.0477  -45.1850  101.7867 C   0  0  1  0  0  0  0  0  0  0  0  0
  -52.3565  -46.5059  101.4602 C   0  0  0  0  0  0  0  0  0  0  0  0
  -52.0445  -44.0362  101.7185 C   0  0  0  0  0  0  0  0  0  0  0  0
  -53.3430  -41.7524  101.4683 N   0  0  0  0  0  0  0  0  0  0  0  0
  -52.7876  -41.6735  102.8540 C   0  0  2  0  0  0  0  0  0  0  0  0
  -51.7075  -40.5616  102.7116 C   0  0  0  0  0  0  0  0  0  0  0  0
  -50.8552  -40.7074  101.8125 O   0  0  0  0  0  0  0  0  0  0  0  0
  -52.1510  -43.0364  103.1600 C   0  0  0  0  0  0  0  0  0  0  0  0
  -52.6695  -44.3121  102.4942 C   0  0  1  0  0  0  0  0  0  0  0  0
  -54.1798  -44.3452  102.2996 C   0  0  0  0  0  0  0  0  0  0  0  0
  -51.9209  -44.6257  101.2116 C   0  0  0  0  0  0  0  0  0  0  0  0
  -52.1509  -39.1172  105.7990 C   0  0  0  0  0  0  0  0  0  0  0  0
  -51.5703  -39.3910  103.3756 N   0  0  0  0  0  0  0  0  0  0  0  0
  -52.5421  -38.5063  106.7958 O   0  0  0  0  0  0  0  0  0  0  0  0
  -52.2283  -38.4950  104.3751 C   0  0  1  0  0  0  0  0  0  0  0  0
  -53.7111  -38.1678  104.0460 C   0  0  0  0  0  0  0  0  0  0  0  0
  -55.8118  -36.6552  104.6758 C   0  0  0  0  0  0  0  0  0  0  0  0
  -56.2576  -36.2092  103.3137 C   0  0  0  0  0  0  0  0  0  0  0  0
  -54.3081  -36.9719  104.8340 C   0  0  0  0  0  0  0  0  0  0  0  0
  -51.4328  -37.1623  104.3366 C   0  0  0  0  0  0  0  0  0  0  0  0
  -51.6897  -40.4068  105.9041 N   0  0  0  0  0  0  0  0  0  0  0  0
  -51.6454  -41.3264  104.7633 C   0  0  2  0  0  0  0  0  0  0  0  0
  -53.1055  -41.4620  104.2794 C   0  0  0  0  0  0  0  0  0  0  0  0
  -53.3931  -41.4420  103.0829 O   0  0  0  0  0  0  0  0  0  0  0  0
  -51.0388  -42.6590  105.2061 C   0  0  0  0  0  0  0  0  0  0  0  0
  -49.5318  -42.6847  105.5041 C   0  0  1  0  0  0  0  0  0  0  0  0
  -49.0614  -44.0551  105.9996 C   0  0  0  0  0  0  0  0  0  0  0  0
  -48.7607  -42.3237  104.2261 C   0  0  0  0  0  0  0  0  0  0  0  0
  -54.0705  -41.5662  105.2586 N   0  0  0  0  0  0  0  0  0  0  0  0
  -55.4906  -41.3609  104.9554 C   0  0  2  0  0  0  0  0  0  0  0  0
  -56.1587  -40.3514  105.9293 C   0  0  0  0  0  0  0  0  0  0  0  0
  -57.3315  -39.9953  105.8252 O   0  0  0  0  0  0  0  0  0  0  0  0
  -56.2673  -42.6891  105.0188 C   0  0  0  0  0  0  0  0  0  0  0  0
  -56.0545  -43.6166  103.8187 C   0  0  0  0  0  0  0  0  0  0  0  0
  -56.4868  -45.0428  104.1900 C   0  0  0  0  0  0  0  0  0  0  0  0
  -56.4712  -46.0210  103.0242 C   0  0  0  0  0  0  0  0  0  0  0  0
  -56.2242  -45.3054  101.7517 N   0  0  0  0  0  4  0  0  0  0  0  0
  -55.3400  -39.7475  106.8433 N   0  0  0  0  0  0  0  0  0  0  0  0
  -56.4260  -47.2860  106.3380 H   0  0  0  0  0  0  0  0  0  0  0  0
  -63.1460  -41.4720   91.8417 H   0  0  0  0  0  0  0  0  0  0  0  0
  1  2  2  0
  1  3  1  0
  4  1  1  0
  5  4  1  0
  6  5  1  0
  5  8  1  1
  6  7  2  0
 15  6  1  0
  8  9  1  0
  9 10  1  0
 10 11  1  0
 11 12  1  0
 12 13  2  0
 12 14  1  0
 16 15  1  1
 17 16  1  0
 16 19  1  0
 17 18  2  0
 23 17  1  0
 19 20  1  0
 19 21  1  1
 20 22  1  0
 24 23  1  1
 25 24  1  0
 24 27  1  0
 25 26  2  0
 31 25  1  0
 27 28  1  0
 27 29  1  6
 28 30  1  0
 32 31  1  0
 33 32  1  0
 32 35  1  6
 33 34  2  0
 43 33  1  0
 35 36  1  0
 36 37  2  0
 36 38  1  0
 37 39  1  0
 38 40  2  0
 39 41  2  0
 40 41  1  0
 41 42  1  0
 44 43  1  0
 45 44  1  0
 44 47  1  1
 45 46  2  0
 49 45  1  0
 47 48  1  0
 50 49  1  0
 51 50  1  0
 50 53  1  6
 51 52  2  0
 61 51  1  0
 53 54  1  0
 54 55  1  0
 55 56  1  0
 56 57  1  0
 57 58  2  0
 57 59  1  0
 60 62  2  0
 60 63  1  0
 69 60  1  0
 63 61  1  0
 63 64  1  0
 63 68  1  6
 64 67  1  0
 65 66  1  0
 67 65  1  0
 66100  2  0
 70 69  1  0
 71 70  1  0
 70 73  1  6
 71 72  2  0
 78 71  1  0
 73 74  1  0
 74 75  1  0
 75 76  2  0
 75 77  1  0
 79 78  1  0
 80 79  1  0
 79 82  1  6
 80 81  2  0
 86 80  1  0
 82 83  1  0
 83 84  1  6
 83 85  1  0
 87 86  1  0
 88 87  1  0
 87 90  1  6
 88 89  2  0
 95 88  1  0
 90 91  1  0
 91 92  1  6
 91 93  1  0
 94 96  2  0
 97 94  1  0
 94103  1  0
 95 97  1  0
 97 98  1  0
 97102  1  1
 98101  1  0
100 99  1  0
 99101  1  0
103104  1  0
104105  1  0
104107  1  1
105106  2  0
105111  1  0
107108  1  0
108109  1  6
108110  1  0
111112  1  0
112113  1  0
112115  1  1
113114  2  0
113120  1  0
115116  1  0
116117  1  0
117118  1  0
118119  1  0
 13121  1  0
 58122  1  0
M  CHG  1 119   1
M  END
$$$$
