
     RDKit          3D

 33 36  0  0  0  0  0  0  0  0999 V2000
  -16.7988   12.2395   -2.8575 C   0  0  1  0  0  0  0  0  0  0  0  0
  -18.2657   12.1800   -3.0057 C   0  0  1  0  0  0  0  0  0  0  0  0
  -18.6304   13.0074   -4.2499 C   0  0  0  0  0  0  0  0  0  0  0  0
  -18.2931    9.9245   -2.4700 C   0  0  1  0  0  0  0  0  0  0  0  0
  -20.4948    8.2527   -1.5429 C   0  0  1  0  0  0  0  0  0  0  0  0
  -21.6292    7.3880   -1.9986 C   0  0  1  0  0  0  0  0  0  0  0  0
  -22.2676    6.7872   -0.7558 C   0  0  2  0  0  0  0  0  0  0  0  0
  -21.2288    5.8873   -0.1381 C   0  0  1  0  0  0  0  0  0  0  0  0
  -19.9387    6.6314    0.0465 C   0  0  1  0  0  0  0  0  0  0  0  0
  -18.7544    5.8377   -0.5128 C   0  0  0  0  0  0  0  0  0  0  0  0
  -16.8365    9.7607   -2.9261 C   0  0  1  0  0  0  0  0  0  0  0  0
  -16.1322   10.9946   -2.3935 C   0  0  1  0  0  0  0  0  0  0  0  0
  -13.6933   11.3730   -1.9865 C   0  0  0  0  0  0  0  0  0  0  0  0
  -12.5448   11.1454   -2.6896 C   0  0  0  0  0  0  0  0  0  0  0  0
  -11.1676   11.4331   -2.2963 C   0  0  0  0  0  0  0  0  0  0  0  0
  -10.8817   11.8631   -1.0270 C   0  0  0  0  0  0  0  0  0  0  0  0
   -9.5877   12.1444   -0.6226 C   0  0  0  0  0  0  0  0  0  0  0  0
   -8.5563   11.9898   -1.5152 C   0  0  0  0  0  0  0  0  0  0  0  0
   -8.8440   11.5571   -2.7924 C   0  0  0  0  0  0  0  0  0  0  0  0
  -10.1364   11.2766   -3.1952 C   0  0  0  0  0  0  0  0  0  0  0  0
  -14.7294   10.9603   -2.7150 N   0  0  0  0  0  0  0  0  0  0  0  0
  -12.9266   10.5877   -3.8525 N   0  0  0  0  0  0  0  0  0  0  0  0
  -14.2367   10.4870   -3.8450 N   0  0  0  0  0  0  0  0  0  0  0  0
  -16.1470   12.6565   -4.0402 O   0  0  0  0  0  0  0  0  0  0  0  0
  -20.0425   13.0216   -4.2661 O   0  0  0  0  0  0  0  0  0  0  0  0
  -18.8250   10.9579   -3.1833 O   0  0  0  0  0  0  0  0  0  0  0  0
  -22.6029    8.1380   -2.6961 O   0  0  0  0  0  0  0  0  0  0  0  0
  -23.4381    6.1119   -1.0328 O   0  0  0  0  0  0  0  0  0  0  0  0
  -21.7612    5.4060    1.0578 O   0  0  0  0  0  0  0  0  0  0  0  0
  -17.9920    5.2545    0.4590 O   0  0  0  0  0  0  0  0  0  0  0  0
  -19.9487    7.9337   -0.3431 O   0  0  0  0  0  0  0  0  0  0  0  0
  -16.2940    8.6044   -2.3943 O   0  0  0  0  0  0  0  0  0  0  0  0
  -19.2352    8.4253   -2.8693 S   0  0  0  0  0  0  0  0  0  0  0  0
  1  2  1  0
 12  1  1  0
  1 24  1  6
  2  3  1  6
  2 26  1  0
  3 25  1  0
 11  4  1  0
  4 26  1  0
  4 33  1  6
  5  6  1  0
  5 31  1  0
  5 33  1  6
  6  7  1  0
  6 27  1  1
  7  8  1  0
  7 28  1  6
  9  8  1  0
  8 29  1  1
  9 10  1  6
 31  9  1  0
 10 30  1  0
 12 11  1  0
 11 32  1  1
 12 21  1  6
 13 14  2  0
 13 21  1  0
 14 15  1  0
 14 22  1  0
 15 16  2  0
 15 20  1  0
 16 17  1  0
 17 18  2  0
 18 19  1  0
 19 20  2  0
 21 23  1  0
 22 23  2  0
M  END
$$$$
