
     RDKit          3D

 33 36  0  0  0  0  0  0  0  0999 V2000
  -25.2440   10.6639   -2.1200 C   0  0  1  0  0  0  0  0  0  0  0  0
  -24.0679   10.7846   -3.0029 C   0  0  1  0  0  0  0  0  0  0  0  0
  -24.1578   12.1555   -3.6944 C   0  0  0  0  0  0  0  0  0  0  0  0
  -22.6849    9.8451   -1.3967 C   0  0  1  0  0  0  0  0  0  0  0  0
  -19.9893    8.8841   -1.9549 C   0  0  1  0  0  0  0  0  0  0  0  0
  -18.5243    9.0138   -1.6736 C   0  0  1  0  0  0  0  0  0  0  0  0
  -17.8578    7.7303   -2.1443 C   0  0  2  0  0  0  0  0  0  0  0  0
  -18.3938    6.6279   -1.2678 C   0  0  1  0  0  0  0  0  0  0  0  0
  -19.8942    6.6556   -1.2555 C   0  0  1  0  0  0  0  0  0  0  0  0
  -20.4393    6.6073    0.1749 C   0  0  0  0  0  0  0  0  0  0  0  0
  -23.6358   10.2776   -0.2719 C   0  0  1  0  0  0  0  0  0  0  0  0
  -25.0221    9.9865   -0.8156 C   0  0  1  0  0  0  0  0  0  0  0  0
  -26.9864    9.5314    0.6649 C   0  0  0  0  0  0  0  0  0  0  0  0
  -27.7166   10.2594    1.5605 C   0  0  0  0  0  0  0  0  0  0  0  0
  -28.8613    9.8303    2.3603 C   0  0  0  0  0  0  0  0  0  0  0  0
  -29.4325    8.6018    2.1546 C   0  0  0  0  0  0  0  0  0  0  0  0
  -30.5179    8.1652    2.8952 C   0  0  0  0  0  0  0  0  0  0  0  0
  -31.0416    8.9827    3.8656 C   0  0  0  0  0  0  0  0  0  0  0  0
  -30.4668   10.2188    4.0725 C   0  0  0  0  0  0  0  0  0  0  0  0
  -29.3831   10.6539    3.3325 C   0  0  0  0  0  0  0  0  0  0  0  0
  -26.0310   10.3098    0.1591 N   0  0  0  0  0  0  0  0  0  0  0  0
  -27.1698   11.4882    1.5724 N   0  0  0  0  0  0  0  0  0  0  0  0
  -26.1639   11.4946    0.7270 N   0  0  0  0  0  0  0  0  0  0  0  0
  -25.8574   11.9092   -1.8546 O   0  0  0  0  0  0  0  0  0  0  0  0
  -23.7378   11.9129   -5.0208 O   0  0  0  0  0  0  0  0  0  0  0  0
  -22.8443   10.7302   -2.4218 O   0  0  0  0  0  0  0  0  0  0  0  0
  -17.9587   10.1052   -2.3708 O   0  0  0  0  0  0  0  0  0  0  0  0
  -16.4808    7.8002   -2.1033 O   0  0  0  0  0  0  0  0  0  0  0  0
  -17.8706    5.4285   -1.7504 O   0  0  0  0  0  0  0  0  0  0  0  0
  -21.7274    6.1579    0.2437 O   0  0  0  0  0  0  0  0  0  0  0  0
  -20.4721    7.6184   -2.0217 O   0  0  0  0  0  0  0  0  0  0  0  0
  -23.3840    9.5486    0.8766 O   0  0  0  0  0  0  0  0  0  0  0  0
  -20.9657    9.9544   -0.8250 S   0  0  0  0  0  0  0  0  0  0  0  0
  1  2  1  0
 12  1  1  0
  1 24  1  1
  2  3  1  1
  2 26  1  0
  3 25  1  0
 11  4  1  0
  4 26  1  0
  4 33  1  1
  5  6  1  0
  5 31  1  0
  5 33  1  1
  6  7  1  0
  6 27  1  6
  7  8  1  0
  7 28  1  1
  9  8  1  0
  8 29  1  6
  9 10  1  1
 31  9  1  0
 10 30  1  0
 12 11  1  0
 11 32  1  1
 12 21  1  1
 13 14  2  0
 13 21  1  0
 14 15  1  0
 14 22  1  0
 15 16  2  0
 15 20  1  0
 16 17  1  0
 17 18  2  0
 18 19  1  0
 19 20  2  0
 21 23  1  0
 22 23  2  0
M  END
$$$$
