
     RDKit          3D

 33 36  0  0  0  0  0  0  0  0999 V2000
  -18.5694   11.7446   -5.5516 C   0  0  1  0  0  0  0  0  0  0  0  0
  -17.8698   10.4834   -5.2397 C   0  0  1  0  0  0  0  0  0  0  0  0
  -16.3982   10.6676   -5.6470 C   0  0  0  0  0  0  0  0  0  0  0  0
  -19.0013   10.2782   -3.2266 C   0  0  1  0  0  0  0  0  0  0  0  0
  -18.8664    7.8027   -1.6919 C   0  0  1  0  0  0  0  0  0  0  0  0
  -18.0355    7.1277   -0.6448 C   0  0  1  0  0  0  0  0  0  0  0  0
  -18.6440    5.7556   -0.3994 C   0  0  2  0  0  0  0  0  0  0  0  0
  -20.0101    5.9966    0.1891 C   0  0  1  0  0  0  0  0  0  0  0  0
  -20.7884    6.9463   -0.6736 C   0  0  1  0  0  0  0  0  0  0  0  0
  -21.4014    8.0772    0.1577 C   0  0  0  0  0  0  0  0  0  0  0  0
  -19.2414   11.7931   -3.1647 C   0  0  1  0  0  0  0  0  0  0  0  0
  -19.6133   12.1755   -4.5851 C   0  0  1  0  0  0  0  0  0  0  0  0
  -20.9785   14.1806   -5.1961 C   0  0  0  0  0  0  0  0  0  0  0  0
  -20.8333   15.5319   -5.0615 C   0  0  0  0  0  0  0  0  0  0  0  0
  -21.7481   16.5897   -5.4835 C   0  0  0  0  0  0  0  0  0  0  0  0
  -21.5212   17.8916   -5.1209 C   0  0  0  0  0  0  0  0  0  0  0  0
  -22.3686   18.9174   -5.5043 C   0  0  0  0  0  0  0  0  0  0  0  0
  -23.4702   18.6279   -6.2702 C   0  0  0  0  0  0  0  0  0  0  0  0
  -23.6985   17.3179   -6.6351 C   0  0  0  0  0  0  0  0  0  0  0  0
  -22.8519   16.2944   -6.2518 C   0  0  0  0  0  0  0  0  0  0  0  0
  -19.9092   13.5816   -4.6743 N   0  0  0  0  0  0  0  0  0  0  0  0
  -19.6513   15.7181   -4.4470 N   0  0  0  0  0  0  0  0  0  0  0  0
  -19.1172   14.5382   -4.2256 N   0  0  0  0  0  0  0  0  0  0  0  0
  -17.6828   12.8301   -5.7334 O   0  0  0  0  0  0  0  0  0  0  0  0
  -15.9251    9.3563   -5.8732 O   0  0  0  0  0  0  0  0  0  0  0  0
  -17.8596   10.0800   -3.9454 O   0  0  0  0  0  0  0  0  0  0  0  0
  -16.6981    6.9653   -1.0718 O   0  0  0  0  0  0  0  0  0  0  0  0
  -17.8615    4.9652    0.4165 O   0  0  0  0  0  0  0  0  0  0  0  0
  -20.6232    4.7515    0.3270 O   0  0  0  0  0  0  0  0  0  0  0  0
  -22.7235    8.2872   -0.1140 O   0  0  0  0  0  0  0  0  0  0  0  0
  -20.1520    7.3823   -1.7928 O   0  0  0  0  0  0  0  0  0  0  0  0
  -20.2674   12.0811   -2.2824 O   0  0  0  0  0  0  0  0  0  0  0  0
  -18.7289    9.6295   -1.5533 S   0  0  0  0  0  0  0  0  0  0  0  0
  1  2  1  0
 12  1  1  0
  1 24  1  1
  2  3  1  1
  2 26  1  0
  3 25  1  0
 11  4  1  0
  4 26  1  0
  4 33  1  1
  5  6  1  0
  5 31  1  0
  5 33  1  1
  6  7  1  0
  6 27  1  6
  7  8  1  0
  7 28  1  1
  9  8  1  0
  8 29  1  6
  9 10  1  1
 31  9  1  0
 10 30  1  0
 12 11  1  0
 11 32  1  1
 12 21  1  1
 13 14  2  0
 13 21  1  0
 14 15  1  0
 14 22  1  0
 15 16  2  0
 15 20  1  0
 16 17  1  0
 17 18  2  0
 18 19  1  0
 19 20  2  0
 21 23  1  0
 22 23  2  0
M  END
$$$$
