
     RDKit          3D

 33 36  0  0  0  0  0  0  0  0999 V2000
  -18.1902    6.7652   -1.1318 C   0  0  1  0  0  0  0  0  0  0  0  0
  -19.6543    6.5820   -1.1233 C   0  0  1  0  0  0  0  0  0  0  0  0
  -19.9962    5.7137    0.0994 C   0  0  0  0  0  0  0  0  0  0  0  0
  -20.0001    8.7981   -1.7096 C   0  0  1  0  0  0  0  0  0  0  0  0
  -22.8618    9.3237   -1.5190 C   0  0  1  0  0  0  0  0  0  0  0  0
  -23.7800    9.8933   -0.4823 C   0  0  1  0  0  0  0  0  0  0  0  0
  -25.2034    9.6898   -0.9777 C   0  0  2  0  0  0  0  0  0  0  0  0
  -25.3439   10.5296   -2.2210 C   0  0  1  0  0  0  0  0  0  0  0  0
  -24.2337   10.2244   -3.1836 C   0  0  1  0  0  0  0  0  0  0  0  0
  -23.5598   11.5072   -3.6795 C   0  0  0  0  0  0  0  0  0  0  0  0
  -18.6410    9.2040   -1.1226 C   0  0  1  0  0  0  0  0  0  0  0  0
  -17.6956    8.1003   -1.5589 C   0  0  1  0  0  0  0  0  0  0  0  0
  -15.2280    8.4195   -1.8164 C   0  0  0  0  0  0  0  0  0  0  0  0
  -14.1928    8.7063   -0.9730 C   0  0  0  0  0  0  0  0  0  0  0  0
  -12.7763    8.8617   -1.2945 C   0  0  0  0  0  0  0  0  0  0  0  0
  -12.3212    8.6253   -2.5653 C   0  0  0  0  0  0  0  0  0  0  0  0
  -10.9854    8.7634   -2.9028 C   0  0  0  0  0  0  0  0  0  0  0  0
  -10.0856    9.1482   -1.9402 C   0  0  0  0  0  0  0  0  0  0  0  0
  -10.5437    9.3860   -0.6616 C   0  0  0  0  0  0  0  0  0  0  0  0
  -11.8775    9.2479   -0.3256 C   0  0  0  0  0  0  0  0  0  0  0  0
  -16.3551    8.3686   -1.1081 N   0  0  0  0  0  0  0  0  0  0  0  0
  -14.7350    8.8240    0.2523 N   0  0  0  0  0  0  0  0  0  0  0  0
  -16.0284    8.6180    0.1468 N   0  0  0  0  0  0  0  0  0  0  0  0
  -17.5957    6.4698    0.1160 O   0  0  0  0  0  0  0  0  0  0  0  0
  -21.2051    5.0712   -0.2476 O   0  0  0  0  0  0  0  0  0  0  0  0
  -20.4212    7.6956   -1.0265 O   0  0  0  0  0  0  0  0  0  0  0  0
  -23.6293    9.2351    0.7592 O   0  0  0  0  0  0  0  0  0  0  0  0
  -26.1488   10.0123   -0.0263 O   0  0  0  0  0  0  0  0  0  0  0  0
  -26.6110   10.2770   -2.7462 O   0  0  0  0  0  0  0  0  0  0  0  0
  -23.8163   11.7746   -4.9942 O   0  0  0  0  0  0  0  0  0  0  0  0
  -23.3517    9.2710   -2.7827 O   0  0  0  0  0  0  0  0  0  0  0  0
  -18.2472   10.4307   -1.6269 O   0  0  0  0  0  0  0  0  0  0  0  0
  -21.2097   10.1232   -1.4342 S   0  0  0  0  0  0  0  0  0  0  0  0
  1  2  1  0
 12  1  1  0
  1 24  1  1
  2  3  1  1
  2 26  1  0
  3 25  1  0
 11  4  1  0
  4 26  1  0
  4 33  1  1
  5  6  1  0
  5 31  1  0
  5 33  1  6
  6  7  1  0
  6 27  1  1
  7  8  1  0
  7 28  1  1
  9  8  1  0
  8 29  1  6
  9 10  1  1
 31  9  1  0
 10 30  1  0
 12 11  1  0
 11 32  1  6
 12 21  1  1
 13 14  2  0
 13 21  1  0
 14 15  1  0
 14 22  1  0
 15 16  2  0
 15 20  1  0
 16 17  1  0
 17 18  2  0
 18 19  1  0
 19 20  2  0
 21 23  1  0
 22 23  2  0
M  END
$$$$
