
     RDKit          3D

 33 36  0  0  0  0  0  0  0  0999 V2000
  -18.3375    6.6905   -0.9237 C   0  0  1  0  0  0  0  0  0  0  0  0
  -19.8018    6.5160   -0.8704 C   0  0  1  0  0  0  0  0  0  0  0  0
  -20.1208    5.7488    0.4239 C   0  0  0  0  0  0  0  0  0  0  0  0
  -20.1522    8.6806   -1.6229 C   0  0  1  0  0  0  0  0  0  0  0  0
  -23.0107    9.2519   -1.5585 C   0  0  1  0  0  0  0  0  0  0  0  0
  -23.9565    9.8516   -0.5644 C   0  0  1  0  0  0  0  0  0  0  0  0
  -25.3644    9.6599   -1.1067 C   0  0  2  0  0  0  0  0  0  0  0  0
  -25.4487   10.4807   -2.3676 C   0  0  1  0  0  0  0  0  0  0  0  0
  -24.3099   10.1438   -3.2851 C   0  0  1  0  0  0  0  0  0  0  0  0
  -23.6002   11.4085   -3.7775 C   0  0  0  0  0  0  0  0  0  0  0  0
  -18.7797    9.1247   -1.0982 C   0  0  1  0  0  0  0  0  0  0  0  0
  -17.8475    7.9852   -1.4653 C   0  0  1  0  0  0  0  0  0  0  0  0
  -15.3571    8.0101   -1.6990 C   0  0  0  0  0  0  0  0  0  0  0  0
  -14.3160    8.4759   -0.9478 C   0  0  0  0  0  0  0  0  0  0  0  0
  -12.8857    8.4072   -1.2371 C   0  0  0  0  0  0  0  0  0  0  0  0
  -11.9729    8.3258   -0.2183 C   0  0  0  0  0  0  0  0  0  0  0  0
  -10.6108    8.2592   -0.4584 C   0  0  0  0  0  0  0  0  0  0  0  0
  -10.1554    8.2749   -1.7533 C   0  0  0  0  0  0  0  0  0  0  0  0
  -11.0740    8.3568   -2.7783 C   0  0  0  0  0  0  0  0  0  0  0  0
  -12.4337    8.4232   -2.5376 C   0  0  0  0  0  0  0  0  0  0  0  0
  -16.4968    8.2814   -1.0650 N   0  0  0  0  0  0  0  0  0  0  0  0
  -14.8676    9.0298    0.1468 N   0  0  0  0  0  0  0  0  0  0  0  0
  -16.1720    8.9016    0.0547 N   0  0  0  0  0  0  0  0  0  0  0  0
  -17.7180    6.4916    0.3309 O   0  0  0  0  0  0  0  0  0  0  0  0
  -21.3067    5.0390    0.1334 O   0  0  0  0  0  0  0  0  0  0  0  0
  -20.5626    7.6377   -0.8461 O   0  0  0  0  0  0  0  0  0  0  0  0
  -23.8592    9.2123    0.6922 O   0  0  0  0  0  0  0  0  0  0  0  0
  -26.3379   10.0115   -0.1948 O   0  0  0  0  0  0  0  0  0  0  0  0
  -26.7001   10.2371   -2.9332 O   0  0  0  0  0  0  0  0  0  0  0  0
  -23.0036   11.2494   -4.9960 O   0  0  0  0  0  0  0  0  0  0  0  0
  -23.4565    9.1849   -2.8377 O   0  0  0  0  0  0  0  0  0  0  0  0
  -18.3923   10.3056   -1.7060 O   0  0  0  0  0  0  0  0  0  0  0  0
  -21.3512   10.0294   -1.4282 S   0  0  0  0  0  0  0  0  0  0  0  0
  1  2  1  0
 12  1  1  0
  1 24  1  1
  2  3  1  1
  2 26  1  0
  3 25  1  0
 11  4  1  0
  4 26  1  0
  4 33  1  1
  5  6  1  0
  5 31  1  0
  5 33  1  6
  6  7  1  0
  6 27  1  1
  7  8  1  0
  7 28  1  1
  9  8  1  0
  8 29  1  6
  9 10  1  1
 31  9  1  0
 10 30  1  0
 12 11  1  0
 11 32  1  6
 12 21  1  1
 13 14  2  0
 13 21  1  0
 14 15  1  0
 14 22  1  0
 15 16  2  0
 15 20  1  0
 16 17  1  0
 17 18  2  0
 18 19  1  0
 19 20  2  0
 21 23  1  0
 22 23  2  0
M  END
$$$$
