
     RDKit          3D

 33 36  0  0  0  0  0  0  0  0999 V2000
  -18.2388    6.9874   -1.2014 C   0  0  1  0  0  0  0  0  0  0  0  0
  -19.7040    6.8436   -1.1013 C   0  0  1  0  0  0  0  0  0  0  0  0
  -19.9931    6.0029    0.1538 C   0  0  0  0  0  0  0  0  0  0  0  0
  -20.0274    9.0594   -1.7016 C   0  0  1  0  0  0  0  0  0  0  0  0
  -22.8633    9.6784   -1.4254 C   0  0  1  0  0  0  0  0  0  0  0  0
  -23.7488   10.3011   -0.3908 C   0  0  1  0  0  0  0  0  0  0  0  0
  -25.1842   10.1382   -0.8665 C   0  0  2  0  0  0  0  0  0  0  0  0
  -25.3093   10.9570   -2.1253 C   0  0  1  0  0  0  0  0  0  0  0  0
  -24.2218   10.5931   -3.0933 C   0  0  1  0  0  0  0  0  0  0  0  0
  -23.5089   11.8409   -3.6229 C   0  0  0  0  0  0  0  0  0  0  0  0
  -18.6250    9.4372   -1.2047 C   0  0  1  0  0  0  0  0  0  0  0  0
  -17.7369    8.3023   -1.6794 C   0  0  1  0  0  0  0  0  0  0  0  0
  -15.2894    8.6047   -2.0986 C   0  0  0  0  0  0  0  0  0  0  0  0
  -14.1943    8.8516   -1.3208 C   0  0  0  0  0  0  0  0  0  0  0  0
  -12.8018    9.0034   -1.7356 C   0  0  0  0  0  0  0  0  0  0  0  0
  -12.4645    8.9769   -3.0635 C   0  0  0  0  0  0  0  0  0  0  0  0
  -11.1546    9.1178   -3.4897 C   0  0  0  0  0  0  0  0  0  0  0  0
  -10.1601    9.2893   -2.5591 C   0  0  0  0  0  0  0  0  0  0  0  0
  -10.4997    9.3159   -1.2230 C   0  0  0  0  0  0  0  0  0  0  0  0
  -11.8078    9.1752   -0.7985 C   0  0  0  0  0  0  0  0  0  0  0  0
  -16.3648    8.5411   -1.3150 N   0  0  0  0  0  0  0  0  0  0  0  0
  -14.6480    8.9326   -0.0571 N   0  0  0  0  0  0  0  0  0  0  0  0
  -15.9481    8.7437   -0.0785 N   0  0  0  0  0  0  0  0  0  0  0  0
  -17.5773    6.6944    0.0127 O   0  0  0  0  0  0  0  0  0  0  0  0
  -21.3130    5.5345   -0.0282 O   0  0  0  0  0  0  0  0  0  0  0  0
  -20.4344    7.9788   -0.9763 O   0  0  0  0  0  0  0  0  0  0  0  0
  -23.6071    9.6634    0.8624 O   0  0  0  0  0  0  0  0  0  0  0  0
  -26.1066   10.5132    0.0882 O   0  0  0  0  0  0  0  0  0  0  0  0
  -26.5906   10.7388   -2.6314 O   0  0  0  0  0  0  0  0  0  0  0  0
  -23.7911   12.1049   -4.9331 O   0  0  0  0  0  0  0  0  0  0  0  0
  -23.3693    9.6174   -2.6823 O   0  0  0  0  0  0  0  0  0  0  0  0
  -18.2310   10.6453   -1.7518 O   0  0  0  0  0  0  0  0  0  0  0  0
  -21.1832   10.4203   -1.3750 S   0  0  0  0  0  0  0  0  0  0  0  0
  1  2  1  0
 12  1  1  0
  1 24  1  1
  2  3  1  1
  2 26  1  0
  3 25  1  0
 11  4  1  0
  4 26  1  0
  4 33  1  1
  5  6  1  0
  5 31  1  0
  5 33  1  6
  6  7  1  0
  6 27  1  1
  7  8  1  0
  7 28  1  1
  9  8  1  0
  8 29  1  6
  9 10  1  1
 31  9  1  0
 10 30  1  0
 12 11  1  0
 11 32  1  6
 12 21  1  1
 13 14  2  0
 13 21  1  0
 14 15  1  0
 14 22  1  0
 15 16  2  0
 15 20  1  0
 16 17  1  0
 17 18  2  0
 18 19  1  0
 19 20  2  0
 21 23  1  0
 22 23  2  0
M  END
$$$$
