
     RDKit          3D

 33 36  0  0  0  0  0  0  0  0999 V2000
  -25.1915   10.8891   -2.1394 C   0  0  1  0  0  0  0  0  0  0  0  0
  -23.9626   11.0892   -2.9313 C   0  0  1  0  0  0  0  0  0  0  0  0
  -24.0141   12.5187   -3.4964 C   0  0  0  0  0  0  0  0  0  0  0  0
  -22.6799   10.0014   -1.3355 C   0  0  1  0  0  0  0  0  0  0  0  0
  -19.9599    9.0519   -1.7843 C   0  0  1  0  0  0  0  0  0  0  0  0
  -18.5078    9.2202   -1.4595 C   0  0  1  0  0  0  0  0  0  0  0  0
  -17.7869    7.9746   -1.9513 C   0  0  2  0  0  0  0  0  0  0  0  0
  -18.3084    6.8282   -1.1240 C   0  0  1  0  0  0  0  0  0  0  0  0
  -19.8088    6.8067   -1.1516 C   0  0  1  0  0  0  0  0  0  0  0  0
  -20.3890    6.6954    0.2614 C   0  0  0  0  0  0  0  0  0  0  0  0
  -23.7015   10.3291   -0.2376 C   0  0  1  0  0  0  0  0  0  0  0  0
  -25.0496   10.0927   -0.8924 C   0  0  1  0  0  0  0  0  0  0  0  0
  -27.1553    9.5437    0.3413 C   0  0  0  0  0  0  0  0  0  0  0  0
  -27.9188   10.1691    1.2853 C   0  0  0  0  0  0  0  0  0  0  0  0
  -29.1494    9.6976    1.9157 C   0  0  0  0  0  0  0  0  0  0  0  0
  -29.7726    8.5640    1.4638 C   0  0  0  0  0  0  0  0  0  0  0  0
  -30.9397    8.0906    2.0390 C   0  0  0  0  0  0  0  0  0  0  0  0
  -31.4937    8.7728    3.0935 C   0  0  0  0  0  0  0  0  0  0  0  0
  -30.8666    9.9135    3.5482 C   0  0  0  0  0  0  0  0  0  0  0  0
  -29.7013   10.3853    2.9732 C   0  0  0  0  0  0  0  0  0  0  0  0
  -26.1191   10.3258    0.0426 N   0  0  0  0  0  0  0  0  0  0  0  0
  -27.3089   11.3410    1.5381 N   0  0  0  0  0  0  0  0  0  0  0  0
  -26.2355   11.4125    0.7837 N   0  0  0  0  0  0  0  0  0  0  0  0
  -25.8253   12.1055   -1.7985 O   0  0  0  0  0  0  0  0  0  0  0  0
  -23.7151   12.3696   -4.8686 O   0  0  0  0  0  0  0  0  0  0  0  0
  -22.7778   10.9784   -2.2818 O   0  0  0  0  0  0  0  0  0  0  0  0
  -17.9611   10.3510   -2.1072 O   0  0  0  0  0  0  0  0  0  0  0  0
  -16.4145    8.0880   -1.8709 O   0  0  0  0  0  0  0  0  0  0  0  0
  -17.7331    5.6623   -1.6290 O   0  0  0  0  0  0  0  0  0  0  0  0
  -21.6724    6.2279    0.2795 O   0  0  0  0  0  0  0  0  0  0  0  0
  -20.3983    7.7739   -1.9031 O   0  0  0  0  0  0  0  0  0  0  0  0
  -23.5196    9.4957    0.8517 O   0  0  0  0  0  0  0  0  0  0  0  0
  -21.0005   10.0535   -0.6488 S   0  0  0  0  0  0  0  0  0  0  0  0
  1  2  1  0
 12  1  1  0
  1 24  1  1
  2  3  1  1
  2 26  1  0
  3 25  1  0
 11  4  1  0
  4 26  1  0
  4 33  1  1
  5  6  1  0
  5 31  1  0
  5 33  1  1
  6  7  1  0
  6 27  1  6
  7  8  1  0
  7 28  1  1
  9  8  1  0
  8 29  1  6
  9 10  1  1
 31  9  1  0
 10 30  1  0
 12 11  1  0
 11 32  1  1
 12 21  1  1
 13 14  2  0
 13 21  1  0
 14 15  1  0
 14 22  1  0
 15 16  2  0
 15 20  1  0
 16 17  1  0
 17 18  2  0
 18 19  1  0
 19 20  2  0
 21 23  1  0
 22 23  2  0
M  END
$$$$
