
     RDKit          3D

 33 36  0  0  0  0  0  0  0  0999 V2000
  -25.4534   10.2733   -2.1238 C   0  0  1  0  0  0  0  0  0  0  0  0
  -24.2849   10.4334   -3.0105 C   0  0  1  0  0  0  0  0  0  0  0  0
  -24.4466   11.7799   -3.7362 C   0  0  0  0  0  0  0  0  0  0  0  0
  -22.8550    9.6089   -1.3826 C   0  0  1  0  0  0  0  0  0  0  0  0
  -20.1166    8.7487   -1.8952 C   0  0  1  0  0  0  0  0  0  0  0  0
  -18.6605    8.9448   -1.6064 C   0  0  1  0  0  0  0  0  0  0  0  0
  -17.9412    7.6709   -2.0220 C   0  0  2  0  0  0  0  0  0  0  0  0
  -18.4438    6.5828   -1.1087 C   0  0  1  0  0  0  0  0  0  0  0  0
  -19.9442    6.5535   -1.1104 C   0  0  1  0  0  0  0  0  0  0  0  0
  -20.5013    6.5386    0.3162 C   0  0  0  0  0  0  0  0  0  0  0  0
  -23.8278   10.0189   -0.2681 C   0  0  1  0  0  0  0  0  0  0  0  0
  -25.1967    9.6416   -0.8030 C   0  0  1  0  0  0  0  0  0  0  0  0
  -27.1772    9.1390    0.6400 C   0  0  0  0  0  0  0  0  0  0  0  0
  -27.9257    9.8417    1.5407 C   0  0  0  0  0  0  0  0  0  0  0  0
  -29.0776    9.3863    2.3152 C   0  0  0  0  0  0  0  0  0  0  0  0
  -29.5747    8.1208    2.1443 C   0  0  0  0  0  0  0  0  0  0  0  0
  -30.6646    7.6585    2.8623 C   0  0  0  0  0  0  0  0  0  0  0  0
  -31.2695    8.4879    3.7737 C   0  0  0  0  0  0  0  0  0  0  0  0
  -30.7692    9.7613    3.9455 C   0  0  0  0  0  0  0  0  0  0  0  0
  -29.6809   10.2219    3.2282 C   0  0  0  0  0  0  0  0  0  0  0  0
  -26.2215    9.9358    0.1643 N   0  0  0  0  0  0  0  0  0  0  0  0
  -27.3895   11.0744    1.5863 N   0  0  0  0  0  0  0  0  0  0  0  0
  -26.3722   11.1070    0.7553 N   0  0  0  0  0  0  0  0  0  0  0  0
  -26.1317   11.4909   -1.8892 O   0  0  0  0  0  0  0  0  0  0  0  0
  -23.8544   11.5750   -5.0019 O   0  0  0  0  0  0  0  0  0  0  0  0
  -23.0604   10.4582   -2.4295 O   0  0  0  0  0  0  0  0  0  0  0  0
  -18.1297   10.0299   -2.3401 O   0  0  0  0  0  0  0  0  0  0  0  0
  -16.5682    7.7949   -1.9719 O   0  0  0  0  0  0  0  0  0  0  0  0
  -17.8707    5.3869   -1.5406 O   0  0  0  0  0  0  0  0  0  0  0  0
  -21.5577    5.6866    0.4710 O   0  0  0  0  0  0  0  0  0  0  0  0
  -20.5504    7.4638   -1.9177 O   0  0  0  0  0  0  0  0  0  0  0  0
  -23.5383    9.3333    0.8982 O   0  0  0  0  0  0  0  0  0  0  0  0
  -21.1441    9.8229   -0.8154 S   0  0  0  0  0  0  0  0  0  0  0  0
  1  2  1  0
 12  1  1  0
  1 24  1  1
  2  3  1  1
  2 26  1  0
  3 25  1  0
 11  4  1  0
  4 26  1  0
  4 33  1  1
  5  6  1  0
  5 31  1  0
  5 33  1  1
  6  7  1  0
  6 27  1  6
  7  8  1  0
  7 28  1  1
  9  8  1  0
  8 29  1  6
  9 10  1  1
 31  9  1  0
 10 30  1  0
 12 11  1  0
 11 32  1  1
 12 21  1  1
 13 14  2  0
 13 21  1  0
 14 15  1  0
 14 22  1  0
 15 16  2  0
 15 20  1  0
 16 17  1  0
 17 18  2  0
 18 19  1  0
 19 20  2  0
 21 23  1  0
 22 23  2  0
M  END
$$$$
