
     RDKit          3D

 33 36  0  0  0  0  0  0  0  0999 V2000
  -25.5645   10.1488   -1.7188 C   0  0  1  0  0  0  0  0  0  0  0  0
  -24.4305   10.2892   -2.6523 C   0  0  1  0  0  0  0  0  0  0  0  0
  -24.6343   11.6066   -3.4195 C   0  0  0  0  0  0  0  0  0  0  0  0
  -22.9335    9.5398   -1.0485 C   0  0  1  0  0  0  0  0  0  0  0  0
  -20.2024    8.7141   -1.6492 C   0  0  1  0  0  0  0  0  0  0  0  0
  -18.7459    8.8350   -1.3231 C   0  0  1  0  0  0  0  0  0  0  0  0
  -18.0735    7.5464   -1.7710 C   0  0  2  0  0  0  0  0  0  0  0  0
  -18.6432    6.4491   -0.9096 C   0  0  1  0  0  0  0  0  0  0  0  0
  -20.1431    6.4863   -0.9435 C   0  0  1  0  0  0  0  0  0  0  0  0
  -20.7322    6.4442    0.4696 C   0  0  0  0  0  0  0  0  0  0  0  0
  -23.8708    9.9794    0.0849 C   0  0  1  0  0  0  0  0  0  0  0  0
  -25.2532    9.5682   -0.3863 C   0  0  1  0  0  0  0  0  0  0  0  0
  -27.2126    9.1142    1.1009 C   0  0  0  0  0  0  0  0  0  0  0  0
  -27.9197    9.8332    2.0220 C   0  0  0  0  0  0  0  0  0  0  0  0
  -29.0654    9.4065    2.8215 C   0  0  0  0  0  0  0  0  0  0  0  0
  -29.5349   10.1937    3.8402 C   0  0  0  0  0  0  0  0  0  0  0  0
  -30.6184    9.8184    4.6165 C   0  0  0  0  0  0  0  0  0  0  0  0
  -31.2448    8.6236    4.3630 C   0  0  0  0  0  0  0  0  0  0  0  0
  -30.7723    7.8316    3.3380 C   0  0  0  0  0  0  0  0  0  0  0  0
  -29.6905    8.2071    2.5634 C   0  0  0  0  0  0  0  0  0  0  0  0
  -26.2463    9.8863    0.6062 N   0  0  0  0  0  0  0  0  0  0  0  0
  -27.3480   11.0501    2.0603 N   0  0  0  0  0  0  0  0  0  0  0  0
  -26.3500   11.0582    1.2057 N   0  0  0  0  0  0  0  0  0  0  0  0
  -26.2487   11.3667   -1.5037 O   0  0  0  0  0  0  0  0  0  0  0  0
  -24.4169   11.2671   -4.7731 O   0  0  0  0  0  0  0  0  0  0  0  0
  -23.1863   10.3483   -2.1171 O   0  0  0  0  0  0  0  0  0  0  0  0
  -18.1522    9.9215   -2.0045 O   0  0  0  0  0  0  0  0  0  0  0  0
  -16.6979    7.6077   -1.6878 O   0  0  0  0  0  0  0  0  0  0  0  0
  -18.1131    5.2455   -1.3738 O   0  0  0  0  0  0  0  0  0  0  0  0
  -21.6129    5.4164    0.6536 O   0  0  0  0  0  0  0  0  0  0  0  0
  -20.6910    7.4513   -1.7286 O   0  0  0  0  0  0  0  0  0  0  0  0
  -23.5315    9.3397    1.2639 O   0  0  0  0  0  0  0  0  0  0  0  0
  -21.2061    9.7927   -0.5516 S   0  0  0  0  0  0  0  0  0  0  0  0
  1  2  1  0
 12  1  1  0
  1 24  1  1
  2  3  1  1
  2 26  1  0
  3 25  1  0
 11  4  1  0
  4 26  1  0
  4 33  1  1
  5  6  1  0
  5 31  1  0
  5 33  1  1
  6  7  1  0
  6 27  1  6
  7  8  1  0
  7 28  1  1
  9  8  1  0
  8 29  1  6
  9 10  1  1
 31  9  1  0
 10 30  1  0
 12 11  1  0
 11 32  1  1
 12 21  1  1
 13 14  2  0
 13 21  1  0
 14 15  1  0
 14 22  1  0
 15 16  2  0
 15 20  1  0
 16 17  1  0
 17 18  2  0
 18 19  1  0
 19 20  2  0
 21 23  1  0
 22 23  2  0
M  END
$$$$
