
     RDKit          3D

 33 36  0  0  0  0  0  0  0  0999 V2000
  -18.8261   12.7587   -3.1380 C   0  0  1  0  0  0  0  0  0  0  0  0
  -19.9301   11.7993   -2.9430 C   0  0  1  0  0  0  0  0  0  0  0  0
  -20.8016   11.8461   -4.2094 C   0  0  0  0  0  0  0  0  0  0  0  0
  -18.4966   10.2434   -1.9949 C   0  0  1  0  0  0  0  0  0  0  0  0
  -19.8595    7.8078   -1.1511 C   0  0  1  0  0  0  0  0  0  0  0  0
  -20.3831    6.6499   -1.9431 C   0  0  1  0  0  0  0  0  0  0  0  0
  -21.2421    5.8133   -1.0075 C   0  0  2  0  0  0  0  0  0  0  0  0
  -20.3127    5.2630    0.0432 C   0  0  1  0  0  0  0  0  0  0  0  0
  -19.5088    6.3707    0.6589 C   0  0  1  0  0  0  0  0  0  0  0  0
  -18.0163    6.0280    0.6811 C   0  0  0  0  0  0  0  0  0  0  0  0
  -17.2915   10.8551   -2.7229 C   0  0  1  0  0  0  0  0  0  0  0  0
  -17.4990   12.3535   -2.6050 C   0  0  1  0  0  0  0  0  0  0  0  0
  -15.6130   13.9949   -2.6858 C   0  0  0  0  0  0  0  0  0  0  0  0
  -14.7184   14.4001   -3.6349 C   0  0  0  0  0  0  0  0  0  0  0  0
  -13.6546   15.3940   -3.5141 C   0  0  0  0  0  0  0  0  0  0  0  0
  -12.8213   15.6531   -4.5706 C   0  0  0  0  0  0  0  0  0  0  0  0
  -11.8037   16.5886   -4.4889 C   0  0  0  0  0  0  0  0  0  0  0  0
  -11.6192   17.2800   -3.3175 C   0  0  0  0  0  0  0  0  0  0  0  0
  -12.4578   17.0191   -2.2544 C   0  0  0  0  0  0  0  0  0  0  0  0
  -13.4735   16.0850   -2.3370 C   0  0  0  0  0  0  0  0  0  0  0  0
  -16.4102   13.0693   -3.2172 N   0  0  0  0  0  0  0  0  0  0  0  0
  -15.0058   13.6915   -4.7414 N   0  0  0  0  0  0  0  0  0  0  0  0
  -16.0205   12.9028   -4.4678 N   0  0  0  0  0  0  0  0  0  0  0  0
  -18.6491   13.1192   -4.4931 O   0  0  0  0  0  0  0  0  0  0  0  0
  -22.0926   12.1746   -3.7407 O   0  0  0  0  0  0  0  0  0  0  0  0
  -19.5991   10.4981   -2.7558 O   0  0  0  0  0  0  0  0  0  0  0  0
  -21.1775    7.0833   -3.0286 O   0  0  0  0  0  0  0  0  0  0  0  0
  -21.9276    4.8138   -1.6663 O   0  0  0  0  0  0  0  0  0  0  0  0
  -21.0990    4.5758    0.9677 O   0  0  0  0  0  0  0  0  0  0  0  0
  -17.3629    6.5448    1.7637 O   0  0  0  0  0  0  0  0  0  0  0  0
  -19.7695    7.6193    0.1891 O   0  0  0  0  0  0  0  0  0  0  0  0
  -16.1127   10.4623   -2.1145 O   0  0  0  0  0  0  0  0  0  0  0  0
  -18.2981    8.4427   -1.8820 S   0  0  0  0  0  0  0  0  0  0  0  0
  1  2  1  0
 12  1  1  0
  1 24  1  6
  2  3  1  6
  2 26  1  0
  3 25  1  0
 11  4  1  0
  4 26  1  0
  4 33  1  6
  5  6  1  0
  5 31  1  0
  5 33  1  6
  6  7  1  0
  6 27  1  6
  7  8  1  0
  7 28  1  6
  9  8  1  0
  8 29  1  1
  9 10  1  6
 31  9  1  0
 10 30  1  0
 12 11  1  0
 11 32  1  1
 12 21  1  6
 13 14  2  0
 13 21  1  0
 14 15  1  0
 14 22  1  0
 15 16  2  0
 15 20  1  0
 16 17  1  0
 17 18  2  0
 18 19  1  0
 19 20  2  0
 21 23  1  0
 22 23  2  0
M  END
$$$$
