
     RDKit          3D

 33 36  0  0  0  0  0  0  0  0999 V2000
  -18.4354   12.4857   -4.3828 C   0  0  1  0  0  0  0  0  0  0  0  0
  -19.0669   11.1531   -4.4344 C   0  0  1  0  0  0  0  0  0  0  0  0
  -18.4251   10.3914   -5.6063 C   0  0  0  0  0  0  0  0  0  0  0  0
  -19.0054   10.9632   -2.1246 C   0  0  1  0  0  0  0  0  0  0  0  0
  -19.4217    8.1217   -1.6206 C   0  0  1  0  0  0  0  0  0  0  0  0
  -18.8818    6.9314   -0.8898 C   0  0  1  0  0  0  0  0  0  0  0  0
  -19.8429    5.7777   -1.1319 C   0  0  2  0  0  0  0  0  0  0  0  0
  -21.1430    6.1639   -0.4752 C   0  0  1  0  0  0  0  0  0  0  0  0
  -21.5760    7.5243   -0.9378 C   0  0  1  0  0  0  0  0  0  0  0  0
  -21.9404    8.4242    0.2466 C   0  0  0  0  0  0  0  0  0  0  0  0
  -17.8320   11.9491   -2.0379 C   0  0  1  0  0  0  0  0  0  0  0  0
  -18.1833   13.0435   -3.0283 C   0  0  1  0  0  0  0  0  0  0  0  0
  -17.3345   15.3960   -3.0785 C   0  0  0  0  0  0  0  0  0  0  0  0
  -16.1022   15.9844   -3.0552 C   0  0  0  0  0  0  0  0  0  0  0  0
  -15.7749   17.4076   -3.0921 C   0  0  0  0  0  0  0  0  0  0  0  0
  -16.7683   18.3481   -3.1728 C   0  0  0  0  0  0  0  0  0  0  0  0
  -16.4919   19.7044   -3.2096 C   0  0  0  0  0  0  0  0  0  0  0  0
  -15.1862   20.1255   -3.1642 C   0  0  0  0  0  0  0  0  0  0  0  0
  -14.1868   19.1790   -3.0829 C   0  0  0  0  0  0  0  0  0  0  0  0
  -14.4637   17.8251   -3.0462 C   0  0  0  0  0  0  0  0  0  0  0  0
  -17.1782   14.0741   -3.0281 N   0  0  0  0  0  0  0  0  0  0  0  0
  -15.2123   14.9779   -2.9898 N   0  0  0  0  0  0  0  0  0  0  0  0
  -15.8787   13.8455   -2.9747 N   0  0  0  0  0  0  0  0  0  0  0  0
  -17.2188   12.5414   -5.0999 O   0  0  0  0  0  0  0  0  0  0  0  0
  -19.4858    9.6502   -6.1722 O   0  0  0  0  0  0  0  0  0  0  0  0
  -18.9340   10.3579   -3.3445 O   0  0  0  0  0  0  0  0  0  0  0  0
  -17.6021    6.5685   -1.3673 O   0  0  0  0  0  0  0  0  0  0  0  0
  -19.3609    4.5756   -0.6572 O   0  0  0  0  0  0  0  0  0  0  0  0
  -22.0670    5.1626   -0.7733 O   0  0  0  0  0  0  0  0  0  0  0  0
  -23.0201    9.2240    0.0009 O   0  0  0  0  0  0  0  0  0  0  0  0
  -20.7597    8.1264   -1.8427 O   0  0  0  0  0  0  0  0  0  0  0  0
  -17.7207   12.4513   -0.7535 O   0  0  0  0  0  0  0  0  0  0  0  0
  -18.8272    9.6811   -0.8522 S   0  0  0  0  0  0  0  0  0  0  0  0
  1  2  1  0
 12  1  1  0
  1 24  1  1
  2  3  1  6
  2 26  1  0
  3 25  1  0
 11  4  1  0
  4 26  1  0
  4 33  1  1
  5  6  1  0
  5 31  1  0
  5 33  1  1
  6  7  1  0
  6 27  1  6
  7  8  1  0
  7 28  1  1
  9  8  1  0
  8 29  1  6
  9 10  1  1
 31  9  1  0
 10 30  1  0
 12 11  1  0
 11 32  1  1
 12 21  1  6
 13 14  2  0
 13 21  1  0
 14 15  1  0
 14 22  1  0
 15 16  2  0
 15 20  1  0
 16 17  1  0
 17 18  2  0
 18 19  1  0
 19 20  2  0
 21 23  1  0
 22 23  2  0
M  END
$$$$
