
     RDKit          3D

 33 36  0  0  0  0  0  0  0  0999 V2000
  -25.2801   10.0564   -1.9770 C   0  0  1  0  0  0  0  0  0  0  0  0
  -24.1607    9.9758   -2.9350 C   0  0  1  0  0  0  0  0  0  0  0  0
  -24.2551   11.2094   -3.8487 C   0  0  0  0  0  0  0  0  0  0  0  0
  -22.7045    9.2728   -1.2736 C   0  0  1  0  0  0  0  0  0  0  0  0
  -20.0641    8.2078   -1.9026 C   0  0  1  0  0  0  0  0  0  0  0  0
  -18.5816    8.3523   -1.7485 C   0  0  1  0  0  0  0  0  0  0  0  0
  -17.9560    7.0164   -2.1187 C   0  0  2  0  0  0  0  0  0  0  0  0
  -18.4267    6.0265   -1.0848 C   0  0  1  0  0  0  0  0  0  0  0  0
  -19.9218    6.0720   -0.9632 C   0  0  1  0  0  0  0  0  0  0  0  0
  -20.3570    6.1922    0.5003 C   0  0  0  0  0  0  0  0  0  0  0  0
  -23.5675    9.9304   -0.1876 C   0  0  1  0  0  0  0  0  0  0  0  0
  -24.9940    9.6057   -0.5897 C   0  0  1  0  0  0  0  0  0  0  0  0
  -26.9823    9.5377    0.9266 C   0  0  0  0  0  0  0  0  0  0  0  0
  -27.5804   10.4170    1.7836 C   0  0  0  0  0  0  0  0  0  0  0  0
  -28.7649   10.2121    2.6138 C   0  0  0  0  0  0  0  0  0  0  0  0
  -28.9006    9.0731    3.3635 C   0  0  0  0  0  0  0  0  0  0  0  0
  -30.0104    8.8485    4.1605 C   0  0  0  0  0  0  0  0  0  0  0  0
  -31.0074    9.7909    4.2050 C   0  0  0  0  0  0  0  0  0  0  0  0
  -30.8708   10.9369    3.4506 C   0  0  0  0  0  0  0  0  0  0  0  0
  -29.7624   11.1604    2.6551 C   0  0  0  0  0  0  0  0  0  0  0  0
  -25.9277   10.1324    0.3711 N   0  0  0  0  0  0  0  0  0  0  0  0
  -26.8536   11.5471    1.7218 N   0  0  0  0  0  0  0  0  0  0  0  0
  -25.8711   11.3533    0.8711 N   0  0  0  0  0  0  0  0  0  0  0  0
  -25.8384   11.3524   -1.8975 O   0  0  0  0  0  0  0  0  0  0  0  0
  -24.1818   10.6878   -5.1591 O   0  0  0  0  0  0  0  0  0  0  0  0
  -22.9041    9.9734   -2.4263 O   0  0  0  0  0  0  0  0  0  0  0  0
  -18.0679    9.3514   -2.6059 O   0  0  0  0  0  0  0  0  0  0  0  0
  -16.5796    7.0753   -2.1894 O   0  0  0  0  0  0  0  0  0  0  0  0
  -17.9446    4.7744   -1.4655 O   0  0  0  0  0  0  0  0  0  0  0  0
  -21.6128    5.7057    0.7286 O   0  0  0  0  0  0  0  0  0  0  0  0
  -20.5537    6.9481   -1.7884 O   0  0  0  0  0  0  0  0  0  0  0  0
  -23.2630    9.4009    1.0537 O   0  0  0  0  0  0  0  0  0  0  0  0
  -20.9494    9.4100   -0.8318 S   0  0  0  0  0  0  0  0  0  0  0  0
  1  2  1  0
 12  1  1  0
  1 24  1  1
  2  3  1  6
  2 26  1  0
  3 25  1  0
 11  4  1  0
  4 26  1  0
  4 33  1  1
  5  6  1  0
  5 31  1  0
  5 33  1  1
  6  7  1  0
  6 27  1  6
  7  8  1  0
  7 28  1  1
  9  8  1  0
  8 29  1  6
  9 10  1  1
 31  9  1  0
 10 30  1  0
 12 11  1  0
 11 32  1  1
 12 21  1  1
 13 14  2  0
 13 21  1  0
 14 15  1  0
 14 22  1  0
 15 16  2  0
 15 20  1  0
 16 17  1  0
 17 18  2  0
 18 19  1  0
 19 20  2  0
 21 23  1  0
 22 23  2  0
M  END
$$$$
