
     RDKit          3D

 33 36  0  0  0  0  0  0  0  0999 V2000
  -16.4665   11.8677   -2.8316 C   0  0  1  0  0  0  0  0  0  0  0  0
  -17.9026   11.8980   -3.1695 C   0  0  1  0  0  0  0  0  0  0  0  0
  -18.0307   12.5666   -4.5486 C   0  0  0  0  0  0  0  0  0  0  0  0
  -18.2060    9.7491   -2.3538 C   0  0  1  0  0  0  0  0  0  0  0  0
  -20.5924    8.3370   -1.4524 C   0  0  1  0  0  0  0  0  0  0  0  0
  -21.8264    7.6931   -2.0049 C   0  0  1  0  0  0  0  0  0  0  0  0
  -22.6544    7.2135   -0.8227 C   0  0  2  0  0  0  0  0  0  0  0  0
  -21.8441    6.1384   -0.1457 C   0  0  1  0  0  0  0  0  0  0  0  0
  -20.4588    6.6364    0.1459 C   0  0  1  0  0  0  0  0  0  0  0  0
  -19.3979    5.6436   -0.3384 C   0  0  0  0  0  0  0  0  0  0  0  0
  -16.7255    9.4138   -2.5818 C   0  0  1  0  0  0  0  0  0  0  0  0
  -15.9816   10.6542   -2.1232 C   0  0  1  0  0  0  0  0  0  0  0  0
  -13.6068   10.6917   -1.3383 C   0  0  0  0  0  0  0  0  0  0  0  0
  -12.3971   10.3776   -1.8890 C   0  0  0  0  0  0  0  0  0  0  0  0
  -11.0728   10.4593   -1.2778 C   0  0  0  0  0  0  0  0  0  0  0  0
   -9.9437   10.3724   -2.0494 C   0  0  0  0  0  0  0  0  0  0  0  0
   -8.6742   10.4460   -1.5015 C   0  0  0  0  0  0  0  0  0  0  0  0
   -8.5362   10.6109   -0.1457 C   0  0  0  0  0  0  0  0  0  0  0  0
   -9.6724   10.6983    0.6306 C   0  0  0  0  0  0  0  0  0  0  0  0
  -10.9395   10.6247    0.0826 C   0  0  0  0  0  0  0  0  0  0  0  0
  -14.5590   10.4699   -2.2432 N   0  0  0  0  0  0  0  0  0  0  0  0
  -12.6567    9.9643   -3.1424 N   0  0  0  0  0  0  0  0  0  0  0  0
  -13.9554   10.0281   -3.3314 N   0  0  0  0  0  0  0  0  0  0  0  0
  -15.6363   12.0636   -3.9585 O   0  0  0  0  0  0  0  0  0  0  0  0
  -19.4145   12.8041   -4.7015 O   0  0  0  0  0  0  0  0  0  0  0  0
  -18.5464   10.7085   -3.2612 O   0  0  0  0  0  0  0  0  0  0  0  0
  -22.5938    8.6092   -2.7593 O   0  0  0  0  0  0  0  0  0  0  0  0
  -23.9030    6.7619   -1.1965 O   0  0  0  0  0  0  0  0  0  0  0  0
  -22.5431    5.7573    0.9995 O   0  0  0  0  0  0  0  0  0  0  0  0
  -18.4713    5.3393    0.6180 O   0  0  0  0  0  0  0  0  0  0  0  0
  -20.2047    7.9204   -0.2213 O   0  0  0  0  0  0  0  0  0  0  0  0
  -16.3634    8.3068   -1.8353 O   0  0  0  0  0  0  0  0  0  0  0  0
  -19.2261    8.2835   -2.6795 S   0  0  0  0  0  0  0  0  0  0  0  0
  1  2  1  0
 12  1  1  0
  1 24  1  6
  2  3  1  6
  2 26  1  0
  3 25  1  0
 11  4  1  0
  4 26  1  0
  4 33  1  6
  5  6  1  0
  5 31  1  0
  5 33  1  6
  6  7  1  0
  6 27  1  1
  7  8  1  0
  7 28  1  6
  9  8  1  0
  8 29  1  1
  9 10  1  6
 31  9  1  0
 10 30  1  0
 12 11  1  0
 11 32  1  1
 12 21  1  6
 13 14  2  0
 13 21  1  0
 14 15  1  0
 14 22  1  0
 15 16  2  0
 15 20  1  0
 16 17  1  0
 17 18  2  0
 18 19  1  0
 19 20  2  0
 21 23  1  0
 22 23  2  0
M  END
$$$$
