
     RDKit          3D

 33 36  0  0  0  0  0  0  0  0999 V2000
  -25.3296   10.1960   -1.8813 C   0  0  1  0  0  0  0  0  0  0  0  0
  -24.1468   10.2885   -2.7587 C   0  0  1  0  0  0  0  0  0  0  0  0
  -24.2360   11.6326   -3.5011 C   0  0  0  0  0  0  0  0  0  0  0  0
  -22.7735    9.4144   -1.1080 C   0  0  1  0  0  0  0  0  0  0  0  0
  -20.0682    8.4532   -1.6167 C   0  0  1  0  0  0  0  0  0  0  0  0
  -18.6054    8.6091   -1.3368 C   0  0  1  0  0  0  0  0  0  0  0  0
  -17.9234    7.3175   -1.7608 C   0  0  2  0  0  0  0  0  0  0  0  0
  -18.4493    6.2406   -0.8475 C   0  0  1  0  0  0  0  0  0  0  0  0
  -19.9500    6.2517   -0.8395 C   0  0  1  0  0  0  0  0  0  0  0  0
  -20.4982    6.2473    0.5905 C   0  0  0  0  0  0  0  0  0  0  0  0
  -23.7350    9.8844   -0.0075 C   0  0  1  0  0  0  0  0  0  0  0  0
  -25.1159    9.5681   -0.5511 C   0  0  1  0  0  0  0  0  0  0  0  0
  -27.1252    9.1764    0.8864 C   0  0  0  0  0  0  0  0  0  0  0  0
  -27.8494    9.9268    1.7683 C   0  0  0  0  0  0  0  0  0  0  0  0
  -29.0245    9.5350    2.5426 C   0  0  0  0  0  0  0  0  0  0  0  0
  -29.4883    8.2463    2.4993 C   0  0  0  0  0  0  0  0  0  0  0  0
  -30.5990    7.8426    3.2209 C   0  0  0  0  0  0  0  0  0  0  0  0
  -31.2593    8.7559    4.0046 C   0  0  0  0  0  0  0  0  0  0  0  0
  -30.7925   10.0526    4.0481 C   0  0  0  0  0  0  0  0  0  0  0  0
  -29.6835   10.4547    3.3273 C   0  0  0  0  0  0  0  0  0  0  0  0
  -26.1337    9.9233    0.4030 N   0  0  0  0  0  0  0  0  0  0  0  0
  -27.2619   11.1366    1.7950 N   0  0  0  0  0  0  0  0  0  0  0  0
  -26.2388   11.1107    0.9711 N   0  0  0  0  0  0  0  0  0  0  0  0
  -25.9496   11.4479   -1.6670 O   0  0  0  0  0  0  0  0  0  0  0  0
  -23.9796   11.3103   -4.8520 O   0  0  0  0  0  0  0  0  0  0  0  0
  -22.9277   10.2603   -2.1663 O   0  0  0  0  0  0  0  0  0  0  0  0
  -18.0503    9.6818   -2.0706 O   0  0  0  0  0  0  0  0  0  0  0  0
  -16.5474    7.4044   -1.7193 O   0  0  0  0  0  0  0  0  0  0  0  0
  -17.9115    5.0310   -1.2867 O   0  0  0  0  0  0  0  0  0  0  0  0
  -21.7653    5.7448    0.6782 O   0  0  0  0  0  0  0  0  0  0  0  0
  -20.5366    7.1806   -1.6401 O   0  0  0  0  0  0  0  0  0  0  0  0
  -23.4899    9.1992    1.1692 O   0  0  0  0  0  0  0  0  0  0  0  0
  -21.0594    9.5513   -0.5270 S   0  0  0  0  0  0  0  0  0  0  0  0
  1  2  1  0
 12  1  1  0
  1 24  1  1
  2  3  1  1
  2 26  1  0
  3 25  1  0
 11  4  1  0
  4 26  1  0
  4 33  1  1
  5  6  1  0
  5 31  1  0
  5 33  1  1
  6  7  1  0
  6 27  1  6
  7  8  1  0
  7 28  1  1
  9  8  1  0
  8 29  1  6
  9 10  1  1
 31  9  1  0
 10 30  1  0
 12 11  1  0
 11 32  1  1
 12 21  1  1
 13 14  2  0
 13 21  1  0
 14 15  1  0
 14 22  1  0
 15 16  2  0
 15 20  1  0
 16 17  1  0
 17 18  2  0
 18 19  1  0
 19 20  2  0
 21 23  1  0
 22 23  2  0
M  END
$$$$
