
     RDKit          3D

 33 36  0  0  0  0  0  0  0  0999 V2000
  -21.9757   13.1823   -2.3330 C   0  0  1  0  0  0  0  0  0  0  0  0
  -22.7340   11.9204   -2.2337 C   0  0  1  0  0  0  0  0  0  0  0  0
  -23.9029   12.0135   -3.2291 C   0  0  0  0  0  0  0  0  0  0  0  0
  -20.7792   10.6800   -2.1106 C   0  0  1  0  0  0  0  0  0  0  0  0
  -20.2728    7.9904   -1.1050 C   0  0  1  0  0  0  0  0  0  0  0  0
  -20.7380    6.6140   -1.4675 C   0  0  1  0  0  0  0  0  0  0  0  0
  -20.2369    5.6679   -0.3872 C   0  0  2  0  0  0  0  0  0  0  0  0
  -18.7328    5.6788   -0.4783 C   0  0  1  0  0  0  0  0  0  0  0  0
  -18.2194    7.0886   -0.4457 C   0  0  1  0  0  0  0  0  0  0  0  0
  -17.2270    7.3452   -1.5836 C   0  0  0  0  0  0  0  0  0  0  0  0
  -19.9911   11.7815   -2.8332 C   0  0  1  0  0  0  0  0  0  0  0  0
  -20.4976   13.0736   -2.2198 C   0  0  1  0  0  0  0  0  0  0  0  0
  -19.2976   15.2675   -2.1560 C   0  0  0  0  0  0  0  0  0  0  0  0
  -18.7377   16.0954   -3.0868 C   0  0  0  0  0  0  0  0  0  0  0  0
  -18.0591   17.3717   -2.8754 C   0  0  0  0  0  0  0  0  0  0  0  0
  -17.9223   17.8862   -1.6127 C   0  0  0  0  0  0  0  0  0  0  0  0
  -17.2848   19.0928   -1.3783 C   0  0  0  0  0  0  0  0  0  0  0  0
  -16.7726   19.7990   -2.4380 C   0  0  0  0  0  0  0  0  0  0  0  0
  -16.9102   19.2812   -3.7085 C   0  0  0  0  0  0  0  0  0  0  0  0
  -17.5469   18.0764   -3.9416 C   0  0  0  0  0  0  0  0  0  0  0  0
  -19.8106   14.2081   -2.7797 N   0  0  0  0  0  0  0  0  0  0  0  0
  -18.9320   15.4998   -4.2771 N   0  0  0  0  0  0  0  0  0  0  0  0
  -19.5753   14.3732   -4.0685 N   0  0  0  0  0  0  0  0  0  0  0  0
  -22.2608   13.8989   -3.5174 O   0  0  0  0  0  0  0  0  0  0  0  0
  -24.9765   11.3668   -2.5782 O   0  0  0  0  0  0  0  0  0  0  0  0
  -22.0747   10.7725   -2.5261 O   0  0  0  0  0  0  0  0  0  0  0  0
  -22.1485    6.5423   -1.5200 O   0  0  0  0  0  0  0  0  0  0  0  0
  -20.7534    4.3952   -0.5137 O   0  0  0  0  0  0  0  0  0  0  0  0
  -18.2522    4.8950    0.5704 O   0  0  0  0  0  0  0  0  0  0  0  0
  -16.5006    8.4896   -1.4146 O   0  0  0  0  0  0  0  0  0  0  0  0
  -19.1653    8.0575   -0.3250 O   0  0  0  0  0  0  0  0  0  0  0  0
  -18.6340   11.6215   -2.6171 O   0  0  0  0  0  0  0  0  0  0  0  0
  -20.1491    9.0500   -2.6009 S   0  0  0  0  0  0  0  0  0  0  0  0
  1  2  1  0
 12  1  1  0
  1 24  1  6
  2  3  1  6
  2 26  1  0
  3 25  1  0
 11  4  1  0
  4 26  1  0
  4 33  1  6
  5  6  1  0
  5 31  1  0
  5 33  1  6
  6  7  1  0
  6 27  1  1
  7  8  1  0
  7 28  1  6
  9  8  1  0
  8 29  1  1
  9 10  1  6
 31  9  1  0
 10 30  1  0
 12 11  1  0
 11 32  1  1
 12 21  1  6
 13 14  2  0
 13 21  1  0
 14 15  1  0
 14 22  1  0
 15 16  2  0
 15 20  1  0
 16 17  1  0
 17 18  2  0
 18 19  1  0
 19 20  2  0
 21 23  1  0
 22 23  2  0
M  END
$$$$
