
     RDKit          3D

 33 36  0  0  0  0  0  0  0  0999 V2000
  -18.4221    6.6786   -1.2931 C   0  0  1  0  0  0  0  0  0  0  0  0
  -19.8418    6.5185   -0.9239 C   0  0  1  0  0  0  0  0  0  0  0  0
  -19.8833    5.6953    0.3746 C   0  0  0  0  0  0  0  0  0  0  0  0
  -20.3032    8.7199   -1.4860 C   0  0  1  0  0  0  0  0  0  0  0  0
  -23.1120    9.4676   -1.2555 C   0  0  1  0  0  0  0  0  0  0  0  0
  -24.0485   10.0289   -0.2306 C   0  0  1  0  0  0  0  0  0  0  0  0
  -25.4409   10.0299   -0.8424 C   0  0  2  0  0  0  0  0  0  0  0  0
  -25.3963   10.9975   -1.9967 C   0  0  1  0  0  0  0  0  0  0  0  0
  -24.2489   10.6698   -2.9067 C   0  0  1  0  0  0  0  0  0  0  0  0
  -23.4121   11.9146   -3.2163 C   0  0  0  0  0  0  0  0  0  0  0  0
  -18.8394    9.1231   -1.2600 C   0  0  1  0  0  0  0  0  0  0  0  0
  -18.0362    7.9915   -1.8735 C   0  0  1  0  0  0  0  0  0  0  0  0
  -15.6933    8.2113   -2.7221 C   0  0  0  0  0  0  0  0  0  0  0  0
  -14.4866    8.5328   -2.1694 C   0  0  0  0  0  0  0  0  0  0  0  0
  -13.1825    8.6172   -2.8225 C   0  0  0  0  0  0  0  0  0  0  0  0
  -13.0604    8.3770   -4.1660 C   0  0  0  0  0  0  0  0  0  0  0  0
  -11.8395    8.4487   -4.8152 C   0  0  0  0  0  0  0  0  0  0  0  0
  -10.7145    8.7694   -4.0969 C   0  0  0  0  0  0  0  0  0  0  0  0
  -10.8375    9.0110   -2.7450 C   0  0  0  0  0  0  0  0  0  0  0  0
  -12.0570    8.9392   -2.0978 C   0  0  0  0  0  0  0  0  0  0  0  0
  -16.6243    8.2532   -1.7703 N   0  0  0  0  0  0  0  0  0  0  0  0
  -14.7262    8.7660   -0.8665 N   0  0  0  0  0  0  0  0  0  0  0  0
  -16.0108    8.5929   -0.6514 N   0  0  0  0  0  0  0  0  0  0  0  0
  -17.5450    6.4141   -0.2169 O   0  0  0  0  0  0  0  0  0  0  0  0
  -21.0585    4.9195    0.2663 O   0  0  0  0  0  0  0  0  0  0  0  0
  -20.5541    7.6465   -0.6832 O   0  0  0  0  0  0  0  0  0  0  0  0
  -24.0645    9.2399    0.9418 O   0  0  0  0  0  0  0  0  0  0  0  0
  -26.4222   10.3579    0.0698 O   0  0  0  0  0  0  0  0  0  0  0  0
  -26.6363   10.9360   -2.6322 O   0  0  0  0  0  0  0  0  0  0  0  0
  -22.7628   11.8403   -4.4158 O   0  0  0  0  0  0  0  0  0  0  0  0
  -23.5020    9.5920   -2.5486 O   0  0  0  0  0  0  0  0  0  0  0  0
  -18.5706   10.3267   -1.8871 O   0  0  0  0  0  0  0  0  0  0  0  0
  -21.4002   10.0717   -0.9722 S   0  0  0  0  0  0  0  0  0  0  0  0
  1  2  1  0
 12  1  1  0
  1 24  1  1
  2  3  1  1
  2 26  1  0
  3 25  1  0
 11  4  1  0
  4 26  1  0
  4 33  1  1
  5  6  1  0
  5 31  1  0
  5 33  1  6
  6  7  1  0
  6 27  1  1
  7  8  1  0
  7 28  1  1
  9  8  1  0
  8 29  1  6
  9 10  1  1
 31  9  1  0
 10 30  1  0
 12 11  1  0
 11 32  1  6
 12 21  1  1
 13 14  2  0
 13 21  1  0
 14 15  1  0
 14 22  1  0
 15 16  2  0
 15 20  1  0
 16 17  1  0
 17 18  2  0
 18 19  1  0
 19 20  2  0
 21 23  1  0
 22 23  2  0
M  END
$$$$
