
     RDKit          3D

 22 25  0  0  0  0  0  0  0  0999 V2000
  -22.8115   19.1530  -14.0755 C   0  0  0  0  0  0  0  0  0  0  0  0
  -23.3512   20.5575   -9.9053 C   0  0  0  0  0  0  0  0  0  0  0  0
  -22.8582   22.9194  -10.0013 C   0  0  0  0  0  0  0  0  0  0  0  0
  -23.1151   20.5644   -8.5514 C   0  0  0  0  0  0  0  0  0  0  0  0
  -24.5555   19.8118  -12.8342 C   0  0  0  0  0  0  0  0  0  0  0  0
  -24.0934   19.7104  -14.1285 C   0  0  0  0  0  0  0  0  0  0  0  0
  -16.4643   16.4641  -10.7957 N   0  0  0  0  0  0  0  0  0  0  0  0
  -17.3687   16.7739  -11.8494 C   0  0  0  0  0  0  0  0  0  0  0  0
  -17.1948   16.5230  -13.1697 N   0  0  0  0  0  0  0  0  0  0  0  0
  -18.2249   16.9390  -13.8669 N   0  0  0  0  0  0  0  0  0  0  0  0
  -19.1268   17.4833  -13.0448 C   0  0  0  0  0  0  0  0  0  0  0  0
  -18.5992   17.3850  -11.7743 C   0  0  0  0  0  0  0  0  0  0  0  0
  -20.4201   18.0697  -13.4105 C   0  0  0  0  0  0  0  0  0  0  0  0
  -20.6986   18.2910  -14.7425 C   0  0  0  0  0  0  0  0  0  0  0  0
  -21.9148   18.8411  -15.0687 C   0  0  0  0  0  0  0  0  0  0  0  0
  -22.5610   18.9435  -12.7395 C   0  0  0  0  0  0  0  0  0  0  0  0
  -21.3288   18.3882  -12.4354 C   0  0  0  0  0  0  0  0  0  0  0  0
  -23.6133   19.3417  -11.9992 N   0  0  0  0  0  0  0  0  0  0  0  0
  -23.7377   19.2867  -10.5547 C   0  0  0  0  0  0  0  0  0  0  0  0
  -23.2238   21.7240  -10.6220 C   0  0  0  0  0  0  0  0  0  0  0  0
  -22.6185   22.9321   -8.6339 C   0  0  0  0  0  0  0  0  0  0  0  0
  -22.7480   21.7639   -7.9268 C   0  0  0  0  0  0  0  0  0  0  0  0
  1  6  1  0
  1 15  2  0
 16  1  1  0
  2  4  2  0
 19  2  1  0
  2 20  1  0
 20  3  2  0
  3 21  1  0
  4 22  1  0
  5  6  2  0
 18  5  1  0
  8  7  1  0
  8  9  1  0
 12  8  2  0
 10  9  1  0
 11 10  2  0
 11 12  1  0
 13 11  1  0
 13 14  2  0
 17 13  1  0
 15 14  1  0
 16 17  2  0
 18 16  1  0
 18 19  1  0
 21 22  2  0
M  END
$$$$
