
     RDKit          3D

 22 25  0  0  0  0  0  0  0  0999 V2000
  -19.6511   17.2155  -17.9134 C   0  0  0  0  0  0  0  0  0  0  0  0
  -20.2876   17.2733  -13.4999 C   0  0  0  0  0  0  0  0  0  0  0  0
  -20.8538   16.1416  -11.4433 C   0  0  0  0  0  0  0  0  0  0  0  0
  -21.5693   17.0811  -13.9572 C   0  0  0  0  0  0  0  0  0  0  0  0
  -20.6000   18.5717  -16.4045 C   0  0  0  0  0  0  0  0  0  0  0  0
  -20.6301   18.1978  -17.7305 C   0  0  0  0  0  0  0  0  0  0  0  0
  -14.3678   11.7616  -18.7376 N   0  0  0  0  0  0  0  0  0  0  0  0
  -15.1182   12.7777  -18.0830 C   0  0  0  0  0  0  0  0  0  0  0  0
  -14.9666   13.2048  -16.8059 N   0  0  0  0  0  0  0  0  0  0  0  0
  -15.8238   14.1566  -16.5236 N   0  0  0  0  0  0  0  0  0  0  0  0
  -16.5811   14.4044  -17.5962 C   0  0  0  0  0  0  0  0  0  0  0  0
  -16.1465   13.5436  -18.5823 C   0  0  0  0  0  0  0  0  0  0  0  0
  -17.6598   15.3910  -17.7113 C   0  0  0  0  0  0  0  0  0  0  0  0
  -18.2575   15.5847  -18.9384 C   0  0  0  0  0  0  0  0  0  0  0  0
  -19.2667   16.5127  -19.0298 C   0  0  0  0  0  0  0  0  0  0  0  0
  -19.0732   17.0435  -16.6773 C   0  0  0  0  0  0  0  0  0  0  0  0
  -18.0584   16.1028  -16.6101 C   0  0  0  0  0  0  0  0  0  0  0  0
  -19.6483   17.8616  -15.7751 N   0  0  0  0  0  0  0  0  0  0  0  0
  -19.3203   17.9796  -14.3668 C   0  0  0  0  0  0  0  0  0  0  0  0
  -19.9345   16.8077  -12.2553 C   0  0  0  0  0  0  0  0  0  0  0  0
  -22.1499   15.9448  -11.9002 C   0  0  0  0  0  0  0  0  0  0  0  0
  -22.4933   16.4125  -13.1431 C   0  0  0  0  0  0  0  0  0  0  0  0
  1  6  1  0
  1 15  2  0
 16  1  1  0
  2  4  2  0
 19  2  1  0
  2 20  1  0
 20  3  2  0
  3 21  1  0
  4 22  1  0
  5  6  2  0
 18  5  1  0
  8  7  1  0
  8  9  1  0
 12  8  2  0
 10  9  1  0
 11 10  2  0
 11 12  1  0
 13 11  1  0
 13 14  2  0
 17 13  1  0
 15 14  1  0
 16 17  2  0
 18 16  1  0
 18 19  1  0
 21 22  2  0
M  END
$$$$
