
     RDKit          3D

 22 25  0  0  0  0  0  0  0  0999 V2000
  -23.6916   18.3877  -12.0368 C   0  0  0  0  0  0  0  0  0  0  0  0
  -22.7325   22.4137  -10.1277 C   0  0  0  0  0  0  0  0  0  0  0  0
  -23.8785   24.1358   -8.8820 C   0  0  0  0  0  0  0  0  0  0  0  0
  -22.1800   21.9398   -8.9620 C   0  0  0  0  0  0  0  0  0  0  0  0
  -24.4795   20.3822  -11.3907 C   0  0  0  0  0  0  0  0  0  0  0  0
  -24.8466   19.0818  -11.6614 C   0  0  0  0  0  0  0  0  0  0  0  0
  -16.3149   17.4742  -13.7758 N   0  0  0  0  0  0  0  0  0  0  0  0
  -17.6600   17.0919  -13.5133 C   0  0  0  0  0  0  0  0  0  0  0  0
  -18.1644   15.8342  -13.5250 N   0  0  0  0  0  0  0  0  0  0  0  0
  -19.4444   15.8384  -13.2388 N   0  0  0  0  0  0  0  0  0  0  0  0
  -19.8473   17.0943  -13.0247 C   0  0  0  0  0  0  0  0  0  0  0  0
  -18.7340   17.8906  -13.1946 C   0  0  0  0  0  0  0  0  0  0  0  0
  -21.1990   17.5451  -12.6784 C   0  0  0  0  0  0  0  0  0  0  0  0
  -22.2376   16.6402  -12.7330 C   0  0  0  0  0  0  0  0  0  0  0  0
  -23.4981   17.0782  -12.4055 C   0  0  0  0  0  0  0  0  0  0  0  0
  -22.6751   19.3119  -11.9735 C   0  0  0  0  0  0  0  0  0  0  0  0
  -21.4138   18.8469  -12.3081 C   0  0  0  0  0  0  0  0  0  0  0  0
  -23.1557   20.5085  -11.5846 N   0  0  0  0  0  0  0  0  0  0  0  0
  -22.4035   21.7352  -11.3995 C   0  0  0  0  0  0  0  0  0  0  0  0
  -23.5732   23.5009  -10.0869 C   0  0  0  0  0  0  0  0  0  0  0  0
  -23.3231   23.6613   -7.7015 C   0  0  0  0  0  0  0  0  0  0  0  0
  -22.4855   22.5762   -7.7516 C   0  0  0  0  0  0  0  0  0  0  0  0
  1  6  1  0
  1 15  2  0
 16  1  1  0
  2  4  2  0
 19  2  1  0
  2 20  1  0
 20  3  2  0
  3 21  1  0
  4 22  1  0
  5  6  2  0
 18  5  1  0
  8  7  1  0
  8  9  1  0
 12  8  2  0
 10  9  1  0
 11 10  2  0
 11 12  1  0
 13 11  1  0
 13 14  2  0
 17 13  1  0
 15 14  1  0
 16 17  2  0
 18 16  1  0
 18 19  1  0
 21 22  2  0
M  END
$$$$
