
     RDKit          3D

 22 25  0  0  0  0  0  0  0  0999 V2000
  -13.0035    7.7494  -28.4760 C   0  0  0  0  0  0  0  0  0  0  0  0
   -9.6039    5.0164  -27.9345 C   0  0  0  0  0  0  0  0  0  0  0  0
  -10.5512    3.1049  -26.8034 C   0  0  0  0  0  0  0  0  0  0  0  0
   -8.3775    4.7339  -27.3823 C   0  0  0  0  0  0  0  0  0  0  0  0
  -11.9693    6.3422  -29.8783 C   0  0  0  0  0  0  0  0  0  0  0  0
  -13.1623    6.9893  -29.6395 C   0  0  0  0  0  0  0  0  0  0  0  0
  -12.0618   11.6511  -21.9777 N   0  0  0  0  0  0  0  0  0  0  0  0
  -11.6922   10.8735  -23.1104 C   0  0  0  0  0  0  0  0  0  0  0  0
  -10.4472   10.4446  -23.4303 N   0  0  0  0  0  0  0  0  0  0  0  0
  -10.4608    9.7499  -24.5428 N   0  0  0  0  0  0  0  0  0  0  0  0
  -11.7106    9.6858  -25.0109 C   0  0  0  0  0  0  0  0  0  0  0  0
  -12.4931   10.3886  -24.1186 C   0  0  0  0  0  0  0  0  0  0  0  0
  -12.1682    9.0072  -26.2277 C   0  0  0  0  0  0  0  0  0  0  0  0
  -13.4596    9.2170  -26.6621 C   0  0  0  0  0  0  0  0  0  0  0  0
  -13.8731    8.5740  -27.8038 C   0  0  0  0  0  0  0  0  0  0  0  0
  -11.7105    7.5215  -28.0663 C   0  0  0  0  0  0  0  0  0  0  0  0
  -11.3168    8.1805  -26.9132 C   0  0  0  0  0  0  0  0  0  0  0  0
  -11.0947    6.6748  -28.9136 N   0  0  0  0  0  0  0  0  0  0  0  0
   -9.7306    6.1884  -28.8269 C   0  0  0  0  0  0  0  0  0  0  0  0
  -10.6793    4.2093  -27.6472 C   0  0  0  0  0  0  0  0  0  0  0  0
   -9.3147    2.8149  -26.2429 C   0  0  0  0  0  0  0  0  0  0  0  0
   -8.2474    3.6255  -26.5350 C   0  0  0  0  0  0  0  0  0  0  0  0
  1  6  1  0
  1 15  2  0
 16  1  1  0
  2  4  2  0
 19  2  1  0
  2 20  1  0
 20  3  2  0
  3 21  1  0
  4 22  1  0
  5  6  2  0
 18  5  1  0
  8  7  1  0
  8  9  1  0
 12  8  2  0
 10  9  1  0
 11 10  2  0
 11 12  1  0
 13 11  1  0
 13 14  2  0
 17 13  1  0
 15 14  1  0
 16 17  2  0
 18 16  1  0
 18 19  1  0
 21 22  2  0
M  END
$$$$
