
     RDKit          3D

 22 25  0  0  0  0  0  0  0  0999 V2000
  -23.4039   20.9074  -11.7246 C   0  0  0  0  0  0  0  0  0  0  0  0
  -26.0321   18.2582   -9.2375 C   0  0  0  0  0  0  0  0  0  0  0  0
  -28.1631   17.3494   -8.5566 C   0  0  0  0  0  0  0  0  0  0  0  0
  -26.2294   17.7675  -10.5059 C   0  0  0  0  0  0  0  0  0  0  0  0
  -25.0978   21.0719  -10.2686 C   0  0  0  0  0  0  0  0  0  0  0  0
  -24.4859   21.7017  -11.3307 C   0  0  0  0  0  0  0  0  0  0  0  0
  -17.2862   16.6650  -13.4311 N   0  0  0  0  0  0  0  0  0  0  0  0
  -18.5551   16.9767  -12.8683 C   0  0  0  0  0  0  0  0  0  0  0  0
  -19.3465   16.1512  -12.1411 N   0  0  0  0  0  0  0  0  0  0  0  0
  -20.4500   16.7590  -11.7759 N   0  0  0  0  0  0  0  0  0  0  0  0
  -20.4421   18.0113  -12.2420 C   0  0  0  0  0  0  0  0  0  0  0  0
  -19.2559   18.1591  -12.9301 C   0  0  0  0  0  0  0  0  0  0  0  0
  -21.4810   19.0306  -12.0631 C   0  0  0  0  0  0  0  0  0  0  0  0
  -21.4931   20.1242  -12.9025 C   0  0  0  0  0  0  0  0  0  0  0  0
  -22.4729   21.0703  -12.7220 C   0  0  0  0  0  0  0  0  0  0  0  0
  -23.4163   19.8276  -10.8729 C   0  0  0  0  0  0  0  0  0  0  0  0
  -22.4190   18.8874  -11.0744 C   0  0  0  0  0  0  0  0  0  0  0  0
  -24.4370   19.9329  -10.0004 N   0  0  0  0  0  0  0  0  0  0  0  0
  -24.7865   18.9996   -8.9461 C   0  0  0  0  0  0  0  0  0  0  0  0
  -26.9901   18.0506   -8.2732 C   0  0  0  0  0  0  0  0  0  0  0  0
  -28.3676   16.8515   -9.8362 C   0  0  0  0  0  0  0  0  0  0  0  0
  -27.4067   17.0632  -10.7919 C   0  0  0  0  0  0  0  0  0  0  0  0
  1  6  1  0
  1 15  2  0
 16  1  1  0
  2  4  2  0
 19  2  1  0
  2 20  1  0
 20  3  2  0
  3 21  1  0
  4 22  1  0
  5  6  2  0
 18  5  1  0
  8  7  1  0
  8  9  1  0
 12  8  2  0
 10  9  1  0
 11 10  2  0
 11 12  1  0
 13 11  1  0
 13 14  2  0
 17 13  1  0
 15 14  1  0
 16 17  2  0
 18 16  1  0
 18 19  1  0
 21 22  2  0
M  END
$$$$
