
     RDKit          3D

 22 25  0  0  0  0  0  0  0  0999 V2000
  -12.9526    7.9406  -28.5837 C   0  0  0  0  0  0  0  0  0  0  0  0
  -10.7652   11.2306  -30.7527 C   0  0  0  0  0  0  0  0  0  0  0  0
   -9.2124   12.3210  -32.2462 C   0  0  0  0  0  0  0  0  0  0  0  0
   -9.8168   10.2790  -30.4632 C   0  0  0  0  0  0  0  0  0  0  0  0
  -12.6348    8.7803  -30.6356 C   0  0  0  0  0  0  0  0  0  0  0  0
  -12.9530    7.6296  -29.9475 C   0  0  0  0  0  0  0  0  0  0  0  0
  -13.1595    9.8522  -21.1917 N   0  0  0  0  0  0  0  0  0  0  0  0
  -12.9051   10.0049  -22.5832 C   0  0  0  0  0  0  0  0  0  0  0  0
  -12.3673   11.0868  -23.1970 N   0  0  0  0  0  0  0  0  0  0  0  0
  -12.2713   10.8938  -24.4908 N   0  0  0  0  0  0  0  0  0  0  0  0
  -12.7391    9.6796  -24.7945 C   0  0  0  0  0  0  0  0  0  0  0  0
  -13.1402    9.1119  -23.6032 C   0  0  0  0  0  0  0  0  0  0  0  0
  -12.8149    9.0654  -26.1239 C   0  0  0  0  0  0  0  0  0  0  0  0
  -13.1350    7.7281  -26.2228 C   0  0  0  0  0  0  0  0  0  0  0  0
  -13.2021    7.1676  -27.4755 C   0  0  0  0  0  0  0  0  0  0  0  0
  -12.6312    9.2761  -28.5154 C   0  0  0  0  0  0  0  0  0  0  0  0
  -12.5696    9.8186  -27.2422 C   0  0  0  0  0  0  0  0  0  0  0  0
  -12.4415    9.7745  -29.7522 N   0  0  0  0  0  0  0  0  0  0  0  0
  -12.0894   11.1379  -30.1016 C   0  0  0  0  0  0  0  0  0  0  0  0
  -10.4649   12.2410  -31.6356 C   0  0  0  0  0  0  0  0  0  0  0  0
   -8.2505   11.3625  -31.9574 C   0  0  0  0  0  0  0  0  0  0  0  0
   -8.5588   10.3581  -31.0755 C   0  0  0  0  0  0  0  0  0  0  0  0
  1  6  1  0
  1 15  2  0
 16  1  1  0
  2  4  2  0
 19  2  1  0
  2 20  1  0
 20  3  2  0
  3 21  1  0
  4 22  1  0
  5  6  2  0
 18  5  1  0
  8  7  1  0
  8  9  1  0
 12  8  2  0
 10  9  1  0
 11 10  2  0
 11 12  1  0
 13 11  1  0
 13 14  2  0
 17 13  1  0
 15 14  1  0
 16 17  2  0
 18 16  1  0
 18 19  1  0
 21 22  2  0
M  END
$$$$
