
     RDKit          3D

 22 25  0  0  0  0  0  0  0  0999 V2000
  -23.5652   18.9984  -11.4067 C   0  0  0  0  0  0  0  0  0  0  0  0
  -22.4196   22.3489   -8.6734 C   0  0  0  0  0  0  0  0  0  0  0  0
  -21.9086   23.5863   -6.6637 C   0  0  0  0  0  0  0  0  0  0  0  0
  -22.6860   21.2328   -7.9170 C   0  0  0  0  0  0  0  0  0  0  0  0
  -24.5205   20.7843  -10.4507 C   0  0  0  0  0  0  0  0  0  0  0  0
  -24.7792   19.5300  -10.9593 C   0  0  0  0  0  0  0  0  0  0  0  0
  -16.8558   16.1800  -13.7260 N   0  0  0  0  0  0  0  0  0  0  0  0
  -17.7700   17.1337  -13.1979 C   0  0  0  0  0  0  0  0  0  0  0  0
  -17.4829   18.3916  -12.7834 N   0  0  0  0  0  0  0  0  0  0  0  0
  -18.5609   19.0019  -12.3523 N   0  0  0  0  0  0  0  0  0  0  0  0
  -19.6093   18.1805  -12.4601 C   0  0  0  0  0  0  0  0  0  0  0  0
  -19.1239   17.0034  -12.9905 C   0  0  0  0  0  0  0  0  0  0  0  0
  -20.9998   18.4644  -12.0915 C   0  0  0  0  0  0  0  0  0  0  0  0
  -21.9638   17.5116  -12.3434 C   0  0  0  0  0  0  0  0  0  0  0  0
  -23.2621   17.7927  -11.9921 C   0  0  0  0  0  0  0  0  0  0  0  0
  -22.6250   19.9671  -11.1437 C   0  0  0  0  0  0  0  0  0  0  0  0
  -21.3237   19.6607  -11.5066 C   0  0  0  0  0  0  0  0  0  0  0  0
  -23.2060   21.0377  -10.5691 N   0  0  0  0  0  0  0  0  0  0  0  0
  -22.5556   22.2627  -10.1431 C   0  0  0  0  0  0  0  0  0  0  0  0
  -22.0348   23.5135   -8.0518 C   0  0  0  0  0  0  0  0  0  0  0  0
  -22.1765   22.4619   -5.8948 C   0  0  0  0  0  0  0  0  0  0  0  0
  -22.5597   21.3044   -6.5232 C   0  0  0  0  0  0  0  0  0  0  0  0
  1  6  1  0
  1 15  2  0
 16  1  1  0
  2  4  2  0
 19  2  1  0
  2 20  1  0
 20  3  2  0
  3 21  1  0
  4 22  1  0
  5  6  2  0
 18  5  1  0
  8  7  1  0
  8  9  1  0
 12  8  2  0
 10  9  1  0
 11 10  2  0
 11 12  1  0
 13 11  1  0
 13 14  2  0
 17 13  1  0
 15 14  1  0
 16 17  2  0
 18 16  1  0
 18 19  1  0
 21 22  2  0
M  END
$$$$
