
     RDKit          3D

 22 25  0  0  0  0  0  0  0  0999 V2000
  -23.2225   18.5079  -12.9963 C   0  0  0  0  0  0  0  0  0  0  0  0
  -22.7648   21.5278   -9.7540 C   0  0  0  0  0  0  0  0  0  0  0  0
  -22.1036   23.6079   -8.7212 C   0  0  0  0  0  0  0  0  0  0  0  0
  -23.0914   22.2044  -10.9048 C   0  0  0  0  0  0  0  0  0  0  0  0
  -24.5568   19.5474  -11.5281 C   0  0  0  0  0  0  0  0  0  0  0  0
  -24.5341   18.9343  -12.7620 C   0  0  0  0  0  0  0  0  0  0  0  0
  -15.7063   17.9148  -11.8003 N   0  0  0  0  0  0  0  0  0  0  0  0
  -16.9735   17.6128  -12.3723 C   0  0  0  0  0  0  0  0  0  0  0  0
  -17.2395   16.6659  -13.3044 N   0  0  0  0  0  0  0  0  0  0  0  0
  -18.5146   16.6539  -13.6118 N   0  0  0  0  0  0  0  0  0  0  0  0
  -19.1515   17.5887  -12.9005 C   0  0  0  0  0  0  0  0  0  0  0  0
  -18.1927   18.1977  -12.1180 C   0  0  0  0  0  0  0  0  0  0  0  0
  -20.5817   17.9100  -12.9376 C   0  0  0  0  0  0  0  0  0  0  0  0
  -21.3192   17.5409  -14.0424 C   0  0  0  0  0  0  0  0  0  0  0  0
  -22.6581   17.8491  -14.0618 C   0  0  0  0  0  0  0  0  0  0  0  0
  -22.5120   18.8882  -11.8818 C   0  0  0  0  0  0  0  0  0  0  0  0
  -21.1645   18.5666  -11.8853 C   0  0  0  0  0  0  0  0  0  0  0  0
  -23.3201   19.5124  -11.0035 N   0  0  0  0  0  0  0  0  0  0  0  0
  -22.9507   20.0616   -9.7124 C   0  0  0  0  0  0  0  0  0  0  0  0
  -22.2759   22.2237   -8.6736 C   0  0  0  0  0  0  0  0  0  0  0  0
  -22.4319   24.2964   -9.8811 C   0  0  0  0  0  0  0  0  0  0  0  0
  -22.9190   23.5942  -10.9540 C   0  0  0  0  0  0  0  0  0  0  0  0
  1  6  1  0
  1 15  2  0
 16  1  1  0
  2  4  2  0
 19  2  1  0
  2 20  1  0
 20  3  2  0
  3 21  1  0
  4 22  1  0
  5  6  2  0
 18  5  1  0
  8  7  1  0
  8  9  1  0
 12  8  2  0
 10  9  1  0
 11 10  2  0
 11 12  1  0
 13 11  1  0
 13 14  2  0
 17 13  1  0
 15 14  1  0
 16 17  2  0
 18 16  1  0
 18 19  1  0
 21 22  2  0
M  END
$$$$
