
     RDKit          3D

 22 25  0  0  0  0  0  0  0  0999 V2000
  -22.5657   23.4858   -8.4568 C   0  0  0  0  0  0  0  0  0  0  0  0
  -19.7249   26.2082   -6.0809 C   0  0  0  0  0  0  0  0  0  0  0  0
  -18.9532   28.4660   -5.7100 C   0  0  0  0  0  0  0  0  0  0  0  0
  -18.7229   26.0183   -7.0021 C   0  0  0  0  0  0  0  0  0  0  0  0
  -21.7369   25.5145   -7.9943 C   0  0  0  0  0  0  0  0  0  0  0  0
  -22.4514   24.7975   -8.9294 C   0  0  0  0  0  0  0  0  0  0  0  0
  -23.4304   16.4824   -5.5344 N   0  0  0  0  0  0  0  0  0  0  0  0
  -22.8871   17.7893   -5.6792 C   0  0  0  0  0  0  0  0  0  0  0  0
  -21.8953   18.3435   -4.9405 N   0  0  0  0  0  0  0  0  0  0  0  0
  -21.6385   19.5661   -5.3402 N   0  0  0  0  0  0  0  0  0  0  0  0
  -22.4448   19.8787   -6.3588 C   0  0  0  0  0  0  0  0  0  0  0  0
  -23.2338   18.7694   -6.5805 C   0  0  0  0  0  0  0  0  0  0  0  0
  -22.4892   21.1440   -7.0985 C   0  0  0  0  0  0  0  0  0  0  0  0
  -23.1412   21.1836   -8.3126 C   0  0  0  0  0  0  0  0  0  0  0  0
  -23.1740   22.3767   -8.9933 C   0  0  0  0  0  0  0  0  0  0  0  0
  -21.9085   23.4759   -7.2488 C   0  0  0  0  0  0  0  0  0  0  0  0
  -21.8889   22.2622   -6.5813 C   0  0  0  0  0  0  0  0  0  0  0  0
  -21.4128   24.6984   -6.9770 N   0  0  0  0  0  0  0  0  0  0  0  0
  -20.6578   25.0953   -5.8033 C   0  0  0  0  0  0  0  0  0  0  0  0
  -19.8380   27.4204   -5.4418 C   0  0  0  0  0  0  0  0  0  0  0  0
  -17.9391   28.2796   -6.6396 C   0  0  0  0  0  0  0  0  0  0  0  0
  -17.8338   27.0672   -7.2723 C   0  0  0  0  0  0  0  0  0  0  0  0
  1  6  1  0
  1 15  2  0
 16  1  1  0
  2  4  2  0
 19  2  1  0
  2 20  1  0
 20  3  2  0
  3 21  1  0
  4 22  1  0
  5  6  2  0
 18  5  1  0
  8  7  1  0
  8  9  1  0
 12  8  2  0
 10  9  1  0
 11 10  2  0
 11 12  1  0
 13 11  1  0
 13 14  2  0
 17 13  1  0
 15 14  1  0
 16 17  2  0
 18 16  1  0
 18 19  1  0
 21 22  2  0
M  END
$$$$
