
     RDKit          3D

 22 25  0  0  0  0  0  0  0  0999 V2000
  -23.2446   20.2122  -12.5712 C   0  0  0  0  0  0  0  0  0  0  0  0
  -25.4484   18.3935   -9.0319 C   0  0  0  0  0  0  0  0  0  0  0  0
  -26.5622   18.0419   -6.9184 C   0  0  0  0  0  0  0  0  0  0  0  0
  -25.1552   19.6840   -8.6613 C   0  0  0  0  0  0  0  0  0  0  0  0
  -25.1733   20.1394  -11.4348 C   0  0  0  0  0  0  0  0  0  0  0  0
  -24.4145   20.9211  -12.2788 C   0  0  0  0  0  0  0  0  0  0  0  0
  -16.7765   16.3454  -13.8158 N   0  0  0  0  0  0  0  0  0  0  0  0
  -18.1141   16.5673  -13.3848 C   0  0  0  0  0  0  0  0  0  0  0  0
  -18.9413   15.6641  -12.8048 N   0  0  0  0  0  0  0  0  0  0  0  0
  -20.1068   16.2010  -12.5328 N   0  0  0  0  0  0  0  0  0  0  0  0
  -20.1070   17.4804  -12.9182 C   0  0  0  0  0  0  0  0  0  0  0  0
  -18.8596   17.7215  -13.4551 C   0  0  0  0  0  0  0  0  0  0  0  0
  -21.2072   18.4423  -12.7986 C   0  0  0  0  0  0  0  0  0  0  0  0
  -21.1227   19.6392  -13.4776 C   0  0  0  0  0  0  0  0  0  0  0  0
  -22.1618   20.5298  -13.3552 C   0  0  0  0  0  0  0  0  0  0  0  0
  -23.3560   19.0267  -11.8828 C   0  0  0  0  0  0  0  0  0  0  0  0
  -22.2964   18.1452  -12.0217 C   0  0  0  0  0  0  0  0  0  0  0  0
  -24.5176   18.9897  -11.2020 N   0  0  0  0  0  0  0  0  0  0  0  0
  -25.0029   17.9142  -10.3577 C   0  0  0  0  0  0  0  0  0  0  0  0
  -26.1450   17.5815   -8.1682 C   0  0  0  0  0  0  0  0  0  0  0  0
  -26.2687   19.3447   -6.5390 C   0  0  0  0  0  0  0  0  0  0  0  0
  -25.5734   20.1477   -7.4068 C   0  0  0  0  0  0  0  0  0  0  0  0
  1  6  1  0
  1 15  2  0
 16  1  1  0
  2  4  2  0
 19  2  1  0
  2 20  1  0
 20  3  2  0
  3 21  1  0
  4 22  1  0
  5  6  2  0
 18  5  1  0
  8  7  1  0
  8  9  1  0
 12  8  2  0
 10  9  1  0
 11 10  2  0
 11 12  1  0
 13 11  1  0
 13 14  2  0
 17 13  1  0
 15 14  1  0
 16 17  2  0
 18 16  1  0
 18 19  1  0
 21 22  2  0
M  END
$$$$
