
     RDKit          3D

 22 25  0  0  0  0  0  0  0  0999 V2000
  -12.6120    9.9941  -28.6243 C   0  0  0  0  0  0  0  0  0  0  0  0
  -11.8246    5.6805  -28.1045 C   0  0  0  0  0  0  0  0  0  0  0  0
  -10.4442    4.1260  -26.8761 C   0  0  0  0  0  0  0  0  0  0  0  0
  -10.7893    5.9065  -28.9796 C   0  0  0  0  0  0  0  0  0  0  0  0
  -12.8032    8.2139  -29.9698 C   0  0  0  0  0  0  0  0  0  0  0  0
  -12.6221    9.5799  -29.9604 C   0  0  0  0  0  0  0  0  0  0  0  0
  -13.1139    9.2283  -21.0456 N   0  0  0  0  0  0  0  0  0  0  0  0
  -12.9063    9.8889  -22.2885 C   0  0  0  0  0  0  0  0  0  0  0  0
  -12.5924   11.1943  -22.4725 N   0  0  0  0  0  0  0  0  0  0  0  0
  -12.4728   11.4737  -23.7484 N   0  0  0  0  0  0  0  0  0  0  0  0
  -12.7009   10.3709  -24.4676 C   0  0  0  0  0  0  0  0  0  0  0  0
  -12.9744    9.3687  -23.5604 C   0  0  0  0  0  0  0  0  0  0  0  0
  -12.6692   10.2423  -25.9280 C   0  0  0  0  0  0  0  0  0  0  0  0
  -12.4930   11.3756  -26.6931 C   0  0  0  0  0  0  0  0  0  0  0  0
  -12.4656   11.2383  -28.0599 C   0  0  0  0  0  0  0  0  0  0  0  0
  -12.7891    8.8470  -27.8866 C   0  0  0  0  0  0  0  0  0  0  0  0
  -12.8133    9.0106  -26.5112 C   0  0  0  0  0  0  0  0  0  0  0  0
  -12.9033    7.7808  -28.7016 N   0  0  0  0  0  0  0  0  0  0  0  0
  -13.1010    6.3977  -28.3104 C   0  0  0  0  0  0  0  0  0  0  0  0
  -11.6526    4.7988  -27.0635 C   0  0  0  0  0  0  0  0  0  0  0  0
   -9.3951    4.3505  -27.7571 C   0  0  0  0  0  0  0  0  0  0  0  0
   -9.5755    5.2317  -28.7927 C   0  0  0  0  0  0  0  0  0  0  0  0
  1  6  1  0
  1 15  2  0
 16  1  1  0
  2  4  2  0
 19  2  1  0
  2 20  1  0
 20  3  2  0
  3 21  1  0
  4 22  1  0
  5  6  2  0
 18  5  1  0
  8  7  1  0
  8  9  1  0
 12  8  2  0
 10  9  1  0
 11 10  2  0
 11 12  1  0
 13 11  1  0
 13 14  2  0
 17 13  1  0
 15 14  1  0
 16 17  2  0
 18 16  1  0
 18 19  1  0
 21 22  2  0
M  END
$$$$
