
     RDKit          3D

 22 25  0  0  0  0  0  0  0  0999 V2000
  -23.8543   19.2184  -11.5023 C   0  0  0  0  0  0  0  0  0  0  0  0
  -22.4606   22.6825   -9.0988 C   0  0  0  0  0  0  0  0  0  0  0  0
  -22.3360   21.7511   -6.8744 C   0  0  0  0  0  0  0  0  0  0  0  0
  -22.0189   23.8911   -8.6161 C   0  0  0  0  0  0  0  0  0  0  0  0
  -24.7662   21.1229  -10.7555 C   0  0  0  0  0  0  0  0  0  0  0  0
  -25.0585   19.8335  -11.1439 C   0  0  0  0  0  0  0  0  0  0  0  0
  -17.2176   15.9991  -13.4842 N   0  0  0  0  0  0  0  0  0  0  0  0
  -18.0986   17.0075  -13.0035 C   0  0  0  0  0  0  0  0  0  0  0  0
  -17.7586   18.2486  -12.5787 N   0  0  0  0  0  0  0  0  0  0  0  0
  -18.8184   18.9233  -12.2020 N   0  0  0  0  0  0  0  0  0  0  0  0
  -19.9068   18.1642  -12.3588 C   0  0  0  0  0  0  0  0  0  0  0  0
  -19.4663   16.9579  -12.8620 C   0  0  0  0  0  0  0  0  0  0  0  0
  -21.2945   18.5310  -12.0590 C   0  0  0  0  0  0  0  0  0  0  0  0
  -22.2865   17.5912  -12.2417 C   0  0  0  0  0  0  0  0  0  0  0  0
  -23.5817   17.9505  -11.9562 C   0  0  0  0  0  0  0  0  0  0  0  0
  -22.8858   20.1759  -11.3108 C   0  0  0  0  0  0  0  0  0  0  0  0
  -21.5882   19.7904  -11.6052 C   0  0  0  0  0  0  0  0  0  0  0  0
  -23.4408   21.3180  -10.8619 N   0  0  0  0  0  0  0  0  0  0  0  0
  -22.7563   22.5566  -10.5419 C   0  0  0  0  0  0  0  0  0  0  0  0
  -22.6172   21.6237   -8.2355 C   0  0  0  0  0  0  0  0  0  0  0  0
  -21.8896   22.9697   -6.3815 C   0  0  0  0  0  0  0  0  0  0  0  0
  -21.7362   24.0204   -7.2498 C   0  0  0  0  0  0  0  0  0  0  0  0
  1  6  1  0
  1 15  2  0
 16  1  1  0
  2  4  2  0
 19  2  1  0
  2 20  1  0
 20  3  2  0
  3 21  1  0
  4 22  1  0
  5  6  2  0
 18  5  1  0
  8  7  1  0
  8  9  1  0
 12  8  2  0
 10  9  1  0
 11 10  2  0
 11 12  1  0
 13 11  1  0
 13 14  2  0
 17 13  1  0
 15 14  1  0
 16 17  2  0
 18 16  1  0
 18 19  1  0
 21 22  2  0
M  END
$$$$
