
     RDKit          3D

 22 25  0  0  0  0  0  0  0  0999 V2000
  -14.2906    9.3748  -26.8797 C   0  0  0  0  0  0  0  0  0  0  0  0
  -10.7697   10.5885  -29.5254 C   0  0  0  0  0  0  0  0  0  0  0  0
   -8.6666   10.1539  -30.6293 C   0  0  0  0  0  0  0  0  0  0  0  0
  -11.4211    9.8347  -30.4721 C   0  0  0  0  0  0  0  0  0  0  0  0
  -13.5359    9.8019  -28.9447 C   0  0  0  0  0  0  0  0  0  0  0  0
  -14.5214    9.1451  -28.2401 C   0  0  0  0  0  0  0  0  0  0  0  0
  -12.9722   10.7893  -19.4906 N   0  0  0  0  0  0  0  0  0  0  0  0
  -12.7467   10.8138  -20.8951 C   0  0  0  0  0  0  0  0  0  0  0  0
  -11.7100   11.4002  -21.5416 N   0  0  0  0  0  0  0  0  0  0  0  0
  -11.8098   11.2329  -22.8387 N   0  0  0  0  0  0  0  0  0  0  0  0
  -12.9130   10.5304  -23.1121 C   0  0  0  0  0  0  0  0  0  0  0  0
  -13.5097   10.2615  -21.8980 C   0  0  0  0  0  0  0  0  0  0  0  0
  -13.3998   10.1226  -24.4338 C   0  0  0  0  0  0  0  0  0  0  0  0
  -14.5242    9.3290  -24.5142 C   0  0  0  0  0  0  0  0  0  0  0  0
  -14.9676    8.9555  -25.7599 C   0  0  0  0  0  0  0  0  0  0  0  0
  -13.1669   10.1662  -26.8300 C   0  0  0  0  0  0  0  0  0  0  0  0
  -12.7393   10.5298  -25.5635 C   0  0  0  0  0  0  0  0  0  0  0  0
  -12.7185   10.4190  -28.0746 N   0  0  0  0  0  0  0  0  0  0  0  0
  -11.5610   11.2122  -28.4433 C   0  0  0  0  0  0  0  0  0  0  0  0
   -9.4061   10.7459  -29.6042 C   0  0  0  0  0  0  0  0  0  0  0  0
   -9.3194    9.3913  -31.5882 C   0  0  0  0  0  0  0  0  0  0  0  0
  -10.6800    9.2397  -31.5018 C   0  0  0  0  0  0  0  0  0  0  0  0
  1  6  1  0
  1 15  2  0
 16  1  1  0
  2  4  2  0
 19  2  1  0
  2 20  1  0
 20  3  2  0
  3 21  1  0
  4 22  1  0
  5  6  2  0
 18  5  1  0
  8  7  1  0
  8  9  1  0
 12  8  2  0
 10  9  1  0
 11 10  2  0
 11 12  1  0
 13 11  1  0
 13 14  2  0
 17 13  1  0
 15 14  1  0
 16 17  2  0
 18 16  1  0
 18 19  1  0
 21 22  2  0
M  END
$$$$
