
     RDKit          3D

 22 25  0  0  0  0  0  0  0  0999 V2000
  -14.6452    9.5788  -26.8388 C   0  0  0  0  0  0  0  0  0  0  0  0
  -11.1660   11.3786  -29.0096 C   0  0  0  0  0  0  0  0  0  0  0  0
  -10.0363   12.7832  -30.6163 C   0  0  0  0  0  0  0  0  0  0  0  0
  -11.9564   12.4401  -28.6390 C   0  0  0  0  0  0  0  0  0  0  0  0
  -13.7202    9.5337  -28.8781 C   0  0  0  0  0  0  0  0  0  0  0  0
  -14.9068    9.3697  -28.1970 C   0  0  0  0  0  0  0  0  0  0  0  0
  -13.1060   10.9047  -19.4760 N   0  0  0  0  0  0  0  0  0  0  0  0
  -12.8425   10.7110  -20.8607 C   0  0  0  0  0  0  0  0  0  0  0  0
  -11.6318   10.7367  -21.4689 N   0  0  0  0  0  0  0  0  0  0  0  0
  -11.7483   10.5199  -22.7573 N   0  0  0  0  0  0  0  0  0  0  0  0
  -13.0368   10.3410  -23.0626 C   0  0  0  0  0  0  0  0  0  0  0  0
  -13.7337   10.4590  -21.8782 C   0  0  0  0  0  0  0  0  0  0  0  0
  -13.6052   10.0727  -24.3875 C   0  0  0  0  0  0  0  0  0  0  0  0
  -14.9498    9.7865  -24.4901 C   0  0  0  0  0  0  0  0  0  0  0  0
  -15.4672    9.5375  -25.7385 C   0  0  0  0  0  0  0  0  0  0  0  0
  -13.3012    9.8614  -26.7666 C   0  0  0  0  0  0  0  0  0  0  0  0
  -12.8029   10.1089  -25.4980 C   0  0  0  0  0  0  0  0  0  0  0  0
  -12.7514    9.8326  -27.9958 N   0  0  0  0  0  0  0  0  0  0  0  0
  -11.3629   10.0756  -28.3392 C   0  0  0  0  0  0  0  0  0  0  0  0
  -10.2158   11.5496  -29.9886 C   0  0  0  0  0  0  0  0  0  0  0  0
  -10.8319   13.8589  -30.2459 C   0  0  0  0  0  0  0  0  0  0  0  0
  -11.7773   13.6793  -29.2684 C   0  0  0  0  0  0  0  0  0  0  0  0
  1  6  1  0
  1 15  2  0
 16  1  1  0
  2  4  2  0
 19  2  1  0
  2 20  1  0
 20  3  2  0
  3 21  1  0
  4 22  1  0
  5  6  2  0
 18  5  1  0
  8  7  1  0
  8  9  1  0
 12  8  2  0
 10  9  1  0
 11 10  2  0
 11 12  1  0
 13 11  1  0
 13 14  2  0
 17 13  1  0
 15 14  1  0
 16 17  2  0
 18 16  1  0
 18 19  1  0
 21 22  2  0
M  END
$$$$
