
     RDKit          3D

 22 25  0  0  0  0  0  0  0  0999 V2000
  -13.1307    8.4220  -27.6172 C   0  0  0  0  0  0  0  0  0  0  0  0
  -10.9092   11.5337  -30.0703 C   0  0  0  0  0  0  0  0  0  0  0  0
   -9.3816   10.4086  -31.5640 C   0  0  0  0  0  0  0  0  0  0  0  0
  -10.1798   12.6914  -30.1982 C   0  0  0  0  0  0  0  0  0  0  0  0
  -12.7402    9.1913  -29.6841 C   0  0  0  0  0  0  0  0  0  0  0  0
  -13.1190    8.0740  -28.9721 C   0  0  0  0  0  0  0  0  0  0  0  0
  -13.6411   10.6864  -20.3407 N   0  0  0  0  0  0  0  0  0  0  0  0
  -13.2230   10.7134  -21.7004 C   0  0  0  0  0  0  0  0  0  0  0  0
  -12.4026   11.6228  -22.2804 N   0  0  0  0  0  0  0  0  0  0  0  0
  -12.2238   11.3515  -23.5511 N   0  0  0  0  0  0  0  0  0  0  0  0
  -12.9145   10.2537  -23.8722 C   0  0  0  0  0  0  0  0  0  0  0  0
  -13.5464    9.8440  -22.7166 C   0  0  0  0  0  0  0  0  0  0  0  0
  -12.9915    9.6070  -25.1860 C   0  0  0  0  0  0  0  0  0  0  0  0
  -13.3656    8.2820  -25.2556 C   0  0  0  0  0  0  0  0  0  0  0  0
  -13.4330    7.6905  -26.4940 C   0  0  0  0  0  0  0  0  0  0  0  0
  -12.7549    9.7443  -27.5782 C   0  0  0  0  0  0  0  0  0  0  0  0
  -12.6942   10.3185  -26.3189 C   0  0  0  0  0  0  0  0  0  0  0  0
  -12.5217   10.2004  -28.8239 N   0  0  0  0  0  0  0  0  0  0  0  0
  -12.1062   11.5379  -29.2024 C   0  0  0  0  0  0  0  0  0  0  0  0
  -10.5131   10.4041  -30.7469 C   0  0  0  0  0  0  0  0  0  0  0  0
   -8.6411   11.5753  -31.6969 C   0  0  0  0  0  0  0  0  0  0  0  0
   -9.0435   12.6973  -31.0182 C   0  0  0  0  0  0  0  0  0  0  0  0
  1  6  1  0
  1 15  2  0
 16  1  1  0
  2  4  2  0
 19  2  1  0
  2 20  1  0
 20  3  2  0
  3 21  1  0
  4 22  1  0
  5  6  2  0
 18  5  1  0
  8  7  1  0
  8  9  1  0
 12  8  2  0
 10  9  1  0
 11 10  2  0
 11 12  1  0
 13 11  1  0
 13 14  2  0
 17 13  1  0
 15 14  1  0
 16 17  2  0
 18 16  1  0
 18 19  1  0
 21 22  2  0
M  END
$$$$
