
     RDKit          3D

 22 25  0  0  0  0  0  0  0  0999 V2000
  -23.5785   18.7382  -11.4804 C   0  0  0  0  0  0  0  0  0  0  0  0
  -22.7261   22.6227   -9.3986 C   0  0  0  0  0  0  0  0  0  0  0  0
  -22.1635   22.1354   -7.1014 C   0  0  0  0  0  0  0  0  0  0  0  0
  -23.1587   23.8729   -9.0262 C   0  0  0  0  0  0  0  0  0  0  0  0
  -24.6472   20.5806  -10.7879 C   0  0  0  0  0  0  0  0  0  0  0  0
  -24.8168   19.2423  -11.0691 C   0  0  0  0  0  0  0  0  0  0  0  0
  -16.7405   16.0961  -13.6250 N   0  0  0  0  0  0  0  0  0  0  0  0
  -17.7125   17.0514  -13.2167 C   0  0  0  0  0  0  0  0  0  0  0  0
  -17.5175   18.3790  -13.0271 N   0  0  0  0  0  0  0  0  0  0  0  0
  -18.6273   18.9681  -12.6505 N   0  0  0  0  0  0  0  0  0  0  0  0
  -19.6065   18.0622  -12.5730 C   0  0  0  0  0  0  0  0  0  0  0  0
  -19.0429   16.8540  -12.9267 C   0  0  0  0  0  0  0  0  0  0  0  0
  -21.0025   18.2960  -12.1900 C   0  0  0  0  0  0  0  0  0  0  0  0
  -21.8909   17.2428  -12.2343 C   0  0  0  0  0  0  0  0  0  0  0  0
  -23.1954   17.4781  -11.8723 C   0  0  0  0  0  0  0  0  0  0  0  0
  -22.7147   19.8070  -11.4266 C   0  0  0  0  0  0  0  0  0  0  0  0
  -21.4054   19.5452  -11.7960 C   0  0  0  0  0  0  0  0  0  0  0  0
  -23.3636   20.9111  -11.0096 N   0  0  0  0  0  0  0  0  0  0  0  0
  -22.8043   22.2369  -10.8237 C   0  0  0  0  0  0  0  0  0  0  0  0
  -22.2336   21.7634   -8.4448 C   0  0  0  0  0  0  0  0  0  0  0  0
  -22.5991   23.3971   -6.7197 C   0  0  0  0  0  0  0  0  0  0  0  0
  -23.0889   24.2478   -7.6778 C   0  0  0  0  0  0  0  0  0  0  0  0
  1  6  1  0
  1 15  2  0
 16  1  1  0
  2  4  2  0
 19  2  1  0
  2 20  1  0
 20  3  2  0
  3 21  1  0
  4 22  1  0
  5  6  2  0
 18  5  1  0
  8  7  1  0
  8  9  1  0
 12  8  2  0
 10  9  1  0
 11 10  2  0
 11 12  1  0
 13 11  1  0
 13 14  2  0
 17 13  1  0
 15 14  1  0
 16 17  2  0
 18 16  1  0
 18 19  1  0
 21 22  2  0
M  END
$$$$
