
     RDKit          3D

 22 25  0  0  0  0  0  0  0  0999 V2000
  -13.4027   11.6504  -26.5434 C   0  0  0  0  0  0  0  0  0  0  0  0
  -11.9860    8.6418  -29.6907 C   0  0  0  0  0  0  0  0  0  0  0  0
   -9.8537    8.6702  -30.8235 C   0  0  0  0  0  0  0  0  0  0  0  0
  -12.6299    8.6764  -30.9044 C   0  0  0  0  0  0  0  0  0  0  0  0
  -13.3362   11.0160  -28.6903 C   0  0  0  0  0  0  0  0  0  0  0  0
  -13.5467   12.0965  -27.8614 C   0  0  0  0  0  0  0  0  0  0  0  0
  -12.3216    9.1229  -19.4174 N   0  0  0  0  0  0  0  0  0  0  0  0
  -12.5006    9.0474  -20.8268 C   0  0  0  0  0  0  0  0  0  0  0  0
  -12.5302    7.9233  -21.5831 N   0  0  0  0  0  0  0  0  0  0  0  0
  -12.7130    8.2133  -22.8492 N   0  0  0  0  0  0  0  0  0  0  0  0
  -12.8127    9.5382  -22.9912 C   0  0  0  0  0  0  0  0  0  0  0  0
  -12.6806   10.0726  -21.7266 C   0  0  0  0  0  0  0  0  0  0  0  0
  -13.0206   10.2833  -24.2369 C   0  0  0  0  0  0  0  0  0  0  0  0
  -13.3157   11.6282  -24.1676 C   0  0  0  0  0  0  0  0  0  0  0  0
  -13.5076   12.3122  -25.3437 C   0  0  0  0  0  0  0  0  0  0  0  0
  -13.1098   10.3104  -26.6429 C   0  0  0  0  0  0  0  0  0  0  0  0
  -12.9205    9.6424  -25.4442 C   0  0  0  0  0  0  0  0  0  0  0  0
  -13.0714    9.9357  -27.9361 N   0  0  0  0  0  0  0  0  0  0  0  0
  -12.7967    8.6089  -28.4548 C   0  0  0  0  0  0  0  0  0  0  0  0
  -10.6116    8.6388  -29.6519 C   0  0  0  0  0  0  0  0  0  0  0  0
  -10.4989    8.7053  -32.0522 C   0  0  0  0  0  0  0  0  0  0  0  0
  -11.8703    8.7080  -32.0815 C   0  0  0  0  0  0  0  0  0  0  0  0
  1  6  1  0
  1 15  2  0
 16  1  1  0
  2  4  2  0
 19  2  1  0
  2 20  1  0
 20  3  2  0
  3 21  1  0
  4 22  1  0
  5  6  2  0
 18  5  1  0
  8  7  1  0
  8  9  1  0
 12  8  2  0
 10  9  1  0
 11 10  2  0
 11 12  1  0
 13 11  1  0
 13 14  2  0
 17 13  1  0
 15 14  1  0
 16 17  2  0
 18 16  1  0
 18 19  1  0
 21 22  2  0
M  END
$$$$
