
     RDKit          3D

 22 25  0  0  0  0  0  0  0  0999 V2000
  -23.6142   19.0618  -11.3108 C   0  0  0  0  0  0  0  0  0  0  0  0
  -22.4564   22.6137   -8.8615 C   0  0  0  0  0  0  0  0  0  0  0  0
  -22.6584   21.8428   -6.5821 C   0  0  0  0  0  0  0  0  0  0  0  0
  -21.8328   23.7556   -8.4188 C   0  0  0  0  0  0  0  0  0  0  0  0
  -24.5964   20.8824  -10.4523 C   0  0  0  0  0  0  0  0  0  0  0  0
  -24.8304   19.5879  -10.8627 C   0  0  0  0  0  0  0  0  0  0  0  0
  -16.9059   16.3041  -13.7052 N   0  0  0  0  0  0  0  0  0  0  0  0
  -17.8261   17.2552  -13.1827 C   0  0  0  0  0  0  0  0  0  0  0  0
  -17.5540   18.5294  -12.8103 N   0  0  0  0  0  0  0  0  0  0  0  0
  -18.6335   19.1316  -12.3714 N   0  0  0  0  0  0  0  0  0  0  0  0
  -19.6680   18.2881  -12.4320 C   0  0  0  0  0  0  0  0  0  0  0  0
  -19.1722   17.1057  -12.9405 C   0  0  0  0  0  0  0  0  0  0  0  0
  -21.0551   18.5563  -12.0393 C   0  0  0  0  0  0  0  0  0  0  0  0
  -21.9955   17.5599  -12.1921 C   0  0  0  0  0  0  0  0  0  0  0  0
  -23.2908   17.8269  -11.8194 C   0  0  0  0  0  0  0  0  0  0  0  0
  -22.6977   20.0741  -11.1473 C   0  0  0  0  0  0  0  0  0  0  0  0
  -21.3989   19.7812  -11.5299 C   0  0  0  0  0  0  0  0  0  0  0  0
  -23.2948   21.1654  -10.6309 N   0  0  0  0  0  0  0  0  0  0  0  0
  -22.6710   22.4363  -10.3135 C   0  0  0  0  0  0  0  0  0  0  0  0
  -22.8647   21.6674   -7.9513 C   0  0  0  0  0  0  0  0  0  0  0  0
  -22.0290   22.9944   -6.1293 C   0  0  0  0  0  0  0  0  0  0  0  0
  -21.6251   23.9330   -7.0444 C   0  0  0  0  0  0  0  0  0  0  0  0
  1  6  1  0
  1 15  2  0
 16  1  1  0
  2  4  2  0
 19  2  1  0
  2 20  1  0
 20  3  2  0
  3 21  1  0
  4 22  1  0
  5  6  2  0
 18  5  1  0
  8  7  1  0
  8  9  1  0
 12  8  2  0
 10  9  1  0
 11 10  2  0
 11 12  1  0
 13 11  1  0
 13 14  2  0
 17 13  1  0
 15 14  1  0
 16 17  2  0
 18 16  1  0
 18 19  1  0
 21 22  2  0
M  END
$$$$
