
     RDKit          3D

 27 32  0  0  0  0  0  0  0  0999 V2000
    5.7475   62.3598  109.6375 C   0  0  0  0  0  0  0  0  0  0  0  0
    5.0879   61.4593  110.4550 C   0  0  0  0  0  0  0  0  0  0  0  0
    3.9811   61.8594  111.1842 C   0  0  0  0  0  0  0  0  0  0  0  0
    2.2346   62.0880  112.4704 C   0  0  0  0  0  0  0  0  0  0  0  0
    2.4792   63.3008  111.8720 C   0  0  0  0  0  0  0  0  0  0  0  0
    1.5872   64.4340  112.1895 C   0  0  0  0  0  0  0  0  0  0  0  0
    0.2040   63.9337  112.3495 C   0  0  2  0  0  0  0  0  0  0  0  0
    0.0386   62.8551  113.3739 C   0  0  1  0  0  0  0  0  0  0  0  0
   -1.3494   62.2492  113.2904 C   0  0  0  0  0  0  0  0  0  0  0  0
   -2.1603   63.0997  112.3523 C   0  0  2  0  0  0  0  0  0  0  0  0
   -2.0754   64.5606  112.7172 C   0  0  0  0  0  0  0  0  0  0  0  0
   -3.5355   62.6609  112.1427 C   0  0  0  0  0  0  0  0  0  0  0  0
   -3.8214   62.9044  110.8657 C   0  0  0  0  0  0  0  0  0  0  0  0
   -2.6061   63.5210  110.2072 C   0  0  0  0  0  0  0  0  0  0  0  0
   -0.3092   63.5226  110.9714 C   0  0  0  0  0  0  0  0  0  0  0  0
    1.1364   61.8446  113.4123 C   0  0  2  0  0  0  0  0  0  0  0  0
    1.7841   61.7659  114.8051 C   0  0  0  0  0  0  0  0  0  0  0  0
    0.6257   60.4313  113.1484 C   0  0  0  0  0  0  0  0  0  0  0  0
    3.5757   63.1555  111.0651 C   0  0  0  0  0  0  0  0  0  0  0  0
    4.2021   64.0951  110.2605 C   0  0  0  0  0  0  0  0  0  0  0  0
    5.3055   63.6696  109.5423 C   0  0  0  0  0  0  0  0  0  0  0  0
    3.1691   61.2174  112.0337 N   0  0  0  0  0  0  0  0  0  0  0  0
   -0.7087   65.0195  112.7614 N   0  0  0  0  0  0  0  0  0  0  0  0
   -1.5817   62.9053  111.0255 N   0  0  1  0  0  4  0  0  0  0  0  0
   -3.0545   65.2706  112.9481 O   0  0  0  0  0  0  0  0  0  0  0  0
    7.1481   61.9244  108.6908 Cl  0  0  0  0  0  0  0  0  0  0  0  0
    6.1196   64.8305  108.5169 Cl  0  0  0  0  0  0  0  0  0  0  0  0
  2  1  2  0
  1 21  1  0
  1 26  1  0
  3  2  1  0
  3 19  2  0
 22  3  1  0
  4  5  2  0
  4 16  1  0
  4 22  1  0
  5  6  1  0
  5 19  1  0
  7  6  1  6
  7  8  1  0
  7 15  1  0
  7 23  1  0
  8  9  1  6
  8 16  1  0
  9 10  1  0
 10 11  1  0
 10 12  1  6
 10 24  1  0
 11 23  1  0
 11 25  2  0
 12 13  2  0
 13 14  1  0
 24 14  1  6
 15 24  1  0
 16 17  1  1
 16 18  1  0
 19 20  1  0
 20 21  2  0
 21 27  1  0
M  CHG  1  24   1
M  END
$$$$
