
     RDKit          3D

 27 32  0  0  0  0  0  0  0  0999 V2000
    5.7004   62.4371  109.0847 C   0  0  0  0  0  0  0  0  0  0  0  0
    5.6397   61.4701  110.0723 C   0  0  0  0  0  0  0  0  0  0  0  0
    4.7462   61.5994  111.1220 C   0  0  0  0  0  0  0  0  0  0  0  0
    3.5031   61.4342  112.9065 C   0  0  0  0  0  0  0  0  0  0  0  0
    3.1616   62.5984  112.2609 C   0  0  0  0  0  0  0  0  0  0  0  0
    2.1062   63.4460  112.8512 C   0  0  0  0  0  0  0  0  0  0  0  0
    1.0677   62.5807  113.4527 C   0  0  2  0  0  0  0  0  0  0  0  0
    1.5705   61.6104  114.4752 C   0  0  1  0  0  0  0  0  0  0  0  0
    0.4851   60.6186  114.8479 C   0  0  0  0  0  0  0  0  0  0  0  0
   -0.7980   61.0944  114.2247 C   0  0  2  0  0  0  0  0  0  0  0  0
   -1.0622   62.5450  114.5419 C   0  0  0  0  0  0  0  0  0  0  0  0
   -1.9628   60.2525  114.4740 C   0  0  0  0  0  0  0  0  0  0  0  0
   -2.6903   60.2712  113.3594 C   0  0  0  0  0  0  0  0  0  0  0  0
   -1.9929   61.1473  112.3412 C   0  0  0  0  0  0  0  0  0  0  0  0
    0.3076   61.9000  112.3165 C   0  0  0  0  0  0  0  0  0  0  0  0
    2.8828   60.9757  114.1544 C   0  0  2  0  0  0  0  0  0  0  0  0
    3.9202   61.2318  115.2607 C   0  0  0  0  0  0  0  0  0  0  0  0
    2.7807   59.4557  114.0712 C   0  0  0  0  0  0  0  0  0  0  0  0
    3.9428   62.7005  111.1411 C   0  0  0  0  0  0  0  0  0  0  0  0
    3.9653   63.6962  110.1765 C   0  0  0  0  0  0  0  0  0  0  0  0
    4.8672   63.5429  109.1384 C   0  0  0  0  0  0  0  0  0  0  0  0
    4.4783   60.8367  112.1895 N   0  0  0  0  0  0  0  0  0  0  0  0
    0.0376   63.3867  114.1390 N   0  0  0  0  0  0  0  0  0  0  0  0
   -0.6279   60.9453  112.7818 N   0  0  1  0  0  4  0  0  0  0  0  0
   -2.0912   62.9559  115.0788 O   0  0  0  0  0  0  0  0  0  0  0  0
    6.8017   62.3385  107.7339 Cl  0  0  0  0  0  0  0  0  0  0  0  0
    4.9215   64.7817  107.9037 Cl  0  0  0  0  0  0  0  0  0  0  0  0
  2  1  2  0
  1 21  1  0
  1 26  1  0
  3  2  1  0
  3 19  2  0
 22  3  1  0
  4  5  2  0
  4 16  1  0
  4 22  1  0
  5  6  1  0
  5 19  1  0
  7  6  1  6
  7  8  1  0
  7 15  1  0
  7 23  1  0
  8  9  1  6
  8 16  1  0
  9 10  1  0
 10 11  1  0
 10 12  1  1
 10 24  1  0
 11 23  1  0
 11 25  2  0
 12 13  2  0
 13 14  1  0
 24 14  1  6
 15 24  1  0
 16 17  1  1
 16 18  1  0
 19 20  1  0
 20 21  2  0
 21 27  1  0
M  CHG  1  24   1
M  END
$$$$
