
     RDKit          3D

 27 32  0  0  0  0  0  0  0  0999 V2000
    5.5957   62.4103  109.4768 C   0  0  0  0  0  0  0  0  0  0  0  0
    4.9682   61.4647  110.2683 C   0  0  0  0  0  0  0  0  0  0  0  0
    3.8695   61.8140  111.0349 C   0  0  0  0  0  0  0  0  0  0  0  0
    2.1453   61.9573  112.3629 C   0  0  0  0  0  0  0  0  0  0  0  0
    2.3568   63.1980  111.8112 C   0  0  0  0  0  0  0  0  0  0  0  0
    1.4518   64.3006  112.1929 C   0  0  0  0  0  0  0  0  0  0  0  0
    0.0810   63.7691  112.3585 C   0  0  2  0  0  0  0  0  0  0  0  0
   -0.0452   62.6461  113.3398 C   0  0  1  0  0  0  0  0  0  0  0  0
   -1.4238   62.0190  113.2578 C   0  0  0  0  0  0  0  0  0  0  0  0
   -2.2680   62.8928  112.3719 C   0  0  2  0  0  0  0  0  0  0  0  0
   -2.2012   64.3386  112.7959 C   0  0  0  0  0  0  0  0  0  0  0  0
   -3.6393   62.4381  112.1707 C   0  0  0  0  0  0  0  0  0  0  0  0
   -3.9548   62.7293  110.9107 C   0  0  0  0  0  0  0  0  0  0  0  0
   -2.7638   63.3946  110.2553 C   0  0  0  0  0  0  0  0  0  0  0  0
   -0.4525   63.4063  110.9745 C   0  0  0  0  0  0  0  0  0  0  0  0
    1.0705   61.6550  113.3147 C   0  0  2  0  0  0  0  0  0  0  0  0
    1.7473   61.5303  114.6903 C   0  0  0  0  0  0  0  0  0  0  0  0
    0.5793   60.2448  113.0018 C   0  0  0  0  0  0  0  0  0  0  0  0
    3.4393   63.1063  110.9779 C   0  0  0  0  0  0  0  0  0  0  0  0
    4.0330   64.0898  110.2015 C   0  0  0  0  0  0  0  0  0  0  0  0
    5.1291   63.7146  109.4450 C   0  0  0  0  0  0  0  0  0  0  0  0
    3.0859   61.1227  111.8722 N   0  0  0  0  0  0  0  0  0  0  0  0
   -0.8421   64.8201  112.8330 N   0  0  0  0  0  0  0  0  0  0  0  0
   -1.7127   62.7643  111.0272 N   0  0  1  0  0  4  0  0  0  0  0  0
   -3.1877   65.0205  113.0751 O   0  0  0  0  0  0  0  0  0  0  0  0
    6.9843   62.0401  108.4859 Cl  0  0  0  0  0  0  0  0  0  0  0  0
    5.9023   64.9317  108.4536 Cl  0  0  0  0  0  0  0  0  0  0  0  0
  2  1  2  0
  1 21  1  0
  1 26  1  0
  3  2  1  0
  3 19  2  0
 22  3  1  0
  4  5  2  0
  4 16  1  0
  4 22  1  0
  5  6  1  0
  5 19  1  0
  7  6  1  6
  7  8  1  0
  7 15  1  0
  7 23  1  0
  8  9  1  6
  8 16  1  0
  9 10  1  0
 10 11  1  0
 10 12  1  6
 10 24  1  0
 11 23  1  0
 11 25  2  0
 12 13  2  0
 13 14  1  0
 24 14  1  6
 15 24  1  0
 16 17  1  1
 16 18  1  0
 19 20  1  0
 20 21  2  0
 21 27  1  0
M  CHG  1  24   1
M  END
$$$$
