
     RDKit          3D

 27 32  0  0  0  0  0  0  0  0999 V2000
    6.0686   62.2373  109.4823 C   0  0  0  0  0  0  0  0  0  0  0  0
    5.6828   61.5203  110.6009 C   0  0  0  0  0  0  0  0  0  0  0  0
    4.5484   61.8840  111.3063 C   0  0  0  0  0  0  0  0  0  0  0  0
    2.8609   62.1277  112.6664 C   0  0  0  0  0  0  0  0  0  0  0  0
    2.7799   63.1142  111.7130 C   0  0  0  0  0  0  0  0  0  0  0  0
    1.6590   64.0727  111.7866 C   0  0  0  0  0  0  0  0  0  0  0  0
    0.4447   63.3658  112.2501 C   0  0  2  0  0  0  0  0  0  0  0  0
    0.5906   62.6540  113.5586 C   0  0  1  0  0  0  0  0  0  0  0  0
   -0.6147   61.7719  113.8227 C   0  0  0  0  0  0  0  0  0  0  0  0
   -1.6490   62.0921  112.7793 C   0  0  2  0  0  0  0  0  0  0  0  0
   -1.8985   63.5765  112.6853 C   0  0  0  0  0  0  0  0  0  0  0  0
   -2.8878   61.3278  112.8732 C   0  0  0  0  0  0  0  0  0  0  0  0
   -3.2839   61.0916  111.6245 C   0  0  0  0  0  0  0  0  0  0  0  0
   -2.2837   61.7139  110.6741 C   0  0  0  0  0  0  0  0  0  0  0  0
   -0.0202   62.4437  111.1252 C   0  0  0  0  0  0  0  0  0  0  0  0
    1.8986   61.9644  113.7618 C   0  0  2  0  0  0  0  0  0  0  0  0
    2.6118   62.4665  115.0287 C   0  0  0  0  0  0  0  0  0  0  0  0
    1.7286   60.4652  113.9882 C   0  0  0  0  0  0  0  0  0  0  0  0
    3.8398   62.9597  110.8601 C   0  0  0  0  0  0  0  0  0  0  0  0
    4.1845   63.7099  109.7462 C   0  0  0  0  0  0  0  0  0  0  0  0
    5.3223   63.3255  109.0591 C   0  0  0  0  0  0  0  0  0  0  0  0
    3.9546   61.3838  112.3974 N   0  0  0  0  0  0  0  0  0  0  0  0
   -0.6806   64.3057  112.4297 N   0  0  0  0  0  0  0  0  0  0  0  0
   -1.1043   61.6189  111.5095 N   0  0  1  0  0  4  0  0  0  0  0  0
   -3.0068   64.0977  112.8118 O   0  0  0  0  0  0  0  0  0  0  0  0
    7.4860   61.8352  108.5461 Cl  0  0  0  0  0  0  0  0  0  0  0  0
    5.7858   64.2510  107.6483 Cl  0  0  0  0  0  0  0  0  0  0  0  0
  2  1  2  0
  1 21  1  0
  1 26  1  0
  3  2  1  0
  3 19  2  0
 22  3  1  0
  4  5  2  0
  4 16  1  0
  4 22  1  0
  5  6  1  0
  5 19  1  0
  7  6  1  6
  7  8  1  0
  7 15  1  0
  7 23  1  0
  8  9  1  6
  8 16  1  0
  9 10  1  0
 10 11  1  0
 10 12  1  1
 10 24  1  0
 11 23  1  0
 11 25  2  0
 12 13  2  0
 13 14  1  0
 24 14  1  6
 15 24  1  0
 16 17  1  1
 16 18  1  0
 19 20  1  0
 20 21  2  0
 21 27  1  0
M  CHG  1  24   1
M  END
$$$$
