
     RDKit          3D

 27 32  0  0  0  0  0  0  0  0999 V2000
   17.3495   68.1383  141.5229 C   0  0  0  0  0  0  0  0  0  0  0  0
   18.2745   69.0111  142.0677 C   0  0  0  0  0  0  0  0  0  0  0  0
   19.5990   68.6308  142.2011 C   0  0  0  0  0  0  0  0  0  0  0  0
   21.7372   68.4194  142.5762 C   0  0  0  0  0  0  0  0  0  0  0  0
   21.2896   67.2474  142.0153 C   0  0  0  0  0  0  0  0  0  0  0  0
   22.2615   66.1580  141.7935 C   0  0  0  0  0  0  0  0  0  0  0  0
   23.5618   66.7405  141.3945 C   0  0  2  0  0  0  0  0  0  0  0  0
   24.1275   67.7374  142.3568 C   0  0  1  0  0  0  0  0  0  0  0  0
   25.3230   68.4459  141.7489 C   0  0  0  0  0  0  0  0  0  0  0  0
   25.6668   67.7381  140.4676 C   0  0  2  0  0  0  0  0  0  0  0  0
   25.7897   66.2492  140.6742 C   0  0  0  0  0  0  0  0  0  0  0  0
   26.8004   68.2903  139.7343 C   0  0  0  0  0  0  0  0  0  0  0  0
   26.5075   68.1768  138.4407 C   0  0  0  0  0  0  0  0  0  0  0  0
   25.1441   67.5330  138.3083 C   0  0  0  0  0  0  0  0  0  0  0  0
   23.4113   67.3025  139.9827 C   0  0  0  0  0  0  0  0  0  0  0  0
   23.1290   68.6600  142.9729 C   0  0  2  0  0  0  0  0  0  0  0  0
   23.1514   68.5739  144.5084 C   0  0  0  0  0  0  0  0  0  0  0  0
   23.4344   70.1235  142.6682 C   0  0  0  0  0  0  0  0  0  0  0  0
   19.9474   67.3818  141.7805 C   0  0  0  0  0  0  0  0  0  0  0  0
   19.0591   66.4713  141.2286 C   0  0  0  0  0  0  0  0  0  0  0  0
   17.7416   66.8762  141.1065 C   0  0  0  0  0  0  0  0  0  0  0  0
   20.6822   69.2549  142.6812 N   0  0  0  0  0  0  0  0  0  0  0  0
   24.5923   65.6917  141.2535 N   0  0  0  0  0  0  0  0  0  0  0  0
   24.5625   68.0024  139.5491 N   0  0  1  0  0  4  0  0  0  0  0  0
   26.7906   65.5940  140.3829 O   0  0  0  0  0  0  0  0  0  0  0  0
   15.6650   68.5511  141.3251 Cl  0  0  0  0  0  0  0  0  0  0  0  0
   16.5942   65.7513  140.4139 Cl  0  0  0  0  0  0  0  0  0  0  0  0
  2  1  2  0
  1 21  1  0
  1 26  1  0
  3  2  1  0
  3 19  2  0
 22  3  1  0
  4  5  2  0
  4 16  1  0
  4 22  1  0
  5  6  1  0
  5 19  1  0
  7  6  1  1
  7  8  1  0
  7 15  1  0
  7 23  1  0
  8  9  1  6
  8 16  1  0
  9 10  1  0
 10 11  1  0
 10 12  1  6
 10 24  1  0
 11 23  1  0
 11 25  2  0
 12 13  2  0
 13 14  1  0
 24 14  1  6
 15 24  1  0
 16 17  1  1
 16 18  1  0
 19 20  1  0
 20 21  2  0
 21 27  1  0
M  CHG  1  24   1
M  END
$$$$
