
     RDKit          3D

 27 32  0  0  0  0  0  0  0  0999 V2000
    6.2706   58.5008  113.0395 C   0  0  0  0  0  0  0  0  0  0  0  0
    6.0330   59.8637  113.0210 C   0  0  0  0  0  0  0  0  0  0  0  0
    4.7752   60.3488  112.7057 C   0  0  0  0  0  0  0  0  0  0  0  0
    2.9714   61.4942  112.2681 C   0  0  0  0  0  0  0  0  0  0  0  0
    2.6645   60.1604  112.1441 C   0  0  0  0  0  0  0  0  0  0  0  0
    1.2859   59.7883  111.7677 C   0  0  0  0  0  0  0  0  0  0  0  0
    0.3375   60.7277  112.4058 C   0  0  2  0  0  0  0  0  0  0  0  0
    0.5761   62.1721  112.0953 C   0  0  1  0  0  0  0  0  0  0  0  0
   -0.2843   63.0562  112.9778 C   0  0  0  0  0  0  0  0  0  0  0  0
   -1.2511   62.1654  113.7078 C   0  0  2  0  0  0  0  0  0  0  0  0
   -1.9725   61.2393  112.7610 C   0  0  0  0  0  0  0  0  0  0  0  0
   -2.1645   62.8484  114.6171 C   0  0  0  0  0  0  0  0  0  0  0  0
   -2.3258   62.0459  115.6669 C   0  0  0  0  0  0  0  0  0  0  0  0
   -1.4988   60.7966  115.4522 C   0  0  0  0  0  0  0  0  0  0  0  0
    0.3288   60.4399  113.9055 C   0  0  0  0  0  0  0  0  0  0  0  0
    2.0108   62.5811  112.0481 C   0  0  2  0  0  0  0  0  0  0  0  0
    2.3779   63.2004  110.6889 C   0  0  0  0  0  0  0  0  0  0  0  0
    2.3306   63.6733  113.0642 C   0  0  0  0  0  0  0  0  0  0  0  0
    3.7977   59.4430  112.4192 C   0  0  0  0  0  0  0  0  0  0  0  0
    3.9853   58.0691  112.4241 C   0  0  0  0  0  0  0  0  0  0  0  0
    5.2513   57.6105  112.7424 C   0  0  0  0  0  0  0  0  0  0  0  0
    4.2730   61.5868  112.6135 N   0  0  0  0  0  0  0  0  0  0  0  0
   -1.0500   60.4514  111.9810 N   0  0  0  0  0  0  0  0  0  0  0  0
   -0.4498   61.3703  114.6344 N   0  0  1  0  0  4  0  0  0  0  0  0
   -3.1982   61.1676  112.6685 O   0  0  0  0  0  0  0  0  0  0  0  0
    7.8304   57.8200  113.4279 Cl  0  0  0  0  0  0  0  0  0  0  0  0
    5.5223   55.8818  112.7579 Cl  0  0  0  0  0  0  0  0  0  0  0  0
  2  1  2  0
  1 21  1  0
  1 26  1  0
  3  2  1  0
  3 19  2  0
 22  3  1  0
  4  5  2  0
  4 16  1  0
  4 22  1  0
  5  6  1  0
  5 19  1  0
  7  6  1  6
  7  8  1  0
  7 15  1  0
  7 23  1  0
  8  9  1  1
  8 16  1  0
  9 10  1  0
 10 11  1  0
 10 12  1  1
 10 24  1  0
 11 23  1  0
 11 25  2  0
 12 13  2  0
 13 14  1  0
 24 14  1  1
 15 24  1  0
 16 17  1  6
 16 18  1  0
 19 20  1  0
 20 21  2  0
 21 27  1  0
M  CHG  1  24   1
M  END
$$$$
