
     RDKit          3D

 27 32  0  0  0  0  0  0  0  0999 V2000
    5.1442   63.3619  109.4464 C   0  0  0  0  0  0  0  0  0  0  0  0
    4.6409   62.0804  109.5834 C   0  0  0  0  0  0  0  0  0  0  0  0
    4.2818   61.6011  110.8317 C   0  0  0  0  0  0  0  0  0  0  0  0
    3.6129   60.4926  112.5869 C   0  0  0  0  0  0  0  0  0  0  0  0
    4.0228   61.7361  113.0044 C   0  0  0  0  0  0  0  0  0  0  0  0
    3.9403   62.0570  114.4435 C   0  0  0  0  0  0  0  0  0  0  0  0
    2.7280   61.4283  115.0129 C   0  0  2  0  0  0  0  0  0  0  0  0
    2.6348   59.9475  114.8170 C   0  0  1  0  0  0  0  0  0  0  0  0
    1.2612   59.4426  115.2156 C   0  0  0  0  0  0  0  0  0  0  0  0
    0.5376   60.5771  115.8867 C   0  0  2  0  0  0  0  0  0  0  0  0
    1.3760   61.2016  116.9737 C   0  0  0  0  0  0  0  0  0  0  0  0
   -0.8163   60.2744  116.3372 C   0  0  0  0  0  0  0  0  0  0  0  0
   -1.5378   61.3751  116.1377 C   0  0  0  0  0  0  0  0  0  0  0  0
   -0.6425   62.4384  115.5388 C   0  0  0  0  0  0  0  0  0  0  0  0
    1.5120   62.1736  114.4674 C   0  0  0  0  0  0  0  0  0  0  0  0
    3.0953   59.4547  113.4855 C   0  0  2  0  0  0  0  0  0  0  0  0
    4.2219   58.4169  113.6252 C   0  0  0  0  0  0  0  0  0  0  0  0
    1.9909   58.7202  112.7314 C   0  0  0  0  0  0  0  0  0  0  0  0
    4.4423   62.4305  111.9016 C   0  0  0  0  0  0  0  0  0  0  0  0
    4.9416   63.7213  111.8166 C   0  0  0  0  0  0  0  0  0  0  0  0
    5.2929   64.1759  110.5579 C   0  0  0  0  0  0  0  0  0  0  0  0
    3.7807   60.4315  111.2490 N   0  0  0  0  0  0  0  0  0  0  0  0
    2.6540   61.6438  116.4724 N   0  0  0  0  0  0  0  0  0  0  0  0
    0.2885   61.5714  114.8462 N   0  0  1  0  0  4  0  0  0  0  0  0
    1.0107   61.3177  118.1438 O   0  0  0  0  0  0  0  0  0  0  0  0
    5.6166   64.0304  107.9046 Cl  0  0  0  0  0  0  0  0  0  0  0  0
    5.9266   65.8007  110.4152 Cl  0  0  0  0  0  0  0  0  0  0  0  0
  2  1  2  0
  1 21  1  0
  1 26  1  0
  3  2  1  0
  3 19  2  0
 22  3  1  0
  4  5  2  0
  4 16  1  0
  4 22  1  0
  5  6  1  0
  5 19  1  0
  7  6  1  6
  7  8  1  0
  7 15  1  0
  7 23  1  0
  8  9  1  6
  8 16  1  0
  9 10  1  0
 10 11  1  0
 10 12  1  1
 10 24  1  0
 11 23  1  0
 11 25  2  0
 12 13  2  0
 13 14  1  0
 24 14  1  1
 15 24  1  0
 16 17  1  1
 16 18  1  0
 19 20  1  0
 20 21  2  0
 21 27  1  0
M  CHG  1  24   1
M  END
$$$$
