
     RDKit          3D

 27 32  0  0  0  0  0  0  0  0999 V2000
   17.3568   68.0828  141.1089 C   0  0  0  0  0  0  0  0  0  0  0  0
   18.1603   69.1373  141.5050 C   0  0  0  0  0  0  0  0  0  0  0  0
   19.4965   68.9248  141.7984 C   0  0  0  0  0  0  0  0  0  0  0  0
   21.6077   69.0073  142.3398 C   0  0  0  0  0  0  0  0  0  0  0  0
   21.3043   67.7051  142.0224 C   0  0  0  0  0  0  0  0  0  0  0  0
   22.3771   66.6935  142.1035 C   0  0  0  0  0  0  0  0  0  0  0  0
   23.6530   67.3021  141.6665 C   0  0  2  0  0  0  0  0  0  0  0  0
   24.0559   68.5307  142.4203 C   0  0  1  0  0  0  0  0  0  0  0  0
   25.2341   69.2072  141.7459 C   0  0  0  0  0  0  0  0  0  0  0  0
   25.7367   68.2808  140.6735 C   0  0  2  0  0  0  0  0  0  0  0  0
   25.9644   66.8888  141.2076 C   0  0  0  0  0  0  0  0  0  0  0  0
   26.8764   68.7727  139.9075 C   0  0  0  0  0  0  0  0  0  0  0  0
   26.6986   68.3595  138.6547 C   0  0  0  0  0  0  0  0  0  0  0  0
   25.4077   67.5725  138.5836 C   0  0  0  0  0  0  0  0  0  0  0  0
   23.5708   67.5345  140.1595 C   0  0  0  0  0  0  0  0  0  0  0  0
   22.9388   69.4611  142.7580 C   0  0  2  0  0  0  0  0  0  0  0  0
   22.8447   69.7052  144.2737 C   0  0  0  0  0  0  0  0  0  0  0  0
   23.1465   70.8493  142.1600 C   0  0  0  0  0  0  0  0  0  0  0  0
   19.9789   67.6551  141.6828 C   0  0  0  0  0  0  0  0  0  0  0  0
   19.2155   66.5662  141.2904 C   0  0  0  0  0  0  0  0  0  0  0  0
   17.8834   66.8055  141.0029 C   0  0  0  0  0  0  0  0  0  0  0  0
   20.4827   69.7391  142.1954 N   0  0  0  0  0  0  0  0  0  0  0  0
   24.7741   66.3528  141.8210 N   0  0  0  0  0  0  0  0  0  0  0  0
   24.6918   68.2353  139.6542 N   0  0  1  0  0  4  0  0  0  0  0  0
   27.0359   66.2875  141.1278 O   0  0  0  0  0  0  0  0  0  0  0  0
   15.6654   68.2781  140.7238 Cl  0  0  0  0  0  0  0  0  0  0  0  0
   16.8915   65.4529  140.5046 Cl  0  0  0  0  0  0  0  0  0  0  0  0
  2  1  2  0
  1 21  1  0
  1 26  1  0
  3  2  1  0
  3 19  2  0
 22  3  1  0
  4  5  2  0
  4 16  1  0
  4 22  1  0
  5  6  1  0
  5 19  1  0
  7  6  1  1
  7  8  1  0
  7 15  1  0
  7 23  1  0
  8  9  1  6
  8 16  1  0
  9 10  1  0
 10 11  1  0
 10 12  1  6
 10 24  1  0
 11 23  1  0
 11 25  2  0
 12 13  2  0
 13 14  1  0
 24 14  1  6
 15 24  1  0
 16 17  1  1
 16 18  1  0
 19 20  1  0
 20 21  2  0
 21 27  1  0
M  CHG  1  24   1
M  END
$$$$
