
     RDKit          3D

 27 32  0  0  0  0  0  0  0  0999 V2000
    5.9749   60.9178  110.0953 C   0  0  0  0  0  0  0  0  0  0  0  0
    5.6276   60.3495  111.3079 C   0  0  0  0  0  0  0  0  0  0  0  0
    4.5963   60.8856  112.0602 C   0  0  0  0  0  0  0  0  0  0  0  0
    3.0634   61.4175  113.5177 C   0  0  0  0  0  0  0  0  0  0  0  0
    2.9860   62.3133  112.4784 C   0  0  0  0  0  0  0  0  0  0  0  0
    1.9649   63.3781  112.5426 C   0  0  0  0  0  0  0  0  0  0  0  0
    0.7386   62.8382  113.1702 C   0  0  2  0  0  0  0  0  0  0  0  0
    0.9360   62.2417  114.5285 C   0  0  1  0  0  0  0  0  0  0  0  0
   -0.3144   61.5087  114.9755 C   0  0  0  0  0  0  0  0  0  0  0  0
   -1.4044   61.8277  113.9900 C   0  0  2  0  0  0  0  0  0  0  0  0
   -1.5293   63.3139  113.7656 C   0  0  0  0  0  0  0  0  0  0  0  0
   -2.6926   61.1986  114.2589 C   0  0  0  0  0  0  0  0  0  0  0  0
   -3.2166   60.8856  113.0759 C   0  0  0  0  0  0  0  0  0  0  0  0
   -2.2532   61.3166  111.9910 C   0  0  0  0  0  0  0  0  0  0  0  0
    0.0968   61.8638  112.1851 C   0  0  0  0  0  0  0  0  0  0  0  0
    2.1909   61.4514  114.6967 C   0  0  2  0  0  0  0  0  0  0  0  0
    3.0545   61.9990  115.8456 C   0  0  0  0  0  0  0  0  0  0  0  0
    1.9099   60.0034  115.0871 C   0  0  0  0  0  0  0  0  0  0  0  0
    3.9488   61.9779  111.5645 C   0  0  0  0  0  0  0  0  0  0  0  0
    4.2587   62.5835  110.3563 C   0  0  0  0  0  0  0  0  0  0  0  0
    5.2932   62.0283  109.6240 C   0  0  0  0  0  0  0  0  0  0  0  0
    4.0592   60.5496  113.2400 N   0  0  0  0  0  0  0  0  0  0  0  0
   -0.2791   63.8950  113.3417 N   0  0  0  0  0  0  0  0  0  0  0  0
   -1.0177   61.1871  112.7358 N   0  0  1  0  0  4  0  0  0  0  0  0
   -2.5718   63.9491  113.9258 O   0  0  0  0  0  0  0  0  0  0  0  0
    7.2633   60.2948  109.0956 Cl  0  0  0  0  0  0  0  0  0  0  0  0
    5.7102   62.7683  108.0942 Cl  0  0  0  0  0  0  0  0  0  0  0  0
  2  1  2  0
  1 21  1  0
  1 26  1  0
  3  2  1  0
  3 19  2  0
 22  3  1  0
  4  5  2  0
  4 16  1  0
  4 22  1  0
  5  6  1  0
  5 19  1  0
  7  6  1  6
  7  8  1  0
  7 15  1  0
  7 23  1  0
  8  9  1  6
  8 16  1  0
  9 10  1  0
 10 11  1  0
 10 12  1  1
 10 24  1  0
 11 23  1  0
 11 25  2  0
 12 13  2  0
 13 14  1  0
 24 14  1  6
 15 24  1  0
 16 17  1  1
 16 18  1  0
 19 20  1  0
 20 21  2  0
 21 27  1  0
M  CHG  1  24   1
M  END
$$$$
