
     RDKit          3D

 27 32  0  0  0  0  0  0  0  0999 V2000
    5.7640   62.4668  109.4943 C   0  0  0  0  0  0  0  0  0  0  0  0
    5.2118   61.5186  110.3370 C   0  0  0  0  0  0  0  0  0  0  0  0
    4.1441   61.8482  111.1544 C   0  0  0  0  0  0  0  0  0  0  0  0
    2.4889   61.9636  112.5701 C   0  0  0  0  0  0  0  0  0  0  0  0
    2.6287   63.1983  111.9832 C   0  0  0  0  0  0  0  0  0  0  0  0
    1.7083   64.2787  112.3910 C   0  0  0  0  0  0  0  0  0  0  0  0
    0.3670   63.7062  112.6405 C   0  0  2  0  0  0  0  0  0  0  0  0
    0.3312   62.6012  113.6493 C   0  0  1  0  0  0  0  0  0  0  0  0
   -1.0278   61.9277  113.6539 C   0  0  0  0  0  0  0  0  0  0  0  0
   -1.9469   62.7539  112.7975 C   0  0  2  0  0  0  0  0  0  0  0  0
   -1.9067   64.2100  113.1885 C   0  0  0  0  0  0  0  0  0  0  0  0
   -3.3107   62.2503  112.6793 C   0  0  0  0  0  0  0  0  0  0  0  0
   -3.7023   62.5036  111.4325 C   0  0  0  0  0  0  0  0  0  0  0  0
   -2.5710   63.1932  110.7010 C   0  0  0  0  0  0  0  0  0  0  0  0
   -0.2265   63.2962  111.2946 C   0  0  0  0  0  0  0  0  0  0  0  0
    1.4769   61.6469  113.5841 C   0  0  2  0  0  0  0  0  0  0  0  0
    2.2296   61.5744  114.9235 C   0  0  0  0  0  0  0  0  0  0  0  0
    1.0179   60.2149  113.3261 C   0  0  0  0  0  0  0  0  0  0  0  0
    3.6680   63.1242  111.0950 C   0  0  0  0  0  0  0  0  0  0  0  0
    4.1860   64.1095  110.2683 C   0  0  0  0  0  0  0  0  0  0  0  0
    5.2525   63.7541  109.4617 C   0  0  0  0  0  0  0  0  0  0  0  0
    3.4298   61.1498  112.0462 N   0  0  0  0  0  0  0  0  0  0  0  0
   -0.5647   64.7365  113.1429 N   0  0  0  0  0  0  0  0  0  0  0  0
   -1.4597   62.6145  111.4278 N   0  0  1  0  0  4  0  0  0  0  0  0
   -2.8996   64.8650  113.5067 O   0  0  0  0  0  0  0  0  0  0  0  0
    7.1099   62.1209  108.4378 Cl  0  0  0  0  0  0  0  0  0  0  0  0
    5.9303   64.9741  108.4061 Cl  0  0  0  0  0  0  0  0  0  0  0  0
  2  1  2  0
  1 21  1  0
  1 26  1  0
  3  2  1  0
  3 19  2  0
 22  3  1  0
  4  5  2  0
  4 16  1  0
  4 22  1  0
  5  6  1  0
  5 19  1  0
  7  6  1  6
  7  8  1  0
  7 15  1  0
  7 23  1  0
  8  9  1  6
  8 16  1  0
  9 10  1  0
 10 11  1  0
 10 12  1  6
 10 24  1  0
 11 23  1  0
 11 25  2  0
 12 13  2  0
 13 14  1  0
 24 14  1  6
 15 24  1  0
 16 17  1  1
 16 18  1  0
 19 20  1  0
 20 21  2  0
 21 27  1  0
M  CHG  1  24   1
M  END
$$$$
