
     RDKit          3D

 27 32  0  0  0  0  0  0  0  0999 V2000
    5.8567   57.7774  114.5872 C   0  0  0  0  0  0  0  0  0  0  0  0
    6.0048   59.0508  114.0668 C   0  0  0  0  0  0  0  0  0  0  0  0
    4.9727   59.6388  113.3556 C   0  0  0  0  0  0  0  0  0  0  0  0
    3.6138   60.8931  112.1992 C   0  0  0  0  0  0  0  0  0  0  0  0
    2.9700   59.7088  112.4666 C   0  0  0  0  0  0  0  0  0  0  0  0
    1.5949   59.5263  111.9600 C   0  0  0  0  0  0  0  0  0  0  0  0
    0.8730   60.8154  112.0384 C   0  0  2  0  0  0  0  0  0  0  0  0
    1.5318   61.9513  111.3203 C   0  0  1  0  0  0  0  0  0  0  0  0
    0.8508   63.2633  111.6600 C   0  0  0  0  0  0  0  0  0  0  0  0
   -0.4001   62.9396  112.4292 C   0  0  2  0  0  0  0  0  0  0  0  0
   -1.2337   61.9032  111.7182 C   0  0  0  0  0  0  0  0  0  0  0  0
   -1.1899   64.0916  112.8496 C   0  0  0  0  0  0  0  0  0  0  0  0
   -1.6841   63.7956  114.0496 C   0  0  0  0  0  0  0  0  0  0  0  0
   -1.2115   62.4115  114.4392 C   0  0  0  0  0  0  0  0  0  0  0  0
    0.6137   61.1198  113.5121 C   0  0  0  0  0  0  0  0  0  0  0  0
    3.0192   61.9962  111.4363 C   0  0  2  0  0  0  0  0  0  0  0  0
    3.6954   61.9672  110.0551 C   0  0  0  0  0  0  0  0  0  0  0  0
    3.5068   63.2943  112.0729 C   0  0  0  0  0  0  0  0  0  0  0  0
    3.8242   58.9228  113.1925 C   0  0  0  0  0  0  0  0  0  0  0  0
    3.6268   57.6451  113.6938 C   0  0  0  0  0  0  0  0  0  0  0  0
    4.6737   57.0804  114.4006 C   0  0  0  0  0  0  0  0  0  0  0  0
    4.8424   60.8283  112.7545 N   0  0  0  0  0  0  0  0  0  0  0  0
   -0.4788   60.7031  111.4536 N   0  0  0  0  0  0  0  0  0  0  0  0
    0.0411   62.3986  113.7120 N   0  0  1  0  0  4  0  0  0  0  0  0
   -2.4132   62.0655  111.4042 O   0  0  0  0  0  0  0  0  0  0  0  0
    7.1152   56.9759  115.4931 Cl  0  0  0  0  0  0  0  0  0  0  0  0
    4.4576   55.4688  115.0470 Cl  0  0  0  0  0  0  0  0  0  0  0  0
  2  1  2  0
  1 21  1  0
  1 26  1  0
  3  2  1  0
  3 19  2  0
 22  3  1  0
  4  5  2  0
  4 16  1  0
  4 22  1  0
  5  6  1  0
  5 19  1  0
  7  6  1  1
  7  8  1  0
  7 15  1  0
  7 23  1  0
  8  9  1  1
  8 16  1  0
  9 10  1  0
 10 11  1  0
 10 12  1  1
 10 24  1  0
 11 23  1  0
 11 25  2  0
 12 13  2  0
 13 14  1  0
 24 14  1  1
 15 24  1  0
 16 17  1  6
 16 18  1  0
 19 20  1  0
 20 21  2  0
 21 27  1  0
M  CHG  1  24   1
M  END
$$$$
