
     RDKit          3D

 27 32  0  0  0  0  0  0  0  0999 V2000
    5.4248   62.1847  109.6706 C   0  0  0  0  0  0  0  0  0  0  0  0
    4.7443   61.6943  110.7709 C   0  0  0  0  0  0  0  0  0  0  0  0
    3.6135   62.3422  111.2382 C   0  0  0  0  0  0  0  0  0  0  0  0
    1.8267   63.0545  112.2662 C   0  0  0  0  0  0  0  0  0  0  0  0
    2.0840   63.9127  111.2241 C   0  0  0  0  0  0  0  0  0  0  0  0
    1.1771   65.0597  111.0177 C   0  0  0  0  0  0  0  0  0  0  0  0
   -0.2079   64.6474  111.3349 C   0  0  2  0  0  0  0  0  0  0  0  0
   -0.4000   64.0897  112.7104 C   0  0  1  0  0  0  0  0  0  0  0  0
   -1.7818   63.4799  112.8500 C   0  0  0  0  0  0  0  0  0  0  0  0
   -2.5673   63.8493  111.6221 C   0  0  2  0  0  0  0  0  0  0  0  0
   -2.5007   65.3309  111.3482 C   0  0  0  0  0  0  0  0  0  0  0  0
   -3.9331   63.3393  111.5780 C   0  0  0  0  0  0  0  0  0  0  0  0
   -4.1802   63.0250  110.3083 C   0  0  0  0  0  0  0  0  0  0  0  0
   -2.9479   63.3329  109.4853 C   0  0  0  0  0  0  0  0  0  0  0  0
   -0.6760   63.6918  110.2397 C   0  0  0  0  0  0  0  0  0  0  0  0
    0.7008   63.2057  113.1946 C   0  0  2  0  0  0  0  0  0  0  0  0
    1.3053   63.7245  114.5104 C   0  0  0  0  0  0  0  0  0  0  0  0
    0.2054   61.8020  113.5294 C   0  0  0  0  0  0  0  0  0  0  0  0
    3.2058   63.4641  110.5800 C   0  0  0  0  0  0  0  0  0  0  0  0
    3.8524   63.9949  109.4742 C   0  0  0  0  0  0  0  0  0  0  0  0
    4.9797   63.3285  109.0275 C   0  0  0  0  0  0  0  0  0  0  0  0
    2.7785   62.0975  112.2561 N   0  0  0  0  0  0  0  0  0  0  0  0
   -1.1383   65.7902  111.2334 N   0  0  0  0  0  0  0  0  0  0  0  0
   -1.9466   63.1309  110.5122 N   0  0  1  0  0  4  0  0  0  0  0  0
   -3.4899   66.0555  111.2369 O   0  0  0  0  0  0  0  0  0  0  0  0
    6.8562   61.4195  109.0282 Cl  0  0  0  0  0  0  0  0  0  0  0  0
    5.8198   63.9719  107.6339 Cl  0  0  0  0  0  0  0  0  0  0  0  0
  2  1  2  0
  1 21  1  0
  1 26  1  0
  3  2  1  0
  3 19  2  0
 22  3  1  0
  4  5  2  0
  4 16  1  0
  4 22  1  0
  5  6  1  0
  5 19  1  0
  7  6  1  6
  7  8  1  0
  7 15  1  0
  7 23  1  0
  8  9  1  6
  8 16  1  0
  9 10  1  0
 10 11  1  0
 10 12  1  1
 10 24  1  0
 11 23  1  0
 11 25  2  0
 12 13  2  0
 13 14  1  0
 24 14  1  6
 15 24  1  0
 16 17  1  1
 16 18  1  0
 19 20  1  0
 20 21  2  0
 21 27  1  0
M  CHG  1  24   1
M  END
$$$$
