
     RDKit          3D

 27 32  0  0  0  0  0  0  0  0999 V2000
    5.5605   61.9784  110.0726 C   0  0  0  0  0  0  0  0  0  0  0  0
    4.9133   61.6164  111.2405 C   0  0  0  0  0  0  0  0  0  0  0  0
    3.7465   62.2580  111.6198 C   0  0  0  0  0  0  0  0  0  0  0  0
    1.9223   63.0073  112.5514 C   0  0  0  0  0  0  0  0  0  0  0  0
    2.1253   63.7160  111.3915 C   0  0  0  0  0  0  0  0  0  0  0  0
    1.1505   64.7642  111.0285 C   0  0  0  0  0  0  0  0  0  0  0  0
   -0.2065   64.3220  111.4183 C   0  0  2  0  0  0  0  0  0  0  0  0
   -0.3617   63.9630  112.8629 C   0  0  1  0  0  0  0  0  0  0  0  0
   -1.7040   63.2999  113.1061 C   0  0  0  0  0  0  0  0  0  0  0  0
   -2.5129   63.4368  111.8459 C   0  0  2  0  0  0  0  0  0  0  0  0
   -2.5362   64.8630  111.3561 C   0  0  0  0  0  0  0  0  0  0  0  0
   -3.8457   62.8460  111.8925 C   0  0  0  0  0  0  0  0  0  0  0  0
   -4.0762   62.3335  110.6858 C   0  0  0  0  0  0  0  0  0  0  0  0
   -2.8665   62.5890  109.8127 C   0  0  0  0  0  0  0  0  0  0  0  0
   -0.6187   63.1891  110.4810 C   0  0  0  0  0  0  0  0  0  0  0  0
    0.7914   63.2270  113.4599 C   0  0  2  0  0  0  0  0  0  0  0  0
    1.3665   63.9691  114.6782 C   0  0  0  0  0  0  0  0  0  0  0  0
    0.3821   61.8612  114.0031 C   0  0  0  0  0  0  0  0  0  0  0  0
    3.2706   63.2444  110.8081 C   0  0  0  0  0  0  0  0  0  0  0  0
    3.8816   63.6435  109.6291 C   0  0  0  0  0  0  0  0  0  0  0  0
    5.0460   62.9863  109.2730 C   0  0  0  0  0  0  0  0  0  0  0  0
    2.9299   62.1173  112.6718 N   0  0  0  0  0  0  0  0  0  0  0  0
   -1.2042   65.3802  111.1600 N   0  0  0  0  0  0  0  0  0  0  0  0
   -1.8526   62.6005  110.8471 N   0  0  1  0  0  4  0  0  0  0  0  0
   -3.5675   65.5035  111.1503 O   0  0  0  0  0  0  0  0  0  0  0  0
    7.0340   61.2128  109.5340 Cl  0  0  0  0  0  0  0  0  0  0  0  0
    5.8428   63.4655  107.7906 Cl  0  0  0  0  0  0  0  0  0  0  0  0
  2  1  2  0
  1 21  1  0
  1 26  1  0
  3  2  1  0
  3 19  2  0
 22  3  1  0
  4  5  2  0
  4 16  1  0
  4 22  1  0
  5  6  1  0
  5 19  1  0
  7  6  1  1
  7  8  1  0
  7 15  1  0
  7 23  1  0
  8  9  1  6
  8 16  1  0
  9 10  1  0
 10 11  1  0
 10 12  1  1
 10 24  1  0
 11 23  1  0
 11 25  2  0
 12 13  2  0
 13 14  1  0
 24 14  1  6
 15 24  1  0
 16 17  1  1
 16 18  1  0
 19 20  1  0
 20 21  2  0
 21 27  1  0
M  CHG  1  24   1
M  END
$$$$
