
     RDKit          3D

 14 13  0  0  0  0  0  0  0  0999 V2000
   31.2771   38.1250   35.2572 C   0  0  0  0  0  0  0  0  0  0  0  0
   30.0920   38.1370   36.1632 C   0  0  0  0  0  0  0  0  0  0  0  0
   28.8258   38.6111   35.5304 C   0  0  0  0  0  0  0  0  0  0  0  0
   26.7286   39.6163   36.1239 C   0  0  0  0  0  0  0  0  0  0  0  0
   25.4855   39.0817   35.4884 C   0  0  0  0  0  0  0  0  0  0  0  0
   24.4182   40.1071   35.2896 C   0  0  0  0  0  0  0  0  0  0  0  0
   23.1004   39.5395   34.8817 C   0  0  0  0  0  0  0  0  0  0  0  0
   22.2176   40.4901   34.1605 C   0  0  0  0  0  0  0  0  0  0  0  0
   20.9254   39.9813   33.7160 C   0  0  0  0  0  0  0  0  0  0  0  0
   32.3771   37.4943   35.9841 N   0  0  0  0  0  4  0  0  0  0  0  0
   27.6959   38.5819   36.4197 N   0  0  0  0  0  4  0  0  0  0  0  0
   20.2112   39.0662   34.5427 N   0  0  0  0  0  0  0  0  0  0  0  0
   20.3902   40.3047   32.6284 O   0  0  0  0  0  0  0  0  0  0  0  0
   19.0316   38.5679   34.1113 O   0  0  0  0  0  0  0  0  0  0  0  0
  2  1  1  0
  1 10  1  0
  3  2  1  0
 11  3  1  0
  4  5  1  0
  4 11  1  0
  5  6  1  0
  6  7  1  0
  7  8  1  0
  8  9  1  0
  9 12  1  0
  9 13  2  0
 12 14  1  0
M  CHG  2  10   1  11   1
M  END
$$$$
