
     RDKit          3D

 14 13  0  0  0  0  0  0  0  0999 V2000
   30.2380   37.3246   38.3241 C   0  0  0  0  0  0  0  0  0  0  0  0
   29.6539   38.5443   37.6943 C   0  0  0  0  0  0  0  0  0  0  0  0
   28.5857   38.2772   36.6864 C   0  0  0  0  0  0  0  0  0  0  0  0
   26.6541   39.6858   36.4725 C   0  0  0  0  0  0  0  0  0  0  0  0
   25.7343   39.6847   35.2941 C   0  0  0  0  0  0  0  0  0  0  0  0
   24.3201   39.3424   35.6303 C   0  0  0  0  0  0  0  0  0  0  0  0
   23.3084   40.1708   34.9122 C   0  0  0  0  0  0  0  0  0  0  0  0
   22.6798   39.5006   33.7466 C   0  0  0  0  0  0  0  0  0  0  0  0
   21.2526   39.7247   33.5488 C   0  0  0  0  0  0  0  0  0  0  0  0
   31.2346   37.7689   39.2965 N   0  0  0  0  0  4  0  0  0  0  0  0
   28.0367   39.4721   36.1040 N   0  0  0  0  0  4  0  0  0  0  0  0
   20.3142   38.8408   34.1563 N   0  0  0  0  0  0  0  0  0  0  0  0
   20.7875   40.6666   32.8629 O   0  0  0  0  0  0  0  0  0  0  0  0
   18.9928   39.0403   33.9559 O   0  0  0  0  0  0  0  0  0  0  0  0
  2  1  1  0
  1 10  1  0
  3  2  1  0
 11  3  1  0
  4  5  1  0
  4 11  1  0
  5  6  1  0
  6  7  1  0
  7  8  1  0
  8  9  1  0
  9 12  1  0
  9 13  2  0
 12 14  1  0
M  CHG  2  10   1  11   1
M  END
$$$$
