
     RDKit          3D

 14 13  0  0  0  0  0  0  0  0999 V2000
   31.7073   38.8995   37.1013 C   0  0  0  0  0  0  0  0  0  0  0  0
   30.4849   38.2784   36.5138 C   0  0  0  0  0  0  0  0  0  0  0  0
   29.2311   39.0667   36.7012 C   0  0  0  0  0  0  0  0  0  0  0  0
   26.9259   39.3507   36.0958 C   0  0  0  0  0  0  0  0  0  0  0  0
   25.7469   38.7733   35.3808 C   0  0  0  0  0  0  0  0  0  0  0  0
   24.5237   39.6279   35.4421 C   0  0  0  0  0  0  0  0  0  0  0  0
   23.8564   39.8271   34.1229 C   0  0  0  0  0  0  0  0  0  0  0  0
   22.6946   38.9358   33.8802 C   0  0  0  0  0  0  0  0  0  0  0  0
   21.3814   39.5668   33.8204 C   0  0  0  0  0  0  0  0  0  0  0  0
   32.2225   37.9791   38.1130 N   0  0  0  0  0  4  0  0  0  0  0  0
   28.0910   38.4951   36.0365 N   0  0  0  0  0  4  0  0  0  0  0  0
   20.2874   38.9736   34.5149 N   0  0  0  0  0  0  0  0  0  0  0  0
   21.1478   40.6217   33.1828 O   0  0  0  0  0  0  0  0  0  0  0  0
   19.0287   39.3751   34.2310 O   0  0  0  0  0  0  0  0  0  0  0  0
  2  1  1  0
  1 10  1  0
  3  2  1  0
 11  3  1  0
  4  5  1  0
  4 11  1  0
  5  6  1  0
  6  7  1  0
  7  8  1  0
  8  9  1  0
  9 12  1  0
  9 13  2  0
 12 14  1  0
M  CHG  2  10   1  11   1
M  END
$$$$
