
     RDKit          3D

 14 13  0  0  0  0  0  0  0  0999 V2000
   31.9755   39.6290   35.8253 C   0  0  0  0  0  0  0  0  0  0  0  0
   30.7147   39.0752   35.2518 C   0  0  0  0  0  0  0  0  0  0  0  0
   29.5059   39.2551   36.1090 C   0  0  0  0  0  0  0  0  0  0  0  0
   27.1057   39.2526   36.1049 C   0  0  0  0  0  0  0  0  0  0  0  0
   26.0792   39.5762   35.0673 C   0  0  0  0  0  0  0  0  0  0  0  0
   24.7944   40.0919   35.6272 C   0  0  0  0  0  0  0  0  0  0  0  0
   23.7213   40.2808   34.6082 C   0  0  0  0  0  0  0  0  0  0  0  0
   22.3414   40.2423   35.1535 C   0  0  0  0  0  0  0  0  0  0  0  0
   21.2586   40.0622   34.1935 C   0  0  0  0  0  0  0  0  0  0  0  0
   32.6882   38.5239   36.4634 N   0  0  0  0  0  4  0  0  0  0  0  0
   28.3125   38.6873   35.5417 N   0  0  0  0  0  4  0  0  0  0  0  0
   20.0934   39.3386   34.5801 N   0  0  0  0  0  0  0  0  0  0  0  0
   21.2878   40.5134   33.0233 O   0  0  0  0  0  0  0  0  0  0  0  0
   19.1296   39.0995   33.6636 O   0  0  0  0  0  0  0  0  0  0  0  0
  2  1  1  0
  1 10  1  0
  3  2  1  0
 11  3  1  0
  4  5  1  0
  4 11  1  0
  5  6  1  0
  6  7  1  0
  7  8  1  0
  8  9  1  0
  9 12  1  0
  9 13  2  0
 12 14  1  0
M  CHG  2  10   1  11   1
M  END
$$$$
