
     RDKit          3D

 14 13  0  0  0  0  0  0  0  0999 V2000
   31.1463   37.9094   36.9002 C   0  0  0  0  0  0  0  0  0  0  0  0
   29.9991   38.8597   36.9789 C   0  0  0  0  0  0  0  0  0  0  0  0
   28.7158   38.3383   36.4224 C   0  0  0  0  0  0  0  0  0  0  0  0
   26.4048   38.7662   35.9355 C   0  0  0  0  0  0  0  0  0  0  0  0
   25.2716   39.7362   36.0340 C   0  0  0  0  0  0  0  0  0  0  0  0
   24.0088   39.2586   35.3957 C   0  0  0  0  0  0  0  0  0  0  0  0
   23.6202   40.0220   34.1744 C   0  0  0  0  0  0  0  0  0  0  0  0
   22.4616   40.9310   34.3595 C   0  0  0  0  0  0  0  0  0  0  0  0
   21.1383   40.3699   34.1142 C   0  0  0  0  0  0  0  0  0  0  0  0
   32.3671   38.6766   37.1389 N   0  0  0  0  0  4  0  0  0  0  0  0
   27.6407   39.2922   36.4730 N   0  0  0  0  0  4  0  0  0  0  0  0
   20.9887   38.9582   33.9883 N   0  0  0  0  0  0  0  0  0  0  0  0
   20.1001   41.0655   34.0043 O   0  0  0  0  0  0  0  0  0  0  0  0
   19.7781   38.4475   33.6730 O   0  0  0  0  0  0  0  0  0  0  0  0
  2  1  1  0
  1 10  1  0
  3  2  1  0
 11  3  1  0
  4  5  1  0
  4 11  1  0
  5  6  1  0
  6  7  1  0
  7  8  1  0
  8  9  1  0
  9 12  1  0
  9 13  2  0
 12 14  1  0
M  CHG  2  10   1  11   1
M  END
$$$$
