
     RDKit          3D

 14 13  0  0  0  0  0  0  0  0999 V2000
   31.6077   37.4960   36.5563 C   0  0  0  0  0  0  0  0  0  0  0  0
   30.5610   38.0235   35.6336 C   0  0  0  0  0  0  0  0  0  0  0  0
   29.2083   38.1784   36.2456 C   0  0  0  0  0  0  0  0  0  0  0  0
   26.9521   38.9549   35.9859 C   0  0  0  0  0  0  0  0  0  0  0  0
   25.9865   39.6973   35.1190 C   0  0  0  0  0  0  0  0  0  0  0  0
   24.5538   39.3934   35.4109 C   0  0  0  0  0  0  0  0  0  0  0  0
   23.5875   40.2286   34.6401 C   0  0  0  0  0  0  0  0  0  0  0  0
   22.1800   40.1230   35.0992 C   0  0  0  0  0  0  0  0  0  0  0  0
   21.1428   40.3079   34.0911 C   0  0  0  0  0  0  0  0  0  0  0  0
   31.6245   36.0416   36.4130 N   0  0  0  0  0  4  0  0  0  0  0  0
   28.2488   38.7898   35.3659 N   0  0  0  0  0  4  0  0  0  0  0  0
   21.1146   39.4538   32.9506 N   0  0  0  0  0  0  0  0  0  0  0  0
   20.2539   41.1901   34.1651 O   0  0  0  0  0  0  0  0  0  0  0  0
   20.1408   39.6155   32.0278 O   0  0  0  0  0  0  0  0  0  0  0  0
  2  1  1  0
  1 10  1  0
  3  2  1  0
 11  3  1  0
  4  5  1  0
  4 11  1  0
  5  6  1  0
  6  7  1  0
  7  8  1  0
  8  9  1  0
  9 12  1  0
  9 13  2  0
 12 14  1  0
M  CHG  2  10   1  11   1
M  END
$$$$
