
     RDKit          3D

 14 13  0  0  0  0  0  0  0  0999 V2000
   31.3383   38.9764   37.9109 C   0  0  0  0  0  0  0  0  0  0  0  0
   30.5300   38.4176   36.7886 C   0  0  0  0  0  0  0  0  0  0  0  0
   29.0706   38.2865   37.0737 C   0  0  0  0  0  0  0  0  0  0  0  0
   26.8259   38.5755   36.2745 C   0  0  0  0  0  0  0  0  0  0  0  0
   25.9505   39.1309   35.1975 C   0  0  0  0  0  0  0  0  0  0  0  0
   24.5541   39.4195   35.6412 C   0  0  0  0  0  0  0  0  0  0  0  0
   23.5533   39.4162   34.5350 C   0  0  0  0  0  0  0  0  0  0  0  0
   22.4542   40.4006   34.6965 C   0  0  0  0  0  0  0  0  0  0  0  0
   21.2269   40.1456   33.9516 C   0  0  0  0  0  0  0  0  0  0  0  0
   31.4826   37.9226   38.9133 N   0  0  0  0  0  4  0  0  0  0  0  0
   28.2338   38.7849   36.0155 N   0  0  0  0  0  4  0  0  0  0  0  0
   20.1480   39.4682   34.5904 N   0  0  0  0  0  0  0  0  0  0  0  0
   21.0561   40.4920   32.7580 O   0  0  0  0  0  0  0  0  0  0  0  0
   19.0860   39.0744   33.8535 O   0  0  0  0  0  0  0  0  0  0  0  0
  2  1  1  0
  1 10  1  0
  3  2  1  0
 11  3  1  0
  4  5  1  0
  4 11  1  0
  5  6  1  0
  6  7  1  0
  7  8  1  0
  8  9  1  0
  9 12  1  0
  9 13  2  0
 12 14  1  0
M  CHG  2  10   1  11   1
M  END
$$$$
