
     RDKit          3D

 14 13  0  0  0  0  0  0  0  0999 V2000
   31.8333   39.0341   36.3338 C   0  0  0  0  0  0  0  0  0  0  0  0
   30.7017   38.6505   35.4405 C   0  0  0  0  0  0  0  0  0  0  0  0
   29.3785   38.5355   36.1218 C   0  0  0  0  0  0  0  0  0  0  0  0
   27.0281   38.9207   35.8242 C   0  0  0  0  0  0  0  0  0  0  0  0
   25.8833   38.9426   34.8631 C   0  0  0  0  0  0  0  0  0  0  0  0
   24.5947   39.3956   35.4668 C   0  0  0  0  0  0  0  0  0  0  0  0
   23.3990   39.1274   34.6161 C   0  0  0  0  0  0  0  0  0  0  0  0
   22.4581   40.2694   34.4996 C   0  0  0  0  0  0  0  0  0  0  0  0
   21.2274   40.0353   33.7534 C   0  0  0  0  0  0  0  0  0  0  0  0
   33.0735   38.6942   35.6392 N   0  0  0  0  0  4  0  0  0  0  0  0
   28.2670   38.4952   35.2099 N   0  0  0  0  0  4  0  0  0  0  0  0
   20.1699   39.2977   34.3606 N   0  0  0  0  0  0  0  0  0  0  0  0
   21.0356   40.4508   32.5853 O   0  0  0  0  0  0  0  0  0  0  0  0
   19.1670   38.8237   33.5890 O   0  0  0  0  0  0  0  0  0  0  0  0
  2  1  1  0
  1 10  1  0
  3  2  1  0
 11  3  1  0
  4  5  1  0
  4 11  1  0
  5  6  1  0
  6  7  1  0
  7  8  1  0
  8  9  1  0
  9 12  1  0
  9 13  2  0
 12 14  1  0
M  CHG  2  10   1  11   1
M  END
$$$$
