
     RDKit          3D

 14 13  0  0  0  0  0  0  0  0999 V2000
   30.7174   37.7415   39.1076 C   0  0  0  0  0  0  0  0  0  0  0  0
   30.0239   38.5340   38.0510 C   0  0  0  0  0  0  0  0  0  0  0  0
   28.6027   38.1459   37.8098 C   0  0  0  0  0  0  0  0  0  0  0  0
   26.5630   38.5869   36.6241 C   0  0  0  0  0  0  0  0  0  0  0  0
   25.8522   39.4836   35.6621 C   0  0  0  0  0  0  0  0  0  0  0  0
   24.4301   39.1005   35.4151 C   0  0  0  0  0  0  0  0  0  0  0  0
   23.7030   40.0262   34.4988 C   0  0  0  0  0  0  0  0  0  0  0  0
   22.7949   39.3527   33.5371 C   0  0  0  0  0  0  0  0  0  0  0  0
   21.4334   39.8668   33.4461 C   0  0  0  0  0  0  0  0  0  0  0  0
   32.0414   38.3303   39.2979 N   0  0  0  0  0  4  0  0  0  0  0  0
   27.9371   38.9811   36.8466 N   0  0  0  0  0  4  0  0  0  0  0  0
   20.3639   39.1222   34.0228 N   0  0  0  0  0  0  0  0  0  0  0  0
   21.1367   40.9464   32.8802 O   0  0  0  0  0  0  0  0  0  0  0  0
   19.1073   39.3041   33.5603 O   0  0  0  0  0  0  0  0  0  0  0  0
  2  1  1  0
  1 10  1  0
  3  2  1  0
 11  3  1  0
  4  5  1  0
  4 11  1  0
  5  6  1  0
  6  7  1  0
  7  8  1  0
  8  9  1  0
  9 12  1  0
  9 13  2  0
 12 14  1  0
M  CHG  2  10   1  11   1
M  END
$$$$
