
     RDKit          3D

 14 13  0  0  0  0  0  0  0  0999 V2000
   15.4794   18.8987    3.3039 C   0  0  0  0  0  0  0  0  0  0  0  0
   14.9348   17.7080    2.5892 C   0  0  0  0  0  0  0  0  0  0  0  0
   13.5114   17.8345    2.1574 C   0  0  0  0  0  0  0  0  0  0  0  0
   11.6496   16.8321    1.0218 C   0  0  0  0  0  0  0  0  0  0  0  0
   10.7208   16.9150    2.1903 C   0  0  0  0  0  0  0  0  0  0  0  0
   10.1250   18.2690    2.3951 C   0  0  0  0  0  0  0  0  0  0  0  0
    9.2711   18.3779    3.6134 C   0  0  0  0  0  0  0  0  0  0  0  0
    8.6843   19.7231    3.8354 C   0  0  0  0  0  0  0  0  0  0  0  0
    9.3246   20.5634    4.8404 C   0  0  0  0  0  0  0  0  0  0  0  0
   16.8946   19.0085    2.9558 N   0  0  0  0  0  4  0  0  0  0  0  0
   13.0351   16.6980    1.4160 N   0  0  0  0  0  4  0  0  0  0  0  0
   10.5894   20.1783    5.3724 N   0  0  0  0  0  0  0  0  0  0  0  0
    8.8224   21.6270    5.2765 O   0  0  0  0  0  0  0  0  0  0  0  0
   11.1712   20.9491    6.3175 O   0  0  0  0  0  0  0  0  0  0  0  0
  2  1  1  0
  1 10  1  0
  3  2  1  0
 11  3  1  0
  4  5  1  0
  4 11  1  0
  5  6  1  0
  6  7  1  0
  7  8  1  0
  8  9  1  0
  9 12  1  0
  9 13  2  0
 12 14  1  0
M  CHG  2  10   1  11   1
M  END
$$$$
