
     RDKit          3D

 14 13  0  0  0  0  0  0  0  0999 V2000
   -9.1474    4.3242    0.7014 C   0  0  0  0  0  0  0  0  0  0  0  0
   -8.0465    3.3431    0.9267 C   0  0  0  0  0  0  0  0  0  0  0  0
   -6.7992    3.6139    0.1526 C   0  0  0  0  0  0  0  0  0  0  0  0
   -5.2967    4.1236    1.9535 C   0  0  0  0  0  0  0  0  0  0  0  0
   -4.3544    5.1246    2.5409 C   0  0  0  0  0  0  0  0  0  0  0  0
   -4.2513    6.3916    1.7572 C   0  0  0  0  0  0  0  0  0  0  0  0
   -3.3692    7.4204    2.3807 C   0  0  0  0  0  0  0  0  0  0  0  0
   -3.9151    8.8002    2.3483 C   0  0  0  0  0  0  0  0  0  0  0  0
   -3.0774    9.8533    2.9101 C   0  0  0  0  0  0  0  0  0  0  0  0
   -9.0299    5.3571    1.7288 N   0  0  0  0  0  4  0  0  0  0  0  0
   -5.9538    4.6069    0.7587 N   0  0  0  0  0  4  0  0  0  0  0  0
   -1.6744    9.8401    2.6601 N   0  0  0  0  0  0  0  0  0  0  0  0
   -3.5224   10.7909    3.6149 O   0  0  0  0  0  0  0  0  0  0  0  0
   -0.9013   10.8189    3.1799 O   0  0  0  0  0  0  0  0  0  0  0  0
  2  1  1  0
  1 10  1  0
  3  2  1  0
 11  3  1  0
  4  5  1  0
  4 11  1  0
  5  6  1  0
  6  7  1  0
  7  8  1  0
  8  9  1  0
  9 12  1  0
  9 13  2  0
 12 14  1  0
M  CHG  2  10   1  11   1
M  END
$$$$
