
     RDKit          3D

 45 45  0  0  0  0  0  0  0  0999 V2000
  -21.6419    8.9242    5.4531 C   0  0  0  0  0  0  0  0  0  0  0  0
  -22.4437    9.8422    5.6711 O   0  0  0  0  0  0  0  0  0  0  0  0
  -21.8071    8.0943    4.2333 C   0  0  0  0  0  0  0  0  0  0  0  0
  -20.5907    8.6931    6.3744 N   0  0  0  0  0  0  0  0  0  0  0  0
  -19.9435    9.7224    7.1230 C   0  0  2  0  0  0  0  0  0  0  0  0
  -19.0742   10.5752    6.2826 C   0  0  0  0  0  0  0  0  0  0  0  0
  -18.8444   11.7986    6.6098 O   0  0  0  0  0  0  0  0  0  0  0  0
  -19.3186    9.2940    8.3968 C   0  0  0  0  0  0  0  0  0  0  0  0
  -20.1444    8.9355    9.5546 C   0  0  0  0  0  0  0  0  0  0  0  0
  -20.2633    9.9121   10.6703 C   0  0  0  0  0  0  0  0  0  0  0  0
  -21.2061    9.4393   11.6828 N   0  0  0  0  0  0  0  0  0  0  0  0
  -20.8071    8.6721   12.8023 C   0  0  0  0  0  0  0  0  0  0  0  0
  -21.2858    7.3766   13.0763 N   0  0  0  0  0  0  0  0  0  0  0  0
  -19.9545    9.1733   13.6387 N   0  0  0  0  0  0  0  0  0  0  0  0
  -18.4375   10.1477    5.0919 N   0  0  0  0  0  0  0  0  0  0  0  0
  -17.6325   11.0817    4.3005 C   0  0  2  0  0  0  0  0  0  0  0  0
  -18.3564   11.7042    3.1931 C   0  0  0  0  0  0  0  0  0  0  0  0
  -18.4357   12.9587    3.0310 O   0  0  0  0  0  0  0  0  0  0  0  0
  -16.5007   10.1786    3.7564 C   0  0  0  0  0  0  0  0  0  0  0  0
  -15.5292    9.9039    4.8631 C   0  0  0  0  0  0  0  0  0  0  0  0
  -15.6950    8.8403    5.7016 C   0  0  0  0  0  0  0  0  0  0  0  0
  -14.4594   10.7492    5.0267 C   0  0  0  0  0  0  0  0  0  0  0  0
  -14.7819    8.6253    6.7090 C   0  0  0  0  0  0  0  0  0  0  0  0
  -13.5350   10.5356    6.0430 C   0  0  0  0  0  0  0  0  0  0  0  0
  -13.7048    9.4683    6.8821 C   0  0  0  0  0  0  0  0  0  0  0  0
  -12.7825    9.2291    7.9194 O   0  0  0  0  0  0  0  0  0  0  0  0
  -19.0071   10.8973    2.2414 N   0  0  0  0  0  0  0  0  0  0  0  0
  -19.8401   11.4268    1.1966 C   0  0  2  0  0  0  0  0  0  0  0  0
  -20.9317   12.2728    1.7097 C   0  0  0  0  0  0  0  0  0  0  0  0
  -21.0535   13.4599    1.2474 O   0  0  0  0  0  0  0  0  0  0  0  0
  -20.4701   10.2842    0.3830 C   0  0  0  0  0  0  0  0  0  0  0  0
  -20.5018    9.1017    1.1033 O   0  0  0  0  0  0  0  0  0  0  0  0
  -21.8746   11.8931    2.6842 N   0  0  0  0  0  0  0  0  0  0  0  0
  -22.9368   12.8045    3.1587 C   0  0  2  0  0  0  0  0  0  0  0  0
  -22.4343   14.0614    3.6292 C   0  0  0  0  0  0  0  0  0  0  0  0
  -22.2273   14.2824    4.8314 O   0  0  0  0  0  0  0  0  0  0  0  0
  -23.7789   12.0093    4.1028 C   0  0  0  0  0  0  0  0  0  0  0  0
  -24.5944   10.9168    3.5815 C   0  0  0  0  0  0  0  0  0  0  0  0
  -25.3602    9.9937    4.4475 C   0  0  0  0  0  0  0  0  0  0  0  0
  -26.0868   10.6255    5.4797 N   0  0  0  0  0  0  0  0  0  0  0  0
  -27.4074   10.3243    5.8628 C   0  0  0  0  0  0  0  0  0  0  0  0
  -27.7343   10.1147    7.2171 N   0  0  0  0  0  0  0  0  0  0  0  0
  -28.3299   10.2765    4.9291 N   0  0  0  0  0  0  0  0  0  0  0  0
  -19.4513   10.0287   13.4030 H   0  0  0  0  0  0  0  0  0  0  0  0
  -27.9948   10.2433    3.9560 H   0  0  0  0  0  0  0  0  0  0  0  0
  1  2  2  0
  1  3  1  0
  1  4  1  0
  4  5  1  0
  5  6  1  0
  5  8  1  1
  6  7  2  0
  6 15  1  0
  8  9  1  0
  9 10  1  0
 10 11  1  0
 11 12  1  0
 12 13  1  0
 12 14  2  0
 15 16  1  0
 16 17  1  0
 16 19  1  6
 17 18  2  0
 17 27  1  0
 19 20  1  0
 20 21  2  0
 20 22  1  0
 21 23  1  0
 22 24  2  0
 23 25  2  0
 24 25  1  0
 25 26  1  0
 27 28  1  0
 28 29  1  0
 28 31  1  1
 29 30  2  0
 29 33  1  0
 31 32  1  0
 33 34  1  0
 34 35  1  0
 34 37  1  1
 35 36  2  0
 37 38  1  0
 38 39  1  0
 39 40  1  0
 40 41  1  0
 41 42  1  0
 41 43  2  0
 14 44  1  0
 43 45  1  0
M  END
$$$$
