
     RDKit          3D

 45 45  0  0  0  0  0  0  0  0999 V2000
  -17.0757    7.9911    9.8154 C   0  0  0  0  0  0  0  0  0  0  0  0
  -17.6095    6.9528    9.4031 O   0  0  0  0  0  0  0  0  0  0  0  0
  -15.6499    7.9567   10.2275 C   0  0  0  0  0  0  0  0  0  0  0  0
  -17.8416    9.1811    9.8817 N   0  0  0  0  0  0  0  0  0  0  0  0
  -19.0900    9.3663    9.2138 C   0  0  2  0  0  0  0  0  0  0  0  0
  -18.9246    9.8291    7.8183 C   0  0  0  0  0  0  0  0  0  0  0  0
  -18.0170   10.6909    7.5179 O   0  0  0  0  0  0  0  0  0  0  0  0
  -20.1229   10.1065    9.9766 C   0  0  0  0  0  0  0  0  0  0  0  0
  -20.3284    9.8499   11.4058 C   0  0  0  0  0  0  0  0  0  0  0  0
  -19.4756    8.8297   12.0728 C   0  0  0  0  0  0  0  0  0  0  0  0
  -19.4575    9.0273   13.5213 N   0  0  0  0  0  0  0  0  0  0  0  0
  -18.8408    8.1168   14.4111 C   0  0  0  0  0  0  0  0  0  0  0  0
  -17.4536    8.0684   14.6472 N   0  0  0  0  0  0  0  0  0  0  0  0
  -19.5770    7.2671   15.0543 N   0  0  0  0  0  0  0  0  0  0  0  0
  -19.7112    9.3878    6.7263 N   0  0  0  0  0  0  0  0  0  0  0  0
  -19.4740    9.9096    5.3779 C   0  0  2  0  0  0  0  0  0  0  0  0
  -20.2107   11.1355    5.0739 C   0  0  0  0  0  0  0  0  0  0  0  0
  -21.4088   11.3356    5.4357 O   0  0  0  0  0  0  0  0  0  0  0  0
  -19.9663    8.7544    4.4748 C   0  0  0  0  0  0  0  0  0  0  0  0
  -19.7136    9.1199    3.0442 C   0  0  0  0  0  0  0  0  0  0  0  0
  -20.7086    9.6204    2.2560 C   0  0  0  0  0  0  0  0  0  0  0  0
  -18.4534    8.9387    2.5297 C   0  0  0  0  0  0  0  0  0  0  0  0
  -20.4362    9.9398    0.9451 C   0  0  0  0  0  0  0  0  0  0  0  0
  -18.1741    9.2599    1.2061 C   0  0  0  0  0  0  0  0  0  0  0  0
  -19.1746    9.7610    0.4187 C   0  0  0  0  0  0  0  0  0  0  0  0
  -18.9181   10.0950   -0.9254 O   0  0  0  0  0  0  0  0  0  0  0  0
  -19.5856   12.1649    4.3460 N   0  0  0  0  0  0  0  0  0  0  0  0
  -20.2485   13.3868    3.9810 C   0  0  2  0  0  0  0  0  0  0  0  0
  -20.2262   13.6373    2.5293 C   0  0  0  0  0  0  0  0  0  0  0  0
  -21.3355   13.8572    1.9302 O   0  0  0  0  0  0  0  0  0  0  0  0
  -19.5838   14.5856    4.6778 C   0  0  0  0  0  0  0  0  0  0  0  0
  -20.0916   14.7816    5.9513 O   0  0  0  0  0  0  0  0  0  0  0  0
  -19.0754   13.6563    1.7181 N   0  0  0  0  0  0  0  0  0  0  0  0
  -19.1286   13.9543    0.2716 C   0  0  2  0  0  0  0  0  0  0  0  0
  -18.6011   12.8994   -0.5423 C   0  0  0  0  0  0  0  0  0  0  0  0
  -18.9453   11.7172   -0.3972 O   0  0  0  0  0  0  0  0  0  0  0  0
  -18.5288   15.3124    0.1023 C   0  0  0  0  0  0  0  0  0  0  0  0
  -18.5732   15.9515   -1.2091 C   0  0  0  0  0  0  0  0  0  0  0  0
  -19.4741   17.0803   -1.5294 C   0  0  0  0  0  0  0  0  0  0  0  0
  -19.7412   17.9431   -0.4446 N   0  0  0  0  0  0  0  0  0  0  0  0
  -20.5556   19.0905   -0.4841 C   0  0  0  0  0  0  0  0  0  0  0  0
  -21.3988   19.3375   -1.5854 N   0  0  0  0  0  0  0  0  0  0  0  0
  -20.5321   19.9052    0.5459 N   0  0  0  0  0  0  0  0  0  0  0  0
  -20.5601    7.1539   14.8068 H   0  0  0  0  0  0  0  0  0  0  0  0
  -19.6514   19.9450    1.0779 H   0  0  0  0  0  0  0  0  0  0  0  0
  1  2  2  0
  1  3  1  0
  1  4  1  0
  4  5  1  0
  5  6  1  0
  5  8  1  1
  6  7  2  0
  6 15  1  0
  8  9  1  0
  9 10  1  0
 10 11  1  0
 11 12  1  0
 12 13  1  0
 12 14  2  0
 15 16  1  0
 16 17  1  0
 16 19  1  6
 17 18  2  0
 17 27  1  0
 19 20  1  0
 20 21  2  0
 20 22  1  0
 21 23  1  0
 22 24  2  0
 23 25  2  0
 24 25  1  0
 25 26  1  0
 27 28  1  0
 28 29  1  0
 28 31  1  1
 29 30  2  0
 29 33  1  0
 31 32  1  0
 33 34  1  0
 34 35  1  0
 34 37  1  1
 35 36  2  0
 37 38  1  0
 38 39  1  0
 39 40  1  0
 40 41  1  0
 41 42  1  0
 41 43  2  0
 14 44  1  0
 43 45  1  0
M  END
$$$$
