
     RDKit          3D

 45 45  0  0  0  0  0  0  0  0999 V2000
  -28.2016  -20.4018   -2.1112 C   0  0  0  0  0  0  0  0  0  0  0  0
  -27.7569  -20.9952   -1.1196 O   0  0  0  0  0  0  0  0  0  0  0  0
  -29.4938  -19.6791   -2.0022 C   0  0  0  0  0  0  0  0  0  0  0  0
  -27.4638  -20.4302   -3.3204 N   0  0  0  0  0  0  0  0  0  0  0  0
  -26.1961  -21.0705   -3.4683 C   0  0  2  0  0  0  0  0  0  0  0  0
  -25.1890  -20.5649   -2.5095 C   0  0  0  0  0  0  0  0  0  0  0  0
  -24.0497  -21.1512   -2.3873 O   0  0  0  0  0  0  0  0  0  0  0  0
  -25.6973  -21.1939   -4.8584 C   0  0  0  0  0  0  0  0  0  0  0  0
  -24.5237  -22.0185   -5.1642 C   0  0  0  0  0  0  0  0  0  0  0  0
  -23.6156  -21.5815   -6.2584 C   0  0  0  0  0  0  0  0  0  0  0  0
  -24.3598  -21.3443   -7.4942 N   0  0  0  0  0  0  0  0  0  0  0  0
  -23.7430  -21.3189   -8.7670 C   0  0  0  0  0  0  0  0  0  0  0  0
  -22.3500  -21.2590   -8.9627 N   0  0  0  0  0  0  0  0  0  0  0  0
  -24.4854  -21.3488   -9.8281 N   0  0  0  0  0  0  0  0  0  0  0  0
  -25.3709  -19.4370   -1.6725 N   0  0  0  0  0  0  0  0  0  0  0  0
  -24.4754  -19.1989   -0.5376 C   0  0  2  0  0  0  0  0  0  0  0  0
  -25.0215  -19.6184    0.7522 C   0  0  0  0  0  0  0  0  0  0  0  0
  -24.3665  -19.5653    1.8360 O   0  0  0  0  0  0  0  0  0  0  0  0
  -24.2930  -17.6632   -0.5647 C   0  0  0  0  0  0  0  0  0  0  0  0
  -23.8686  -17.2525   -1.9414 C   0  0  0  0  0  0  0  0  0  0  0  0
  -24.7391  -16.6430   -2.7973 C   0  0  0  0  0  0  0  0  0  0  0  0
  -22.5777  -17.5043   -2.3364 C   0  0  0  0  0  0  0  0  0  0  0  0
  -24.3108  -16.2853   -4.0556 C   0  0  0  0  0  0  0  0  0  0  0  0
  -22.1411  -17.1447   -3.6065 C   0  0  0  0  0  0  0  0  0  0  0  0
  -23.0171  -16.5342   -4.4621 C   0  0  0  0  0  0  0  0  0  0  0  0
  -22.6001  -16.1591   -5.7541 O   0  0  0  0  0  0  0  0  0  0  0  0
  -26.3383  -20.1090    0.8281 N   0  0  0  0  0  0  0  0  0  0  0  0
  -26.9114  -20.6455    2.0320 C   0  0  2  0  0  0  0  0  0  0  0  0
  -26.9022  -22.1185    2.0620 C   0  0  0  0  0  0  0  0  0  0  0  0
  -27.2804  -22.7531    1.0170 O   0  0  0  0  0  0  0  0  0  0  0  0
  -28.3683  -20.1786    2.1860 C   0  0  0  0  0  0  0  0  0  0  0  0
  -28.4412  -18.8945    2.6995 O   0  0  0  0  0  0  0  0  0  0  0  0
  -26.5105  -22.9139    3.1559 N   0  0  0  0  0  0  0  0  0  0  0  0
  -26.0433  -24.3070    2.9976 C   0  0  2  0  0  0  0  0  0  0  0  0
  -26.9916  -25.2769    3.4598 C   0  0  0  0  0  0  0  0  0  0  0  0
  -26.9592  -25.7368    4.6106 O   0  0  0  0  0  0  0  0  0  0  0  0
  -24.6717  -24.3576    3.5883 C   0  0  0  0  0  0  0  0  0  0  0  0
  -24.5213  -24.6137    5.0173 C   0  0  0  0  0  0  0  0  0  0  0  0
  -23.2129  -24.6073    5.7076 C   0  0  0  0  0  0  0  0  0  0  0  0
  -22.2168  -25.3884    5.0830 N   0  0  0  0  0  0  0  0  0  0  0  0
  -20.8858  -25.5305    5.5187 C   0  0  0  0  0  0  0  0  0  0  0  0
  -20.4755  -25.0093    6.7616 N   0  0  0  0  0  0  0  0  0  0  0  0
  -20.0476  -26.1890    4.7514 N   0  0  0  0  0  0  0  0  0  0  0  0
  -25.4984  -21.2642   -9.7444 H   0  0  0  0  0  0  0  0  0  0  0  0
  -20.3865  -26.4381    3.8115 H   0  0  0  0  0  0  0  0  0  0  0  0
  1  2  2  0
  1  3  1  0
  1  4  1  0
  4  5  1  0
  5  6  1  0
  5  8  1  6
  6  7  2  0
  6 15  1  0
  8  9  1  0
  9 10  1  0
 10 11  1  0
 11 12  1  0
 12 13  1  0
 12 14  2  0
 15 16  1  0
 16 17  1  0
 16 19  1  1
 17 18  2  0
 17 27  1  0
 19 20  1  0
 20 21  2  0
 20 22  1  0
 21 23  1  0
 22 24  2  0
 23 25  2  0
 24 25  1  0
 25 26  1  0
 27 28  1  0
 28 29  1  0
 28 31  1  6
 29 30  2  0
 29 33  1  0
 31 32  1  0
 33 34  1  0
 34 35  1  0
 34 37  1  1
 35 36  2  0
 37 38  1  0
 38 39  1  0
 39 40  1  0
 40 41  1  0
 41 42  1  0
 41 43  2  0
 14 44  1  0
 43 45  1  0
M  END
$$$$
