
     RDKit          3D

 45 45  0  0  0  0  0  0  0  0999 V2000
  -23.9116   11.1983    1.9591 C   0  0  0  0  0  0  0  0  0  0  0  0
  -23.2247   12.1726    1.6244 O   0  0  0  0  0  0  0  0  0  0  0  0
  -24.6237   10.4220    0.9131 C   0  0  0  0  0  0  0  0  0  0  0  0
  -23.9975   10.8534    3.3306 N   0  0  0  0  0  0  0  0  0  0  0  0
  -23.0585   11.2737    4.3207 C   0  0  2  0  0  0  0  0  0  0  0  0
  -21.8416   10.4324    4.3429 C   0  0  0  0  0  0  0  0  0  0  0  0
  -21.9334    9.1506    4.4152 O   0  0  0  0  0  0  0  0  0  0  0  0
  -23.6222   11.5549    5.6622 C   0  0  0  0  0  0  0  0  0  0  0  0
  -24.4762   10.5729    6.3383 C   0  0  0  0  0  0  0  0  0  0  0  0
  -25.3675    9.7181    5.5092 C   0  0  0  0  0  0  0  0  0  0  0  0
  -26.0175    8.6929    6.3239 N   0  0  0  0  0  0  0  0  0  0  0  0
  -26.0591    7.3293    5.9498 C   0  0  0  0  0  0  0  0  0  0  0  0
  -26.6361    6.3164    6.7394 N   0  0  0  0  0  0  0  0  0  0  0  0
  -25.5387    6.9694    4.8195 N   0  0  0  0  0  0  0  0  0  0  0  0
  -20.5175   10.9321    4.2872 N   0  0  0  0  0  0  0  0  0  0  0  0
  -19.3742   10.0371    4.4831 C   0  0  2  0  0  0  0  0  0  0  0  0
  -18.9518    9.9042    5.8766 C   0  0  0  0  0  0  0  0  0  0  0  0
  -19.5682   10.4412    6.8451 O   0  0  0  0  0  0  0  0  0  0  0  0
  -18.2621   10.7191    3.6521 C   0  0  0  0  0  0  0  0  0  0  0  0
  -18.7432   10.8790    2.2425 C   0  0  0  0  0  0  0  0  0  0  0  0
  -19.2033   12.0792    1.7844 C   0  0  0  0  0  0  0  0  0  0  0  0
  -18.7185    9.7879    1.4091 C   0  0  0  0  0  0  0  0  0  0  0  0
  -19.6406   12.1832    0.4833 C   0  0  0  0  0  0  0  0  0  0  0  0
  -19.1595    9.8886    0.0944 C   0  0  0  0  0  0  0  0  0  0  0  0
  -19.6205   11.0936   -0.3612 C   0  0  0  0  0  0  0  0  0  0  0  0
  -20.0724   11.2229   -1.6889 O   0  0  0  0  0  0  0  0  0  0  0  0
  -17.8083    9.1470    6.1917 N   0  0  0  0  0  0  0  0  0  0  0  0
  -17.2925    9.0167    7.5269 C   0  0  2  0  0  0  0  0  0  0  0  0
  -16.6977   10.2656    8.0340 C   0  0  0  0  0  0  0  0  0  0  0  0
  -16.0449   10.2286    9.1342 O   0  0  0  0  0  0  0  0  0  0  0  0
  -16.2127    7.9233    7.5798 C   0  0  0  0  0  0  0  0  0  0  0  0
  -16.0083    7.3473    6.3369 O   0  0  0  0  0  0  0  0  0  0  0  0
  -16.7821   11.5258    7.4115 N   0  0  0  0  0  0  0  0  0  0  0  0
  -15.7948   12.5984    7.6535 C   0  0  2  0  0  0  0  0  0  0  0  0
  -15.1857   13.0872    6.4520 C   0  0  0  0  0  0  0  0  0  0  0  0
  -14.0061   12.8402    6.1609 O   0  0  0  0  0  0  0  0  0  0  0  0
  -14.8833   12.0937    8.7246 C   0  0  0  0  0  0  0  0  0  0  0  0
  -15.2680   12.2591   10.1228 C   0  0  0  0  0  0  0  0  0  0  0  0
  -15.5066   13.5794   10.7461 C   0  0  0  0  0  0  0  0  0  0  0  0
  -15.7598   13.5351   12.1340 N   0  0  0  0  0  0  0  0  0  0  0  0
  -16.1508   12.3977   12.8654 C   0  0  0  0  0  0  0  0  0  0  0  0
  -17.4441   12.3054   13.4165 N   0  0  0  0  0  0  0  0  0  0  0  0
  -15.2900   11.4137   12.9916 N   0  0  0  0  0  0  0  0  0  0  0  0
  -25.0965    7.6640    4.2174 H   0  0  0  0  0  0  0  0  0  0  0  0
  -14.3233   11.6107   12.6969 H   0  0  0  0  0  0  0  0  0  0  0  0
  1  2  2  0
  1  3  1  0
  1  4  1  0
  4  5  1  0
  5  6  1  0
  5  8  1  1
  6  7  2  0
  6 15  1  0
  8  9  1  0
  9 10  1  0
 10 11  1  0
 11 12  1  0
 12 13  1  0
 12 14  2  0
 15 16  1  0
 16 17  1  0
 16 19  1  6
 17 18  2  0
 17 27  1  0
 19 20  1  0
 20 21  2  0
 20 22  1  0
 21 23  1  0
 22 24  2  0
 23 25  2  0
 24 25  1  0
 25 26  1  0
 27 28  1  0
 28 29  1  0
 28 31  1  6
 29 30  2  0
 29 33  1  0
 31 32  1  0
 33 34  1  0
 34 35  1  0
 34 37  1  1
 35 36  2  0
 37 38  1  0
 38 39  1  0
 39 40  1  0
 40 41  1  0
 41 42  1  0
 41 43  2  0
 14 44  1  0
 43 45  1  0
M  END
$$$$
