
     RDKit          3D

 45 45  0  0  0  0  0  0  0  0999 V2000
  -23.3992    9.7756    2.7594 C   0  0  0  0  0  0  0  0  0  0  0  0
  -23.8849   10.9008    2.5831 O   0  0  0  0  0  0  0  0  0  0  0  0
  -23.9434    8.6252    1.9950 C   0  0  0  0  0  0  0  0  0  0  0  0
  -22.3385    9.6194    3.6856 N   0  0  0  0  0  0  0  0  0  0  0  0
  -22.4802    9.7797    5.0974 C   0  0  2  0  0  0  0  0  0  0  0  0
  -21.2152   10.1776    5.7537 C   0  0  0  0  0  0  0  0  0  0  0  0
  -21.1988   10.5060    6.9981 O   0  0  0  0  0  0  0  0  0  0  0  0
  -23.2076    8.6946    5.7971 C   0  0  0  0  0  0  0  0  0  0  0  0
  -23.3779    8.7228    7.2535 C   0  0  0  0  0  0  0  0  0  0  0  0
  -22.3494    9.4163    8.0744 C   0  0  0  0  0  0  0  0  0  0  0  0
  -22.9223    9.9097    9.3257 N   0  0  0  0  0  0  0  0  0  0  0  0
  -22.6215   11.1864    9.8553 C   0  0  0  0  0  0  0  0  0  0  0  0
  -23.5020   11.9262   10.6676 N   0  0  0  0  0  0  0  0  0  0  0  0
  -21.4751   11.7263    9.5867 N   0  0  0  0  0  0  0  0  0  0  0  0
  -19.9563   10.2316    5.1071 N   0  0  0  0  0  0  0  0  0  0  0  0
  -18.9998   11.2948    5.4255 C   0  0  2  0  0  0  0  0  0  0  0  0
  -19.4573   12.6366    5.0668 C   0  0  0  0  0  0  0  0  0  0  0  0
  -19.8848   12.9410    3.9131 O   0  0  0  0  0  0  0  0  0  0  0  0
  -17.7661   10.9079    4.5765 C   0  0  0  0  0  0  0  0  0  0  0  0
  -17.3823    9.4965    4.8996 C   0  0  0  0  0  0  0  0  0  0  0  0
  -17.8020    8.4547    4.1248 C   0  0  0  0  0  0  0  0  0  0  0  0
  -16.5965    9.2621    6.0012 C   0  0  0  0  0  0  0  0  0  0  0  0
  -17.4308    7.1719    4.4585 C   0  0  0  0  0  0  0  0  0  0  0  0
  -16.2195    7.9680    6.3418 C   0  0  0  0  0  0  0  0  0  0  0  0
  -16.6427    6.9259    5.5627 C   0  0  0  0  0  0  0  0  0  0  0  0
  -16.2744    5.6052    5.8853 O   0  0  0  0  0  0  0  0  0  0  0  0
  -19.4360   13.6633    6.0289 N   0  0  0  0  0  0  0  0  0  0  0  0
  -19.2037   15.0438    5.7033 C   0  0  2  0  0  0  0  0  0  0  0  0
  -20.0448   15.5176    4.5903 C   0  0  0  0  0  0  0  0  0  0  0  0
  -20.1151   16.7765    4.3707 O   0  0  0  0  0  0  0  0  0  0  0  0
  -17.7331   15.2614    5.3103 C   0  0  0  0  0  0  0  0  0  0  0  0
  -17.4764   16.5885    5.0087 O   0  0  0  0  0  0  0  0  0  0  0  0
  -20.7981   14.7001    3.7262 N   0  0  0  0  0  0  0  0  0  0  0  0
  -21.7295   15.2535    2.7210 C   0  0  2  0  0  0  0  0  0  0  0  0
  -23.0001   14.5910    2.7029 C   0  0  0  0  0  0  0  0  0  0  0  0
  -23.8847   14.8801    1.8838 O   0  0  0  0  0  0  0  0  0  0  0  0
  -20.9708   15.3105    1.4349 C   0  0  0  0  0  0  0  0  0  0  0  0
  -19.7492   14.5243    1.2938 C   0  0  0  0  0  0  0  0  0  0  0  0
  -19.0862   14.2850   -0.0068 C   0  0  0  0  0  0  0  0  0  0  0  0
  -18.9816   12.9249   -0.3698 N   0  0  0  0  0  0  0  0  0  0  0  0
  -17.8611   12.0989   -0.1604 C   0  0  0  0  0  0  0  0  0  0  0  0
  -17.9928   10.8595    0.4964 N   0  0  0  0  0  0  0  0  0  0  0  0
  -16.6986   12.4997   -0.6220 N   0  0  0  0  0  0  0  0  0  0  0  0
  -20.8203   11.2508    8.9658 H   0  0  0  0  0  0  0  0  0  0  0  0
  -16.6860   13.4108   -1.1016 H   0  0  0  0  0  0  0  0  0  0  0  0
  1  2  2  0
  1  3  1  0
  1  4  1  0
  4  5  1  0
  5  6  1  0
  5  8  1  1
  6  7  2  0
  6 15  1  0
  8  9  1  0
  9 10  1  0
 10 11  1  0
 11 12  1  0
 12 13  1  0
 12 14  2  0
 15 16  1  0
 16 17  1  0
 16 19  1  6
 17 18  2  0
 17 27  1  0
 19 20  1  0
 20 21  2  0
 20 22  1  0
 21 23  1  0
 22 24  2  0
 23 25  2  0
 24 25  1  0
 25 26  1  0
 27 28  1  0
 28 29  1  0
 28 31  1  6
 29 30  2  0
 29 33  1  0
 31 32  1  0
 33 34  1  0
 34 35  1  0
 34 37  1  6
 35 36  2  0
 37 38  1  0
 38 39  1  0
 39 40  1  0
 40 41  1  0
 41 42  1  0
 41 43  2  0
 14 44  1  0
 43 45  1  0
M  END
$$$$
