
     RDKit          3D

 45 45  0  0  0  0  0  0  0  0999 V2000
  -12.8509    9.0737    9.3426 C   0  0  0  0  0  0  0  0  0  0  0  0
  -12.8701    7.8861    8.9930 O   0  0  0  0  0  0  0  0  0  0  0  0
  -11.5460    9.7713    9.4623 C   0  0  0  0  0  0  0  0  0  0  0  0
  -14.0751    9.7315    9.6181 N   0  0  0  0  0  0  0  0  0  0  0  0
  -15.3574    9.1136    9.5056 C   0  0  2  0  0  0  0  0  0  0  0  0
  -16.1257    9.6070    8.3413 C   0  0  0  0  0  0  0  0  0  0  0  0
  -16.3915   10.8601    8.2163 O   0  0  0  0  0  0  0  0  0  0  0  0
  -16.1448    9.0353   10.7587 C   0  0  0  0  0  0  0  0  0  0  0  0
  -17.6109    9.0395   10.7254 C   0  0  0  0  0  0  0  0  0  0  0  0
  -18.3495    9.0796   12.0161 C   0  0  0  0  0  0  0  0  0  0  0  0
  -18.9833    7.7926   12.2978 N   0  0  0  0  0  0  0  0  0  0  0  0
  -20.1847    7.3780   11.6768 C   0  0  0  0  0  0  0  0  0  0  0  0
  -20.7553    8.0232   10.5629 N   0  0  0  0  0  0  0  0  0  0  0  0
  -20.8146    6.3482   12.1465 N   0  0  0  0  0  0  0  0  0  0  0  0
  -16.6191    8.7867    7.2975 N   0  0  0  0  0  0  0  0  0  0  0  0
  -17.4310    9.3588    6.2204 C   0  0  2  0  0  0  0  0  0  0  0  0
  -18.7063    9.9181    6.6665 C   0  0  0  0  0  0  0  0  0  0  0  0
  -19.2226    9.6605    7.7950 O   0  0  0  0  0  0  0  0  0  0  0  0
  -17.6767    8.1426    5.2969 C   0  0  0  0  0  0  0  0  0  0  0  0
  -18.2013    8.6336    3.9826 C   0  0  0  0  0  0  0  0  0  0  0  0
  -19.3796    8.1701    3.4740 C   0  0  0  0  0  0  0  0  0  0  0  0
  -17.4700    9.5644    3.2865 C   0  0  0  0  0  0  0  0  0  0  0  0
  -19.8247    8.6437    2.2606 C   0  0  0  0  0  0  0  0  0  0  0  0
  -17.9160   10.0452    2.0605 C   0  0  0  0  0  0  0  0  0  0  0  0
  -19.0977    9.5777    1.5536 C   0  0  0  0  0  0  0  0  0  0  0  0
  -19.5723   10.0489    0.3140 O   0  0  0  0  0  0  0  0  0  0  0  0
  -19.4199   10.7910    5.8246 N   0  0  0  0  0  0  0  0  0  0  0  0
  -20.7492   11.2545    6.1145 C   0  0  2  0  0  0  0  0  0  0  0  0
  -21.2332   12.2478    5.1400 C   0  0  0  0  0  0  0  0  0  0  0  0
  -20.9460   13.4804    5.3303 O   0  0  0  0  0  0  0  0  0  0  0  0
  -20.7997   11.8979    7.5102 C   0  0  0  0  0  0  0  0  0  0  0  0
  -19.9838   13.0144    7.5873 O   0  0  0  0  0  0  0  0  0  0  0  0
  -22.0012   11.9656    3.9941 N   0  0  0  0  0  0  0  0  0  0  0  0
  -23.1838   11.0800    4.0293 C   0  0  2  0  0  0  0  0  0  0  0  0
  -23.6891   10.8646    5.3528 C   0  0  0  0  0  0  0  0  0  0  0  0
  -24.3487   11.7235    5.9566 O   0  0  0  0  0  0  0  0  0  0  0  0
  -22.8234    9.8695    3.2306 C   0  0  0  0  0  0  0  0  0  0  0  0
  -22.8484    9.9451    1.7733 C   0  0  0  0  0  0  0  0  0  0  0  0
  -23.9138    9.3337    0.9490 C   0  0  0  0  0  0  0  0  0  0  0  0
  -25.1473   10.0193    0.9830 N   0  0  0  0  0  0  0  0  0  0  0  0
  -26.2115    9.8482    0.0776 C   0  0  0  0  0  0  0  0  0  0  0  0
  -26.1490    8.8653   -0.9297 N   0  0  0  0  0  0  0  0  0  0  0  0
  -27.2750   10.6060    0.2181 N   0  0  0  0  0  0  0  0  0  0  0  0
  -20.4411    5.8454   12.9515 H   0  0  0  0  0  0  0  0  0  0  0  0
  -27.3972   11.0578    1.1353 H   0  0  0  0  0  0  0  0  0  0  0  0
  1  2  2  0
  1  3  1  0
  1  4  1  0
  4  5  1  0
  5  6  1  0
  5  8  1  1
  6  7  2  0
  6 15  1  0
  8  9  1  0
  9 10  1  0
 10 11  1  0
 11 12  1  0
 12 13  1  0
 12 14  2  0
 15 16  1  0
 16 17  1  0
 16 19  1  6
 17 18  2  0
 17 27  1  0
 19 20  1  0
 20 21  2  0
 20 22  1  0
 21 23  1  0
 22 24  2  0
 23 25  2  0
 24 25  1  0
 25 26  1  0
 27 28  1  0
 28 29  1  0
 28 31  1  1
 29 30  2  0
 29 33  1  0
 31 32  1  0
 33 34  1  0
 34 35  1  0
 34 37  1  1
 35 36  2  0
 37 38  1  0
 38 39  1  0
 39 40  1  0
 40 41  1  0
 41 42  1  0
 41 43  2  0
 14 44  1  0
 43 45  1  0
M  END
$$$$
