
     RDKit          3D

 45 45  0  0  0  0  0  0  0  0999 V2000
  -12.6854    9.2881    9.2647 C   0  0  0  0  0  0  0  0  0  0  0  0
  -11.7102    8.6613    9.6995 O   0  0  0  0  0  0  0  0  0  0  0  0
  -12.8739    9.4049    7.7968 C   0  0  0  0  0  0  0  0  0  0  0  0
  -13.5923    9.8754   10.1810 N   0  0  0  0  0  0  0  0  0  0  0  0
  -14.9968    9.6181   10.1915 C   0  0  2  0  0  0  0  0  0  0  0  0
  -15.7070   10.2971    9.0852 C   0  0  0  0  0  0  0  0  0  0  0  0
  -15.2571   11.4003    8.5983 O   0  0  0  0  0  0  0  0  0  0  0  0
  -15.6642    9.7504   11.5081 C   0  0  0  0  0  0  0  0  0  0  0  0
  -17.0564    9.3266   11.6898 C   0  0  0  0  0  0  0  0  0  0  0  0
  -17.3343    7.8832   11.9178 C   0  0  0  0  0  0  0  0  0  0  0  0
  -18.7710    7.6371   12.0305 N   0  0  0  0  0  0  0  0  0  0  0  0
  -19.3112    6.3540   12.2811 C   0  0  0  0  0  0  0  0  0  0  0  0
  -18.6399    5.3471   13.0008 N   0  0  0  0  0  0  0  0  0  0  0  0
  -20.4902    6.0668   11.8281 N   0  0  0  0  0  0  0  0  0  0  0  0
  -16.8955    9.8202    8.4802 N   0  0  0  0  0  0  0  0  0  0  0  0
  -17.5086   10.5481    7.3662 C   0  0  2  0  0  0  0  0  0  0  0  0
  -18.7405    9.9420    6.8629 C   0  0  0  0  0  0  0  0  0  0  0  0
  -19.1982    8.8394    7.2885 O   0  0  0  0  0  0  0  0  0  0  0  0
  -16.4081   10.4979    6.2805 C   0  0  0  0  0  0  0  0  0  0  0  0
  -16.7576    9.4308    5.2890 C   0  0  0  0  0  0  0  0  0  0  0  0
  -17.3088    9.7421    4.0802 C   0  0  0  0  0  0  0  0  0  0  0  0
  -16.5167    8.1196    5.6184 C   0  0  0  0  0  0  0  0  0  0  0  0
  -17.6196    8.7314    3.1988 C   0  0  0  0  0  0  0  0  0  0  0  0
  -16.8292    7.0959    4.7312 C   0  0  0  0  0  0  0  0  0  0  0  0
  -17.3822    7.4119    3.5202 C   0  0  0  0  0  0  0  0  0  0  0  0
  -17.7077    6.3938    2.6029 O   0  0  0  0  0  0  0  0  0  0  0  0
  -19.4793   10.5917    5.8568 N   0  0  0  0  0  0  0  0  0  0  0  0
  -20.9050   10.4694    5.7223 C   0  0  2  0  0  0  0  0  0  0  0  0
  -21.4444   11.2678    4.6077 C   0  0  0  0  0  0  0  0  0  0  0  0
  -21.0373   12.4729    4.4665 O   0  0  0  0  0  0  0  0  0  0  0  0
  -21.6059   10.9252    7.0128 C   0  0  0  0  0  0  0  0  0  0  0  0
  -21.1398   12.1579    7.4387 O   0  0  0  0  0  0  0  0  0  0  0  0
  -22.3882   10.8232    3.6621 N   0  0  0  0  0  0  0  0  0  0  0  0
  -23.1176   11.7504    2.7720 C   0  0  2  0  0  0  0  0  0  0  0  0
  -23.8599   12.7491    3.4826 C   0  0  0  0  0  0  0  0  0  0  0  0
  -23.9404   12.7577    4.7197 O   0  0  0  0  0  0  0  0  0  0  0  0
  -23.8731   10.8957    1.8068 C   0  0  0  0  0  0  0  0  0  0  0  0
  -25.2583   10.5426    2.1020 C   0  0  0  0  0  0  0  0  0  0  0  0
  -26.4160   11.1907    1.4476 C   0  0  0  0  0  0  0  0  0  0  0  0
  -27.4516   10.3055    1.0784 N   0  0  0  0  0  0  0  0  0  0  0  0
  -27.3306    9.2173    0.1937 C   0  0  0  0  0  0  0  0  0  0  0  0
  -26.3537    9.2197   -0.8214 N   0  0  0  0  0  0  0  0  0  0  0  0
  -28.1295    8.1883    0.3610 N   0  0  0  0  0  0  0  0  0  0  0  0
  -20.8217    6.4925   10.9625 H   0  0  0  0  0  0  0  0  0  0  0  0
  -28.6467    8.1503    1.2506 H   0  0  0  0  0  0  0  0  0  0  0  0
  1  2  2  0
  1  3  1  0
  1  4  1  0
  4  5  1  0
  5  6  1  0
  5  8  1  1
  6  7  2  0
  6 15  1  0
  8  9  1  0
  9 10  1  0
 10 11  1  0
 11 12  1  0
 12 13  1  0
 12 14  2  0
 15 16  1  0
 16 17  1  0
 16 19  1  6
 17 18  2  0
 17 27  1  0
 19 20  1  0
 20 21  2  0
 20 22  1  0
 21 23  1  0
 22 24  2  0
 23 25  2  0
 24 25  1  0
 25 26  1  0
 27 28  1  0
 28 29  1  0
 28 31  1  1
 29 30  2  0
 29 33  1  0
 31 32  1  0
 33 34  1  0
 34 35  1  0
 34 37  1  1
 35 36  2  0
 37 38  1  0
 38 39  1  0
 39 40  1  0
 40 41  1  0
 41 42  1  0
 41 43  2  0
 14 44  1  0
 43 45  1  0
M  END
$$$$
