
     RDKit          3D

 45 45  0  0  0  0  0  0  0  0999 V2000
  -20.4364    9.7711   10.9527 C   0  0  0  0  0  0  0  0  0  0  0  0
  -19.7942    9.2042   11.8466 O   0  0  0  0  0  0  0  0  0  0  0  0
  -21.2247   10.9839   11.2866 C   0  0  0  0  0  0  0  0  0  0  0  0
  -20.3999    9.2453    9.6376 N   0  0  0  0  0  0  0  0  0  0  0  0
  -21.0513    9.8465    8.5182 C   0  0  2  0  0  0  0  0  0  0  0  0
  -20.1049   10.5330    7.6114 C   0  0  0  0  0  0  0  0  0  0  0  0
  -19.7541   11.7515    7.8323 O   0  0  0  0  0  0  0  0  0  0  0  0
  -22.2675   10.6342    8.8296 C   0  0  0  0  0  0  0  0  0  0  0  0
  -23.6022   10.1006    8.5388 C   0  0  0  0  0  0  0  0  0  0  0  0
  -24.1094   10.1814    7.1427 C   0  0  0  0  0  0  0  0  0  0  0  0
  -25.4756    9.6690    7.0507 N   0  0  0  0  0  0  0  0  0  0  0  0
  -25.8401    8.6101    6.1864 C   0  0  0  0  0  0  0  0  0  0  0  0
  -24.9146    7.7450    5.5720 N   0  0  0  0  0  0  0  0  0  0  0  0
  -27.0936    8.4091    5.9293 N   0  0  0  0  0  0  0  0  0  0  0  0
  -19.5176    9.9428    6.4656 N   0  0  0  0  0  0  0  0  0  0  0  0
  -18.7745   10.7608    5.5038 C   0  0  2  0  0  0  0  0  0  0  0  0
  -19.6095   11.3786    4.4746 C   0  0  0  0  0  0  0  0  0  0  0  0
  -20.8232   11.0674    4.2834 O   0  0  0  0  0  0  0  0  0  0  0  0
  -17.8079    9.7377    4.8624 C   0  0  0  0  0  0  0  0  0  0  0  0
  -16.6593    9.5089    5.7963 C   0  0  0  0  0  0  0  0  0  0  0  0
  -16.7219    8.5597    6.7746 C   0  0  0  0  0  0  0  0  0  0  0  0
  -15.5310   10.2789    5.6556 C   0  0  0  0  0  0  0  0  0  0  0  0
  -15.6462    8.3838    7.6152 C   0  0  0  0  0  0  0  0  0  0  0  0
  -14.4424   10.1044    6.5026 C   0  0  0  0  0  0  0  0  0  0  0  0
  -14.5091    9.1520    7.4827 C   0  0  0  0  0  0  0  0  0  0  0  0
  -13.4199    8.9546    8.3537 O   0  0  0  0  0  0  0  0  0  0  0  0
  -19.0685   12.3732    3.6390 N   0  0  0  0  0  0  0  0  0  0  0  0
  -19.7831   12.9468    2.5317 C   0  0  2  0  0  0  0  0  0  0  0  0
  -19.6964   12.1280    1.3099 C   0  0  0  0  0  0  0  0  0  0  0  0
  -18.6081   12.1486    0.6368 O   0  0  0  0  0  0  0  0  0  0  0  0
  -19.2316   14.3443    2.2043 C   0  0  0  0  0  0  0  0  0  0  0  0
  -19.9657   14.9616    1.2052 O   0  0  0  0  0  0  0  0  0  0  0  0
  -20.7200   11.3076    0.7983 N   0  0  0  0  0  0  0  0  0  0  0  0
  -20.5592   10.5162   -0.4393 C   0  0  2  0  0  0  0  0  0  0  0  0
  -19.9428    9.2415   -0.2187 C   0  0  0  0  0  0  0  0  0  0  0  0
  -18.9785    9.0971    0.5470 O   0  0  0  0  0  0  0  0  0  0  0  0
  -19.9129   11.4239   -1.4350 C   0  0  0  0  0  0  0  0  0  0  0  0
  -19.6510   12.8120   -1.0676 C   0  0  0  0  0  0  0  0  0  0  0  0
  -20.1382   13.9642   -1.8573 C   0  0  0  0  0  0  0  0  0  0  0  0
  -19.2690   14.3760   -2.8905 N   0  0  0  0  0  0  0  0  0  0  0  0
  -18.3543   15.4437   -2.8226 C   0  0  0  0  0  0  0  0  0  0  0  0
  -18.4578   16.4173   -1.8096 N   0  0  0  0  0  0  0  0  0  0  0  0
  -17.3848   15.4889   -3.7076 N   0  0  0  0  0  0  0  0  0  0  0  0
  -27.6345    9.1216    5.4392 H   0  0  0  0  0  0  0  0  0  0  0  0
  -17.2808   14.6639   -4.3150 H   0  0  0  0  0  0  0  0  0  0  0  0
  1  2  2  0
  1  3  1  0
  1  4  1  0
  4  5  1  0
  5  6  1  0
  5  8  1  1
  6  7  2  0
  6 15  1  0
  8  9  1  0
  9 10  1  0
 10 11  1  0
 11 12  1  0
 12 13  1  0
 12 14  2  0
 15 16  1  0
 16 17  1  0
 16 19  1  6
 17 18  2  0
 17 27  1  0
 19 20  1  0
 20 21  2  0
 20 22  1  0
 21 23  1  0
 22 24  2  0
 23 25  2  0
 24 25  1  0
 25 26  1  0
 27 28  1  0
 28 29  1  0
 28 31  1  6
 29 30  2  0
 29 33  1  0
 31 32  1  0
 33 34  1  0
 34 35  1  0
 34 37  1  6
 35 36  2  0
 37 38  1  0
 38 39  1  0
 39 40  1  0
 40 41  1  0
 41 42  1  0
 41 43  2  0
 14 44  1  0
 43 45  1  0
M  END
$$$$
