
     RDKit          3D

 45 45  0  0  0  0  0  0  0  0999 V2000
  -16.2906   12.0944   10.0265 C   0  0  0  0  0  0  0  0  0  0  0  0
  -15.8043   11.6856    8.9638 O   0  0  0  0  0  0  0  0  0  0  0  0
  -15.3951   12.6915   11.0490 C   0  0  0  0  0  0  0  0  0  0  0  0
  -17.6872   11.9801   10.2352 N   0  0  0  0  0  0  0  0  0  0  0  0
  -18.5903   11.3955    9.2963 C   0  0  2  0  0  0  0  0  0  0  0  0
  -18.7231   12.1979    8.0603 C   0  0  0  0  0  0  0  0  0  0  0  0
  -18.7764   13.4826    8.1167 O   0  0  0  0  0  0  0  0  0  0  0  0
  -19.8814   10.9270    9.8531 C   0  0  0  0  0  0  0  0  0  0  0  0
  -19.9208   10.0992   11.0630 C   0  0  0  0  0  0  0  0  0  0  0  0
  -19.7779    8.6255   10.9189 C   0  0  0  0  0  0  0  0  0  0  0  0
  -19.6611    7.9797   12.2252 N   0  0  0  0  0  0  0  0  0  0  0  0
  -19.6168    6.5748   12.3841 C   0  0  0  0  0  0  0  0  0  0  0  0
  -20.0687    5.6608   11.4131 N   0  0  0  0  0  0  0  0  0  0  0  0
  -19.1389    6.0790   13.4813 N   0  0  0  0  0  0  0  0  0  0  0  0
  -18.7988   11.6557    6.7540 N   0  0  0  0  0  0  0  0  0  0  0  0
  -18.9782   12.5311    5.5930 C   0  0  2  0  0  0  0  0  0  0  0  0
  -20.3631   12.6419    5.1370 C   0  0  0  0  0  0  0  0  0  0  0  0
  -20.6945   13.1950    4.0459 O   0  0  0  0  0  0  0  0  0  0  0  0
  -18.1145   11.8419    4.5107 C   0  0  0  0  0  0  0  0  0  0  0  0
  -18.2393   12.6121    3.2319 C   0  0  0  0  0  0  0  0  0  0  0  0
  -17.3552   13.6014    2.9133 C   0  0  0  0  0  0  0  0  0  0  0  0
  -19.2698   12.3083    2.3766 C   0  0  0  0  0  0  0  0  0  0  0  0
  -17.5074   14.2885    1.7303 C   0  0  0  0  0  0  0  0  0  0  0  0
  -19.4272   13.0000    1.1809 C   0  0  0  0  0  0  0  0  0  0  0  0
  -18.5389   13.9916    0.8651 C   0  0  0  0  0  0  0  0  0  0  0  0
  -18.6755   14.7073   -0.3403 O   0  0  0  0  0  0  0  0  0  0  0  0
  -21.4033   12.1163    5.9256 N   0  0  0  0  0  0  0  0  0  0  0  0
  -22.7718   12.0608    5.4899 C   0  0  2  0  0  0  0  0  0  0  0  0
  -23.0026   11.0315    4.4614 C   0  0  0  0  0  0  0  0  0  0  0  0
  -23.0973   11.3995    3.2393 O   0  0  0  0  0  0  0  0  0  0  0  0
  -23.2039   13.4166    4.9072 C   0  0  0  0  0  0  0  0  0  0  0  0
  -23.4068   14.3585    5.9021 O   0  0  0  0  0  0  0  0  0  0  0  0
  -23.1345    9.6499    4.6991 N   0  0  0  0  0  0  0  0  0  0  0  0
  -22.0847    8.6772    4.3306 C   0  0  2  0  0  0  0  0  0  0  0  0
  -20.8076    8.9789    4.9064 C   0  0  0  0  0  0  0  0  0  0  0  0
  -19.8298    8.2279    4.7766 O   0  0  0  0  0  0  0  0  0  0  0  0
  -22.1476    8.5375    2.8442 C   0  0  0  0  0  0  0  0  0  0  0  0
  -21.4640    7.4175    2.2051 C   0  0  0  0  0  0  0  0  0  0  0  0
  -20.0683    7.4910    1.7202 C   0  0  0  0  0  0  0  0  0  0  0  0
  -19.8412    8.4762    0.7352 N   0  0  0  0  0  0  0  0  0  0  0  0
  -19.0545    9.6330    0.8913 C   0  0  0  0  0  0  0  0  0  0  0  0
  -17.8524    9.7886    0.1731 N   0  0  0  0  0  0  0  0  0  0  0  0
  -19.4873   10.5750    1.6977 N   0  0  0  0  0  0  0  0  0  0  0  0
  -18.6439    6.6806   14.1397 H   0  0  0  0  0  0  0  0  0  0  0  0
  -20.2549   10.3161    2.3335 H   0  0  0  0  0  0  0  0  0  0  0  0
  1  2  2  0
  1  3  1  0
  1  4  1  0
  4  5  1  0
  5  6  1  0
  5  8  1  1
  6  7  2  0
  6 15  1  0
  8  9  1  0
  9 10  1  0
 10 11  1  0
 11 12  1  0
 12 13  1  0
 12 14  2  0
 15 16  1  0
 16 17  1  0
 16 19  1  6
 17 18  2  0
 17 27  1  0
 19 20  1  0
 20 21  2  0
 20 22  1  0
 21 23  1  0
 22 24  2  0
 23 25  2  0
 24 25  1  0
 25 26  1  0
 27 28  1  0
 28 29  1  0
 28 31  1  6
 29 30  2  0
 29 33  1  0
 31 32  1  0
 33 34  1  0
 34 35  1  0
 34 37  1  6
 35 36  2  0
 37 38  1  0
 38 39  1  0
 39 40  1  0
 40 41  1  0
 41 42  1  0
 41 43  2  0
 14 44  1  0
 43 45  1  0
M  END
$$$$
