
     RDKit          3D

 45 45  0  0  0  0  0  0  0  0999 V2000
  -17.2800    7.9153   11.3471 C   0  0  0  0  0  0  0  0  0  0  0  0
  -18.1750    7.0856   11.5555 O   0  0  0  0  0  0  0  0  0  0  0  0
  -16.1779    8.0530   12.3322 C   0  0  0  0  0  0  0  0  0  0  0  0
  -17.3343    8.7088   10.1747 N   0  0  0  0  0  0  0  0  0  0  0  0
  -18.4102    8.6759    9.2364 C   0  0  2  0  0  0  0  0  0  0  0  0
  -18.2207    9.6293    8.1210 C   0  0  0  0  0  0  0  0  0  0  0  0
  -17.3077   10.5345    8.1819 O   0  0  0  0  0  0  0  0  0  0  0  0
  -19.7722    8.6933    9.8202 C   0  0  0  0  0  0  0  0  0  0  0  0
  -20.2185    9.8165   10.6508 C   0  0  0  0  0  0  0  0  0  0  0  0
  -21.0147   10.8985   10.0119 C   0  0  0  0  0  0  0  0  0  0  0  0
  -22.1969   11.2205   10.8094 N   0  0  0  0  0  0  0  0  0  0  0  0
  -22.1176   11.6974   12.1388 C   0  0  0  0  0  0  0  0  0  0  0  0
  -21.1231   11.3049   13.0551 N   0  0  0  0  0  0  0  0  0  0  0  0
  -23.0039   12.5433   12.5592 N   0  0  0  0  0  0  0  0  0  0  0  0
  -18.9886    9.6374    6.9309 N   0  0  0  0  0  0  0  0  0  0  0  0
  -18.3968   10.0777    5.6650 C   0  0  2  0  0  0  0  0  0  0  0  0
  -19.3713   10.3152    4.6010 C   0  0  0  0  0  0  0  0  0  0  0  0
  -19.0506   10.4634    3.3838 O   0  0  0  0  0  0  0  0  0  0  0  0
  -17.4764    8.8927    5.2896 C   0  0  0  0  0  0  0  0  0  0  0  0
  -16.1289    9.1155    5.9049 C   0  0  0  0  0  0  0  0  0  0  0  0
  -15.5927    8.2144    6.7780 C   0  0  0  0  0  0  0  0  0  0  0  0
  -15.4342   10.2539    5.5776 C   0  0  0  0  0  0  0  0  0  0  0  0
  -14.3533    8.4585    7.3249 C   0  0  0  0  0  0  0  0  0  0  0  0
  -14.1821   10.5043    6.1278 C   0  0  0  0  0  0  0  0  0  0  0  0
  -13.6480    9.5987    7.0033 C   0  0  0  0  0  0  0  0  0  0  0  0
  -12.3811    9.8281    7.5745 O   0  0  0  0  0  0  0  0  0  0  0  0
  -20.7420   10.3865    4.9111 N   0  0  0  0  0  0  0  0  0  0  0  0
  -21.6902   11.1282    4.1259 C   0  0  2  0  0  0  0  0  0  0  0  0
  -21.2257   12.4890    3.8045 C   0  0  0  0  0  0  0  0  0  0  0  0
  -21.4938   13.4353    4.6233 O   0  0  0  0  0  0  0  0  0  0  0  0
  -23.0275   11.2499    4.8750 C   0  0  0  0  0  0  0  0  0  0  0  0
  -24.0156   11.7929    4.0707 O   0  0  0  0  0  0  0  0  0  0  0  0
  -20.5003   12.8577    2.6554 N   0  0  0  0  0  0  0  0  0  0  0  0
  -20.9882   12.5854    1.2872 C   0  0  2  0  0  0  0  0  0  0  0  0
  -21.8405   11.4360    1.2097 C   0  0  0  0  0  0  0  0  0  0  0  0
  -21.7282   10.4760    1.9861 O   0  0  0  0  0  0  0  0  0  0  0  0
  -19.7840   12.6034    0.4027 C   0  0  0  0  0  0  0  0  0  0  0  0
  -19.9599   12.4859   -1.0415 C   0  0  0  0  0  0  0  0  0  0  0  0
  -18.9058   11.9781   -1.9468 C   0  0  0  0  0  0  0  0  0  0  0  0
  -18.0593   12.9750   -2.4780 N   0  0  0  0  0  0  0  0  0  0  0  0
  -18.0250   13.3989   -3.8199 C   0  0  0  0  0  0  0  0  0  0  0  0
  -17.6481   12.5104   -4.8463 N   0  0  0  0  0  0  0  0  0  0  0  0
  -18.3846   14.6326   -4.0914 N   0  0  0  0  0  0  0  0  0  0  0  0
  -23.8201   12.7545   11.9851 H   0  0  0  0  0  0  0  0  0  0  0  0
  -18.7523   14.8044   -5.0378 H   0  0  0  0  0  0  0  0  0  0  0  0
  1  2  2  0
  1  3  1  0
  1  4  1  0
  4  5  1  0
  5  6  1  0
  5  8  1  1
  6  7  2  0
  6 15  1  0
  8  9  1  0
  9 10  1  0
 10 11  1  0
 11 12  1  0
 12 13  1  0
 12 14  2  0
 15 16  1  0
 16 17  1  0
 16 19  1  6
 17 18  2  0
 17 27  1  0
 19 20  1  0
 20 21  2  0
 20 22  1  0
 21 23  1  0
 22 24  2  0
 23 25  2  0
 24 25  1  0
 25 26  1  0
 27 28  1  0
 28 29  1  0
 28 31  1  1
 29 30  2  0
 29 33  1  0
 31 32  1  0
 33 34  1  0
 34 35  1  0
 34 37  1  6
 35 36  2  0
 37 38  1  0
 38 39  1  0
 39 40  1  0
 40 41  1  0
 41 42  1  0
 41 43  2  0
 14 44  1  0
 43 45  1  0
M  END
$$$$
