
     RDKit          3D

 45 45  0  0  0  0  0  0  0  0999 V2000
  -26.7938    7.9982    5.3592 C   0  0  0  0  0  0  0  0  0  0  0  0
  -26.0857    8.4912    4.4712 O   0  0  0  0  0  0  0  0  0  0  0  0
  -27.7625    6.9312    5.0026 C   0  0  0  0  0  0  0  0  0  0  0  0
  -26.6584    8.4670    6.6893 N   0  0  0  0  0  0  0  0  0  0  0  0
  -25.7878    9.5302    7.0772 C   0  0  2  0  0  0  0  0  0  0  0  0
  -24.3586    9.1765    6.9300 C   0  0  0  0  0  0  0  0  0  0  0  0
  -23.9712    7.9549    7.0490 O   0  0  0  0  0  0  0  0  0  0  0  0
  -26.1161   10.1931    8.3614 C   0  0  0  0  0  0  0  0  0  0  0  0
  -25.3002   11.3037    8.8629 C   0  0  0  0  0  0  0  0  0  0  0  0
  -25.6862   12.6914    8.4914 C   0  0  0  0  0  0  0  0  0  0  0  0
  -26.8641   13.1263    9.2402 N   0  0  0  0  0  0  0  0  0  0  0  0
  -27.3727   14.4445    9.1704 C   0  0  0  0  0  0  0  0  0  0  0  0
  -28.5842   14.8503    9.7621 N   0  0  0  0  0  0  0  0  0  0  0  0
  -26.7014   15.3461    8.5266 N   0  0  0  0  0  0  0  0  0  0  0  0
  -23.3250   10.1047    6.6542 N   0  0  0  0  0  0  0  0  0  0  0  0
  -21.9317    9.6619    6.5582 C   0  0  2  0  0  0  0  0  0  0  0  0
  -20.9742   10.7457    6.3421 C   0  0  0  0  0  0  0  0  0  0  0  0
  -21.2207   11.7590    5.6218 O   0  0  0  0  0  0  0  0  0  0  0  0
  -21.9576    8.7213    5.3306 C   0  0  0  0  0  0  0  0  0  0  0  0
  -21.8349    9.5480    4.0874 C   0  0  0  0  0  0  0  0  0  0  0  0
  -20.6139    9.8962    3.5876 C   0  0  0  0  0  0  0  0  0  0  0  0
  -22.9811    9.9588    3.4524 C   0  0  0  0  0  0  0  0  0  0  0  0
  -20.5444   10.6607    2.4451 C   0  0  0  0  0  0  0  0  0  0  0  0
  -22.9153   10.7312    2.2983 C   0  0  0  0  0  0  0  0  0  0  0  0
  -21.6892   11.0787    1.8004 C   0  0  0  0  0  0  0  0  0  0  0  0
  -21.5946   11.8601    0.6323 O   0  0  0  0  0  0  0  0  0  0  0  0
  -19.7071   10.6915    6.9518 N   0  0  0  0  0  0  0  0  0  0  0  0
  -18.7281   11.7366    6.8291 C   0  0  2  0  0  0  0  0  0  0  0  0
  -17.6872   11.4302    5.8325 C   0  0  0  0  0  0  0  0  0  0  0  0
  -17.3595   12.3385    4.9925 O   0  0  0  0  0  0  0  0  0  0  0  0
  -18.0331   11.9807    8.1788 C   0  0  0  0  0  0  0  0  0  0  0  0
  -18.0633   10.8515    8.9801 O   0  0  0  0  0  0  0  0  0  0  0  0
  -17.0038   10.2052    5.7108 N   0  0  0  0  0  0  0  0  0  0  0  0
  -16.0057    9.9549    4.6501 C   0  0  2  0  0  0  0  0  0  0  0  0
  -16.0245    8.6072    4.1632 C   0  0  0  0  0  0  0  0  0  0  0  0
  -15.3277    8.2404    3.2056 O   0  0  0  0  0  0  0  0  0  0  0  0
  -14.7047   10.4752    5.1692 C   0  0  0  0  0  0  0  0  0  0  0  0
  -14.1606    9.9242    6.4064 C   0  0  0  0  0  0  0  0  0  0  0  0
  -13.1431   10.6204    7.2240 C   0  0  0  0  0  0  0  0  0  0  0  0
  -11.9315    9.9129    7.3791 N   0  0  0  0  0  0  0  0  0  0  0  0
  -10.9064   10.2226    8.2928 C   0  0  0  0  0  0  0  0  0  0  0  0
   -9.6347    9.6276    8.1770 N   0  0  0  0  0  0  0  0  0  0  0  0
  -11.1578   11.1038    9.2337 N   0  0  0  0  0  0  0  0  0  0  0  0
  -25.7904   15.1169    8.1292 H   0  0  0  0  0  0  0  0  0  0  0  0
  -11.7150   11.9239    8.9557 H   0  0  0  0  0  0  0  0  0  0  0  0
  1  2  2  0
  1  3  1  0
  1  4  1  0
  4  5  1  0
  5  6  1  0
  5  8  1  1
  6  7  2  0
  6 15  1  0
  8  9  1  0
  9 10  1  0
 10 11  1  0
 11 12  1  0
 12 13  1  0
 12 14  2  0
 15 16  1  0
 16 17  1  0
 16 19  1  6
 17 18  2  0
 17 27  1  0
 19 20  1  0
 20 21  2  0
 20 22  1  0
 21 23  1  0
 22 24  2  0
 23 25  2  0
 24 25  1  0
 25 26  1  0
 27 28  1  0
 28 29  1  0
 28 31  1  1
 29 30  2  0
 29 33  1  0
 31 32  1  0
 33 34  1  0
 34 35  1  0
 34 37  1  1
 35 36  2  0
 37 38  1  0
 38 39  1  0
 39 40  1  0
 40 41  1  0
 41 42  1  0
 41 43  2  0
 14 44  1  0
 43 45  1  0
M  END
$$$$
