
     RDKit          3D

 60 60  0  0  0  0  0  0  0  0999 V2000
   25.6323   63.9427   36.8560 N   0  0  0  0  0  4  0  0  0  0  0  0
   26.5113   64.5315   35.8570 C   0  0  2  0  0  0  0  0  0  0  0  0
   27.0631   63.5160   34.9408 C   0  0  0  0  0  0  0  0  0  0  0  0
   27.1684   62.3197   35.3042 O   0  0  0  0  0  0  0  0  0  0  0  0
   27.5892   65.2941   36.6004 C   0  0  2  0  0  0  0  0  0  0  0  0
   28.3381   65.9766   35.6222 O   0  0  0  0  0  0  0  0  0  0  0  0
   28.5062   64.3227   37.2808 C   0  0  0  0  0  0  0  0  0  0  0  0
   27.4849   63.8495   33.6305 N   0  0  0  0  0  0  0  0  0  0  0  0
   27.9146   62.8248   32.6507 C   0  0  2  0  0  0  0  0  0  0  0  0
   29.2781   62.3754   32.9421 C   0  0  0  0  0  0  0  0  0  0  0  0
   29.6697   62.1520   34.1454 O   0  0  0  0  0  0  0  0  0  0  0  0
   27.6824   63.4171   31.2970 C   0  0  2  0  0  0  0  0  0  0  0  0
   28.4772   62.9080   30.2869 O   0  0  0  0  0  0  0  0  0  0  0  0
   27.7343   64.9094   31.2811 C   0  0  0  0  0  0  0  0  0  0  0  0
   30.2149   62.1697   31.8985 N   0  0  0  0  0  0  0  0  0  0  0  0
   31.1684   61.1174   31.8799 C   0  0  2  0  0  0  0  0  0  0  0  0
   32.5725   61.3896   31.6654 C   0  0  0  0  0  0  0  0  0  0  0  0
   33.3189   60.3163   31.5804 O   0  0  0  0  0  0  0  0  0  0  0  0
   30.6543   60.1633   30.7465 C   0  0  0  0  0  0  0  0  0  0  0  0
   33.2936   62.5748   31.5189 N   0  0  0  0  0  0  0  0  0  0  0  0
   34.3695   63.1695   30.8680 C   0  0  2  0  0  0  0  0  0  0  0  0
   35.0321   62.8065   29.6831 C   0  0  0  0  0  0  0  0  0  0  0  0
   35.7401   63.7792   29.1426 O   0  0  0  0  0  0  0  0  0  0  0  0
   35.3322   63.3642   32.0662 C   0  0  0  0  0  0  0  0  0  0  0  0
   34.3503   63.9051   33.0703 C   0  0  0  0  0  0  0  0  0  0  0  0
   32.9398   63.7018   32.4525 C   0  0  0  0  0  0  0  0  0  0  0  0
   35.1366   61.6344   28.9058 N   0  0  0  0  0  0  0  0  0  0  0  0
   35.7158   61.5415   27.6002 C   0  0  2  0  0  0  0  0  0  0  0  0
   35.6688   60.2605   26.9342 C   0  0  0  0  0  0  0  0  0  0  0  0
   34.8532   59.4061   27.4528 O   0  0  0  0  0  0  0  0  0  0  0  0
   37.2168   61.9319   27.6104 C   0  0  0  0  0  0  0  0  0  0  0  0
   37.9694   61.1549   28.4465 O   0  0  0  0  0  0  0  0  0  0  0  0
   36.3973   59.8376   25.7813 N   0  0  0  0  0  0  0  0  0  0  0  0
   35.7730   58.9677   24.7832 C   0  0  2  0  0  0  0  0  0  0  0  0
   36.6199   58.6303   23.6490 C   0  0  0  0  0  0  0  0  0  0  0  0
   36.1298   58.3257   22.5493 O   0  0  0  0  0  0  0  0  0  0  0  0
   34.3835   59.4456   24.4581 C   0  0  0  0  0  0  0  0  0  0  0  0
   33.2552   58.5407   24.7177 C   0  0  1  0  0  0  0  0  0  0  0  0
   31.8804   59.0852   24.3727 C   0  0  0  0  0  0  0  0  0  0  0  0
   33.3482   57.1463   24.2131 C   0  0  0  0  0  0  0  0  0  0  0  0
   38.0169   58.6523   23.8027 N   0  0  0  0  0  0  0  0  0  0  0  0
   38.9898   57.7864   23.2054 C   0  0  2  0  0  0  0  0  0  0  0  0
   38.5202   57.2721   21.9029 C   0  0  0  0  0  0  0  0  0  0  0  0
   39.3868   56.6380   21.1933 O   0  0  0  0  0  0  0  0  0  0  0  0
   39.1130   56.5711   24.1415 C   0  0  0  0  0  0  0  0  0  0  0  0
   40.1094   56.7583   25.0902 O   0  0  0  0  0  0  0  0  0  0  0  0
   37.2404   57.3937   21.3432 N   0  0  0  0  0  0  0  0  0  0  0  0
   36.9218   56.8634   20.0272 C   0  0  0  0  0  0  0  0  0  0  0  0
   38.0603   57.0318   19.1084 C   0  0  0  0  0  0  0  0  0  0  0  0
   39.2604   56.9476   19.5933 O   0  0  0  0  0  0  0  0  0  0  0  0
   37.8927   57.2743   17.7371 N   0  0  0  0  0  0  0  0  0  0  0  0
   37.1754   56.2931   16.9034 C   0  0  2  0  0  0  0  0  0  0  0  0
   37.8311   54.9901   17.1022 C   0  0  0  0  0  0  0  0  0  0  0  0
   37.3589   53.9859   16.4681 O   0  0  0  0  0  0  0  0  0  0  0  0
   37.2879   56.7383   15.4664 C   0  0  0  0  0  0  0  0  0  0  0  0
   36.8227   58.1086   15.1749 C   0  0  0  0  0  0  0  0  0  0  0  0
   37.7891   58.9625   14.4268 C   0  0  0  0  0  0  0  0  0  0  0  0
   37.2037   60.3206   14.0961 C   0  0  0  0  0  0  0  0  0  0  0  0
   36.6987   60.3596   12.7370 N   0  0  0  0  0  4  0  0  0  0  0  0
   38.9107   54.7552   17.9119 O   0  0  0  0  0  0  0  0  0  0  0  0
  2  1  1  1
  2  3  1  0
  2  5  1  0
  3  4  2  0
  3  8  1  0
  5  6  1  0
  5  7  1  6
  9  8  1  1
  9 10  1  0
  9 12  1  0
 10 11  2  0
 10 15  1  0
 12 13  1  0
 12 14  1  1
 15 16  1  0
 16 17  1  0
 16 19  1  6
 17 18  2  0
 17 20  1  0
 20 21  1  0
 20 26  1  0
 21 22  1  6
 21 24  1  0
 22 23  2  0
 22 27  1  0
 24 25  1  0
 25 26  1  0
 27 28  1  0
 28 29  1  0
 28 31  1  1
 29 30  2  0
 29 33  1  0
 31 32  1  0
 33 34  1  0
 34 35  1  0
 34 37  1  6
 35 36  2  0
 35 41  1  0
 37 38  1  0
 38 39  1  6
 38 40  1  0
 41 42  1  0
 42 43  1  0
 42 45  1  1
 43 44  2  0
 43 47  1  0
 45 46  1  0
 47 48  1  0
 48 49  1  0
 49 50  2  0
 49 51  1  0
 51 52  1  0
 52 53  1  0
 52 55  1  6
 53 54  2  0
 53 60  1  0
 55 56  1  0
 56 57  1  0
 57 58  1  0
 58 59  1  0
M  CHG  2   1   1  59   1
M  END
$$$$
