
     RDKit          3D

 60 60  0  0  0  0  0  0  0  0999 V2000
   24.9981   63.0473   37.3442 N   0  0  0  0  0  4  0  0  0  0  0  0
   26.3166   62.5500   36.9813 C   0  0  2  0  0  0  0  0  0  0  0  0
   26.8884   63.2864   35.8386 C   0  0  0  0  0  0  0  0  0  0  0  0
   26.1397   63.8083   34.9776 O   0  0  0  0  0  0  0  0  0  0  0  0
   26.1776   61.0660   36.7085 C   0  0  2  0  0  0  0  0  0  0  0  0
   26.8316   60.4056   37.7667 O   0  0  0  0  0  0  0  0  0  0  0  0
   26.9012   60.7234   35.4411 C   0  0  0  0  0  0  0  0  0  0  0  0
   28.2877   63.4339   35.6760 N   0  0  0  0  0  0  0  0  0  0  0  0
   28.8773   64.3089   34.6361 C   0  0  2  0  0  0  0  0  0  0  0  0
   29.1110   63.5547   33.4023 C   0  0  0  0  0  0  0  0  0  0  0  0
   28.9060   62.2876   33.3397 O   0  0  0  0  0  0  0  0  0  0  0  0
   30.0739   64.9532   35.2610 C   0  0  2  0  0  0  0  0  0  0  0  0
   30.7391   65.8625   34.4598 O   0  0  0  0  0  0  0  0  0  0  0  0
   31.0461   63.9765   35.8363 C   0  0  0  0  0  0  0  0  0  0  0  0
   29.5724   64.2032   32.2295 N   0  0  0  0  0  0  0  0  0  0  0  0
   29.6161   63.5944   30.9472 C   0  0  2  0  0  0  0  0  0  0  0  0
   30.8560   63.0775   30.4112 C   0  0  0  0  0  0  0  0  0  0  0  0
   30.7942   62.7442   29.1457 O   0  0  0  0  0  0  0  0  0  0  0  0
   29.0669   64.7037   29.9846 C   0  0  0  0  0  0  0  0  0  0  0  0
   32.1158   62.8720   30.9738 N   0  0  0  0  0  0  0  0  0  0  0  0
   33.1986   62.0007   31.0321 C   0  0  2  0  0  0  0  0  0  0  0  0
   33.6078   60.9940   30.1411 C   0  0  0  0  0  0  0  0  0  0  0  0
   34.4817   60.1473   30.6500 O   0  0  0  0  0  0  0  0  0  0  0  0
   33.0600   61.4995   32.4916 C   0  0  0  0  0  0  0  0  0  0  0  0
   32.8028   62.8186   33.1689 C   0  0  0  0  0  0  0  0  0  0  0  0
   32.5508   63.8486   32.0340 C   0  0  0  0  0  0  0  0  0  0  0  0
   33.3117   60.6489   28.8062 N   0  0  0  0  0  0  0  0  0  0  0  0
   33.2839   59.3229   28.2680 C   0  0  2  0  0  0  0  0  0  0  0  0
   34.2266   59.0029   27.2213 C   0  0  0  0  0  0  0  0  0  0  0  0
   34.9148   57.9294   27.4170 O   0  0  0  0  0  0  0  0  0  0  0  0
   31.8940   58.9748   27.6742 C   0  0  0  0  0  0  0  0  0  0  0  0
   30.8735   59.6886   28.2384 O   0  0  0  0  0  0  0  0  0  0  0  0
   34.4755   59.7153   26.0091 N   0  0  0  0  0  0  0  0  0  0  0  0
   35.5346   59.2840   25.0954 C   0  0  2  0  0  0  0  0  0  0  0  0
   35.4848   59.8865   23.7718 C   0  0  0  0  0  0  0  0  0  0  0  0
   34.4835   60.5133   23.3886 O   0  0  0  0  0  0  0  0  0  0  0  0
   35.6978   57.7887   25.1409 C   0  0  0  0  0  0  0  0  0  0  0  0
   34.5210   56.9670   25.4557 C   0  0  1  0  0  0  0  0  0  0  0  0
   34.6685   56.0311   26.6422 C   0  0  0  0  0  0  0  0  0  0  0  0
   33.2022   57.6445   25.5532 C   0  0  0  0  0  0  0  0  0  0  0  0
   36.5912   59.7572   22.9147 N   0  0  0  0  0  0  0  0  0  0  0  0
   37.5965   60.7312   22.6090 C   0  0  2  0  0  0  0  0  0  0  0  0
   38.6517   60.1590   21.7483 C   0  0  0  0  0  0  0  0  0  0  0  0
   39.7271   60.8552   21.6239 O   0  0  0  0  0  0  0  0  0  0  0  0
   38.2653   61.0904   23.9478 C   0  0  0  0  0  0  0  0  0  0  0  0
   38.7725   62.3827   23.9329 O   0  0  0  0  0  0  0  0  0  0  0  0
   38.6222   58.9458   21.0462 N   0  0  0  0  0  0  0  0  0  0  0  0
   38.1091   58.8538   19.6887 C   0  0  0  0  0  0  0  0  0  0  0  0
   39.0092   58.0494   18.8453 C   0  0  0  0  0  0  0  0  0  0  0  0
   40.0144   58.6415   18.2784 O   0  0  0  0  0  0  0  0  0  0  0  0
   38.8205   56.6750   18.6388 N   0  0  0  0  0  0  0  0  0  0  0  0
   39.1055   56.0882   17.3171 C   0  0  2  0  0  0  0  0  0  0  0  0
   39.7390   57.1376   16.5017 C   0  0  0  0  0  0  0  0  0  0  0  0
   40.1943   56.8037   15.3552 O   0  0  0  0  0  0  0  0  0  0  0  0
   37.7936   55.6549   16.7116 C   0  0  0  0  0  0  0  0  0  0  0  0
   36.6306   56.5164   17.0021 C   0  0  0  0  0  0  0  0  0  0  0  0
   35.3555   55.7930   17.2735 C   0  0  0  0  0  0  0  0  0  0  0  0
   34.9376   54.9272   16.1021 C   0  0  0  0  0  0  0  0  0  0  0  0
   34.4911   55.7349   14.9832 N   0  0  0  0  0  4  0  0  0  0  0  0
   39.8849   58.4506   16.8639 O   0  0  0  0  0  0  0  0  0  0  0  0
  2  1  1  6
  2  3  1  0
  2  5  1  0
  3  4  2  0
  3  8  1  0
  5  6  1  0
  5  7  1  6
  9  8  1  1
  9 10  1  0
  9 12  1  0
 10 11  2  0
 10 15  1  0
 12 13  1  0
 12 14  1  6
 15 16  1  0
 16 17  1  0
 16 19  1  6
 17 18  2  0
 17 20  1  0
 20 21  1  0
 20 26  1  0
 21 22  1  6
 21 24  1  0
 22 23  2  0
 22 27  1  0
 24 25  1  0
 25 26  1  0
 27 28  1  0
 28 29  1  0
 28 31  1  6
 29 30  2  0
 29 33  1  0
 31 32  1  0
 33 34  1  0
 34 35  1  0
 34 37  1  6
 35 36  2  0
 35 41  1  0
 37 38  1  0
 38 39  1  1
 38 40  1  0
 41 42  1  0
 42 43  1  0
 42 45  1  1
 43 44  2  0
 43 47  1  0
 45 46  1  0
 47 48  1  0
 48 49  1  0
 49 50  2  0
 49 51  1  0
 51 52  1  0
 52 53  1  0
 52 55  1  6
 53 54  2  0
 53 60  1  0
 55 56  1  0
 56 57  1  0
 57 58  1  0
 58 59  1  0
M  CHG  2   1   1  59   1
M  END
$$$$
