
     RDKit          3D

 60 60  0  0  0  0  0  0  0  0999 V2000
   28.1752   63.2720   37.4755 N   0  0  0  0  0  4  0  0  0  0  0  0
   28.7709   63.5803   36.1842 C   0  0  2  0  0  0  0  0  0  0  0  0
   28.0985   62.8669   35.0823 C   0  0  0  0  0  0  0  0  0  0  0  0
   27.3946   61.8545   35.3141 O   0  0  0  0  0  0  0  0  0  0  0  0
   30.2464   63.2487   36.2795 C   0  0  2  0  0  0  0  0  0  0  0  0
   30.7236   63.8936   37.4370 O   0  0  0  0  0  0  0  0  0  0  0  0
   30.9650   63.8355   35.1019 C   0  0  0  0  0  0  0  0  0  0  0  0
   28.2175   63.2969   33.7380 N   0  0  0  0  0  0  0  0  0  0  0  0
   27.1974   64.1497   33.0848 C   0  0  2  0  0  0  0  0  0  0  0  0
   27.0285   63.7650   31.6815 C   0  0  0  0  0  0  0  0  0  0  0  0
   26.0605   64.2224   30.9708 O   0  0  0  0  0  0  0  0  0  0  0  0
   27.6071   65.5647   33.3440 C   0  0  2  0  0  0  0  0  0  0  0  0
   26.7195   66.5262   32.8980 O   0  0  0  0  0  0  0  0  0  0  0  0
   28.9852   65.8847   32.8659 C   0  0  0  0  0  0  0  0  0  0  0  0
   27.9346   62.8711   31.0581 N   0  0  0  0  0  0  0  0  0  0  0  0
   28.8954   62.0937   31.7577 C   0  0  2  0  0  0  0  0  0  0  0  0
   30.1298   61.6888   31.1224 C   0  0  0  0  0  0  0  0  0  0  0  0
   31.1652   62.4226   31.4479 O   0  0  0  0  0  0  0  0  0  0  0  0
   28.1005   60.8134   32.1914 C   0  0  0  0  0  0  0  0  0  0  0  0
   30.4422   60.6590   30.2347 N   0  0  0  0  0  0  0  0  0  0  0  0
   31.0301   60.3635   29.0090 C   0  0  2  0  0  0  0  0  0  0  0  0
   31.9595   61.0894   28.2449 C   0  0  0  0  0  0  0  0  0  0  0  0
   32.8638   61.7282   28.9616 O   0  0  0  0  0  0  0  0  0  0  0  0
   29.7734   59.9493   28.2030 C   0  0  0  0  0  0  0  0  0  0  0  0
   29.1143   59.0704   29.2316 C   0  0  0  0  0  0  0  0  0  0  0  0
   29.8902   59.2961   30.5581 C   0  0  0  0  0  0  0  0  0  0  0  0
   32.1776   61.3124   26.8696 N   0  0  0  0  0  0  0  0  0  0  0  0
   33.3889   61.0417   26.1567 C   0  0  2  0  0  0  0  0  0  0  0  0
   34.5686   60.7312   26.9305 C   0  0  0  0  0  0  0  0  0  0  0  0
   34.3998   60.7413   28.2094 O   0  0  0  0  0  0  0  0  0  0  0  0
   33.8035   62.2356   25.2576 C   0  0  0  0  0  0  0  0  0  0  0  0
   35.1320   62.5443   25.3516 O   0  0  0  0  0  0  0  0  0  0  0  0
   35.8759   60.4077   26.4560 N   0  0  0  0  0  0  0  0  0  0  0  0
   36.3347   59.0181   26.4253 C   0  0  2  0  0  0  0  0  0  0  0  0
   37.7130   58.8374   25.9948 C   0  0  0  0  0  0  0  0  0  0  0  0
   38.3313   57.7894   26.2428 O   0  0  0  0  0  0  0  0  0  0  0  0
   35.3097   58.1356   25.7657 C   0  0  0  0  0  0  0  0  0  0  0  0
   35.4741   56.6788   25.8662 C   0  0  1  0  0  0  0  0  0  0  0  0
   35.0071   56.0508   27.1673 C   0  0  0  0  0  0  0  0  0  0  0  0
   34.9869   55.8418   24.7394 C   0  0  0  0  0  0  0  0  0  0  0  0
   38.3527   59.8677   25.2842 N   0  0  0  0  0  0  0  0  0  0  0  0
   38.7773   59.8718   23.9158 C   0  0  2  0  0  0  0  0  0  0  0  0
   38.0720   58.8361   23.1337 C   0  0  0  0  0  0  0  0  0  0  0  0
   36.9027   58.5006   23.5539 O   0  0  0  0  0  0  0  0  0  0  0  0
   40.2652   59.4789   23.9283 C   0  0  0  0  0  0  0  0  0  0  0  0
   40.4637   58.2566   24.5561 O   0  0  0  0  0  0  0  0  0  0  0  0
   38.5253   58.1704   21.9860 N   0  0  0  0  0  0  0  0  0  0  0  0
   38.4027   58.7526   20.6590 C   0  0  0  0  0  0  0  0  0  0  0  0
   37.7482   57.8105   19.7356 C   0  0  0  0  0  0  0  0  0  0  0  0
   37.0635   56.8306   20.2389 O   0  0  0  0  0  0  0  0  0  0  0  0
   37.8360   57.9378   18.3416 N   0  0  0  0  0  0  0  0  0  0  0  0
   37.1647   56.9535   17.4737 C   0  0  2  0  0  0  0  0  0  0  0  0
   37.8860   55.6787   17.6214 C   0  0  0  0  0  0  0  0  0  0  0  0
   37.3067   54.6181   17.2055 O   0  0  0  0  0  0  0  0  0  0  0  0
   37.2475   57.4572   16.0542 C   0  0  0  0  0  0  0  0  0  0  0  0
   36.2474   58.4720   15.6681 C   0  0  0  0  0  0  0  0  0  0  0  0
   36.8082   59.7766   15.2139 C   0  0  0  0  0  0  0  0  0  0  0  0
   35.7891   60.5911   14.4428 C   0  0  0  0  0  0  0  0  0  0  0  0
   35.1513   59.7959   13.4109 N   0  0  0  0  0  4  0  0  0  0  0  0
   39.1325   55.5256   18.1684 O   0  0  0  0  0  0  0  0  0  0  0  0
  2  1  1  1
  2  3  1  0
  2  5  1  0
  3  4  2  0
  3  8  1  0
  5  6  1  0
  5  7  1  6
  9  8  1  6
  9 10  1  0
  9 12  1  0
 10 11  2  0
 10 15  1  0
 12 13  1  0
 12 14  1  6
 15 16  1  0
 16 17  1  0
 16 19  1  6
 17 18  2  0
 17 20  1  0
 20 21  1  0
 20 26  1  0
 21 22  1  6
 21 24  1  0
 22 23  2  0
 22 27  1  0
 24 25  1  0
 25 26  1  0
 27 28  1  0
 28 29  1  0
 28 31  1  1
 29 30  2  0
 29 33  1  0
 31 32  1  0
 33 34  1  0
 34 35  1  0
 34 37  1  6
 35 36  2  0
 35 41  1  0
 37 38  1  0
 38 39  1  1
 38 40  1  0
 41 42  1  0
 42 43  1  0
 42 45  1  1
 43 44  2  0
 43 47  1  0
 45 46  1  0
 47 48  1  0
 48 49  1  0
 49 50  2  0
 49 51  1  0
 51 52  1  0
 52 53  1  0
 52 55  1  6
 53 54  2  0
 53 60  1  0
 55 56  1  0
 56 57  1  0
 57 58  1  0
 58 59  1  0
M  CHG  2   1   1  59   1
M  END
$$$$
