
     RDKit          3D

 60 60  0  0  0  0  0  0  0  0999 V2000
   24.4040   63.0369   36.1497 N   0  0  0  0  0  4  0  0  0  0  0  0
   25.4643   63.7757   35.4809 C   0  0  2  0  0  0  0  0  0  0  0  0
   26.0383   63.0172   34.3537 C   0  0  0  0  0  0  0  0  0  0  0  0
   25.8988   61.7722   34.2864 O   0  0  0  0  0  0  0  0  0  0  0  0
   26.4967   64.1302   36.5317 C   0  0  2  0  0  0  0  0  0  0  0  0
   27.4108   65.0032   35.9106 O   0  0  0  0  0  0  0  0  0  0  0  0
   27.2458   62.8941   36.9299 C   0  0  0  0  0  0  0  0  0  0  0  0
   26.7557   63.6602   33.3154 N   0  0  0  0  0  0  0  0  0  0  0  0
   27.3226   62.9179   32.1656 C   0  0  2  0  0  0  0  0  0  0  0  0
   28.3076   61.9352   32.6239 C   0  0  0  0  0  0  0  0  0  0  0  0
   27.9862   60.9858   33.4281 O   0  0  0  0  0  0  0  0  0  0  0  0
   27.8104   63.9510   31.2002 C   0  0  2  0  0  0  0  0  0  0  0  0
   28.7799   64.8054   31.6916 O   0  0  0  0  0  0  0  0  0  0  0  0
   26.7133   64.7396   30.5643 C   0  0  0  0  0  0  0  0  0  0  0  0
   29.6555   61.9996   32.1906 N   0  0  0  0  0  0  0  0  0  0  0  0
   30.5459   60.8933   32.1898 C   0  0  2  0  0  0  0  0  0  0  0  0
   31.9692   61.0842   32.0184 C   0  0  0  0  0  0  0  0  0  0  0  0
   32.6691   59.9785   32.0819 O   0  0  0  0  0  0  0  0  0  0  0  0
   30.0105   59.9796   31.0333 C   0  0  0  0  0  0  0  0  0  0  0  0
   32.7495   62.2171   31.7864 N   0  0  0  0  0  0  0  0  0  0  0  0
   33.7969   62.7318   31.0293 C   0  0  2  0  0  0  0  0  0  0  0  0
   34.3212   62.3130   29.7947 C   0  0  0  0  0  0  0  0  0  0  0  0
   33.4540   61.6808   29.0281 O   0  0  0  0  0  0  0  0  0  0  0  0
   34.8774   62.8746   32.1304 C   0  0  0  0  0  0  0  0  0  0  0  0
   34.0306   63.4903   33.2114 C   0  0  0  0  0  0  0  0  0  0  0  0
   32.5585   63.3749   32.7296 C   0  0  0  0  0  0  0  0  0  0  0  0
   35.5721   62.4012   29.1494 N   0  0  0  0  0  0  0  0  0  0  0  0
   35.8444   62.0375   27.7921 C   0  0  2  0  0  0  0  0  0  0  0  0
   35.9706   60.6314   27.4859 C   0  0  0  0  0  0  0  0  0  0  0  0
   35.1280   59.8641   28.0905 O   0  0  0  0  0  0  0  0  0  0  0  0
   37.1612   62.6778   27.2806 C   0  0  0  0  0  0  0  0  0  0  0  0
   37.1254   64.0444   27.2670 O   0  0  0  0  0  0  0  0  0  0  0  0
   36.8946   60.0005   26.5988 N   0  0  0  0  0  0  0  0  0  0  0  0
   36.4429   59.4524   25.3189 C   0  0  2  0  0  0  0  0  0  0  0  0
   36.8786   60.1957   24.1462 C   0  0  0  0  0  0  0  0  0  0  0  0
   36.1739   61.0929   23.6559 O   0  0  0  0  0  0  0  0  0  0  0  0
   34.9810   59.1002   25.3791 C   0  0  0  0  0  0  0  0  0  0  0  0
   34.6093   57.6898   25.5574 C   0  0  1  0  0  0  0  0  0  0  0  0
   35.0969   57.0363   26.8384 C   0  0  0  0  0  0  0  0  0  0  0  0
   33.1881   57.3105   25.3482 C   0  0  0  0  0  0  0  0  0  0  0  0
   38.1201   59.8922   23.5612 N   0  0  0  0  0  0  0  0  0  0  0  0
   38.4108   59.6217   22.1846 C   0  0  2  0  0  0  0  0  0  0  0  0
   38.1262   58.2128   21.8446 C   0  0  0  0  0  0  0  0  0  0  0  0
   37.5639   57.5063   22.7619 O   0  0  0  0  0  0  0  0  0  0  0  0
   39.9286   59.8174   22.0213 C   0  0  0  0  0  0  0  0  0  0  0  0
   40.6427   59.0190   22.9045 O   0  0  0  0  0  0  0  0  0  0  0  0
   38.3976   57.5491   20.6397 N   0  0  0  0  0  0  0  0  0  0  0  0
   37.8045   56.2605   20.3197 C   0  0  0  0  0  0  0  0  0  0  0  0
   37.1729   56.2940   18.9898 C   0  0  0  0  0  0  0  0  0  0  0  0
   36.2307   57.1597   18.7774 O   0  0  0  0  0  0  0  0  0  0  0  0
   37.5549   55.4312   17.9520 N   0  0  0  0  0  0  0  0  0  0  0  0
   36.9475   55.5791   16.6173 C   0  0  2  0  0  0  0  0  0  0  0  0
   37.3979   54.4373   15.8044 C   0  0  0  0  0  0  0  0  0  0  0  0
   38.3896   53.7566   16.2364 O   0  0  0  0  0  0  0  0  0  0  0  0
   37.4326   56.8816   16.0309 C   0  0  0  0  0  0  0  0  0  0  0  0
   38.8861   57.1264   16.1119 C   0  0  0  0  0  0  0  0  0  0  0  0
   39.3859   58.2650   15.2893 C   0  0  0  0  0  0  0  0  0  0  0  0
   40.8114   58.6356   15.6456 C   0  0  0  0  0  0  0  0  0  0  0  0
   40.9043   59.1198   17.0096 N   0  0  0  0  0  4  0  0  0  0  0  0
   36.8450   54.0352   14.6175 O   0  0  0  0  0  0  0  0  0  0  0  0
  2  1  1  1
  2  3  1  0
  2  5  1  0
  3  4  2  0
  3  8  1  0
  5  6  1  0
  5  7  1  6
  9  8  1  1
  9 10  1  0
  9 12  1  0
 10 11  2  0
 10 15  1  0
 12 13  1  0
 12 14  1  1
 15 16  1  0
 16 17  1  0
 16 19  1  6
 17 18  2  0
 17 20  1  0
 20 21  1  0
 20 26  1  0
 21 22  1  6
 21 24  1  0
 22 23  2  0
 22 27  1  0
 24 25  1  0
 25 26  1  0
 27 28  1  0
 28 29  1  0
 28 31  1  1
 29 30  2  0
 29 33  1  0
 31 32  1  0
 33 34  1  0
 34 35  1  0
 34 37  1  1
 35 36  2  0
 35 41  1  0
 37 38  1  0
 38 39  1  1
 38 40  1  0
 41 42  1  0
 42 43  1  0
 42 45  1  1
 43 44  2  0
 43 47  1  0
 45 46  1  0
 47 48  1  0
 48 49  1  0
 49 50  2  0
 49 51  1  0
 51 52  1  0
 52 53  1  0
 52 55  1  6
 53 54  2  0
 53 60  1  0
 55 56  1  0
 56 57  1  0
 57 58  1  0
 58 59  1  0
M  CHG  2   1   1  59   1
M  END
$$$$
