
     RDKit          3D

 60 60  0  0  0  0  0  0  0  0999 V2000
   24.5913   62.6350   35.7024 N   0  0  0  0  0  4  0  0  0  0  0  0
   25.3610   63.6329   34.9750 C   0  0  2  0  0  0  0  0  0  0  0  0
   25.9053   63.0973   33.7132 C   0  0  0  0  0  0  0  0  0  0  0  0
   25.1395   62.6280   32.8371 O   0  0  0  0  0  0  0  0  0  0  0  0
   26.4422   64.1356   35.9100 C   0  0  2  0  0  0  0  0  0  0  0  0
   27.1505   65.1253   35.2012 O   0  0  0  0  0  0  0  0  0  0  0  0
   27.3970   63.0200   36.2118 C   0  0  0  0  0  0  0  0  0  0  0  0
   27.2961   63.0979   33.4454 N   0  0  0  0  0  0  0  0  0  0  0  0
   27.8554   62.6345   32.1543 C   0  0  2  0  0  0  0  0  0  0  0  0
   29.3173   62.7273   32.1648 C   0  0  0  0  0  0  0  0  0  0  0  0
   30.0206   62.3774   31.1479 O   0  0  0  0  0  0  0  0  0  0  0  0
   27.1455   63.4083   31.0892 C   0  0  2  0  0  0  0  0  0  0  0  0
   27.5447   63.1317   29.7947 O   0  0  0  0  0  0  0  0  0  0  0  0
   27.1515   64.8839   31.3184 C   0  0  0  0  0  0  0  0  0  0  0  0
   30.0073   63.2110   33.3045 N   0  0  0  0  0  0  0  0  0  0  0  0
   31.4213   63.2173   33.4365 C   0  0  2  0  0  0  0  0  0  0  0  0
   32.2705   62.7469   32.3645 C   0  0  0  0  0  0  0  0  0  0  0  0
   31.6676   61.9552   31.5123 O   0  0  0  0  0  0  0  0  0  0  0  0
   31.6841   62.3481   34.7150 C   0  0  0  0  0  0  0  0  0  0  0  0
   33.6094   62.9783   32.0488 N   0  0  0  0  0  0  0  0  0  0  0  0
   34.7436   62.4262   31.4622 C   0  0  2  0  0  0  0  0  0  0  0  0
   34.8725   61.3752   30.5385 C   0  0  0  0  0  0  0  0  0  0  0  0
   34.1665   60.3030   30.8410 O   0  0  0  0  0  0  0  0  0  0  0  0
   35.6314   62.2423   32.7186 C   0  0  0  0  0  0  0  0  0  0  0  0
   35.3945   63.5777   33.3707 C   0  0  0  0  0  0  0  0  0  0  0  0
   34.2246   64.2402   32.5929 C   0  0  0  0  0  0  0  0  0  0  0  0
   35.5825   61.1712   29.3372 N   0  0  0  0  0  0  0  0  0  0  0  0
   35.2046   60.2852   28.2785 C   0  0  2  0  0  0  0  0  0  0  0  0
   36.0029   60.2982   27.0746 C   0  0  0  0  0  0  0  0  0  0  0  0
   35.3592   60.0236   25.9908 O   0  0  0  0  0  0  0  0  0  0  0  0
   33.7538   60.5514   27.7991 C   0  0  0  0  0  0  0  0  0  0  0  0
   33.6019   61.7675   27.1931 O   0  0  0  0  0  0  0  0  0  0  0  0
   37.3950   60.5860   26.9414 N   0  0  0  0  0  0  0  0  0  0  0  0
   38.3688   59.5033   26.7924 C   0  0  2  0  0  0  0  0  0  0  0  0
   38.2668   58.7544   25.5489 C   0  0  0  0  0  0  0  0  0  0  0  0
   39.2751   58.4891   24.8742 O   0  0  0  0  0  0  0  0  0  0  0  0
   38.4539   58.6892   28.0553 C   0  0  0  0  0  0  0  0  0  0  0  0
   38.4668   59.3971   29.3429 C   0  0  1  0  0  0  0  0  0  0  0  0
   38.6475   58.5253   30.5728 C   0  0  0  0  0  0  0  0  0  0  0  0
   39.3471   60.5865   29.4769 C   0  0  0  0  0  0  0  0  0  0  0  0
   37.0042   58.3231   25.1068 N   0  0  0  0  0  0  0  0  0  0  0  0
   36.7004   57.3527   24.0974 C   0  0  2  0  0  0  0  0  0  0  0  0
   36.6325   57.9755   22.7598 C   0  0  0  0  0  0  0  0  0  0  0  0
   36.9645   59.2171   22.6904 O   0  0  0  0  0  0  0  0  0  0  0  0
   35.2869   56.8333   24.4149 C   0  0  0  0  0  0  0  0  0  0  0  0
   35.2606   56.1271   25.6100 O   0  0  0  0  0  0  0  0  0  0  0  0
   36.2465   57.3758   21.5527 N   0  0  0  0  0  0  0  0  0  0  0  0
   36.2272   58.1119   20.2987 C   0  0  0  0  0  0  0  0  0  0  0  0
   35.7677   57.2503   19.1963 C   0  0  0  0  0  0  0  0  0  0  0  0
   34.5843   56.7256   19.2773 O   0  0  0  0  0  0  0  0  0  0  0  0
   36.5581   56.9830   18.0689 N   0  0  0  0  0  0  0  0  0  0  0  0
   36.0302   56.1258   16.9923 C   0  0  2  0  0  0  0  0  0  0  0  0
   36.7509   54.8441   17.0627 C   0  0  0  0  0  0  0  0  0  0  0  0
   37.6986   54.7427   17.9142 O   0  0  0  0  0  0  0  0  0  0  0  0
   36.2931   56.8195   15.6788 C   0  0  0  0  0  0  0  0  0  0  0  0
   37.6394   57.4016   15.5123 C   0  0  0  0  0  0  0  0  0  0  0  0
   38.0811   57.5887   14.1007 C   0  0  0  0  0  0  0  0  0  0  0  0
   39.2319   58.5688   13.9946 C   0  0  0  0  0  0  0  0  0  0  0  0
   39.5113   59.1933   15.2736 N   0  0  0  0  0  4  0  0  0  0  0  0
   36.4949   53.7411   16.2919 O   0  0  0  0  0  0  0  0  0  0  0  0
  2  1  1  1
  2  3  1  0
  2  5  1  0
  3  4  2  0
  3  8  1  0
  5  6  1  0
  5  7  1  6
  9  8  1  1
  9 10  1  0
  9 12  1  0
 10 11  2  0
 10 15  1  0
 12 13  1  0
 12 14  1  1
 15 16  1  0
 16 17  1  0
 16 19  1  1
 17 18  2  0
 17 20  1  0
 20 21  1  0
 20 26  1  0
 21 22  1  1
 21 24  1  0
 22 23  2  0
 22 27  1  0
 24 25  1  0
 25 26  1  0
 27 28  1  0
 28 29  1  0
 28 31  1  6
 29 30  2  0
 29 33  1  0
 31 32  1  0
 33 34  1  0
 34 35  1  0
 34 37  1  1
 35 36  2  0
 35 41  1  0
 37 38  1  0
 38 39  1  1
 38 40  1  0
 41 42  1  0
 42 43  1  0
 42 45  1  1
 43 44  2  0
 43 47  1  0
 45 46  1  0
 47 48  1  0
 48 49  1  0
 49 50  2  0
 49 51  1  0
 51 52  1  0
 52 53  1  0
 52 55  1  6
 53 54  2  0
 53 60  1  0
 55 56  1  0
 56 57  1  0
 57 58  1  0
 58 59  1  0
M  CHG  2   1   1  59   1
M  END
$$$$
