
     RDKit          3D

 60 60  0  0  0  0  0  0  0  0999 V2000
   26.2733   65.2208   39.5945 N   0  0  0  0  0  4  0  0  0  0  0  0
   25.9713   65.1712   38.1720 C   0  0  2  0  0  0  0  0  0  0  0  0
   26.8110   64.1867   37.4642 C   0  0  0  0  0  0  0  0  0  0  0  0
   27.9840   63.9578   37.8459 O   0  0  0  0  0  0  0  0  0  0  0  0
   26.1354   66.5760   37.6285 C   0  0  2  0  0  0  0  0  0  0  0  0
   25.7344   66.5284   36.2793 O   0  0  0  0  0  0  0  0  0  0  0  0
   27.5854   66.9553   37.6599 C   0  0  0  0  0  0  0  0  0  0  0  0
   26.3274   63.4684   36.3433 N   0  0  0  0  0  0  0  0  0  0  0  0
   27.1374   62.4390   35.6514 C   0  0  2  0  0  0  0  0  0  0  0  0
   28.3309   63.0414   35.0527 C   0  0  0  0  0  0  0  0  0  0  0  0
   28.4512   64.3148   34.9287 O   0  0  0  0  0  0  0  0  0  0  0  0
   26.2068   61.7325   34.7175 C   0  0  2  0  0  0  0  0  0  0  0  0
   25.6791   62.5153   33.7076 O   0  0  0  0  0  0  0  0  0  0  0  0
   25.1112   60.9928   35.4122 C   0  0  0  0  0  0  0  0  0  0  0  0
   29.3993   62.2334   34.5893 N   0  0  0  0  0  0  0  0  0  0  0  0
   30.5008   62.7230   33.8384 C   0  0  2  0  0  0  0  0  0  0  0  0
   30.3998   62.9142   32.4084 C   0  0  0  0  0  0  0  0  0  0  0  0
   30.6077   64.1472   32.0173 O   0  0  0  0  0  0  0  0  0  0  0  0
   31.6465   61.6947   34.1363 C   0  0  0  0  0  0  0  0  0  0  0  0
   30.1341   62.0397   31.3545 N   0  0  0  0  0  0  0  0  0  0  0  0
   30.7048   61.3375   30.2979 C   0  0  2  0  0  0  0  0  0  0  0  0
   32.0365   60.9480   30.0757 C   0  0  0  0  0  0  0  0  0  0  0  0
   32.7157   60.6986   31.1785 O   0  0  0  0  0  0  0  0  0  0  0  0
   30.0903   62.1079   29.1024 C   0  0  0  0  0  0  0  0  0  0  0  0
   28.6688   62.1992   29.5880 C   0  0  0  0  0  0  0  0  0  0  0  0
   28.6858   61.7408   31.0720 C   0  0  0  0  0  0  0  0  0  0  0  0
   32.8522   60.7488   28.9426 N   0  0  0  0  0  0  0  0  0  0  0  0
   33.7441   59.6492   28.7327 C   0  0  2  0  0  0  0  0  0  0  0  0
   34.3750   59.5337   27.4384 C   0  0  0  0  0  0  0  0  0  0  0  0
   33.7047   58.8638   26.5631 O   0  0  0  0  0  0  0  0  0  0  0  0
   33.0365   58.2871   28.9556 C   0  0  0  0  0  0  0  0  0  0  0  0
   33.9078   57.2597   29.1889 O   0  0  0  0  0  0  0  0  0  0  0  0
   35.6270   60.0740   27.0151 N   0  0  0  0  0  0  0  0  0  0  0  0
   35.8656   60.3851   25.6048 C   0  0  2  0  0  0  0  0  0  0  0  0
   35.7934   59.2437   24.7049 C   0  0  0  0  0  0  0  0  0  0  0  0
   35.4867   58.1150   25.1223 O   0  0  0  0  0  0  0  0  0  0  0  0
   37.0686   61.2767   25.4546 C   0  0  0  0  0  0  0  0  0  0  0  0
   37.0521   62.5889   26.1157 C   0  0  1  0  0  0  0  0  0  0  0  0
   38.4107   63.2224   26.3576 C   0  0  0  0  0  0  0  0  0  0  0  0
   36.1375   63.6297   25.5791 C   0  0  0  0  0  0  0  0  0  0  0  0
   36.0743   59.4249   23.3397 N   0  0  0  0  0  0  0  0  0  0  0  0
   35.8594   58.5083   22.2596 C   0  0  2  0  0  0  0  0  0  0  0  0
   36.2786   59.0937   20.9699 C   0  0  0  0  0  0  0  0  0  0  0  0
   36.2860   60.3790   20.9016 O   0  0  0  0  0  0  0  0  0  0  0  0
   34.3374   58.2966   22.1745 C   0  0  0  0  0  0  0  0  0  0  0  0
   34.0122   57.3012   21.2629 O   0  0  0  0  0  0  0  0  0  0  0  0
   36.6686   58.4158   19.8062 N   0  0  0  0  0  0  0  0  0  0  0  0
   37.7176   57.4086   19.8166 C   0  0  0  0  0  0  0  0  0  0  0  0
   37.7912   56.7202   18.5168 C   0  0  0  0  0  0  0  0  0  0  0  0
   38.3119   55.5329   18.4777 O   0  0  0  0  0  0  0  0  0  0  0  0
   37.3176   57.2983   17.3299 N   0  0  0  0  0  0  0  0  0  0  0  0
   37.5706   56.6313   16.0401 C   0  0  2  0  0  0  0  0  0  0  0  0
   38.5650   55.5735   16.2840 C   0  0  0  0  0  0  0  0  0  0  0  0
   39.0793   55.5011   17.4518 O   0  0  0  0  0  0  0  0  0  0  0  0
   38.1092   57.6657   15.0832 C   0  0  0  0  0  0  0  0  0  0  0  0
   39.4835   58.1367   15.3453 C   0  0  0  0  0  0  0  0  0  0  0  0
   39.8807   59.3755   14.6171 C   0  0  0  0  0  0  0  0  0  0  0  0
   41.3259   59.7469   14.8820 C   0  0  0  0  0  0  0  0  0  0  0  0
   42.0714   58.6193   15.4077 N   0  0  0  0  0  4  0  0  0  0  0  0
   38.9917   54.6519   15.3648 O   0  0  0  0  0  0  0  0  0  0  0  0
  2  1  1  1
  2  3  1  0
  2  5  1  0
  3  4  2  0
  3  8  1  0
  5  6  1  0
  5  7  1  6
  9  8  1  6
  9 10  1  0
  9 12  1  0
 10 11  2  0
 10 15  1  0
 12 13  1  0
 12 14  1  1
 15 16  1  0
 16 17  1  0
 16 19  1  6
 17 18  2  0
 17 20  1  0
 20 21  1  0
 20 26  1  0
 21 22  1  1
 21 24  1  0
 22 23  2  0
 22 27  1  0
 24 25  1  0
 25 26  1  0
 27 28  1  0
 28 29  1  0
 28 31  1  6
 29 30  2  0
 29 33  1  0
 31 32  1  0
 33 34  1  0
 34 35  1  0
 34 37  1  1
 35 36  2  0
 35 41  1  0
 37 38  1  0
 38 39  1  6
 38 40  1  0
 41 42  1  0
 42 43  1  0
 42 45  1  6
 43 44  2  0
 43 47  1  0
 45 46  1  0
 47 48  1  0
 48 49  1  0
 49 50  2  0
 49 51  1  0
 51 52  1  0
 52 53  1  0
 52 55  1  6
 53 54  2  0
 53 60  1  0
 55 56  1  0
 56 57  1  0
 57 58  1  0
 58 59  1  0
M  CHG  2   1   1  59   1
M  END
$$$$
