
     RDKit          3D

 60 60  0  0  0  0  0  0  0  0999 V2000
   24.3106   63.2590   35.6093 N   0  0  0  0  0  4  0  0  0  0  0  0
   25.7149   63.1297   35.9676 C   0  0  2  0  0  0  0  0  0  0  0  0
   26.5830   63.9476   35.1000 C   0  0  0  0  0  0  0  0  0  0  0  0
   26.1450   64.4194   34.0231 O   0  0  0  0  0  0  0  0  0  0  0  0
   26.0586   61.6549   35.9131 C   0  0  2  0  0  0  0  0  0  0  0  0
   25.5716   61.1798   34.6799 O   0  0  0  0  0  0  0  0  0  0  0  0
   25.3239   60.9325   37.0019 C   0  0  0  0  0  0  0  0  0  0  0  0
   27.9260   64.2311   35.4494 N   0  0  0  0  0  0  0  0  0  0  0  0
   28.8484   64.9471   34.5377 C   0  0  2  0  0  0  0  0  0  0  0  0
   29.7652   64.0052   33.8910 C   0  0  0  0  0  0  0  0  0  0  0  0
   30.1461   62.9272   34.4778 O   0  0  0  0  0  0  0  0  0  0  0  0
   29.4743   66.0376   35.3478 C   0  0  2  0  0  0  0  0  0  0  0  0
   30.3716   66.8377   34.6652 O   0  0  0  0  0  0  0  0  0  0  0  0
   30.0882   65.5581   36.6218 C   0  0  0  0  0  0  0  0  0  0  0  0
   30.2635   64.2537   32.5876 N   0  0  0  0  0  0  0  0  0  0  0  0
   31.3701   63.5726   32.0144 C   0  0  2  0  0  0  0  0  0  0  0  0
   32.6778   63.6287   32.6296 C   0  0  0  0  0  0  0  0  0  0  0  0
   32.9370   64.7620   33.2336 O   0  0  0  0  0  0  0  0  0  0  0  0
   31.4630   64.1593   30.5632 C   0  0  0  0  0  0  0  0  0  0  0  0
   33.7208   62.7066   32.7181 N   0  0  0  0  0  0  0  0  0  0  0  0
   34.2480   61.5413   32.1710 C   0  0  2  0  0  0  0  0  0  0  0  0
   34.0481   60.9545   30.9099 C   0  0  0  0  0  0  0  0  0  0  0  0
   34.1433   59.6390   30.9070 O   0  0  0  0  0  0  0  0  0  0  0  0
   33.9991   60.5595   33.3433 C   0  0  0  0  0  0  0  0  0  0  0  0
   34.4658   61.4284   34.4800 C   0  0  0  0  0  0  0  0  0  0  0  0
   34.6554   62.8524   33.8895 C   0  0  0  0  0  0  0  0  0  0  0  0
   33.7619   61.4276   29.6125 N   0  0  0  0  0  0  0  0  0  0  0  0
   33.5885   60.6202   28.4435 C   0  0  2  0  0  0  0  0  0  0  0  0
   34.7584   60.3320   27.6466 C   0  0  0  0  0  0  0  0  0  0  0  0
   35.7674   59.8725   28.3061 O   0  0  0  0  0  0  0  0  0  0  0  0
   32.5772   61.2552   27.4537 C   0  0  0  0  0  0  0  0  0  0  0  0
   31.3527   60.6473   27.4713 O   0  0  0  0  0  0  0  0  0  0  0  0
   34.9249   60.4815   26.2364 N   0  0  0  0  0  0  0  0  0  0  0  0
   35.6654   59.4830   25.4636 C   0  0  2  0  0  0  0  0  0  0  0  0
   35.7969   59.7803   24.0452 C   0  0  0  0  0  0  0  0  0  0  0  0
   34.8813   59.5216   23.2470 O   0  0  0  0  0  0  0  0  0  0  0  0
   35.2050   58.0936   25.8131 C   0  0  0  0  0  0  0  0  0  0  0  0
   35.9387   56.9522   25.2490 C   0  0  1  0  0  0  0  0  0  0  0  0
   36.7994   56.1729   26.2275 C   0  0  0  0  0  0  0  0  0  0  0  0
   35.1857   55.9835   24.4110 C   0  0  0  0  0  0  0  0  0  0  0  0
   36.9811   60.3722   23.5730 N   0  0  0  0  0  0  0  0  0  0  0  0
   37.3973   60.5656   22.2157 C   0  0  2  0  0  0  0  0  0  0  0  0
   37.4047   59.2898   21.4715 C   0  0  0  0  0  0  0  0  0  0  0  0
   37.4043   58.2153   22.1801 O   0  0  0  0  0  0  0  0  0  0  0  0
   38.8575   61.0474   22.2805 C   0  0  0  0  0  0  0  0  0  0  0  0
   39.3754   61.2744   21.0125 O   0  0  0  0  0  0  0  0  0  0  0  0
   37.4143   59.1073   20.0813 N   0  0  0  0  0  0  0  0  0  0  0  0
   36.9570   57.8729   19.4634 C   0  0  0  0  0  0  0  0  0  0  0  0
   36.2676   58.1513   18.1922 C   0  0  0  0  0  0  0  0  0  0  0  0
   35.8918   59.3688   17.9495 O   0  0  0  0  0  0  0  0  0  0  0  0
   36.0090   57.1537   17.2408 N   0  0  0  0  0  0  0  0  0  0  0  0
   37.1317   56.4821   16.5620 C   0  0  2  0  0  0  0  0  0  0  0  0
   36.5621   55.6809   15.4661 C   0  0  0  0  0  0  0  0  0  0  0  0
   35.5485   54.9490   15.7316 O   0  0  0  0  0  0  0  0  0  0  0  0
   37.8205   55.5988   17.5725 C   0  0  0  0  0  0  0  0  0  0  0  0
   38.9120   54.7511   17.0538 C   0  0  0  0  0  0  0  0  0  0  0  0
   40.2760   55.3466   17.1414 C   0  0  0  0  0  0  0  0  0  0  0  0
   41.0634   55.1439   15.8625 C   0  0  0  0  0  0  0  0  0  0  0  0
   42.3649   55.7795   15.9392 N   0  0  0  0  0  4  0  0  0  0  0  0
   37.0240   55.6493   14.1770 O   0  0  0  0  0  0  0  0  0  0  0  0
  2  1  1  6
  2  3  1  0
  2  5  1  0
  3  4  2  0
  3  8  1  0
  5  6  1  0
  5  7  1  1
  9  8  1  1
  9 10  1  0
  9 12  1  0
 10 11  2  0
 10 15  1  0
 12 13  1  0
 12 14  1  1
 15 16  1  0
 16 17  1  0
 16 19  1  6
 17 18  2  0
 17 20  1  0
 20 21  1  0
 20 26  1  0
 21 22  1  6
 21 24  1  0
 22 23  2  0
 22 27  1  0
 24 25  1  0
 25 26  1  0
 27 28  1  0
 28 29  1  0
 28 31  1  6
 29 30  2  0
 29 33  1  0
 31 32  1  0
 33 34  1  0
 34 35  1  0
 34 37  1  6
 35 36  2  0
 35 41  1  0
 37 38  1  0
 38 39  1  1
 38 40  1  0
 41 42  1  0
 42 43  1  0
 42 45  1  1
 43 44  2  0
 43 47  1  0
 45 46  1  0
 47 48  1  0
 48 49  1  0
 49 50  2  0
 49 51  1  0
 51 52  1  0
 52 53  1  0
 52 55  1  1
 53 54  2  0
 53 60  1  0
 55 56  1  0
 56 57  1  0
 57 58  1  0
 58 59  1  0
M  CHG  2   1   1  59   1
M  END
$$$$
