
     RDKit          3D

 60 60  0  0  0  0  0  0  0  0999 V2000
   25.9662   60.8846   35.2284 N   0  0  0  0  0  4  0  0  0  0  0  0
   26.3319   62.0827   34.4881 C   0  0  2  0  0  0  0  0  0  0  0  0
   27.4909   62.7695   35.0884 C   0  0  0  0  0  0  0  0  0  0  0  0
   28.2642   62.1563   35.8630 O   0  0  0  0  0  0  0  0  0  0  0  0
   25.1010   62.9638   34.4228 C   0  0  2  0  0  0  0  0  0  0  0  0
   24.3669   62.7068   35.5969 O   0  0  0  0  0  0  0  0  0  0  0  0
   24.2546   62.5503   33.2566 C   0  0  0  0  0  0  0  0  0  0  0  0
   27.7726   64.1298   34.8115 N   0  0  0  0  0  0  0  0  0  0  0  0
   28.9203   64.8417   35.4201 C   0  0  2  0  0  0  0  0  0  0  0  0
   30.1800   64.1842   35.0640 C   0  0  0  0  0  0  0  0  0  0  0  0
   30.2404   62.9188   34.8485 O   0  0  0  0  0  0  0  0  0  0  0  0
   28.6161   64.9544   36.8802 C   0  0  2  0  0  0  0  0  0  0  0  0
   29.3408   65.9151   37.5606 O   0  0  0  0  0  0  0  0  0  0  0  0
   28.6896   63.6524   37.6079 C   0  0  0  0  0  0  0  0  0  0  0  0
   31.3803   64.9282   34.9434 N   0  0  0  0  0  0  0  0  0  0  0  0
   32.6785   64.3524   34.9489 C   0  0  2  0  0  0  0  0  0  0  0  0
   33.2881   63.8808   33.7252 C   0  0  0  0  0  0  0  0  0  0  0  0
   34.5275   63.4796   33.8646 O   0  0  0  0  0  0  0  0  0  0  0  0
   32.5549   63.1540   35.9526 C   0  0  0  0  0  0  0  0  0  0  0  0
   32.8130   63.7568   32.4195 N   0  0  0  0  0  0  0  0  0  0  0  0
   32.8989   63.0043   31.2527 C   0  0  2  0  0  0  0  0  0  0  0  0
   33.3383   61.6853   31.0487 C   0  0  0  0  0  0  0  0  0  0  0  0
   33.2124   60.9063   32.1056 O   0  0  0  0  0  0  0  0  0  0  0  0
   33.6013   64.0280   30.3258 C   0  0  0  0  0  0  0  0  0  0  0  0
   32.7911   65.2491   30.6686 C   0  0  0  0  0  0  0  0  0  0  0  0
   31.9373   64.8703   31.9095 C   0  0  0  0  0  0  0  0  0  0  0  0
   33.8926   60.9633   29.9715 N   0  0  0  0  0  0  0  0  0  0  0  0
   33.6185   59.5964   29.6471 C   0  0  2  0  0  0  0  0  0  0  0  0
   34.2705   59.0380   28.4853 C   0  0  0  0  0  0  0  0  0  0  0  0
   33.5326   58.2611   27.7669 O   0  0  0  0  0  0  0  0  0  0  0  0
   32.1046   59.3565   29.4099 C   0  0  0  0  0  0  0  0  0  0  0  0
   31.7988   58.0461   29.1679 O   0  0  0  0  0  0  0  0  0  0  0  0
   35.6097   59.2493   28.0375 N   0  0  0  0  0  0  0  0  0  0  0  0
   35.8773   59.6760   26.6631 C   0  0  2  0  0  0  0  0  0  0  0  0
   35.4456   58.7400   25.6360 C   0  0  0  0  0  0  0  0  0  0  0  0
   35.5351   57.5131   25.8064 O   0  0  0  0  0  0  0  0  0  0  0  0
   37.2805   60.2045   26.5356 C   0  0  0  0  0  0  0  0  0  0  0  0
   37.8484   60.3602   25.1893 C   0  0  1  0  0  0  0  0  0  0  0  0
   39.2241   60.9995   25.1239 C   0  0  0  0  0  0  0  0  0  0  0  0
   37.8351   59.1811   24.2853 C   0  0  0  0  0  0  0  0  0  0  0  0
   34.9168   59.2355   24.4317 N   0  0  0  0  0  0  0  0  0  0  0  0
   34.0621   58.5675   23.4956 C   0  0  2  0  0  0  0  0  0  0  0  0
   34.5322   58.7616   22.1090 C   0  0  0  0  0  0  0  0  0  0  0  0
   34.2026   59.8701   21.5440 O   0  0  0  0  0  0  0  0  0  0  0  0
   32.6915   59.2599   23.5982 C   0  0  0  0  0  0  0  0  0  0  0  0
   32.1207   59.4467   22.3464 O   0  0  0  0  0  0  0  0  0  0  0  0
   35.2952   57.8798   21.3302 N   0  0  0  0  0  0  0  0  0  0  0  0
   35.6396   58.1737   19.9483 C   0  0  0  0  0  0  0  0  0  0  0  0
   36.3346   57.0316   19.3308 C   0  0  0  0  0  0  0  0  0  0  0  0
   36.4393   55.9331   20.0124 O   0  0  0  0  0  0  0  0  0  0  0  0
   36.8794   57.0894   18.0396 N   0  0  0  0  0  0  0  0  0  0  0  0
   37.3512   55.8538   17.3891 C   0  0  2  0  0  0  0  0  0  0  0  0
   38.6311   55.4907   18.0193 C   0  0  0  0  0  0  0  0  0  0  0  0
   39.2289   56.3871   18.7067 O   0  0  0  0  0  0  0  0  0  0  0  0
   37.5383   56.1472   15.9213 C   0  0  0  0  0  0  0  0  0  0  0  0
   38.7844   55.6403   15.3136 C   0  0  0  0  0  0  0  0  0  0  0  0
   38.7292   55.4196   13.8401 C   0  0  0  0  0  0  0  0  0  0  0  0
   40.0434   54.8939   13.2986 C   0  0  0  0  0  0  0  0  0  0  0  0
   40.0341   53.4464   13.2077 N   0  0  0  0  0  4  0  0  0  0  0  0
   39.2438   54.2685   17.9351 O   0  0  0  0  0  0  0  0  0  0  0  0
  2  1  1  1
  2  3  1  0
  2  5  1  0
  3  4  2  0
  3  8  1  0
  5  6  1  0
  5  7  1  6
  9  8  1  6
  9 10  1  0
  9 12  1  0
 10 11  2  0
 10 15  1  0
 12 13  1  0
 12 14  1  1
 15 16  1  0
 16 17  1  0
 16 19  1  1
 17 18  2  0
 17 20  1  0
 20 21  1  0
 20 26  1  0
 21 22  1  1
 21 24  1  0
 22 23  2  0
 22 27  1  0
 24 25  1  0
 25 26  1  0
 27 28  1  0
 28 29  1  0
 28 31  1  6
 29 30  2  0
 29 33  1  0
 31 32  1  0
 33 34  1  0
 34 35  1  0
 34 37  1  1
 35 36  2  0
 35 41  1  0
 37 38  1  0
 38 39  1  1
 38 40  1  0
 41 42  1  0
 42 43  1  0
 42 45  1  6
 43 44  2  0
 43 47  1  0
 45 46  1  0
 47 48  1  0
 48 49  1  0
 49 50  2  0
 49 51  1  0
 51 52  1  0
 52 53  1  0
 52 55  1  6
 53 54  2  0
 53 60  1  0
 55 56  1  0
 56 57  1  0
 57 58  1  0
 58 59  1  0
M  CHG  2   1   1  59   1
M  END
$$$$
