
     RDKit          3D

 60 60  0  0  0  0  0  0  0  0999 V2000
   25.6469   64.2345   37.3787 N   0  0  0  0  0  4  0  0  0  0  0  0
   26.2761   64.7747   36.1831 C   0  0  2  0  0  0  0  0  0  0  0  0
   26.3784   63.7673   35.1107 C   0  0  0  0  0  0  0  0  0  0  0  0
   26.1387   62.5586   35.3467 O   0  0  0  0  0  0  0  0  0  0  0  0
   27.6256   65.3266   36.5958 C   0  0  2  0  0  0  0  0  0  0  0  0
   28.3539   64.2414   37.1207 O   0  0  0  0  0  0  0  0  0  0  0  0
   27.4384   66.3255   37.6979 C   0  0  0  0  0  0  0  0  0  0  0  0
   26.7420   64.1244   33.7892 N   0  0  0  0  0  0  0  0  0  0  0  0
   26.9784   63.1146   32.7314 C   0  0  2  0  0  0  0  0  0  0  0  0
   28.2808   62.4706   32.9179 C   0  0  0  0  0  0  0  0  0  0  0  0
   29.2125   63.0252   33.6077 O   0  0  0  0  0  0  0  0  0  0  0  0
   26.7613   63.8156   31.4281 C   0  0  2  0  0  0  0  0  0  0  0  0
   27.8046   64.6214   31.0115 O   0  0  0  0  0  0  0  0  0  0  0  0
   25.4766   64.5743   31.3646 C   0  0  0  0  0  0  0  0  0  0  0  0
   28.5563   61.2057   32.3408 N   0  0  0  0  0  0  0  0  0  0  0  0
   29.8310   60.5801   32.3637 C   0  0  2  0  0  0  0  0  0  0  0  0
   30.8109   60.8508   31.3350 C   0  0  0  0  0  0  0  0  0  0  0  0
   30.4164   60.5400   30.1250 O   0  0  0  0  0  0  0  0  0  0  0  0
   29.4986   59.0476   32.3617 C   0  0  0  0  0  0  0  0  0  0  0  0
   32.0966   61.3906   31.3733 N   0  0  0  0  0  0  0  0  0  0  0  0
   33.3174   61.4495   30.7090 C   0  0  2  0  0  0  0  0  0  0  0  0
   33.6376   61.1917   29.3652 C   0  0  0  0  0  0  0  0  0  0  0  0
   33.4398   62.2163   28.5586 O   0  0  0  0  0  0  0  0  0  0  0  0
   34.2023   60.6596   31.7058 C   0  0  0  0  0  0  0  0  0  0  0  0
   33.7323   61.2917   32.9882 C   0  0  0  0  0  0  0  0  0  0  0  0
   32.4805   62.1360   32.6238 C   0  0  0  0  0  0  0  0  0  0  0  0
   34.1318   60.0869   28.6414 N   0  0  0  0  0  0  0  0  0  0  0  0
   34.4620   60.0751   27.2487 C   0  0  2  0  0  0  0  0  0  0  0  0
   34.8615   58.8161   26.6638 C   0  0  0  0  0  0  0  0  0  0  0  0
   34.6734   57.7829   27.4130 O   0  0  0  0  0  0  0  0  0  0  0  0
   35.6232   61.0517   26.9271 C   0  0  0  0  0  0  0  0  0  0  0  0
   35.8605   61.1831   25.5871 O   0  0  0  0  0  0  0  0  0  0  0  0
   35.4202   58.5810   25.3710 N   0  0  0  0  0  0  0  0  0  0  0  0
   35.2708   57.2782   24.7205 C   0  0  2  0  0  0  0  0  0  0  0  0
   35.9171   57.1643   23.4217 C   0  0  0  0  0  0  0  0  0  0  0  0
   36.1392   56.0549   22.9097 O   0  0  0  0  0  0  0  0  0  0  0  0
   33.8437   56.8072   24.7980 C   0  0  0  0  0  0  0  0  0  0  0  0
   33.4753   55.5751   24.0871 C   0  0  1  0  0  0  0  0  0  0  0  0
   33.4136   54.3176   24.9359 C   0  0  0  0  0  0  0  0  0  0  0  0
   32.2779   55.6075   23.2081 C   0  0  0  0  0  0  0  0  0  0  0  0
   36.2937   58.3318   22.7357 N   0  0  0  0  0  0  0  0  0  0  0  0
   35.8306   58.8035   21.4645 C   0  0  2  0  0  0  0  0  0  0  0  0
   36.9271   58.8402   20.4756 C   0  0  0  0  0  0  0  0  0  0  0  0
   36.6147   59.2344   19.2909 O   0  0  0  0  0  0  0  0  0  0  0  0
   35.3858   60.2603   21.6848 C   0  0  0  0  0  0  0  0  0  0  0  0
   36.4451   61.0598   22.0925 O   0  0  0  0  0  0  0  0  0  0  0  0
   38.2715   58.4940   20.6719 N   0  0  0  0  0  0  0  0  0  0  0  0
   39.2504   58.5679   19.5989 C   0  0  0  0  0  0  0  0  0  0  0  0
   38.6663   58.1054   18.3286 C   0  0  0  0  0  0  0  0  0  0  0  0
   37.6324   57.3236   18.3750 O   0  0  0  0  0  0  0  0  0  0  0  0
   39.1833   58.4815   17.0803 N   0  0  0  0  0  0  0  0  0  0  0  0
   38.7505   57.7689   15.8648 C   0  0  2  0  0  0  0  0  0  0  0  0
   39.4289   56.4623   15.8607 C   0  0  0  0  0  0  0  0  0  0  0  0
   40.3304   56.2596   16.7435 O   0  0  0  0  0  0  0  0  0  0  0  0
   39.1662   58.5947   14.6727 C   0  0  0  0  0  0  0  0  0  0  0  0
   38.6216   59.9655   14.6133 C   0  0  0  0  0  0  0  0  0  0  0  0
   39.0017   60.7486   13.4029 C   0  0  0  0  0  0  0  0  0  0  0  0
   40.2385   61.5913   13.6414 C   0  0  0  0  0  0  0  0  0  0  0  0
   41.1045   61.5965   12.4779 N   0  0  0  0  0  4  0  0  0  0  0  0
   39.1784   55.4358   14.9891 O   0  0  0  0  0  0  0  0  0  0  0  0
  2  1  1  1
  2  3  1  0
  2  5  1  0
  3  4  2  0
  3  8  1  0
  5  6  1  0
  5  7  1  1
  9  8  1  1
  9 10  1  0
  9 12  1  0
 10 11  2  0
 10 15  1  0
 12 13  1  0
 12 14  1  1
 15 16  1  0
 16 17  1  0
 16 19  1  6
 17 18  2  0
 17 20  1  0
 20 21  1  0
 20 26  1  0
 21 22  1  6
 21 24  1  0
 22 23  2  0
 22 27  1  0
 24 25  1  0
 25 26  1  0
 27 28  1  0
 28 29  1  0
 28 31  1  1
 29 30  2  0
 29 33  1  0
 31 32  1  0
 33 34  1  0
 34 35  1  0
 34 37  1  6
 35 36  2  0
 35 41  1  0
 37 38  1  0
 38 39  1  1
 38 40  1  0
 41 42  1  0
 42 43  1  0
 42 45  1  1
 43 44  2  0
 43 47  1  0
 45 46  1  0
 47 48  1  0
 48 49  1  0
 49 50  2  0
 49 51  1  0
 51 52  1  0
 52 53  1  0
 52 55  1  6
 53 54  2  0
 53 60  1  0
 55 56  1  0
 56 57  1  0
 57 58  1  0
 58 59  1  0
M  CHG  2   1   1  59   1
M  END
$$$$
