
     RDKit          3D

 60 60  0  0  0  0  0  0  0  0999 V2000
   25.6254   64.1518   37.3416 N   0  0  0  0  0  4  0  0  0  0  0  0
   26.8608   64.3466   36.5978 C   0  0  2  0  0  0  0  0  0  0  0  0
   26.8508   63.6229   35.3128 C   0  0  0  0  0  0  0  0  0  0  0  0
   26.2879   62.5059   35.2147 O   0  0  0  0  0  0  0  0  0  0  0  0
   28.0006   63.9184   37.4998 C   0  0  2  0  0  0  0  0  0  0  0  0
   28.0483   64.8554   38.5502 O   0  0  0  0  0  0  0  0  0  0  0  0
   29.2932   64.0122   36.7465 C   0  0  0  0  0  0  0  0  0  0  0  0
   27.4651   64.1587   34.1545 N   0  0  0  0  0  0  0  0  0  0  0  0
   27.3814   63.4944   32.8330 C   0  0  2  0  0  0  0  0  0  0  0  0
   28.4543   62.5081   32.6850 C   0  0  0  0  0  0  0  0  0  0  0  0
   29.4163   62.4287   33.5333 O   0  0  0  0  0  0  0  0  0  0  0  0
   27.3376   64.5903   31.8160 C   0  0  2  0  0  0  0  0  0  0  0  0
   28.4728   65.3764   31.7478 O   0  0  0  0  0  0  0  0  0  0  0  0
   26.1257   65.4562   31.9227 C   0  0  0  0  0  0  0  0  0  0  0  0
   28.4647   61.6025   31.5948 N   0  0  0  0  0  0  0  0  0  0  0  0
   29.5500   60.7403   31.2856 C   0  0  2  0  0  0  0  0  0  0  0  0
   30.7364   61.2438   30.6293 C   0  0  0  0  0  0  0  0  0  0  0  0
   30.5299   61.6796   29.4111 O   0  0  0  0  0  0  0  0  0  0  0  0
   28.9038   59.6279   30.3890 C   0  0  0  0  0  0  0  0  0  0  0  0
   32.0632   61.3690   31.0414 N   0  0  0  0  0  0  0  0  0  0  0  0
   33.3853   61.3690   30.6088 C   0  0  2  0  0  0  0  0  0  0  0  0
   33.9270   61.5962   29.3323 C   0  0  0  0  0  0  0  0  0  0  0  0
   33.2624   61.0126   28.3539 O   0  0  0  0  0  0  0  0  0  0  0  0
   33.8759   60.0464   31.2496 C   0  0  0  0  0  0  0  0  0  0  0  0
   33.2738   60.2117   32.6188 C   0  0  0  0  0  0  0  0  0  0  0  0
   32.3082   61.4248   32.5259 C   0  0  0  0  0  0  0  0  0  0  0  0
   35.0288   62.3105   28.8180 N   0  0  0  0  0  0  0  0  0  0  0  0
   35.4281   62.3639   27.4446 C   0  0  2  0  0  0  0  0  0  0  0  0
   36.4032   61.3996   26.9906 C   0  0  0  0  0  0  0  0  0  0  0  0
   37.0079   60.7528   27.9288 O   0  0  0  0  0  0  0  0  0  0  0  0
   36.0301   63.7450   27.0762 C   0  0  0  0  0  0  0  0  0  0  0  0
   35.7105   64.7275   27.9716 O   0  0  0  0  0  0  0  0  0  0  0  0
   36.7637   61.0736   25.6480 N   0  0  0  0  0  0  0  0  0  0  0  0
   36.2863   59.8366   25.0278 C   0  0  2  0  0  0  0  0  0  0  0  0
   36.7577   59.6107   23.6697 C   0  0  0  0  0  0  0  0  0  0  0  0
   35.9978   59.7403   22.6961 O   0  0  0  0  0  0  0  0  0  0  0  0
   34.8091   59.6640   25.2576 C   0  0  0  0  0  0  0  0  0  0  0  0
   34.3645   58.6118   26.1819 C   0  0  1  0  0  0  0  0  0  0  0  0
   32.8735   58.3249   26.1863 C   0  0  0  0  0  0  0  0  0  0  0  0
   35.0919   57.3163   26.1671 C   0  0  0  0  0  0  0  0  0  0  0  0
   38.0973   59.2412   23.4588 N   0  0  0  0  0  0  0  0  0  0  0  0
   39.0358   59.7963   22.5292 C   0  0  2  0  0  0  0  0  0  0  0  0
   38.8014   59.2858   21.1632 C   0  0  0  0  0  0  0  0  0  0  0  0
   39.7137   59.5439   20.2927 O   0  0  0  0  0  0  0  0  0  0  0  0
   40.4207   59.2823   22.9611 C   0  0  0  0  0  0  0  0  0  0  0  0
   40.7837   59.7814   24.2048 O   0  0  0  0  0  0  0  0  0  0  0  0
   37.7000   58.5533   20.6981 N   0  0  0  0  0  0  0  0  0  0  0  0
   37.6580   57.1012   20.7629 C   0  0  0  0  0  0  0  0  0  0  0  0
   38.3206   56.5083   19.5890 C   0  0  0  0  0  0  0  0  0  0  0  0
   39.4183   55.8421   19.7728 O   0  0  0  0  0  0  0  0  0  0  0  0
   37.8074   56.6350   18.2898 N   0  0  0  0  0  0  0  0  0  0  0  0
   37.4136   55.4297   17.5385 C   0  0  2  0  0  0  0  0  0  0  0  0
   37.6922   55.6918   16.1168 C   0  0  0  0  0  0  0  0  0  0  0  0
   38.1378   56.8479   15.8034 O   0  0  0  0  0  0  0  0  0  0  0  0
   35.9392   55.2053   17.7653 C   0  0  0  0  0  0  0  0  0  0  0  0
   35.0395   56.2664   17.2717 C   0  0  0  0  0  0  0  0  0  0  0  0
   33.5930   55.9070   17.2342 C   0  0  0  0  0  0  0  0  0  0  0  0
   32.7797   56.9207   16.4549 C   0  0  0  0  0  0  0  0  0  0  0  0
   32.8157   58.2245   17.0895 N   0  0  0  0  0  4  0  0  0  0  0  0
   37.5158   54.8008   15.0915 O   0  0  0  0  0  0  0  0  0  0  0  0
  2  1  1  1
  2  3  1  0
  2  5  1  0
  3  4  2  0
  3  8  1  0
  5  6  1  0
  5  7  1  6
  9  8  1  1
  9 10  1  0
  9 12  1  0
 10 11  2  0
 10 15  1  0
 12 13  1  0
 12 14  1  1
 15 16  1  0
 16 17  1  0
 16 19  1  6
 17 18  2  0
 17 20  1  0
 20 21  1  0
 20 26  1  0
 21 22  1  6
 21 24  1  0
 22 23  2  0
 22 27  1  0
 24 25  1  0
 25 26  1  0
 27 28  1  0
 28 29  1  0
 28 31  1  1
 29 30  2  0
 29 33  1  0
 31 32  1  0
 33 34  1  0
 34 35  1  0
 34 37  1  6
 35 36  2  0
 35 41  1  0
 37 38  1  0
 38 39  1  6
 38 40  1  0
 41 42  1  0
 42 43  1  0
 42 45  1  1
 43 44  2  0
 43 47  1  0
 45 46  1  0
 47 48  1  0
 48 49  1  0
 49 50  2  0
 49 51  1  0
 51 52  1  0
 52 53  1  0
 52 55  1  6
 53 54  2  0
 53 60  1  0
 55 56  1  0
 56 57  1  0
 57 58  1  0
 58 59  1  0
M  CHG  2   1   1  59   1
M  END
$$$$
