
     RDKit          3D

 60 60  0  0  0  0  0  0  0  0999 V2000
   24.5444   63.0193   36.1493 N   0  0  0  0  0  4  0  0  0  0  0  0
   25.3866   63.8505   35.3024 C   0  0  2  0  0  0  0  0  0  0  0  0
   26.2011   63.0445   34.3740 C   0  0  0  0  0  0  0  0  0  0  0  0
   26.3387   61.8104   34.5535 O   0  0  0  0  0  0  0  0  0  0  0  0
   26.2292   64.7157   36.2175 C   0  0  2  0  0  0  0  0  0  0  0  0
   26.8992   63.8354   37.0892 O   0  0  0  0  0  0  0  0  0  0  0  0
   25.3315   65.5832   37.0475 C   0  0  0  0  0  0  0  0  0  0  0  0
   26.8465   63.6269   33.2556 N   0  0  0  0  0  0  0  0  0  0  0  0
   27.6817   62.8366   32.3216 C   0  0  2  0  0  0  0  0  0  0  0  0
   28.8839   62.3443   32.9985 C   0  0  0  0  0  0  0  0  0  0  0  0
   29.1505   62.6656   34.2139 O   0  0  0  0  0  0  0  0  0  0  0  0
   27.8991   63.7015   31.1209 C   0  0  2  0  0  0  0  0  0  0  0  0
   28.6619   64.8334   31.3404 O   0  0  0  0  0  0  0  0  0  0  0  0
   26.6366   64.0691   30.4130 C   0  0  0  0  0  0  0  0  0  0  0  0
   29.7970   61.4906   32.3304 N   0  0  0  0  0  0  0  0  0  0  0  0
   30.9689   60.9543   32.9270 C   0  0  2  0  0  0  0  0  0  0  0  0
   32.0895   61.8054   33.2611 C   0  0  0  0  0  0  0  0  0  0  0  0
   32.6986   61.4762   34.3734 O   0  0  0  0  0  0  0  0  0  0  0  0
   31.4439   59.8611   31.9081 C   0  0  0  0  0  0  0  0  0  0  0  0
   32.6617   62.9073   32.6253 N   0  0  0  0  0  0  0  0  0  0  0  0
   33.7967   63.3675   31.9655 C   0  0  2  0  0  0  0  0  0  0  0  0
   34.8243   62.6609   31.3181 C   0  0  0  0  0  0  0  0  0  0  0  0
   35.9885   63.2807   31.3211 O   0  0  0  0  0  0  0  0  0  0  0  0
   34.3234   64.3792   33.0142 C   0  0  0  0  0  0  0  0  0  0  0  0
   33.0248   65.0577   33.3581 C   0  0  0  0  0  0  0  0  0  0  0  0
   31.9023   64.2048   32.7061 C   0  0  0  0  0  0  0  0  0  0  0  0
   34.9300   61.4234   30.6499 N   0  0  0  0  0  0  0  0  0  0  0  0
   36.1138   60.8952   30.0430 C   0  0  2  0  0  0  0  0  0  0  0  0
   36.0296   59.5892   29.4313 C   0  0  0  0  0  0  0  0  0  0  0  0
   35.1380   58.8065   29.9379 O   0  0  0  0  0  0  0  0  0  0  0  0
   37.2792   60.7856   31.0605 C   0  0  0  0  0  0  0  0  0  0  0  0
   37.0028   59.9514   32.1078 O   0  0  0  0  0  0  0  0  0  0  0  0
   36.7953   59.0734   28.3421 N   0  0  0  0  0  0  0  0  0  0  0  0
   36.2556   59.0829   26.9815 C   0  0  2  0  0  0  0  0  0  0  0  0
   37.1858   59.5322   25.9565 C   0  0  0  0  0  0  0  0  0  0  0  0
   38.1249   60.2966   26.2319 O   0  0  0  0  0  0  0  0  0  0  0  0
   34.8865   59.7071   26.9584 C   0  0  0  0  0  0  0  0  0  0  0  0
   34.0528   59.5178   25.7632 C   0  0  1  0  0  0  0  0  0  0  0  0
   32.7205   60.2462   25.7665 C   0  0  0  0  0  0  0  0  0  0  0  0
   34.6870   59.7050   24.4327 C   0  0  0  0  0  0  0  0  0  0  0  0
   37.0174   59.0903   24.6329 N   0  0  0  0  0  0  0  0  0  0  0  0
   38.0075   58.9692   23.6044 C   0  0  2  0  0  0  0  0  0  0  0  0
   37.4308   58.3951   22.3717 C   0  0  0  0  0  0  0  0  0  0  0  0
   36.4305   57.5999   22.5257 O   0  0  0  0  0  0  0  0  0  0  0  0
   39.0411   57.9535   24.1229 C   0  0  0  0  0  0  0  0  0  0  0  0
   39.9971   58.5639   24.9236 O   0  0  0  0  0  0  0  0  0  0  0  0
   37.8445   58.6108   21.0495 N   0  0  0  0  0  0  0  0  0  0  0  0
   38.1766   57.5115   20.1573 C   0  0  0  0  0  0  0  0  0  0  0  0
   37.1651   57.3793   19.0951 C   0  0  0  0  0  0  0  0  0  0  0  0
   36.2036   58.2486   19.0490 O   0  0  0  0  0  0  0  0  0  0  0  0
   37.2078   56.3559   18.1369 N   0  0  0  0  0  0  0  0  0  0  0  0
   36.1253   56.2388   17.1435 C   0  0  2  0  0  0  0  0  0  0  0  0
   36.3955   55.0322   16.3445 C   0  0  0  0  0  0  0  0  0  0  0  0
   35.5121   54.6750   15.4928 O   0  0  0  0  0  0  0  0  0  0  0  0
   36.1563   57.4747   16.2790 C   0  0  0  0  0  0  0  0  0  0  0  0
   37.4576   57.8018   15.6638 C   0  0  0  0  0  0  0  0  0  0  0  0
   37.3821   58.5515   14.3773 C   0  0  0  0  0  0  0  0  0  0  0  0
   38.7523   58.7599   13.7643 C   0  0  0  0  0  0  0  0  0  0  0  0
   38.7499   58.4420   12.3491 N   0  0  0  0  0  4  0  0  0  0  0  0
   37.5178   54.2519   16.4321 O   0  0  0  0  0  0  0  0  0  0  0  0
  2  1  1  1
  2  3  1  0
  2  5  1  0
  3  4  2  0
  3  8  1  0
  5  6  1  0
  5  7  1  1
  9  8  1  1
  9 10  1  0
  9 12  1  0
 10 11  2  0
 10 15  1  0
 12 13  1  0
 12 14  1  1
 15 16  1  0
 16 17  1  0
 16 19  1  6
 17 18  2  0
 17 20  1  0
 20 21  1  0
 20 26  1  0
 21 22  1  1
 21 24  1  0
 22 23  2  0
 22 27  1  0
 24 25  1  0
 25 26  1  0
 27 28  1  0
 28 29  1  0
 28 31  1  1
 29 30  2  0
 29 33  1  0
 31 32  1  0
 33 34  1  0
 34 35  1  0
 34 37  1  1
 35 36  2  0
 35 41  1  0
 37 38  1  0
 38 39  1  1
 38 40  1  0
 41 42  1  0
 42 43  1  0
 42 45  1  1
 43 44  2  0
 43 47  1  0
 45 46  1  0
 47 48  1  0
 48 49  1  0
 49 50  2  0
 49 51  1  0
 51 52  1  0
 52 53  1  0
 52 55  1  6
 53 54  2  0
 53 60  1  0
 55 56  1  0
 56 57  1  0
 57 58  1  0
 58 59  1  0
M  CHG  2   1   1  59   1
M  END
$$$$
