
     RDKit          3D

 60 60  0  0  0  0  0  0  0  0999 V2000
   25.6215   63.1103   35.4944 N   0  0  0  0  0  4  0  0  0  0  0  0
   26.5034   63.8562   34.6094 C   0  0  2  0  0  0  0  0  0  0  0  0
   26.9340   63.0497   33.4522 C   0  0  0  0  0  0  0  0  0  0  0  0
   27.6297   62.0187   33.6173 O   0  0  0  0  0  0  0  0  0  0  0  0
   27.6684   64.3466   35.4450 C   0  0  2  0  0  0  0  0  0  0  0  0
   28.5757   63.2726   35.5289 O   0  0  0  0  0  0  0  0  0  0  0  0
   27.1918   64.6501   36.8335 C   0  0  0  0  0  0  0  0  0  0  0  0
   26.5779   63.4029   32.1276 N   0  0  0  0  0  0  0  0  0  0  0  0
   27.1786   62.7467   30.9431 C   0  0  2  0  0  0  0  0  0  0  0  0
   28.5830   62.4160   31.1962 C   0  0  0  0  0  0  0  0  0  0  0  0
   29.1401   62.6685   32.3263 O   0  0  0  0  0  0  0  0  0  0  0  0
   26.9044   63.6483   29.7815 C   0  0  2  0  0  0  0  0  0  0  0  0
   27.4986   64.8947   29.8500 O   0  0  0  0  0  0  0  0  0  0  0  0
   25.4515   63.7947   29.4689 C   0  0  0  0  0  0  0  0  0  0  0  0
   29.3773   61.8011   30.1962 N   0  0  0  0  0  0  0  0  0  0  0  0
   30.7633   61.5257   30.3371 C   0  0  2  0  0  0  0  0  0  0  0  0
   31.5416   61.0363   29.2207 C   0  0  0  0  0  0  0  0  0  0  0  0
   31.2120   61.5622   28.0670 O   0  0  0  0  0  0  0  0  0  0  0  0
   30.8224   60.4755   31.5001 C   0  0  0  0  0  0  0  0  0  0  0  0
   32.5876   60.1180   29.1284 N   0  0  0  0  0  0  0  0  0  0  0  0
   33.9406   59.9719   28.8396 C   0  0  2  0  0  0  0  0  0  0  0  0
   34.9813   60.9160   28.8458 C   0  0  0  0  0  0  0  0  0  0  0  0
   34.5874   62.1530   28.6131 O   0  0  0  0  0  0  0  0  0  0  0  0
   33.8460   59.1817   27.5103 C   0  0  0  0  0  0  0  0  0  0  0  0
   32.7963   58.1791   27.9076 C   0  0  0  0  0  0  0  0  0  0  0  0
   32.2253   58.6634   29.2685 C   0  0  0  0  0  0  0  0  0  0  0  0
   36.3769   60.8757   29.0450 N   0  0  0  0  0  0  0  0  0  0  0  0
   37.2788   61.9769   28.8943 C   0  0  2  0  0  0  0  0  0  0  0  0
   37.5288   62.4621   27.5568 C   0  0  0  0  0  0  0  0  0  0  0  0
   36.7551   63.4196   27.1709 O   0  0  0  0  0  0  0  0  0  0  0  0
   38.6816   61.6512   29.4701 C   0  0  0  0  0  0  0  0  0  0  0  0
   39.2942   60.6060   28.8364 O   0  0  0  0  0  0  0  0  0  0  0  0
   38.5222   62.0235   26.6297 N   0  0  0  0  0  0  0  0  0  0  0  0
   38.4955   62.4779   25.2386 C   0  0  2  0  0  0  0  0  0  0  0  0
   38.5254   61.4143   24.2459 C   0  0  0  0  0  0  0  0  0  0  0  0
   37.5443   61.1856   23.5197 O   0  0  0  0  0  0  0  0  0  0  0  0
   39.4657   63.6096   25.0317 C   0  0  0  0  0  0  0  0  0  0  0  0
   39.3125   64.8194   25.8516 C   0  0  1  0  0  0  0  0  0  0  0  0
   40.4695   65.8014   25.8005 C   0  0  0  0  0  0  0  0  0  0  0  0
   38.0430   65.5831   25.7388 C   0  0  0  0  0  0  0  0  0  0  0  0
   39.6868   60.6348   24.1072 N   0  0  0  0  0  0  0  0  0  0  0  0
   39.9028   59.5081   23.2489 C   0  0  2  0  0  0  0  0  0  0  0  0
   38.6368   58.8035   22.9620 C   0  0  0  0  0  0  0  0  0  0  0  0
   38.6961   57.8514   22.0980 O   0  0  0  0  0  0  0  0  0  0  0  0
   40.7836   58.5276   24.0435 C   0  0  0  0  0  0  0  0  0  0  0  0
   41.9274   59.1482   24.5273 O   0  0  0  0  0  0  0  0  0  0  0  0
   37.3732   59.0490   23.5178 N   0  0  0  0  0  0  0  0  0  0  0  0
   36.2989   58.0713   23.4501 C   0  0  0  0  0  0  0  0  0  0  0  0
   35.6371   58.1151   22.1352 C   0  0  0  0  0  0  0  0  0  0  0  0
   35.2112   59.2597   21.6983 O   0  0  0  0  0  0  0  0  0  0  0  0
   35.4566   56.9713   21.3437 N   0  0  0  0  0  0  0  0  0  0  0  0
   34.4820   56.9935   20.2383 C   0  0  2  0  0  0  0  0  0  0  0  0
   33.1392   56.9458   20.8399 C   0  0  0  0  0  0  0  0  0  0  0  0
   33.0252   56.4076   21.9935 O   0  0  0  0  0  0  0  0  0  0  0  0
   34.7302   55.7783   19.3795 C   0  0  0  0  0  0  0  0  0  0  0  0
   35.9196   55.8343   18.5070 C   0  0  0  0  0  0  0  0  0  0  0  0
   36.4506   54.5114   18.0703 C   0  0  0  0  0  0  0  0  0  0  0  0
   37.6518   54.6586   17.1582 C   0  0  0  0  0  0  0  0  0  0  0  0
   37.2494   54.7449   15.7674 N   0  0  0  0  0  4  0  0  0  0  0  0
   31.9918   57.4308   20.2703 O   0  0  0  0  0  0  0  0  0  0  0  0
  2  1  1  1
  2  3  1  0
  2  5  1  0
  3  4  2  0
  3  8  1  0
  5  6  1  0
  5  7  1  1
  9  8  1  1
  9 10  1  0
  9 12  1  0
 10 11  2  0
 10 15  1  0
 12 13  1  0
 12 14  1  1
 15 16  1  0
 16 17  1  0
 16 19  1  1
 17 18  2  0
 17 20  1  0
 20 21  1  0
 20 26  1  0
 21 22  1  6
 21 24  1  0
 22 23  2  0
 22 27  1  0
 24 25  1  0
 25 26  1  0
 27 28  1  0
 28 29  1  0
 28 31  1  6
 29 30  2  0
 29 33  1  0
 31 32  1  0
 33 34  1  0
 34 35  1  0
 34 37  1  6
 35 36  2  0
 35 41  1  0
 37 38  1  0
 38 39  1  6
 38 40  1  0
 41 42  1  0
 42 43  1  0
 42 45  1  1
 43 44  2  0
 43 47  1  0
 45 46  1  0
 47 48  1  0
 48 49  1  0
 49 50  2  0
 49 51  1  0
 51 52  1  0
 52 53  1  0
 52 55  1  6
 53 54  2  0
 53 60  1  0
 55 56  1  0
 56 57  1  0
 57 58  1  0
 58 59  1  0
M  CHG  2   1   1  59   1
M  END
$$$$
