
     RDKit          3D

 60 60  0  0  0  0  0  0  0  0999 V2000
   24.9917   61.6423   33.7170 N   0  0  0  0  0  4  0  0  0  0  0  0
   26.0139   62.6364   34.0068 C   0  0  2  0  0  0  0  0  0  0  0  0
   27.0248   62.7162   32.9359 C   0  0  0  0  0  0  0  0  0  0  0  0
   27.6028   61.6806   32.5264 O   0  0  0  0  0  0  0  0  0  0  0  0
   26.6156   62.2832   35.3519 C   0  0  2  0  0  0  0  0  0  0  0  0
   27.9585   61.9367   35.1068 O   0  0  0  0  0  0  0  0  0  0  0  0
   25.9256   61.0716   35.9027 C   0  0  0  0  0  0  0  0  0  0  0  0
   27.3724   63.9503   32.3339 N   0  0  0  0  0  0  0  0  0  0  0  0
   28.6980   64.1857   31.7159 C   0  0  2  0  0  0  0  0  0  0  0  0
   29.2077   62.9539   31.1087 C   0  0  0  0  0  0  0  0  0  0  0  0
   29.1090   61.8197   31.7047 O   0  0  0  0  0  0  0  0  0  0  0  0
   29.5493   64.8084   32.7765 C   0  0  2  0  0  0  0  0  0  0  0  0
   30.6285   65.5376   32.3130 O   0  0  0  0  0  0  0  0  0  0  0  0
   29.9999   63.8438   33.8236 C   0  0  0  0  0  0  0  0  0  0  0  0
   29.8288   62.9736   29.8348 N   0  0  0  0  0  0  0  0  0  0  0  0
   30.5622   61.8869   29.2891 C   0  0  2  0  0  0  0  0  0  0  0  0
   31.9976   61.9639   29.1295 C   0  0  0  0  0  0  0  0  0  0  0  0
   32.3833   62.3764   27.9473 O   0  0  0  0  0  0  0  0  0  0  0  0
   29.9041   61.6555   27.8848 C   0  0  0  0  0  0  0  0  0  0  0  0
   33.0601   61.6952   29.9926 N   0  0  0  0  0  0  0  0  0  0  0  0
   34.4465   61.6736   30.1052 C   0  0  2  0  0  0  0  0  0  0  0  0
   35.4327   62.3335   29.3526 C   0  0  0  0  0  0  0  0  0  0  0  0
   35.3729   62.0921   28.0573 O   0  0  0  0  0  0  0  0  0  0  0  0
   34.6823   60.1458   30.2075 C   0  0  0  0  0  0  0  0  0  0  0  0
   33.5956   59.8061   31.1917 C   0  0  0  0  0  0  0  0  0  0  0  0
   32.7131   61.0777   31.3212 C   0  0  0  0  0  0  0  0  0  0  0  0
   36.4972   63.2134   29.6381 N   0  0  0  0  0  0  0  0  0  0  0  0
   37.7184   63.3217   28.8994 C   0  0  2  0  0  0  0  0  0  0  0  0
   38.1798   62.1515   28.1891 C   0  0  0  0  0  0  0  0  0  0  0  0
   39.3704   62.2443   27.7013 O   0  0  0  0  0  0  0  0  0  0  0  0
   38.9050   63.7297   29.8110 C   0  0  0  0  0  0  0  0  0  0  0  0
   40.0986   63.7883   29.1469 O   0  0  0  0  0  0  0  0  0  0  0  0
   37.4907   60.9193   27.9760 N   0  0  0  0  0  0  0  0  0  0  0  0
   38.0743   59.8756   27.1318 C   0  0  2  0  0  0  0  0  0  0  0  0
   37.2314   58.7061   26.9327 C   0  0  0  0  0  0  0  0  0  0  0  0
   36.0451   58.6992   27.2998 O   0  0  0  0  0  0  0  0  0  0  0  0
   39.5011   59.6086   27.5287 C   0  0  0  0  0  0  0  0  0  0  0  0
   40.2877   58.6696   26.7171 C   0  0  1  0  0  0  0  0  0  0  0  0
   40.2572   58.9081   25.2178 C   0  0  0  0  0  0  0  0  0  0  0  0
   41.6924   58.4038   27.1218 C   0  0  0  0  0  0  0  0  0  0  0  0
   37.7713   57.5664   26.3122 N   0  0  0  0  0  0  0  0  0  0  0  0
   38.2337   57.4245   24.9635 C   0  0  2  0  0  0  0  0  0  0  0  0
   37.1727   57.7685   23.9952 C   0  0  0  0  0  0  0  0  0  0  0  0
   35.9800   57.8719   24.4677 O   0  0  0  0  0  0  0  0  0  0  0  0
   38.5390   55.9284   24.7709 C   0  0  0  0  0  0  0  0  0  0  0  0
   39.1952   55.6932   23.5703 O   0  0  0  0  0  0  0  0  0  0  0  0
   37.3082   57.9947   22.6181 N   0  0  0  0  0  0  0  0  0  0  0  0
   36.2459   58.5966   21.8283 C   0  0  0  0  0  0  0  0  0  0  0  0
   36.0137   57.8262   20.5949 C   0  0  0  0  0  0  0  0  0  0  0  0
   36.3132   58.3770   19.4594 O   0  0  0  0  0  0  0  0  0  0  0  0
   35.4877   56.5260   20.6062 N   0  0  0  0  0  0  0  0  0  0  0  0
   35.4620   55.7368   19.3616 C   0  0  2  0  0  0  0  0  0  0  0  0
   36.8392   55.6958   18.8431 C   0  0  0  0  0  0  0  0  0  0  0  0
   37.6300   54.8175   19.3296 O   0  0  0  0  0  0  0  0  0  0  0  0
   34.5422   56.4350   18.3909 C   0  0  0  0  0  0  0  0  0  0  0  0
   34.4508   55.8396   17.0433 C   0  0  0  0  0  0  0  0  0  0  0  0
   33.5191   56.5290   16.1055 C   0  0  0  0  0  0  0  0  0  0  0  0
   33.7666   56.1255   14.6659 C   0  0  0  0  0  0  0  0  0  0  0  0
   34.1042   54.7186   14.5640 N   0  0  0  0  0  4  0  0  0  0  0  0
   37.3535   56.5205   17.8778 O   0  0  0  0  0  0  0  0  0  0  0  0
  2  1  1  6
  2  3  1  0
  2  5  1  0
  3  4  2  0
  3  8  1  0
  5  6  1  0
  5  7  1  6
  9  8  1  1
  9 10  1  0
  9 12  1  0
 10 11  2  0
 10 15  1  0
 12 13  1  0
 12 14  1  1
 15 16  1  0
 16 17  1  0
 16 19  1  6
 17 18  2  0
 17 20  1  0
 20 21  1  0
 20 26  1  0
 21 22  1  6
 21 24  1  0
 22 23  2  0
 22 27  1  0
 24 25  1  0
 25 26  1  0
 27 28  1  0
 28 29  1  0
 28 31  1  1
 29 30  2  0
 29 33  1  0
 31 32  1  0
 33 34  1  0
 34 35  1  0
 34 37  1  1
 35 36  2  0
 35 41  1  0
 37 38  1  0
 38 39  1  6
 38 40  1  0
 41 42  1  0
 42 43  1  0
 42 45  1  6
 43 44  2  0
 43 47  1  0
 45 46  1  0
 47 48  1  0
 48 49  1  0
 49 50  2  0
 49 51  1  0
 51 52  1  0
 52 53  1  0
 52 55  1  6
 53 54  2  0
 53 60  1  0
 55 56  1  0
 56 57  1  0
 57 58  1  0
 58 59  1  0
M  CHG  2   1   1  59   1
M  END
$$$$
