
     RDKit          3D

 60 60  0  0  0  0  0  0  0  0999 V2000
   25.9153   61.8910   36.6039 N   0  0  0  0  0  4  0  0  0  0  0  0
   26.1470   62.9584   35.6426 C   0  0  2  0  0  0  0  0  0  0  0  0
   27.0209   62.5244   34.5366 C   0  0  0  0  0  0  0  0  0  0  0  0
   28.1287   61.9851   34.7737 O   0  0  0  0  0  0  0  0  0  0  0  0
   26.7153   64.1365   36.4075 C   0  0  2  0  0  0  0  0  0  0  0  0
   26.8666   65.1797   35.4734 O   0  0  0  0  0  0  0  0  0  0  0  0
   28.0785   63.7844   36.9222 C   0  0  0  0  0  0  0  0  0  0  0  0
   26.6435   62.6941   33.1820 N   0  0  0  0  0  0  0  0  0  0  0  0
   27.5903   62.4825   32.0625 C   0  0  2  0  0  0  0  0  0  0  0  0
   28.8181   61.8434   32.5420 C   0  0  0  0  0  0  0  0  0  0  0  0
   29.1450   61.8627   33.7846 O   0  0  0  0  0  0  0  0  0  0  0  0
   27.7474   63.8097   31.3910 C   0  0  2  0  0  0  0  0  0  0  0  0
   29.0399   64.2984   31.3470 O   0  0  0  0  0  0  0  0  0  0  0  0
   26.8251   64.8590   31.9186 C   0  0  0  0  0  0  0  0  0  0  0  0
   29.6899   61.1775   31.6446 N   0  0  0  0  0  0  0  0  0  0  0  0
   30.8886   60.5239   32.0358 C   0  0  2  0  0  0  0  0  0  0  0  0
   32.1761   61.1538   31.8434 C   0  0  0  0  0  0  0  0  0  0  0  0
   33.1915   60.3289   31.9137 O   0  0  0  0  0  0  0  0  0  0  0  0
   30.8574   59.1725   31.2410 C   0  0  0  0  0  0  0  0  0  0  0  0
   32.5542   62.4715   31.5851 N   0  0  0  0  0  0  0  0  0  0  0  0
   33.6357   63.3051   31.3193 C   0  0  2  0  0  0  0  0  0  0  0  0
   34.9145   63.0078   30.8185 C   0  0  0  0  0  0  0  0  0  0  0  0
   35.7142   64.0529   30.7296 O   0  0  0  0  0  0  0  0  0  0  0  0
   33.6742   64.1208   32.6359 C   0  0  0  0  0  0  0  0  0  0  0  0
   32.2036   64.4080   32.7769 C   0  0  0  0  0  0  0  0  0  0  0  0
   31.4844   63.5219   31.7233 C   0  0  0  0  0  0  0  0  0  0  0  0
   35.5782   61.8444   30.3772 N   0  0  0  0  0  0  0  0  0  0  0  0
   36.9256   61.7764   29.8991 C   0  0  2  0  0  0  0  0  0  0  0  0
   37.2375   60.7708   28.9100 C   0  0  0  0  0  0  0  0  0  0  0  0
   36.2518   60.4281   28.1516 O   0  0  0  0  0  0  0  0  0  0  0  0
   37.9311   61.5271   31.0535 C   0  0  0  0  0  0  0  0  0  0  0  0
   37.5453   60.5214   31.8955 O   0  0  0  0  0  0  0  0  0  0  0  0
   38.4899   60.1294   28.6676 N   0  0  0  0  0  0  0  0  0  0  0  0
   38.8140   59.6055   27.3398 C   0  0  2  0  0  0  0  0  0  0  0  0
   38.1224   60.2580   26.2382 C   0  0  0  0  0  0  0  0  0  0  0  0
   37.4324   61.2736   26.4243 O   0  0  0  0  0  0  0  0  0  0  0  0
   38.7907   58.1008   27.3432 C   0  0  0  0  0  0  0  0  0  0  0  0
   39.3726   57.3960   28.4937 C   0  0  1  0  0  0  0  0  0  0  0  0
   40.5989   56.5509   28.1978 C   0  0  0  0  0  0  0  0  0  0  0  0
   39.6267   58.1743   29.7337 C   0  0  0  0  0  0  0  0  0  0  0  0
   38.2405   59.7287   24.9414 N   0  0  0  0  0  0  0  0  0  0  0  0
   37.5891   60.1640   23.7418 C   0  0  2  0  0  0  0  0  0  0  0  0
   37.8607   59.2415   22.6207 C   0  0  0  0  0  0  0  0  0  0  0  0
   38.8720   58.4573   22.7586 O   0  0  0  0  0  0  0  0  0  0  0  0
   38.2326   61.5118   23.3704 C   0  0  0  0  0  0  0  0  0  0  0  0
   39.5351   61.6014   23.8428 O   0  0  0  0  0  0  0  0  0  0  0  0
   37.1487   59.1182   21.4192 N   0  0  0  0  0  0  0  0  0  0  0  0
   37.7099   58.4487   20.2566 C   0  0  0  0  0  0  0  0  0  0  0  0
   36.6849   57.6386   19.5771 C   0  0  0  0  0  0  0  0  0  0  0  0
   35.9312   56.8680   20.2985 O   0  0  0  0  0  0  0  0  0  0  0  0
   36.4946   57.6745   18.1879 N   0  0  0  0  0  0  0  0  0  0  0  0
   35.4776   56.8072   17.5665 C   0  0  2  0  0  0  0  0  0  0  0  0
   35.9665   55.4221   17.6656 C   0  0  0  0  0  0  0  0  0  0  0  0
   35.0997   54.4836   17.6314 O   0  0  0  0  0  0  0  0  0  0  0  0
   35.3334   57.2250   16.1242 C   0  0  0  0  0  0  0  0  0  0  0  0
   34.4629   58.3902   15.8718 C   0  0  0  0  0  0  0  0  0  0  0  0
   34.3813   58.8263   14.4484 C   0  0  0  0  0  0  0  0  0  0  0  0
   33.6703   60.1569   14.3057 C   0  0  0  0  0  0  0  0  0  0  0  0
   34.5215   61.1431   13.6680 N   0  0  0  0  0  4  0  0  0  0  0  0
   37.2775   55.0456   17.7916 O   0  0  0  0  0  0  0  0  0  0  0  0
  2  1  1  1
  2  3  1  0
  2  5  1  0
  3  4  2  0
  3  8  1  0
  5  6  1  0
  5  7  1  6
  9  8  1  1
  9 10  1  0
  9 12  1  0
 10 11  2  0
 10 15  1  0
 12 13  1  0
 12 14  1  1
 15 16  1  0
 16 17  1  0
 16 19  1  6
 17 18  2  0
 17 20  1  0
 20 21  1  0
 20 26  1  0
 21 22  1  1
 21 24  1  0
 22 23  2  0
 22 27  1  0
 24 25  1  0
 25 26  1  0
 27 28  1  0
 28 29  1  0
 28 31  1  1
 29 30  2  0
 29 33  1  0
 31 32  1  0
 33 34  1  0
 34 35  1  0
 34 37  1  1
 35 36  2  0
 35 41  1  0
 37 38  1  0
 38 39  1  6
 38 40  1  0
 41 42  1  0
 42 43  1  0
 42 45  1  6
 43 44  2  0
 43 47  1  0
 45 46  1  0
 47 48  1  0
 48 49  1  0
 49 50  2  0
 49 51  1  0
 51 52  1  0
 52 53  1  0
 52 55  1  6
 53 54  2  0
 53 60  1  0
 55 56  1  0
 56 57  1  0
 57 58  1  0
 58 59  1  0
M  CHG  2   1   1  59   1
M  END
$$$$
