
     RDKit          3D

 60 60  0  0  0  0  0  0  0  0999 V2000
   28.0611   63.5575   38.4751 N   0  0  0  0  0  4  0  0  0  0  0  0
   27.7372   64.5453   37.4570 C   0  0  2  0  0  0  0  0  0  0  0  0
   27.2678   63.9164   36.2082 C   0  0  0  0  0  0  0  0  0  0  0  0
   26.0857   63.5088   36.1050 O   0  0  0  0  0  0  0  0  0  0  0  0
   28.9712   65.4003   37.2517 C   0  0  2  0  0  0  0  0  0  0  0  0
   28.7620   66.1180   36.0581 O   0  0  0  0  0  0  0  0  0  0  0  0
   30.1624   64.5133   37.0472 C   0  0  0  0  0  0  0  0  0  0  0  0
   28.1234   63.7559   35.0909 N   0  0  0  0  0  0  0  0  0  0  0  0
   27.6786   63.1003   33.8391 C   0  0  2  0  0  0  0  0  0  0  0  0
   28.7513   63.1166   32.8416 C   0  0  0  0  0  0  0  0  0  0  0  0
   29.8649   63.7190   33.0616 O   0  0  0  0  0  0  0  0  0  0  0  0
   26.3966   63.7658   33.4511 C   0  0  2  0  0  0  0  0  0  0  0  0
   26.5131   65.0871   33.0614 O   0  0  0  0  0  0  0  0  0  0  0  0
   25.3196   63.6317   34.4769 C   0  0  0  0  0  0  0  0  0  0  0  0
   28.5946   62.4626   31.5940 N   0  0  0  0  0  0  0  0  0  0  0  0
   29.5997   62.4061   30.5923 C   0  0  2  0  0  0  0  0  0  0  0  0
   30.9139   61.8788   30.8862 C   0  0  0  0  0  0  0  0  0  0  0  0
   31.7346   62.7517   31.4163 O   0  0  0  0  0  0  0  0  0  0  0  0
   29.7411   63.8935   30.1162 C   0  0  0  0  0  0  0  0  0  0  0  0
   31.4822   60.6148   30.7270 N   0  0  0  0  0  0  0  0  0  0  0  0
   32.6268   59.9330   30.3269 C   0  0  2  0  0  0  0  0  0  0  0  0
   33.9581   60.3701   30.2206 C   0  0  0  0  0  0  0  0  0  0  0  0
   34.8138   59.6692   30.9391 O   0  0  0  0  0  0  0  0  0  0  0  0
   32.1014   59.2671   29.0303 C   0  0  0  0  0  0  0  0  0  0  0  0
   30.7739   58.7752   29.5407 C   0  0  0  0  0  0  0  0  0  0  0  0
   30.5724   59.4330   30.9333 C   0  0  0  0  0  0  0  0  0  0  0  0
   34.6295   61.3937   29.5204 N   0  0  0  0  0  0  0  0  0  0  0  0
   34.2934   61.8793   28.2166 C   0  0  2  0  0  0  0  0  0  0  0  0
   35.3151   61.8278   27.1967 C   0  0  0  0  0  0  0  0  0  0  0  0
   35.4734   62.9197   26.5281 O   0  0  0  0  0  0  0  0  0  0  0  0
   33.8428   63.3629   28.2565 C   0  0  0  0  0  0  0  0  0  0  0  0
   32.5249   63.5339   27.9355 O   0  0  0  0  0  0  0  0  0  0  0  0
   36.1657   60.7336   26.8535 N   0  0  0  0  0  0  0  0  0  0  0  0
   35.8078   59.8252   25.7629 C   0  0  2  0  0  0  0  0  0  0  0  0
   36.3692   60.1736   24.4663 C   0  0  0  0  0  0  0  0  0  0  0  0
   35.8427   61.0411   23.7504 O   0  0  0  0  0  0  0  0  0  0  0  0
   34.3349   59.5181   25.7903 C   0  0  0  0  0  0  0  0  0  0  0  0
   33.9132   58.1480   26.1132 C   0  0  1  0  0  0  0  0  0  0  0  0
   33.4048   57.3220   24.9450 C   0  0  0  0  0  0  0  0  0  0  0  0
   34.8346   57.3053   26.9185 C   0  0  0  0  0  0  0  0  0  0  0  0
   37.5286   59.5166   24.0194 N   0  0  0  0  0  0  0  0  0  0  0  0
   38.1794   59.6300   22.7480 C   0  0  2  0  0  0  0  0  0  0  0  0
   38.3992   58.3023   22.1393 C   0  0  0  0  0  0  0  0  0  0  0  0
   38.1917   57.2843   22.8991 O   0  0  0  0  0  0  0  0  0  0  0  0
   39.5715   60.2218   23.0312 C   0  0  0  0  0  0  0  0  0  0  0  0
   40.3049   60.3794   21.8628 O   0  0  0  0  0  0  0  0  0  0  0  0
   38.8102   58.0161   20.8297 N   0  0  0  0  0  0  0  0  0  0  0  0
   38.9155   56.6522   20.3362 C   0  0  0  0  0  0  0  0  0  0  0  0
   38.1203   56.4799   19.1088 C   0  0  0  0  0  0  0  0  0  0  0  0
   36.8444   56.7063   19.1650 O   0  0  0  0  0  0  0  0  0  0  0  0
   38.6915   56.0862   17.8897 N   0  0  0  0  0  0  0  0  0  0  0  0
   37.8330   55.9007   16.7061 C   0  0  2  0  0  0  0  0  0  0  0  0
   37.0640   54.6629   16.9151 C   0  0  0  0  0  0  0  0  0  0  0  0
   37.5067   53.8279   17.7754 O   0  0  0  0  0  0  0  0  0  0  0  0
   38.7301   55.7795   15.4994 C   0  0  0  0  0  0  0  0  0  0  0  0
   39.6709   56.8952   15.2776 C   0  0  0  0  0  0  0  0  0  0  0  0
   39.2856   57.8463   14.1960 C   0  0  0  0  0  0  0  0  0  0  0  0
   40.2662   57.8148   13.0410 C   0  0  0  0  0  0  0  0  0  0  0  0
   40.8525   59.1216   12.8123 N   0  0  0  0  0  4  0  0  0  0  0  0
   35.9069   54.3229   16.2656 O   0  0  0  0  0  0  0  0  0  0  0  0
  2  1  1  1
  2  3  1  0
  2  5  1  0
  3  4  2  0
  3  8  1  0
  5  6  1  0
  5  7  1  6
  9  8  1  1
  9 10  1  0
  9 12  1  0
 10 11  2  0
 10 15  1  0
 12 13  1  0
 12 14  1  1
 15 16  1  0
 16 17  1  0
 16 19  1  1
 17 18  2  0
 17 20  1  0
 20 21  1  0
 20 26  1  0
 21 22  1  6
 21 24  1  0
 22 23  2  0
 22 27  1  0
 24 25  1  0
 25 26  1  0
 27 28  1  0
 28 29  1  0
 28 31  1  1
 29 30  2  0
 29 33  1  0
 31 32  1  0
 33 34  1  0
 34 35  1  0
 34 37  1  6
 35 36  2  0
 35 41  1  0
 37 38  1  0
 38 39  1  6
 38 40  1  0
 41 42  1  0
 42 43  1  0
 42 45  1  1
 43 44  2  0
 43 47  1  0
 45 46  1  0
 47 48  1  0
 48 49  1  0
 49 50  2  0
 49 51  1  0
 51 52  1  0
 52 53  1  0
 52 55  1  6
 53 54  2  0
 53 60  1  0
 55 56  1  0
 56 57  1  0
 57 58  1  0
 58 59  1  0
M  CHG  2   1   1  59   1
M  END
$$$$
