
     RDKit          3D

 60 60  0  0  0  0  0  0  0  0999 V2000
   25.4322   65.4215   37.9250 N   0  0  0  0  0  4  0  0  0  0  0  0
   26.7756   65.2528   37.3922 C   0  0  2  0  0  0  0  0  0  0  0  0
   26.7603   64.8884   35.9631 C   0  0  0  0  0  0  0  0  0  0  0  0
   25.7372   64.3781   35.4464 O   0  0  0  0  0  0  0  0  0  0  0  0
   27.4730   64.2174   38.2510 C   0  0  2  0  0  0  0  0  0  0  0  0
   27.4920   64.7362   39.5602 O   0  0  0  0  0  0  0  0  0  0  0  0
   28.8945   64.0713   37.7981 C   0  0  0  0  0  0  0  0  0  0  0  0
   27.8857   65.1031   35.1303 N   0  0  0  0  0  0  0  0  0  0  0  0
   27.8687   64.8001   33.6803 C   0  0  2  0  0  0  0  0  0  0  0  0
   27.8822   63.3522   33.4581 C   0  0  0  0  0  0  0  0  0  0  0  0
   27.0204   62.5784   34.0147 O   0  0  0  0  0  0  0  0  0  0  0  0
   28.9946   65.5781   33.0772 C   0  0  2  0  0  0  0  0  0  0  0  0
   29.0648   65.5394   31.6970 O   0  0  0  0  0  0  0  0  0  0  0  0
   30.3286   65.2502   33.6630 C   0  0  0  0  0  0  0  0  0  0  0  0
   28.8522   62.7546   32.6149 N   0  0  0  0  0  0  0  0  0  0  0  0
   28.5441   62.0475   31.4224 C   0  0  2  0  0  0  0  0  0  0  0  0
   29.5913   61.4739   30.6063 C   0  0  0  0  0  0  0  0  0  0  0  0
   29.4215   61.6466   29.3187 O   0  0  0  0  0  0  0  0  0  0  0  0
   27.7401   63.0860   30.5657 C   0  0  0  0  0  0  0  0  0  0  0  0
   30.7593   60.7784   30.9192 N   0  0  0  0  0  0  0  0  0  0  0  0
   31.9849   60.3472   30.4222 C   0  0  2  0  0  0  0  0  0  0  0  0
   32.7435   60.8143   29.3356 C   0  0  0  0  0  0  0  0  0  0  0  0
   32.2688   60.4619   28.1566 O   0  0  0  0  0  0  0  0  0  0  0  0
   31.7304   58.8197   30.3725 C   0  0  0  0  0  0  0  0  0  0  0  0
   31.0827   58.6459   31.7198 C   0  0  0  0  0  0  0  0  0  0  0  0
   30.7926   60.0765   32.2508 C   0  0  0  0  0  0  0  0  0  0  0  0
   33.9134   61.5866   29.1815 N   0  0  0  0  0  0  0  0  0  0  0  0
   34.7182   61.6654   28.0005 C   0  0  2  0  0  0  0  0  0  0  0  0
   34.8996   60.4573   27.2295 C   0  0  0  0  0  0  0  0  0  0  0  0
   35.6626   59.5718   27.7753 O   0  0  0  0  0  0  0  0  0  0  0  0
   36.1547   62.1564   28.3180 C   0  0  0  0  0  0  0  0  0  0  0  0
   36.9162   62.3521   27.1994 O   0  0  0  0  0  0  0  0  0  0  0  0
   34.3346   60.1266   25.9606 N   0  0  0  0  0  0  0  0  0  0  0  0
   34.7431   58.9095   25.2574 C   0  0  2  0  0  0  0  0  0  0  0  0
   35.9796   59.0259   24.4991 C   0  0  0  0  0  0  0  0  0  0  0  0
   36.8615   59.8358   24.8285 O   0  0  0  0  0  0  0  0  0  0  0  0
   33.5739   58.2965   24.5352 C   0  0  0  0  0  0  0  0  0  0  0  0
   33.0312   58.9979   23.3635 C   0  0  1  0  0  0  0  0  0  0  0  0
   31.9982   58.2317   22.5564 C   0  0  0  0  0  0  0  0  0  0  0  0
   32.5461   60.3903   23.5460 C   0  0  0  0  0  0  0  0  0  0  0  0
   36.1778   58.2047   23.3757 N   0  0  0  0  0  0  0  0  0  0  0  0
   37.3450   58.0928   22.5522 C   0  0  2  0  0  0  0  0  0  0  0  0
   37.1627   57.0706   21.5019 C   0  0  0  0  0  0  0  0  0  0  0  0
   36.3744   56.0937   21.7864 O   0  0  0  0  0  0  0  0  0  0  0  0
   38.4702   57.5855   23.4716 C   0  0  0  0  0  0  0  0  0  0  0  0
   38.0460   56.5207   24.2552 O   0  0  0  0  0  0  0  0  0  0  0  0
   37.7485   57.0346   20.2285 N   0  0  0  0  0  0  0  0  0  0  0  0
   37.3169   56.0922   19.2086 C   0  0  0  0  0  0  0  0  0  0  0  0
   38.1669   56.1962   18.0105 C   0  0  0  0  0  0  0  0  0  0  0  0
   39.4421   55.9984   18.1414 O   0  0  0  0  0  0  0  0  0  0  0  0
   37.6483   56.4957   16.7422 N   0  0  0  0  0  0  0  0  0  0  0  0
   38.4818   56.2894   15.5441 C   0  0  2  0  0  0  0  0  0  0  0  0
   38.8105   54.8557   15.4834 C   0  0  0  0  0  0  0  0  0  0  0  0
   38.7935   54.1966   16.5783 O   0  0  0  0  0  0  0  0  0  0  0  0
   39.7302   57.1215   15.7012 C   0  0  0  0  0  0  0  0  0  0  0  0
   39.5218   58.5657   15.9241 C   0  0  0  0  0  0  0  0  0  0  0  0
   40.7661   59.3684   16.0979 C   0  0  0  0  0  0  0  0  0  0  0  0
   40.4633   60.8321   16.3474 C   0  0  0  0  0  0  0  0  0  0  0  0
   41.6783   61.5885   16.5827 N   0  0  0  0  0  4  0  0  0  0  0  0
   39.1351   54.1586   14.3498 O   0  0  0  0  0  0  0  0  0  0  0  0
  2  1  1  1
  2  3  1  0
  2  5  1  0
  3  4  2  0
  3  8  1  0
  5  6  1  0
  5  7  1  6
  9  8  1  1
  9 10  1  0
  9 12  1  0
 10 11  2  0
 10 15  1  0
 12 13  1  0
 12 14  1  1
 15 16  1  0
 16 17  1  0
 16 19  1  6
 17 18  2  0
 17 20  1  0
 20 21  1  0
 20 26  1  0
 21 22  1  6
 21 24  1  0
 22 23  2  0
 22 27  1  0
 24 25  1  0
 25 26  1  0
 27 28  1  0
 28 29  1  0
 28 31  1  1
 29 30  2  0
 29 33  1  0
 31 32  1  0
 33 34  1  0
 34 35  1  0
 34 37  1  6
 35 36  2  0
 35 41  1  0
 37 38  1  0
 38 39  1  1
 38 40  1  0
 41 42  1  0
 42 43  1  0
 42 45  1  1
 43 44  2  0
 43 47  1  0
 45 46  1  0
 47 48  1  0
 48 49  1  0
 49 50  2  0
 49 51  1  0
 51 52  1  0
 52 53  1  0
 52 55  1  1
 53 54  2  0
 53 60  1  0
 55 56  1  0
 56 57  1  0
 57 58  1  0
 58 59  1  0
M  CHG  2   1   1  59   1
M  END
$$$$
