
     RDKit          3D

 60 60  0  0  0  0  0  0  0  0999 V2000
   25.2970   62.3460   36.0377 N   0  0  0  0  0  4  0  0  0  0  0  0
   26.2186   63.0623   35.1689 C   0  0  2  0  0  0  0  0  0  0  0  0
   26.6565   62.2357   34.0285 C   0  0  0  0  0  0  0  0  0  0  0  0
   26.6466   60.9837   34.1078 O   0  0  0  0  0  0  0  0  0  0  0  0
   27.3753   63.5299   36.0288 C   0  0  2  0  0  0  0  0  0  0  0  0
   28.1796   64.3406   35.2046 O   0  0  0  0  0  0  0  0  0  0  0  0
   28.1962   62.3464   36.4445 C   0  0  0  0  0  0  0  0  0  0  0  0
   27.0947   62.8188   32.8143 N   0  0  0  0  0  0  0  0  0  0  0  0
   27.4167   62.0089   31.6165 C   0  0  2  0  0  0  0  0  0  0  0  0
   28.5963   61.1757   31.8618 C   0  0  0  0  0  0  0  0  0  0  0  0
   28.5610   60.1839   32.6782 O   0  0  0  0  0  0  0  0  0  0  0  0
   27.5045   62.9694   30.4733 C   0  0  2  0  0  0  0  0  0  0  0  0
   27.9571   62.4298   29.2837 O   0  0  0  0  0  0  0  0  0  0  0  0
   28.2720   64.2099   30.7930 C   0  0  0  0  0  0  0  0  0  0  0  0
   29.8223   61.4376   31.2006 N   0  0  0  0  0  0  0  0  0  0  0  0
   30.9887   60.6394   31.3392 C   0  0  2  0  0  0  0  0  0  0  0  0
   32.2646   61.0922   30.8306 C   0  0  0  0  0  0  0  0  0  0  0  0
   33.2429   60.2378   31.0021 O   0  0  0  0  0  0  0  0  0  0  0  0
   30.6081   59.2908   30.6355 C   0  0  0  0  0  0  0  0  0  0  0  0
   32.6616   62.2604   30.1796 N   0  0  0  0  0  0  0  0  0  0  0  0
   33.6944   63.1822   30.0428 C   0  0  2  0  0  0  0  0  0  0  0  0
   35.0652   63.0647   30.3285 C   0  0  0  0  0  0  0  0  0  0  0  0
   35.5142   63.9573   31.1895 O   0  0  0  0  0  0  0  0  0  0  0  0
   33.0394   64.4179   30.7095 C   0  0  0  0  0  0  0  0  0  0  0  0
   31.6809   64.3384   30.0670 C   0  0  0  0  0  0  0  0  0  0  0  0
   31.6180   62.9614   29.3512 C   0  0  0  0  0  0  0  0  0  0  0  0
   36.1101   62.2107   29.9189 N   0  0  0  0  0  0  0  0  0  0  0  0
   37.4550   62.2347   30.4081 C   0  0  2  0  0  0  0  0  0  0  0  0
   38.3612   61.2155   29.9320 C   0  0  0  0  0  0  0  0  0  0  0  0
   39.4378   61.0748   30.6287 O   0  0  0  0  0  0  0  0  0  0  0  0
   37.5042   62.1228   31.9543 C   0  0  0  0  0  0  0  0  0  0  0  0
   38.7728   62.1939   32.4590 O   0  0  0  0  0  0  0  0  0  0  0  0
   38.2047   60.3506   28.8068 N   0  0  0  0  0  0  0  0  0  0  0  0
   37.2486   60.6731   27.7464 C   0  0  2  0  0  0  0  0  0  0  0  0
   36.5588   59.5268   27.1740 C   0  0  0  0  0  0  0  0  0  0  0  0
   36.2347   58.5554   27.8767 O   0  0  0  0  0  0  0  0  0  0  0  0
   37.8500   61.6454   26.7678 C   0  0  0  0  0  0  0  0  0  0  0  0
   39.3046   61.8525   26.7937 C   0  0  1  0  0  0  0  0  0  0  0  0
   39.8349   62.6592   27.9657 C   0  0  0  0  0  0  0  0  0  0  0  0
   40.1819   60.6686   26.6032 C   0  0  0  0  0  0  0  0  0  0  0  0
   36.2533   59.5220   25.8020 N   0  0  0  0  0  0  0  0  0  0  0  0
   35.0973   58.9803   25.1515 C   0  0  2  0  0  0  0  0  0  0  0  0
   35.0939   59.3035   23.7102 C   0  0  0  0  0  0  0  0  0  0  0  0
   35.3121   60.5335   23.4002 O   0  0  0  0  0  0  0  0  0  0  0  0
   33.8836   59.6984   25.7678 C   0  0  0  0  0  0  0  0  0  0  0  0
   32.9814   58.7956   26.3141 O   0  0  0  0  0  0  0  0  0  0  0  0
   34.8788   58.4293   22.6353 N   0  0  0  0  0  0  0  0  0  0  0  0
   35.6717   58.4957   21.4181 C   0  0  0  0  0  0  0  0  0  0  0  0
   35.2290   57.4759   20.4522 C   0  0  0  0  0  0  0  0  0  0  0  0
   34.4227   56.5471   20.8638 O   0  0  0  0  0  0  0  0  0  0  0  0
   35.6430   57.4771   19.1121 N   0  0  0  0  0  0  0  0  0  0  0  0
   35.1384   56.4438   18.1901 C   0  0  2  0  0  0  0  0  0  0  0  0
   35.8920   55.2092   18.4645 C   0  0  0  0  0  0  0  0  0  0  0  0
   35.4696   54.1263   17.9332 O   0  0  0  0  0  0  0  0  0  0  0  0
   35.3847   56.9223   16.7808 C   0  0  0  0  0  0  0  0  0  0  0  0
   36.7665   57.3392   16.4710 C   0  0  0  0  0  0  0  0  0  0  0  0
   36.9968   57.7830   15.0664 C   0  0  0  0  0  0  0  0  0  0  0  0
   37.9790   56.8830   14.3441 C   0  0  0  0  0  0  0  0  0  0  0  0
   39.1888   57.6007   13.9903 N   0  0  0  0  0  4  0  0  0  0  0  0
   37.0144   55.1159   19.2440 O   0  0  0  0  0  0  0  0  0  0  0  0
  2  1  1  1
  2  3  1  0
  2  5  1  0
  3  4  2  0
  3  8  1  0
  5  6  1  0
  5  7  1  6
  9  8  1  1
  9 10  1  0
  9 12  1  0
 10 11  2  0
 10 15  1  0
 12 13  1  0
 12 14  1  1
 15 16  1  0
 16 17  1  0
 16 19  1  6
 17 18  2  0
 17 20  1  0
 20 21  1  0
 20 26  1  0
 21 22  1  1
 21 24  1  0
 22 23  2  0
 22 27  1  0
 24 25  1  0
 25 26  1  0
 27 28  1  0
 28 29  1  0
 28 31  1  1
 29 30  2  0
 29 33  1  0
 31 32  1  0
 33 34  1  0
 34 35  1  0
 34 37  1  6
 35 36  2  0
 35 41  1  0
 37 38  1  0
 38 39  1  1
 38 40  1  0
 41 42  1  0
 42 43  1  0
 42 45  1  1
 43 44  2  0
 43 47  1  0
 45 46  1  0
 47 48  1  0
 48 49  1  0
 49 50  2  0
 49 51  1  0
 51 52  1  0
 52 53  1  0
 52 55  1  6
 53 54  2  0
 53 60  1  0
 55 56  1  0
 56 57  1  0
 57 58  1  0
 58 59  1  0
M  CHG  2   1   1  59   1
M  END
$$$$
