
     RDKit          3D

 60 60  0  0  0  0  0  0  0  0999 V2000
   25.0266   62.2585   33.9254 N   0  0  0  0  0  4  0  0  0  0  0  0
   25.8616   62.9108   32.9281 C   0  0  2  0  0  0  0  0  0  0  0  0
   26.7035   61.9454   32.1970 C   0  0  0  0  0  0  0  0  0  0  0  0
   26.8579   60.7781   32.6304 O   0  0  0  0  0  0  0  0  0  0  0  0
   26.6754   63.9685   33.6456 C   0  0  2  0  0  0  0  0  0  0  0  0
   27.2614   64.7655   32.6431 O   0  0  0  0  0  0  0  0  0  0  0  0
   27.7840   63.3096   34.4099 C   0  0  0  0  0  0  0  0  0  0  0  0
   27.3569   62.2954   30.9901 N   0  0  0  0  0  0  0  0  0  0  0  0
   28.1173   61.3109   30.1856 C   0  0  2  0  0  0  0  0  0  0  0  0
   29.4604   61.1230   30.7393 C   0  0  0  0  0  0  0  0  0  0  0  0
   29.9851   61.9828   31.5373 O   0  0  0  0  0  0  0  0  0  0  0  0
   28.0400   61.7806   28.7676 C   0  0  2  0  0  0  0  0  0  0  0  0
   28.5083   63.0622   28.5451 O   0  0  0  0  0  0  0  0  0  0  0  0
   26.6858   61.6216   28.1587 C   0  0  0  0  0  0  0  0  0  0  0  0
   30.2288   59.9779   30.4115 N   0  0  0  0  0  0  0  0  0  0  0  0
   31.4100   59.5882   31.0969 C   0  0  2  0  0  0  0  0  0  0  0  0
   32.7057   59.6895   30.4625 C   0  0  0  0  0  0  0  0  0  0  0  0
   33.6867   59.1779   31.1643 O   0  0  0  0  0  0  0  0  0  0  0  0
   31.1456   58.0912   31.4819 C   0  0  0  0  0  0  0  0  0  0  0  0
   33.1204   60.2169   29.2395 N   0  0  0  0  0  0  0  0  0  0  0  0
   34.1979   60.7687   28.5542 C   0  0  2  0  0  0  0  0  0  0  0  0
   35.5780   60.6831   28.8044 C   0  0  0  0  0  0  0  0  0  0  0  0
   36.2616   61.7434   28.4197 O   0  0  0  0  0  0  0  0  0  0  0  0
   33.6983   62.2272   28.4010 C   0  0  0  0  0  0  0  0  0  0  0  0
   32.2825   61.9466   27.9749 C   0  0  0  0  0  0  0  0  0  0  0  0
   32.0547   60.4263   28.1967 C   0  0  0  0  0  0  0  0  0  0  0  0
   36.4401   59.7267   29.3797 N   0  0  0  0  0  0  0  0  0  0  0  0
   37.8509   59.8750   29.5706 C   0  0  2  0  0  0  0  0  0  0  0  0
   38.5236   60.9153   28.8276 C   0  0  0  0  0  0  0  0  0  0  0  0
   39.1639   61.7727   29.5481 O   0  0  0  0  0  0  0  0  0  0  0  0
   38.6166   58.5731   29.2180 C   0  0  0  0  0  0  0  0  0  0  0  0
   39.7193   58.3686   29.9999 O   0  0  0  0  0  0  0  0  0  0  0  0
   38.5734   61.0983   27.4124 N   0  0  0  0  0  0  0  0  0  0  0  0
   39.7722   61.6433   26.7734 C   0  0  2  0  0  0  0  0  0  0  0  0
   39.6624   61.8454   25.3364 C   0  0  0  0  0  0  0  0  0  0  0  0
   40.5742   62.3900   24.6928 O   0  0  0  0  0  0  0  0  0  0  0  0
   41.0030   60.9221   27.2525 C   0  0  0  0  0  0  0  0  0  0  0  0
   42.3181   61.4655   26.8857 C   0  0  1  0  0  0  0  0  0  0  0  0
   43.1159   60.6443   25.8884 C   0  0  0  0  0  0  0  0  0  0  0  0
   42.3964   62.8946   26.4866 C   0  0  0  0  0  0  0  0  0  0  0  0
   38.5041   61.4140   24.6674 N   0  0  0  0  0  0  0  0  0  0  0  0
   38.3949   60.8484   23.3555 C   0  0  2  0  0  0  0  0  0  0  0  0
   37.4062   59.7515   23.3264 C   0  0  0  0  0  0  0  0  0  0  0  0
   37.8755   58.5569   23.4228 O   0  0  0  0  0  0  0  0  0  0  0  0
   39.7640   60.2171   23.0464 C   0  0  0  0  0  0  0  0  0  0  0  0
   40.8066   61.0533   23.4223 O   0  0  0  0  0  0  0  0  0  0  0  0
   36.0133   59.8548   23.2038 N   0  0  0  0  0  0  0  0  0  0  0  0
   35.3538   59.8784   21.9080 C   0  0  0  0  0  0  0  0  0  0  0  0
   35.5522   58.6026   21.1996 C   0  0  0  0  0  0  0  0  0  0  0  0
   36.6447   57.9393   21.4203 O   0  0  0  0  0  0  0  0  0  0  0  0
   34.6059   58.0825   20.3044 N   0  0  0  0  0  0  0  0  0  0  0  0
   34.8635   56.7952   19.6344 C   0  0  2  0  0  0  0  0  0  0  0  0
   35.7909   57.0606   18.5222 C   0  0  0  0  0  0  0  0  0  0  0  0
   36.0927   58.2786   18.2797 O   0  0  0  0  0  0  0  0  0  0  0  0
   33.5456   56.2694   19.1222 C   0  0  0  0  0  0  0  0  0  0  0  0
   32.4769   56.1110   20.1281 C   0  0  0  0  0  0  0  0  0  0  0  0
   32.2051   54.7075   20.5512 C   0  0  0  0  0  0  0  0  0  0  0  0
   30.9994   54.6170   21.4648 C   0  0  0  0  0  0  0  0  0  0  0  0
   29.8959   53.9366   20.8145 N   0  0  0  0  0  4  0  0  0  0  0  0
   36.3644   56.1120   17.7176 O   0  0  0  0  0  0  0  0  0  0  0  0
  2  1  1  1
  2  3  1  0
  2  5  1  0
  3  4  2  0
  3  8  1  0
  5  6  1  0
  5  7  1  6
  9  8  1  1
  9 10  1  0
  9 12  1  0
 10 11  2  0
 10 15  1  0
 12 13  1  0
 12 14  1  1
 15 16  1  0
 16 17  1  0
 16 19  1  6
 17 18  2  0
 17 20  1  0
 20 21  1  0
 20 26  1  0
 21 22  1  1
 21 24  1  0
 22 23  2  0
 22 27  1  0
 24 25  1  0
 25 26  1  0
 27 28  1  0
 28 29  1  0
 28 31  1  6
 29 30  2  0
 29 33  1  0
 31 32  1  0
 33 34  1  0
 34 35  1  0
 34 37  1  6
 35 36  2  0
 35 41  1  0
 37 38  1  0
 38 39  1  6
 38 40  1  0
 41 42  1  0
 42 43  1  0
 42 45  1  1
 43 44  2  0
 43 47  1  0
 45 46  1  0
 47 48  1  0
 48 49  1  0
 49 50  2  0
 49 51  1  0
 51 52  1  0
 52 53  1  0
 52 55  1  6
 53 54  2  0
 53 60  1  0
 55 56  1  0
 56 57  1  0
 57 58  1  0
 58 59  1  0
M  CHG  2   1   1  59   1
M  END
$$$$
