
     RDKit          3D

 69 71  0  0  0  0  0  0  0  0999 V2000
   13.0556    8.0627   10.9220 N   0  0  0  0  0  4  0  0  0  0  0  0
   13.2679    6.7136   11.3777 C   0  0  2  0  0  0  0  0  0  0  0  0
   12.0649    5.9088   11.0535 C   0  0  0  0  0  0  0  0  0  0  0  0
   10.9210    6.3261   11.4613 O   0  0  0  0  0  0  0  0  0  0  0  0
   13.5557    6.7108   12.8786 C   0  0  2  0  0  0  0  0  0  0  0  0
   14.6055    7.5829   13.0988 O   0  0  0  0  0  0  0  0  0  0  0  0
   13.8950    5.3285   13.3566 C   0  0  0  0  0  0  0  0  0  0  0  0
   12.1526    4.7021   10.3126 N   0  0  0  0  0  0  0  0  0  0  0  0
   10.9737    3.9030   10.2169 C   0  0  2  0  0  0  0  0  0  0  0  0
   10.5209    3.7083    8.8256 C   0  0  0  0  0  0  0  0  0  0  0  0
    9.7131    4.5177    8.3266 O   0  0  0  0  0  0  0  0  0  0  0  0
    9.7929    4.5222   10.9562 C   0  0  0  0  0  0  0  0  0  0  0  0
    8.9085    5.2734   10.0728 C   0  0  0  0  0  0  0  0  0  0  0  0
    9.3068    6.4811    9.5295 O   0  0  0  0  0  0  0  0  0  0  0  0
    7.7705    4.8427    9.7887 O   0  0  0  0  0  0  0  0  0  0  0  0
   10.9679    2.6076    7.9852 N   0  0  0  0  0  0  0  0  0  0  0  0
   10.4867    2.4736    6.6589 C   0  0  2  0  0  0  0  0  0  0  0  0
    9.0721    2.6892    6.3767 C   0  0  0  0  0  0  0  0  0  0  0  0
    8.3601    2.6104    7.4818 O   0  0  0  0  0  0  0  0  0  0  0  0
   11.0865    1.2683    5.9417 C   0  0  0  0  0  0  0  0  0  0  0  0
   12.5627    1.1505    6.0280 C   0  0  1  0  0  0  0  0  0  0  0  0
   13.0145   -0.2038    5.5515 C   0  0  0  0  0  0  0  0  0  0  0  0
   13.2522    2.1941    5.1382 C   0  0  0  0  0  0  0  0  0  0  0  0
    8.3508    2.9510    5.2212 N   0  0  0  0  0  0  0  0  0  0  0  0
    7.0271    3.5832    5.2286 C   0  0  2  0  0  0  0  0  0  0  0  0
    6.0316    2.9295    4.3842 C   0  0  0  0  0  0  0  0  0  0  0  0
    5.6093    3.2794    3.2685 O   0  0  0  0  0  0  0  0  0  0  0  0
    7.4696    4.8153    4.3565 C   0  0  0  0  0  0  0  0  0  0  0  0
    8.1153    4.0419    3.1901 C   0  0  0  0  0  0  0  0  0  0  0  0
    8.7071    2.7861    3.8657 C   0  0  0  0  0  0  0  0  0  0  0  0
    5.4253    1.7074    4.8865 N   0  0  0  0  0  0  0  0  0  0  0  0
    4.4752    1.0193    4.0406 C   0  0  1  0  0  0  0  0  0  0  0  0
    3.0892    1.6453    4.1591 C   0  0  0  0  0  0  0  0  0  0  0  0
    2.1569    0.9754    3.4085 O   0  0  0  0  0  0  0  0  0  0  0  0
    4.8661    1.1538    2.6048 C   0  0  0  0  0  0  0  0  0  0  0  0
    6.0894    1.3121    2.2795 O   0  0  0  0  0  0  0  0  0  0  0  0
    0.5711    1.3192    3.8837 P   0  0  1  0  0  5  0  0  0  0  0  0
    0.1564    2.7270    3.5717 O   0  0  0  0  0  0  0  0  0  0  0  0
   -0.5331    0.2513    3.1604 O   0  0  0  0  0  0  0  0  0  0  0  0
    0.4625    1.1022    5.5588 O   0  0  0  0  0  0  0  0  0  0  0  0
    3.9250    1.1095    1.5513 N   0  0  0  0  0  0  0  0  0  0  0  0
    4.3545    1.2482    0.1173 C   0  0  2  0  0  0  0  0  0  0  0  0
    3.9447    2.5436   -0.3622 C   0  0  0  0  0  0  0  0  0  0  0  0
    2.6546    2.7937   -0.2854 O   0  0  0  0  0  0  0  0  0  0  0  0
    3.5359    0.1304   -0.5979 C   0  0  0  0  0  0  0  0  0  0  0  0
    3.8856   -0.0335   -1.9976 C   0  0  0  0  0  0  0  0  0  0  0  0
    5.2187    0.0543   -2.4147 O   0  0  0  0  0  0  0  0  0  0  0  0
    3.0429   -0.2540   -2.8913 O   0  0  0  0  0  0  0  0  0  0  0  0
    4.7044    3.6245   -0.9081 N   0  0  0  0  0  0  0  0  0  0  0  0
    4.1661    4.9774   -1.1024 C   0  0  2  0  0  0  0  0  0  0  0  0
    2.9043    5.0277   -1.8216 C   0  0  0  0  0  0  0  0  0  0  0  0
    2.7472    4.3632   -2.9200 O   0  0  0  0  0  0  0  0  0  0  0  0
    5.2814    5.8184   -1.5961 C   0  0  0  0  0  0  0  0  0  0  0  0
    6.5017    5.0955   -1.0059 C   0  0  0  0  0  0  0  0  0  0  0  0
    6.0899    3.6151   -1.2096 C   0  0  0  0  0  0  0  0  0  0  0  0
    1.7781    5.7674   -1.4171 N   0  0  0  0  0  0  0  0  0  0  0  0
    0.5215    5.9333   -2.0421 C   0  0  2  0  0  0  0  0  0  0  0  0
    0.3910    5.7647   -3.4917 C   0  0  0  0  0  0  0  0  0  0  0  0
    1.2225    5.4867   -4.3466 O   0  0  0  0  0  0  0  0  0  0  0  0
    0.1863    7.4245   -1.7143 C   0  0  0  0  0  0  0  0  0  0  0  0
    0.5720    7.4393   -0.2647 C   0  0  0  0  0  0  0  0  0  0  0  0
    1.6759    6.4351   -0.1154 C   0  0  0  0  0  0  0  0  0  0  0  0
   -0.9710    5.9701   -3.9834 N   0  0  0  0  0  0  0  0  0  0  0  0
   -1.4309    5.2887   -5.1631 C   0  0  2  0  0  0  0  0  0  0  0  0
   -2.8792    5.5736   -5.4401 C   0  0  0  0  0  0  0  0  0  0  0  0
   -3.4309    5.1041   -6.4632 O   0  0  0  0  0  0  0  0  0  0  0  0
   -1.1163    3.8219   -5.1930 C   0  0  0  0  0  0  0  0  0  0  0  0
   -1.7498    3.2737   -6.3264 O   0  0  0  0  0  0  0  0  0  0  0  0
   -3.6320    6.3533   -4.5855 O   0  0  0  0  0  0  0  0  0  0  0  0
  2  1  1  1
  2  3  1  0
  2  5  1  0
  3  4  2  0
  3  8  1  0
  5  6  1  0
  5  7  1  6
  8  9  1  0
  9 10  1  0
  9 12  1  1
 10 11  2  0
 10 16  1  0
 12 13  1  0
 13 14  1  0
 13 15  2  0
 16 17  1  0
 17 18  1  0
 17 20  1  1
 18 19  2  0
 18 24  1  0
 20 21  1  0
 21 22  1  6
 21 23  1  0
 24 25  1  0
 24 30  1  0
 25 26  1  6
 25 28  1  0
 26 27  2  0
 26 31  1  0
 28 29  1  0
 29 30  1  0
 31 32  1  0
 32 33  1  6
 32 35  1  0
 33 34  1  0
 34 37  1  0
 35 36  2  0
 35 41  1  0
 37 38  2  0
 37 39  1  6
 37 40  1  0
 41 42  1  0
 42 43  1  0
 42 45  1  6
 43 44  2  0
 43 49  1  0
 45 46  1  0
 46 47  1  0
 46 48  2  0
 49 50  1  0
 49 55  1  0
 50 51  1  6
 50 53  1  0
 51 52  2  0
 51 56  1  0
 53 54  1  0
 54 55  1  0
 56 57  1  0
 56 62  1  0
 57 58  1  6
 57 60  1  0
 58 59  2  0
 58 63  1  0
 60 61  1  0
 61 62  1  0
 63 64  1  0
 64 65  1  0
 64 67  1  1
 65 66  2  0
 65 69  1  0
 67 68  1  0
M  CHG  1   1   1
M  END
$$$$
