
     RDKit          3D

 69 71  0  0  0  0  0  0  0  0999 V2000
    6.5157    3.1183   -5.9428 N   0  0  0  0  0  4  0  0  0  0  0  0
    5.9318    2.2344   -4.9679 C   0  0  2  0  0  0  0  0  0  0  0  0
    5.8212    2.9581   -3.6779 C   0  0  0  0  0  0  0  0  0  0  0  0
    6.5335    4.0123   -3.5043 O   0  0  0  0  0  0  0  0  0  0  0  0
    6.7852    0.9740   -4.8315 C   0  0  2  0  0  0  0  0  0  0  0  0
    7.9356    1.3265   -4.1508 O   0  0  0  0  0  0  0  0  0  0  0  0
    7.1122    0.3998   -6.1798 C   0  0  0  0  0  0  0  0  0  0  0  0
    4.9561    2.5132   -2.6452 N   0  0  0  0  0  0  0  0  0  0  0  0
    4.9345    3.2698   -1.4351 C   0  0  2  0  0  0  0  0  0  0  0  0
    5.7417    2.6605   -0.3600 C   0  0  0  0  0  0  0  0  0  0  0  0
    5.3530    2.7504    0.8222 O   0  0  0  0  0  0  0  0  0  0  0  0
    3.5268    3.4145   -0.8678 C   0  0  0  0  0  0  0  0  0  0  0  0
    2.8741    2.1285   -0.6501 C   0  0  0  0  0  0  0  0  0  0  0  0
    2.8983    1.5217    0.5923 O   0  0  0  0  0  0  0  0  0  0  0  0
    2.2798    1.5462   -1.5823 O   0  0  0  0  0  0  0  0  0  0  0  0
    6.9877    1.9483   -0.6004 N   0  0  0  0  0  0  0  0  0  0  0  0
    7.7870    1.5100    0.4848 C   0  0  2  0  0  0  0  0  0  0  0  0
    7.1509    1.0756    1.7233 C   0  0  0  0  0  0  0  0  0  0  0  0
    6.6834   -0.1496    1.6012 O   0  0  0  0  0  0  0  0  0  0  0  0
    9.0170    2.3879    0.6929 C   0  0  0  0  0  0  0  0  0  0  0  0
   10.1247    2.1634   -0.2679 C   0  0  1  0  0  0  0  0  0  0  0  0
   11.3939    2.8018    0.2290 C   0  0  0  0  0  0  0  0  0  0  0  0
   10.4112    0.6651   -0.4389 C   0  0  0  0  0  0  0  0  0  0  0  0
    6.9460    1.6704    2.9595 N   0  0  0  0  0  0  0  0  0  0  0  0
    6.1416    1.0562    4.0212 C   0  0  2  0  0  0  0  0  0  0  0  0
    5.1855    1.9541    4.6624 C   0  0  0  0  0  0  0  0  0  0  0  0
    5.1850    3.1969    4.6895 O   0  0  0  0  0  0  0  0  0  0  0  0
    7.3213    1.0029    5.0603 C   0  0  0  0  0  0  0  0  0  0  0  0
    7.7613    2.4774    4.9732 C   0  0  0  0  0  0  0  0  0  0  0  0
    7.4850    2.8564    3.5023 C   0  0  0  0  0  0  0  0  0  0  0  0
    4.0765    1.3490    5.3818 N   0  0  0  0  0  0  0  0  0  0  0  0
    2.8306    2.0798    5.4547 C   0  0  1  0  0  0  0  0  0  0  0  0
    1.7926    1.3052    6.2604 C   0  0  0  0  0  0  0  0  0  0  0  0
    2.2992    0.1318    6.7581 O   0  0  0  0  0  0  0  0  0  0  0  0
    3.0291    3.3736    6.1753 C   0  0  0  0  0  0  0  0  0  0  0  0
    2.6978    4.4768    5.6273 O   0  0  0  0  0  0  0  0  0  0  0  0
    1.8486   -1.2130    5.8376 P   0  0  1  0  0  5  0  0  0  0  0  0
    2.1511   -2.5170    6.5154 O   0  0  0  0  0  0  0  0  0  0  0  0
    0.1959   -1.1684    5.4514 O   0  0  0  0  0  0  0  0  0  0  0  0
    2.7104   -1.1695    4.3814 O   0  0  0  0  0  0  0  0  0  0  0  0
    3.5781    3.4452    7.4758 N   0  0  0  0  0  0  0  0  0  0  0  0
    3.6951    4.7573    8.2003 C   0  0  2  0  0  0  0  0  0  0  0  0
    2.4541    5.4748    8.0553 C   0  0  0  0  0  0  0  0  0  0  0  0
    1.8056    5.2628    6.9296 O   0  0  0  0  0  0  0  0  0  0  0  0
    4.8281    5.4855    7.4147 C   0  0  0  0  0  0  0  0  0  0  0  0
    4.7252    6.9329    7.4650 C   0  0  0  0  0  0  0  0  0  0  0  0
    5.5926    7.6821    8.2683 O   0  0  0  0  0  0  0  0  0  0  0  0
    3.8792    7.5811    6.8156 O   0  0  0  0  0  0  0  0  0  0  0  0
    1.7890    6.3845    8.9348 N   0  0  0  0  0  0  0  0  0  0  0  0
    0.4562    6.9419    8.6687 C   0  0  2  0  0  0  0  0  0  0  0  0
    0.3034    7.5399    7.3530 C   0  0  0  0  0  0  0  0  0  0  0  0
    1.0757    8.5067    6.9771 O   0  0  0  0  0  0  0  0  0  0  0  0
    0.0859    7.7565    9.8495 C   0  0  0  0  0  0  0  0  0  0  0  0
    0.8892    7.0710   10.9653 C   0  0  0  0  0  0  0  0  0  0  0  0
    2.2202    6.7769   10.2273 C   0  0  0  0  0  0  0  0  0  0  0  0
   -0.6528    7.1477    6.3985 N   0  0  0  0  0  0  0  0  0  0  0  0
   -1.1310    7.8238    5.2533 C   0  0  2  0  0  0  0  0  0  0  0  0
   -1.0674    9.2858    5.1800 C   0  0  0  0  0  0  0  0  0  0  0  0
   -0.1893   10.0700    5.5169 O   0  0  0  0  0  0  0  0  0  0  0  0
   -2.6415    7.4218    5.2418 C   0  0  0  0  0  0  0  0  0  0  0  0
   -2.4974    5.9565    5.5287 C   0  0  0  0  0  0  0  0  0  0  0  0
   -1.2619    5.8140    6.3670 C   0  0  0  0  0  0  0  0  0  0  0  0
   -2.2673    9.8946    4.6069 N   0  0  0  0  0  0  0  0  0  0  0  0
   -2.4475   11.3208    4.6382 C   0  0  2  0  0  0  0  0  0  0  0  0
   -3.7451   11.7310    4.0031 C   0  0  0  0  0  0  0  0  0  0  0  0
   -4.6132   12.3368    4.6744 O   0  0  0  0  0  0  0  0  0  0  0  0
   -1.2783   12.1040    4.1177 C   0  0  0  0  0  0  0  0  0  0  0  0
   -0.4159   12.3540    5.2041 O   0  0  0  0  0  0  0  0  0  0  0  0
   -4.0134   11.4525    2.6781 O   0  0  0  0  0  0  0  0  0  0  0  0
  2  1  1  6
  2  3  1  0
  2  5  1  0
  3  4  2  0
  3  8  1  0
  5  6  1  0
  5  7  1  6
  8  9  1  0
  9 10  1  0
  9 12  1  1
 10 11  2  0
 10 16  1  0
 12 13  1  0
 13 14  1  0
 13 15  2  0
 16 17  1  0
 17 18  1  0
 17 20  1  1
 18 19  2  0
 18 24  1  0
 20 21  1  0
 21 22  1  1
 21 23  1  0
 24 25  1  0
 24 30  1  0
 25 26  1  1
 25 28  1  0
 26 27  2  0
 26 31  1  0
 28 29  1  0
 29 30  1  0
 31 32  1  0
 32 33  1  1
 32 35  1  0
 33 34  1  0
 34 37  1  0
 35 36  2  0
 35 41  1  0
 37 38  2  0
 37 39  1  6
 37 40  1  0
 41 42  1  0
 42 43  1  0
 42 45  1  6
 43 44  2  0
 43 49  1  0
 45 46  1  0
 46 47  1  0
 46 48  2  0
 49 50  1  0
 49 55  1  0
 50 51  1  6
 50 53  1  0
 51 52  2  0
 51 56  1  0
 53 54  1  0
 54 55  1  0
 56 57  1  0
 56 62  1  0
 57 58  1  1
 57 60  1  0
 58 59  2  0
 58 63  1  0
 60 61  1  0
 61 62  1  0
 63 64  1  0
 64 65  1  0
 64 67  1  6
 65 66  2  0
 65 69  1  0
 67 68  1  0
M  CHG  1   1   1
M  END
$$$$
