
     RDKit          3D

 69 71  0  0  0  0  0  0  0  0999 V2000
   -1.5794    1.2939   11.6920 N   0  0  0  0  0  4  0  0  0  0  0  0
   -0.2305    1.7883   11.5982 C   0  0  2  0  0  0  0  0  0  0  0  0
   -0.0179    2.3303   10.2340 C   0  0  0  0  0  0  0  0  0  0  0  0
   -0.9930    2.9342    9.6565 O   0  0  0  0  0  0  0  0  0  0  0  0
    0.7579    0.6666   11.9154 C   0  0  2  0  0  0  0  0  0  0  0  0
    0.7413   -0.2117   10.8480 O   0  0  0  0  0  0  0  0  0  0  0  0
    0.3855   -0.0305   13.1920 C   0  0  0  0  0  0  0  0  0  0  0  0
    1.2247    2.1950    9.5632 N   0  0  0  0  0  0  0  0  0  0  0  0
    1.4057    2.9398    8.3591 C   0  0  2  0  0  0  0  0  0  0  0  0
    2.7320    2.7309    7.7460 C   0  0  0  0  0  0  0  0  0  0  0  0
    3.5094    3.6994    7.6261 O   0  0  0  0  0  0  0  0  0  0  0  0
    1.2830    4.4427    8.5840 C   0  0  0  0  0  0  0  0  0  0  0  0
   -0.0377    4.9563    8.2390 C   0  0  0  0  0  0  0  0  0  0  0  0
   -1.1169    4.1028    8.1000 O   0  0  0  0  0  0  0  0  0  0  0  0
   -0.2226    6.1790    8.0598 O   0  0  0  0  0  0  0  0  0  0  0  0
    3.1960    1.4390    7.2633 N   0  0  0  0  0  0  0  0  0  0  0  0
    4.5180    1.2853    6.7761 C   0  0  2  0  0  0  0  0  0  0  0  0
    5.2196    2.4327    6.2118 C   0  0  0  0  0  0  0  0  0  0  0  0
    4.8791    3.5401    6.8380 O   0  0  0  0  0  0  0  0  0  0  0  0
    4.6992   -0.0052    5.9831 C   0  0  0  0  0  0  0  0  0  0  0  0
    4.7811   -1.2423    6.7975 C   0  0  1  0  0  0  0  0  0  0  0  0
    4.4063   -2.4445    5.9731 C   0  0  0  0  0  0  0  0  0  0  0  0
    6.2105   -1.4735    7.3071 C   0  0  0  0  0  0  0  0  0  0  0  0
    6.1399    2.5880    5.1858 N   0  0  0  0  0  0  0  0  0  0  0  0
    6.6756    3.8918    4.7800 C   0  0  2  0  0  0  0  0  0  0  0  0
    6.6840    4.1290    3.3395 C   0  0  0  0  0  0  0  0  0  0  0  0
    7.3223    3.5291    2.4574 O   0  0  0  0  0  0  0  0  0  0  0  0
    8.1727    3.5134    5.0801 C   0  0  0  0  0  0  0  0  0  0  0  0
    8.2358    2.2002    4.2759 C   0  0  0  0  0  0  0  0  0  0  0  0
    6.8108    1.6207    4.4073 C   0  0  0  0  0  0  0  0  0  0  0  0
    5.8527    5.2089    2.8334 N   0  0  0  0  0  0  0  0  0  0  0  0
    4.9769    4.9299    1.7167 C   0  0  1  0  0  0  0  0  0  0  0  0
    3.6677    5.7016    1.8468 C   0  0  0  0  0  0  0  0  0  0  0  0
    3.8781    7.0473    2.0091 O   0  0  0  0  0  0  0  0  0  0  0  0
    5.6011    5.3908    0.4397 C   0  0  0  0  0  0  0  0  0  0  0  0
    4.9026    5.9937   -0.4410 O   0  0  0  0  0  0  0  0  0  0  0  0
    2.4423    7.9042    2.2599 P   0  0  1  0  0  5  0  0  0  0  0  0
    2.6239    9.3914    2.1789 O   0  0  0  0  0  0  0  0  0  0  0  0
    1.2459    7.4384    1.1489 O   0  0  0  0  0  0  0  0  0  0  0  0
    1.8683    7.5320    3.8081 O   0  0  0  0  0  0  0  0  0  0  0  0
    6.9692    5.1931    0.1454 N   0  0  0  0  0  0  0  0  0  0  0  0
    7.4136    4.7229   -1.2116 C   0  0  2  0  0  0  0  0  0  0  0  0
    6.5708    5.3330   -2.2083 C   0  0  0  0  0  0  0  0  0  0  0  0
    5.2761    5.1845   -2.0232 O   0  0  0  0  0  0  0  0  0  0  0  0
    7.1437    3.1884   -1.1506 C   0  0  0  0  0  0  0  0  0  0  0  0
    7.5125    2.4899   -2.3690 C   0  0  0  0  0  0  0  0  0  0  0  0
    8.8513    2.4139   -2.7701 O   0  0  0  0  0  0  0  0  0  0  0  0
    6.6822    1.9317   -3.1149 O   0  0  0  0  0  0  0  0  0  0  0  0
    6.8975    6.0892   -3.3766 N   0  0  0  0  0  0  0  0  0  0  0  0
    5.9121    6.8624   -4.1442 C   0  0  2  0  0  0  0  0  0  0  0  0
    4.7215    6.1189   -4.5204 C   0  0  0  0  0  0  0  0  0  0  0  0
    4.7853    4.8471   -4.7466 O   0  0  0  0  0  0  0  0  0  0  0  0
    6.6563    7.5695   -5.2124 C   0  0  0  0  0  0  0  0  0  0  0  0
    8.0499    7.7093   -4.5812 C   0  0  0  0  0  0  0  0  0  0  0  0
    8.1968    6.3291   -3.8912 C   0  0  0  0  0  0  0  0  0  0  0  0
    3.4391    6.6777   -4.6694 N   0  0  0  0  0  0  0  0  0  0  0  0
    2.2644    6.1313   -5.2338 C   0  0  2  0  0  0  0  0  0  0  0  0
    2.3542    5.0620   -6.2315 C   0  0  0  0  0  0  0  0  0  0  0  0
    3.0343    4.9635   -7.2450 O   0  0  0  0  0  0  0  0  0  0  0  0
    1.6300    7.3741   -5.9384 C   0  0  0  0  0  0  0  0  0  0  0  0
    1.8165    8.3848   -4.8458 C   0  0  0  0  0  0  0  0  0  0  0  0
    3.0527    7.9739   -4.1025 C   0  0  0  0  0  0  0  0  0  0  0  0
    1.4719    3.9290   -5.9545 N   0  0  0  0  0  0  0  0  0  0  0  0
    1.3841    2.8303   -6.8779 C   0  0  2  0  0  0  0  0  0  0  0  0
    0.4141    1.7850   -6.4070 C   0  0  0  0  0  0  0  0  0  0  0  0
    0.2788    1.5548   -5.1822 O   0  0  0  0  0  0  0  0  0  0  0  0
    2.7088    2.2493   -7.2764 C   0  0  0  0  0  0  0  0  0  0  0  0
    2.4538    1.1222   -8.0834 O   0  0  0  0  0  0  0  0  0  0  0  0
   -0.3441    1.0567   -7.3013 O   0  0  0  0  0  0  0  0  0  0  0  0
  2  1  1  6
  2  3  1  0
  2  5  1  0
  3  4  2  0
  3  8  1  0
  5  6  1  0
  5  7  1  1
  8  9  1  0
  9 10  1  0
  9 12  1  1
 10 11  2  0
 10 16  1  0
 12 13  1  0
 13 14  1  0
 13 15  2  0
 16 17  1  0
 17 18  1  0
 17 20  1  6
 18 19  2  0
 18 24  1  0
 20 21  1  0
 21 22  1  6
 21 23  1  0
 24 25  1  0
 24 30  1  0
 25 26  1  6
 25 28  1  0
 26 27  2  0
 26 31  1  0
 28 29  1  0
 29 30  1  0
 31 32  1  0
 32 33  1  1
 32 35  1  0
 33 34  1  0
 34 37  1  0
 35 36  2  0
 35 41  1  0
 37 38  2  0
 37 39  1  6
 37 40  1  0
 41 42  1  0
 42 43  1  0
 42 45  1  1
 43 44  2  0
 43 49  1  0
 45 46  1  0
 46 47  1  0
 46 48  2  0
 49 50  1  0
 49 55  1  0
 50 51  1  6
 50 53  1  0
 51 52  2  0
 51 56  1  0
 53 54  1  0
 54 55  1  0
 56 57  1  0
 56 62  1  0
 57 58  1  6
 57 60  1  0
 58 59  2  0
 58 63  1  0
 60 61  1  0
 61 62  1  0
 63 64  1  0
 64 65  1  0
 64 67  1  1
 65 66  2  0
 65 69  1  0
 67 68  1  0
M  CHG  1   1   1
M  END
$$$$
