
     RDKit          3D

 69 71  0  0  0  0  0  0  0  0999 V2000
   14.4458    5.8506    8.6066 N   0  0  0  0  0  4  0  0  0  0  0  0
   13.6813    5.7532    7.3905 C   0  0  2  0  0  0  0  0  0  0  0  0
   12.3773    5.1176    7.6998 C   0  0  0  0  0  0  0  0  0  0  0  0
   12.3747    4.0130    8.3546 O   0  0  0  0  0  0  0  0  0  0  0  0
   14.4614    4.9526    6.3484 C   0  0  2  0  0  0  0  0  0  0  0  0
   15.5988    5.6752    6.0399 O   0  0  0  0  0  0  0  0  0  0  0  0
   13.6276    4.7122    5.1231 C   0  0  0  0  0  0  0  0  0  0  0  0
   11.1492    5.6980    7.2904 N   0  0  0  0  0  0  0  0  0  0  0  0
    9.9489    5.0067    7.6349 C   0  0  2  0  0  0  0  0  0  0  0  0
    9.3671    4.2619    6.5012 C   0  0  0  0  0  0  0  0  0  0  0  0
    8.8251    4.8911    5.5701 O   0  0  0  0  0  0  0  0  0  0  0  0
    8.8545    5.9520    8.1176 C   0  0  0  0  0  0  0  0  0  0  0  0
    7.6053    5.2601    8.4141 C   0  0  0  0  0  0  0  0  0  0  0  0
    6.6059    5.1614    7.4634 O   0  0  0  0  0  0  0  0  0  0  0  0
    7.4101    4.7428    9.5346 O   0  0  0  0  0  0  0  0  0  0  0  0
    9.3875    2.8102    6.4025 N   0  0  0  0  0  0  0  0  0  0  0  0
    8.8121    2.1568    5.2842 C   0  0  2  0  0  0  0  0  0  0  0  0
    7.3727    1.9250    5.2427 C   0  0  0  0  0  0  0  0  0  0  0  0
    7.0836    0.7163    5.6786 O   0  0  0  0  0  0  0  0  0  0  0  0
    9.6463    0.9706    4.8110 C   0  0  0  0  0  0  0  0  0  0  0  0
    9.0983    0.2368    3.6441 C   0  0  1  0  0  0  0  0  0  0  0  0
    7.8397   -0.4964    4.0231 C   0  0  0  0  0  0  0  0  0  0  0  0
    8.7326    1.2020    2.5079 C   0  0  0  0  0  0  0  0  0  0  0  0
    6.2857    2.6924    4.8511 N   0  0  0  0  0  0  0  0  0  0  0  0
    4.8946    2.2887    5.0823 C   0  0  2  0  0  0  0  0  0  0  0  0
    4.0141    2.4360    3.9272 C   0  0  0  0  0  0  0  0  0  0  0  0
    4.3187    2.6437    2.7400 O   0  0  0  0  0  0  0  0  0  0  0  0
    4.5397    3.5487    5.9546 C   0  0  0  0  0  0  0  0  0  0  0  0
    5.0340    4.6383    4.9830 C   0  0  0  0  0  0  0  0  0  0  0  0
    6.2375    3.9797    4.2749 C   0  0  0  0  0  0  0  0  0  0  0  0
    2.5821    2.3410    4.1597 N   0  0  0  0  0  0  0  0  0  0  0  0
    1.7355    1.9521    3.0534 C   0  0  1  0  0  0  0  0  0  0  0  0
    0.5317    1.1545    3.5446 C   0  0  0  0  0  0  0  0  0  0  0  0
    0.8941    0.1655    4.4231 O   0  0  0  0  0  0  0  0  0  0  0  0
    1.1790    3.1617    2.3755 C   0  0  0  0  0  0  0  0  0  0  0  0
    0.9892    4.2401    3.0298 O   0  0  0  0  0  0  0  0  0  0  0  0
   -0.4046   -0.8263    4.8572 P   0  0  1  0  0  5  0  0  0  0  0  0
   -1.6433   -0.0541    5.2044 O   0  0  0  0  0  0  0  0  0  0  0  0
   -0.7767   -1.9289    3.6208 O   0  0  0  0  0  0  0  0  0  0  0  0
    0.0487   -1.7252    6.2179 O   0  0  0  0  0  0  0  0  0  0  0  0
    0.8441    3.1796    1.0025 N   0  0  0  0  0  0  0  0  0  0  0  0
    1.0898    4.3981    0.1570 C   0  0  2  0  0  0  0  0  0  0  0  0
    2.3559    4.2451   -0.5132 C   0  0  0  0  0  0  0  0  0  0  0  0
    3.2908    3.6266    0.1769 O   0  0  0  0  0  0  0  0  0  0  0  0
    1.1800    5.5398    1.2151 C   0  0  0  0  0  0  0  0  0  0  0  0
   -0.0761    5.7926    1.8982 C   0  0  0  0  0  0  0  0  0  0  0  0
   -1.2417    6.0614    1.1714 O   0  0  0  0  0  0  0  0  0  0  0  0
   -0.1912    5.7887    3.1408 O   0  0  0  0  0  0  0  0  0  0  0  0
    2.7803    4.6458   -1.8181 N   0  0  0  0  0  0  0  0  0  0  0  0
    3.7355    3.8810   -2.6309 C   0  0  2  0  0  0  0  0  0  0  0  0
    4.9683    3.5319   -1.9451 C   0  0  0  0  0  0  0  0  0  0  0  0
    5.3283    4.1663   -0.8771 O   0  0  0  0  0  0  0  0  0  0  0  0
    3.8387    4.5709   -3.9379 C   0  0  0  0  0  0  0  0  0  0  0  0
    2.4656    5.2522   -4.0400 C   0  0  0  0  0  0  0  0  0  0  0  0
    2.2667    5.7272   -2.5780 C   0  0  0  0  0  0  0  0  0  0  0  0
    5.8539    2.5171   -2.3514 N   0  0  0  0  0  0  0  0  0  0  0  0
    7.0812    2.0972   -1.7906 C   0  0  2  0  0  0  0  0  0  0  0  0
    7.8770    3.0234   -0.9807 C   0  0  0  0  0  0  0  0  0  0  0  0
    8.5541    2.8361    0.0222 O   0  0  0  0  0  0  0  0  0  0  0  0
    7.9213    1.7500   -3.0622 C   0  0  0  0  0  0  0  0  0  0  0  0
    6.8815    0.9897   -3.8310 C   0  0  0  0  0  0  0  0  0  0  0  0
    5.5581    1.5738   -3.4346 C   0  0  0  0  0  0  0  0  0  0  0  0
    7.8421    4.4023   -1.4666 N   0  0  0  0  0  0  0  0  0  0  0  0
    8.6206    5.4234   -0.8196 C   0  0  2  0  0  0  0  0  0  0  0  0
    9.0186    5.0210    0.5714 C   0  0  0  0  0  0  0  0  0  0  0  0
    9.5845    3.9208    0.7732 O   0  0  0  0  0  0  0  0  0  0  0  0
    8.0099    6.7930   -0.8707 C   0  0  0  0  0  0  0  0  0  0  0  0
    8.3352    7.3577   -2.1204 O   0  0  0  0  0  0  0  0  0  0  0  0
    8.7722    5.8426    1.6528 O   0  0  0  0  0  0  0  0  0  0  0  0
  2  1  1  1
  2  3  1  0
  2  5  1  0
  3  4  2  0
  3  8  1  0
  5  6  1  0
  5  7  1  6
  8  9  1  0
  9 10  1  0
  9 12  1  6
 10 11  2  0
 10 16  1  0
 12 13  1  0
 13 14  1  0
 13 15  2  0
 16 17  1  0
 17 18  1  0
 17 20  1  1
 18 19  2  0
 18 24  1  0
 20 21  1  0
 21 22  1  1
 21 23  1  0
 24 25  1  0
 24 30  1  0
 25 26  1  6
 25 28  1  0
 26 27  2  0
 26 31  1  0
 28 29  1  0
 29 30  1  0
 31 32  1  0
 32 33  1  1
 32 35  1  0
 33 34  1  0
 34 37  1  0
 35 36  2  0
 35 41  1  0
 37 38  2  0
 37 39  1  6
 37 40  1  0
 41 42  1  0
 42 43  1  0
 42 45  1  1
 43 44  2  0
 43 49  1  0
 45 46  1  0
 46 47  1  0
 46 48  2  0
 49 50  1  0
 49 55  1  0
 50 51  1  1
 50 53  1  0
 51 52  2  0
 51 56  1  0
 53 54  1  0
 54 55  1  0
 56 57  1  0
 56 62  1  0
 57 58  1  6
 57 60  1  0
 58 59  2  0
 58 63  1  0
 60 61  1  0
 61 62  1  0
 63 64  1  0
 64 65  1  0
 64 67  1  1
 65 66  2  0
 65 69  1  0
 67 68  1  0
M  CHG  1   1   1
M  END
$$$$
