
     RDKit          3D

 69 71  0  0  0  0  0  0  0  0999 V2000
   -5.1723    1.5011   12.0278 N   0  0  0  0  0  4  0  0  0  0  0  0
   -3.7492    1.6909   12.1353 C   0  0  2  0  0  0  0  0  0  0  0  0
   -3.1278    1.3694   10.8275 C   0  0  0  0  0  0  0  0  0  0  0  0
   -3.7267    0.5386   10.0529 O   0  0  0  0  0  0  0  0  0  0  0  0
   -3.1901    0.8106   13.2525 C   0  0  2  0  0  0  0  0  0  0  0  0
   -3.5409   -0.4950   12.9636 O   0  0  0  0  0  0  0  0  0  0  0  0
   -3.7325    1.2307   14.5881 C   0  0  0  0  0  0  0  0  0  0  0  0
   -1.9002    1.9532   10.4217 N   0  0  0  0  0  0  0  0  0  0  0  0
   -1.6313    2.0105    9.0211 C   0  0  2  0  0  0  0  0  0  0  0  0
   -0.1915    2.1169    8.7145 C   0  0  0  0  0  0  0  0  0  0  0  0
    0.1856    2.0706    7.5261 O   0  0  0  0  0  0  0  0  0  0  0  0
   -2.2891    3.2132    8.3540 C   0  0  0  0  0  0  0  0  0  0  0  0
   -2.0088    3.2856    6.9245 C   0  0  0  0  0  0  0  0  0  0  0  0
   -1.1313    2.3989    6.3277 O   0  0  0  0  0  0  0  0  0  0  0  0
   -2.5544    4.1517    6.2080 O   0  0  0  0  0  0  0  0  0  0  0  0
    0.8344    2.2750    9.7343 N   0  0  0  0  0  0  0  0  0  0  0  0
    2.1991    2.3915    9.3703 C   0  0  2  0  0  0  0  0  0  0  0  0
    2.5579    2.6595    7.9822 C   0  0  0  0  0  0  0  0  0  0  0  0
    1.5121    2.5134    7.1951 O   0  0  0  0  0  0  0  0  0  0  0  0
    3.0730    1.3393   10.0457 C   0  0  0  0  0  0  0  0  0  0  0  0
    2.8314    1.1529   11.4974 C   0  0  1  0  0  0  0  0  0  0  0  0
    1.3714    0.9021   11.7631 C   0  0  0  0  0  0  0  0  0  0  0  0
    3.6019   -0.0618   12.0332 C   0  0  0  0  0  0  0  0  0  0  0  0
    3.7354    3.0239    7.3462 N   0  0  0  0  0  0  0  0  0  0  0  0
    3.8027    4.0742    6.3245 C   0  0  2  0  0  0  0  0  0  0  0  0
    4.5601    3.7176    5.1285 C   0  0  0  0  0  0  0  0  0  0  0  0
    4.9807    4.4610    4.2253 O   0  0  0  0  0  0  0  0  0  0  0  0
    4.8183    4.9678    7.1272 C   0  0  0  0  0  0  0  0  0  0  0  0
    5.8834    3.8914    7.4140 C   0  0  0  0  0  0  0  0  0  0  0  0
    5.0615    2.5930    7.5640 C   0  0  0  0  0  0  0  0  0  0  0  0
    4.8760    2.3125    4.9296 N   0  0  0  0  0  0  0  0  0  0  0  0
    3.9443    1.5038    4.1748 C   0  0  1  0  0  0  0  0  0  0  0  0
    2.5558    1.5434    4.8049 C   0  0  0  0  0  0  0  0  0  0  0  0
    2.1284    0.2969    5.1855 O   0  0  0  0  0  0  0  0  0  0  0  0
    3.7848    2.0493    2.7928 C   0  0  0  0  0  0  0  0  0  0  0  0
    3.1468    1.3898    1.9067 O   0  0  0  0  0  0  0  0  0  0  0  0
    1.1699   -0.4489    4.0091 P   0  0  1  0  0  5  0  0  0  0  0  0
    1.7422   -1.7474    3.5215 O   0  0  0  0  0  0  0  0  0  0  0  0
   -0.4037   -0.7265    4.5830 O   0  0  0  0  0  0  0  0  0  0  0  0
    1.0487    0.5981    2.6846 O   0  0  0  0  0  0  0  0  0  0  0  0
    4.3154    3.2992    2.4009 N   0  0  0  0  0  0  0  0  0  0  0  0
    4.1537    3.8074    0.9953 C   0  0  2  0  0  0  0  0  0  0  0  0
    5.3526    3.5040    0.2560 C   0  0  0  0  0  0  0  0  0  0  0  0
    6.3200    2.9438    0.9510 O   0  0  0  0  0  0  0  0  0  0  0  0
    4.0266    5.3481    1.1979 C   0  0  0  0  0  0  0  0  0  0  0  0
    2.6532    5.8002    1.3306 C   0  0  0  0  0  0  0  0  0  0  0  0
    1.8229    5.8982    0.2081 O   0  0  0  0  0  0  0  0  0  0  0  0
    2.1423    6.1230    2.4226 O   0  0  0  0  0  0  0  0  0  0  0  0
    5.6790    3.7002   -1.1218 N   0  0  0  0  0  0  0  0  0  0  0  0
    6.9459    3.2653   -1.7251 C   0  0  2  0  0  0  0  0  0  0  0  0
    8.1350    3.6980   -1.0104 C   0  0  0  0  0  0  0  0  0  0  0  0
    8.0367    4.2488    0.1556 O   0  0  0  0  0  0  0  0  0  0  0  0
    6.8586    3.5638   -3.1736 C   0  0  0  0  0  0  0  0  0  0  0  0
    5.3424    3.5030   -3.4135 C   0  0  0  0  0  0  0  0  0  0  0  0
    4.8166    4.1977   -2.1314 C   0  0  0  0  0  0  0  0  0  0  0  0
    9.4516    3.5683   -1.4889 N   0  0  0  0  0  0  0  0  0  0  0  0
   10.6556    4.1379   -1.0165 C   0  0  2  0  0  0  0  0  0  0  0  0
   10.6293    5.3850   -0.2477 C   0  0  0  0  0  0  0  0  0  0  0  0
   10.3061    6.5212   -0.5701 O   0  0  0  0  0  0  0  0  0  0  0  0
   11.4260    4.4259   -2.3457 C   0  0  0  0  0  0  0  0  0  0  0  0
   11.1644    3.1303   -3.0549 C   0  0  0  0  0  0  0  0  0  0  0  0
    9.8326    2.6461   -2.5637 C   0  0  0  0  0  0  0  0  0  0  0  0
   11.0704    5.2265    1.1377 N   0  0  0  0  0  0  0  0  0  0  0  0
   11.3064    6.3791    1.9642 C   0  0  2  0  0  0  0  0  0  0  0  0
   10.7824    6.1803    3.3575 C   0  0  0  0  0  0  0  0  0  0  0  0
   11.0891    6.9849    4.2686 O   0  0  0  0  0  0  0  0  0  0  0  0
   10.8574    7.6769    1.3595 C   0  0  0  0  0  0  0  0  0  0  0  0
    9.9556    8.2771    2.2612 O   0  0  0  0  0  0  0  0  0  0  0  0
    9.9597    5.1165    3.6683 O   0  0  0  0  0  0  0  0  0  0  0  0
  2  1  1  6
  2  3  1  0
  2  5  1  0
  3  4  2  0
  3  8  1  0
  5  6  1  0
  5  7  1  1
  8  9  1  0
  9 10  1  0
  9 12  1  1
 10 11  2  0
 10 16  1  0
 12 13  1  0
 13 14  1  0
 13 15  2  0
 16 17  1  0
 17 18  1  0
 17 20  1  6
 18 19  2  0
 18 24  1  0
 20 21  1  0
 21 22  1  6
 21 23  1  0
 24 25  1  0
 24 30  1  0
 25 26  1  6
 25 28  1  0
 26 27  2  0
 26 31  1  0
 28 29  1  0
 29 30  1  0
 31 32  1  0
 32 33  1  1
 32 35  1  0
 33 34  1  0
 34 37  1  0
 35 36  2  0
 35 41  1  0
 37 38  2  0
 37 39  1  1
 37 40  1  0
 41 42  1  0
 42 43  1  0
 42 45  1  1
 43 44  2  0
 43 49  1  0
 45 46  1  0
 46 47  1  0
 46 48  2  0
 49 50  1  0
 49 55  1  0
 50 51  1  1
 50 53  1  0
 51 52  2  0
 51 56  1  0
 53 54  1  0
 54 55  1  0
 56 57  1  0
 56 62  1  0
 57 58  1  6
 57 60  1  0
 58 59  2  0
 58 63  1  0
 60 61  1  0
 61 62  1  0
 63 64  1  0
 64 65  1  0
 64 67  1  6
 65 66  2  0
 65 69  1  0
 67 68  1  0
M  CHG  1   1   1
M  END
$$$$
