
     RDKit          3D

 69 71  0  0  0  0  0  0  0  0999 V2000
    8.1576    8.0152    8.6007 N   0  0  0  0  0  4  0  0  0  0  0  0
    9.1617    7.1334    8.0652 C   0  0  2  0  0  0  0  0  0  0  0  0
    8.5662    6.3588    6.9493 C   0  0  0  0  0  0  0  0  0  0  0  0
    7.3211    6.5267    6.6836 O   0  0  0  0  0  0  0  0  0  0  0  0
    9.6878    6.2142    9.1669 C   0  0  2  0  0  0  0  0  0  0  0  0
    8.5913    5.6513    9.7929 O   0  0  0  0  0  0  0  0  0  0  0  0
   10.5323    6.9789   10.1450 C   0  0  0  0  0  0  0  0  0  0  0  0
    9.3348    5.4469    6.1810 N   0  0  0  0  0  0  0  0  0  0  0  0
    8.6990    4.8339    5.0597 C   0  0  2  0  0  0  0  0  0  0  0  0
    7.6273    3.8957    5.4465 C   0  0  0  0  0  0  0  0  0  0  0  0
    6.6986    3.6646    4.6460 O   0  0  0  0  0  0  0  0  0  0  0  0
    9.6744    4.0252    4.2118 C   0  0  0  0  0  0  0  0  0  0  0  0
    9.0706    3.5292    2.9803 C   0  0  0  0  0  0  0  0  0  0  0  0
    7.7593    3.8311    2.6613 O   0  0  0  0  0  0  0  0  0  0  0  0
    9.7248    2.8192    2.1871 O   0  0  0  0  0  0  0  0  0  0  0  0
    7.5876    3.2115    6.7302 N   0  0  0  0  0  0  0  0  0  0  0  0
    6.4930    2.3766    7.0671 C   0  0  2  0  0  0  0  0  0  0  0  0
    5.4568    2.1065    6.0767 C   0  0  0  0  0  0  0  0  0  0  0  0
    5.3003    3.1387    5.2739 O   0  0  0  0  0  0  0  0  0  0  0  0
    5.9561    2.6581    8.4669 C   0  0  0  0  0  0  0  0  0  0  0  0
    4.8084    1.8167    8.8856 C   0  0  1  0  0  0  0  0  0  0  0  0
    5.2715    0.4304    9.2445 C   0  0  0  0  0  0  0  0  0  0  0  0
    4.1228    2.3988   10.1295 C   0  0  0  0  0  0  0  0  0  0  0  0
    4.6324    1.0213    5.8187 N   0  0  0  0  0  0  0  0  0  0  0  0
    3.7291    0.9574    4.6648 C   0  0  2  0  0  0  0  0  0  0  0  0
    2.3735    0.5110    4.9722 C   0  0  0  0  0  0  0  0  0  0  0  0
    1.4064    0.3779    4.2025 O   0  0  0  0  0  0  0  0  0  0  0  0
    4.3916   -0.3327    4.0556 C   0  0  0  0  0  0  0  0  0  0  0  0
    4.3445   -1.2221    5.3134 C   0  0  0  0  0  0  0  0  0  0  0  0
    4.5292   -0.2232    6.4761 C   0  0  0  0  0  0  0  0  0  0  0  0
    2.0757    0.1764    6.3552 N   0  0  0  0  0  0  0  0  0  0  0  0
    0.7555    0.4802    6.8618 C   0  0  1  0  0  0  0  0  0  0  0  0
    0.7728    0.6086    8.3815 C   0  0  0  0  0  0  0  0  0  0  0  0
   -0.4732    0.8757    8.8891 O   0  0  0  0  0  0  0  0  0  0  0  0
    0.2919    1.8023    6.3423 C   0  0  0  0  0  0  0  0  0  0  0  0
   -0.9479    2.0159    6.1317 O   0  0  0  0  0  0  0  0  0  0  0  0
   -0.8440    2.5252    8.8676 P   0  0  1  0  0  5  0  0  0  0  0  0
   -0.1022    3.2804    7.8044 O   0  0  0  0  0  0  0  0  0  0  0  0
   -2.5096    2.7785    8.6566 O   0  0  0  0  0  0  0  0  0  0  0  0
   -0.4179    3.1822   10.3682 O   0  0  0  0  0  0  0  0  0  0  0  0
    1.1799    2.8665    6.0661 N   0  0  0  0  0  0  0  0  0  0  0  0
    0.7021    4.1260    5.3986 C   0  0  2  0  0  0  0  0  0  0  0  0
    1.1756    4.1332    4.0379 C   0  0  0  0  0  0  0  0  0  0  0  0
    2.4676    3.9321    3.8868 O   0  0  0  0  0  0  0  0  0  0  0  0
    1.4161    5.2435    6.2187 C   0  0  0  0  0  0  0  0  0  0  0  0
    1.1968    6.5769    5.6875 C   0  0  0  0  0  0  0  0  0  0  0  0
    1.7585    6.9584    4.4636 O   0  0  0  0  0  0  0  0  0  0  0  0
    0.5152    7.4426    6.2736 O   0  0  0  0  0  0  0  0  0  0  0  0
    0.4780    4.3159    2.8036 N   0  0  0  0  0  0  0  0  0  0  0  0
    1.0854    4.0830    1.4865 C   0  0  2  0  0  0  0  0  0  0  0  0
    2.3578    4.7543    1.2811 C   0  0  0  0  0  0  0  0  0  0  0  0
    2.5287    5.9737    1.6766 O   0  0  0  0  0  0  0  0  0  0  0  0
    0.0201    4.2895    0.4778 C   0  0  0  0  0  0  0  0  0  0  0  0
   -1.2426    3.9492    1.2841 C   0  0  0  0  0  0  0  0  0  0  0  0
   -0.9020    4.6022    2.6480 C   0  0  0  0  0  0  0  0  0  0  0  0
    3.4807    4.1754    0.6621 N   0  0  0  0  0  0  0  0  0  0  0  0
    4.0263    4.3888   -0.6240 C   0  0  2  0  0  0  0  0  0  0  0  0
    3.1780    4.8815   -1.7123 C   0  0  0  0  0  0  0  0  0  0  0  0
    2.1526    5.5506   -1.6921 O   0  0  0  0  0  0  0  0  0  0  0  0
    4.5054    2.9543   -1.0193 C   0  0  0  0  0  0  0  0  0  0  0  0
    5.1592    2.5603    0.2720 C   0  0  0  0  0  0  0  0  0  0  0  0
    4.4126    3.2802    1.3555 C   0  0  0  0  0  0  0  0  0  0  0  0
    3.6506    4.4961   -3.0416 N   0  0  0  0  0  0  0  0  0  0  0  0
    3.2777    5.2634   -4.1990 C   0  0  2  0  0  0  0  0  0  0  0  0
    3.8021    4.6494   -5.4652 C   0  0  0  0  0  0  0  0  0  0  0  0
    3.0244    4.4023   -6.4167 O   0  0  0  0  0  0  0  0  0  0  0  0
    3.5881    6.7278   -4.0971 C   0  0  0  0  0  0  0  0  0  0  0  0
    3.2703    7.3175   -5.3372 O   0  0  0  0  0  0  0  0  0  0  0  0
    5.1398    4.3425   -5.6117 O   0  0  0  0  0  0  0  0  0  0  0  0
  2  1  1  1
  2  3  1  0
  2  5  1  0
  3  4  2  0
  3  8  1  0
  5  6  1  0
  5  7  1  1
  8  9  1  0
  9 10  1  0
  9 12  1  1
 10 11  2  0
 10 16  1  0
 12 13  1  0
 13 14  1  0
 13 15  2  0
 16 17  1  0
 17 18  1  0
 17 20  1  1
 18 19  2  0
 18 24  1  0
 20 21  1  0
 21 22  1  1
 21 23  1  0
 24 25  1  0
 24 30  1  0
 25 26  1  1
 25 28  1  0
 26 27  2  0
 26 31  1  0
 28 29  1  0
 29 30  1  0
 31 32  1  0
 32 33  1  1
 32 35  1  0
 33 34  1  0
 34 37  1  0
 35 36  2  0
 35 41  1  0
 37 38  2  0
 37 39  1  6
 37 40  1  0
 41 42  1  0
 42 43  1  0
 42 45  1  1
 43 44  2  0
 43 49  1  0
 45 46  1  0
 46 47  1  0
 46 48  2  0
 49 50  1  0
 49 55  1  0
 50 51  1  6
 50 53  1  0
 51 52  2  0
 51 56  1  0
 53 54  1  0
 54 55  1  0
 56 57  1  0
 56 62  1  0
 57 58  1  6
 57 60  1  0
 58 59  2  0
 58 63  1  0
 60 61  1  0
 61 62  1  0
 63 64  1  0
 64 65  1  0
 64 67  1  1
 65 66  2  0
 65 69  1  0
 67 68  1  0
M  CHG  1   1   1
M  END
$$$$
