
     RDKit          3D

 69 71  0  0  0  0  0  0  0  0999 V2000
   13.2017    4.0371    9.2276 N   0  0  0  0  0  4  0  0  0  0  0  0
   13.6322    4.9103    8.1670 C   0  0  2  0  0  0  0  0  0  0  0  0
   12.5576    4.9834    7.1473 C   0  0  0  0  0  0  0  0  0  0  0  0
   11.6802    4.0464    7.1145 O   0  0  0  0  0  0  0  0  0  0  0  0
   14.9396    4.3944    7.5668 C   0  0  2  0  0  0  0  0  0  0  0  0
   14.7200    3.0923    7.1578 O   0  0  0  0  0  0  0  0  0  0  0  0
   16.0538    4.4626    8.5710 C   0  0  0  0  0  0  0  0  0  0  0  0
   12.4820    6.0534    6.2190 N   0  0  0  0  0  0  0  0  0  0  0  0
   11.4101    6.0312    5.2767 C   0  0  2  0  0  0  0  0  0  0  0  0
   11.3499    4.7764    4.5018 C   0  0  0  0  0  0  0  0  0  0  0  0
   10.9248    3.7392    5.0498 O   0  0  0  0  0  0  0  0  0  0  0  0
   11.5202    7.1509    4.2480 C   0  0  0  0  0  0  0  0  0  0  0  0
   10.2378    7.4791    3.6357 C   0  0  0  0  0  0  0  0  0  0  0  0
    9.0884    7.5666    4.3996 O   0  0  0  0  0  0  0  0  0  0  0  0
   10.1495    7.6869    2.4068 O   0  0  0  0  0  0  0  0  0  0  0  0
   11.7650    4.6741    3.1109 N   0  0  0  0  0  0  0  0  0  0  0  0
   11.1587    3.7285    2.2466 C   0  0  2  0  0  0  0  0  0  0  0  0
    9.7648    3.8977    1.8522 C   0  0  0  0  0  0  0  0  0  0  0  0
    8.9912    4.0055    2.9127 O   0  0  0  0  0  0  0  0  0  0  0  0
   11.5346    2.2930    2.5999 C   0  0  0  0  0  0  0  0  0  0  0  0
   11.0853    1.2642    1.6302 C   0  0  1  0  0  0  0  0  0  0  0  0
   11.7304    1.4841    0.2883 C   0  0  0  0  0  0  0  0  0  0  0  0
   11.4829   -0.1434    2.0958 C   0  0  0  0  0  0  0  0  0  0  0  0
    9.1124    3.9655    0.6301 N   0  0  0  0  0  0  0  0  0  0  0  0
    7.8570    4.6977    0.4312 C   0  0  2  0  0  0  0  0  0  0  0  0
    6.8322    3.9666   -0.3081 C   0  0  0  0  0  0  0  0  0  0  0  0
    6.9246    3.4025   -1.4120 O   0  0  0  0  0  0  0  0  0  0  0  0
    8.4467    5.6683   -0.6571 C   0  0  0  0  0  0  0  0  0  0  0  0
    9.0538    4.6075   -1.5960 C   0  0  0  0  0  0  0  0  0  0  0  0
    9.4972    3.4807   -0.6382 C   0  0  0  0  0  0  0  0  0  0  0  0
    5.5117    3.8718    0.2927 N   0  0  0  0  0  0  0  0  0  0  0  0
    5.1570    2.6445    0.9707 C   0  0  1  0  0  0  0  0  0  0  0  0
    6.4046    1.9016    1.4377 C   0  0  0  0  0  0  0  0  0  0  0  0
    6.4973    0.6516    0.8807 O   0  0  0  0  0  0  0  0  0  0  0  0
    4.3692    2.9423    2.2049 C   0  0  0  0  0  0  0  0  0  0  0  0
    4.1495    2.0292    3.0681 O   0  0  0  0  0  0  0  0  0  0  0  0
    6.8472   -0.5449    2.0230 P   0  0  1  0  0  5  0  0  0  0  0  0
    6.2322   -1.8725    1.6905 O   0  0  0  0  0  0  0  0  0  0  0  0
    8.5227   -0.7493    2.2063 O   0  0  0  0  0  0  0  0  0  0  0  0
    6.2315   -0.0443    3.5181 O   0  0  0  0  0  0  0  0  0  0  0  0
    3.8397    4.2234    2.4804 N   0  0  0  0  0  0  0  0  0  0  0  0
    3.1165    4.5065    3.7676 C   0  0  2  0  0  0  0  0  0  0  0  0
    2.2847    3.3741    4.0863 C   0  0  0  0  0  0  0  0  0  0  0  0
    1.7520    2.7545    3.0543 O   0  0  0  0  0  0  0  0  0  0  0  0
    2.2289    5.7351    3.4017 C   0  0  0  0  0  0  0  0  0  0  0  0
    1.3861    6.1830    4.4959 C   0  0  0  0  0  0  0  0  0  0  0  0
    0.1443    6.7770    4.2428 O   0  0  0  0  0  0  0  0  0  0  0  0
    1.7083    6.0720    5.6965 O   0  0  0  0  0  0  0  0  0  0  0  0
    1.9366    2.7912    5.3443 N   0  0  0  0  0  0  0  0  0  0  0  0
    1.0125    1.6580    5.4852 C   0  0  2  0  0  0  0  0  0  0  0  0
   -0.2605    1.8287    4.8054 C   0  0  0  0  0  0  0  0  0  0  0  0
   -0.4474    1.3314    3.6263 O   0  0  0  0  0  0  0  0  0  0  0  0
    0.9901    1.2960    6.9217 C   0  0  0  0  0  0  0  0  0  0  0  0
    2.3783    1.7654    7.3830 C   0  0  0  0  0  0  0  0  0  0  0  0
    2.5081    3.0997    6.6048 C   0  0  0  0  0  0  0  0  0  0  0  0
   -1.3673    2.5179    5.3337 N   0  0  0  0  0  0  0  0  0  0  0  0
   -2.6705    2.6880    4.8143 C   0  0  2  0  0  0  0  0  0  0  0  0
   -2.9067    2.5964    3.3711 C   0  0  0  0  0  0  0  0  0  0  0  0
   -3.1857    3.4573    2.5461 O   0  0  0  0  0  0  0  0  0  0  0  0
   -3.0092    4.1505    5.2501 C   0  0  0  0  0  0  0  0  0  0  0  0
   -2.5155    4.0946    6.6655 C   0  0  0  0  0  0  0  0  0  0  0  0
   -1.3840    3.1103    6.6752 C   0  0  0  0  0  0  0  0  0  0  0  0
   -2.7876    1.2371    2.8448 N   0  0  0  0  0  0  0  0  0  0  0  0
   -3.4392    0.8709    1.6165 C   0  0  2  0  0  0  0  0  0  0  0  0
   -3.8095    2.0776    0.8028 C   0  0  0  0  0  0  0  0  0  0  0  0
   -4.3503    1.9409   -0.3198 O   0  0  0  0  0  0  0  0  0  0  0  0
   -4.5840   -0.0844    1.7840 C   0  0  0  0  0  0  0  0  0  0  0  0
   -4.8014   -0.7105    0.5401 O   0  0  0  0  0  0  0  0  0  0  0  0
   -3.5646    3.3552    1.2642 O   0  0  0  0  0  0  0  0  0  0  0  0
  2  1  1  1
  2  3  1  0
  2  5  1  0
  3  4  2  0
  3  8  1  0
  5  6  1  0
  5  7  1  1
  8  9  1  0
  9 10  1  0
  9 12  1  6
 10 11  2  0
 10 16  1  0
 12 13  1  0
 13 14  1  0
 13 15  2  0
 16 17  1  0
 17 18  1  0
 17 20  1  1
 18 19  2  0
 18 24  1  0
 20 21  1  0
 21 22  1  6
 21 23  1  0
 24 25  1  0
 24 30  1  0
 25 26  1  6
 25 28  1  0
 26 27  2  0
 26 31  1  0
 28 29  1  0
 29 30  1  0
 31 32  1  0
 32 33  1  1
 32 35  1  0
 33 34  1  0
 34 37  1  0
 35 36  2  0
 35 41  1  0
 37 38  2  0
 37 39  1  1
 37 40  1  0
 41 42  1  0
 42 43  1  0
 42 45  1  6
 43 44  2  0
 43 49  1  0
 45 46  1  0
 46 47  1  0
 46 48  2  0
 49 50  1  0
 49 55  1  0
 50 51  1  1
 50 53  1  0
 51 52  2  0
 51 56  1  0
 53 54  1  0
 54 55  1  0
 56 57  1  0
 56 62  1  0
 57 58  1  6
 57 60  1  0
 58 59  2  0
 58 63  1  0
 60 61  1  0
 61 62  1  0
 63 64  1  0
 64 65  1  0
 64 67  1  1
 65 66  2  0
 65 69  1  0
 67 68  1  0
M  CHG  1   1   1
M  END
$$$$
