
     RDKit          3D

 69 71  0  0  0  0  0  0  0  0999 V2000
   -6.4352    3.7539   -0.4363 N   0  0  0  0  0  4  0  0  0  0  0  0
   -5.6130    3.1727    0.5927 C   0  0  2  0  0  0  0  0  0  0  0  0
   -4.2778    2.8734    0.0201 C   0  0  0  0  0  0  0  0  0  0  0  0
   -4.2045    2.5299   -1.2150 O   0  0  0  0  0  0  0  0  0  0  0  0
   -6.2813    1.9134    1.1432 C   0  0  2  0  0  0  0  0  0  0  0  0
   -7.5735    2.2537    1.4977 O   0  0  0  0  0  0  0  0  0  0  0  0
   -5.5233    1.3764    2.3228 C   0  0  0  0  0  0  0  0  0  0  0  0
   -3.0961    2.9567    0.8006 N   0  0  0  0  0  0  0  0  0  0  0  0
   -1.8624    2.6298    0.1615 C   0  0  2  0  0  0  0  0  0  0  0  0
   -0.7711    2.3615    1.1183 C   0  0  0  0  0  0  0  0  0  0  0  0
   -0.7229    3.0041    2.1867 O   0  0  0  0  0  0  0  0  0  0  0  0
   -1.3607    3.7539   -0.7379 C   0  0  0  0  0  0  0  0  0  0  0  0
   -0.1916    3.3682   -1.5200 C   0  0  0  0  0  0  0  0  0  0  0  0
   -0.1490    2.1540   -2.1806 O   0  0  0  0  0  0  0  0  0  0  0  0
    0.7979    4.1259   -1.6089 O   0  0  0  0  0  0  0  0  0  0  0  0
    0.2724    1.3743    0.8858 N   0  0  0  0  0  0  0  0  0  0  0  0
    1.2684    1.1355    1.8654 C   0  0  2  0  0  0  0  0  0  0  0  0
    1.7845    2.2454    2.6585 C   0  0  0  0  0  0  0  0  0  0  0  0
    1.9620    3.3117    1.9062 O   0  0  0  0  0  0  0  0  0  0  0  0
    2.3423    0.1674    1.3790 C   0  0  0  0  0  0  0  0  0  0  0  0
    3.3747   -0.1889    2.3828 C   0  0  1  0  0  0  0  0  0  0  0  0
    3.5410   -1.6826    2.4637 C   0  0  0  0  0  0  0  0  0  0  0  0
    4.7411    0.3964    2.0002 C   0  0  0  0  0  0  0  0  0  0  0  0
    2.1143    2.3996    3.9969 N   0  0  0  0  0  0  0  0  0  0  0  0
    2.5570    3.6744    4.5718 C   0  0  2  0  0  0  0  0  0  0  0  0
    3.7348    3.5834    5.4296 C   0  0  0  0  0  0  0  0  0  0  0  0
    3.9043    4.0525    6.5683 O   0  0  0  0  0  0  0  0  0  0  0  0
    1.3767    3.7636    5.6078 C   0  0  0  0  0  0  0  0  0  0  0  0
    1.5285    2.3658    6.2390 C   0  0  0  0  0  0  0  0  0  0  0  0
    2.0244    1.4874    5.0701 C   0  0  0  0  0  0  0  0  0  0  0  0
    4.8861    2.8617    4.9126 N   0  0  0  0  0  0  0  0  0  0  0  0
    6.1160    2.9052    5.6723 C   0  0  1  0  0  0  0  0  0  0  0  0
    6.2179    1.7070    6.6106 C   0  0  0  0  0  0  0  0  0  0  0  0
    4.9904    1.1539    6.8731 O   0  0  0  0  0  0  0  0  0  0  0  0
    7.2943    2.8132    4.7580 C   0  0  0  0  0  0  0  0  0  0  0  0
    7.7863    1.6776    4.4491 O   0  0  0  0  0  0  0  0  0  0  0  0
    4.4119    1.5550    8.4103 P   0  0  1  0  0  5  0  0  0  0  0  0
    4.4195    0.3952    9.3620 O   0  0  0  0  0  0  0  0  0  0  0  0
    5.3066    2.8269    9.0917 O   0  0  0  0  0  0  0  0  0  0  0  0
    2.8136    2.0888    8.2507 O   0  0  0  0  0  0  0  0  0  0  0  0
    7.9120    3.9524    4.1938 N   0  0  0  0  0  0  0  0  0  0  0  0
    8.8203    3.8354    3.0017 C   0  0  2  0  0  0  0  0  0  0  0  0
    9.8604    2.8865    3.3076 C   0  0  0  0  0  0  0  0  0  0  0  0
   10.3206    2.9284    4.5401 O   0  0  0  0  0  0  0  0  0  0  0  0
    9.4225    5.2688    2.8846 C   0  0  0  0  0  0  0  0  0  0  0  0
   10.5079    5.3609    1.9246 C   0  0  0  0  0  0  0  0  0  0  0  0
   10.2423    5.4329    0.5523 O   0  0  0  0  0  0  0  0  0  0  0  0
   11.7117    5.3784    2.2536 O   0  0  0  0  0  0  0  0  0  0  0  0
   10.4853    1.8874    2.4985 N   0  0  0  0  0  0  0  0  0  0  0  0
   11.5734    1.0224    2.9738 C   0  0  2  0  0  0  0  0  0  0  0  0
   12.6834    1.7309    3.5885 C   0  0  0  0  0  0  0  0  0  0  0  0
   13.0666    2.8772    3.1284 O   0  0  0  0  0  0  0  0  0  0  0  0
   11.8769    0.0706    1.8798 C   0  0  0  0  0  0  0  0  0  0  0  0
   10.5274   -0.0054    1.1496 C   0  0  0  0  0  0  0  0  0  0  0  0
   10.0843    1.4791    1.2011 C   0  0  0  0  0  0  0  0  0  0  0  0
   13.4194    1.2665    4.6938 N   0  0  0  0  0  0  0  0  0  0  0  0
   14.6364    1.7315    5.2415 C   0  0  2  0  0  0  0  0  0  0  0  0
   15.5899    2.4636    4.4038 C   0  0  0  0  0  0  0  0  0  0  0  0
   16.3461    2.0776    3.5214 O   0  0  0  0  0  0  0  0  0  0  0  0
   15.3283    0.4005    5.6809 C   0  0  0  0  0  0  0  0  0  0  0  0
   14.1540   -0.2729    6.3274 C   0  0  0  0  0  0  0  0  0  0  0  0
   12.9374    0.2219    5.6032 C   0  0  0  0  0  0  0  0  0  0  0  0
   15.6340    3.8980    4.6859 N   0  0  0  0  0  0  0  0  0  0  0  0
   16.7508    4.6926    4.2515 C   0  0  2  0  0  0  0  0  0  0  0  0
   18.0344    3.9139    4.2880 C   0  0  0  0  0  0  0  0  0  0  0  0
   18.7256    3.8838    5.3333 O   0  0  0  0  0  0  0  0  0  0  0  0
   16.8653    6.0244    4.9331 C   0  0  0  0  0  0  0  0  0  0  0  0
   15.7190    6.7733    4.5991 O   0  0  0  0  0  0  0  0  0  0  0  0
   18.4828    3.2199    3.1823 O   0  0  0  0  0  0  0  0  0  0  0  0
  2  1  1  6
  2  3  1  0
  2  5  1  0
  3  4  2  0
  3  8  1  0
  5  6  1  0
  5  7  1  1
  8  9  1  0
  9 10  1  0
  9 12  1  6
 10 11  2  0
 10 16  1  0
 12 13  1  0
 13 14  1  0
 13 15  2  0
 16 17  1  0
 17 18  1  0
 17 20  1  6
 18 19  2  0
 18 24  1  0
 20 21  1  0
 21 22  1  6
 21 23  1  0
 24 25  1  0
 24 30  1  0
 25 26  1  1
 25 28  1  0
 26 27  2  0
 26 31  1  0
 28 29  1  0
 29 30  1  0
 31 32  1  0
 32 33  1  1
 32 35  1  0
 33 34  1  0
 34 37  1  0
 35 36  2  0
 35 41  1  0
 37 38  2  0
 37 39  1  1
 37 40  1  0
 41 42  1  0
 42 43  1  0
 42 45  1  1
 43 44  2  0
 43 49  1  0
 45 46  1  0
 46 47  1  0
 46 48  2  0
 49 50  1  0
 49 55  1  0
 50 51  1  6
 50 53  1  0
 51 52  2  0
 51 56  1  0
 53 54  1  0
 54 55  1  0
 56 57  1  0
 56 62  1  0
 57 58  1  6
 57 60  1  0
 58 59  2  0
 58 63  1  0
 60 61  1  0
 61 62  1  0
 63 64  1  0
 64 65  1  0
 64 67  1  1
 65 66  2  0
 65 69  1  0
 67 68  1  0
M  CHG  1   1   1
M  END
$$$$
