
     RDKit          3D

 69 71  0  0  0  0  0  0  0  0999 V2000
   -0.9558  -20.7251   26.0908 N   0  0  0  0  0  4  0  0  0  0  0  0
   -0.8393  -20.4328   24.6859 C   0  0  2  0  0  0  0  0  0  0  0  0
    0.2938  -19.4962   24.4889 C   0  0  0  0  0  0  0  0  0  0  0  0
    0.6918  -18.7976   25.4902 O   0  0  0  0  0  0  0  0  0  0  0  0
   -2.1501  -19.8430   24.1669 C   0  0  2  0  0  0  0  0  0  0  0  0
   -2.4147  -18.7080   24.9105 O   0  0  0  0  0  0  0  0  0  0  0  0
   -3.2692  -20.8371   24.2855 C   0  0  0  0  0  0  0  0  0  0  0  0
    0.9370  -19.3580   23.2321 N   0  0  0  0  0  0  0  0  0  0  0  0
    2.0822  -18.5082   23.1702 C   0  0  2  0  0  0  0  0  0  0  0  0
    2.8604  -18.6793   21.9278 C   0  0  0  0  0  0  0  0  0  0  0  0
    3.1064  -19.8304   21.5141 O   0  0  0  0  0  0  0  0  0  0  0  0
    3.0583  -18.7679   24.3121 C   0  0  0  0  0  0  0  0  0  0  0  0
    4.2607  -17.9475   24.2207 C   0  0  0  0  0  0  0  0  0  0  0  0
    4.1982  -16.5760   24.3862 O   0  0  0  0  0  0  0  0  0  0  0  0
    5.3737  -18.4661   23.9892 O   0  0  0  0  0  0  0  0  0  0  0  0
    3.3683  -17.5650   21.1417 N   0  0  0  0  0  0  0  0  0  0  0  0
    3.4409  -17.6549   19.7291 C   0  0  2  0  0  0  0  0  0  0  0  0
    4.2262  -18.7169   19.1106 C   0  0  0  0  0  0  0  0  0  0  0  0
    4.4665  -19.6813   19.9747 O   0  0  0  0  0  0  0  0  0  0  0  0
    3.6108  -16.2909   19.0676 C   0  0  0  0  0  0  0  0  0  0  0  0
    3.5461  -16.2937   17.5856 C   0  0  1  0  0  0  0  0  0  0  0  0
    2.1590  -16.6426   17.1170 C   0  0  0  0  0  0  0  0  0  0  0  0
    3.8785  -14.9075   17.0165 C   0  0  0  0  0  0  0  0  0  0  0  0
    4.7525  -18.9097   17.8418 N   0  0  0  0  0  0  0  0  0  0  0  0
    5.7104  -19.9744   17.5247 C   0  0  2  0  0  0  0  0  0  0  0  0
    6.8633  -19.5465   16.7378 C   0  0  0  0  0  0  0  0  0  0  0  0
    7.7477  -20.2449   16.2130 O   0  0  0  0  0  0  0  0  0  0  0  0
    4.7886  -20.6589   16.4495 C   0  0  0  0  0  0  0  0  0  0  0  0
    4.4791  -19.4133   15.5963 C   0  0  0  0  0  0  0  0  0  0  0  0
    4.4588  -18.2609   16.6235 C   0  0  0  0  0  0  0  0  0  0  0  0
    7.0372  -18.1189   16.5257 N   0  0  0  0  0  0  0  0  0  0  0  0
    8.3730  -17.5726   16.6205 C   0  0  1  0  0  0  0  0  0  0  0  0
    8.7758  -16.8922   15.3162 C   0  0  0  0  0  0  0  0  0  0  0  0
   10.0972  -16.5246   15.3149 O   0  0  0  0  0  0  0  0  0  0  0  0
    8.4266  -16.5120   17.6716 C   0  0  0  0  0  0  0  0  0  0  0  0
    7.5027  -15.6364   17.7547 O   0  0  0  0  0  0  0  0  0  0  0  0
   10.5268  -15.6482   13.9343 P   0  0  1  0  0  5  0  0  0  0  0  0
    9.9621  -16.2280   12.6709 O   0  0  0  0  0  0  0  0  0  0  0  0
   10.0377  -14.0270   14.0578 O   0  0  0  0  0  0  0  0  0  0  0  0
   12.2145  -15.6596   13.8050 O   0  0  0  0  0  0  0  0  0  0  0  0
    9.4770  -16.4245   18.6132 N   0  0  0  0  0  0  0  0  0  0  0  0
    9.2995  -15.6871   19.9112 C   0  0  2  0  0  0  0  0  0  0  0  0
    9.4506  -14.2760   19.6628 C   0  0  0  0  0  0  0  0  0  0  0  0
   10.6324  -13.9024   19.2198 O   0  0  0  0  0  0  0  0  0  0  0  0
   10.4915  -16.2089   20.7703 C   0  0  0  0  0  0  0  0  0  0  0  0
   10.5826  -15.5757   22.0738 C   0  0  0  0  0  0  0  0  0  0  0  0
    9.6394  -14.6207   22.4703 O   0  0  0  0  0  0  0  0  0  0  0  0
   11.4836  -15.8341   22.8978 O   0  0  0  0  0  0  0  0  0  0  0  0
    8.5270  -13.1946   19.8077 N   0  0  0  0  0  0  0  0  0  0  0  0
    8.9221  -11.7802   19.7716 C   0  0  2  0  0  0  0  0  0  0  0  0
   10.0182  -11.4364   20.6617 C   0  0  0  0  0  0  0  0  0  0  0  0
   10.2216  -12.1128   21.7450 O   0  0  0  0  0  0  0  0  0  0  0  0
    7.6770  -10.9823   19.8620 C   0  0  0  0  0  0  0  0  0  0  0  0
    6.6445  -11.9464   19.2582 C   0  0  0  0  0  0  0  0  0  0  0  0
    7.1137  -13.2932   19.8653 C   0  0  0  0  0  0  0  0  0  0  0  0
   10.9274  -10.3845   20.4473 N   0  0  0  0  0  0  0  0  0  0  0  0
   11.6857   -9.6300   21.3707 C   0  0  2  0  0  0  0  0  0  0  0  0
   11.2344   -9.4934   22.7580 C   0  0  0  0  0  0  0  0  0  0  0  0
   10.1404   -9.1979   23.2218 O   0  0  0  0  0  0  0  0  0  0  0  0
   11.6596   -8.2046   20.7296 C   0  0  0  0  0  0  0  0  0  0  0  0
   11.9395   -8.5820   19.3050 C   0  0  0  0  0  0  0  0  0  0  0  0
   11.3639   -9.9539   19.1150 C   0  0  0  0  0  0  0  0  0  0  0  0
   12.2839   -9.7556   23.7422 N   0  0  0  0  0  0  0  0  0  0  0  0
   12.0940   -9.4015   25.1227 C   0  0  2  0  0  0  0  0  0  0  0  0
   11.6913   -7.9630   25.2770 C   0  0  0  0  0  0  0  0  0  0  0  0
   10.6234   -7.6652   25.8620 O   0  0  0  0  0  0  0  0  0  0  0  0
   13.2343   -9.7802   26.0215 C   0  0  0  0  0  0  0  0  0  0  0  0
   12.9005   -9.3706   27.3281 O   0  0  0  0  0  0  0  0  0  0  0  0
   12.4775   -6.9421   24.7821 O   0  0  0  0  0  0  0  0  0  0  0  0
  2  1  1  1
  2  3  1  0
  2  5  1  0
  3  4  2  0
  3  8  1  0
  5  6  1  0
  5  7  1  1
  8  9  1  0
  9 10  1  0
  9 12  1  1
 10 11  2  0
 10 16  1  0
 12 13  1  0
 13 14  1  0
 13 15  2  0
 16 17  1  0
 17 18  1  0
 17 20  1  1
 18 19  2  0
 18 24  1  0
 20 21  1  0
 21 22  1  1
 21 23  1  0
 24 25  1  0
 24 30  1  0
 25 26  1  6
 25 28  1  0
 26 27  2  0
 26 31  1  0
 28 29  1  0
 29 30  1  0
 31 32  1  0
 32 33  1  6
 32 35  1  0
 33 34  1  0
 34 37  1  0
 35 36  2  0
 35 41  1  0
 37 38  2  0
 37 39  1  1
 37 40  1  0
 41 42  1  0
 42 43  1  0
 42 45  1  1
 43 44  2  0
 43 49  1  0
 45 46  1  0
 46 47  1  0
 46 48  2  0
 49 50  1  0
 49 55  1  0
 50 51  1  1
 50 53  1  0
 51 52  2  0
 51 56  1  0
 53 54  1  0
 54 55  1  0
 56 57  1  0
 56 62  1  0
 57 58  1  1
 57 60  1  0
 58 59  2  0
 58 63  1  0
 60 61  1  0
 61 62  1  0
 63 64  1  0
 64 65  1  0
 64 67  1  1
 65 66  2  0
 65 69  1  0
 67 68  1  0
M  CHG  1   1   1
M  END
$$$$
