
     RDKit          3D

 69 71  0  0  0  0  0  0  0  0999 V2000
   -3.1808   -1.6229    6.1728 N   0  0  0  0  0  4  0  0  0  0  0  0
   -3.2526   -0.2935    5.6249 C   0  0  2  0  0  0  0  0  0  0  0  0
   -2.0192   -0.0358    4.8424 C   0  0  0  0  0  0  0  0  0  0  0  0
   -1.1668   -0.9874    4.7124 O   0  0  0  0  0  0  0  0  0  0  0  0
   -3.4241    0.7249    6.7514 C   0  0  2  0  0  0  0  0  0  0  0  0
   -2.4035    0.5114    7.6591 O   0  0  0  0  0  0  0  0  0  0  0  0
   -4.7669    0.5778    7.4069 C   0  0  0  0  0  0  0  0  0  0  0  0
   -1.7655    1.2252    4.2440 N   0  0  0  0  0  0  0  0  0  0  0  0
   -0.5848    1.3508    3.4520 C   0  0  2  0  0  0  0  0  0  0  0  0
    0.5220    2.0142    4.1685 C   0  0  0  0  0  0  0  0  0  0  0  0
    1.0854    2.9978    3.6470 O   0  0  0  0  0  0  0  0  0  0  0  0
   -0.8183    2.1756    2.1913 C   0  0  0  0  0  0  0  0  0  0  0  0
   -1.5722    1.4488    1.1761 C   0  0  0  0  0  0  0  0  0  0  0  0
   -2.0035    0.1547    1.4035 O   0  0  0  0  0  0  0  0  0  0  0  0
   -1.8436    1.9793    0.0779 O   0  0  0  0  0  0  0  0  0  0  0  0
    1.0053    1.5816    5.4711 N   0  0  0  0  0  0  0  0  0  0  0  0
    2.0872    2.2507    6.0958 C   0  0  2  0  0  0  0  0  0  0  0  0
    3.0141    3.0376    5.2902 C   0  0  0  0  0  0  0  0  0  0  0  0
    3.6556    2.2685    4.4349 O   0  0  0  0  0  0  0  0  0  0  0  0
    2.7633    1.3942    7.1617 C   0  0  0  0  0  0  0  0  0  0  0  0
    3.8162    2.0796    7.9505 C   0  0  1  0  0  0  0  0  0  0  0  0
    4.5817    3.0446    7.0857 C   0  0  0  0  0  0  0  0  0  0  0  0
    3.2033    2.8926    9.0992 C   0  0  0  0  0  0  0  0  0  0  0  0
    3.3449    4.3839    5.2443 N   0  0  0  0  0  0  0  0  0  0  0  0
    4.1487    4.9756    4.1694 C   0  0  2  0  0  0  0  0  0  0  0  0
    5.2199    5.8588    4.6209 C   0  0  0  0  0  0  0  0  0  0  0  0
    5.5358    6.1649    5.7836 O   0  0  0  0  0  0  0  0  0  0  0  0
    3.0313    5.9857    3.7161 C   0  0  0  0  0  0  0  0  0  0  0  0
    2.7265    6.6121    5.0909 C   0  0  0  0  0  0  0  0  0  0  0  0
    2.9513    5.4495    6.0816 C   0  0  0  0  0  0  0  0  0  0  0  0
    6.0431    6.4890    3.6018 N   0  0  0  0  0  0  0  0  0  0  0  0
    7.2740    7.1253    4.0162 C   0  0  1  0  0  0  0  0  0  0  0  0
    7.2738    7.3815    5.5198 C   0  0  0  0  0  0  0  0  0  0  0  0
    7.4631    8.7075    5.8153 O   0  0  0  0  0  0  0  0  0  0  0  0
    8.4377    6.2261    3.7520 C   0  0  0  0  0  0  0  0  0  0  0  0
    8.9319    6.1351    2.5796 O   0  0  0  0  0  0  0  0  0  0  0  0
    7.7062    9.6530    4.4349 P   0  0  1  0  0  5  0  0  0  0  0  0
    6.5636    9.5815    3.4651 O   0  0  0  0  0  0  0  0  0  0  0  0
    7.9761   11.2789    4.8425 O   0  0  0  0  0  0  0  0  0  0  0  0
    9.0951    9.0910    3.6474 O   0  0  0  0  0  0  0  0  0  0  0  0
    9.0445    5.4478    4.7638 N   0  0  0  0  0  0  0  0  0  0  0  0
   10.4278    4.8857    4.5893 C   0  0  2  0  0  0  0  0  0  0  0  0
   10.4646    4.1265    3.3653 C   0  0  0  0  0  0  0  0  0  0  0  0
    9.3153    3.6099    2.9847 O   0  0  0  0  0  0  0  0  0  0  0  0
   10.5697    3.9315    5.8142 C   0  0  0  0  0  0  0  0  0  0  0  0
   11.3159    4.5145    6.9150 C   0  0  0  0  0  0  0  0  0  0  0  0
   12.5916    5.0513    6.7068 O   0  0  0  0  0  0  0  0  0  0  0  0
   10.8799    4.5695    8.0830 O   0  0  0  0  0  0  0  0  0  0  0  0
   11.5440    3.8371    2.4739 N   0  0  0  0  0  0  0  0  0  0  0  0
   11.4016    3.0067    1.2704 C   0  0  2  0  0  0  0  0  0  0  0  0
   10.7694    1.7180    1.4972 C   0  0  0  0  0  0  0  0  0  0  0  0
   10.9891    1.0617    2.5897 O   0  0  0  0  0  0  0  0  0  0  0  0
   12.7101    3.0262    0.5759 C   0  0  0  0  0  0  0  0  0  0  0  0
   13.2838    4.3771    1.0299 C   0  0  0  0  0  0  0  0  0  0  0  0
   12.8473    4.3939    2.5171 C   0  0  0  0  0  0  0  0  0  0  0  0
    9.8952    1.0825    0.5966 N   0  0  0  0  0  0  0  0  0  0  0  0
    9.4311   -0.2518    0.5617 C   0  0  2  0  0  0  0  0  0  0  0  0
   10.2173   -1.3224    1.1804 C   0  0  0  0  0  0  0  0  0  0  0  0
   11.4272   -1.4573    1.3127 O   0  0  0  0  0  0  0  0  0  0  0  0
    9.3775   -0.5405   -0.9736 C   0  0  0  0  0  0  0  0  0  0  0  0
    8.7345    0.7353   -1.4307 C   0  0  0  0  0  0  0  0  0  0  0  0
    9.1685    1.7934   -0.4604 C   0  0  0  0  0  0  0  0  0  0  0  0
    9.4010   -2.4071    1.7242 N   0  0  0  0  0  0  0  0  0  0  0  0
   10.0212   -3.5426    2.3514 C   0  0  2  0  0  0  0  0  0  0  0  0
    9.8359   -4.7942    1.5423 C   0  0  0  0  0  0  0  0  0  0  0  0
   10.3378   -5.8760    1.9284 O   0  0  0  0  0  0  0  0  0  0  0  0
    9.6546   -3.7297    3.7943 C   0  0  0  0  0  0  0  0  0  0  0  0
   10.3380   -4.8700    4.2627 O   0  0  0  0  0  0  0  0  0  0  0  0
    9.1175   -4.7854    0.3639 O   0  0  0  0  0  0  0  0  0  0  0  0
  2  1  1  1
  2  3  1  0
  2  5  1  0
  3  4  2  0
  3  8  1  0
  5  6  1  0
  5  7  1  1
  8  9  1  0
  9 10  1  0
  9 12  1  6
 10 11  2  0
 10 16  1  0
 12 13  1  0
 13 14  1  0
 13 15  2  0
 16 17  1  0
 17 18  1  0
 17 20  1  6
 18 19  2  0
 18 24  1  0
 20 21  1  0
 21 22  1  6
 21 23  1  0
 24 25  1  0
 24 30  1  0
 25 26  1  1
 25 28  1  0
 26 27  2  0
 26 31  1  0
 28 29  1  0
 29 30  1  0
 31 32  1  0
 32 33  1  1
 32 35  1  0
 33 34  1  0
 34 37  1  0
 35 36  2  0
 35 41  1  0
 37 38  2  0
 37 39  1  1
 37 40  1  0
 41 42  1  0
 42 43  1  0
 42 45  1  1
 43 44  2  0
 43 49  1  0
 45 46  1  0
 46 47  1  0
 46 48  2  0
 49 50  1  0
 49 55  1  0
 50 51  1  1
 50 53  1  0
 51 52  2  0
 51 56  1  0
 53 54  1  0
 54 55  1  0
 56 57  1  0
 56 62  1  0
 57 58  1  1
 57 60  1  0
 58 59  2  0
 58 63  1  0
 60 61  1  0
 61 62  1  0
 63 64  1  0
 64 65  1  0
 64 67  1  1
 65 66  2  0
 65 69  1  0
 67 68  1  0
M  CHG  1   1   1
M  END
$$$$
