
     RDKit          3D

 69 71  0  0  0  0  0  0  0  0999 V2000
    2.0770    5.2351   -1.5342 N   0  0  0  0  0  4  0  0  0  0  0  0
    3.1719    6.0189   -2.0438 C   0  0  2  0  0  0  0  0  0  0  0  0
    4.3429    5.1290   -2.2362 C   0  0  0  0  0  0  0  0  0  0  0  0
    4.3433    3.9837   -1.6554 O   0  0  0  0  0  0  0  0  0  0  0  0
    3.4885    7.1601   -1.0779 C   0  0  2  0  0  0  0  0  0  0  0  0
    3.7929    6.5925    0.1454 O   0  0  0  0  0  0  0  0  0  0  0  0
    2.3242    8.1009   -0.9599 C   0  0  0  0  0  0  0  0  0  0  0  0
    5.4483    5.5140   -3.0376 N   0  0  0  0  0  0  0  0  0  0  0  0
    6.5440    4.6036   -3.1263 C   0  0  2  0  0  0  0  0  0  0  0  0
    7.4285    4.6495   -1.9456 C   0  0  0  0  0  0  0  0  0  0  0  0
    7.0645    5.2812   -0.9332 O   0  0  0  0  0  0  0  0  0  0  0  0
    7.4381    4.8892   -4.3277 C   0  0  0  0  0  0  0  0  0  0  0  0
    7.8754    6.2794   -4.3847 C   0  0  0  0  0  0  0  0  0  0  0  0
    7.8329    7.0832   -3.2602 O   0  0  0  0  0  0  0  0  0  0  0  0
    8.2966    6.7750   -5.4515 O   0  0  0  0  0  0  0  0  0  0  0  0
    8.7247    3.9904   -1.8906 N   0  0  0  0  0  0  0  0  0  0  0  0
    9.3064    3.6497   -0.6439 C   0  0  2  0  0  0  0  0  0  0  0  0
    8.5402    2.8740    0.3248 C   0  0  0  0  0  0  0  0  0  0  0  0
    7.2946    2.7279   -0.0773 O   0  0  0  0  0  0  0  0  0  0  0  0
   10.0905    4.8067   -0.0326 C   0  0  0  0  0  0  0  0  0  0  0  0
   10.6873    4.5337    1.2978 C   0  0  1  0  0  0  0  0  0  0  0  0
   10.7368    3.0528    1.5620 C   0  0  0  0  0  0  0  0  0  0  0  0
   12.1298    5.0531    1.3721 C   0  0  0  0  0  0  0  0  0  0  0  0
    8.8469    2.2803    1.5402 N   0  0  0  0  0  0  0  0  0  0  0  0
    7.9292    1.3803    2.2469 C   0  0  2  0  0  0  0  0  0  0  0  0
    7.7776    1.6560    3.6725 C   0  0  0  0  0  0  0  0  0  0  0  0
    6.9483    1.1861    4.4705 O   0  0  0  0  0  0  0  0  0  0  0  0
    8.9155    0.1550    2.2314 C   0  0  0  0  0  0  0  0  0  0  0  0
   10.1534    0.8583    2.8215 C   0  0  0  0  0  0  0  0  0  0  0  0
   10.0409    2.3043    2.2922 C   0  0  0  0  0  0  0  0  0  0  0  0
    8.6972    2.6091    4.2721 N   0  0  0  0  0  0  0  0  0  0  0  0
    8.3576    3.1652    5.5634 C   0  0  1  0  0  0  0  0  0  0  0  0
    9.4967    4.0254    6.1011 C   0  0  0  0  0  0  0  0  0  0  0  0
   10.7225    3.4500    5.8831 O   0  0  0  0  0  0  0  0  0  0  0  0
    7.1773    4.0736    5.4431 C   0  0  0  0  0  0  0  0  0  0  0  0
    7.3281    5.2842    5.0706 O   0  0  0  0  0  0  0  0  0  0  0  0
   11.9930    4.3650    6.5214 P   0  0  1  0  0  5  0  0  0  0  0  0
   12.6963    5.1949    5.4881 O   0  0  0  0  0  0  0  0  0  0  0  0
   11.4516    5.3852    7.7658 O   0  0  0  0  0  0  0  0  0  0  0  0
   13.1242    3.3010    7.1948 O   0  0  0  0  0  0  0  0  0  0  0  0
    5.8584    3.6506    5.7243 N   0  0  0  0  0  0  0  0  0  0  0  0
    4.6723    4.4869    5.3320 C   0  0  2  0  0  0  0  0  0  0  0  0
    3.4931    3.9269    5.9414 C   0  0  0  0  0  0  0  0  0  0  0  0
    3.2746    2.6539    5.6876 O   0  0  0  0  0  0  0  0  0  0  0  0
    4.6145    4.2997    3.7852 C   0  0  0  0  0  0  0  0  0  0  0  0
    3.5014    4.9934    3.1623 C   0  0  0  0  0  0  0  0  0  0  0  0
    3.5394    6.3801    2.9762 O   0  0  0  0  0  0  0  0  0  0  0  0
    2.4693    4.4135    2.7674 O   0  0  0  0  0  0  0  0  0  0  0  0
    2.5073    4.5168    6.7922 N   0  0  0  0  0  0  0  0  0  0  0  0
    1.6732    3.7455    7.7234 C   0  0  2  0  0  0  0  0  0  0  0  0
    0.9954    2.6071    7.1261 C   0  0  0  0  0  0  0  0  0  0  0  0
    0.5846    2.6560    5.9008 O   0  0  0  0  0  0  0  0  0  0  0  0
    0.8558    4.7221    8.4804 C   0  0  0  0  0  0  0  0  0  0  0  0
    1.7449    5.9742    8.4349 C   0  0  0  0  0  0  0  0  0  0  0  0
    2.2742    5.9028    6.9797 C   0  0  0  0  0  0  0  0  0  0  0  0
    0.7298    1.3934    7.7861 N   0  0  0  0  0  0  0  0  0  0  0  0
   -0.2438    0.4038    7.5217 C   0  0  2  0  0  0  0  0  0  0  0  0
   -1.4785    0.7545    6.8149 C   0  0  0  0  0  0  0  0  0  0  0  0
   -1.9069    1.8366    6.4341 O   0  0  0  0  0  0  0  0  0  0  0  0
   -0.6449   -0.0547    8.9612 C   0  0  0  0  0  0  0  0  0  0  0  0
    0.7243   -0.1604    9.5647 C   0  0  0  0  0  0  0  0  0  0  0  0
    1.5709    0.8589    8.8620 C   0  0  0  0  0  0  0  0  0  0  0  0
   -2.3334   -0.3964    6.5264 N   0  0  0  0  0  0  0  0  0  0  0  0
   -3.6011   -0.2174    5.8720 C   0  0  2  0  0  0  0  0  0  0  0  0
   -4.6405   -1.1604    6.4066 C   0  0  0  0  0  0  0  0  0  0  0  0
   -4.8280   -2.2713    5.8570 O   0  0  0  0  0  0  0  0  0  0  0  0
   -3.5308   -0.2269    4.3732 C   0  0  0  0  0  0  0  0  0  0  0  0
   -2.8010    0.9109    3.9741 O   0  0  0  0  0  0  0  0  0  0  0  0
   -5.4096   -0.8309    7.5043 O   0  0  0  0  0  0  0  0  0  0  0  0
  2  1  1  1
  2  3  1  0
  2  5  1  0
  3  4  2  0
  3  8  1  0
  5  6  1  0
  5  7  1  1
  8  9  1  0
  9 10  1  0
  9 12  1  6
 10 11  2  0
 10 16  1  0
 12 13  1  0
 13 14  1  0
 13 15  2  0
 16 17  1  0
 17 18  1  0
 17 20  1  1
 18 19  2  0
 18 24  1  0
 20 21  1  0
 21 22  1  6
 21 23  1  0
 24 25  1  0
 24 30  1  0
 25 26  1  1
 25 28  1  0
 26 27  2  0
 26 31  1  0
 28 29  1  0
 29 30  1  0
 31 32  1  0
 32 33  1  6
 32 35  1  0
 33 34  1  0
 34 37  1  0
 35 36  2  0
 35 41  1  0
 37 38  2  0
 37 39  1  1
 37 40  1  0
 41 42  1  0
 42 43  1  0
 42 45  1  6
 43 44  2  0
 43 49  1  0
 45 46  1  0
 46 47  1  0
 46 48  2  0
 49 50  1  0
 49 55  1  0
 50 51  1  6
 50 53  1  0
 51 52  2  0
 51 56  1  0
 53 54  1  0
 54 55  1  0
 56 57  1  0
 56 62  1  0
 57 58  1  1
 57 60  1  0
 58 59  2  0
 58 63  1  0
 60 61  1  0
 61 62  1  0
 63 64  1  0
 64 65  1  0
 64 67  1  6
 65 66  2  0
 65 69  1  0
 67 68  1  0
M  CHG  1   1   1
M  END
$$$$
