
     RDKit          3D

 69 71  0  0  0  0  0  0  0  0999 V2000
    1.4088    2.2716   -6.7767 N   0  0  0  0  0  4  0  0  0  0  0  0
    1.4635    3.3401   -5.8134 C   0  0  2  0  0  0  0  0  0  0  0  0
    2.6013    3.0925   -4.8946 C   0  0  0  0  0  0  0  0  0  0  0  0
    3.0861    1.9053   -4.8268 O   0  0  0  0  0  0  0  0  0  0  0  0
    0.1395    3.4249   -5.0548 C   0  0  2  0  0  0  0  0  0  0  0  0
   -0.1331    2.1637   -4.5587 O   0  0  0  0  0  0  0  0  0  0  0  0
   -0.9645    3.8992   -5.9553 C   0  0  0  0  0  0  0  0  0  0  0  0
    3.1562    4.1276   -4.0990 N   0  0  0  0  0  0  0  0  0  0  0  0
    4.1986    3.7715   -3.1913 C   0  0  2  0  0  0  0  0  0  0  0  0
    3.6914    3.2899   -1.8915 C   0  0  0  0  0  0  0  0  0  0  0  0
    2.6453    3.7827   -1.4229 O   0  0  0  0  0  0  0  0  0  0  0  0
    5.1144    4.9474   -2.8711 C   0  0  0  0  0  0  0  0  0  0  0  0
    5.9926    5.2944   -3.9827 C   0  0  0  0  0  0  0  0  0  0  0  0
    6.8183    4.3455   -4.5575 O   0  0  0  0  0  0  0  0  0  0  0  0
    6.0192    6.4573   -4.4389 O   0  0  0  0  0  0  0  0  0  0  0  0
    4.3510    2.2558   -1.1084 N   0  0  0  0  0  0  0  0  0  0  0  0
    3.7947    1.8181    0.1194 C   0  0  2  0  0  0  0  0  0  0  0  0
    3.6961    2.7453    1.2409 C   0  0  0  0  0  0  0  0  0  0  0  0
    4.8729    2.9184    1.8062 O   0  0  0  0  0  0  0  0  0  0  0  0
    4.2695    0.4215    0.5079 C   0  0  0  0  0  0  0  0  0  0  0  0
    3.7153   -0.1045    1.7794 C   0  0  1  0  0  0  0  0  0  0  0  0
    4.2860    0.6427    2.9548 C   0  0  0  0  0  0  0  0  0  0  0  0
    2.1913    0.0709    1.8311 C   0  0  0  0  0  0  0  0  0  0  0  0
    2.6510    3.4563    1.8121 N   0  0  0  0  0  0  0  0  0  0  0  0
    2.8469    4.4743    2.8499 C   0  0  2  0  0  0  0  0  0  0  0  0
    1.9413    4.3687    3.9901 C   0  0  0  0  0  0  0  0  0  0  0  0
    1.0708    5.1719    4.3675 O   0  0  0  0  0  0  0  0  0  0  0  0
    2.2113    5.6400    2.0063 C   0  0  0  0  0  0  0  0  0  0  0  0
    0.8860    4.9475    1.6329 C   0  0  0  0  0  0  0  0  0  0  0  0
    1.2734    3.4584    1.5055 C   0  0  0  0  0  0  0  0  0  0  0  0
    2.0487    3.1823    4.8234 N   0  0  0  0  0  0  0  0  0  0  0  0
    0.9438    2.8617    5.6999 C   0  0  1  0  0  0  0  0  0  0  0  0
   -0.1275    2.0702    4.9565 C   0  0  0  0  0  0  0  0  0  0  0  0
   -0.8873    2.8719    4.1432 O   0  0  0  0  0  0  0  0  0  0  0  0
    1.4051    1.9820    6.8161 C   0  0  0  0  0  0  0  0  0  0  0  0
    0.8730    2.0710    7.9721 O   0  0  0  0  0  0  0  0  0  0  0  0
   -2.3236    2.1262    3.6537 P   0  0  1  0  0  5  0  0  0  0  0  0
   -3.0722    1.4910    4.7883 O   0  0  0  0  0  0  0  0  0  0  0  0
   -3.3514    3.2264    2.8689 O   0  0  0  0  0  0  0  0  0  0  0  0
   -1.9358    0.9123    2.5397 O   0  0  0  0  0  0  0  0  0  0  0  0
    2.4295    1.0216    6.6561 N   0  0  0  0  0  0  0  0  0  0  0  0
    3.8214    1.2760    7.1641 C   0  0  2  0  0  0  0  0  0  0  0  0
    3.7369    2.0976    8.3446 C   0  0  0  0  0  0  0  0  0  0  0  0
    3.3613    3.3429    8.1423 O   0  0  0  0  0  0  0  0  0  0  0  0
    4.4724    2.0812    5.9984 C   0  0  0  0  0  0  0  0  0  0  0  0
    5.8494    2.4610    6.2593 C   0  0  0  0  0  0  0  0  0  0  0  0
    6.8968    1.5703    5.9972 O   0  0  0  0  0  0  0  0  0  0  0  0
    6.1757    3.5727    6.7230 O   0  0  0  0  0  0  0  0  0  0  0  0
    3.9858    1.7925    9.7188 N   0  0  0  0  0  0  0  0  0  0  0  0
    3.8968    2.7841   10.7989 C   0  0  2  0  0  0  0  0  0  0  0  0
    4.6488    4.0048   10.5615 C   0  0  0  0  0  0  0  0  0  0  0  0
    5.7968    3.9642    9.9674 O   0  0  0  0  0  0  0  0  0  0  0  0
    4.1311    2.0596   12.0698 C   0  0  0  0  0  0  0  0  0  0  0  0
    3.6585    0.6423   11.7122 C   0  0  0  0  0  0  0  0  0  0  0  0
    4.2115    0.5059   10.2706 C   0  0  0  0  0  0  0  0  0  0  0  0
    4.2263    5.2939   10.9342 N   0  0  0  0  0  0  0  0  0  0  0  0
    4.9800    6.4506   11.2363 C   0  0  2  0  0  0  0  0  0  0  0  0
    6.3603    6.3276   11.7125 C   0  0  0  0  0  0  0  0  0  0  0  0
    6.8629    5.5704   12.5331 O   0  0  0  0  0  0  0  0  0  0  0  0
    4.1446    7.0945   12.3900 C   0  0  0  0  0  0  0  0  0  0  0  0
    2.7734    6.9417   11.8013 C   0  0  0  0  0  0  0  0  0  0  0  0
    2.8202    5.7105   10.9461 C   0  0  0  0  0  0  0  0  0  0  0  0
    7.2791    7.2820   11.0930 N   0  0  0  0  0  0  0  0  0  0  0  0
    8.6484    6.9203   10.8451 C   0  0  2  0  0  0  0  0  0  0  0  0
    9.4533    6.8901   12.1126 C   0  0  0  0  0  0  0  0  0  0  0  0
    9.8542    5.7984   12.5804 O   0  0  0  0  0  0  0  0  0  0  0  0
    9.3121    7.7161    9.7599 C   0  0  0  0  0  0  0  0  0  0  0  0
   10.6308    7.2366    9.6263 O   0  0  0  0  0  0  0  0  0  0  0  0
    9.7675    8.0513   12.7893 O   0  0  0  0  0  0  0  0  0  0  0  0
  2  1  1  6
  2  3  1  0
  2  5  1  0
  3  4  2  0
  3  8  1  0
  5  6  1  0
  5  7  1  6
  8  9  1  0
  9 10  1  0
  9 12  1  1
 10 11  2  0
 10 16  1  0
 12 13  1  0
 13 14  1  0
 13 15  2  0
 16 17  1  0
 17 18  1  0
 17 20  1  1
 18 19  2  0
 18 24  1  0
 20 21  1  0
 21 22  1  1
 21 23  1  0
 24 25  1  0
 24 30  1  0
 25 26  1  1
 25 28  1  0
 26 27  2  0
 26 31  1  0
 28 29  1  0
 29 30  1  0
 31 32  1  0
 32 33  1  6
 32 35  1  0
 33 34  1  0
 34 37  1  0
 35 36  2  0
 35 41  1  0
 37 38  2  0
 37 39  1  6
 37 40  1  0
 41 42  1  0
 42 43  1  0
 42 45  1  6
 43 44  2  0
 43 49  1  0
 45 46  1  0
 46 47  1  0
 46 48  2  0
 49 50  1  0
 49 55  1  0
 50 51  1  6
 50 53  1  0
 51 52  2  0
 51 56  1  0
 53 54  1  0
 54 55  1  0
 56 57  1  0
 56 62  1  0
 57 58  1  1
 57 60  1  0
 58 59  2  0
 58 63  1  0
 60 61  1  0
 61 62  1  0
 63 64  1  0
 64 65  1  0
 64 67  1  6
 65 66  2  0
 65 69  1  0
 67 68  1  0
M  CHG  1   1   1
M  END
$$$$
