
     RDKit          3D

 69 71  0  0  0  0  0  0  0  0999 V2000
   -1.1494    1.1418   14.6647 N   0  0  0  0  0  4  0  0  0  0  0  0
   -0.0510    0.9382   13.7565 C   0  0  2  0  0  0  0  0  0  0  0  0
    0.0761    2.1355   12.8902 C   0  0  0  0  0  0  0  0  0  0  0  0
   -0.9776    2.8260   12.6418 O   0  0  0  0  0  0  0  0  0  0  0  0
   -0.2853   -0.3271   12.9322 C   0  0  2  0  0  0  0  0  0  0  0  0
   -1.4962   -0.1776   12.2822 O   0  0  0  0  0  0  0  0  0  0  0  0
   -0.2927   -1.5450   13.8103 C   0  0  0  0  0  0  0  0  0  0  0  0
    1.3225    2.5266   12.3370 N   0  0  0  0  0  0  0  0  0  0  0  0
    1.3255    3.6446   11.4497 C   0  0  2  0  0  0  0  0  0  0  0  0
    1.1650    3.2576   10.0344 C   0  0  0  0  0  0  0  0  0  0  0  0
    0.6493    2.1560    9.7565 O   0  0  0  0  0  0  0  0  0  0  0  0
    2.6266    4.4360   11.5199 C   0  0  0  0  0  0  0  0  0  0  0  0
    2.6660    5.3527   12.6536 C   0  0  0  0  0  0  0  0  0  0  0  0
    1.5292    6.0267   13.0609 O   0  0  0  0  0  0  0  0  0  0  0  0
    3.7284    5.5503   13.2807 O   0  0  0  0  0  0  0  0  0  0  0  0
    1.5806    4.0993    8.9225 N   0  0  0  0  0  0  0  0  0  0  0  0
    1.2108    3.7713    7.5942 C   0  0  2  0  0  0  0  0  0  0  0  0
    2.1433    3.0420    6.7423 C   0  0  0  0  0  0  0  0  0  0  0  0
    3.2525    2.7659    7.3964 O   0  0  0  0  0  0  0  0  0  0  0  0
    0.4932    4.9185    6.8901 C   0  0  0  0  0  0  0  0  0  0  0  0
   -0.0155    4.6082    5.5316 C   0  0  1  0  0  0  0  0  0  0  0  0
   -1.1576    3.6307    5.6046 C   0  0  0  0  0  0  0  0  0  0  0  0
   -0.5470    5.8712    4.8400 C   0  0  0  0  0  0  0  0  0  0  0  0
    2.0999    2.5963    5.4295 N   0  0  0  0  0  0  0  0  0  0  0  0
    3.2212    1.9108    4.7781 C   0  0  2  0  0  0  0  0  0  0  0  0
    3.5452    2.4004    3.4414 C   0  0  0  0  0  0  0  0  0  0  0  0
    4.6547    2.4590    2.8837 O   0  0  0  0  0  0  0  0  0  0  0  0
    2.4113    0.5955    4.4813 C   0  0  0  0  0  0  0  0  0  0  0  0
    1.1936    1.2359    3.7866 C   0  0  0  0  0  0  0  0  0  0  0  0
    1.0376    2.5961    4.5004 C   0  0  0  0  0  0  0  0  0  0  0  0
    2.4498    2.9018    2.6277 N   0  0  0  0  0  0  0  0  0  0  0  0
    2.5259    4.2630    2.1450 C   0  0  1  0  0  0  0  0  0  0  0  0
    1.8851    5.2281    3.1372 C   0  0  0  0  0  0  0  0  0  0  0  0
    0.6141    5.5820    2.7622 O   0  0  0  0  0  0  0  0  0  0  0  0
    3.9523    4.6898    2.0184 C   0  0  0  0  0  0  0  0  0  0  0  0
    4.2430    5.8567    1.5930 O   0  0  0  0  0  0  0  0  0  0  0  0
    0.4858    7.2206    2.3657 P   0  0  1  0  0  5  0  0  0  0  0  0
   -0.1878    8.0324    3.4327 O   0  0  0  0  0  0  0  0  0  0  0  0
    2.0096    7.8970    2.0446 O   0  0  0  0  0  0  0  0  0  0  0  0
   -0.4346    7.3516    0.9512 O   0  0  0  0  0  0  0  0  0  0  0  0
    5.0335    3.8458    2.3594 N   0  0  0  0  0  0  0  0  0  0  0  0
    6.4554    4.2589    2.0999 C   0  0  2  0  0  0  0  0  0  0  0  0
    6.6341    4.4251    0.6799 C   0  0  0  0  0  0  0  0  0  0  0  0
    5.6864    3.9096   -0.0742 O   0  0  0  0  0  0  0  0  0  0  0  0
    7.2695    3.0268    2.6001 C   0  0  0  0  0  0  0  0  0  0  0  0
    7.6290    3.1057    4.0046 C   0  0  0  0  0  0  0  0  0  0  0  0
    7.3875    2.0280    4.8643 O   0  0  0  0  0  0  0  0  0  0  0  0
    8.1585    4.1119    4.5192 O   0  0  0  0  0  0  0  0  0  0  0  0
    7.6710    5.0673   -0.0656 N   0  0  0  0  0  0  0  0  0  0  0  0
    7.5420    5.4378   -1.4812 C   0  0  2  0  0  0  0  0  0  0  0  0
    7.0915    4.3621   -2.3483 C   0  0  0  0  0  0  0  0  0  0  0  0
    7.4577    3.1418   -2.1258 O   0  0  0  0  0  0  0  0  0  0  0  0
    8.7826    6.1571   -1.8535 C   0  0  0  0  0  0  0  0  0  0  0  0
    9.2184    6.7460   -0.5031 C   0  0  0  0  0  0  0  0  0  0  0  0
    8.8957    5.5649    0.4474 C   0  0  0  0  0  0  0  0  0  0  0  0
    6.2511    4.5282   -3.4642 N   0  0  0  0  0  0  0  0  0  0  0  0
    5.9691    3.6494   -4.5344 C   0  0  2  0  0  0  0  0  0  0  0  0
    6.9324    2.6109   -4.9090 C   0  0  0  0  0  0  0  0  0  0  0  0
    8.0786    2.6928   -5.3322 O   0  0  0  0  0  0  0  0  0  0  0  0
    5.8500    4.6327   -5.7437 C   0  0  0  0  0  0  0  0  0  0  0  0
    5.0117    5.6972   -5.0999 C   0  0  0  0  0  0  0  0  0  0  0  0
    5.3650    5.6831   -3.6424 C   0  0  0  0  0  0  0  0  0  0  0  0
    6.4187    1.2514   -4.7458 N   0  0  0  0  0  0  0  0  0  0  0  0
    6.8172    0.2076   -5.6509 C   0  0  2  0  0  0  0  0  0  0  0  0
    7.2208    0.7568   -6.9891 C   0  0  0  0  0  0  0  0  0  0  0  0
    7.2636    0.0070   -7.9928 O   0  0  0  0  0  0  0  0  0  0  0  0
    5.8359   -0.9219   -5.7637 C   0  0  0  0  0  0  0  0  0  0  0  0
    6.4113   -1.9041   -6.5948 O   0  0  0  0  0  0  0  0  0  0  0  0
    7.5536    2.0870   -7.1465 O   0  0  0  0  0  0  0  0  0  0  0  0
  2  1  1  1
  2  3  1  0
  2  5  1  0
  3  4  2  0
  3  8  1  0
  5  6  1  0
  5  7  1  1
  8  9  1  0
  9 10  1  0
  9 12  1  6
 10 11  2  0
 10 16  1  0
 12 13  1  0
 13 14  1  0
 13 15  2  0
 16 17  1  0
 17 18  1  0
 17 20  1  6
 18 19  2  0
 18 24  1  0
 20 21  1  0
 21 22  1  1
 21 23  1  0
 24 25  1  0
 24 30  1  0
 25 26  1  6
 25 28  1  0
 26 27  2  0
 26 31  1  0
 28 29  1  0
 29 30  1  0
 31 32  1  0
 32 33  1  1
 32 35  1  0
 33 34  1  0
 34 37  1  0
 35 36  2  0
 35 41  1  0
 37 38  2  0
 37 39  1  6
 37 40  1  0
 41 42  1  0
 42 43  1  0
 42 45  1  6
 43 44  2  0
 43 49  1  0
 45 46  1  0
 46 47  1  0
 46 48  2  0
 49 50  1  0
 49 55  1  0
 50 51  1  6
 50 53  1  0
 51 52  2  0
 51 56  1  0
 53 54  1  0
 54 55  1  0
 56 57  1  0
 56 62  1  0
 57 58  1  6
 57 60  1  0
 58 59  2  0
 58 63  1  0
 60 61  1  0
 61 62  1  0
 63 64  1  0
 64 65  1  0
 64 67  1  6
 65 66  2  0
 65 69  1  0
 67 68  1  0
M  CHG  1   1   1
M  END
$$$$
