
     RDKit          3D

 69 71  0  0  0  0  0  0  0  0999 V2000
   -3.5863   -0.9178    9.1516 N   0  0  0  0  0  4  0  0  0  0  0  0
   -3.7898    0.3047    8.4189 C   0  0  2  0  0  0  0  0  0  0  0  0
   -3.0102    0.2376    7.1589 C   0  0  0  0  0  0  0  0  0  0  0  0
   -2.7180   -0.9177    6.6805 O   0  0  0  0  0  0  0  0  0  0  0  0
   -3.3701    1.4996    9.2742 C   0  0  2  0  0  0  0  0  0  0  0  0
   -4.1346    1.4714   10.4257 O   0  0  0  0  0  0  0  0  0  0  0  0
   -3.5676    2.7879    8.5286 C   0  0  0  0  0  0  0  0  0  0  0  0
   -2.5854    1.4096    6.4816 N   0  0  0  0  0  0  0  0  0  0  0  0
   -1.8135    1.2383    5.2933 C   0  0  2  0  0  0  0  0  0  0  0  0
   -0.4192    1.6998    5.4402 C   0  0  0  0  0  0  0  0  0  0  0  0
   -0.1954    2.9053    5.6712 O   0  0  0  0  0  0  0  0  0  0  0  0
   -2.3870    2.0148    4.1133 C   0  0  0  0  0  0  0  0  0  0  0  0
   -1.4728    2.0677    2.9782 C   0  0  0  0  0  0  0  0  0  0  0  0
   -0.8678    0.9197    2.5003 O   0  0  0  0  0  0  0  0  0  0  0  0
   -1.2151    3.1521    2.4135 O   0  0  0  0  0  0  0  0  0  0  0  0
    0.7320    0.8168    5.3291 N   0  0  0  0  0  0  0  0  0  0  0  0
    2.0115    1.2443    5.7637 C   0  0  2  0  0  0  0  0  0  0  0  0
    2.8285    2.0830    4.8941 C   0  0  0  0  0  0  0  0  0  0  0  0
    3.7828    1.3743    4.3270 O   0  0  0  0  0  0  0  0  0  0  0  0
    2.7883    0.1345    6.4650 C   0  0  0  0  0  0  0  0  0  0  0  0
    4.0986    0.5391    7.0305 C   0  0  1  0  0  0  0  0  0  0  0  0
    4.7302    1.6136    6.1869 C   0  0  0  0  0  0  0  0  0  0  0  0
    3.9351    1.1143    8.4443 C   0  0  0  0  0  0  0  0  0  0  0  0
    2.8047    3.4279    4.5556 N   0  0  0  0  0  0  0  0  0  0  0  0
    2.4969    3.9092    3.2045 C   0  0  2  0  0  0  0  0  0  0  0  0
    3.4087    4.9292    2.6952 C   0  0  0  0  0  0  0  0  0  0  0  0
    3.4417    5.4472    1.5657 O   0  0  0  0  0  0  0  0  0  0  0  0
    1.2456    4.7512    3.6513 C   0  0  0  0  0  0  0  0  0  0  0  0
    1.9112    5.5538    4.7863 C   0  0  0  0  0  0  0  0  0  0  0  0
    2.9567    4.5752    5.3632 C   0  0  0  0  0  0  0  0  0  0  0  0
    4.4339    5.4234    3.5998 N   0  0  0  0  0  0  0  0  0  0  0  0
    5.8173    5.2998    3.1962 C   0  0  1  0  0  0  0  0  0  0  0  0
    6.6850    4.8405    4.3635 C   0  0  0  0  0  0  0  0  0  0  0  0
    6.3062    5.4233    5.5460 O   0  0  0  0  0  0  0  0  0  0  0  0
    5.9583    4.2512    2.1410 C   0  0  0  0  0  0  0  0  0  0  0  0
    6.1804    3.0367    2.4616 O   0  0  0  0  0  0  0  0  0  0  0  0
    7.6092    5.6741    6.5938 P   0  0  1  0  0  5  0  0  0  0  0  0
    7.2068    6.3166    7.8885 O   0  0  0  0  0  0  0  0  0  0  0  0
    8.4147    4.2185    6.9333 O   0  0  0  0  0  0  0  0  0  0  0  0
    8.7162    6.6980    5.8249 O   0  0  0  0  0  0  0  0  0  0  0  0
    5.8514    4.5390    0.7614 N   0  0  0  0  0  0  0  0  0  0  0  0
    6.6802    3.8028   -0.2539 C   0  0  2  0  0  0  0  0  0  0  0  0
    7.9339    4.4947   -0.4130 C   0  0  0  0  0  0  0  0  0  0  0  0
    7.9437    5.7484   -0.0121 O   0  0  0  0  0  0  0  0  0  0  0  0
    5.8294    3.9332   -1.5540 C   0  0  0  0  0  0  0  0  0  0  0  0
    4.4628    3.4684   -1.3970 C   0  0  0  0  0  0  0  0  0  0  0  0
    3.4750    4.3177   -0.8854 O   0  0  0  0  0  0  0  0  0  0  0  0
    4.0945    2.3144   -1.6974 O   0  0  0  0  0  0  0  0  0  0  0  0
    9.1904    4.0509   -0.9305 N   0  0  0  0  0  0  0  0  0  0  0  0
    9.8159    2.7750   -0.5582 C   0  0  2  0  0  0  0  0  0  0  0  0
    9.9181    2.5475    0.8735 C   0  0  0  0  0  0  0  0  0  0  0  0
    9.6170    3.4860    1.7109 O   0  0  0  0  0  0  0  0  0  0  0  0
   11.0469    2.6445   -1.3722 C   0  0  0  0  0  0  0  0  0  0  0  0
   10.6910    3.4797   -2.6115 C   0  0  0  0  0  0  0  0  0  0  0  0
    9.9480    4.6717   -1.9558 C   0  0  0  0  0  0  0  0  0  0  0  0
   10.3338    1.3420    1.4677 N   0  0  0  0  0  0  0  0  0  0  0  0
   10.5178    1.0104    2.8291 C   0  0  2  0  0  0  0  0  0  0  0  0
   10.7990    2.0600    3.8121 C   0  0  0  0  0  0  0  0  0  0  0  0
   11.3622    3.1410    3.6947 O   0  0  0  0  0  0  0  0  0  0  0  0
   11.7701    0.0766    2.7731 C   0  0  0  0  0  0  0  0  0  0  0  0
   11.3786   -0.7720    1.5996 C   0  0  0  0  0  0  0  0  0  0  0  0
   10.5366    0.0994    0.7158 C   0  0  0  0  0  0  0  0  0  0  0  0
   10.3209    1.7435    5.1575 N   0  0  0  0  0  0  0  0  0  0  0  0
   10.6111    2.6202    6.2596 C   0  0  2  0  0  0  0  0  0  0  0  0
   10.1147    2.0595    7.5612 C   0  0  0  0  0  0  0  0  0  0  0  0
   10.3944    2.6292    8.6422 O   0  0  0  0  0  0  0  0  0  0  0  0
   10.1873    4.0437    6.0464 C   0  0  0  0  0  0  0  0  0  0  0  0
   10.3253    4.7176    7.2766 O   0  0  0  0  0  0  0  0  0  0  0  0
    9.3473    0.9129    7.6009 O   0  0  0  0  0  0  0  0  0  0  0  0
  2  1  1  1
  2  3  1  0
  2  5  1  0
  3  4  2  0
  3  8  1  0
  5  6  1  0
  5  7  1  6
  8  9  1  0
  9 10  1  0
  9 12  1  6
 10 11  2  0
 10 16  1  0
 12 13  1  0
 13 14  1  0
 13 15  2  0
 16 17  1  0
 17 18  1  0
 17 20  1  6
 18 19  2  0
 18 24  1  0
 20 21  1  0
 21 22  1  6
 21 23  1  0
 24 25  1  0
 24 30  1  0
 25 26  1  1
 25 28  1  0
 26 27  2  0
 26 31  1  0
 28 29  1  0
 29 30  1  0
 31 32  1  0
 32 33  1  1
 32 35  1  0
 33 34  1  0
 34 37  1  0
 35 36  2  0
 35 41  1  0
 37 38  2  0
 37 39  1  1
 37 40  1  0
 41 42  1  0
 42 43  1  0
 42 45  1  6
 43 44  2  0
 43 49  1  0
 45 46  1  0
 46 47  1  0
 46 48  2  0
 49 50  1  0
 49 55  1  0
 50 51  1  1
 50 53  1  0
 51 52  2  0
 51 56  1  0
 53 54  1  0
 54 55  1  0
 56 57  1  0
 56 62  1  0
 57 58  1  1
 57 60  1  0
 58 59  2  0
 58 63  1  0
 60 61  1  0
 61 62  1  0
 63 64  1  0
 64 65  1  0
 64 67  1  6
 65 66  2  0
 65 69  1  0
 67 68  1  0
M  CHG  1   1   1
M  END
$$$$
