
     RDKit          3D

 69 71  0  0  0  0  0  0  0  0999 V2000
   11.3325    1.0491    6.7271 N   0  0  0  0  0  4  0  0  0  0  0  0
   10.1374    1.5617    6.1092 C   0  0  2  0  0  0  0  0  0  0  0  0
    9.1509    1.8743    7.1717 C   0  0  0  0  0  0  0  0  0  0  0  0
    8.8412    0.9521    8.0100 O   0  0  0  0  0  0  0  0  0  0  0  0
    9.5859    0.5395    5.1160 C   0  0  2  0  0  0  0  0  0  0  0  0
   10.6601   -0.1771    4.6224 O   0  0  0  0  0  0  0  0  0  0  0  0
    8.8375    1.2202    4.0065 C   0  0  0  0  0  0  0  0  0  0  0  0
    8.5496    3.1548    7.2777 N   0  0  0  0  0  0  0  0  0  0  0  0
    7.6142    3.3557    8.3369 C   0  0  2  0  0  0  0  0  0  0  0  0
    6.2695    2.8331    8.0252 C   0  0  0  0  0  0  0  0  0  0  0  0
    5.4546    3.5619    7.4241 O   0  0  0  0  0  0  0  0  0  0  0  0
    7.4212    4.8316    8.6667 C   0  0  0  0  0  0  0  0  0  0  0  0
    6.4318    5.0478    9.7163 C   0  0  0  0  0  0  0  0  0  0  0  0
    5.8853    3.9816   10.4068 O   0  0  0  0  0  0  0  0  0  0  0  0
    6.0552    6.2016   10.0134 O   0  0  0  0  0  0  0  0  0  0  0  0
    5.8285    1.4936    8.3841 N   0  0  0  0  0  0  0  0  0  0  0  0
    4.5483    1.0285    7.9926 C   0  0  2  0  0  0  0  0  0  0  0  0
    4.2086    0.9496    6.5764 C   0  0  0  0  0  0  0  0  0  0  0  0
    5.1163    1.5630    5.8455 O   0  0  0  0  0  0  0  0  0  0  0  0
    3.4326    1.5895    8.8687 C   0  0  0  0  0  0  0  0  0  0  0  0
    2.0862    1.0178    8.6223 C   0  0  1  0  0  0  0  0  0  0  0  0
    1.8095    0.9325    7.1453 C   0  0  0  0  0  0  0  0  0  0  0  0
    1.9810   -0.4071    9.1833 C   0  0  0  0  0  0  0  0  0  0  0  0
    3.1604    0.3797    5.8690 N   0  0  0  0  0  0  0  0  0  0  0  0
    3.2898   -0.0929    4.4864 C   0  0  2  0  0  0  0  0  0  0  0  0
    2.2130    0.3246    3.5932 C   0  0  0  0  0  0  0  0  0  0  0  0
    2.0354    0.0278    2.3992 O   0  0  0  0  0  0  0  0  0  0  0  0
    2.9063   -1.5806    4.8238 C   0  0  0  0  0  0  0  0  0  0  0  0
    1.5947   -1.3052    5.5849 C   0  0  0  0  0  0  0  0  0  0  0  0
    1.8533    0.0468    6.2842 C   0  0  0  0  0  0  0  0  0  0  0  0
    1.1985    1.2132    4.1362 N   0  0  0  0  0  0  0  0  0  0  0  0
    0.2154    1.7619    3.2284 C   0  0  1  0  0  0  0  0  0  0  0  0
   -1.1181    1.9770    3.9368 C   0  0  0  0  0  0  0  0  0  0  0  0
   -1.4778    0.8926    4.6958 O   0  0  0  0  0  0  0  0  0  0  0  0
    0.6479    3.1089    2.7474 C   0  0  0  0  0  0  0  0  0  0  0  0
    0.0569    3.6648    1.7632 O   0  0  0  0  0  0  0  0  0  0  0  0
   -3.1520    0.6629    4.7492 P   0  0  1  0  0  5  0  0  0  0  0  0
   -3.9207    1.9508    4.7913 O   0  0  0  0  0  0  0  0  0  0  0  0
   -3.6901   -0.2515    3.4237 O   0  0  0  0  0  0  0  0  0  0  0  0
   -3.5211   -0.2113    6.1508 O   0  0  0  0  0  0  0  0  0  0  0  0
    1.7081    3.8273    3.3452 N   0  0  0  0  0  0  0  0  0  0  0  0
    2.2535    5.0784    2.7148 C   0  0  2  0  0  0  0  0  0  0  0  0
    3.2818    4.7093    1.7755 C   0  0  0  0  0  0  0  0  0  0  0  0
    4.1015    3.7608    2.1769 O   0  0  0  0  0  0  0  0  0  0  0  0
    2.8826    5.8299    3.9275 C   0  0  0  0  0  0  0  0  0  0  0  0
    1.8978    6.4618    4.7872 C   0  0  0  0  0  0  0  0  0  0  0  0
    0.8342    7.1883    4.2395 O   0  0  0  0  0  0  0  0  0  0  0  0
    1.9385    6.4007    6.0330 O   0  0  0  0  0  0  0  0  0  0  0  0
    3.5687    5.1936    0.4615 N   0  0  0  0  0  0  0  0  0  0  0  0
    4.7630    4.8083   -0.3021 C   0  0  2  0  0  0  0  0  0  0  0  0
    6.0160    4.9629    0.4177 C   0  0  0  0  0  0  0  0  0  0  0  0
    6.2536    6.0356    1.1000 O   0  0  0  0  0  0  0  0  0  0  0  0
    4.6452    5.4423   -1.6359 C   0  0  0  0  0  0  0  0  0  0  0  0
    3.1214    5.5644   -1.7894 C   0  0  0  0  0  0  0  0  0  0  0  0
    2.7166    5.9821   -0.3526 C   0  0  0  0  0  0  0  0  0  0  0  0
    7.0490    4.0083    0.4465 N   0  0  0  0  0  0  0  0  0  0  0  0
    8.4297    4.1639    0.7044 C   0  0  2  0  0  0  0  0  0  0  0  0
    9.0827    5.4545    0.4699 C   0  0  0  0  0  0  0  0  0  0  0  0
   10.1583    5.7288   -0.0471 O   0  0  0  0  0  0  0  0  0  0  0  0
    9.0662    3.1332   -0.2835 C   0  0  0  0  0  0  0  0  0  0  0  0
    8.1459    1.9740   -0.0394 C   0  0  0  0  0  0  0  0  0  0  0  0
    6.8176    2.5649    0.3290 C   0  0  0  0  0  0  0  0  0  0  0  0
    8.3034    6.5979    0.9431 N   0  0  0  0  0  0  0  0  0  0  0  0
    8.8820    7.9139    0.9699 C   0  0  2  0  0  0  0  0  0  0  0  0
    8.0053    8.8917    1.6983 C   0  0  0  0  0  0  0  0  0  0  0  0
    7.3940    9.7849    1.0659 O   0  0  0  0  0  0  0  0  0  0  0  0
    9.3234    8.4234   -0.3706 C   0  0  0  0  0  0  0  0  0  0  0  0
    9.8208    9.7293   -0.1869 O   0  0  0  0  0  0  0  0  0  0  0  0
    7.8530    8.8341    3.0689 O   0  0  0  0  0  0  0  0  0  0  0  0
  2  1  1  1
  2  3  1  0
  2  5  1  0
  3  4  2  0
  3  8  1  0
  5  6  1  0
  5  7  1  6
  8  9  1  0
  9 10  1  0
  9 12  1  6
 10 11  2  0
 10 16  1  0
 12 13  1  0
 13 14  1  0
 13 15  2  0
 16 17  1  0
 17 18  1  0
 17 20  1  1
 18 19  2  0
 18 24  1  0
 20 21  1  0
 21 22  1  6
 21 23  1  0
 24 25  1  0
 24 30  1  0
 25 26  1  6
 25 28  1  0
 26 27  2  0
 26 31  1  0
 28 29  1  0
 29 30  1  0
 31 32  1  0
 32 33  1  1
 32 35  1  0
 33 34  1  0
 34 37  1  0
 35 36  2  0
 35 41  1  0
 37 38  2  0
 37 39  1  6
 37 40  1  0
 41 42  1  0
 42 43  1  0
 42 45  1  1
 43 44  2  0
 43 49  1  0
 45 46  1  0
 46 47  1  0
 46 48  2  0
 49 50  1  0
 49 55  1  0
 50 51  1  1
 50 53  1  0
 51 52  2  0
 51 56  1  0
 53 54  1  0
 54 55  1  0
 56 57  1  0
 56 62  1  0
 57 58  1  6
 57 60  1  0
 58 59  2  0
 58 63  1  0
 60 61  1  0
 61 62  1  0
 63 64  1  0
 64 65  1  0
 64 67  1  6
 65 66  2  0
 65 69  1  0
 67 68  1  0
M  CHG  1   1   1
M  END
$$$$
