
     RDKit          3D

 40 45  0  0  0  0  0  0  0  0999 V2000
   14.2939   42.1604   24.4889 C   0  0  0  0  0  0  0  0  0  0  0  0
   14.3433   41.8819   23.1423 C   0  0  0  0  0  0  0  0  0  0  0  0
   14.7314   42.9000   22.2954 C   0  0  0  0  0  0  0  0  0  0  0  0
   15.0564   44.1579   22.8127 C   0  0  0  0  0  0  0  0  0  0  0  0
   15.0027   44.4251   24.1624 C   0  0  0  0  0  0  0  0  0  0  0  0
   16.5343   47.9789   21.6638 C   0  0  0  0  0  0  0  0  0  0  0  0
   16.0490   48.5913   23.8778 C   0  0  0  0  0  0  0  0  0  0  0  0
   16.4587   49.8886   23.6338 C   0  0  0  0  0  0  0  0  0  0  0  0
   12.2165   38.8921   22.2825 C   0  0  0  0  0  0  0  0  0  0  0  0
   13.0145   39.7583   23.1598 C   0  0  0  0  0  0  0  0  0  0  0  0
   12.8507   39.7939   24.4091 O   0  0  0  0  0  0  0  0  0  0  0  0
   14.0084   40.5913   22.6071 N   0  0  0  0  0  0  0  0  0  0  0  0
   14.6155   43.4066   25.0041 C   0  0  0  0  0  0  0  0  0  0  0  0
   15.3612   45.6763   24.3087 O   0  0  0  0  0  0  0  0  0  0  0  0
   15.4542   45.2993   22.2250 N   0  0  0  0  0  0  0  0  0  0  0  0
   15.6432   46.2457   23.1682 C   0  0  0  0  0  0  0  0  0  0  0  0
   16.0772   47.6160   22.9075 C   0  0  0  0  0  0  0  0  0  0  0  0
   16.9507   49.2875   21.4066 C   0  0  0  0  0  0  0  0  0  0  0  0
   16.8975   50.1987   22.4053 N   0  0  0  0  0  0  0  0  0  0  0  0
   16.4134   50.8804   24.6854 C   0  0  0  0  0  0  0  0  0  0  0  0
   16.0466   50.5398   25.8310 O   0  0  0  0  0  0  0  0  0  0  0  0
   16.7729   52.2290   24.4544 N   0  0  0  0  0  0  0  0  0  0  0  0
   17.6783   52.5693   23.3448 C   0  0  0  0  0  0  0  0  0  0  0  0
   18.0830   54.0027   23.6081 C   0  0  0  0  0  0  0  0  0  0  0  0
   16.3085   53.3318   25.2421 C   0  0  0  0  0  0  0  0  0  0  0  0
   17.4679   54.1405   25.8518 C   0  0  0  0  0  0  0  0  0  0  0  0
   18.5956   54.0324   24.9919 N   0  0  2  0  0  4  0  0  0  0  0  0
   19.6184   55.0081   25.1142 C   0  0  1  0  0  0  0  0  0  0  0  0
   19.2799   56.1460   26.0338 C   0  0  0  0  0  0  0  0  0  0  0  0
   19.7264   57.4148   25.9872 N   0  0  0  0  0  0  0  0  0  0  0  0
   18.4436   56.1092   27.0833 N   0  0  0  0  0  0  0  0  0  0  0  0
   18.4017   57.3258   27.6375 N   0  0  0  0  0  0  0  0  0  0  0  0
   19.1989   58.1363   26.9559 N   0  0  0  0  0  0  0  0  0  0  0  0
   19.4305   59.5555   27.2446 C   0  0  0  0  0  0  0  0  0  0  0  0
   20.9796   54.4972   25.3802 C   0  0  0  0  0  0  0  0  0  0  0  0
   22.0691   54.7934   24.5646 C   0  0  0  0  0  0  0  0  0  0  0  0
   23.3326   54.3308   24.8040 C   0  0  0  0  0  0  0  0  0  0  0  0
   23.5539   53.5367   25.8942 C   0  0  0  0  0  0  0  0  0  0  0  0
   22.5152   53.2200   26.7233 C   0  0  0  0  0  0  0  0  0  0  0  0
   21.2211   53.7010   26.4670 C   0  0  0  0  0  0  0  0  0  0  0  0
  2  1  2  0
 13  1  1  0
  3  2  1  0
  2 12  1  0
  4  3  2  0
  4  5  1  0
 15  4  1  0
  5 13  2  0
 14  5  1  0
 17  6  2  0
  6 18  1  0
  7  8  2  0
 17  7  1  0
  8 19  1  0
  8 20  1  0
 10  9  1  0
 10 11  2  0
 12 10  1  0
 16 14  1  0
 16 15  2  0
 16 17  1  0
 18 19  2  0
 20 21  2  0
 20 22  1  0
 22 23  1  0
 22 25  1  0
 23 24  1  0
 27 24  1  6
 25 26  1  0
 26 27  1  0
 27 28  1  0
 28 29  1  1
 28 35  1  0
 29 30  2  0
 29 31  1  0
 30 33  1  0
 31 32  2  0
 32 33  1  0
 33 34  1  0
 35 36  2  0
 35 40  1  0
 36 37  1  0
 37 38  2  0
 38 39  1  0
 39 40  2  0
M  CHG  1  27   1
M  END
$$$$
