
     RDKit          3D

 40 45  0  0  0  0  0  0  0  0999 V2000
   25.8199   54.6622   21.1254 C   0  0  0  0  0  0  0  0  0  0  0  0
   24.8131   54.6895   20.1878 C   0  0  0  0  0  0  0  0  0  0  0  0
   23.5246   54.4711   20.6307 C   0  0  0  0  0  0  0  0  0  0  0  0
   23.2792   54.2329   21.9867 C   0  0  0  0  0  0  0  0  0  0  0  0
   24.2951   54.2074   22.9159 C   0  0  0  0  0  0  0  0  0  0  0  0
   21.8586   53.4440   26.3381 C   0  0  0  0  0  0  0  0  0  0  0  0
   20.1238   53.3812   24.7574 C   0  0  0  0  0  0  0  0  0  0  0  0
   19.1976   53.1191   25.7492 C   0  0  0  0  0  0  0  0  0  0  0  0
   26.5186   55.3898   16.8261 C   0  0  0  0  0  0  0  0  0  0  0  0
   26.3399   55.2203   18.2739 C   0  0  0  0  0  0  0  0  0  0  0  0
   27.2937   55.3223   19.0916 O   0  0  0  0  0  0  0  0  0  0  0  0
   25.0616   54.9320   18.7936 N   0  0  0  0  0  0  0  0  0  0  0  0
   25.5792   54.4263   22.4701 C   0  0  0  0  0  0  0  0  0  0  0  0
   23.7342   53.9621   24.0738 O   0  0  0  0  0  0  0  0  0  0  0  0
   22.1466   53.9939   22.6698 N   0  0  0  0  0  0  0  0  0  0  0  0
   22.4395   53.8254   23.9763 C   0  0  0  0  0  0  0  0  0  0  0  0
   21.4629   53.5480   25.0266 C   0  0  0  0  0  0  0  0  0  0  0  0
   20.9305   53.1794   27.3483 C   0  0  0  0  0  0  0  0  0  0  0  0
   19.6281   53.0259   27.0157 N   0  0  0  0  0  0  0  0  0  0  0  0
   17.7999   52.9489   25.4188 C   0  0  0  0  0  0  0  0  0  0  0  0
   17.1081   53.9556   25.1527 O   0  0  0  0  0  0  0  0  0  0  0  0
   17.1909   51.6724   25.3885 N   0  0  0  0  0  0  0  0  0  0  0  0
   15.7441   51.5531   25.1458 C   0  0  0  0  0  0  0  0  0  0  0  0
   15.4132   50.1218   25.5057 C   0  0  0  0  0  0  0  0  0  0  0  0
   17.8955   50.4399   25.5809 C   0  0  0  0  0  0  0  0  0  0  0  0
   17.3197   49.6164   26.7471 C   0  0  0  0  0  0  0  0  0  0  0  0
   15.9346   49.9152   26.8708 N   0  0  2  0  0  4  0  0  0  0  0  0
   15.1175   48.9917   27.5725 C   0  0  1  0  0  0  0  0  0  0  0  0
   14.2487   48.1414   26.6908 C   0  0  0  0  0  0  0  0  0  0  0  0
   12.9401   48.2939   26.4156 N   0  0  0  0  0  0  0  0  0  0  0  0
   14.6282   47.0601   25.9914 N   0  0  0  0  0  0  0  0  0  0  0  0
   13.5683   46.5912   25.3237 N   0  0  0  0  0  0  0  0  0  0  0  0
   12.5200   47.3583   25.5878 N   0  0  0  0  0  0  0  0  0  0  0  0
   11.1674   47.1788   25.0500 C   0  0  0  0  0  0  0  0  0  0  0  0
   15.7927   48.1729   28.6013 C   0  0  0  0  0  0  0  0  0  0  0  0
   16.3525   48.7203   29.7531 C   0  0  0  0  0  0  0  0  0  0  0  0
   16.9743   47.9723   30.7131 C   0  0  0  0  0  0  0  0  0  0  0  0
   17.0591   46.6180   30.5487 C   0  0  0  0  0  0  0  0  0  0  0  0
   16.5236   46.0364   29.4345 C   0  0  0  0  0  0  0  0  0  0  0  0
   15.8872   46.8153   28.4546 C   0  0  0  0  0  0  0  0  0  0  0  0
  2  1  2  0
 13  1  1  0
  3  2  1  0
  2 12  1  0
  4  3  2  0
  4  5  1  0
 15  4  1  0
  5 13  2  0
 14  5  1  0
 17  6  2  0
  6 18  1  0
  7  8  2  0
 17  7  1  0
  8 19  1  0
  8 20  1  0
 10  9  1  0
 10 11  2  0
 12 10  1  0
 16 14  1  0
 16 15  2  0
 16 17  1  0
 18 19  2  0
 20 21  2  0
 20 22  1  0
 22 23  1  0
 22 25  1  0
 23 24  1  0
 27 24  1  6
 25 26  1  0
 26 27  1  0
 27 28  1  0
 28 29  1  6
 28 35  1  0
 29 30  2  0
 29 31  1  0
 30 33  1  0
 31 32  2  0
 32 33  1  0
 33 34  1  0
 35 36  2  0
 35 40  1  0
 36 37  1  0
 37 38  2  0
 38 39  1  0
 39 40  2  0
M  CHG  1  27   1
M  END
$$$$
