
     RDKit          3D

 40 45  0  0  0  0  0  0  0  0999 V2000
   22.8131   55.0612   28.0631 C   0  0  0  0  0  0  0  0  0  0  0  0
   22.8172   55.5491   26.7765 C   0  0  0  0  0  0  0  0  0  0  0  0
   21.8437   55.0840   25.9161 C   0  0  0  0  0  0  0  0  0  0  0  0
   20.9010   54.1517   26.3608 C   0  0  0  0  0  0  0  0  0  0  0  0
   20.9071   53.6702   27.6508 C   0  0  0  0  0  0  0  0  0  0  0  0
   17.3101   51.3784   27.3103 C   0  0  0  0  0  0  0  0  0  0  0  0
   17.7296   51.5900   25.0099 C   0  0  0  0  0  0  0  0  0  0  0  0
   16.6296   50.8075   24.7132 C   0  0  0  0  0  0  0  0  0  0  0  0
   24.8774   57.8667   24.5385 C   0  0  0  0  0  0  0  0  0  0  0  0
   24.1048   56.6891   24.9549 C   0  0  0  0  0  0  0  0  0  0  0  0
   23.7053   55.8164   24.1379 O   0  0  0  0  0  0  0  0  0  0  0  0
   23.7853   56.5055   26.3156 N   0  0  0  0  0  0  0  0  0  0  0  0
   21.8797   54.1371   28.5063 C   0  0  0  0  0  0  0  0  0  0  0  0
   19.9090   52.8265   27.7379 O   0  0  0  0  0  0  0  0  0  0  0  0
   19.8710   53.5467   25.7448 N   0  0  0  0  0  0  0  0  0  0  0  0
   19.2545   52.7183   26.6135 C   0  0  0  0  0  0  0  0  0  0  0  0
   18.0916   51.8905   26.3030 C   0  0  0  0  0  0  0  0  0  0  0  0
   16.1961   50.5863   27.0213 C   0  0  0  0  0  0  0  0  0  0  0  0
   15.8950   50.3285   25.7277 N   0  0  0  0  0  0  0  0  0  0  0  0
   16.2882   50.5158   23.3385 C   0  0  0  0  0  0  0  0  0  0  0  0
   15.8087   51.4218   22.6227 O   0  0  0  0  0  0  0  0  0  0  0  0
   16.4814   49.2311   22.7786 N   0  0  0  0  0  0  0  0  0  0  0  0
   16.1365   48.9833   21.3693 C   0  0  0  0  0  0  0  0  0  0  0  0
   16.1609   47.4775   21.2292 C   0  0  0  0  0  0  0  0  0  0  0  0
   17.0066   48.1099   23.4994 C   0  0  0  0  0  0  0  0  0  0  0  0
   16.0453   46.9075   23.4859 C   0  0  0  0  0  0  0  0  0  0  0  0
   15.2770   46.9564   22.2901 N   0  0  2  0  0  4  0  0  0  0  0  0
   14.6460   45.7613   21.8583 C   0  0  1  0  0  0  0  0  0  0  0  0
   14.8414   45.4507   20.4022 C   0  0  0  0  0  0  0  0  0  0  0  0
   15.9635   45.0416   19.7818 N   0  0  0  0  0  0  0  0  0  0  0  0
   13.9117   45.5125   19.4357 N   0  0  0  0  0  0  0  0  0  0  0  0
   14.4753   45.1490   18.2785 N   0  0  0  0  0  0  0  0  0  0  0  0
   15.7501   44.8566   18.4944 N   0  0  0  0  0  0  0  0  0  0  0  0
   16.7134   44.4152   17.4804 C   0  0  0  0  0  0  0  0  0  0  0  0
   14.8766   44.5631   22.6926 C   0  0  0  0  0  0  0  0  0  0  0  0
   16.0834   43.8678   22.6966 C   0  0  0  0  0  0  0  0  0  0  0  0
   16.3092   42.7622   23.4675 C   0  0  0  0  0  0  0  0  0  0  0  0
   15.3104   42.3038   24.2803 C   0  0  0  0  0  0  0  0  0  0  0  0
   14.1094   42.9542   24.3099 C   0  0  0  0  0  0  0  0  0  0  0  0
   13.8889   44.0892   23.5130 C   0  0  0  0  0  0  0  0  0  0  0  0
  2  1  2  0
 13  1  1  0
  3  2  1  0
  2 12  1  0
  4  3  2  0
  4  5  1  0
 15  4  1  0
  5 13  2  0
 14  5  1  0
 17  6  2  0
  6 18  1  0
  7  8  2  0
 17  7  1  0
  8 19  1  0
  8 20  1  0
 10  9  1  0
 10 11  2  0
 12 10  1  0
 16 14  1  0
 16 15  2  0
 16 17  1  0
 18 19  2  0
 20 21  2  0
 20 22  1  0
 22 23  1  0
 22 25  1  0
 23 24  1  0
 27 24  1  6
 25 26  1  0
 26 27  1  0
 27 28  1  0
 28 29  1  6
 28 35  1  0
 29 30  2  0
 29 31  1  0
 30 33  1  0
 31 32  2  0
 32 33  1  0
 33 34  1  0
 35 36  2  0
 35 40  1  0
 36 37  1  0
 37 38  2  0
 38 39  1  0
 39 40  2  0
M  CHG  1  27   1
M  END
$$$$
