
     RDKit          3D

 40 45  0  0  0  0  0  0  0  0999 V2000
  -32.4957    8.1640  -18.8133 C   0  0  0  0  0  0  0  0  0  0  0  0
  -33.8417    8.3264  -18.5778 C   0  0  0  0  0  0  0  0  0  0  0  0
  -34.3353    7.8785  -17.3696 C   0  0  0  0  0  0  0  0  0  0  0  0
  -33.4780    7.2851  -16.4376 C   0  0  0  0  0  0  0  0  0  0  0  0
  -32.1326    7.1275  -16.6846 C   0  0  0  0  0  0  0  0  0  0  0  0
  -31.4649    4.6651  -13.2215 C   0  0  0  0  0  0  0  0  0  0  0  0
  -33.0988    6.0806  -12.3056 C   0  0  0  0  0  0  0  0  0  0  0  0
  -32.9488    5.4902  -11.0649 C   0  0  0  0  0  0  0  0  0  0  0  0
  -36.9492    9.2548  -20.6094 C   0  0  0  0  0  0  0  0  0  0  0  0
  -36.0190    8.4459  -19.8111 C   0  0  0  0  0  0  0  0  0  0  0  0
  -36.3270    7.3130  -19.3524 O   0  0  0  0  0  0  0  0  0  0  0  0
  -34.7258    8.9338  -19.5337 N   0  0  0  0  0  0  0  0  0  0  0  0
  -31.6439    7.5761  -17.8911 C   0  0  0  0  0  0  0  0  0  0  0  0
  -31.6256    6.5459  -15.6262 O   0  0  0  0  0  0  0  0  0  0  0  0
  -33.6922    6.7726  -15.2137 N   0  0  0  0  0  0  0  0  0  0  0  0
  -32.5275    6.3116  -14.7118 C   0  0  0  0  0  0  0  0  0  0  0  0
  -32.3671    5.6853  -13.4018 C   0  0  0  0  0  0  0  0  0  0  0  0
  -31.3054    4.0615  -11.9716 C   0  0  0  0  0  0  0  0  0  0  0  0
  -32.0564    4.4978  -10.9343 N   0  0  0  0  0  0  0  0  0  0  0  0
  -33.7414    5.9373   -9.9409 C   0  0  0  0  0  0  0  0  0  0  0  0
  -33.4760    7.0348   -9.4043 O   0  0  0  0  0  0  0  0  0  0  0  0
  -34.8114    5.1662   -9.4292 N   0  0  0  0  0  0  0  0  0  0  0  0
  -35.6820    5.7208   -8.3799 C   0  0  0  0  0  0  0  0  0  0  0  0
  -36.4680    4.5339   -7.8689 C   0  0  0  0  0  0  0  0  0  0  0  0
  -35.1288    3.8396   -9.8673 C   0  0  0  0  0  0  0  0  0  0  0  0
  -35.1216    2.8267   -8.7080 C   0  0  0  0  0  0  0  0  0  0  0  0
  -35.4685    3.5091   -7.5093 N   0  0  2  0  0  4  0  0  0  0  0  0
  -35.9339    2.7338   -6.4161 C   0  0  1  0  0  0  0  0  0  0  0  0
  -35.0841    1.5362   -6.1020 C   0  0  0  0  0  0  0  0  0  0  0  0
  -35.4456    0.3996   -5.4785 N   0  0  0  0  0  0  0  0  0  0  0  0
  -33.7862    1.3708   -6.4031 N   0  0  0  0  0  0  0  0  0  0  0  0
  -33.3976    0.1678   -5.9665 N   0  0  0  0  0  0  0  0  0  0  0  0
  -34.4292   -0.4350   -5.3922 N   0  0  0  0  0  0  0  0  0  0  0  0
  -34.4149   -1.7708   -4.7868 C   0  0  0  0  0  0  0  0  0  0  0  0
  -36.2769    3.4788   -5.1865 C   0  0  0  0  0  0  0  0  0  0  0  0
  -37.5297    3.4016   -4.5826 C   0  0  0  0  0  0  0  0  0  0  0  0
  -37.8559    4.0818   -3.4431 C   0  0  0  0  0  0  0  0  0  0  0  0
  -36.9166    4.8819   -2.8550 C   0  0  0  0  0  0  0  0  0  0  0  0
  -35.6735    4.9881   -3.4115 C   0  0  0  0  0  0  0  0  0  0  0  0
  -35.3498    4.2846   -4.5828 C   0  0  0  0  0  0  0  0  0  0  0  0
  2  1  2  0
 13  1  1  0
  3  2  1  0
  2 12  1  0
  4  3  2  0
  4  5  1  0
 15  4  1  0
  5 13  2  0
 14  5  1  0
 17  6  2  0
  6 18  1  0
  7  8  2  0
 17  7  1  0
  8 19  1  0
  8 20  1  0
 10  9  1  0
 10 11  2  0
 12 10  1  0
 16 14  1  0
 16 15  2  0
 16 17  1  0
 18 19  2  0
 20 21  2  0
 20 22  1  0
 22 23  1  0
 22 25  1  0
 23 24  1  0
 27 24  1  6
 25 26  1  0
 26 27  1  0
 27 28  1  0
 28 29  1  1
 28 35  1  0
 29 30  2  0
 29 31  1  0
 30 33  1  0
 31 32  2  0
 32 33  1  0
 33 34  1  0
 35 36  2  0
 35 40  1  0
 36 37  1  0
 37 38  2  0
 38 39  1  0
 39 40  2  0
M  CHG  1  27   1
M  END
$$$$
