
     RDKit          3D

 40 45  0  0  0  0  0  0  0  0999 V2000
   22.3345   53.8414   29.4663 C   0  0  0  0  0  0  0  0  0  0  0  0
   22.3523   54.3491   28.1874 C   0  0  0  0  0  0  0  0  0  0  0  0
   21.3981   53.8855   27.3050 C   0  0  0  0  0  0  0  0  0  0  0  0
   20.4604   52.9349   27.7206 C   0  0  0  0  0  0  0  0  0  0  0  0
   20.4527   52.4336   29.0030 C   0  0  0  0  0  0  0  0  0  0  0  0
   17.1882   49.7294   28.4871 C   0  0  0  0  0  0  0  0  0  0  0  0
   17.0495   50.7234   26.3646 C   0  0  0  0  0  0  0  0  0  0  0  0
   15.9634   49.9330   26.0392 C   0  0  0  0  0  0  0  0  0  0  0  0
   25.6051   55.3840   26.7781 C   0  0  0  0  0  0  0  0  0  0  0  0
   24.7063   55.1627   27.9183 C   0  0  0  0  0  0  0  0  0  0  0  0
   25.1269   54.8284   29.0586 O   0  0  0  0  0  0  0  0  0  0  0  0
   23.3153   55.3244   27.7564 N   0  0  0  0  0  0  0  0  0  0  0  0
   21.4061   52.8990   29.8806 C   0  0  0  0  0  0  0  0  0  0  0  0
   19.4641   51.5765   29.0616 O   0  0  0  0  0  0  0  0  0  0  0  0
   19.4477   52.3269   27.0794 N   0  0  0  0  0  0  0  0  0  0  0  0
   18.8283   51.4776   27.9256 C   0  0  0  0  0  0  0  0  0  0  0  0
   17.6808   50.6405   27.5844 C   0  0  0  0  0  0  0  0  0  0  0  0
   16.0908   48.9257   28.1683 C   0  0  0  0  0  0  0  0  0  0  0  0
   15.5158   49.0572   26.9507 N   0  0  0  0  0  0  0  0  0  0  0  0
   15.3327   50.0533   24.7433 C   0  0  0  0  0  0  0  0  0  0  0  0
   15.5423   51.0752   24.0544 O   0  0  0  0  0  0  0  0  0  0  0  0
   14.4825   49.0451   24.2313 N   0  0  0  0  0  0  0  0  0  0  0  0
   14.4453   47.7197   24.8703 C   0  0  0  0  0  0  0  0  0  0  0  0
   13.7071   46.8412   23.8849 C   0  0  0  0  0  0  0  0  0  0  0  0
   13.6214   49.2170   23.0994 C   0  0  0  0  0  0  0  0  0  0  0  0
   13.9037   48.1859   21.9916 C   0  0  0  0  0  0  0  0  0  0  0  0
   14.4069   47.0005   22.5952 N   0  0  2  0  0  4  0  0  0  0  0  0
   14.3379   45.7959   21.8488 C   0  0  1  0  0  0  0  0  0  0  0  0
   14.9378   45.8851   20.4750 C   0  0  0  0  0  0  0  0  0  0  0  0
   14.5177   45.2905   19.3431 N   0  0  0  0  0  0  0  0  0  0  0  0
   16.0164   46.5985   20.1143 N   0  0  0  0  0  0  0  0  0  0  0  0
   16.2226   46.4257   18.8041 N   0  0  0  0  0  0  0  0  0  0  0  0
   15.2910   45.6130   18.3258 N   0  0  0  0  0  0  0  0  0  0  0  0
   15.1677   45.1744   16.9317 C   0  0  0  0  0  0  0  0  0  0  0  0
   14.7837   44.5703   22.5444 C   0  0  0  0  0  0  0  0  0  0  0  0
   13.8958   43.6126   23.0287 C   0  0  0  0  0  0  0  0  0  0  0  0
   14.2971   42.4736   23.6685 C   0  0  0  0  0  0  0  0  0  0  0  0
   15.6332   42.2492   23.8499 C   0  0  0  0  0  0  0  0  0  0  0  0
   16.5413   43.1608   23.3911 C   0  0  0  0  0  0  0  0  0  0  0  0
   16.1172   44.3277   22.7352 C   0  0  0  0  0  0  0  0  0  0  0  0
  2  1  2  0
 13  1  1  0
  3  2  1  0
  2 12  1  0
  4  3  2  0
  4  5  1  0
 15  4  1  0
  5 13  2  0
 14  5  1  0
 17  6  2  0
  6 18  1  0
  7  8  2  0
 17  7  1  0
  8 19  1  0
  8 20  1  0
 10  9  1  0
 10 11  2  0
 12 10  1  0
 16 14  1  0
 16 15  2  0
 16 17  1  0
 18 19  2  0
 20 21  2  0
 20 22  1  0
 22 23  1  0
 22 25  1  0
 23 24  1  0
 27 24  1  1
 25 26  1  0
 26 27  1  0
 27 28  1  0
 28 29  1  6
 28 35  1  0
 29 30  2  0
 29 31  1  0
 30 33  1  0
 31 32  2  0
 32 33  1  0
 33 34  1  0
 35 36  2  0
 35 40  1  0
 36 37  1  0
 37 38  2  0
 38 39  1  0
 39 40  2  0
M  CHG  1  27   1
M  END
$$$$
