
     RDKit          3D

 40 45  0  0  0  0  0  0  0  0999 V2000
   13.0603   42.9381   20.9196 C   0  0  0  0  0  0  0  0  0  0  0  0
   13.9855   42.4802   21.8295 C   0  0  0  0  0  0  0  0  0  0  0  0
   14.6813   43.4224   22.5590 C   0  0  0  0  0  0  0  0  0  0  0  0
   14.4363   44.7849   22.3608 C   0  0  0  0  0  0  0  0  0  0  0  0
   13.5082   45.2313   21.4469 C   0  0  0  0  0  0  0  0  0  0  0  0
   14.2444   49.4066   21.9820 C   0  0  0  0  0  0  0  0  0  0  0  0
   15.4601   48.6735   23.8520 C   0  0  0  0  0  0  0  0  0  0  0  0
   15.7604   49.9776   24.1976 C   0  0  0  0  0  0  0  0  0  0  0  0
   14.8515   39.2132   23.5645 C   0  0  0  0  0  0  0  0  0  0  0  0
   15.0449   40.5866   23.0816 C   0  0  0  0  0  0  0  0  0  0  0  0
   15.9127   41.3606   23.5679 O   0  0  0  0  0  0  0  0  0  0  0  0
   14.2412   41.0813   22.0344 N   0  0  0  0  0  0  0  0  0  0  0  0
   12.8157   44.2881   20.7214 C   0  0  0  0  0  0  0  0  0  0  0  0
   13.5252   46.5396   21.5079 O   0  0  0  0  0  0  0  0  0  0  0  0
   14.9617   45.8868   22.9232 N   0  0  0  0  0  0  0  0  0  0  0  0
   14.3862   46.9818   22.3840 C   0  0  0  0  0  0  0  0  0  0  0  0
   14.7024   48.3611   22.7466 C   0  0  0  0  0  0  0  0  0  0  0  0
   14.5421   50.7284   22.3226 C   0  0  0  0  0  0  0  0  0  0  0  0
   15.2926   50.9669   23.4228 N   0  0  0  0  0  0  0  0  0  0  0  0
   16.5626   50.2584   25.3678 C   0  0  0  0  0  0  0  0  0  0  0  0
   16.6890   49.3789   26.2472 O   0  0  0  0  0  0  0  0  0  0  0  0
   17.2100   51.5034   25.5469 N   0  0  0  0  0  0  0  0  0  0  0  0
   17.2378   52.4827   24.4484 C   0  0  0  0  0  0  0  0  0  0  0  0
   18.2635   53.5084   24.8771 C   0  0  0  0  0  0  0  0  0  0  0  0
   17.8641   51.9036   26.7569 C   0  0  0  0  0  0  0  0  0  0  0  0
   19.3427   52.2655   26.5268 C   0  0  0  0  0  0  0  0  0  0  0  0
   19.4879   52.7492   25.1973 N   0  0  2  0  0  4  0  0  0  0  0  0
   20.6374   53.5242   24.8958 C   0  0  1  0  0  0  0  0  0  0  0  0
   20.4291   54.5425   23.8119 C   0  0  0  0  0  0  0  0  0  0  0  0
   21.3073   55.4461   23.3389 N   0  0  0  0  0  0  0  0  0  0  0  0
   19.3116   54.7332   23.0929 N   0  0  0  0  0  0  0  0  0  0  0  0
   19.5299   55.7237   22.2210 N   0  0  0  0  0  0  0  0  0  0  0  0
   20.7700   56.1660   22.3746 N   0  0  0  0  0  0  0  0  0  0  0  0
   21.3971   57.2472   21.6072 C   0  0  0  0  0  0  0  0  0  0  0  0
   21.3477   54.1147   26.0498 C   0  0  0  0  0  0  0  0  0  0  0  0
   20.7726   55.0754   26.8782 C   0  0  0  0  0  0  0  0  0  0  0  0
   21.4180   55.6241   27.9506 C   0  0  0  0  0  0  0  0  0  0  0  0
   22.6921   55.2203   28.2370 C   0  0  0  0  0  0  0  0  0  0  0  0
   23.2967   54.2795   27.4523 C   0  0  0  0  0  0  0  0  0  0  0  0
   22.6236   53.7229   26.3528 C   0  0  0  0  0  0  0  0  0  0  0  0
  2  1  2  0
 13  1  1  0
  3  2  1  0
  2 12  1  0
  4  3  2  0
  4  5  1  0
 15  4  1  0
  5 13  2  0
 14  5  1  0
 17  6  2  0
  6 18  1  0
  7  8  2  0
 17  7  1  0
  8 19  1  0
  8 20  1  0
 10  9  1  0
 10 11  2  0
 12 10  1  0
 16 14  1  0
 16 15  2  0
 16 17  1  0
 18 19  2  0
 20 21  2  0
 20 22  1  0
 22 23  1  0
 22 25  1  0
 23 24  1  0
 27 24  1  1
 25 26  1  0
 26 27  1  0
 27 28  1  0
 28 29  1  6
 28 35  1  0
 29 30  2  0
 29 31  1  0
 30 33  1  0
 31 32  2  0
 32 33  1  0
 33 34  1  0
 35 36  2  0
 35 40  1  0
 36 37  1  0
 37 38  2  0
 38 39  1  0
 39 40  2  0
M  CHG  1  27   1
M  END
$$$$
