
     RDKit          3D

 40 45  0  0  0  0  0  0  0  0999 V2000
  -33.1983    8.4590  -18.3667 C   0  0  0  0  0  0  0  0  0  0  0  0
  -34.5242    8.4769  -17.9991 C   0  0  0  0  0  0  0  0  0  0  0  0
  -34.8540    7.9247  -16.7783 C   0  0  0  0  0  0  0  0  0  0  0  0
  -33.8585    7.3739  -15.9651 C   0  0  0  0  0  0  0  0  0  0  0  0
  -32.5348    7.3612  -16.3438 C   0  0  0  0  0  0  0  0  0  0  0  0
  -31.1138    5.0892  -13.0088 C   0  0  0  0  0  0  0  0  0  0  0  0
  -33.1585    5.7401  -12.0560 C   0  0  0  0  0  0  0  0  0  0  0  0
  -32.8348    5.1071  -10.8707 C   0  0  0  0  0  0  0  0  0  0  0  0
  -37.8427    9.1201  -19.8024 C   0  0  0  0  0  0  0  0  0  0  0  0
  -36.7848    8.4056  -19.0763 C   0  0  0  0  0  0  0  0  0  0  0  0
  -36.9303    7.2278  -18.6515 O   0  0  0  0  0  0  0  0  0  0  0  0
  -35.5499    9.0402  -18.8328 N   0  0  0  0  0  0  0  0  0  0  0  0
  -32.2097    7.9135  -17.5623 C   0  0  0  0  0  0  0  0  0  0  0  0
  -31.8752    6.7816  -15.3719 O   0  0  0  0  0  0  0  0  0  0  0  0
  -33.9040    6.7840  -14.7582 N   0  0  0  0  0  0  0  0  0  0  0  0
  -32.6581    6.4158  -14.3932 C   0  0  0  0  0  0  0  0  0  0  0  0
  -32.3134    5.7455  -13.1419 C   0  0  0  0  0  0  0  0  0  0  0  0
  -30.7768    4.4463  -11.8151 C   0  0  0  0  0  0  0  0  0  0  0  0
  -31.6533    4.4787  -10.7850 N   0  0  0  0  0  0  0  0  0  0  0  0
  -33.7557    5.1257   -9.7557 C   0  0  0  0  0  0  0  0  0  0  0  0
  -34.3286    6.1953   -9.4544 O   0  0  0  0  0  0  0  0  0  0  0  0
  -34.0275    3.9653   -8.9937 N   0  0  0  0  0  0  0  0  0  0  0  0
  -33.7060    2.6359   -9.5376 C   0  0  0  0  0  0  0  0  0  0  0  0
  -34.4176    1.6659   -8.6209 C   0  0  0  0  0  0  0  0  0  0  0  0
  -34.6113    3.9802   -7.6854 C   0  0  0  0  0  0  0  0  0  0  0  0
  -35.9065    3.1511   -7.6167 C   0  0  0  0  0  0  0  0  0  0  0  0
  -35.8257    2.1060   -8.5780 N   0  0  2  0  0  4  0  0  0  0  0  0
  -36.6834    0.9877   -8.4149 C   0  0  1  0  0  0  0  0  0  0  0  0
  -38.0940    1.3404   -8.0394 C   0  0  0  0  0  0  0  0  0  0  0  0
  -38.6678    1.2943   -6.8229 N   0  0  0  0  0  0  0  0  0  0  0  0
  -39.0562    1.7877   -8.8618 N   0  0  0  0  0  0  0  0  0  0  0  0
  -40.1656    1.9979   -8.1448 N   0  0  0  0  0  0  0  0  0  0  0  0
  -39.9234    1.6911   -6.8782 N   0  0  0  0  0  0  0  0  0  0  0  0
  -40.8834    1.7846   -5.7734 C   0  0  0  0  0  0  0  0  0  0  0  0
  -36.6578   -0.0182   -9.4976 C   0  0  0  0  0  0  0  0  0  0  0  0
  -36.3500   -1.3582   -9.2751 C   0  0  0  0  0  0  0  0  0  0  0  0
  -36.3284   -2.2974  -10.2676 C   0  0  0  0  0  0  0  0  0  0  0  0
  -36.6212   -1.9181  -11.5477 C   0  0  0  0  0  0  0  0  0  0  0  0
  -36.9298   -0.6141  -11.8136 C   0  0  0  0  0  0  0  0  0  0  0  0
  -36.9485    0.3423  -10.7856 C   0  0  0  0  0  0  0  0  0  0  0  0
  2  1  2  0
 13  1  1  0
  3  2  1  0
  2 12  1  0
  4  3  2  0
  4  5  1  0
 15  4  1  0
  5 13  2  0
 14  5  1  0
 17  6  2  0
  6 18  1  0
  7  8  2  0
 17  7  1  0
  8 19  1  0
  8 20  1  0
 10  9  1  0
 10 11  2  0
 12 10  1  0
 16 14  1  0
 16 15  2  0
 16 17  1  0
 18 19  2  0
 20 21  2  0
 20 22  1  0
 22 23  1  0
 22 25  1  0
 23 24  1  0
 27 24  1  1
 25 26  1  0
 26 27  1  0
 27 28  1  0
 28 29  1  6
 28 35  1  0
 29 30  2  0
 29 31  1  0
 30 33  1  0
 31 32  2  0
 32 33  1  0
 33 34  1  0
 35 36  2  0
 35 40  1  0
 36 37  1  0
 37 38  2  0
 38 39  1  0
 39 40  2  0
M  CHG  1  27   1
M  END
$$$$
