
     RDKit          3D

 40 45  0  0  0  0  0  0  0  0999 V2000
   14.1506   43.5841   25.8063 C   0  0  0  0  0  0  0  0  0  0  0  0
   14.0859   42.9903   24.5667 C   0  0  0  0  0  0  0  0  0  0  0  0
   14.4726   43.7452   23.4782 C   0  0  0  0  0  0  0  0  0  0  0  0
   14.9091   45.0617   23.6563 C   0  0  0  0  0  0  0  0  0  0  0  0
   14.9691   45.6456   24.9019 C   0  0  0  0  0  0  0  0  0  0  0  0
   16.6437   48.3491   21.5751 C   0  0  0  0  0  0  0  0  0  0  0  0
   16.1273   49.5594   23.5195 C   0  0  0  0  0  0  0  0  0  0  0  0
   16.5954   50.7265   22.9459 C   0  0  0  0  0  0  0  0  0  0  0  0
   13.2130   39.6198   22.9836 C   0  0  0  0  0  0  0  0  0  0  0  0
   13.9319   40.8763   23.2313 C   0  0  0  0  0  0  0  0  0  0  0  0
   14.8189   41.3155   22.4509 O   0  0  0  0  0  0  0  0  0  0  0  0
   13.6361   41.6386   24.3796 N   0  0  0  0  0  0  0  0  0  0  0  0
   14.5829   44.8890   25.9855 C   0  0  0  0  0  0  0  0  0  0  0  0
   15.4120   46.8648   24.7205 O   0  0  0  0  0  0  0  0  0  0  0  0
   15.3316   45.9970   22.7884 N   0  0  0  0  0  0  0  0  0  0  0  0
   15.6448   47.1234   23.4622 C   0  0  0  0  0  0  0  0  0  0  0  0
   16.1407   48.3554   22.8535 C   0  0  0  0  0  0  0  0  0  0  0  0
   17.1194   49.5233   20.9860 C   0  0  0  0  0  0  0  0  0  0  0  0
   17.0777   50.6742   21.6958 N   0  0  0  0  0  0  0  0  0  0  0  0
   16.5635   51.9692   23.6850 C   0  0  0  0  0  0  0  0  0  0  0  0
   15.7288   52.1118   24.6047 O   0  0  0  0  0  0  0  0  0  0  0  0
   17.4520   53.0315   23.3962 N   0  0  0  0  0  0  0  0  0  0  0  0
   18.8303   52.7421   22.9684 C   0  0  0  0  0  0  0  0  0  0  0  0
   19.5493   54.0687   23.0732 C   0  0  0  0  0  0  0  0  0  0  0  0
   17.1051   54.4184   23.4887 C   0  0  0  0  0  0  0  0  0  0  0  0
   18.0340   55.1880   24.4452 C   0  0  0  0  0  0  0  0  0  0  0  0
   19.3074   54.5545   24.4457 N   0  0  2  0  0  4  0  0  0  0  0  0
   20.4211   55.3054   24.9026 C   0  0  1  0  0  0  0  0  0  0  0  0
   20.0873   56.3334   25.9452 C   0  0  0  0  0  0  0  0  0  0  0  0
   20.0030   57.6687   25.8003 N   0  0  0  0  0  0  0  0  0  0  0  0
   19.7933   56.1035   27.2348 N   0  0  0  0  0  0  0  0  0  0  0  0
   19.5433   57.2749   27.8300 N   0  0  0  0  0  0  0  0  0  0  0  0
   19.6738   58.2468   26.9381 N   0  0  0  0  0  0  0  0  0  0  0  0
   19.4829   59.6782   27.1940 C   0  0  0  0  0  0  0  0  0  0  0  0
   21.6188   54.5290   25.2866 C   0  0  0  0  0  0  0  0  0  0  0  0
   21.6891   53.7820   26.4601 C   0  0  0  0  0  0  0  0  0  0  0  0
   22.7891   53.0565   26.8224 C   0  0  0  0  0  0  0  0  0  0  0  0
   23.8828   53.0541   26.0025 C   0  0  0  0  0  0  0  0  0  0  0  0
   23.8594   53.7718   24.8404 C   0  0  0  0  0  0  0  0  0  0  0  0
   22.7235   54.5138   24.4787 C   0  0  0  0  0  0  0  0  0  0  0  0
  2  1  2  0
 13  1  1  0
  3  2  1  0
  2 12  1  0
  4  3  2  0
  4  5  1  0
 15  4  1  0
  5 13  2  0
 14  5  1  0
 17  6  2  0
  6 18  1  0
  7  8  2  0
 17  7  1  0
  8 19  1  0
  8 20  1  0
 10  9  1  0
 10 11  2  0
 12 10  1  0
 16 14  1  0
 16 15  2  0
 16 17  1  0
 18 19  2  0
 20 21  2  0
 20 22  1  0
 22 23  1  0
 22 25  1  0
 23 24  1  0
 27 24  1  6
 25 26  1  0
 26 27  1  0
 27 28  1  0
 28 29  1  1
 28 35  1  0
 29 30  2  0
 29 31  1  0
 30 33  1  0
 31 32  2  0
 32 33  1  0
 33 34  1  0
 35 36  2  0
 35 40  1  0
 36 37  1  0
 37 38  2  0
 38 39  1  0
 39 40  2  0
M  CHG  1  27   1
M  END
$$$$
