
     RDKit          3D

 40 45  0  0  0  0  0  0  0  0999 V2000
   16.4560   44.0844   26.9514 C   0  0  0  0  0  0  0  0  0  0  0  0
   16.2420   43.3933   25.7809 C   0  0  0  0  0  0  0  0  0  0  0  0
   15.9931   44.1317   24.6420 C   0  0  0  0  0  0  0  0  0  0  0  0
   15.9646   45.5285   24.7032 C   0  0  0  0  0  0  0  0  0  0  0  0
   16.1798   46.2092   25.8806 C   0  0  0  0  0  0  0  0  0  0  0  0
   15.2274   48.9719   22.3181 C   0  0  0  0  0  0  0  0  0  0  0  0
   15.8840   50.1712   24.2268 C   0  0  0  0  0  0  0  0  0  0  0  0
   15.7148   51.3703   23.5606 C   0  0  0  0  0  0  0  0  0  0  0  0
   17.2831   39.7211   26.1260 C   0  0  0  0  0  0  0  0  0  0  0  0
   17.2507   41.1721   26.3506 C   0  0  0  0  0  0  0  0  0  0  0  0
   18.0755   41.7610   27.1000 O   0  0  0  0  0  0  0  0  0  0  0  0
   16.2685   41.9583   25.7147 N   0  0  0  0  0  0  0  0  0  0  0  0
   16.4283   45.4689   27.0146 C   0  0  0  0  0  0  0  0  0  0  0  0
   16.0849   47.4842   25.5961 O   0  0  0  0  0  0  0  0  0  0  0  0
   15.7488   46.4680   23.7666 N   0  0  0  0  0  0  0  0  0  0  0  0
   15.8257   47.6903   24.3332 C   0  0  0  0  0  0  0  0  0  0  0  0
   15.6464   48.9561   23.6264 C   0  0  0  0  0  0  0  0  0  0  0  0
   15.0531   50.1785   21.6356 C   0  0  0  0  0  0  0  0  0  0  0  0
   15.3042   51.3388   22.2844 N   0  0  0  0  0  0  0  0  0  0  0  0
   15.9787   52.6240   24.2316 C   0  0  0  0  0  0  0  0  0  0  0  0
   15.3379   52.9098   25.2663 O   0  0  0  0  0  0  0  0  0  0  0  0
   16.9437   53.5392   23.7494 N   0  0  0  0  0  0  0  0  0  0  0  0
   18.1921   53.0430   23.1479 C   0  0  0  0  0  0  0  0  0  0  0  0
   19.0848   54.2610   23.0614 C   0  0  0  0  0  0  0  0  0  0  0  0
   16.7978   54.9635   23.7999 C   0  0  0  0  0  0  0  0  0  0  0  0
   17.9526   55.6400   24.5607 C   0  0  0  0  0  0  0  0  0  0  0  0
   19.1183   54.8374   24.4197 N   0  0  2  0  0  4  0  0  0  0  0  0
   20.3762   55.4472   24.6619 C   0  0  1  0  0  0  0  0  0  0  0  0
   20.2946   56.7801   25.3487 C   0  0  0  0  0  0  0  0  0  0  0  0
   19.6097   57.1024   26.4615 N   0  0  0  0  0  0  0  0  0  0  0  0
   20.9123   57.9133   24.9792 N   0  0  0  0  0  0  0  0  0  0  0  0
   20.5967   58.8750   25.8536 N   0  0  0  0  0  0  0  0  0  0  0  0
   19.7874   58.3704   26.7742 N   0  0  0  0  0  0  0  0  0  0  0  0
   19.2158   59.1024   27.9093 C   0  0  0  0  0  0  0  0  0  0  0  0
   21.4077   54.5911   25.2847 C   0  0  0  0  0  0  0  0  0  0  0  0
   21.2143   53.9408   26.5011 C   0  0  0  0  0  0  0  0  0  0  0  0
   22.1588   53.1430   27.0833 C   0  0  0  0  0  0  0  0  0  0  0  0
   23.3583   52.9648   26.4526 C   0  0  0  0  0  0  0  0  0  0  0  0
   23.5928   53.5825   25.2568 C   0  0  0  0  0  0  0  0  0  0  0  0
   22.6147   54.4002   24.6683 C   0  0  0  0  0  0  0  0  0  0  0  0
  2  1  2  0
 13  1  1  0
  3  2  1  0
  2 12  1  0
  4  3  2  0
  4  5  1  0
 15  4  1  0
  5 13  2  0
 14  5  1  0
 17  6  2  0
  6 18  1  0
  7  8  2  0
 17  7  1  0
  8 19  1  0
  8 20  1  0
 10  9  1  0
 10 11  2  0
 12 10  1  0
 16 14  1  0
 16 15  2  0
 16 17  1  0
 18 19  2  0
 20 21  2  0
 20 22  1  0
 22 23  1  0
 22 25  1  0
 23 24  1  0
 27 24  1  6
 25 26  1  0
 26 27  1  0
 27 28  1  0
 28 29  1  1
 28 35  1  0
 29 30  2  0
 29 31  1  0
 30 33  1  0
 31 32  2  0
 32 33  1  0
 33 34  1  0
 35 36  2  0
 35 40  1  0
 36 37  1  0
 37 38  2  0
 38 39  1  0
 39 40  2  0
M  CHG  1  27   1
M  END
$$$$
