
     RDKit          3D

 40 45  0  0  0  0  0  0  0  0999 V2000
   11.1454   46.6904   30.5040 C   0  0  0  0  0  0  0  0  0  0  0  0
   10.7558   47.9895   30.2717 C   0  0  0  0  0  0  0  0  0  0  0  0
   11.5533   48.7554   29.4461 C   0  0  0  0  0  0  0  0  0  0  0  0
   12.7087   48.2072   28.8803 C   0  0  0  0  0  0  0  0  0  0  0  0
   13.0888   46.9057   29.1205 C   0  0  0  0  0  0  0  0  0  0  0  0
   16.6497   46.9540   26.7650 C   0  0  0  0  0  0  0  0  0  0  0  0
   15.9845   49.1540   26.2860 C   0  0  0  0  0  0  0  0  0  0  0  0
   17.0897   49.3372   25.4766 C   0  0  0  0  0  0  0  0  0  0  0  0
    7.2128   48.4752   31.6518 C   0  0  0  0  0  0  0  0  0  0  0  0
    8.4212   47.8005   31.1604 C   0  0  0  0  0  0  0  0  0  0  0  0
    8.4821   46.5521   30.9970 O   0  0  0  0  0  0  0  0  0  0  0  0
    9.5705   48.5567   30.8528 N   0  0  0  0  0  0  0  0  0  0  0  0
   12.2902   46.1447   29.9444 C   0  0  0  0  0  0  0  0  0  0  0  0
   14.1983   46.7126   28.4517 O   0  0  0  0  0  0  0  0  0  0  0  0
   13.6425   48.7204   28.0611 N   0  0  0  0  0  0  0  0  0  0  0  0
   14.5722   47.7786   27.7971 C   0  0  0  0  0  0  0  0  0  0  0  0
   15.7415   47.9694   26.9426 C   0  0  0  0  0  0  0  0  0  0  0  0
   17.7702   47.1287   25.9489 C   0  0  0  0  0  0  0  0  0  0  0  0
   17.9502   48.3191   25.3317 N   0  0  0  0  0  0  0  0  0  0  0  0
   17.3056   50.6011   24.8076 C   0  0  0  0  0  0  0  0  0  0  0  0
   17.1703   51.6641   25.4516 O   0  0  0  0  0  0  0  0  0  0  0  0
   17.6660   50.6697   23.4414 N   0  0  0  0  0  0  0  0  0  0  0  0
   18.5548   49.6489   22.8629 C   0  0  0  0  0  0  0  0  0  0  0  0
   18.9687   50.2174   21.5238 C   0  0  0  0  0  0  0  0  0  0  0  0
   17.2178   51.6900   22.5411 C   0  0  0  0  0  0  0  0  0  0  0  0
   18.3895   52.4453   21.8878 C   0  0  0  0  0  0  0  0  0  0  0  0
   19.5031   51.5647   21.8020 N   0  0  2  0  0  4  0  0  0  0  0  0
   20.5310   51.8842   20.8778 C   0  0  1  0  0  0  0  0  0  0  0  0
   20.5309   53.3157   20.4241 C   0  0  0  0  0  0  0  0  0  0  0  0
   20.3163   53.7962   19.1854 N   0  0  0  0  0  0  0  0  0  0  0  0
   20.7358   54.4005   21.1880 N   0  0  0  0  0  0  0  0  0  0  0  0
   20.6437   55.4887   20.4159 N   0  0  0  0  0  0  0  0  0  0  0  0
   20.3831   55.1124   19.1719 N   0  0  0  0  0  0  0  0  0  0  0  0
   20.2075   56.0071   18.0231 C   0  0  0  0  0  0  0  0  0  0  0  0
   21.8943   51.4415   21.2387 C   0  0  0  0  0  0  0  0  0  0  0  0
   22.6019   50.4981   20.4976 C   0  0  0  0  0  0  0  0  0  0  0  0
   23.8645   50.0855   20.8192 C   0  0  0  0  0  0  0  0  0  0  0  0
   24.4764   50.6160   21.9202 C   0  0  0  0  0  0  0  0  0  0  0  0
   23.8210   51.5453   22.6774 C   0  0  0  0  0  0  0  0  0  0  0  0
   22.5237   51.9614   22.3373 C   0  0  0  0  0  0  0  0  0  0  0  0
  2  1  2  0
 13  1  1  0
  3  2  1  0
  2 12  1  0
  4  3  2  0
  4  5  1  0
 15  4  1  0
  5 13  2  0
 14  5  1  0
 17  6  2  0
  6 18  1  0
  7  8  2  0
 17  7  1  0
  8 19  1  0
  8 20  1  0
 10  9  1  0
 10 11  2  0
 12 10  1  0
 16 14  1  0
 16 15  2  0
 16 17  1  0
 18 19  2  0
 20 21  2  0
 20 22  1  0
 22 23  1  0
 22 25  1  0
 23 24  1  0
 27 24  1  6
 25 26  1  0
 26 27  1  0
 27 28  1  0
 28 29  1  1
 28 35  1  0
 29 30  2  0
 29 31  1  0
 30 33  1  0
 31 32  2  0
 32 33  1  0
 33 34  1  0
 35 36  2  0
 35 40  1  0
 36 37  1  0
 37 38  2  0
 38 39  1  0
 39 40  2  0
M  CHG  1  27   1
M  END
$$$$
