
     RDKit          3D

 40 45  0  0  0  0  0  0  0  0999 V2000
   14.6930   42.7939   25.4375 C   0  0  0  0  0  0  0  0  0  0  0  0
   14.7723   43.0838   24.0947 C   0  0  0  0  0  0  0  0  0  0  0  0
   15.1330   44.3678   23.7408 C   0  0  0  0  0  0  0  0  0  0  0  0
   15.4018   45.3193   24.7298 C   0  0  0  0  0  0  0  0  0  0  0  0
   15.3186   45.0177   26.0707 C   0  0  0  0  0  0  0  0  0  0  0  0
   16.3949   48.8767   27.5469 C   0  0  0  0  0  0  0  0  0  0  0  0
   16.5557   49.4104   25.2662 C   0  0  0  0  0  0  0  0  0  0  0  0
   16.9203   50.7082   25.5713 C   0  0  0  0  0  0  0  0  0  0  0  0
   13.4210   40.0333   22.2155 C   0  0  0  0  0  0  0  0  0  0  0  0
   13.8555   40.8799   23.3342 C   0  0  0  0  0  0  0  0  0  0  0  0
   13.6808   40.5540   24.5392 O   0  0  0  0  0  0  0  0  0  0  0  0
   14.4951   42.1093   23.0759 N   0  0  0  0  0  0  0  0  0  0  0  0
   14.9589   43.7353   26.4197 C   0  0  0  0  0  0  0  0  0  0  0  0
   15.6265   46.1136   26.7185 O   0  0  0  0  0  0  0  0  0  0  0  0
   15.7637   46.6120   24.6629 N   0  0  0  0  0  0  0  0  0  0  0  0
   15.9026   47.1027   25.9123 C   0  0  0  0  0  0  0  0  0  0  0  0
   16.2872   48.4739   26.2378 C   0  0  0  0  0  0  0  0  0  0  0  0
   16.7627   50.1862   27.8662 C   0  0  0  0  0  0  0  0  0  0  0  0
   17.0131   51.0581   26.8624 N   0  0  0  0  0  0  0  0  0  0  0  0
   17.1911   51.6597   24.5163 C   0  0  0  0  0  0  0  0  0  0  0  0
   17.1357   51.2834   23.3253 O   0  0  0  0  0  0  0  0  0  0  0  0
   17.5184   53.0077   24.7937 N   0  0  0  0  0  0  0  0  0  0  0  0
   17.5295   54.0007   23.7072 C   0  0  0  0  0  0  0  0  0  0  0  0
   18.2233   55.2071   24.2995 C   0  0  0  0  0  0  0  0  0  0  0  0
   17.8510   53.5033   26.0961 C   0  0  0  0  0  0  0  0  0  0  0  0
   19.2361   54.1745   26.1269 C   0  0  0  0  0  0  0  0  0  0  0  0
   19.5057   54.7142   24.8389 N   0  0  2  0  0  4  0  0  0  0  0  0
   20.4992   55.7218   24.7371 C   0  0  1  0  0  0  0  0  0  0  0  0
   20.0157   57.1027   25.0753 C   0  0  0  0  0  0  0  0  0  0  0  0
   19.0691   57.4588   25.9633 N   0  0  0  0  0  0  0  0  0  0  0  0
   20.4565   58.2584   24.5535 N   0  0  0  0  0  0  0  0  0  0  0  0
   19.7847   59.2659   25.1216 N   0  0  0  0  0  0  0  0  0  0  0  0
   18.9230   58.7683   25.9973 N   0  0  0  0  0  0  0  0  0  0  0  0
   17.9988   59.5458   26.8293 C   0  0  0  0  0  0  0  0  0  0  0  0
   21.7903   55.4347   25.3971 C   0  0  0  0  0  0  0  0  0  0  0  0
   21.9597   55.4895   26.7784 C   0  0  0  0  0  0  0  0  0  0  0  0
   23.1472   55.2210   27.3994 C   0  0  0  0  0  0  0  0  0  0  0  0
   24.2317   54.8805   26.6404 C   0  0  0  0  0  0  0  0  0  0  0  0
   24.1127   54.8135   25.2811 C   0  0  0  0  0  0  0  0  0  0  0  0
   22.8874   55.0918   24.6541 C   0  0  0  0  0  0  0  0  0  0  0  0
  2  1  2  0
 13  1  1  0
  3  2  1  0
  2 12  1  0
  4  3  2  0
  4  5  1  0
 15  4  1  0
  5 13  2  0
 14  5  1  0
 17  6  2  0
  6 18  1  0
  7  8  2  0
 17  7  1  0
  8 19  1  0
  8 20  1  0
 10  9  1  0
 10 11  2  0
 12 10  1  0
 16 14  1  0
 16 15  2  0
 16 17  1  0
 18 19  2  0
 20 21  2  0
 20 22  1  0
 22 23  1  0
 22 25  1  0
 23 24  1  0
 27 24  1  1
 25 26  1  0
 26 27  1  0
 27 28  1  0
 28 29  1  1
 28 35  1  0
 29 30  2  0
 29 31  1  0
 30 33  1  0
 31 32  2  0
 32 33  1  0
 33 34  1  0
 35 36  2  0
 35 40  1  0
 36 37  1  0
 37 38  2  0
 38 39  1  0
 39 40  2  0
M  CHG  1  27   1
M  END
$$$$
