
     RDKit          3D

 40 45  0  0  0  0  0  0  0  0999 V2000
   15.3539   42.7401   21.1721 C   0  0  0  0  0  0  0  0  0  0  0  0
   14.0029   42.8445   20.9327 C   0  0  0  0  0  0  0  0  0  0  0  0
   13.4132   44.0750   21.1377 C   0  0  0  0  0  0  0  0  0  0  0  0
   14.1827   45.1585   21.5731 C   0  0  0  0  0  0  0  0  0  0  0  0
   15.5341   45.0420   21.8099 C   0  0  0  0  0  0  0  0  0  0  0  0
   14.0662   49.3822   22.1727 C   0  0  0  0  0  0  0  0  0  0  0  0
   16.0170   49.0144   23.4261 C   0  0  0  0  0  0  0  0  0  0  0  0
   16.0650   50.3477   23.7871 C   0  0  0  0  0  0  0  0  0  0  0  0
   11.1556   40.6941   19.5340 C   0  0  0  0  0  0  0  0  0  0  0  0
   11.8577   41.8518   20.1030 C   0  0  0  0  0  0  0  0  0  0  0  0
   11.2993   42.9697   20.2679 O   0  0  0  0  0  0  0  0  0  0  0  0
   13.2088   41.7331   20.4872 N   0  0  0  0  0  0  0  0  0  0  0  0
   16.1189   43.8126   21.6037 C   0  0  0  0  0  0  0  0  0  0  0  0
   15.9466   46.2220   22.2009 O   0  0  0  0  0  0  0  0  0  0  0  0
   13.8678   46.4363   21.8463 N   0  0  0  0  0  0  0  0  0  0  0  0
   14.9776   47.0961   22.2389 C   0  0  0  0  0  0  0  0  0  0  0  0
   15.0259   48.5060   22.6183 C   0  0  0  0  0  0  0  0  0  0  0  0
   14.1053   50.7319   22.5316 C   0  0  0  0  0  0  0  0  0  0  0  0
   15.1076   51.1675   23.3292 N   0  0  0  0  0  0  0  0  0  0  0  0
   17.1274   50.8382   24.6369 C   0  0  0  0  0  0  0  0  0  0  0  0
   17.0065   50.7507   25.8781 O   0  0  0  0  0  0  0  0  0  0  0  0
   18.3029   51.4162   24.1028 N   0  0  0  0  0  0  0  0  0  0  0  0
   19.6212   51.0117   24.6177 C   0  0  0  0  0  0  0  0  0  0  0  0
   20.5797   52.0437   24.0664 C   0  0  0  0  0  0  0  0  0  0  0  0
   18.3144   52.3995   23.0609 C   0  0  0  0  0  0  0  0  0  0  0  0
   19.0359   53.6908   23.4875 C   0  0  0  0  0  0  0  0  0  0  0  0
   20.0276   53.3573   24.4510 N   0  0  2  0  0  4  0  0  0  0  0  0
   21.0784   54.2852   24.6690 C   0  0  1  0  0  0  0  0  0  0  0  0
   20.8674   55.6218   24.0178 C   0  0  0  0  0  0  0  0  0  0  0  0
   21.6830   56.2710   23.1666 N   0  0  0  0  0  0  0  0  0  0  0  0
   19.8000   56.4239   24.1577 N   0  0  0  0  0  0  0  0  0  0  0  0
   19.9862   57.5154   23.4073 N   0  0  0  0  0  0  0  0  0  0  0  0
   21.1563   57.4196   22.7919 N   0  0  0  0  0  0  0  0  0  0  0  0
   21.7292   58.4125   21.8771 C   0  0  0  0  0  0  0  0  0  0  0  0
   21.5320   54.4413   26.0671 C   0  0  0  0  0  0  0  0  0  0  0  0
   22.8696   54.3393   26.4418 C   0  0  0  0  0  0  0  0  0  0  0  0
   23.3006   54.4870   27.7303 C   0  0  0  0  0  0  0  0  0  0  0  0
   22.3852   54.7478   28.7112 C   0  0  0  0  0  0  0  0  0  0  0  0
   21.0617   54.8571   28.3906 C   0  0  0  0  0  0  0  0  0  0  0  0
   20.6306   54.7032   27.0631 C   0  0  0  0  0  0  0  0  0  0  0  0
  2  1  2  0
 13  1  1  0
  3  2  1  0
  2 12  1  0
  4  3  2  0
  4  5  1  0
 15  4  1  0
  5 13  2  0
 14  5  1  0
 17  6  2  0
  6 18  1  0
  7  8  2  0
 17  7  1  0
  8 19  1  0
  8 20  1  0
 10  9  1  0
 10 11  2  0
 12 10  1  0
 16 14  1  0
 16 15  2  0
 16 17  1  0
 18 19  2  0
 20 21  2  0
 20 22  1  0
 22 23  1  0
 22 25  1  0
 23 24  1  0
 27 24  1  6
 25 26  1  0
 26 27  1  0
 27 28  1  0
 28 29  1  1
 28 35  1  0
 29 30  2  0
 29 31  1  0
 30 33  1  0
 31 32  2  0
 32 33  1  0
 33 34  1  0
 35 36  2  0
 35 40  1  0
 36 37  1  0
 37 38  2  0
 38 39  1  0
 39 40  2  0
M  CHG  1  27   1
M  END
$$$$
