
     RDKit          3D

 40 45  0  0  0  0  0  0  0  0999 V2000
   22.2190   55.0535   29.3415 C   0  0  0  0  0  0  0  0  0  0  0  0
   22.6885   55.9042   28.3672 C   0  0  0  0  0  0  0  0  0  0  0  0
   22.1613   55.7724   27.0988 C   0  0  0  0  0  0  0  0  0  0  0  0
   21.1879   54.8021   26.8406 C   0  0  0  0  0  0  0  0  0  0  0  0
   20.7260   53.9559   27.8237 C   0  0  0  0  0  0  0  0  0  0  0  0
   18.7047   53.2969   23.7346 C   0  0  0  0  0  0  0  0  0  0  0  0
   18.0061   51.7324   25.3398 C   0  0  0  0  0  0  0  0  0  0  0  0
   17.1640   51.1321   24.4228 C   0  0  0  0  0  0  0  0  0  0  0  0
   24.8427   59.0319   28.0510 C   0  0  0  0  0  0  0  0  0  0  0  0
   24.1722   57.7896   27.6461 C   0  0  0  0  0  0  0  0  0  0  0  0
   24.0036   57.4725   26.4379 O   0  0  0  0  0  0  0  0  0  0  0  0
   23.6899   56.9010   28.6284 N   0  0  0  0  0  0  0  0  0  0  0  0
   21.2542   54.0909   29.0880 C   0  0  0  0  0  0  0  0  0  0  0  0
   19.8345   53.1804   27.2586 O   0  0  0  0  0  0  0  0  0  0  0  0
   20.5236   54.4667   25.7213 N   0  0  0  0  0  0  0  0  0  0  0  0
   19.6778   53.4503   25.9910 C   0  0  0  0  0  0  0  0  0  0  0  0
   18.7883   52.8182   25.0197 C   0  0  0  0  0  0  0  0  0  0  0  0
   17.8568   52.6975   22.8000 C   0  0  0  0  0  0  0  0  0  0  0  0
   17.1140   51.6323   23.1796 N   0  0  0  0  0  0  0  0  0  0  0  0
   16.3582   49.9935   24.8049 C   0  0  0  0  0  0  0  0  0  0  0  0
   16.3729   49.6061   25.9934 O   0  0  0  0  0  0  0  0  0  0  0  0
   15.5519   49.3032   23.8697 N   0  0  0  0  0  0  0  0  0  0  0  0
   14.7065   48.1828   24.3129 C   0  0  0  0  0  0  0  0  0  0  0  0
   14.2672   47.5064   23.0334 C   0  0  0  0  0  0  0  0  0  0  0  0
   15.4884   49.6194   22.4738 C   0  0  0  0  0  0  0  0  0  0  0  0
   15.8530   48.4148   21.5872 C   0  0  0  0  0  0  0  0  0  0  0  0
   15.5035   47.2222   22.2789 N   0  0  2  0  0  4  0  0  0  0  0  0
   15.3503   46.0350   21.5174 C   0  0  1  0  0  0  0  0  0  0  0  0
   16.2969   45.9185   20.3576 C   0  0  0  0  0  0  0  0  0  0  0  0
   17.6358   46.0553   20.3590 N   0  0  0  0  0  0  0  0  0  0  0  0
   15.9767   45.6383   19.0843 N   0  0  0  0  0  0  0  0  0  0  0  0
   17.0998   45.6118   18.3585 N   0  0  0  0  0  0  0  0  0  0  0  0
   18.1301   45.8710   19.1512 N   0  0  0  0  0  0  0  0  0  0  0  0
   19.5362   45.9339   18.7389 C   0  0  0  0  0  0  0  0  0  0  0  0
   15.2900   44.7718   22.2826 C   0  0  0  0  0  0  0  0  0  0  0  0
   14.0927   44.2144   22.7250 C   0  0  0  0  0  0  0  0  0  0  0  0
   14.0249   43.0447   23.4285 C   0  0  0  0  0  0  0  0  0  0  0  0
   15.1814   42.3770   23.7203 C   0  0  0  0  0  0  0  0  0  0  0  0
   16.3798   42.8856   23.3061 C   0  0  0  0  0  0  0  0  0  0  0  0
   16.4370   44.0886   22.5841 C   0  0  0  0  0  0  0  0  0  0  0  0
  2  1  2  0
 13  1  1  0
  3  2  1  0
  2 12  1  0
  4  3  2  0
  4  5  1  0
 15  4  1  0
  5 13  2  0
 14  5  1  0
 17  6  2  0
  6 18  1  0
  7  8  2  0
 17  7  1  0
  8 19  1  0
  8 20  1  0
 10  9  1  0
 10 11  2  0
 12 10  1  0
 16 14  1  0
 16 15  2  0
 16 17  1  0
 18 19  2  0
 20 21  2  0
 20 22  1  0
 22 23  1  0
 22 25  1  0
 23 24  1  0
 27 24  1  6
 25 26  1  0
 26 27  1  0
 27 28  1  0
 28 29  1  6
 28 35  1  0
 29 30  2  0
 29 31  1  0
 30 33  1  0
 31 32  2  0
 32 33  1  0
 33 34  1  0
 35 36  2  0
 35 40  1  0
 36 37  1  0
 37 38  2  0
 38 39  1  0
 39 40  2  0
M  CHG  1  27   1
M  END
$$$$
