
     RDKit          3D

 40 45  0  0  0  0  0  0  0  0999 V2000
  -37.3081   14.2719  -13.6660 C   0  0  0  0  0  0  0  0  0  0  0  0
  -36.2045   14.3648  -14.4827 C   0  0  0  0  0  0  0  0  0  0  0  0
  -35.2863   13.3361  -14.4317 C   0  0  0  0  0  0  0  0  0  0  0  0
  -35.4936   12.2519  -13.5731 C   0  0  0  0  0  0  0  0  0  0  0  0
  -36.6017   12.1700  -12.7599 C   0  0  0  0  0  0  0  0  0  0  0  0
  -34.7077    8.9429  -10.5402 C   0  0  0  0  0  0  0  0  0  0  0  0
  -34.6677    8.0418  -12.7078 C   0  0  0  0  0  0  0  0  0  0  0  0
  -34.2121    6.8308  -12.2216 C   0  0  0  0  0  0  0  0  0  0  0  0
  -35.3969   16.5251  -17.5461 C   0  0  0  0  0  0  0  0  0  0  0  0
  -35.5615   15.3354  -16.7009 C   0  0  0  0  0  0  0  0  0  0  0  0
  -35.3359   14.1685  -17.1209 O   0  0  0  0  0  0  0  0  0  0  0  0
  -35.9872   15.4781  -15.3646 N   0  0  0  0  0  0  0  0  0  0  0  0
  -37.5158   13.1982  -12.8140 C   0  0  0  0  0  0  0  0  0  0  0  0
  -36.4916   11.0484  -12.0926 O   0  0  0  0  0  0  0  0  0  0  0  0
  -34.7740   11.1428  -13.3310 N   0  0  0  0  0  0  0  0  0  0  0  0
  -35.4053   10.3939  -12.4027 C   0  0  0  0  0  0  0  0  0  0  0  0
  -34.9234    9.1154  -11.8860 C   0  0  0  0  0  0  0  0  0  0  0  0
  -34.2474    7.7230  -10.0383 C   0  0  0  0  0  0  0  0  0  0  0  0
  -34.0153    6.7069  -10.9010 N   0  0  0  0  0  0  0  0  0  0  0  0
  -33.9547    5.7301  -13.1236 C   0  0  0  0  0  0  0  0  0  0  0  0
  -33.7899    5.9634  -14.3407 O   0  0  0  0  0  0  0  0  0  0  0  0
  -33.8840    4.3930  -12.6673 N   0  0  0  0  0  0  0  0  0  0  0  0
  -33.4669    3.3226  -13.5876 C   0  0  0  0  0  0  0  0  0  0  0  0
  -33.8220    2.0404  -12.8682 C   0  0  0  0  0  0  0  0  0  0  0  0
  -34.1961    3.9811  -11.3311 C   0  0  0  0  0  0  0  0  0  0  0  0
  -35.3039    2.9128  -11.2952 C   0  0  0  0  0  0  0  0  0  0  0  0
  -35.2465    2.1615  -12.5015 N   0  0  2  0  0  4  0  0  0  0  0  0
  -35.8663    0.8854  -12.5177 C   0  0  1  0  0  0  0  0  0  0  0  0
  -37.1440    0.8092  -11.7324 C   0  0  0  0  0  0  0  0  0  0  0  0
  -37.3221    0.3686  -10.4732 N   0  0  0  0  0  0  0  0  0  0  0  0
  -38.3645    1.1860  -12.1456 N   0  0  0  0  0  0  0  0  0  0  0  0
  -39.2353    0.9712  -11.1533 N   0  0  0  0  0  0  0  0  0  0  0  0
  -38.5868    0.4634  -10.1147 N   0  0  0  0  0  0  0  0  0  0  0  0
  -39.1845    0.0891   -8.8287 C   0  0  0  0  0  0  0  0  0  0  0  0
  -36.0193    0.2506  -13.8437 C   0  0  0  0  0  0  0  0  0  0  0  0
  -36.4770    0.9422  -14.9627 C   0  0  0  0  0  0  0  0  0  0  0  0
  -36.6173    0.3668  -16.1943 C   0  0  0  0  0  0  0  0  0  0  0  0
  -36.2966   -0.9526  -16.3515 C   0  0  0  0  0  0  0  0  0  0  0  0
  -35.8428   -1.6712  -15.2819 C   0  0  0  0  0  0  0  0  0  0  0  0
  -35.7030   -1.0692  -14.0211 C   0  0  0  0  0  0  0  0  0  0  0  0
  2  1  2  0
 13  1  1  0
  3  2  1  0
  2 12  1  0
  4  3  2  0
  4  5  1  0
 15  4  1  0
  5 13  2  0
 14  5  1  0
 17  6  2  0
  6 18  1  0
  7  8  2  0
 17  7  1  0
  8 19  1  0
  8 20  1  0
 10  9  1  0
 10 11  2  0
 12 10  1  0
 16 14  1  0
 16 15  2  0
 16 17  1  0
 18 19  2  0
 20 21  2  0
 20 22  1  0
 22 23  1  0
 22 25  1  0
 23 24  1  0
 27 24  1  1
 25 26  1  0
 26 27  1  0
 27 28  1  0
 28 29  1  6
 28 35  1  0
 29 30  2  0
 29 31  1  0
 30 33  1  0
 31 32  2  0
 32 33  1  0
 33 34  1  0
 35 36  2  0
 35 40  1  0
 36 37  1  0
 37 38  2  0
 38 39  1  0
 39 40  2  0
M  CHG  1  27   1
M  END
$$$$
