
     RDKit          3D

 40 45  0  0  0  0  0  0  0  0999 V2000
   -7.5594    1.1686   -4.7955 C   0  0  0  0  0  0  0  0  0  0  0  0
   -6.5020    0.2981   -4.6625 C   0  0  0  0  0  0  0  0  0  0  0  0
   -6.6538   -0.9718   -5.1806 C   0  0  0  0  0  0  0  0  0  0  0  0
   -7.8478   -1.3344   -5.8118 C   0  0  0  0  0  0  0  0  0  0  0  0
   -8.8995   -0.4547   -5.9386 C   0  0  0  0  0  0  0  0  0  0  0  0
  -11.6467   -3.2774   -7.6160 C   0  0  0  0  0  0  0  0  0  0  0  0
   -9.6774   -4.4344   -8.1596 C   0  0  0  0  0  0  0  0  0  0  0  0
  -10.4038   -5.4111   -8.8145 C   0  0  0  0  0  0  0  0  0  0  0  0
   -3.0969    0.1866   -2.9034 C   0  0  0  0  0  0  0  0  0  0  0  0
   -4.2997   -0.2694   -3.6122 C   0  0  0  0  0  0  0  0  0  0  0  0
   -4.5070   -1.4824   -3.8852 O   0  0  0  0  0  0  0  0  0  0  0  0
   -5.2746    0.6666   -4.0129 N   0  0  0  0  0  0  0  0  0  0  0  0
   -8.7440    0.8115   -5.4207 C   0  0  0  0  0  0  0  0  0  0  0  0
   -9.8503   -1.0996   -6.5675 O   0  0  0  0  0  0  0  0  0  0  0  0
   -8.2511   -2.4792   -6.3892 N   0  0  0  0  0  0  0  0  0  0  0  0
   -9.5062   -2.3245   -6.8602 C   0  0  0  0  0  0  0  0  0  0  0  0
  -10.2766   -3.3555   -7.5512 C   0  0  0  0  0  0  0  0  0  0  0  0
  -12.3904   -4.2592   -8.2755 C   0  0  0  0  0  0  0  0  0  0  0  0
  -11.7392   -5.2948   -8.8532 N   0  0  0  0  0  0  0  0  0  0  0  0
   -9.7311   -6.5291   -9.4381 C   0  0  0  0  0  0  0  0  0  0  0  0
   -8.4814   -6.5521   -9.4655 O   0  0  0  0  0  0  0  0  0  0  0  0
  -10.4483   -7.6006  -10.0202 N   0  0  0  0  0  0  0  0  0  0  0  0
   -9.9058   -8.9676   -9.9603 C   0  0  0  0  0  0  0  0  0  0  0  0
  -10.7470   -9.7556  -10.9396 C   0  0  0  0  0  0  0  0  0  0  0  0
  -11.7081   -7.4574  -10.6872 C   0  0  0  0  0  0  0  0  0  0  0  0
  -11.6619   -7.9769  -12.1356 C   0  0  0  0  0  0  0  0  0  0  0  0
  -10.6903   -9.0126  -12.2136 N   0  0  2  0  0  4  0  0  0  0  0  0
  -10.7664   -9.9117  -13.3085 C   0  0  1  0  0  0  0  0  0  0  0  0
   -9.9948   -9.4757  -14.5207 C   0  0  0  0  0  0  0  0  0  0  0  0
   -8.6717   -9.5761  -14.7457 N   0  0  0  0  0  0  0  0  0  0  0  0
  -10.4945   -8.9067  -15.6293 N   0  0  0  0  0  0  0  0  0  0  0  0
   -9.4892   -8.6796  -16.4818 N   0  0  0  0  0  0  0  0  0  0  0  0
   -8.3571   -9.0957  -15.9320 N   0  0  0  0  0  0  0  0  0  0  0  0
   -7.0272   -9.0242  -16.5463 C   0  0  0  0  0  0  0  0  0  0  0  0
  -10.5147  -11.3357  -13.0026 C   0  0  0  0  0  0  0  0  0  0  0  0
  -11.4982  -12.3158  -13.1118 C   0  0  0  0  0  0  0  0  0  0  0  0
  -11.2752  -13.6358  -12.8367 C   0  0  0  0  0  0  0  0  0  0  0  0
  -10.0300  -14.0290  -12.4328 C   0  0  0  0  0  0  0  0  0  0  0  0
   -9.0333  -13.1025  -12.3119 C   0  0  0  0  0  0  0  0  0  0  0  0
   -9.2744  -11.7489  -12.5972 C   0  0  0  0  0  0  0  0  0  0  0  0
  2  1  2  0
 13  1  1  0
  3  2  1  0
  2 12  1  0
  4  3  2  0
  4  5  1  0
 15  4  1  0
  5 13  2  0
 14  5  1  0
 17  6  2  0
  6 18  1  0
  7  8  2  0
 17  7  1  0
  8 19  1  0
  8 20  1  0
 10  9  1  0
 10 11  2  0
 12 10  1  0
 16 14  1  0
 16 15  2  0
 16 17  1  0
 18 19  2  0
 20 21  2  0
 20 22  1  0
 22 23  1  0
 22 25  1  0
 23 24  1  0
 27 24  1  1
 25 26  1  0
 26 27  1  0
 27 28  1  0
 28 29  1  6
 28 35  1  0
 29 30  2  0
 29 31  1  0
 30 33  1  0
 31 32  2  0
 32 33  1  0
 33 34  1  0
 35 36  2  0
 35 40  1  0
 36 37  1  0
 37 38  2  0
 38 39  1  0
 39 40  2  0
M  CHG  1  27   1
M  END
$$$$
