
     RDKit          3D

 40 45  0  0  0  0  0  0  0  0999 V2000
   14.8836   42.7563   26.0229 C   0  0  0  0  0  0  0  0  0  0  0  0
   14.5075   42.4917   24.7259 C   0  0  0  0  0  0  0  0  0  0  0  0
   14.6109   43.5193   23.8108 C   0  0  0  0  0  0  0  0  0  0  0  0
   15.0828   44.7727   24.2131 C   0  0  0  0  0  0  0  0  0  0  0  0
   15.4559   45.0259   25.5141 C   0  0  0  0  0  0  0  0  0  0  0  0
   16.0900   48.6187   22.7004 C   0  0  0  0  0  0  0  0  0  0  0  0
   16.4012   49.1878   24.9569 C   0  0  0  0  0  0  0  0  0  0  0  0
   16.7146   50.4885   24.6102 C   0  0  0  0  0  0  0  0  0  0  0  0
   12.6955   39.6788   22.8546 C   0  0  0  0  0  0  0  0  0  0  0  0
   13.2232   41.0143   23.1627 C   0  0  0  0  0  0  0  0  0  0  0  0
   12.9932   42.0185   22.4366 O   0  0  0  0  0  0  0  0  0  0  0  0
   14.0204   41.2058   24.3095 N   0  0  0  0  0  0  0  0  0  0  0  0
   15.3516   43.9979   26.4240 C   0  0  0  0  0  0  0  0  0  0  0  0
   15.8432   46.2765   25.5535 O   0  0  0  0  0  0  0  0  0  0  0  0
   15.2769   45.9211   23.5421 N   0  0  0  0  0  0  0  0  0  0  0  0
   15.7533   46.8582   24.3882 C   0  0  0  0  0  0  0  0  0  0  0  0
   16.0847   48.2322   24.0188 C   0  0  0  0  0  0  0  0  0  0  0  0
   16.4054   49.9310   22.3393 C   0  0  0  0  0  0  0  0  0  0  0  0
   16.7075   50.8220   23.3115 N   0  0  0  0  0  0  0  0  0  0  0  0
   17.0432   51.4590   25.6309 C   0  0  0  0  0  0  0  0  0  0  0  0
   16.7231   51.2299   26.8174 O   0  0  0  0  0  0  0  0  0  0  0  0
   17.7181   52.6640   25.3244 N   0  0  0  0  0  0  0  0  0  0  0  0
   18.1619   52.9286   23.9462 C   0  0  0  0  0  0  0  0  0  0  0  0
   19.1015   54.1076   24.0673 C   0  0  0  0  0  0  0  0  0  0  0  0
   18.0144   53.6866   26.2831 C   0  0  0  0  0  0  0  0  0  0  0  0
   19.5206   53.9960   26.3571 C   0  0  0  0  0  0  0  0  0  0  0  0
   20.1000   53.7285   25.0860 N   0  0  2  0  0  4  0  0  0  0  0  0
   21.3525   54.3253   24.7897 C   0  0  1  0  0  0  0  0  0  0  0  0
   21.4228   54.9754   23.4379 C   0  0  0  0  0  0  0  0  0  0  0  0
   20.9051   54.5369   22.2755 N   0  0  0  0  0  0  0  0  0  0  0  0
   22.0150   56.1422   23.1374 N   0  0  0  0  0  0  0  0  0  0  0  0
   21.8484   56.3807   21.8319 N   0  0  0  0  0  0  0  0  0  0  0  0
   21.1587   55.3829   21.2972 N   0  0  0  0  0  0  0  0  0  0  0  0
   20.7673   55.2677   19.8885 C   0  0  0  0  0  0  0  0  0  0  0  0
   21.9191   55.2062   25.8327 C   0  0  0  0  0  0  0  0  0  0  0  0
   22.6647   54.7224   26.9050 C   0  0  0  0  0  0  0  0  0  0  0  0
   23.1975   55.5281   27.8719 C   0  0  0  0  0  0  0  0  0  0  0  0
   22.9969   56.8780   27.7966 C   0  0  0  0  0  0  0  0  0  0  0  0
   22.2720   57.3982   26.7620 C   0  0  0  0  0  0  0  0  0  0  0  0
   21.7293   56.5604   25.7743 C   0  0  0  0  0  0  0  0  0  0  0  0
  2  1  2  0
 13  1  1  0
  3  2  1  0
  2 12  1  0
  4  3  2  0
  4  5  1  0
 15  4  1  0
  5 13  2  0
 14  5  1  0
 17  6  2  0
  6 18  1  0
  7  8  2  0
 17  7  1  0
  8 19  1  0
  8 20  1  0
 10  9  1  0
 10 11  2  0
 12 10  1  0
 16 14  1  0
 16 15  2  0
 16 17  1  0
 18 19  2  0
 20 21  2  0
 20 22  1  0
 22 23  1  0
 22 25  1  0
 23 24  1  0
 27 24  1  6
 25 26  1  0
 26 27  1  0
 27 28  1  0
 28 29  1  6
 28 35  1  0
 29 30  2  0
 29 31  1  0
 30 33  1  0
 31 32  2  0
 32 33  1  0
 33 34  1  0
 35 36  2  0
 35 40  1  0
 36 37  1  0
 37 38  2  0
 38 39  1  0
 39 40  2  0
M  CHG  1  27   1
M  END
$$$$
