
     RDKit          3D

 40 45  0  0  0  0  0  0  0  0999 V2000
  -37.0861    9.0416  -20.4245 C   0  0  0  0  0  0  0  0  0  0  0  0
  -35.7973    9.5231  -20.3987 C   0  0  0  0  0  0  0  0  0  0  0  0
  -34.9471    9.0155  -19.4377 C   0  0  0  0  0  0  0  0  0  0  0  0
  -35.4040    8.0492  -18.5359 C   0  0  0  0  0  0  0  0  0  0  0  0
  -36.6963    7.5753  -18.5709 C   0  0  0  0  0  0  0  0  0  0  0  0
  -35.9300    4.4264  -15.7380 C   0  0  0  0  0  0  0  0  0  0  0  0
  -34.5537    6.0726  -14.7851 C   0  0  0  0  0  0  0  0  0  0  0  0
  -34.2712    5.2489  -13.7118 C   0  0  0  0  0  0  0  0  0  0  0  0
  -33.7861   11.3400  -23.0995 C   0  0  0  0  0  0  0  0  0  0  0  0
  -34.0846   10.4296  -21.9864 C   0  0  0  0  0  0  0  0  0  0  0  0
  -33.2687    9.5557  -21.5874 O   0  0  0  0  0  0  0  0  0  0  0  0
  -35.3250   10.5171  -21.3224 N   0  0  0  0  0  0  0  0  0  0  0  0
  -37.5414    8.0838  -19.5316 C   0  0  0  0  0  0  0  0  0  0  0  0
  -36.7961    6.6949  -17.6063 O   0  0  0  0  0  0  0  0  0  0  0  0
  -34.8000    7.4030  -17.5239 N   0  0  0  0  0  0  0  0  0  0  0  0
  -35.6781    6.5565  -16.9465 C   0  0  0  0  0  0  0  0  0  0  0  0
  -35.3817    5.6839  -15.8130 C   0  0  0  0  0  0  0  0  0  0  0  0
  -35.6510    3.5858  -14.6575 C   0  0  0  0  0  0  0  0  0  0  0  0
  -34.8282    4.0295  -13.6795 N   0  0  0  0  0  0  0  0  0  0  0  0
  -33.3964    5.7009  -12.6526 C   0  0  0  0  0  0  0  0  0  0  0  0
  -32.3774    6.3643  -12.9433 O   0  0  0  0  0  0  0  0  0  0  0  0
  -33.6609    5.4130  -11.2931 N   0  0  0  0  0  0  0  0  0  0  0  0
  -33.1207    6.2853  -10.2377 C   0  0  0  0  0  0  0  0  0  0  0  0
  -33.3199    5.5045   -8.9577 C   0  0  0  0  0  0  0  0  0  0  0  0
  -34.4427    4.2998  -10.8437 C   0  0  0  0  0  0  0  0  0  0  0  0
  -33.6600    3.3909   -9.8787 C   0  0  0  0  0  0  0  0  0  0  0  0
  -32.7027    4.1836   -9.1874 N   0  0  2  0  0  4  0  0  0  0  0  0
  -32.1716    3.6739   -7.9746 C   0  0  1  0  0  0  0  0  0  0  0  0
  -33.1852    3.5033   -6.8797 C   0  0  0  0  0  0  0  0  0  0  0  0
  -33.0921    3.8850   -5.5925 N   0  0  0  0  0  0  0  0  0  0  0  0
  -34.3987    2.9397   -6.9892 N   0  0  0  0  0  0  0  0  0  0  0  0
  -35.0009    2.9901   -5.7959 N   0  0  0  0  0  0  0  0  0  0  0  0
  -34.1884    3.5775   -4.9288 N   0  0  0  0  0  0  0  0  0  0  0  0
  -34.4780    3.8250   -3.5125 C   0  0  0  0  0  0  0  0  0  0  0  0
  -31.3091    2.4791   -8.0907 C   0  0  0  0  0  0  0  0  0  0  0  0
  -29.9222    2.5361   -7.9769 C   0  0  0  0  0  0  0  0  0  0  0  0
  -29.1158    1.4374   -8.0773 C   0  0  0  0  0  0  0  0  0  0  0  0
  -29.6840    0.2145   -8.3006 C   0  0  0  0  0  0  0  0  0  0  0  0
  -31.0410    0.1098   -8.4186 C   0  0  0  0  0  0  0  0  0  0  0  0
  -31.8596    1.2459   -8.3138 C   0  0  0  0  0  0  0  0  0  0  0  0
  2  1  2  0
 13  1  1  0
  3  2  1  0
  2 12  1  0
  4  3  2  0
  4  5  1  0
 15  4  1  0
  5 13  2  0
 14  5  1  0
 17  6  2  0
  6 18  1  0
  7  8  2  0
 17  7  1  0
  8 19  1  0
  8 20  1  0
 10  9  1  0
 10 11  2  0
 12 10  1  0
 16 14  1  0
 16 15  2  0
 16 17  1  0
 18 19  2  0
 20 21  2  0
 20 22  1  0
 22 23  1  0
 22 25  1  0
 23 24  1  0
 27 24  1  1
 25 26  1  0
 26 27  1  0
 27 28  1  0
 28 29  1  1
 28 35  1  0
 29 30  2  0
 29 31  1  0
 30 33  1  0
 31 32  2  0
 32 33  1  0
 33 34  1  0
 35 36  2  0
 35 40  1  0
 36 37  1  0
 37 38  2  0
 38 39  1  0
 39 40  2  0
M  CHG  1  27   1
M  END
$$$$
