
     RDKit          3D

 40 45  0  0  0  0  0  0  0  0999 V2000
   23.9022   57.1400   27.7522 C   0  0  0  0  0  0  0  0  0  0  0  0
   23.7000   57.3321   26.4047 C   0  0  0  0  0  0  0  0  0  0  0  0
   22.8202   56.4828   25.7655 C   0  0  0  0  0  0  0  0  0  0  0  0
   22.1720   55.4730   26.4838 C   0  0  0  0  0  0  0  0  0  0  0  0
   22.3826   55.2901   27.8322 C   0  0  0  0  0  0  0  0  0  0  0  0
   19.6362   52.0607   28.3515 C   0  0  0  0  0  0  0  0  0  0  0  0
   19.4885   52.1646   26.0107 C   0  0  0  0  0  0  0  0  0  0  0  0
   18.6022   51.1042   25.9958 C   0  0  0  0  0  0  0  0  0  0  0  0
   24.3514   60.3228   24.1208 C   0  0  0  0  0  0  0  0  0  0  0  0
   23.7642   59.0628   24.5947 C   0  0  0  0  0  0  0  0  0  0  0  0
   22.7272   58.5626   24.0818 O   0  0  0  0  0  0  0  0  0  0  0  0
   24.3656   58.3671   25.6631 N   0  0  0  0  0  0  0  0  0  0  0  0
   23.2609   56.1398   28.4664 C   0  0  0  0  0  0  0  0  0  0  0  0
   21.6354   54.2761   28.1914 O   0  0  0  0  0  0  0  0  0  0  0  0
   21.2884   54.5295   26.1158 N   0  0  0  0  0  0  0  0  0  0  0  0
   20.9570   53.7837   27.1905 C   0  0  0  0  0  0  0  0  0  0  0  0
   20.0208   52.6624   27.1778 C   0  0  0  0  0  0  0  0  0  0  0  0
   18.7408   50.9881   28.3476 C   0  0  0  0  0  0  0  0  0  0  0  0
   18.2543   50.5470   27.1648 N   0  0  0  0  0  0  0  0  0  0  0  0
   18.0697   50.6128   24.7441 C   0  0  0  0  0  0  0  0  0  0  0  0
   18.7680   50.6920   23.7101 O   0  0  0  0  0  0  0  0  0  0  0  0
   16.7776   50.0438   24.6556 N   0  0  0  0  0  0  0  0  0  0  0  0
   16.2483   49.2431   25.7716 C   0  0  0  0  0  0  0  0  0  0  0  0
   15.0310   48.5502   25.2008 C   0  0  0  0  0  0  0  0  0  0  0  0
   15.9094   50.1906   23.5255 C   0  0  0  0  0  0  0  0  0  0  0  0
   15.4902   48.8328   22.9335 C   0  0  0  0  0  0  0  0  0  0  0  0
   15.4900   47.8657   23.9764 N   0  0  2  0  0  4  0  0  0  0  0  0
   14.7479   46.6735   23.7746 C   0  0  1  0  0  0  0  0  0  0  0  0
   14.8352   46.1197   22.3815 C   0  0  0  0  0  0  0  0  0  0  0  0
   14.7535   44.8346   21.9901 N   0  0  0  0  0  0  0  0  0  0  0  0
   15.0009   46.8194   21.2478 N   0  0  0  0  0  0  0  0  0  0  0  0
   15.0160   45.9654   20.2185 N   0  0  0  0  0  0  0  0  0  0  0  0
   14.8622   44.7325   20.6806 N   0  0  0  0  0  0  0  0  0  0  0  0
   14.8237   43.5106   19.8704 C   0  0  0  0  0  0  0  0  0  0  0  0
   14.9364   45.6086   24.7823 C   0  0  0  0  0  0  0  0  0  0  0  0
   16.1682   45.0026   25.0176 C   0  0  0  0  0  0  0  0  0  0  0  0
   16.3550   44.0210   25.9500 C   0  0  0  0  0  0  0  0  0  0  0  0
   15.2892   43.6025   26.6966 C   0  0  0  0  0  0  0  0  0  0  0  0
   14.0614   44.1687   26.5010 C   0  0  0  0  0  0  0  0  0  0  0  0
   13.8815   45.1764   25.5397 C   0  0  0  0  0  0  0  0  0  0  0  0
  2  1  2  0
 13  1  1  0
  3  2  1  0
  2 12  1  0
  4  3  2  0
  4  5  1  0
 15  4  1  0
  5 13  2  0
 14  5  1  0
 17  6  2  0
  6 18  1  0
  7  8  2  0
 17  7  1  0
  8 19  1  0
  8 20  1  0
 10  9  1  0
 10 11  2  0
 12 10  1  0
 16 14  1  0
 16 15  2  0
 16 17  1  0
 18 19  2  0
 20 21  2  0
 20 22  1  0
 22 23  1  0
 22 25  1  0
 23 24  1  0
 27 24  1  1
 25 26  1  0
 26 27  1  0
 27 28  1  0
 28 29  1  6
 28 35  1  0
 29 30  2  0
 29 31  1  0
 30 33  1  0
 31 32  2  0
 32 33  1  0
 33 34  1  0
 35 36  2  0
 35 40  1  0
 36 37  1  0
 37 38  2  0
 38 39  1  0
 39 40  2  0
M  CHG  1  27   1
M  END
$$$$
