
     RDKit          3D

 40 45  0  0  0  0  0  0  0  0999 V2000
    7.9723  -15.9365  -29.4667 C   0  0  0  0  0  0  0  0  0  0  0  0
    7.2186  -16.8654  -30.1467 C   0  0  0  0  0  0  0  0  0  0  0  0
    6.2179  -16.3930  -30.9711 C   0  0  0  0  0  0  0  0  0  0  0  0
    5.9991  -15.0171  -31.0922 C   0  0  0  0  0  0  0  0  0  0  0  0
    6.7596  -14.0969  -30.4062 C   0  0  0  0  0  0  0  0  0  0  0  0
    3.5558  -11.2630  -31.4642 C   0  0  0  0  0  0  0  0  0  0  0  0
    4.7397  -11.4916  -33.4787 C   0  0  0  0  0  0  0  0  0  0  0  0
    4.0080  -10.4690  -34.0524 C   0  0  0  0  0  0  0  0  0  0  0  0
    6.7112  -20.6426  -29.7221 C   0  0  0  0  0  0  0  0  0  0  0  0
    6.3977  -19.2133  -29.8480 C   0  0  0  0  0  0  0  0  0  0  0  0
    5.2180  -18.7715  -29.8059 O   0  0  0  0  0  0  0  0  0  0  0  0
    7.4393  -18.2798  -30.0233 N   0  0  0  0  0  0  0  0  0  0  0  0
    7.7573  -14.5721  -29.5850 C   0  0  0  0  0  0  0  0  0  0  0  0
    6.3018  -12.9151  -30.7370 O   0  0  0  0  0  0  0  0  0  0  0  0
    5.1119  -14.3046  -31.8076 N   0  0  0  0  0  0  0  0  0  0  0  0
    5.3076  -12.9890  -31.5800 C   0  0  0  0  0  0  0  0  0  0  0  0
    4.5323  -11.9081  -32.1838 C   0  0  0  0  0  0  0  0  0  0  0  0
    2.8105  -10.2280  -32.0346 C   0  0  0  0  0  0  0  0  0  0  0  0
    3.0647   -9.8671  -33.3134 N   0  0  0  0  0  0  0  0  0  0  0  0
    4.2594  -10.0661  -35.4185 C   0  0  0  0  0  0  0  0  0  0  0  0
    3.6378  -10.6290  -36.3456 O   0  0  0  0  0  0  0  0  0  0  0  0
    5.1916   -9.0508  -35.7369 N   0  0  0  0  0  0  0  0  0  0  0  0
    5.5596   -8.0465  -34.7257 C   0  0  0  0  0  0  0  0  0  0  0  0
    6.2897   -6.9730  -35.5017 C   0  0  0  0  0  0  0  0  0  0  0  0
    5.8315   -8.9169  -37.0117 C   0  0  0  0  0  0  0  0  0  0  0  0
    5.5783   -7.5380  -37.6478 C   0  0  0  0  0  0  0  0  0  0  0  0
    5.3903   -6.5875  -36.6066 N   0  0  2  0  0  4  0  0  0  0  0  0
    5.5633   -5.2153  -36.9227 C   0  0  1  0  0  0  0  0  0  0  0  0
    4.8492   -4.7732  -38.1675 C   0  0  0  0  0  0  0  0  0  0  0  0
    5.3454   -4.6504  -39.4125 N   0  0  0  0  0  0  0  0  0  0  0  0
    3.5567   -4.4254  -38.2716 N   0  0  0  0  0  0  0  0  0  0  0  0
    3.3027   -4.1067  -39.5455 N   0  0  0  0  0  0  0  0  0  0  0  0
    4.4144   -4.2467  -40.2536 N   0  0  0  0  0  0  0  0  0  0  0  0
    4.5538   -3.9952  -41.6918 C   0  0  0  0  0  0  0  0  0  0  0  0
    5.3458   -4.2583  -35.8174 C   0  0  0  0  0  0  0  0  0  0  0  0
    5.3759   -2.8776  -35.9983 C   0  0  0  0  0  0  0  0  0  0  0  0
    5.1710   -1.9839  -34.9849 C   0  0  0  0  0  0  0  0  0  0  0  0
    4.9232   -2.4533  -33.7253 C   0  0  0  0  0  0  0  0  0  0  0  0
    4.8837   -3.8001  -33.5002 C   0  0  0  0  0  0  0  0  0  0  0  0
    5.0960   -4.7089  -34.5494 C   0  0  0  0  0  0  0  0  0  0  0  0
  2  1  2  0
 13  1  1  0
  3  2  1  0
  2 12  1  0
  4  3  2  0
  4  5  1  0
 15  4  1  0
  5 13  2  0
 14  5  1  0
 17  6  2  0
  6 18  1  0
  7  8  2  0
 17  7  1  0
  8 19  1  0
  8 20  1  0
 10  9  1  0
 10 11  2  0
 12 10  1  0
 16 14  1  0
 16 15  2  0
 16 17  1  0
 18 19  2  0
 20 21  2  0
 20 22  1  0
 22 23  1  0
 22 25  1  0
 23 24  1  0
 27 24  1  1
 25 26  1  0
 26 27  1  0
 27 28  1  0
 28 29  1  6
 28 35  1  0
 29 30  2  0
 29 31  1  0
 30 33  1  0
 31 32  2  0
 32 33  1  0
 33 34  1  0
 35 36  2  0
 35 40  1  0
 36 37  1  0
 37 38  2  0
 38 39  1  0
 39 40  2  0
M  CHG  1  27   1
M  END
$$$$
