
     RDKit          3D

 16 17  0  0  0  0  0  0  0  0999 V2000
   -5.3357   -7.0439   22.8781 C   0  0  0  0  0  0  0  0  0  0  0  0
   -5.7220   -7.3391   19.3439 C   0  0  0  0  0  0  0  0  0  0  0  0
   -6.1315   -7.0389   21.7439 C   0  0  0  0  0  0  0  0  0  0  0  0
   -3.4734   -5.8885   16.2845 C   0  0  0  0  0  0  0  0  0  0  0  0
   -5.9756   -7.4379   24.0643 C   0  0  0  0  0  0  0  0  0  0  0  0
   -7.2997   -7.7937   24.0961 C   0  0  0  0  0  0  0  0  0  0  0  0
   -3.9334   -6.6794   22.9093 C   0  0  0  0  0  0  0  0  0  0  0  0
   -4.8060   -5.9707   15.9977 C   0  0  0  0  0  0  0  0  0  0  0  0
   -7.4758   -7.3995   21.7736 C   0  0  0  0  0  0  0  0  0  0  0  0
   -8.0649   -7.7806   22.9620 C   0  0  0  0  0  0  0  0  0  0  0  0
   -5.5900   -6.6534   20.4658 C   0  0  0  0  0  0  0  0  0  0  0  0
   -5.0599   -6.7980   18.1354 C   0  0  0  0  0  0  0  0  0  0  0  0
   -5.6257   -6.4371   16.9444 C   0  0  0  0  0  0  0  0  0  0  0  0
   -3.6672   -5.6134   23.5837 O   0  0  0  0  0  0  0  0  0  0  0  0
   -2.8695   -7.2997   22.3316 O   0  0  0  0  0  0  0  0  0  0  0  0
   -3.4076   -6.4750   17.8938 S   0  0  0  0  0  0  0  0  0  0  0  0
  3  1  2  0
  1  5  1  0
  1  7  1  0
  2 11  2  0
 12  2  1  0
  3  9  1  0
 11  3  1  0
  8  4  2  0
  4 16  1  0
  5  6  2  0
 10  6  1  0
  7 14  2  0
  7 15  1  0
 13  8  1  0
  9 10  2  0
 12 13  2  0
 12 16  1  0
M  END
$$$$
