
     RDKit          3D

 16 17  0  0  0  0  0  0  0  0999 V2000
   -5.4465   -6.6711   22.2000 C   0  0  0  0  0  0  0  0  0  0  0  0
   -5.4315   -6.1986   18.6286 C   0  0  0  0  0  0  0  0  0  0  0  0
   -5.7234   -7.0711   20.9027 C   0  0  0  0  0  0  0  0  0  0  0  0
   -2.4075   -5.2285   16.0919 C   0  0  0  0  0  0  0  0  0  0  0  0
   -6.2746   -7.2205   23.1921 C   0  0  0  0  0  0  0  0  0  0  0  0
   -7.2890   -8.0943   22.8949 C   0  0  0  0  0  0  0  0  0  0  0  0
   -4.3910   -5.7527   22.5777 C   0  0  0  0  0  0  0  0  0  0  0  0
   -3.6505   -5.1039   15.5402 C   0  0  0  0  0  0  0  0  0  0  0  0
   -6.7524   -7.9579   20.5984 C   0  0  0  0  0  0  0  0  0  0  0  0
   -7.5426   -8.4741   21.6053 C   0  0  0  0  0  0  0  0  0  0  0  0
   -4.9434   -6.5764   19.7971 C   0  0  0  0  0  0  0  0  0  0  0  0
   -4.4606   -5.8105   17.5805 C   0  0  0  0  0  0  0  0  0  0  0  0
   -4.7088   -5.4014   16.2999 C   0  0  0  0  0  0  0  0  0  0  0  0
   -4.3345   -4.6751   21.8722 O   0  0  0  0  0  0  0  0  0  0  0  0
   -3.4608   -5.8685   23.5634 O   0  0  0  0  0  0  0  0  0  0  0  0
   -2.7633   -5.7661   17.6802 S   0  0  0  0  0  0  0  0  0  0  0  0
  3  1  2  0
  1  5  1  0
  1  7  1  0
  2 11  2  0
 12  2  1  0
  3  9  1  0
 11  3  1  0
  8  4  2  0
  4 16  1  0
  5  6  2  0
 10  6  1  0
  7 14  2  0
  7 15  1  0
 13  8  1  0
  9 10  2  0
 12 13  2  0
 12 16  1  0
M  END
$$$$
