
     RDKit          3D

 16 17  0  0  0  0  0  0  0  0999 V2000
   -5.3870   -6.7359   22.9505 C   0  0  0  0  0  0  0  0  0  0  0  0
   -5.9947   -6.9406   19.3763 C   0  0  0  0  0  0  0  0  0  0  0  0
   -6.1824   -6.7754   21.8167 C   0  0  0  0  0  0  0  0  0  0  0  0
   -3.7227   -5.4740   16.3420 C   0  0  0  0  0  0  0  0  0  0  0  0
   -6.0154   -7.1265   24.1441 C   0  0  0  0  0  0  0  0  0  0  0  0
   -7.3284   -7.5204   24.1829 C   0  0  0  0  0  0  0  0  0  0  0  0
   -3.9961   -6.3298   22.9745 C   0  0  0  0  0  0  0  0  0  0  0  0
   -4.9651   -5.8847   15.9510 C   0  0  0  0  0  0  0  0  0  0  0  0
   -7.5155   -7.1748   21.8535 C   0  0  0  0  0  0  0  0  0  0  0  0
   -8.0934   -7.5509   23.0489 C   0  0  0  0  0  0  0  0  0  0  0  0
   -5.6521   -6.3979   20.5315 C   0  0  0  0  0  0  0  0  0  0  0  0
   -5.3105   -6.4416   18.1620 C   0  0  0  0  0  0  0  0  0  0  0  0
   -5.7849   -6.3826   16.8813 C   0  0  0  0  0  0  0  0  0  0  0  0
   -3.1511   -7.2851   22.7857 O   0  0  0  0  0  0  0  0  0  0  0  0
   -3.4634   -5.0931   23.1666 O   0  0  0  0  0  0  0  0  0  0  0  0
   -3.7405   -5.8020   18.0243 S   0  0  0  0  0  0  0  0  0  0  0  0
  3  1  2  0
  1  5  1  0
  1  7  1  0
  2 11  2  0
 12  2  1  0
  3  9  1  0
 11  3  1  0
  8  4  2  0
  4 16  1  0
  5  6  2  0
 10  6  1  0
  7 14  2  0
  7 15  1  0
 13  8  1  0
  9 10  2  0
 12 13  2  0
 12 16  1  0
M  END
$$$$
