
     RDKit          3D

 16 17  0  0  0  0  0  0  0  0999 V2000
   -5.9969   -5.5719   23.1400 C   0  0  0  0  0  0  0  0  0  0  0  0
   -5.1388   -6.7523   19.8950 C   0  0  0  0  0  0  0  0  0  0  0  0
   -6.2831   -6.3450   22.0264 C   0  0  0  0  0  0  0  0  0  0  0  0
   -4.3731   -5.5595   16.0856 C   0  0  0  0  0  0  0  0  0  0  0  0
   -6.5192   -6.0445   24.3548 C   0  0  0  0  0  0  0  0  0  0  0  0
   -7.2625   -7.1945   24.4318 C   0  0  0  0  0  0  0  0  0  0  0  0
   -5.2189   -4.3494   23.1237 C   0  0  0  0  0  0  0  0  0  0  0  0
   -3.7401   -4.8096   17.0353 C   0  0  0  0  0  0  0  0  0  0  0  0
   -7.0373   -7.5126   22.1019 C   0  0  0  0  0  0  0  0  0  0  0  0
   -7.5315   -7.9409   23.3172 C   0  0  0  0  0  0  0  0  0  0  0  0
   -5.8029   -5.9645   20.7225 C   0  0  0  0  0  0  0  0  0  0  0  0
   -4.7541   -6.1876   18.5816 C   0  0  0  0  0  0  0  0  0  0  0  0
   -3.9320   -5.1274   18.3189 C   0  0  0  0  0  0  0  0  0  0  0  0
   -3.9621   -4.5121   22.8870 O   0  0  0  0  0  0  0  0  0  0  0  0
   -5.6264   -3.0668   23.3215 O   0  0  0  0  0  0  0  0  0  0  0  0
   -5.2299   -6.7032   17.0323 S   0  0  0  0  0  0  0  0  0  0  0  0
  3  1  2  0
  1  5  1  0
  1  7  1  0
  2 11  2  0
 12  2  1  0
  3  9  1  0
 11  3  1  0
  8  4  2  0
  4 16  1  0
  5  6  2  0
 10  6  1  0
  7 14  2  0
  7 15  1  0
 13  8  1  0
  9 10  2  0
 12 13  2  0
 12 16  1  0
M  END
$$$$
