
     RDKit          3D

 16 17  0  0  0  0  0  0  0  0999 V2000
   -3.5560   -5.9803   23.7892 C   0  0  0  0  0  0  0  0  0  0  0  0
   -4.3395   -7.0872   20.3643 C   0  0  0  0  0  0  0  0  0  0  0  0
   -3.3259   -6.4400   22.5026 C   0  0  0  0  0  0  0  0  0  0  0  0
   -7.3051   -6.7193   17.6094 C   0  0  0  0  0  0  0  0  0  0  0  0
   -2.4459   -6.0073   24.6487 C   0  0  0  0  0  0  0  0  0  0  0  0
   -1.2171   -6.4590   24.2402 C   0  0  0  0  0  0  0  0  0  0  0  0
   -4.8288   -5.4914   24.2804 C   0  0  0  0  0  0  0  0  0  0  0  0
   -7.7494   -7.0627   18.8543 C   0  0  0  0  0  0  0  0  0  0  0  0
   -2.0796   -6.8990   22.0855 C   0  0  0  0  0  0  0  0  0  0  0  0
   -1.0152   -6.9081   22.9638 C   0  0  0  0  0  0  0  0  0  0  0  0
   -4.3863   -6.4619   21.5276 C   0  0  0  0  0  0  0  0  0  0  0  0
   -5.5353   -6.9973   19.4963 C   0  0  0  0  0  0  0  0  0  0  0  0
   -6.8450   -7.2069   19.8274 C   0  0  0  0  0  0  0  0  0  0  0  0
   -5.8350   -6.2571   24.0287 O   0  0  0  0  0  0  0  0  0  0  0  0
   -5.1065   -4.3483   24.9633 O   0  0  0  0  0  0  0  0  0  0  0  0
   -5.6106   -6.6071   17.8426 S   0  0  0  0  0  0  0  0  0  0  0  0
  3  1  2  0
  1  5  1  0
  1  7  1  0
  2 11  2  0
 12  2  1  0
  3  9  1  0
 11  3  1  0
  8  4  2  0
  4 16  1  0
  5  6  2  0
 10  6  1  0
  7 14  2  0
  7 15  1  0
 13  8  1  0
  9 10  2  0
 12 13  2  0
 12 16  1  0
M  END
$$$$
