
     RDKit          3D

 16 17  0  0  0  0  0  0  0  0999 V2000
   -6.1749   -6.1270   24.0224 C   0  0  0  0  0  0  0  0  0  0  0  0
   -5.7161   -7.6135   20.7829 C   0  0  0  0  0  0  0  0  0  0  0  0
   -6.6350   -6.5141   22.7741 C   0  0  0  0  0  0  0  0  0  0  0  0
   -3.2016   -7.8261   17.5966 C   0  0  0  0  0  0  0  0  0  0  0  0
   -7.1492   -6.0575   25.0313 C   0  0  0  0  0  0  0  0  0  0  0  0
   -8.4673   -6.3533   24.7950 C   0  0  0  0  0  0  0  0  0  0  0  0
   -4.7976   -5.8019   24.3348 C   0  0  0  0  0  0  0  0  0  0  0  0
   -3.0323   -6.7051   18.3579 C   0  0  0  0  0  0  0  0  0  0  0  0
   -7.9725   -6.8149   22.5317 C   0  0  0  0  0  0  0  0  0  0  0  0
   -8.8971   -6.7334   23.5530 C   0  0  0  0  0  0  0  0  0  0  0  0
   -5.7316   -6.6228   21.6573 C   0  0  0  0  0  0  0  0  0  0  0  0
   -4.7325   -7.5303   19.6795 C   0  0  0  0  0  0  0  0  0  0  0  0
   -3.8157   -6.5477   19.4290 C   0  0  0  0  0  0  0  0  0  0  0  0
   -4.2365   -6.5901   25.1869 O   0  0  0  0  0  0  0  0  0  0  0  0
   -4.0224   -4.7907   23.8587 O   0  0  0  0  0  0  0  0  0  0  0  0
   -4.4706   -8.6373   18.4151 S   0  0  0  0  0  0  0  0  0  0  0  0
  3  1  2  0
  1  5  1  0
  1  7  1  0
  2 11  2  0
 12  2  1  0
  3  9  1  0
 11  3  1  0
  8  4  2  0
  4 16  1  0
  5  6  2  0
 10  6  1  0
  7 14  2  0
  7 15  1  0
 13  8  1  0
  9 10  2  0
 12 13  2  0
 12 16  1  0
M  END
$$$$
