
     RDKit          3D

 16 17  0  0  0  0  0  0  0  0999 V2000
   -3.8235   -6.0103   23.5167 C   0  0  0  0  0  0  0  0  0  0  0  0
   -4.9834   -7.4340   20.4361 C   0  0  0  0  0  0  0  0  0  0  0  0
   -3.6018   -6.6235   22.2941 C   0  0  0  0  0  0  0  0  0  0  0  0
   -6.9170   -6.2802   17.0523 C   0  0  0  0  0  0  0  0  0  0  0  0
   -2.8449   -6.2434   24.4965 C   0  0  0  0  0  0  0  0  0  0  0  0
   -1.7443   -7.0259   24.2575 C   0  0  0  0  0  0  0  0  0  0  0  0
   -4.9644   -5.1735   23.8305 C   0  0  0  0  0  0  0  0  0  0  0  0
   -7.7532   -6.6797   18.0554 C   0  0  0  0  0  0  0  0  0  0  0  0
   -2.4855   -7.4182   22.0490 C   0  0  0  0  0  0  0  0  0  0  0  0
   -1.5479   -7.6209   23.0412 C   0  0  0  0  0  0  0  0  0  0  0  0
   -4.5345   -6.4601   21.2084 C   0  0  0  0  0  0  0  0  0  0  0  0
   -5.8432   -7.0526   19.2929 C   0  0  0  0  0  0  0  0  0  0  0  0
   -7.2075   -7.0775   19.2084 C   0  0  0  0  0  0  0  0  0  0  0  0
   -5.6642   -5.5701   24.8380 O   0  0  0  0  0  0  0  0  0  0  0  0
   -5.3951   -4.0391   23.2158 O   0  0  0  0  0  0  0  0  0  0  0  0
   -5.3701   -6.4765   17.7641 S   0  0  0  0  0  0  0  0  0  0  0  0
  3  1  2  0
  1  5  1  0
  1  7  1  0
  2 11  2  0
 12  2  1  0
  3  9  1  0
 11  3  1  0
  8  4  2  0
  4 16  1  0
  5  6  2  0
 10  6  1  0
  7 14  2  0
  7 15  1  0
 13  8  1  0
  9 10  2  0
 12 13  2  0
 12 16  1  0
M  END
$$$$
