
     RDKit          3D

 16 17  0  0  0  0  0  0  0  0999 V2000
   -5.2878   -7.0341   23.0938 C   0  0  0  0  0  0  0  0  0  0  0  0
   -6.0105   -6.1046   19.6085 C   0  0  0  0  0  0  0  0  0  0  0  0
   -6.0347   -6.8731   21.9380 C   0  0  0  0  0  0  0  0  0  0  0  0
   -4.1098   -5.5510   16.0587 C   0  0  0  0  0  0  0  0  0  0  0  0
   -6.0227   -7.3366   24.2516 C   0  0  0  0  0  0  0  0  0  0  0  0
   -7.3881   -7.4638   24.2373 C   0  0  0  0  0  0  0  0  0  0  0  0
   -3.8459   -6.9128   23.1736 C   0  0  0  0  0  0  0  0  0  0  0  0
   -3.3781   -5.1572   17.1424 C   0  0  0  0  0  0  0  0  0  0  0  0
   -7.4208   -7.0016   21.9208 C   0  0  0  0  0  0  0  0  0  0  0  0
   -8.1034   -7.2999   23.0826 C   0  0  0  0  0  0  0  0  0  0  0  0
   -5.3953   -6.5606   20.6855 C   0  0  0  0  0  0  0  0  0  0  0  0
   -5.1786   -5.8358   18.4138 C   0  0  0  0  0  0  0  0  0  0  0  0
   -3.9218   -5.3010   18.3546 C   0  0  0  0  0  0  0  0  0  0  0  0
   -3.2012   -8.0178   23.0140 O   0  0  0  0  0  0  0  0  0  0  0  0
   -3.0857   -5.8060   23.3912 O   0  0  0  0  0  0  0  0  0  0  0  0
   -5.5574   -6.1189   16.7800 S   0  0  0  0  0  0  0  0  0  0  0  0
  3  1  2  0
  1  5  1  0
  1  7  1  0
  2 11  2  0
 12  2  1  0
  3  9  1  0
 11  3  1  0
  8  4  2  0
  4 16  1  0
  5  6  2  0
 10  6  1  0
  7 14  2  0
  7 15  1  0
 13  8  1  0
  9 10  2  0
 12 13  2  0
 12 16  1  0
M  END
$$$$
