
     RDKit          3D

 16 17  0  0  0  0  0  0  0  0999 V2000
   -4.9751   -6.8743   22.6750 C   0  0  0  0  0  0  0  0  0  0  0  0
   -5.0864   -7.0101   19.2641 C   0  0  0  0  0  0  0  0  0  0  0  0
   -5.8332   -7.0447   21.6006 C   0  0  0  0  0  0  0  0  0  0  0  0
   -4.6848   -5.2241   15.6352 C   0  0  0  0  0  0  0  0  0  0  0  0
   -5.3399   -7.5461   23.8529 C   0  0  0  0  0  0  0  0  0  0  0  0
   -6.4702   -8.3188   23.9326 C   0  0  0  0  0  0  0  0  0  0  0  0
   -3.7681   -6.0725   22.6538 C   0  0  0  0  0  0  0  0  0  0  0  0
   -5.5536   -4.5830   16.4714 C   0  0  0  0  0  0  0  0  0  0  0  0
   -6.9811   -7.8284   21.6789 C   0  0  0  0  0  0  0  0  0  0  0  0
   -7.3019   -8.4715   22.8571 C   0  0  0  0  0  0  0  0  0  0  0  0
   -5.5670   -6.4063   20.3369 C   0  0  0  0  0  0  0  0  0  0  0  0
   -5.0606   -6.2352   18.0030 C   0  0  0  0  0  0  0  0  0  0  0  0
   -5.7506   -5.0976   17.6887 C   0  0  0  0  0  0  0  0  0  0  0  0
   -3.9515   -4.8274   22.3745 O   0  0  0  0  0  0  0  0  0  0  0  0
   -2.4812   -6.4476   22.8853 O   0  0  0  0  0  0  0  0  0  0  0  0
   -4.1628   -6.5468   16.5924 S   0  0  0  0  0  0  0  0  0  0  0  0
  3  1  2  0
  1  5  1  0
  1  7  1  0
  2 11  2  0
 12  2  1  0
  3  9  1  0
 11  3  1  0
  8  4  2  0
  4 16  1  0
  5  6  2  0
 10  6  1  0
  7 14  2  0
  7 15  1  0
 13  8  1  0
  9 10  2  0
 12 13  2  0
 12 16  1  0
M  END
$$$$
