
     RDKit          3D

 16 17  0  0  0  0  0  0  0  0999 V2000
   -5.7065   -6.4573   22.1425 C   0  0  0  0  0  0  0  0  0  0  0  0
   -4.5583   -6.8970   18.8113 C   0  0  0  0  0  0  0  0  0  0  0  0
   -5.9098   -6.9359   20.8583 C   0  0  0  0  0  0  0  0  0  0  0  0
   -4.0130   -4.6189   15.4897 C   0  0  0  0  0  0  0  0  0  0  0  0
   -6.3576   -7.1686   23.1633 C   0  0  0  0  0  0  0  0  0  0  0  0
   -7.1418   -8.2635   22.9044 C   0  0  0  0  0  0  0  0  0  0  0  0
   -4.8910   -5.3078   22.4801 C   0  0  0  0  0  0  0  0  0  0  0  0
   -2.8657   -5.1924   15.9586 C   0  0  0  0  0  0  0  0  0  0  0  0
   -6.7054   -8.0471   20.5929 C   0  0  0  0  0  0  0  0  0  0  0  0
   -7.3271   -8.7169   21.6269 C   0  0  0  0  0  0  0  0  0  0  0  0
   -5.2950   -6.2913   19.7260 C   0  0  0  0  0  0  0  0  0  0  0  0
   -4.1823   -6.1124   17.6135 C   0  0  0  0  0  0  0  0  0  0  0  0
   -2.9464   -5.9605   17.0491 C   0  0  0  0  0  0  0  0  0  0  0  0
   -5.5281   -4.1878   22.5242 O   0  0  0  0  0  0  0  0  0  0  0  0
   -3.5601   -5.2470   22.7542 O   0  0  0  0  0  0  0  0  0  0  0  0
   -5.1866   -5.1805   16.6057 S   0  0  0  0  0  0  0  0  0  0  0  0
  3  1  2  0
  1  5  1  0
  1  7  1  0
  2 11  2  0
 12  2  1  0
  3  9  1  0
 11  3  1  0
  8  4  2  0
  4 16  1  0
  5  6  2  0
 10  6  1  0
  7 14  2  0
  7 15  1  0
 13  8  1  0
  9 10  2  0
 12 13  2  0
 12 16  1  0
M  END
$$$$
