
     RDKit          3D

 16 17  0  0  0  0  0  0  0  0999 V2000
   -3.2891   -6.8891   20.6402 C   0  0  0  0  0  0  0  0  0  0  0  0
   -6.8723   -7.1737   21.4580 C   0  0  0  0  0  0  0  0  0  0  0  0
   -4.6369   -7.1468   20.4480 C   0  0  0  0  0  0  0  0  0  0  0  0
   -9.0469   -5.3729   24.3818 C   0  0  0  0  0  0  0  0  0  0  0  0
   -2.4443   -7.2687   19.5847 C   0  0  0  0  0  0  0  0  0  0  0  0
   -2.9230   -7.8551   18.4410 C   0  0  0  0  0  0  0  0  0  0  0  0
   -2.7225   -6.2735   21.8234 C   0  0  0  0  0  0  0  0  0  0  0  0
   -9.1959   -6.7298   24.3411 C   0  0  0  0  0  0  0  0  0  0  0  0
   -5.1253   -7.7418   19.2881 C   0  0  0  0  0  0  0  0  0  0  0  0
   -4.2589   -8.0992   18.2751 C   0  0  0  0  0  0  0  0  0  0  0  0
   -5.6039   -6.8029   21.4590 C   0  0  0  0  0  0  0  0  0  0  0  0
   -7.7233   -6.6859   22.5669 C   0  0  0  0  0  0  0  0  0  0  0  0
   -8.5186   -7.4095   23.4111 C   0  0  0  0  0  0  0  0  0  0  0  0
   -3.3804   -6.4874   22.9113 O   0  0  0  0  0  0  0  0  0  0  0  0
   -1.6041   -5.5088   21.9445 O   0  0  0  0  0  0  0  0  0  0  0  0
   -7.9474   -5.0859   23.0985 S   0  0  0  0  0  0  0  0  0  0  0  0
  3  1  2  0
  1  5  1  0
  1  7  1  0
  2 11  2  0
 12  2  1  0
  3  9  1  0
 11  3  1  0
  8  4  2  0
  4 16  1  0
  5  6  2  0
 10  6  1  0
  7 14  2  0
  7 15  1  0
 13  8  1  0
  9 10  2  0
 12 13  2  0
 12 16  1  0
M  END
$$$$
