
     RDKit          3D

 16 17  0  0  0  0  0  0  0  0999 V2000
   -4.0319   -6.5429   24.6295 C   0  0  0  0  0  0  0  0  0  0  0  0
   -5.5635   -5.7865   21.3868 C   0  0  0  0  0  0  0  0  0  0  0  0
   -4.4223   -5.7557   23.5582 C   0  0  0  0  0  0  0  0  0  0  0  0
   -5.9259   -7.9494   17.9647 C   0  0  0  0  0  0  0  0  0  0  0  0
   -3.6883   -5.8455   25.7989 C   0  0  0  0  0  0  0  0  0  0  0  0
   -3.7366   -4.4770   25.8737 C   0  0  0  0  0  0  0  0  0  0  0  0
   -3.9604   -7.9902   24.6130 C   0  0  0  0  0  0  0  0  0  0  0  0
   -7.1112   -7.7331   18.6076 C   0  0  0  0  0  0  0  0  0  0  0  0
   -4.4722   -4.3665   23.6315 C   0  0  0  0  0  0  0  0  0  0  0  0
   -4.1257   -3.7216   24.8014 C   0  0  0  0  0  0  0  0  0  0  0  0
   -4.7990   -6.3543   22.3031 C   0  0  0  0  0  0  0  0  0  0  0  0
   -5.8753   -6.5795   20.1761 C   0  0  0  0  0  0  0  0  0  0  0  0
   -7.0915   -7.0301   19.7439 C   0  0  0  0  0  0  0  0  0  0  0  0
   -5.0540   -8.5813   24.2713 O   0  0  0  0  0  0  0  0  0  0  0  0
   -2.9101   -8.8037   24.9053 O   0  0  0  0  0  0  0  0  0  0  0  0
   -4.8039   -7.1508   18.9851 S   0  0  0  0  0  0  0  0  0  0  0  0
  3  1  2  0
  1  5  1  0
  1  7  1  0
  2 11  2  0
 12  2  1  0
  3  9  1  0
 11  3  1  0
  8  4  2  0
  4 16  1  0
  5  6  2  0
 10  6  1  0
  7 14  2  0
  7 15  1  0
 13  8  1  0
  9 10  2  0
 12 13  2  0
 12 16  1  0
M  END
$$$$
