
     RDKit          3D

 16 17  0  0  0  0  0  0  0  0999 V2000
   -5.3558   -6.2829   22.6950 C   0  0  0  0  0  0  0  0  0  0  0  0
   -5.4858   -7.0819   19.1298 C   0  0  0  0  0  0  0  0  0  0  0  0
   -5.9509   -6.6549   21.5004 C   0  0  0  0  0  0  0  0  0  0  0  0
   -3.1296   -5.9921   16.0023 C   0  0  0  0  0  0  0  0  0  0  0  0
   -6.0831   -6.5935   23.8555 C   0  0  0  0  0  0  0  0  0  0  0  0
   -7.3007   -7.2229   23.8075 C   0  0  0  0  0  0  0  0  0  0  0  0
   -4.0741   -5.6167   22.8115 C   0  0  0  0  0  0  0  0  0  0  0  0
   -4.4407   -5.6402   15.8530 C   0  0  0  0  0  0  0  0  0  0  0  0
   -7.1866   -7.2938   21.4489 C   0  0  0  0  0  0  0  0  0  0  0  0
   -7.8675   -7.5803   22.6146 C   0  0  0  0  0  0  0  0  0  0  0  0
   -5.3029   -6.3906   20.2411 C   0  0  0  0  0  0  0  0  0  0  0  0
   -4.7795   -6.6148   17.9155 C   0  0  0  0  0  0  0  0  0  0  0  0
   -5.2927   -5.9573   16.8323 C   0  0  0  0  0  0  0  0  0  0  0  0
   -3.0633   -6.3194   22.4287 O   0  0  0  0  0  0  0  0  0  0  0  0
   -3.7922   -4.3653   23.2641 O   0  0  0  0  0  0  0  0  0  0  0  0
   -3.1297   -6.7674   17.5311 S   0  0  0  0  0  0  0  0  0  0  0  0
  3  1  2  0
  1  5  1  0
  1  7  1  0
  2 11  2  0
 12  2  1  0
  3  9  1  0
 11  3  1  0
  8  4  2  0
  4 16  1  0
  5  6  2  0
 10  6  1  0
  7 14  2  0
  7 15  1  0
 13  8  1  0
  9 10  2  0
 12 13  2  0
 12 16  1  0
M  END
$$$$
