
     RDKit          3D

 16 17  0  0  0  0  0  0  0  0999 V2000
   -5.7959   -5.4760   24.7231 C   0  0  0  0  0  0  0  0  0  0  0  0
   -4.5554   -5.6242   21.3232 C   0  0  0  0  0  0  0  0  0  0  0  0
   -5.3547   -4.9201   23.5331 C   0  0  0  0  0  0  0  0  0  0  0  0
   -5.5830   -8.2457   18.3920 C   0  0  0  0  0  0  0  0  0  0  0  0
   -5.6534   -4.6637   25.8596 C   0  0  0  0  0  0  0  0  0  0  0  0
   -5.1135   -3.4047   25.7942 C   0  0  0  0  0  0  0  0  0  0  0  0
   -6.3742   -6.7981   24.8572 C   0  0  0  0  0  0  0  0  0  0  0  0
   -4.4982   -7.4746   18.0858 C   0  0  0  0  0  0  0  0  0  0  0  0
   -4.8063   -3.6425   23.4640 C   0  0  0  0  0  0  0  0  0  0  0  0
   -4.6849   -2.8779   24.6065 C   0  0  0  0  0  0  0  0  0  0  0  0
   -5.4475   -5.6554   22.2977 C   0  0  0  0  0  0  0  0  0  0  0  0
   -4.7883   -6.5108   20.1607 C   0  0  0  0  0  0  0  0  0  0  0  0
   -4.0854   -6.5818   18.9903 C   0  0  0  0  0  0  0  0  0  0  0  0
   -5.5941   -7.7661   24.5160 O   0  0  0  0  0  0  0  0  0  0  0  0
   -7.6136   -7.1559   25.2887 O   0  0  0  0  0  0  0  0  0  0  0  0
   -5.9979   -7.6893   19.9593 S   0  0  0  0  0  0  0  0  0  0  0  0
  3  1  2  0
  1  5  1  0
  1  7  1  0
  2 11  2  0
 12  2  1  0
  3  9  1  0
 11  3  1  0
  8  4  2  0
  4 16  1  0
  5  6  2  0
 10  6  1  0
  7 14  2  0
  7 15  1  0
 13  8  1  0
  9 10  2  0
 12 13  2  0
 12 16  1  0
M  END
$$$$
