
     RDKit          3D

 16 17  0  0  0  0  0  0  0  0999 V2000
   -5.7648   -5.8631   23.4634 C   0  0  0  0  0  0  0  0  0  0  0  0
   -5.5801   -6.7476   20.0473 C   0  0  0  0  0  0  0  0  0  0  0  0
   -6.4040   -6.2987   22.3140 C   0  0  0  0  0  0  0  0  0  0  0  0
   -4.6602   -5.5493   16.2740 C   0  0  0  0  0  0  0  0  0  0  0  0
   -6.3260   -6.3056   24.6723 C   0  0  0  0  0  0  0  0  0  0  0  0
   -7.4328   -7.1145   24.7104 C   0  0  0  0  0  0  0  0  0  0  0  0
   -4.5941   -5.0092   23.4890 C   0  0  0  0  0  0  0  0  0  0  0  0
   -4.3120   -4.6474   17.2385 C   0  0  0  0  0  0  0  0  0  0  0  0
   -7.5276   -7.1198   22.3500 C   0  0  0  0  0  0  0  0  0  0  0  0
   -8.0464   -7.5313   23.5608 C   0  0  0  0  0  0  0  0  0  0  0  0
   -5.9228   -5.9122   21.0122 C   0  0  0  0  0  0  0  0  0  0  0  0
   -5.1783   -6.1586   18.7499 C   0  0  0  0  0  0  0  0  0  0  0  0
   -4.5756   -4.9548   18.5119 C   0  0  0  0  0  0  0  0  0  0  0  0
   -4.8221   -3.7904   23.8419 O   0  0  0  0  0  0  0  0  0  0  0  0
   -3.3010   -5.3121   23.1952 O   0  0  0  0  0  0  0  0  0  0  0  0
   -5.3561   -6.8184   17.1924 S   0  0  0  0  0  0  0  0  0  0  0  0
  3  1  2  0
  1  5  1  0
  1  7  1  0
  2 11  2  0
 12  2  1  0
  3  9  1  0
 11  3  1  0
  8  4  2  0
  4 16  1  0
  5  6  2  0
 10  6  1  0
  7 14  2  0
  7 15  1  0
 13  8  1  0
  9 10  2  0
 12 13  2  0
 12 16  1  0
M  END
$$$$
