
     RDKit          3D

 16 17  0  0  0  0  0  0  0  0999 V2000
    5.6581   -5.1103   11.0853 C   0  0  0  0  0  0  0  0  0  0  0  0
    3.1133   -5.8320    8.7695 C   0  0  0  0  0  0  0  0  0  0  0  0
    5.0417   -6.0464   10.2707 C   0  0  0  0  0  0  0  0  0  0  0  0
   -0.9329   -6.2025    8.8744 C   0  0  0  0  0  0  0  0  0  0  0  0
    7.0326   -5.3047   11.2974 C   0  0  0  0  0  0  0  0  0  0  0  0
    7.7172   -6.3515   10.7350 C   0  0  0  0  0  0  0  0  0  0  0  0
    4.9908   -3.9845   11.7078 C   0  0  0  0  0  0  0  0  0  0  0  0
   -0.4783   -5.4130    7.8570 C   0  0  0  0  0  0  0  0  0  0  0  0
    5.7344   -7.1098    9.6987 C   0  0  0  0  0  0  0  0  0  0  0  0
    7.0857   -7.2631    9.9338 C   0  0  0  0  0  0  0  0  0  0  0  0
    3.6341   -5.9548    9.9779 C   0  0  0  0  0  0  0  0  0  0  0  0
    1.6372   -5.8576    8.6604 C   0  0  0  0  0  0  0  0  0  0  0  0
    0.8406   -5.2322    7.7421 C   0  0  0  0  0  0  0  0  0  0  0  0
    4.2658   -3.2777   10.9098 O   0  0  0  0  0  0  0  0  0  0  0  0
    5.0229   -3.5740   13.0042 O   0  0  0  0  0  0  0  0  0  0  0  0
    0.5209   -6.6744    9.6502 S   0  0  0  0  0  0  0  0  0  0  0  0
  3  1  2  0
  1  5  1  0
  1  7  1  0
  2 11  2  0
 12  2  1  0
  3  9  1  0
 11  3  1  0
  8  4  2  0
  4 16  1  0
  5  6  2  0
 10  6  1  0
  7 14  2  0
  7 15  1  0
 13  8  1  0
  9 10  2  0
 12 13  2  0
 12 16  1  0
M  END
$$$$
