
     RDKit          3D

 24 27  0  0  0  0  0  0  0  0999 V2000
   90.7413   96.4120  -41.9752 N   0  0  0  0  0  0  0  0  0  0  0  0
   90.3290   97.3408  -42.8569 C   0  0  0  0  0  0  0  0  0  0  0  0
   90.3599   96.7582  -44.1018 C   0  0  0  0  0  0  0  0  0  0  0  0
   89.9715   97.5308  -45.1937 C   0  0  0  0  0  0  0  0  0  0  0  0
   89.5676   98.8305  -45.0616 C   0  0  0  0  0  0  0  0  0  0  0  0
   89.5331   99.4239  -43.8173 C   0  0  0  0  0  0  0  0  0  0  0  0
   89.9125   98.6718  -42.7437 C   0  0  0  0  0  0  0  0  0  0  0  0
   89.1662   99.5981  -46.2690 C   0  0  0  0  0  0  0  0  0  0  0  0
   91.0266   95.2735  -42.6328 C   0  0  0  0  0  0  0  0  0  0  0  0
   90.7966   95.4544  -43.9866 C   0  0  0  0  0  0  0  0  0  0  0  0
   91.0090   94.4394  -44.9036 C   0  0  0  0  0  0  0  0  0  0  0  0
   91.4638   93.2202  -44.4291 C   0  0  0  0  0  0  0  0  0  0  0  0
   91.6928   93.0368  -43.0891 C   0  0  0  0  0  0  0  0  0  0  0  0
   91.4807   94.0490  -42.1766 C   0  0  0  0  0  0  0  0  0  0  0  0
   90.8409   96.6618  -40.5510 C   0  0  0  0  0  0  0  0  0  0  0  0
   92.1760   91.7305  -42.6135 C   0  0  0  0  0  0  0  0  0  0  0  0
   92.2681   90.5401  -43.2810 C   0  0  0  0  0  0  0  0  0  0  0  0
   92.7471   89.4911  -42.6114 C   0  0  0  0  0  0  0  0  0  0  0  0
   93.1116   89.6835  -41.3041 C   0  0  0  0  0  0  0  0  0  0  0  0
   92.7657   91.3396  -41.0639 S   0  0  0  0  0  0  0  0  0  0  0  0
   93.6743   88.6667  -40.3441 C   0  0  0  0  0  0  0  0  0  0  0  0
   92.2027   97.1234  -40.1287 C   0  0  0  0  0  0  0  0  0  0  0  0
   90.1627  100.5645  -46.6636 N   0  0  0  0  0  4  0  0  0  0  0  0
   89.6712  101.3132  -47.8100 C   0  0  0  0  0  0  0  0  0  0  0  0
  1  2  1  0
  1  9  1  0
  1 15  1  0
  2  3  2  0
  2  7  1  0
  3  4  1  0
  3 10  1  0
  4  5  2  0
  5  6  1  0
  5  8  1  0
  6  7  2  0
  8 23  1  0
  9 10  2  0
  9 14  1  0
 10 11  1  0
 11 12  2  0
 12 13  1  0
 13 14  2  0
 13 16  1  0
 15 22  1  0
 16 17  2  0
 16 20  1  0
 17 18  1  0
 18 19  2  0
 19 20  1  0
 19 21  1  0
 23 24  1  0
M  CHG  1  23   1
M  END
$$$$
