
     RDKit          3D

 24 27  0  0  0  0  0  0  0  0999 V2000
   91.8435   93.7588  -42.6818 N   0  0  0  0  0  0  0  0  0  0  0  0
   91.7926   95.0321  -42.2503 C   0  0  0  0  0  0  0  0  0  0  0  0
   91.4382   95.8100  -43.3272 C   0  0  0  0  0  0  0  0  0  0  0  0
   91.3188   97.1834  -43.1290 C   0  0  0  0  0  0  0  0  0  0  0  0
   91.5411   97.7675  -41.9128 C   0  0  0  0  0  0  0  0  0  0  0  0
   91.8970   96.9961  -40.8266 C   0  0  0  0  0  0  0  0  0  0  0  0
   92.0155   95.6497  -41.0148 C   0  0  0  0  0  0  0  0  0  0  0  0
   91.3961   99.2396  -41.7708 C   0  0  0  0  0  0  0  0  0  0  0  0
   91.5323   93.7223  -43.9902 C   0  0  0  0  0  0  0  0  0  0  0  0
   91.2684   95.0067  -44.4362 C   0  0  0  0  0  0  0  0  0  0  0  0
   90.9199   95.2642  -45.7510 C   0  0  0  0  0  0  0  0  0  0  0  0
   90.8400   94.1915  -46.6236 C   0  0  0  0  0  0  0  0  0  0  0  0
   91.1006   92.9178  -46.1859 C   0  0  0  0  0  0  0  0  0  0  0  0
   91.4476   92.6629  -44.8757 C   0  0  0  0  0  0  0  0  0  0  0  0
   92.1868   92.6445  -41.8209 C   0  0  0  0  0  0  0  0  0  0  0  0
   91.0079   91.7972  -47.1356 C   0  0  0  0  0  0  0  0  0  0  0  0
   90.5294   91.7785  -48.4169 C   0  0  0  0  0  0  0  0  0  0  0  0
   90.5581   90.6168  -49.0709 C   0  0  0  0  0  0  0  0  0  0  0  0
   91.0648   89.5276  -48.4107 C   0  0  0  0  0  0  0  0  0  0  0  0
   91.4841   90.1805  -46.8882 S   0  0  0  0  0  0  0  0  0  0  0  0
   91.2039   88.1183  -48.9271 C   0  0  0  0  0  0  0  0  0  0  0  0
   93.6582   92.3623  -41.7830 C   0  0  0  0  0  0  0  0  0  0  0  0
   90.0219   99.6432  -41.5946 N   0  0  0  0  0  4  0  0  0  0  0  0
   89.9587  101.0945  -41.5175 C   0  0  0  0  0  0  0  0  0  0  0  0
  1  2  1  0
  1  9  1  0
  1 15  1  0
  2  3  2  0
  2  7  1  0
  3  4  1  0
  3 10  1  0
  4  5  2  0
  5  6  1  0
  5  8  1  0
  6  7  2  0
  8 23  1  0
  9 10  2  0
  9 14  1  0
 10 11  1  0
 11 12  2  0
 12 13  1  0
 13 14  2  0
 13 16  1  0
 15 22  1  0
 16 17  2  0
 16 20  1  0
 17 18  1  0
 18 19  2  0
 19 20  1  0
 19 21  1  0
 23 24  1  0
M  CHG  1  23   1
M  END
$$$$
