
     RDKit          3D

 24 27  0  0  0  0  0  0  0  0999 V2000
   91.7850   93.8912  -42.7471 N   0  0  0  0  0  0  0  0  0  0  0  0
   91.7595   95.1703  -42.3308 C   0  0  0  0  0  0  0  0  0  0  0  0
   91.4286   95.9429  -43.4189 C   0  0  0  0  0  0  0  0  0  0  0  0
   91.3382   97.3209  -43.2375 C   0  0  0  0  0  0  0  0  0  0  0  0
   91.5660   97.9144  -42.0269 C   0  0  0  0  0  0  0  0  0  0  0  0
   91.8984   97.1483  -40.9296 C   0  0  0  0  0  0  0  0  0  0  0  0
   91.9885   95.7975  -41.1012 C   0  0  0  0  0  0  0  0  0  0  0  0
   91.4526   99.3909  -41.9031 C   0  0  0  0  0  0  0  0  0  0  0  0
   91.4808   93.8460  -44.0568 C   0  0  0  0  0  0  0  0  0  0  0  0
   91.2478   95.1305  -44.5195 C   0  0  0  0  0  0  0  0  0  0  0  0
   90.9129   95.3799  -45.8393 C   0  0  0  0  0  0  0  0  0  0  0  0
   90.8146   94.2990  -46.6998 C   0  0  0  0  0  0  0  0  0  0  0  0
   91.0446   93.0251  -46.2456 C   0  0  0  0  0  0  0  0  0  0  0  0
   91.3782   92.7782  -44.9303 C   0  0  0  0  0  0  0  0  0  0  0  0
   92.0986   92.7799  -41.8710 C   0  0  0  0  0  0  0  0  0  0  0  0
   90.9331   91.8957  -47.1826 C   0  0  0  0  0  0  0  0  0  0  0  0
   90.5294   91.8847  -48.4896 C   0  0  0  0  0  0  0  0  0  0  0  0
   90.5188   90.7116  -49.1236 C   0  0  0  0  0  0  0  0  0  0  0  0
   90.9131   89.6041  -48.4188 C   0  0  0  0  0  0  0  0  0  0  0  0
   91.2858   90.2561  -46.8839 S   0  0  0  0  0  0  0  0  0  0  0  0
   90.9881   88.1794  -48.9055 C   0  0  0  0  0  0  0  0  0  0  0  0
   93.5687   92.5054  -41.7727 C   0  0  0  0  0  0  0  0  0  0  0  0
   90.1831   99.8014  -41.3532 N   0  0  0  0  0  4  0  0  0  0  0  0
   90.1794  101.2474  -41.1933 C   0  0  0  0  0  0  0  0  0  0  0  0
  1  2  1  0
  1  9  1  0
  1 15  1  0
  2  3  2  0
  2  7  1  0
  3  4  1  0
  3 10  1  0
  4  5  2  0
  5  6  1  0
  5  8  1  0
  6  7  2  0
  8 23  1  0
  9 10  2  0
  9 14  1  0
 10 11  1  0
 11 12  2  0
 12 13  1  0
 13 14  2  0
 13 16  1  0
 15 22  1  0
 16 17  2  0
 16 20  1  0
 17 18  1  0
 18 19  2  0
 19 20  1  0
 19 21  1  0
 23 24  1  0
M  CHG  1  23   1
M  END
$$$$
