
     RDKit          3D

 24 27  0  0  0  0  0  0  0  0999 V2000
   91.9419   93.7501  -42.8186 N   0  0  0  0  0  0  0  0  0  0  0  0
   91.7510   95.0101  -42.3874 C   0  0  0  0  0  0  0  0  0  0  0  0
   91.2716   95.7339  -43.4535 C   0  0  0  0  0  0  0  0  0  0  0  0
   90.9934   97.0839  -43.2535 C   0  0  0  0  0  0  0  0  0  0  0  0
   91.1814   97.6968  -42.0457 C   0  0  0  0  0  0  0  0  0  0  0  0
   91.6618   96.9796  -40.9704 C   0  0  0  0  0  0  0  0  0  0  0  0
   91.9362   95.6564  -41.1604 C   0  0  0  0  0  0  0  0  0  0  0  0
   90.8642   99.1414  -41.9012 C   0  0  0  0  0  0  0  0  0  0  0  0
   91.5966   93.6695  -44.1164 C   0  0  0  0  0  0  0  0  0  0  0  0
   91.1655   94.9103  -44.5556 C   0  0  0  0  0  0  0  0  0  0  0  0
   90.7475   95.1170  -45.8590 C   0  0  0  0  0  0  0  0  0  0  0  0
   90.7705   94.0381  -46.7272 C   0  0  0  0  0  0  0  0  0  0  0  0
   91.1967   92.8074  -46.2963 C   0  0  0  0  0  0  0  0  0  0  0  0
   91.6129   92.6030  -44.9974 C   0  0  0  0  0  0  0  0  0  0  0  0
   92.4441   92.6898  -41.9675 C   0  0  0  0  0  0  0  0  0  0  0  0
   91.2105   91.6790  -47.2411 C   0  0  0  0  0  0  0  0  0  0  0  0
   91.6510   90.3967  -47.0602 C   0  0  0  0  0  0  0  0  0  0  0  0
   91.5502   89.5569  -48.0912 C   0  0  0  0  0  0  0  0  0  0  0  0
   91.0127   90.0410  -49.2555 C   0  0  0  0  0  0  0  0  0  0  0  0
   90.6675   91.6661  -48.8556 S   0  0  0  0  0  0  0  0  0  0  0  0
   90.7940   89.2988  -50.5491 C   0  0  0  0  0  0  0  0  0  0  0  0
   93.9396   92.5910  -41.9716 C   0  0  0  0  0  0  0  0  0  0  0  0
   92.0215   99.9814  -42.0950 N   0  0  0  0  0  4  0  0  0  0  0  0
   91.6234  101.3751  -41.9720 C   0  0  0  0  0  0  0  0  0  0  0  0
  1  2  1  0
  1  9  1  0
  1 15  1  0
  2  3  2  0
  2  7  1  0
  3  4  1  0
  3 10  1  0
  4  5  2  0
  5  6  1  0
  5  8  1  0
  6  7  2  0
  8 23  1  0
  9 10  2  0
  9 14  1  0
 10 11  1  0
 11 12  2  0
 12 13  1  0
 13 14  2  0
 13 16  1  0
 15 22  1  0
 16 17  2  0
 16 20  1  0
 17 18  1  0
 18 19  2  0
 19 20  1  0
 19 21  1  0
 23 24  1  0
M  CHG  1  23   1
M  END
$$$$
