
     RDKit          3D

 24 27  0  0  0  0  0  0  0  0999 V2000
   92.0542   94.2348  -42.7781 N   0  0  0  0  0  0  0  0  0  0  0  0
   91.9084   95.5241  -42.4223 C   0  0  0  0  0  0  0  0  0  0  0  0
   91.4042   96.1902  -43.5143 C   0  0  0  0  0  0  0  0  0  0  0  0
   91.1642   97.5567  -43.3915 C   0  0  0  0  0  0  0  0  0  0  0  0
   91.4126   98.2404  -42.2337 C   0  0  0  0  0  0  0  0  0  0  0  0
   91.9182   97.5814  -41.1330 C   0  0  0  0  0  0  0  0  0  0  0  0
   92.1555   96.2424  -41.2473 C   0  0  0  0  0  0  0  0  0  0  0  0
   91.1335   99.6986  -42.1710 C   0  0  0  0  0  0  0  0  0  0  0  0
   91.6571   94.0804  -44.0542 C   0  0  0  0  0  0  0  0  0  0  0  0
   91.2371   95.3010  -44.5561 C   0  0  0  0  0  0  0  0  0  0  0  0
   90.7735   95.4346  -45.8536 C   0  0  0  0  0  0  0  0  0  0  0  0
   90.7387   94.3024  -46.6506 C   0  0  0  0  0  0  0  0  0  0  0  0
   91.1538   93.0914  -46.1574 C   0  0  0  0  0  0  0  0  0  0  0  0
   91.6154   92.9599  -44.8645 C   0  0  0  0  0  0  0  0  0  0  0  0
   92.5654   93.2188  -41.8797 C   0  0  0  0  0  0  0  0  0  0  0  0
   91.1057   91.9052  -47.0273 C   0  0  0  0  0  0  0  0  0  0  0  0
   90.4752   91.7308  -48.2286 C   0  0  0  0  0  0  0  0  0  0  0  0
   90.5899   90.5413  -48.8203 C   0  0  0  0  0  0  0  0  0  0  0  0
   91.3310   89.5817  -48.1809 C   0  0  0  0  0  0  0  0  0  0  0  0
   91.8413   90.3913  -46.7652 S   0  0  0  0  0  0  0  0  0  0  0  0
   91.6080   88.1726  -48.6390 C   0  0  0  0  0  0  0  0  0  0  0  0
   91.9025   91.8869  -42.0602 C   0  0  0  0  0  0  0  0  0  0  0  0
   90.0203  100.0095  -41.3069 N   0  0  0  0  0  4  0  0  0  0  0  0
   89.8605  101.4538  -41.2382 C   0  0  0  0  0  0  0  0  0  0  0  0
  1  2  1  0
  1  9  1  0
  1 15  1  0
  2  3  2  0
  2  7  1  0
  3  4  1  0
  3 10  1  0
  4  5  2  0
  5  6  1  0
  5  8  1  0
  6  7  2  0
  8 23  1  0
  9 10  2  0
  9 14  1  0
 10 11  1  0
 11 12  2  0
 12 13  1  0
 13 14  2  0
 13 16  1  0
 15 22  1  0
 16 17  2  0
 16 20  1  0
 17 18  1  0
 18 19  2  0
 19 20  1  0
 19 21  1  0
 23 24  1  0
M  CHG  1  23   1
M  END
$$$$
