
     RDKit          3D

 24 27  0  0  0  0  0  0  0  0999 V2000
   91.8361   94.1049  -42.7043 N   0  0  0  0  0  0  0  0  0  0  0  0
   91.6679   95.3884  -42.3376 C   0  0  0  0  0  0  0  0  0  0  0  0
   91.1173   96.0468  -43.4117 C   0  0  0  0  0  0  0  0  0  0  0  0
   90.8465   97.4062  -43.2750 C   0  0  0  0  0  0  0  0  0  0  0  0
   91.1095   98.0904  -42.1207 C   0  0  0  0  0  0  0  0  0  0  0  0
   91.6616   97.4391  -41.0378 C   0  0  0  0  0  0  0  0  0  0  0  0
   91.9291   96.1071  -41.1659 C   0  0  0  0  0  0  0  0  0  0  0  0
   90.7958   99.5408  -42.0424 C   0  0  0  0  0  0  0  0  0  0  0  0
   91.4080   93.9466  -43.9699 C   0  0  0  0  0  0  0  0  0  0  0  0
   90.9439   95.1587  -44.4534 C   0  0  0  0  0  0  0  0  0  0  0  0
   90.4415   95.2867  -45.7370 C   0  0  0  0  0  0  0  0  0  0  0  0
   90.4132   94.1577  -46.5389 C   0  0  0  0  0  0  0  0  0  0  0  0
   90.8719   92.9553  -46.0639 C   0  0  0  0  0  0  0  0  0  0  0  0
   91.3721   92.8293  -44.7848 C   0  0  0  0  0  0  0  0  0  0  0  0
   92.3971   93.0979  -41.8258 C   0  0  0  0  0  0  0  0  0  0  0  0
   90.8296   91.7724  -46.9385 C   0  0  0  0  0  0  0  0  0  0  0  0
   91.2416   90.4915  -46.6920 C   0  0  0  0  0  0  0  0  0  0  0  0
   91.0899   89.5947  -47.6671 C   0  0  0  0  0  0  0  0  0  0  0  0
   90.5324   90.0228  -48.8439 C   0  0  0  0  0  0  0  0  0  0  0  0
   90.2411   91.6778  -48.5342 S   0  0  0  0  0  0  0  0  0  0  0  0
   90.2581   89.2107  -50.0838 C   0  0  0  0  0  0  0  0  0  0  0  0
   91.3551   92.3299  -41.0704 C   0  0  0  0  0  0  0  0  0  0  0  0
   89.4976   99.7930  -41.4647 N   0  0  0  0  0  4  0  0  0  0  0  0
   89.2841  101.2297  -41.3839 C   0  0  0  0  0  0  0  0  0  0  0  0
  1  2  1  0
  1  9  1  0
  1 15  1  0
  2  3  2  0
  2  7  1  0
  3  4  1  0
  3 10  1  0
  4  5  2  0
  5  6  1  0
  5  8  1  0
  6  7  2  0
  8 23  1  0
  9 10  2  0
  9 14  1  0
 10 11  1  0
 11 12  2  0
 12 13  1  0
 13 14  2  0
 13 16  1  0
 15 22  1  0
 16 17  2  0
 16 20  1  0
 17 18  1  0
 18 19  2  0
 19 20  1  0
 19 21  1  0
 23 24  1  0
M  CHG  1  23   1
M  END
$$$$
