
     RDKit          3D

 24 27  0  0  0  0  0  0  0  0999 V2000
   91.5568   93.7729  -42.7320 N   0  0  0  0  0  0  0  0  0  0  0  0
   91.4070   95.0318  -42.2816 C   0  0  0  0  0  0  0  0  0  0  0  0
   90.9393   95.7842  -43.3330 C   0  0  0  0  0  0  0  0  0  0  0  0
   90.7026   97.1388  -43.1117 C   0  0  0  0  0  0  0  0  0  0  0  0
   90.9196   97.7289  -41.8975 C   0  0  0  0  0  0  0  0  0  0  0  0
   91.3885   96.9829  -40.8368 C   0  0  0  0  0  0  0  0  0  0  0  0
   91.6223   95.6551  -41.0476 C   0  0  0  0  0  0  0  0  0  0  0  0
   90.6461   99.1799  -41.7300 C   0  0  0  0  0  0  0  0  0  0  0  0
   91.1975   93.7207  -44.0274 C   0  0  0  0  0  0  0  0  0  0  0  0
   90.7990   94.9796  -44.4453 C   0  0  0  0  0  0  0  0  0  0  0  0
   90.3753   95.2168  -45.7416 C   0  0  0  0  0  0  0  0  0  0  0  0
   90.3587   94.1499  -46.6248 C   0  0  0  0  0  0  0  0  0  0  0  0
   90.7526   92.9014  -46.2150 C   0  0  0  0  0  0  0  0  0  0  0  0
   91.1745   92.6667  -44.9231 C   0  0  0  0  0  0  0  0  0  0  0  0
   92.0356   92.6866  -41.9004 C   0  0  0  0  0  0  0  0  0  0  0  0
   90.7246   91.7864  -47.1754 C   0  0  0  0  0  0  0  0  0  0  0  0
   90.2394   91.7498  -48.4538 C   0  0  0  0  0  0  0  0  0  0  0  0
   90.3371   90.5986  -49.1196 C   0  0  0  0  0  0  0  0  0  0  0  0
   90.9165   89.5375  -48.4736 C   0  0  0  0  0  0  0  0  0  0  0  0
   91.3040   90.2009  -46.9472 S   0  0  0  0  0  0  0  0  0  0  0  0
   91.1411   88.1449  -49.0050 C   0  0  0  0  0  0  0  0  0  0  0  0
   93.4486   92.2912  -42.2055 C   0  0  0  0  0  0  0  0  0  0  0  0
   91.8321   99.9860  -41.8918 N   0  0  0  0  0  4  0  0  0  0  0  0
   91.4666  101.3916  -41.8089 C   0  0  0  0  0  0  0  0  0  0  0  0
  1  2  1  0
  1  9  1  0
  1 15  1  0
  2  3  2  0
  2  7  1  0
  3  4  1  0
  3 10  1  0
  4  5  2  0
  5  6  1  0
  5  8  1  0
  6  7  2  0
  8 23  1  0
  9 10  2  0
  9 14  1  0
 10 11  1  0
 11 12  2  0
 12 13  1  0
 13 14  2  0
 13 16  1  0
 15 22  1  0
 16 17  2  0
 16 20  1  0
 17 18  1  0
 18 19  2  0
 19 20  1  0
 19 21  1  0
 23 24  1  0
M  CHG  1  23   1
M  END
$$$$
