
     RDKit          3D

 24 27  0  0  0  0  0  0  0  0999 V2000
   92.1151   94.2289  -42.8268 N   0  0  0  0  0  0  0  0  0  0  0  0
   91.9208   95.5159  -42.4864 C   0  0  0  0  0  0  0  0  0  0  0  0
   91.3173   96.1306  -43.5578 C   0  0  0  0  0  0  0  0  0  0  0  0
   91.0109   97.4847  -43.4458 C   0  0  0  0  0  0  0  0  0  0  0  0
   91.2901   98.2054  -42.3177 C   0  0  0  0  0  0  0  0  0  0  0  0
   91.8953   97.5980  -41.2377 C   0  0  0  0  0  0  0  0  0  0  0  0
   92.1977   96.2714  -41.3417 C   0  0  0  0  0  0  0  0  0  0  0  0
   90.9364   99.6477  -42.2649 C   0  0  0  0  0  0  0  0  0  0  0  0
   91.6519   94.0262  -44.0735 C   0  0  0  0  0  0  0  0  0  0  0  0
   91.1372   95.2117  -44.5713 C   0  0  0  0  0  0  0  0  0  0  0  0
   90.5908   95.2926  -45.8406 C   0  0  0  0  0  0  0  0  0  0  0  0
   90.5704   94.1432  -46.6133 C   0  0  0  0  0  0  0  0  0  0  0  0
   91.0792   92.9669  -46.1241 C   0  0  0  0  0  0  0  0  0  0  0  0
   91.6232   92.8879  -44.8592 C   0  0  0  0  0  0  0  0  0  0  0  0
   92.7332   93.2610  -41.9425 C   0  0  0  0  0  0  0  0  0  0  0  0
   91.0441   91.7614  -46.9676 C   0  0  0  0  0  0  0  0  0  0  0  0
   91.5247   90.5062  -46.7137 C   0  0  0  0  0  0  0  0  0  0  0  0
   91.3626   89.5791  -47.6584 C   0  0  0  0  0  0  0  0  0  0  0  0
   90.7264   89.9527  -48.8136 C   0  0  0  0  0  0  0  0  0  0  0  0
   90.3783   91.6010  -48.5273 S   0  0  0  0  0  0  0  0  0  0  0  0
   90.4244   89.0983  -50.0182 C   0  0  0  0  0  0  0  0  0  0  0  0
   91.7371   92.4223  -41.2005 C   0  0  0  0  0  0  0  0  0  0  0  0
   91.0653  100.1980  -40.9370 N   0  0  0  0  0  4  0  0  0  0  0  0
   90.7427  101.6159  -40.9766 C   0  0  0  0  0  0  0  0  0  0  0  0
  1  2  1  0
  1  9  1  0
  1 15  1  0
  2  3  2  0
  2  7  1  0
  3  4  1  0
  3 10  1  0
  4  5  2  0
  5  6  1  0
  5  8  1  0
  6  7  2  0
  8 23  1  0
  9 10  2  0
  9 14  1  0
 10 11  1  0
 11 12  2  0
 12 13  1  0
 13 14  2  0
 13 16  1  0
 15 22  1  0
 16 17  2  0
 16 20  1  0
 17 18  1  0
 18 19  2  0
 19 20  1  0
 19 21  1  0
 23 24  1  0
M  CHG  1  23   1
M  END
$$$$
