
     RDKit          3D

 24 27  0  0  0  0  0  0  0  0999 V2000
   91.6346   93.8230  -42.5631 N   0  0  0  0  0  0  0  0  0  0  0  0
   91.5983   95.1119  -42.1793 C   0  0  0  0  0  0  0  0  0  0  0  0
   91.2339   95.8512  -43.2797 C   0  0  0  0  0  0  0  0  0  0  0  0
   91.1264   97.2320  -43.1318 C   0  0  0  0  0  0  0  0  0  0  0  0
   91.3698   97.8598  -41.9417 C   0  0  0  0  0  0  0  0  0  0  0  0
   91.7358   97.1273  -40.8323 C   0  0  0  0  0  0  0  0  0  0  0  0
   91.8427   95.7739  -40.9711 C   0  0  0  0  0  0  0  0  0  0  0  0
   91.2367   99.3372  -41.8534 C   0  0  0  0  0  0  0  0  0  0  0  0
   91.3047   93.7394  -43.8647 C   0  0  0  0  0  0  0  0  0  0  0  0
   91.0431   95.0080  -44.3552 C   0  0  0  0  0  0  0  0  0  0  0  0
   90.6778   95.2183  -45.6738 C   0  0  0  0  0  0  0  0  0  0  0  0
   90.5784   94.1141  -46.5041 C   0  0  0  0  0  0  0  0  0  0  0  0
   90.8367   92.8559  -46.0223 C   0  0  0  0  0  0  0  0  0  0  0  0
   91.2005   92.6481  -44.7083 C   0  0  0  0  0  0  0  0  0  0  0  0
   91.9826   92.7394  -41.6655 C   0  0  0  0  0  0  0  0  0  0  0  0
   90.7232   91.7011  -46.9277 C   0  0  0  0  0  0  0  0  0  0  0  0
   90.9112   90.3709  -46.6706 C   0  0  0  0  0  0  0  0  0  0  0  0
   90.7439   89.5162  -47.6804 C   0  0  0  0  0  0  0  0  0  0  0  0
   90.3959   90.0341  -48.9009 C   0  0  0  0  0  0  0  0  0  0  0  0
   90.3167   91.7109  -48.5819 S   0  0  0  0  0  0  0  0  0  0  0  0
   90.1514   89.2841  -50.1855 C   0  0  0  0  0  0  0  0  0  0  0  0
   93.4553   92.4658  -41.6173 C   0  0  0  0  0  0  0  0  0  0  0  0
   89.9825   99.7430  -41.2661 N   0  0  0  0  0  4  0  0  0  0  0  0
   89.9648  101.1918  -41.1366 C   0  0  0  0  0  0  0  0  0  0  0  0
  1  2  1  0
  1  9  1  0
  1 15  1  0
  2  3  2  0
  2  7  1  0
  3  4  1  0
  3 10  1  0
  4  5  2  0
  5  6  1  0
  5  8  1  0
  6  7  2  0
  8 23  1  0
  9 10  2  0
  9 14  1  0
 10 11  1  0
 11 12  2  0
 12 13  1  0
 13 14  2  0
 13 16  1  0
 15 22  1  0
 16 17  2  0
 16 20  1  0
 17 18  1  0
 18 19  2  0
 19 20  1  0
 19 21  1  0
 23 24  1  0
M  CHG  1  23   1
M  END
$$$$
