
     RDKit          3D

 24 27  0  0  0  0  0  0  0  0999 V2000
   91.6130   95.9767  -42.6204 N   0  0  0  0  0  0  0  0  0  0  0  0
   91.1567   96.7934  -43.5872 C   0  0  0  0  0  0  0  0  0  0  0  0
   90.8141   96.0010  -44.6573 C   0  0  0  0  0  0  0  0  0  0  0  0
   90.3091   96.6245  -45.7958 C   0  0  0  0  0  0  0  0  0  0  0  0
   90.1483   97.9801  -45.8752 C   0  0  0  0  0  0  0  0  0  0  0  0
   90.4890   98.7835  -44.8074 C   0  0  0  0  0  0  0  0  0  0  0  0
   90.9843   98.1782  -43.6892 C   0  0  0  0  0  0  0  0  0  0  0  0
   89.6037   98.5805  -47.1206 C   0  0  0  0  0  0  0  0  0  0  0  0
   91.5644   94.7048  -43.0561 C   0  0  0  0  0  0  0  0  0  0  0  0
   91.0620   94.6797  -44.3466 C   0  0  0  0  0  0  0  0  0  0  0  0
   90.9030   93.4942  -45.0435 C   0  0  0  0  0  0  0  0  0  0  0  0
   91.2632   92.3157  -44.4111 C   0  0  0  0  0  0  0  0  0  0  0  0
   91.7611   92.3362  -43.1329 C   0  0  0  0  0  0  0  0  0  0  0  0
   91.9189   93.5181  -42.4399 C   0  0  0  0  0  0  0  0  0  0  0  0
   92.0714   96.4552  -41.3313 C   0  0  0  0  0  0  0  0  0  0  0  0
   92.1356   91.0684  -42.4859 C   0  0  0  0  0  0  0  0  0  0  0  0
   92.7210   90.8511  -41.2689 C   0  0  0  0  0  0  0  0  0  0  0  0
   92.9579   89.5880  -40.9133 C   0  0  0  0  0  0  0  0  0  0  0  0
   92.5971   88.6011  -41.7936 C   0  0  0  0  0  0  0  0  0  0  0  0
   91.9353   89.4900  -43.0943 S   0  0  0  0  0  0  0  0  0  0  0  0
   92.7577   87.1117  -41.6261 C   0  0  0  0  0  0  0  0  0  0  0  0
   91.0156   96.3880  -40.2698 C   0  0  0  0  0  0  0  0  0  0  0  0
   88.3134   99.1940  -46.9177 N   0  0  0  0  0  4  0  0  0  0  0  0
   87.8570   99.7681  -48.1740 C   0  0  0  0  0  0  0  0  0  0  0  0
  1  2  1  0
  1  9  1  0
  1 15  1  0
  2  3  2  0
  2  7  1  0
  3  4  1  0
  3 10  1  0
  4  5  2  0
  5  6  1  0
  5  8  1  0
  6  7  2  0
  8 23  1  0
  9 10  2  0
  9 14  1  0
 10 11  1  0
 11 12  2  0
 12 13  1  0
 13 14  2  0
 13 16  1  0
 15 22  1  0
 16 17  2  0
 16 20  1  0
 17 18  1  0
 18 19  2  0
 19 20  1  0
 19 21  1  0
 23 24  1  0
M  CHG  1  23   1
M  END
$$$$
