
     RDKit          3D

 24 27  0  0  0  0  0  0  0  0999 V2000
   91.1170   95.7174  -42.0369 N   0  0  0  0  0  0  0  0  0  0  0  0
   90.7736   96.8210  -42.7254 C   0  0  0  0  0  0  0  0  0  0  0  0
   90.7131   96.4669  -44.0525 C   0  0  0  0  0  0  0  0  0  0  0  0
   90.3725   97.4523  -44.9760 C   0  0  0  0  0  0  0  0  0  0  0  0
   90.1015   98.7397  -44.6033 C   0  0  0  0  0  0  0  0  0  0  0  0
   90.1595   99.1048  -43.2748 C   0  0  0  0  0  0  0  0  0  0  0  0
   90.4927   98.1435  -42.3654 C   0  0  0  0  0  0  0  0  0  0  0  0
   89.7443   99.7419  -45.6408 C   0  0  0  0  0  0  0  0  0  0  0  0
   91.2712   94.6915  -42.8935 C   0  0  0  0  0  0  0  0  0  0  0  0
   91.0229   95.1287  -44.1841 C   0  0  0  0  0  0  0  0  0  0  0  0
   91.1097   94.2763  -45.2714 C   0  0  0  0  0  0  0  0  0  0  0  0
   91.4557   92.9560  -45.0356 C   0  0  0  0  0  0  0  0  0  0  0  0
   91.7023   92.5189  -43.7589 C   0  0  0  0  0  0  0  0  0  0  0  0
   91.6155   93.3694  -42.6766 C   0  0  0  0  0  0  0  0  0  0  0  0
   91.2796   95.7017  -40.5967 C   0  0  0  0  0  0  0  0  0  0  0  0
   92.0681   91.1104  -43.5383 C   0  0  0  0  0  0  0  0  0  0  0  0
   92.2185   90.0972  -44.4449 C   0  0  0  0  0  0  0  0  0  0  0  0
   92.5600   88.8956  -43.9783 C   0  0  0  0  0  0  0  0  0  0  0  0
   92.7349   88.7649  -42.6251 C   0  0  0  0  0  0  0  0  0  0  0  0
   92.4113   90.3435  -42.0565 S   0  0  0  0  0  0  0  0  0  0  0  0
   93.1176   87.5238  -41.8600 C   0  0  0  0  0  0  0  0  0  0  0  0
   92.7070   95.8486  -40.1644 C   0  0  0  0  0  0  0  0  0  0  0  0
   88.3362  100.0577  -45.6395 N   0  0  0  0  0  4  0  0  0  0  0  0
   88.0855  101.1164  -46.6052 C   0  0  0  0  0  0  0  0  0  0  0  0
  1  2  1  0
  1  9  1  0
  1 15  1  0
  2  3  2  0
  2  7  1  0
  3  4  1  0
  3 10  1  0
  4  5  2  0
  5  6  1  0
  5  8  1  0
  6  7  2  0
  8 23  1  0
  9 10  2  0
  9 14  1  0
 10 11  1  0
 11 12  2  0
 12 13  1  0
 13 14  2  0
 13 16  1  0
 15 22  1  0
 16 17  2  0
 16 20  1  0
 17 18  1  0
 18 19  2  0
 19 20  1  0
 19 21  1  0
 23 24  1  0
M  CHG  1  23   1
M  END
$$$$
