
     RDKit          3D

 24 27  0  0  0  0  0  0  0  0999 V2000
   91.8356   93.8224  -42.6553 N   0  0  0  0  0  0  0  0  0  0  0  0
   91.7305   95.0867  -42.2075 C   0  0  0  0  0  0  0  0  0  0  0  0
   91.2599   95.8475  -43.2516 C   0  0  0  0  0  0  0  0  0  0  0  0
   91.0654   97.2089  -43.0313 C   0  0  0  0  0  0  0  0  0  0  0  0
   91.3259   97.7977  -41.8250 C   0  0  0  0  0  0  0  0  0  0  0  0
   91.7981   97.0434  -40.7716 C   0  0  0  0  0  0  0  0  0  0  0  0
   91.9906   95.7088  -40.9815 C   0  0  0  0  0  0  0  0  0  0  0  0
   91.0962   99.2564  -41.6581 C   0  0  0  0  0  0  0  0  0  0  0  0
   91.4457   93.7749  -43.9420 C   0  0  0  0  0  0  0  0  0  0  0  0
   91.0725   95.0427  -44.3566 C   0  0  0  0  0  0  0  0  0  0  0  0
   90.6262   95.2861  -45.6442 C   0  0  0  0  0  0  0  0  0  0  0  0
   90.5605   94.2166  -46.5219 C   0  0  0  0  0  0  0  0  0  0  0  0
   90.9292   92.9594  -46.1153 C   0  0  0  0  0  0  0  0  0  0  0  0
   91.3736   92.7184  -44.8321 C   0  0  0  0  0  0  0  0  0  0  0  0
   92.3031   92.7267  -41.8297 C   0  0  0  0  0  0  0  0  0  0  0  0
   90.8490   91.8418  -47.0696 C   0  0  0  0  0  0  0  0  0  0  0  0
   90.3322   91.8129  -48.3358 C   0  0  0  0  0  0  0  0  0  0  0  0
   90.3838   90.6569  -48.9985 C   0  0  0  0  0  0  0  0  0  0  0  0
   90.9507   89.5835  -48.3618 C   0  0  0  0  0  0  0  0  0  0  0  0
   91.3922   90.2425  -46.8483 S   0  0  0  0  0  0  0  0  0  0  0  0
   91.1261   88.1835  -48.8922 C   0  0  0  0  0  0  0  0  0  0  0  0
   93.7895   92.5427  -41.8832 C   0  0  0  0  0  0  0  0  0  0  0  0
   92.3261  100.0112  -41.6598 N   0  0  0  0  0  4  0  0  0  0  0  0
   92.0171  101.4241  -41.5026 C   0  0  0  0  0  0  0  0  0  0  0  0
  1  2  1  0
  1  9  1  0
  1 15  1  0
  2  3  2  0
  2  7  1  0
  3  4  1  0
  3 10  1  0
  4  5  2  0
  5  6  1  0
  5  8  1  0
  6  7  2  0
  8 23  1  0
  9 10  2  0
  9 14  1  0
 10 11  1  0
 11 12  2  0
 12 13  1  0
 13 14  2  0
 13 16  1  0
 15 22  1  0
 16 17  2  0
 16 20  1  0
 17 18  1  0
 18 19  2  0
 19 20  1  0
 19 21  1  0
 23 24  1  0
M  CHG  1  23   1
M  END
$$$$
