
     RDKit          3D

 25 28  0  0  0  0  0  0  0  0999 V2000
  -20.4925   18.2689  -30.0616 C   0  0  0  0  0  0  0  0  0  0  0  0
  -18.9553   16.7907  -29.4697 C   0  0  0  0  0  0  0  0  0  0  0  0
  -19.0084   16.8924  -30.8336 C   0  0  0  0  0  0  0  0  0  0  0  0
  -20.2204   18.0984  -32.5307 C   0  0  1  0  0  0  0  0  0  0  0  0
  -21.6283   17.9505  -33.0218 C   0  0  0  0  0  0  0  0  0  0  0  0
  -21.7173   20.8176  -34.2530 C   0  0  0  0  0  0  0  0  0  0  0  0
  -22.9083   20.5154  -33.7599 C   0  0  0  0  0  0  0  0  0  0  0  0
  -23.2966   20.7170  -32.3494 C   0  0  0  0  0  0  0  0  0  0  0  0
  -22.3713   20.0508  -30.1238 C   0  0  0  0  0  0  0  0  0  0  0  0
  -23.2064   20.8110  -29.3088 C   0  0  0  0  0  0  0  0  0  0  0  0
  -23.1981   20.7496  -27.9310 C   0  0  0  0  0  0  0  0  0  0  0  0
  -22.3174   19.8919  -27.3262 C   0  0  0  0  0  0  0  0  0  0  0  0
  -21.4657   19.1146  -28.0908 C   0  0  0  0  0  0  0  0  0  0  0  0
  -21.4931   19.1936  -29.4680 C   0  0  0  0  0  0  0  0  0  0  0  0
  -19.8918   17.6578  -28.9474 C   0  0  0  0  0  0  0  0  0  0  0  0
  -19.6529   19.3652  -33.0936 C   0  0  0  0  0  0  0  0  0  0  0  0
  -18.0730   16.0338  -31.5580 C   0  0  0  0  0  0  0  0  0  0  0  0
  -16.7439   16.0819  -30.8272 C   0  0  0  0  0  0  0  0  0  0  0  0
  -16.9071   15.2645  -29.5467 C   0  0  0  0  0  0  0  0  0  0  0  0
  -18.0261   15.8850  -28.7827 C   0  0  0  0  0  0  0  0  0  0  0  0
  -20.4483   18.1368  -27.7012 C   0  0  0  0  0  0  0  0  0  0  0  0
  -19.9675   17.8134  -31.1750 N   0  0  0  0  0  0  0  0  0  0  0  0
  -22.4224   20.1541  -31.4617 O   0  0  0  0  0  0  0  0  0  0  0  0
  -18.1403   15.6157  -27.5788 O   0  0  0  0  0  0  0  0  0  0  0  0
  -20.1231   17.7855  -26.5630 O   0  0  0  0  0  0  0  0  0  0  0  0
 14  1  1  0
  1 15  2  0
  1 22  1  0
  3  2  2  0
 15  2  1  0
  2 20  1  0
  3 17  1  0
 22  3  1  0
  4  5  1  1
  4 16  1  0
 22  4  1  0
  7  6  2  0
  8  7  1  0
 23  8  1  0
  9 10  2  0
  9 14  1  0
  9 23  1  0
 10 11  1  0
 11 12  2  0
 12 13  1  0
 13 14  2  0
 13 21  1  0
 15 21  1  0
 17 18  1  0
 18 19  1  0
 19 20  1  0
 20 24  2  0
 21 25  2  0
M  END
$$$$
