
     RDKit          3D

 25 28  0  0  0  0  0  0  0  0999 V2000
  -22.1026   19.4241  -30.9383 C   0  0  0  0  0  0  0  0  0  0  0  0
  -23.1185   20.4657  -32.6060 C   0  0  0  0  0  0  0  0  0  0  0  0
  -22.0900   19.7013  -33.0868 C   0  0  0  0  0  0  0  0  0  0  0  0
  -20.3777   18.2176  -32.2682 C   0  0  1  0  0  0  0  0  0  0  0  0
  -20.5272   17.1583  -33.3174 C   0  0  0  0  0  0  0  0  0  0  0  0
  -17.8707   16.2093  -30.3394 C   0  0  0  0  0  0  0  0  0  0  0  0
  -18.8267   15.9603  -29.4579 C   0  0  0  0  0  0  0  0  0  0  0  0
  -19.3837   16.9677  -28.5328 C   0  0  0  0  0  0  0  0  0  0  0  0
  -21.3498   18.5095  -28.6348 C   0  0  0  0  0  0  0  0  0  0  0  0
  -21.6383   18.5599  -27.2733 C   0  0  0  0  0  0  0  0  0  0  0  0
  -22.6599   19.3122  -26.7323 C   0  0  0  0  0  0  0  0  0  0  0  0
  -23.4382   20.0536  -27.5817 C   0  0  0  0  0  0  0  0  0  0  0  0
  -23.1934   20.0378  -28.9433 C   0  0  0  0  0  0  0  0  0  0  0  0
  -22.1650   19.2774  -29.4607 C   0  0  0  0  0  0  0  0  0  0  0  0
  -23.1524   20.3100  -31.2362 C   0  0  0  0  0  0  0  0  0  0  0  0
  -19.0290   18.8508  -32.4229 C   0  0  0  0  0  0  0  0  0  0  0  0
  -21.9062   19.7469  -34.5363 C   0  0  0  0  0  0  0  0  0  0  0  0
  -23.2810   19.6897  -35.1764 C   0  0  0  0  0  0  0  0  0  0  0  0
  -23.9351   21.0527  -34.9553 C   0  0  0  0  0  0  0  0  0  0  0  0
  -23.9762   21.2736  -33.4821 C   0  0  0  0  0  0  0  0  0  0  0  0
  -23.8643   20.7257  -30.0478 C   0  0  0  0  0  0  0  0  0  0  0  0
  -21.4767   19.0667  -32.0352 N   0  0  0  0  0  0  0  0  0  0  0  0
  -20.3424   17.7565  -29.1053 O   0  0  0  0  0  0  0  0  0  0  0  0
  -24.7403   22.1407  -33.0358 O   0  0  0  0  0  0  0  0  0  0  0  0
  -24.8282   21.4956  -29.9948 O   0  0  0  0  0  0  0  0  0  0  0  0
 14  1  1  0
  1 15  2  0
  1 22  1  0
  3  2  2  0
 15  2  1  0
  2 20  1  0
  3 17  1  0
 22  3  1  0
  4  5  1  6
  4 16  1  0
 22  4  1  0
  7  6  2  0
  8  7  1  0
 23  8  1  0
  9 10  2  0
  9 14  1  0
  9 23  1  0
 10 11  1  0
 11 12  2  0
 12 13  1  0
 13 14  2  0
 13 21  1  0
 15 21  1  0
 17 18  1  0
 18 19  1  0
 19 20  1  0
 20 24  2  0
 21 25  2  0
M  END
$$$$
