
     RDKit          3D

 25 28  0  0  0  0  0  0  0  0999 V2000
  -21.9280   19.3733  -30.7189 C   0  0  0  0  0  0  0  0  0  0  0  0
  -22.9632   20.4045  -32.3812 C   0  0  0  0  0  0  0  0  0  0  0  0
  -21.9099   19.6759  -32.8640 C   0  0  0  0  0  0  0  0  0  0  0  0
  -20.1603   18.2331  -32.0511 C   0  0  1  0  0  0  0  0  0  0  0  0
  -20.3403   17.0367  -32.9352 C   0  0  0  0  0  0  0  0  0  0  0  0
  -18.4035   15.0289  -29.5759 C   0  0  0  0  0  0  0  0  0  0  0  0
  -18.2694   16.3172  -29.3018 C   0  0  0  0  0  0  0  0  0  0  0  0
  -19.0989   17.0467  -28.3217 C   0  0  0  0  0  0  0  0  0  0  0  0
  -21.1636   18.4540  -28.4211 C   0  0  0  0  0  0  0  0  0  0  0  0
  -21.4621   18.4800  -27.0611 C   0  0  0  0  0  0  0  0  0  0  0  0
  -22.5085   19.1959  -26.5183 C   0  0  0  0  0  0  0  0  0  0  0  0
  -23.3026   19.9243  -27.3643 C   0  0  0  0  0  0  0  0  0  0  0  0
  -23.0488   19.9316  -28.7243 C   0  0  0  0  0  0  0  0  0  0  0  0
  -21.9955   19.2075  -29.2435 C   0  0  0  0  0  0  0  0  0  0  0  0
  -23.0013   20.2318  -31.0136 C   0  0  0  0  0  0  0  0  0  0  0  0
  -18.8771   18.9095  -32.4246 C   0  0  0  0  0  0  0  0  0  0  0  0
  -21.7183   19.7439  -34.3115 C   0  0  0  0  0  0  0  0  0  0  0  0
  -23.0867   19.6544  -34.9614 C   0  0  0  0  0  0  0  0  0  0  0  0
  -23.7816   20.9951  -34.7290 C   0  0  0  0  0  0  0  0  0  0  0  0
  -23.8385   21.1974  -33.2536 C   0  0  0  0  0  0  0  0  0  0  0  0
  -23.7325   20.6127  -29.8252 C   0  0  0  0  0  0  0  0  0  0  0  0
  -21.2851   19.0472  -31.8156 N   0  0  0  0  0  0  0  0  0  0  0  0
  -20.1317   17.7361  -28.8936 O   0  0  0  0  0  0  0  0  0  0  0  0
  -24.6303   22.0367  -32.8024 O   0  0  0  0  0  0  0  0  0  0  0  0
  -24.7187   21.3536  -29.7697 O   0  0  0  0  0  0  0  0  0  0  0  0
 14  1  1  0
  1 15  2  0
  1 22  1  0
  3  2  2  0
 15  2  1  0
  2 20  1  0
  3 17  1  0
 22  3  1  0
  4  5  1  6
  4 16  1  0
 22  4  1  0
  7  6  2  0
  8  7  1  0
 23  8  1  0
  9 10  2  0
  9 14  1  0
  9 23  1  0
 10 11  1  0
 11 12  2  0
 12 13  1  0
 13 14  2  0
 13 21  1  0
 15 21  1  0
 17 18  1  0
 18 19  1  0
 19 20  1  0
 20 24  2  0
 21 25  2  0
M  END
$$$$
