
     RDKit          3D

 25 28  0  0  0  0  0  0  0  0999 V2000
  -20.4750   18.0363  -29.6611 C   0  0  0  0  0  0  0  0  0  0  0  0
  -18.8964   16.5432  -29.2405 C   0  0  0  0  0  0  0  0  0  0  0  0
  -19.0096   16.7393  -30.5903 C   0  0  0  0  0  0  0  0  0  0  0  0
  -20.3079   18.0430  -32.1453 C   0  0  1  0  0  0  0  0  0  0  0  0
  -19.2953   17.7529  -33.2110 C   0  0  0  0  0  0  0  0  0  0  0  0
  -22.3635   20.4644  -33.9046 C   0  0  0  0  0  0  0  0  0  0  0  0
  -22.6928   21.2155  -32.8651 C   0  0  0  0  0  0  0  0  0  0  0  0
  -23.3362   20.6990  -31.6403 C   0  0  0  0  0  0  0  0  0  0  0  0
  -22.3757   19.7902  -29.5178 C   0  0  0  0  0  0  0  0  0  0  0  0
  -23.1837   20.4790  -28.6167 C   0  0  0  0  0  0  0  0  0  0  0  0
  -23.1151   20.3215  -27.2482 C   0  0  0  0  0  0  0  0  0  0  0  0
  -22.1990   19.4367  -26.7433 C   0  0  0  0  0  0  0  0  0  0  0  0
  -21.3720   18.7276  -27.5961 C   0  0  0  0  0  0  0  0  0  0  0  0
  -21.4599   18.9023  -28.9619 C   0  0  0  0  0  0  0  0  0  0  0  0
  -19.8196   17.3577  -28.6191 C   0  0  0  0  0  0  0  0  0  0  0  0
  -21.6637   17.6794  -32.6684 C   0  0  0  0  0  0  0  0  0  0  0  0
  -18.0963   15.9475  -31.4124 C   0  0  0  0  0  0  0  0  0  0  0  0
  -16.7375   15.9640  -30.7369 C   0  0  0  0  0  0  0  0  0  0  0  0
  -16.8355   15.0567  -29.5115 C   0  0  0  0  0  0  0  0  0  0  0  0
  -17.9276   15.6056  -28.6589 C   0  0  0  0  0  0  0  0  0  0  0  0
  -20.3272   17.7400  -27.3199 C   0  0  0  0  0  0  0  0  0  0  0  0
  -19.9933   17.6677  -30.8250 N   0  0  0  0  0  0  0  0  0  0  0  0
  -22.4858   19.9860  -30.8418 O   0  0  0  0  0  0  0  0  0  0  0  0
  -17.9865   15.2510  -27.4733 O   0  0  0  0  0  0  0  0  0  0  0  0
  -19.9491   17.3148  -26.2240 O   0  0  0  0  0  0  0  0  0  0  0  0
 14  1  1  0
  1 15  2  0
  1 22  1  0
  3  2  2  0
 15  2  1  0
  2 20  1  0
  3 17  1  0
 22  3  1  0
  4  5  1  6
  4 16  1  0
 22  4  1  0
  7  6  2  0
  8  7  1  0
 23  8  1  0
  9 10  2  0
  9 14  1  0
  9 23  1  0
 10 11  1  0
 11 12  2  0
 12 13  1  0
 13 14  2  0
 13 21  1  0
 15 21  1  0
 17 18  1  0
 18 19  1  0
 19 20  1  0
 20 24  2  0
 21 25  2  0
M  END
$$$$
