
     RDKit          3D

 25 28  0  0  0  0  0  0  0  0999 V2000
  -20.1247   18.0424  -29.8207 C   0  0  0  0  0  0  0  0  0  0  0  0
  -18.4629   16.5947  -30.0221 C   0  0  0  0  0  0  0  0  0  0  0  0
  -18.8982   16.9850  -31.2597 C   0  0  0  0  0  0  0  0  0  0  0  0
  -20.5544   18.4325  -32.2420 C   0  0  1  0  0  0  0  0  0  0  0  0
  -19.7319   19.3129  -33.1328 C   0  0  0  0  0  0  0  0  0  0  0  0
  -22.4104   21.1650  -32.8618 C   0  0  0  0  0  0  0  0  0  0  0  0
  -23.4666   20.9198  -32.1020 C   0  0  0  0  0  0  0  0  0  0  0  0
  -23.4215   20.8126  -30.6298 C   0  0  0  0  0  0  0  0  0  0  0  0
  -21.9700   19.6445  -28.9619 C   0  0  0  0  0  0  0  0  0  0  0  0
  -22.5531   20.1431  -27.7997 C   0  0  0  0  0  0  0  0  0  0  0  0
  -22.1575   19.7855  -26.5277 C   0  0  0  0  0  0  0  0  0  0  0  0
  -21.1306   18.8879  -26.3972 C   0  0  0  0  0  0  0  0  0  0  0  0
  -20.5171   18.3632  -27.5208 C   0  0  0  0  0  0  0  0  0  0  0  0
  -20.9312   18.7362  -28.7829 C   0  0  0  0  0  0  0  0  0  0  0  0
  -19.2270   17.2528  -29.0815 C   0  0  0  0  0  0  0  0  0  0  0  0
  -21.3682   17.5155  -33.1027 C   0  0  0  0  0  0  0  0  0  0  0  0
  -18.1920   16.3789  -32.3869 C   0  0  0  0  0  0  0  0  0  0  0  0
  -16.7119   16.3702  -32.0517 C   0  0  0  0  0  0  0  0  0  0  0  0
  -16.4976   15.2847  -30.9980 C   0  0  0  0  0  0  0  0  0  0  0  0
  -17.3656   15.6364  -29.8388 C   0  0  0  0  0  0  0  0  0  0  0  0
  -19.4178   17.4059  -27.6560 C   0  0  0  0  0  0  0  0  0  0  0  0
  -19.9272   17.8810  -31.1081 N   0  0  0  0  0  0  0  0  0  0  0  0
  -22.3961   20.0309  -30.1754 O   0  0  0  0  0  0  0  0  0  0  0  0
  -17.1335   15.1047  -28.7441 O   0  0  0  0  0  0  0  0  0  0  0  0
  -18.7813   16.8426  -26.7603 O   0  0  0  0  0  0  0  0  0  0  0  0
 14  1  1  0
  1 15  2  0
  1 22  1  0
  3  2  2  0
 15  2  1  0
  2 20  1  0
  3 17  1  0
 22  3  1  0
  4  5  1  6
  4 16  1  0
 22  4  1  0
  7  6  2  0
  8  7  1  0
 23  8  1  0
  9 10  2  0
  9 14  1  0
  9 23  1  0
 10 11  1  0
 11 12  2  0
 12 13  1  0
 13 14  2  0
 13 21  1  0
 15 21  1  0
 17 18  1  0
 18 19  1  0
 19 20  1  0
 20 24  2  0
 21 25  2  0
M  END
$$$$
