
     RDKit          3D

 25 28  0  0  0  0  0  0  0  0999 V2000
  -20.6639   18.1737  -29.6227 C   0  0  0  0  0  0  0  0  0  0  0  0
  -19.1901   16.7280  -28.8252 C   0  0  0  0  0  0  0  0  0  0  0  0
  -19.1325   16.7514  -30.1925 C   0  0  0  0  0  0  0  0  0  0  0  0
  -20.1951   17.8611  -32.0480 C   0  0  1  0  0  0  0  0  0  0  0  0
  -19.1038   18.6064  -32.7543 C   0  0  0  0  0  0  0  0  0  0  0  0
  -22.4365   21.0312  -34.5827 C   0  0  0  0  0  0  0  0  0  0  0  0
  -22.3327   21.2541  -33.2817 C   0  0  0  0  0  0  0  0  0  0  0  0
  -23.1796   20.6063  -32.2598 C   0  0  0  0  0  0  0  0  0  0  0  0
  -22.5188   19.9540  -29.9379 C   0  0  0  0  0  0  0  0  0  0  0  0
  -23.4112   20.7619  -29.2378 C   0  0  0  0  0  0  0  0  0  0  0  0
  -23.5143   20.7797  -27.8625 C   0  0  0  0  0  0  0  0  0  0  0  0
  -22.6914   19.9558  -27.1407 C   0  0  0  0  0  0  0  0  0  0  0  0
  -21.7865   19.1337  -27.7884 C   0  0  0  0  0  0  0  0  0  0  0  0
  -21.7024   19.1335  -29.1655 C   0  0  0  0  0  0  0  0  0  0  0  0
  -20.1593   17.6261  -28.4305 C   0  0  0  0  0  0  0  0  0  0  0  0
  -20.5900   16.6876  -32.8911 C   0  0  0  0  0  0  0  0  0  0  0  0
  -18.1480   15.8503  -30.7888 C   0  0  0  0  0  0  0  0  0  0  0  0
  -16.8817   15.9367  -29.9570 C   0  0  0  0  0  0  0  0  0  0  0  0
  -17.1533   15.1946  -28.6493 C   0  0  0  0  0  0  0  0  0  0  0  0
  -18.3257   15.8608  -28.0148 C   0  0  0  0  0  0  0  0  0  0  0  0
  -20.8108   18.1772  -27.2628 C   0  0  0  0  0  0  0  0  0  0  0  0
  -20.0543   17.6538  -30.6622 N   0  0  0  0  0  0  0  0  0  0  0  0
  -22.4612   19.9804  -31.2794 O   0  0  0  0  0  0  0  0  0  0  0  0
  -18.5384   15.6614  -26.8107 O   0  0  0  0  0  0  0  0  0  0  0  0
  -20.5810   17.8910  -26.0838 O   0  0  0  0  0  0  0  0  0  0  0  0
 14  1  1  0
  1 15  2  0
  1 22  1  0
  3  2  2  0
 15  2  1  0
  2 20  1  0
  3 17  1  0
 22  3  1  0
  4  5  1  6
  4 16  1  0
 22  4  1  0
  7  6  2  0
  8  7  1  0
 23  8  1  0
  9 10  2  0
  9 14  1  0
  9 23  1  0
 10 11  1  0
 11 12  2  0
 12 13  1  0
 13 14  2  0
 13 21  1  0
 15 21  1  0
 17 18  1  0
 18 19  1  0
 19 20  1  0
 20 24  2  0
 21 25  2  0
M  END
$$$$
