
     RDKit          3D

 25 28  0  0  0  0  0  0  0  0999 V2000
  -22.0260   19.1898  -30.6789 C   0  0  0  0  0  0  0  0  0  0  0  0
  -23.1731   20.3632  -32.1640 C   0  0  0  0  0  0  0  0  0  0  0  0
  -22.2293   19.5998  -32.7964 C   0  0  0  0  0  0  0  0  0  0  0  0
  -20.4955   18.0175  -32.2546 C   0  0  1  0  0  0  0  0  0  0  0  0
  -20.8747   16.7773  -33.0052 C   0  0  0  0  0  0  0  0  0  0  0  0
  -17.2113   15.5222  -29.8649 C   0  0  0  0  0  0  0  0  0  0  0  0
  -18.5091   15.7835  -29.8460 C   0  0  0  0  0  0  0  0  0  0  0  0
  -19.2019   16.4605  -28.7312 C   0  0  0  0  0  0  0  0  0  0  0  0
  -21.0691   18.1114  -28.5271 C   0  0  0  0  0  0  0  0  0  0  0  0
  -21.2108   18.0854  -27.1419 C   0  0  0  0  0  0  0  0  0  0  0  0
  -22.1418   18.8327  -26.4512 C   0  0  0  0  0  0  0  0  0  0  0  0
  -22.9776   19.6486  -27.1674 C   0  0  0  0  0  0  0  0  0  0  0  0
  -22.8780   19.7103  -28.5459 C   0  0  0  0  0  0  0  0  0  0  0  0
  -21.9380   18.9533  -29.2143 C   0  0  0  0  0  0  0  0  0  0  0  0
  -23.0685   20.1236  -30.8100 C   0  0  0  0  0  0  0  0  0  0  0  0
  -19.2977   18.6251  -32.9177 C   0  0  0  0  0  0  0  0  0  0  0  0
  -22.1974   19.7302  -34.2520 C   0  0  0  0  0  0  0  0  0  0  0  0
  -23.6330   19.7541  -34.7434 C   0  0  0  0  0  0  0  0  0  0  0  0
  -24.2102   21.1197  -34.3737 C   0  0  0  0  0  0  0  0  0  0  0  0
  -24.0882   21.2494  -32.8941 C   0  0  0  0  0  0  0  0  0  0  0  0
  -23.6359   20.4855  -29.5298 C   0  0  0  0  0  0  0  0  0  0  0  0
  -21.5324   18.8829  -31.8556 N   0  0  0  0  0  0  0  0  0  0  0  0
  -20.1447   17.3593  -29.1463 O   0  0  0  0  0  0  0  0  0  0  0  0
  -24.7691   22.1095  -32.3183 O   0  0  0  0  0  0  0  0  0  0  0  0
  -24.5602   21.2791  -29.3286 O   0  0  0  0  0  0  0  0  0  0  0  0
 14  1  1  0
  1 15  2  0
  1 22  1  0
  3  2  2  0
 15  2  1  0
  2 20  1  0
  3 17  1  0
 22  3  1  0
  4  5  1  6
  4 16  1  0
 22  4  1  0
  7  6  2  0
  8  7  1  0
 23  8  1  0
  9 10  2  0
  9 14  1  0
  9 23  1  0
 10 11  1  0
 11 12  2  0
 12 13  1  0
 13 14  2  0
 13 21  1  0
 15 21  1  0
 17 18  1  0
 18 19  1  0
 19 20  1  0
 20 24  2  0
 21 25  2  0
M  END
$$$$
