
     RDKit          3D

 25 28  0  0  0  0  0  0  0  0999 V2000
  -21.8720   19.4651  -30.9746 C   0  0  0  0  0  0  0  0  0  0  0  0
  -22.9178   20.5126  -32.6200 C   0  0  0  0  0  0  0  0  0  0  0  0
  -21.8836   19.7681  -33.1196 C   0  0  0  0  0  0  0  0  0  0  0  0
  -20.1437   18.2982  -32.3351 C   0  0  1  0  0  0  0  0  0  0  0  0
  -20.3378   17.1476  -33.2751 C   0  0  0  0  0  0  0  0  0  0  0  0
  -17.1712   16.1849  -29.9281 C   0  0  0  0  0  0  0  0  0  0  0  0
  -18.4546   16.1131  -29.6110 C   0  0  0  0  0  0  0  0  0  0  0  0
  -19.1156   16.9937  -28.6268 C   0  0  0  0  0  0  0  0  0  0  0  0
  -21.0850   18.5334  -28.6894 C   0  0  0  0  0  0  0  0  0  0  0  0
  -21.3612   18.5635  -27.3248 C   0  0  0  0  0  0  0  0  0  0  0  0
  -22.3877   19.2952  -26.7652 C   0  0  0  0  0  0  0  0  0  0  0  0
  -23.1840   20.0361  -27.5983 C   0  0  0  0  0  0  0  0  0  0  0  0
  -22.9519   20.0400  -28.9622 C   0  0  0  0  0  0  0  0  0  0  0  0
  -21.9183   19.2999  -29.4983 C   0  0  0  0  0  0  0  0  0  0  0  0
  -22.9365   20.3401  -31.2519 C   0  0  0  0  0  0  0  0  0  0  0  0
  -18.8377   18.9577  -32.6566 C   0  0  0  0  0  0  0  0  0  0  0  0
  -21.7143   19.8336  -34.5701 C   0  0  0  0  0  0  0  0  0  0  0  0
  -23.0942   19.7653  -35.1979 C   0  0  0  0  0  0  0  0  0  0  0  0
  -23.7645   21.1165  -34.9542 C   0  0  0  0  0  0  0  0  0  0  0  0
  -23.7946   21.3192  -33.4781 C   0  0  0  0  0  0  0  0  0  0  0  0
  -23.6426   20.7318  -30.0519 C   0  0  0  0  0  0  0  0  0  0  0  0
  -21.2519   19.1294  -32.0815 N   0  0  0  0  0  0  0  0  0  0  0  0
  -20.0720   17.7998  -29.1785 O   0  0  0  0  0  0  0  0  0  0  0  0
  -24.5660   22.1704  -33.0142 O   0  0  0  0  0  0  0  0  0  0  0  0
  -24.6162   21.4878  -29.9805 O   0  0  0  0  0  0  0  0  0  0  0  0
 14  1  1  0
  1 15  2  0
  1 22  1  0
  3  2  2  0
 15  2  1  0
  2 20  1  0
  3 17  1  0
 22  3  1  0
  4  5  1  6
  4 16  1  0
 22  4  1  0
  7  6  2  0
  8  7  1  0
 23  8  1  0
  9 10  2  0
  9 14  1  0
  9 23  1  0
 10 11  1  0
 11 12  2  0
 12 13  1  0
 13 14  2  0
 13 21  1  0
 15 21  1  0
 17 18  1  0
 18 19  1  0
 19 20  1  0
 20 24  2  0
 21 25  2  0
M  END
$$$$
