
     RDKit          3D

 25 28  0  0  0  0  0  0  0  0999 V2000
  -21.8719   19.2594  -30.9314 C   0  0  0  0  0  0  0  0  0  0  0  0
  -23.0003   20.3078  -32.5208 C   0  0  0  0  0  0  0  0  0  0  0  0
  -21.9403   19.6335  -33.0641 C   0  0  0  0  0  0  0  0  0  0  0  0
  -20.1146   18.2274  -32.3618 C   0  0  1  0  0  0  0  0  0  0  0  0
  -19.0108   18.1965  -31.3489 C   0  0  0  0  0  0  0  0  0  0  0  0
  -18.8665   15.5489  -30.7508 C   0  0  0  0  0  0  0  0  0  0  0  0
  -18.2544   16.0329  -29.6812 C   0  0  0  0  0  0  0  0  0  0  0  0
  -18.8820   16.9557  -28.7139 C   0  0  0  0  0  0  0  0  0  0  0  0
  -20.9954   18.2922  -28.6941 C   0  0  0  0  0  0  0  0  0  0  0  0
  -21.2461   18.2624  -27.3246 C   0  0  0  0  0  0  0  0  0  0  0  0
  -22.2966   18.9224  -26.7219 C   0  0  0  0  0  0  0  0  0  0  0  0
  -23.1448   19.6498  -27.5146 C   0  0  0  0  0  0  0  0  0  0  0  0
  -22.9398   19.7112  -28.8815 C   0  0  0  0  0  0  0  0  0  0  0  0
  -21.8813   19.0426  -29.4611 C   0  0  0  0  0  0  0  0  0  0  0  0
  -22.9838   20.0886  -31.1594 C   0  0  0  0  0  0  0  0  0  0  0  0
  -20.3240   16.8366  -32.8771 C   0  0  0  0  0  0  0  0  0  0  0  0
  -21.8027   19.7562  -34.5142 C   0  0  0  0  0  0  0  0  0  0  0  0
  -23.1894   19.6397  -35.1195 C   0  0  0  0  0  0  0  0  0  0  0  0
  -23.9212   20.9465  -34.8174 C   0  0  0  0  0  0  0  0  0  0  0  0
  -23.9326   21.0976  -33.3349 C   0  0  0  0  0  0  0  0  0  0  0  0
  -23.6850   20.4037  -29.9343 C   0  0  0  0  0  0  0  0  0  0  0  0
  -21.2575   18.9928  -32.0601 N   0  0  0  0  0  0  0  0  0  0  0  0
  -19.9569   17.6274  -29.2261 O   0  0  0  0  0  0  0  0  0  0  0  0
  -24.7362   21.8928  -32.8282 O   0  0  0  0  0  0  0  0  0  0  0  0
  -24.6935   21.1069  -29.8195 O   0  0  0  0  0  0  0  0  0  0  0  0
 14  1  1  0
  1 15  2  0
  1 22  1  0
  3  2  2  0
 15  2  1  0
  2 20  1  0
  3 17  1  0
 22  3  1  0
  4  5  1  1
  4 16  1  0
 22  4  1  0
  7  6  2  0
  8  7  1  0
 23  8  1  0
  9 10  2  0
  9 14  1  0
  9 23  1  0
 10 11  1  0
 11 12  2  0
 12 13  1  0
 13 14  2  0
 13 21  1  0
 15 21  1  0
 17 18  1  0
 18 19  1  0
 19 20  1  0
 20 24  2  0
 21 25  2  0
M  END
$$$$
