
     RDKit          3D

 25 28  0  0  0  0  0  0  0  0999 V2000
  -20.3167   17.9657  -29.7708 C   0  0  0  0  0  0  0  0  0  0  0  0
  -18.7184   16.4662  -29.4624 C   0  0  0  0  0  0  0  0  0  0  0  0
  -18.8582   16.7357  -30.7970 C   0  0  0  0  0  0  0  0  0  0  0  0
  -20.1957   18.1117  -32.2534 C   0  0  1  0  0  0  0  0  0  0  0  0
  -19.1717   18.9009  -33.0111 C   0  0  0  0  0  0  0  0  0  0  0  0
  -23.1186   20.0206  -33.8772 C   0  0  0  0  0  0  0  0  0  0  0  0
  -22.7454   20.8952  -32.9559 C   0  0  0  0  0  0  0  0  0  0  0  0
  -23.1377   20.8194  -31.5342 C   0  0  0  0  0  0  0  0  0  0  0  0
  -22.2287   19.6914  -29.4960 C   0  0  0  0  0  0  0  0  0  0  0  0
  -23.0254   20.3217  -28.5435 C   0  0  0  0  0  0  0  0  0  0  0  0
  -22.9302   20.0892  -27.1873 C   0  0  0  0  0  0  0  0  0  0  0  0
  -21.9978   19.1862  -26.7490 C   0  0  0  0  0  0  0  0  0  0  0  0
  -21.1810   18.5331  -27.6547 C   0  0  0  0  0  0  0  0  0  0  0  0
  -21.2956   18.7824  -29.0068 C   0  0  0  0  0  0  0  0  0  0  0  0
  -19.6366   17.2364  -28.7801 C   0  0  0  0  0  0  0  0  0  0  0  0
  -20.8183   17.1214  -33.1891 C   0  0  0  0  0  0  0  0  0  0  0  0
  -17.9538   15.9992  -31.6781 C   0  0  0  0  0  0  0  0  0  0  0  0
  -16.5830   15.9907  -31.0274 C   0  0  0  0  0  0  0  0  0  0  0  0
  -16.6508   15.0159  -29.8527 C   0  0  0  0  0  0  0  0  0  0  0  0
  -17.7314   15.5066  -28.9515 C   0  0  0  0  0  0  0  0  0  0  0  0
  -20.1232   17.5414  -27.4527 C   0  0  0  0  0  0  0  0  0  0  0  0
  -19.8537   17.6666  -30.9619 N   0  0  0  0  0  0  0  0  0  0  0  0
  -22.3649   19.9593  -30.8048 O   0  0  0  0  0  0  0  0  0  0  0  0
  -17.7654   15.0864  -27.7865 O   0  0  0  0  0  0  0  0  0  0  0  0
  -19.7214   17.0596  -26.3892 O   0  0  0  0  0  0  0  0  0  0  0  0
 14  1  1  0
  1 15  2  0
  1 22  1  0
  3  2  2  0
 15  2  1  0
  2 20  1  0
  3 17  1  0
 22  3  1  0
  4  5  1  6
  4 16  1  0
 22  4  1  0
  7  6  2  0
  8  7  1  0
 23  8  1  0
  9 10  2  0
  9 14  1  0
  9 23  1  0
 10 11  1  0
 11 12  2  0
 12 13  1  0
 13 14  2  0
 13 21  1  0
 15 21  1  0
 17 18  1  0
 18 19  1  0
 19 20  1  0
 20 24  2  0
 21 25  2  0
M  END
$$$$
