
     RDKit          3D

 25 28  0  0  0  0  0  0  0  0999 V2000
  -21.9800   19.5466  -30.7613 C   0  0  0  0  0  0  0  0  0  0  0  0
  -23.2165   20.6983  -32.1907 C   0  0  0  0  0  0  0  0  0  0  0  0
  -22.2582   19.9895  -32.8636 C   0  0  0  0  0  0  0  0  0  0  0  0
  -20.4438   18.4738  -32.4009 C   0  0  1  0  0  0  0  0  0  0  0  0
  -20.7600   17.3945  -33.3911 C   0  0  0  0  0  0  0  0  0  0  0  0
  -18.6332   14.9782  -30.5420 C   0  0  0  0  0  0  0  0  0  0  0  0
  -18.3790   16.2050  -30.1138 C   0  0  0  0  0  0  0  0  0  0  0  0
  -19.0497   16.8351  -28.9588 C   0  0  0  0  0  0  0  0  0  0  0  0
  -20.9194   18.4683  -28.6585 C   0  0  0  0  0  0  0  0  0  0  0  0
  -21.0223   18.4085  -27.2710 C   0  0  0  0  0  0  0  0  0  0  0  0
  -21.9655   19.1006  -26.5405 C   0  0  0  0  0  0  0  0  0  0  0  0
  -22.8548   19.8934  -27.2171 C   0  0  0  0  0  0  0  0  0  0  0  0
  -22.7954   19.9869  -28.5962 C   0  0  0  0  0  0  0  0  0  0  0  0
  -21.8422   19.2850  -29.3048 C   0  0  0  0  0  0  0  0  0  0  0  0
  -23.0649   20.4365  -30.8452 C   0  0  0  0  0  0  0  0  0  0  0  0
  -19.1797   19.1541  -32.8290 C   0  0  0  0  0  0  0  0  0  0  0  0
  -22.2714   20.1502  -34.3164 C   0  0  0  0  0  0  0  0  0  0  0  0
  -23.7195   20.1213  -34.7693 C   0  0  0  0  0  0  0  0  0  0  0  0
  -24.3448   21.4527  -34.3559 C   0  0  0  0  0  0  0  0  0  0  0  0
  -24.1883   21.5581  -32.8777 C   0  0  0  0  0  0  0  0  0  0  0  0
  -23.6124   20.7477  -29.5432 C   0  0  0  0  0  0  0  0  0  0  0  0
  -21.5057   19.2851  -31.9568 N   0  0  0  0  0  0  0  0  0  0  0  0
  -19.9807   17.7698  -29.3175 O   0  0  0  0  0  0  0  0  0  0  0  0
  -24.8897   22.3760  -32.2662 O   0  0  0  0  0  0  0  0  0  0  0  0
  -24.5642   21.4961  -29.3012 O   0  0  0  0  0  0  0  0  0  0  0  0
 14  1  1  0
  1 15  2  0
  1 22  1  0
  3  2  2  0
 15  2  1  0
  2 20  1  0
  3 17  1  0
 22  3  1  0
  4  5  1  6
  4 16  1  0
 22  4  1  0
  7  6  2  0
  8  7  1  0
 23  8  1  0
  9 10  2  0
  9 14  1  0
  9 23  1  0
 10 11  1  0
 11 12  2  0
 12 13  1  0
 13 14  2  0
 13 21  1  0
 15 21  1  0
 17 18  1  0
 18 19  1  0
 19 20  1  0
 20 24  2  0
 21 25  2  0
M  END
$$$$
