
     RDKit          3D

 25 28  0  0  0  0  0  0  0  0999 V2000
  -22.0537   19.3698  -30.8595 C   0  0  0  0  0  0  0  0  0  0  0  0
  -23.2355   20.5392  -32.3203 C   0  0  0  0  0  0  0  0  0  0  0  0
  -22.2797   19.8055  -32.9696 C   0  0  0  0  0  0  0  0  0  0  0  0
  -20.5088   18.2533  -32.4615 C   0  0  1  0  0  0  0  0  0  0  0  0
  -20.8492   17.1039  -33.3606 C   0  0  0  0  0  0  0  0  0  0  0  0
  -17.8919   16.1001  -30.9993 C   0  0  0  0  0  0  0  0  0  0  0  0
  -18.8483   15.7200  -30.1663 C   0  0  0  0  0  0  0  0  0  0  0  0
  -19.3085   16.5191  -29.0128 C   0  0  0  0  0  0  0  0  0  0  0  0
  -21.0595   18.2817  -28.7295 C   0  0  0  0  0  0  0  0  0  0  0  0
  -21.1915   18.2330  -27.3440 C   0  0  0  0  0  0  0  0  0  0  0  0
  -22.1338   18.9501  -26.6368 C   0  0  0  0  0  0  0  0  0  0  0  0
  -22.9916   19.7579  -27.3358 C   0  0  0  0  0  0  0  0  0  0  0  0
  -22.9025   19.8414  -28.7139 C   0  0  0  0  0  0  0  0  0  0  0  0
  -21.9509   19.1144  -29.3990 C   0  0  0  0  0  0  0  0  0  0  0  0
  -23.1168   20.2827  -30.9706 C   0  0  0  0  0  0  0  0  0  0  0  0
  -19.2631   18.9057  -32.9774 C   0  0  0  0  0  0  0  0  0  0  0  0
  -22.2603   19.9572  -34.4233 C   0  0  0  0  0  0  0  0  0  0  0  0
  -23.6993   19.9572  -34.9052 C   0  0  0  0  0  0  0  0  0  0  0  0
  -24.3032   21.3046  -34.5123 C   0  0  0  0  0  0  0  0  0  0  0  0
  -24.1742   21.4158  -33.0318 C   0  0  0  0  0  0  0  0  0  0  0  0
  -23.6833   20.6140  -29.6817 C   0  0  0  0  0  0  0  0  0  0  0  0
  -21.5614   19.0904  -32.0436 N   0  0  0  0  0  0  0  0  0  0  0  0
  -20.1234   17.5587  -29.3653 O   0  0  0  0  0  0  0  0  0  0  0  0
  -24.8695   22.2528  -32.4394 O   0  0  0  0  0  0  0  0  0  0  0  0
  -24.6231   21.3845  -29.4633 O   0  0  0  0  0  0  0  0  0  0  0  0
 14  1  1  0
  1 15  2  0
  1 22  1  0
  3  2  2  0
 15  2  1  0
  2 20  1  0
  3 17  1  0
 22  3  1  0
  4  5  1  6
  4 16  1  0
 22  4  1  0
  7  6  2  0
  8  7  1  0
 23  8  1  0
  9 10  2  0
  9 14  1  0
  9 23  1  0
 10 11  1  0
 11 12  2  0
 12 13  1  0
 13 14  2  0
 13 21  1  0
 15 21  1  0
 17 18  1  0
 18 19  1  0
 19 20  1  0
 20 24  2  0
 21 25  2  0
M  END
$$$$
