
     RDKit          3D

 25 28  0  0  0  0  0  0  0  0999 V2000
  -20.7476   18.1273  -29.8063 C   0  0  0  0  0  0  0  0  0  0  0  0
  -19.2496   16.6624  -29.0935 C   0  0  0  0  0  0  0  0  0  0  0  0
  -19.1999   16.7586  -30.4579 C   0  0  0  0  0  0  0  0  0  0  0  0
  -20.2882   17.9496  -32.2470 C   0  0  1  0  0  0  0  0  0  0  0  0
  -19.3093   18.8926  -32.8778 C   0  0  0  0  0  0  0  0  0  0  0  0
  -22.6891   19.5140  -34.3762 C   0  0  0  0  0  0  0  0  0  0  0  0
  -22.6784   20.6191  -33.6471 C   0  0  0  0  0  0  0  0  0  0  0  0
  -23.2571   20.7237  -32.2924 C   0  0  0  0  0  0  0  0  0  0  0  0
  -22.6286   19.8955  -30.0181 C   0  0  0  0  0  0  0  0  0  0  0  0
  -23.5281   20.6527  -29.2719 C   0  0  0  0  0  0  0  0  0  0  0  0
  -23.6238   20.5965  -27.8971 C   0  0  0  0  0  0  0  0  0  0  0  0
  -22.7855   19.7473  -27.2238 C   0  0  0  0  0  0  0  0  0  0  0  0
  -21.8731   18.9734  -27.9185 C   0  0  0  0  0  0  0  0  0  0  0  0
  -21.7967   19.0470  -29.2941 C   0  0  0  0  0  0  0  0  0  0  0  0
  -20.2289   17.5247  -28.6472 C   0  0  0  0  0  0  0  0  0  0  0  0
  -20.4945   16.7910  -33.1737 C   0  0  0  0  0  0  0  0  0  0  0  0
  -18.2065   15.9041  -31.1058 C   0  0  0  0  0  0  0  0  0  0  0  0
  -16.9369   15.9644  -30.2767 C   0  0  0  0  0  0  0  0  0  0  0  0
  -17.1909   15.1506  -29.0087 C   0  0  0  0  0  0  0  0  0  0  0  0
  -18.3688   15.7659  -28.3342 C   0  0  0  0  0  0  0  0  0  0  0  0
  -20.8813   18.0043  -27.4488 C   0  0  0  0  0  0  0  0  0  0  0  0
  -20.1367   17.6715  -30.8748 N   0  0  0  0  0  0  0  0  0  0  0  0
  -22.5789   19.9934  -31.3565 O   0  0  0  0  0  0  0  0  0  0  0  0
  -18.5720   15.5003  -27.1413 O   0  0  0  0  0  0  0  0  0  0  0  0
  -20.6409   17.6596  -26.2878 O   0  0  0  0  0  0  0  0  0  0  0  0
 14  1  1  0
  1 15  2  0
  1 22  1  0
  3  2  2  0
 15  2  1  0
  2 20  1  0
  3 17  1  0
 22  3  1  0
  4  5  1  6
  4 16  1  0
 22  4  1  0
  7  6  2  0
  8  7  1  0
 23  8  1  0
  9 10  2  0
  9 14  1  0
  9 23  1  0
 10 11  1  0
 11 12  2  0
 12 13  1  0
 13 14  2  0
 13 21  1  0
 15 21  1  0
 17 18  1  0
 18 19  1  0
 19 20  1  0
 20 24  2  0
 21 25  2  0
M  END
$$$$
