
     RDKit          3D

 25 28  0  0  0  0  0  0  0  0999 V2000
  -22.2152   19.4172  -30.9239 C   0  0  0  0  0  0  0  0  0  0  0  0
  -23.3481   20.5736  -32.4330 C   0  0  0  0  0  0  0  0  0  0  0  0
  -22.3643   19.8431  -33.0428 C   0  0  0  0  0  0  0  0  0  0  0  0
  -20.6046   18.3037  -32.4620 C   0  0  1  0  0  0  0  0  0  0  0  0
  -20.8575   17.2800  -33.5266 C   0  0  0  0  0  0  0  0  0  0  0  0
  -17.8044   16.0730  -30.7130 C   0  0  0  0  0  0  0  0  0  0  0  0
  -18.8590   15.8550  -29.9428 C   0  0  0  0  0  0  0  0  0  0  0  0
  -19.3386   16.7944  -28.9091 C   0  0  0  0  0  0  0  0  0  0  0  0
  -21.2954   18.3436  -28.7535 C   0  0  0  0  0  0  0  0  0  0  0  0
  -21.4791   18.2995  -27.3738 C   0  0  0  0  0  0  0  0  0  0  0  0
  -22.4515   19.0138  -26.7054 C   0  0  0  0  0  0  0  0  0  0  0  0
  -23.2872   19.8136  -27.4396 C   0  0  0  0  0  0  0  0  0  0  0  0
  -23.1468   19.8922  -28.8137 C   0  0  0  0  0  0  0  0  0  0  0  0
  -22.1659   19.1682  -29.4595 C   0  0  0  0  0  0  0  0  0  0  0  0
  -23.2787   20.3231  -31.0787 C   0  0  0  0  0  0  0  0  0  0  0  0
  -19.2816   18.9519  -32.7327 C   0  0  0  0  0  0  0  0  0  0  0  0
  -22.2911   19.9892  -34.4954 C   0  0  0  0  0  0  0  0  0  0  0  0
  -23.7110   19.9785  -35.0310 C   0  0  0  0  0  0  0  0  0  0  0  0
  -24.3372   21.3237  -34.6667 C   0  0  0  0  0  0  0  0  0  0  0  0
  -24.2646   21.4417  -33.1829 C   0  0  0  0  0  0  0  0  0  0  0  0
  -23.8953   20.6561  -29.8134 C   0  0  0  0  0  0  0  0  0  0  0  0
  -21.6771   19.1361  -32.0875 N   0  0  0  0  0  0  0  0  0  0  0  0
  -20.3317   17.6237  -29.3506 O   0  0  0  0  0  0  0  0  0  0  0  0
  -24.9866   22.2767  -32.6206 O   0  0  0  0  0  0  0  0  0  0  0  0
  -24.8471   21.4218  -29.6337 O   0  0  0  0  0  0  0  0  0  0  0  0
 14  1  1  0
  1 15  2  0
  1 22  1  0
  3  2  2  0
 15  2  1  0
  2 20  1  0
  3 17  1  0
 22  3  1  0
  4  5  1  6
  4 16  1  0
 22  4  1  0
  7  6  2  0
  8  7  1  0
 23  8  1  0
  9 10  2  0
  9 14  1  0
  9 23  1  0
 10 11  1  0
 11 12  2  0
 12 13  1  0
 13 14  2  0
 13 21  1  0
 15 21  1  0
 17 18  1  0
 18 19  1  0
 19 20  1  0
 20 24  2  0
 21 25  2  0
M  END
$$$$
