
     RDKit          3D

 25 28  0  0  0  0  0  0  0  0999 V2000
  -22.3246   19.5123  -30.9184 C   0  0  0  0  0  0  0  0  0  0  0  0
  -23.4861   20.7190  -32.3652 C   0  0  0  0  0  0  0  0  0  0  0  0
  -22.5120   20.0129  -33.0178 C   0  0  0  0  0  0  0  0  0  0  0  0
  -20.7397   18.4580  -32.5233 C   0  0  1  0  0  0  0  0  0  0  0  0
  -21.0616   17.3003  -33.4186 C   0  0  0  0  0  0  0  0  0  0  0  0
  -17.1280   17.6509  -28.9392 C   0  0  0  0  0  0  0  0  0  0  0  0
  -18.3031   17.4263  -28.3721 C   0  0  0  0  0  0  0  0  0  0  0  0
  -19.4436   16.7833  -29.0552 C   0  0  0  0  0  0  0  0  0  0  0  0
  -21.3648   18.3643  -28.8041 C   0  0  0  0  0  0  0  0  0  0  0  0
  -21.5239   18.2708  -27.4238 C   0  0  0  0  0  0  0  0  0  0  0  0
  -22.4855   18.9585  -26.7135 C   0  0  0  0  0  0  0  0  0  0  0  0
  -23.3354   19.7820  -27.4038 C   0  0  0  0  0  0  0  0  0  0  0  0
  -23.2196   19.9098  -28.7766 C   0  0  0  0  0  0  0  0  0  0  0  0
  -22.2490   19.2115  -29.4649 C   0  0  0  0  0  0  0  0  0  0  0  0
  -23.3923   20.4207  -31.0220 C   0  0  0  0  0  0  0  0  0  0  0  0
  -19.5107   19.1350  -33.0477 C   0  0  0  0  0  0  0  0  0  0  0  0
  -22.4648   20.2108  -34.4653 C   0  0  0  0  0  0  0  0  0  0  0  0
  -23.8938   20.2159  -34.9759 C   0  0  0  0  0  0  0  0  0  0  0  0
  -24.5158   21.5458  -34.5530 C   0  0  0  0  0  0  0  0  0  0  0  0
  -24.4172   21.6111  -33.0674 C   0  0  0  0  0  0  0  0  0  0  0  0
  -23.9869   20.7070  -29.7351 C   0  0  0  0  0  0  0  0  0  0  0  0
  -21.8067   19.2740  -32.1006 N   0  0  0  0  0  0  0  0  0  0  0  0
  -20.4106   17.6684  -29.4434 O   0  0  0  0  0  0  0  0  0  0  0  0
  -25.1305   22.4239  -32.4631 O   0  0  0  0  0  0  0  0  0  0  0  0
  -24.9367   21.4636  -29.5115 O   0  0  0  0  0  0  0  0  0  0  0  0
 14  1  1  0
  1 15  2  0
  1 22  1  0
  3  2  2  0
 15  2  1  0
  2 20  1  0
  3 17  1  0
 22  3  1  0
  4  5  1  6
  4 16  1  0
 22  4  1  0
  7  6  2  0
  8  7  1  0
 23  8  1  0
  9 10  2  0
  9 14  1  0
  9 23  1  0
 10 11  1  0
 11 12  2  0
 12 13  1  0
 13 14  2  0
 13 21  1  0
 15 21  1  0
 17 18  1  0
 18 19  1  0
 19 20  1  0
 20 24  2  0
 21 25  2  0
M  END
$$$$
