
     RDKit          3D

 31 35  0  0  0  0  0  0  0  0999 V2000
   15.3847   77.2359   14.1338 C   0  0  0  0  0  0  0  0  0  0  0  0
   15.6361   77.8441   15.3431 C   0  0  0  0  0  0  0  0  0  0  0  0
   15.6260   77.1367   16.5128 C   0  0  0  0  0  0  0  0  0  0  0  0
   14.8267   73.7792   15.2151 C   0  0  0  0  0  0  0  0  0  0  0  0
   14.8135   73.0501   16.4022 C   0  0  0  0  0  0  0  0  0  0  0  0
   15.0655   73.6771   17.5897 C   0  0  0  0  0  0  0  0  0  0  0  0
   15.3314   75.0218   17.6095 C   0  0  0  0  0  0  0  0  0  0  0  0
   13.2988   73.0671   13.4091 C   0  0  0  0  0  0  0  0  0  0  0  0
   12.9701   72.1798   12.3870 C   0  0  0  0  0  0  0  0  0  0  0  0
   10.7240   72.9394   12.3785 C   0  0  0  0  0  0  0  0  0  0  0  0
    9.3633   72.8715   11.8334 C   0  0  0  0  0  0  0  0  0  0  0  0
    6.8763   73.1034   12.2460 C   0  0  2  0  0  0  0  0  0  0  0  0
    6.0204   73.5668   13.3530 C   0  0  0  0  0  0  0  0  0  0  0  0
   11.4969   75.5316   15.4713 C   0  0  0  0  0  0  0  0  0  0  0  0
   16.3351   70.1214   12.6092 C   0  0  0  0  0  0  0  0  0  0  0  0
   17.3071   70.6136   13.6541 C   0  0  0  0  0  0  0  0  0  0  0  0
   15.3518   75.7754   16.4373 C   0  0  0  0  0  0  0  0  0  0  0  0
   15.0975   75.1530   15.2251 C   0  0  0  0  0  0  0  0  0  0  0  0
   15.1165   75.9046   14.0597 C   0  0  0  0  0  0  0  0  0  0  0  0
   14.5997   73.1412   13.9691 N   0  0  0  0  0  0  0  0  0  0  0  0
   11.7119   72.1553   11.9219 N   0  0  0  0  0  0  0  0  0  0  0  0
    8.2813   73.7635   12.2434 C   0  0  2  0  0  0  0  0  0  0  0  0
    7.2223   74.0358   11.1409 C   0  0  0  0  0  0  0  0  0  0  0  0
    6.0252   74.8038   13.6564 O   0  0  0  0  0  0  0  0  0  0  0  0
    5.2342   72.6820   14.0425 O   0  0  0  0  0  0  0  0  0  0  0  0
    9.1263   71.9957   10.9681 O   0  0  0  0  0  0  0  0  0  0  0  0
   11.0651   73.7857   13.3629 N   0  0  0  0  0  0  0  0  0  0  0  0
   12.2874   73.8900   13.8964 C   0  0  0  0  0  0  0  0  0  0  0  0
   12.5796   74.7870   14.9123 O   0  0  0  0  0  0  0  0  0  0  0  0
   15.6874   72.5378   13.2299 C   0  0  0  0  0  0  0  0  0  0  0  0
   15.8677   71.0705   13.6513 C   0  0  1  0  0  0  0  0  0  0  0  0
  1  2  2  0
 19  1  1  0
  3  2  1  0
 17  3  2  0
  4  5  2  0
  4 18  1  0
 20  4  1  0
  5  6  1  0
  6  7  2  0
 17  7  1  0
  8  9  2  0
 20  8  1  0
  8 28  1  0
  9 21  1  0
 10 11  1  0
 21 10  2  0
 27 10  1  0
 22 11  1  6
 11 26  2  0
 12 13  1  1
 22 12  1  0
 23 12  1  0
 13 24  2  0
 13 25  1  0
 29 14  1  0
 16 15  1  0
 31 15  1  0
 31 16  1  0
 18 17  1  0
 18 19  2  0
 30 20  1  0
 22 23  1  0
 28 27  2  0
 28 29  1  0
 31 30  1  6
M  END
$$$$
