
     RDKit          3D

 31 35  0  0  0  0  0  0  0  0999 V2000
   11.0882   79.4300   16.5614 C   0  0  0  0  0  0  0  0  0  0  0  0
   11.3272   80.6594   15.9897 C   0  0  0  0  0  0  0  0  0  0  0  0
   11.4393   80.8063   14.6353 C   0  0  0  0  0  0  0  0  0  0  0  0
   10.9352   77.3108   13.5756 C   0  0  0  0  0  0  0  0  0  0  0  0
   11.0486   77.4506   12.1942 C   0  0  0  0  0  0  0  0  0  0  0  0
   11.2867   78.6816   11.6511 C   0  0  0  0  0  0  0  0  0  0  0  0
   11.4124   79.7758   12.4673 C   0  0  0  0  0  0  0  0  0  0  0  0
   10.2121   75.9398   15.4994 C   0  0  0  0  0  0  0  0  0  0  0  0
    8.8695   75.7872   15.8369 C   0  0  0  0  0  0  0  0  0  0  0  0
    9.4058   75.6943   18.1446 C   0  0  0  0  0  0  0  0  0  0  0  0
    8.9791   75.5646   19.5426 C   0  0  0  0  0  0  0  0  0  0  0  0
    7.2894   76.1293   21.3413 C   0  0  2  0  0  0  0  0  0  0  0  0
    5.9860   76.8153   21.3986 C   0  0  0  0  0  0  0  0  0  0  0  0
   13.4159   76.0321   17.3169 C   0  0  0  0  0  0  0  0  0  0  0  0
   11.6607   72.4100   13.7307 C   0  0  0  0  0  0  0  0  0  0  0  0
   12.8528   73.2819   13.4178 C   0  0  0  0  0  0  0  0  0  0  0  0
   11.3027   79.6651   13.8523 C   0  0  0  0  0  0  0  0  0  0  0  0
   11.0618   78.4225   14.4175 C   0  0  0  0  0  0  0  0  0  0  0  0
   10.9546   78.3137   15.7960 C   0  0  0  0  0  0  0  0  0  0  0  0
   10.6561   76.0477   14.1567 N   0  0  0  0  0  0  0  0  0  0  0  0
    8.5292   75.6725   17.1296 N   0  0  0  0  0  0  0  0  0  0  0  0
    7.5806   75.4869   19.9585 C   0  0  2  0  0  0  0  0  0  0  0  0
    7.3391   74.6467   21.2418 C   0  0  0  0  0  0  0  0  0  0  0  0
    5.0151   76.3465   20.7205 O   0  0  0  0  0  0  0  0  0  0  0  0
    5.8228   77.9369   22.1679 O   0  0  0  0  0  0  0  0  0  0  0  0
    9.8720   75.5187   20.4216 O   0  0  0  0  0  0  0  0  0  0  0  0
   10.6931   75.8425   17.7943 N   0  0  0  0  0  0  0  0  0  0  0  0
   11.1377   75.9654   16.5387 C   0  0  0  0  0  0  0  0  0  0  0  0
   12.4827   76.1182   16.2394 O   0  0  0  0  0  0  0  0  0  0  0  0
   10.8218   74.8249   13.4011 C   0  0  0  0  0  0  0  0  0  0  0  0
   11.6745   73.8210   14.1936 C   0  0  1  0  0  0  0  0  0  0  0  0
  1  2  2  0
 19  1  1  0
  3  2  1  0
 17  3  2  0
  4  5  2  0
  4 18  1  0
 20  4  1  0
  5  6  1  0
  6  7  2  0
 17  7  1  0
  8  9  2  0
 20  8  1  0
  8 28  1  0
  9 21  1  0
 10 11  1  0
 21 10  2  0
 27 10  1  0
 22 11  1  1
 11 26  2  0
 12 13  1  6
 22 12  1  0
 23 12  1  0
 13 24  2  0
 13 25  1  0
 29 14  1  0
 16 15  1  0
 31 15  1  0
 31 16  1  0
 18 17  1  0
 18 19  2  0
 30 20  1  0
 22 23  1  0
 28 27  2  0
 28 29  1  0
 31 30  1  6
M  END
$$$$
