
     RDKit          3D

 31 35  0  0  0  0  0  0  0  0999 V2000
    6.4711   69.8006   18.5950 C   0  0  0  0  0  0  0  0  0  0  0  0
    5.5993   68.8862   19.1421 C   0  0  0  0  0  0  0  0  0  0  0  0
    5.5240   68.6927   20.4932 C   0  0  0  0  0  0  0  0  0  0  0  0
    8.0638   71.1159   21.6220 C   0  0  0  0  0  0  0  0  0  0  0  0
    7.9947   70.9251   23.0002 C   0  0  0  0  0  0  0  0  0  0  0  0
    7.1215   70.0109   23.5187 C   0  0  0  0  0  0  0  0  0  0  0  0
    6.3153   69.2847   22.6810 C   0  0  0  0  0  0  0  0  0  0  0  0
    8.7682   73.4657   21.3291 C   0  0  0  0  0  0  0  0  0  0  0  0
    9.8403   74.3469   21.4473 C   0  0  0  0  0  0  0  0  0  0  0  0
    8.3690   76.1715   21.8055 C   0  0  0  0  0  0  0  0  0  0  0  0
    8.1586   77.6017   22.0574 C   0  0  0  0  0  0  0  0  0  0  0  0
    6.7961   79.7249   21.8449 C   0  0  2  0  0  0  0  0  0  0  0  0
    5.5506   80.1259   21.1662 C   0  0  0  0  0  0  0  0  0  0  0  0
    5.0957   73.7056   21.5325 C   0  0  0  0  0  0  0  0  0  0  0  0
   12.3617   70.6107   20.4607 C   0  0  0  0  0  0  0  0  0  0  0  0
   12.5447   72.1077   20.3923 C   0  0  0  0  0  0  0  0  0  0  0  0
    6.3628   69.4556   21.2986 C   0  0  0  0  0  0  0  0  0  0  0  0
    7.2442   70.3790   20.7582 C   0  0  0  0  0  0  0  0  0  0  0  0
    7.2915   70.5467   19.3823 C   0  0  0  0  0  0  0  0  0  0  0  0
    8.9399   72.0825   21.0662 N   0  0  0  0  0  0  0  0  0  0  0  0
    9.5965   75.6459   21.6777 N   0  0  0  0  0  0  0  0  0  0  0  0
    6.8394   78.2138   22.1978 C   0  0  2  0  0  0  0  0  0  0  0  0
    6.7608   79.3273   23.2770 C   0  0  0  0  0  0  0  0  0  0  0  0
    4.4888   79.4579   21.3865 O   0  0  0  0  0  0  0  0  0  0  0  0
    5.5364   81.1982   20.3140 O   0  0  0  0  0  0  0  0  0  0  0  0
    9.1740   78.3306   22.1560 O   0  0  0  0  0  0  0  0  0  0  0  0
    7.3526   75.3028   21.6878 N   0  0  0  0  0  0  0  0  0  0  0  0
    7.4860   73.9915   21.4591 C   0  0  0  0  0  0  0  0  0  0  0  0
    6.3953   73.1427   21.3493 O   0  0  0  0  0  0  0  0  0  0  0  0
   10.0352   71.6908   20.2057 C   0  0  0  0  0  0  0  0  0  0  0  0
   11.3182   71.5004   21.0308 C   0  0  1  0  0  0  0  0  0  0  0  0
  1  2  2  0
 19  1  1  0
  3  2  1  0
 17  3  2  0
  4  5  2  0
  4 18  1  0
 20  4  1  0
  5  6  1  0
  6  7  2  0
 17  7  1  0
  8  9  2  0
 20  8  1  0
  8 28  1  0
  9 21  1  0
 10 11  1  0
 21 10  2  0
 27 10  1  0
 22 11  1  1
 11 26  2  0
 12 13  1  6
 22 12  1  0
 23 12  1  0
 13 24  2  0
 13 25  1  0
 29 14  1  0
 16 15  1  0
 31 15  1  0
 31 16  1  0
 18 17  1  0
 18 19  2  0
 30 20  1  0
 22 23  1  0
 28 27  2  0
 28 29  1  0
 31 30  1  6
M  END
$$$$
