
     RDKit          3D

 31 35  0  0  0  0  0  0  0  0999 V2000
    8.7514   78.6922   14.5503 C   0  0  0  0  0  0  0  0  0  0  0  0
    8.0955   79.6968   15.2256 C   0  0  0  0  0  0  0  0  0  0  0  0
    8.7713   80.5838   16.0162 C   0  0  0  0  0  0  0  0  0  0  0  0
   12.2106   79.3282   15.5794 C   0  0  0  0  0  0  0  0  0  0  0  0
   12.9078   80.2270   16.3835 C   0  0  0  0  0  0  0  0  0  0  0  0
   12.2337   81.2151   17.0440 C   0  0  0  0  0  0  0  0  0  0  0  0
   10.8732   81.3195   16.9127 C   0  0  0  0  0  0  0  0  0  0  0  0
   12.2701   77.0787   14.5596 C   0  0  0  0  0  0  0  0  0  0  0  0
   12.0120   76.6645   13.2551 C   0  0  0  0  0  0  0  0  0  0  0  0
   11.0784   74.6276   14.0308 C   0  0  0  0  0  0  0  0  0  0  0  0
   10.4486   73.3322   13.7507 C   0  0  0  0  0  0  0  0  0  0  0  0
   10.6432   70.9405   14.5575 C   0  0  2  0  0  0  0  0  0  0  0  0
   11.0446   70.2687   15.8067 C   0  0  0  0  0  0  0  0  0  0  0  0
   11.7694   75.6902   17.9373 C   0  0  0  0  0  0  0  0  0  0  0  0
   16.6851   77.9509   15.0804 C   0  0  0  0  0  0  0  0  0  0  0  0
   16.1027   78.8522   16.1423 C   0  0  0  0  0  0  0  0  0  0  0  0
   10.1505   80.4346   16.1144 C   0  0  0  0  0  0  0  0  0  0  0  0
   10.8209   79.4268   15.4388 C   0  0  0  0  0  0  0  0  0  0  0  0
   10.1002   78.5460   14.6462 C   0  0  0  0  0  0  0  0  0  0  0  0
   12.8953   78.3159   14.8601 N   0  0  0  0  0  0  0  0  0  0  0  0
   11.4342   75.4711   13.0504 N   0  0  0  0  0  0  0  0  0  0  0  0
   10.0815   72.3694   14.7865 C   0  0  2  0  0  0  0  0  0  0  0  0
    9.2034   71.1912   14.2845 C   0  0  0  0  0  0  0  0  0  0  0  0
   11.3878   70.9819   16.8045 O   0  0  0  0  0  0  0  0  0  0  0  0
   11.0480   68.9015   15.8918 O   0  0  0  0  0  0  0  0  0  0  0  0
   10.2166   73.0451   12.5524 O   0  0  0  0  0  0  0  0  0  0  0  0
   11.3371   75.0489   15.2787 N   0  0  0  0  0  0  0  0  0  0  0  0
   11.9078   76.2176   15.5915 C   0  0  0  0  0  0  0  0  0  0  0  0
   12.1478   76.5988   16.9027 O   0  0  0  0  0  0  0  0  0  0  0  0
   14.2583   78.5082   14.4142 C   0  0  0  0  0  0  0  0  0  0  0  0
   15.2387   77.8579   15.4036 C   0  0  1  0  0  0  0  0  0  0  0  0
  1  2  2  0
 19  1  1  0
  3  2  1  0
 17  3  2  0
  4  5  2  0
  4 18  1  0
 20  4  1  0
  5  6  1  0
  6  7  2  0
 17  7  1  0
  8  9  2  0
 20  8  1  0
  8 28  1  0
  9 21  1  0
 10 11  1  0
 21 10  2  0
 27 10  1  0
 22 11  1  6
 11 26  2  0
 12 13  1  1
 22 12  1  0
 23 12  1  0
 13 24  2  0
 13 25  1  0
 29 14  1  0
 16 15  1  0
 31 15  1  0
 31 16  1  0
 18 17  1  0
 18 19  2  0
 30 20  1  0
 22 23  1  0
 28 27  2  0
 28 29  1  0
 31 30  1  6
M  END
$$$$
