
     RDKit          3D

 31 35  0  0  0  0  0  0  0  0999 V2000
    9.3580   75.2568   24.7351 C   0  0  0  0  0  0  0  0  0  0  0  0
    8.8458   76.2464   25.5438 C   0  0  0  0  0  0  0  0  0  0  0  0
    8.1040   77.2736   25.0308 C   0  0  0  0  0  0  0  0  0  0  0  0
    8.1402   76.3586   21.4591 C   0  0  0  0  0  0  0  0  0  0  0  0
    7.3859   77.4020   20.9271 C   0  0  0  0  0  0  0  0  0  0  0  0
    6.8891   78.3725   21.7507 C   0  0  0  0  0  0  0  0  0  0  0  0
    7.1337   78.3161   23.0984 C   0  0  0  0  0  0  0  0  0  0  0  0
    7.9700   74.0766   20.5280 C   0  0  0  0  0  0  0  0  0  0  0  0
    6.5913   73.9480   20.6780 C   0  0  0  0  0  0  0  0  0  0  0  0
    6.7137   71.6127   20.2864 C   0  0  0  0  0  0  0  0  0  0  0  0
    6.0491   70.3106   20.1589 C   0  0  0  0  0  0  0  0  0  0  0  0
    4.3945   69.4782   21.8848 C   0  0  2  0  0  0  0  0  0  0  0  0
    3.1845   70.0069   22.5400 C   0  0  0  0  0  0  0  0  0  0  0  0
   10.8872   72.1617   20.9055 C   0  0  0  0  0  0  0  0  0  0  0  0
   10.3407   77.0623   17.8593 C   0  0  0  0  0  0  0  0  0  0  0  0
   10.5628   75.6388   17.4082 C   0  0  0  0  0  0  0  0  0  0  0  0
    7.8843   77.2834   23.6576 C   0  0  0  0  0  0  0  0  0  0  0  0
    8.3952   76.2921   22.8344 C   0  0  0  0  0  0  0  0  0  0  0  0
    9.1433   75.2662   23.3922 C   0  0  0  0  0  0  0  0  0  0  0  0
    8.6373   75.3243   20.6260 N   0  0  0  0  0  0  0  0  0  0  0  0
    6.0302   72.7359   20.5522 N   0  0  0  0  0  0  0  0  0  0  0  0
    4.6411   70.0854   20.4776 C   0  0  2  0  0  0  0  0  0  0  0  0
    4.2635   68.5952   20.6959 C   0  0  0  0  0  0  0  0  0  0  0  0
    2.7548   71.1566   22.2000 O   0  0  0  0  0  0  0  0  0  0  0  0
    2.5346   69.2738   23.4974 O   0  0  0  0  0  0  0  0  0  0  0  0
    6.7366   69.3438   19.7531 O   0  0  0  0  0  0  0  0  0  0  0  0
    8.0402   71.7621   20.1463 N   0  0  0  0  0  0  0  0  0  0  0  0
    8.6975   72.9224   20.2522 C   0  0  0  0  0  0  0  0  0  0  0  0
   10.0724   73.0130   20.0989 O   0  0  0  0  0  0  0  0  0  0  0  0
    9.8469   75.5045   19.8526 C   0  0  0  0  0  0  0  0  0  0  0  0
    9.5038   75.9766   18.4305 C   0  0  1  0  0  0  0  0  0  0  0  0
  1  2  2  0
 19  1  1  0
  3  2  1  0
 17  3  2  0
  4  5  2  0
  4 18  1  0
 20  4  1  0
  5  6  1  0
  6  7  2  0
 17  7  1  0
  8  9  2  0
 20  8  1  0
  8 28  1  0
  9 21  1  0
 10 11  1  0
 21 10  2  0
 27 10  1  0
 22 11  1  1
 11 26  2  0
 12 13  1  6
 22 12  1  0
 23 12  1  0
 13 24  2  0
 13 25  1  0
 29 14  1  0
 16 15  1  0
 31 15  1  0
 31 16  1  0
 18 17  1  0
 18 19  2  0
 30 20  1  0
 22 23  1  0
 28 27  2  0
 28 29  1  0
 31 30  1  1
M  END
$$$$
