
     RDKit          3D

 31 35  0  0  0  0  0  0  0  0999 V2000
   14.8118   47.8650    7.4131 C   0  0  0  0  0  0  0  0  0  0  0  0
   15.9317   47.1301    7.0946 C   0  0  0  0  0  0  0  0  0  0  0  0
   16.7150   46.5680    8.0636 C   0  0  0  0  0  0  0  0  0  0  0  0
   14.8877   47.6678   11.0716 C   0  0  0  0  0  0  0  0  0  0  0  0
   15.6804   47.0993   12.0662 C   0  0  0  0  0  0  0  0  0  0  0  0
   16.7874   46.3749   11.7243 C   0  0  0  0  0  0  0  0  0  0  0  0
   17.1142   46.2088   10.4034 C   0  0  0  0  0  0  0  0  0  0  0  0
   12.4309   47.8091   11.2892 C   0  0  0  0  0  0  0  0  0  0  0  0
   11.5507   48.1246   10.2569 C   0  0  0  0  0  0  0  0  0  0  0  0
    9.9400   46.5988   11.0934 C   0  0  0  0  0  0  0  0  0  0  0  0
    8.6233   45.9595   10.9894 C   0  0  0  0  0  0  0  0  0  0  0  0
    7.6594   43.6371   11.2844 C   0  0  2  0  0  0  0  0  0  0  0  0
    7.9796   42.4475   12.0936 C   0  0  0  0  0  0  0  0  0  0  0  0
   12.3704   45.6322   14.2614 C   0  0  0  0  0  0  0  0  0  0  0  0
   14.5934   52.0862   11.0799 C   0  0  0  0  0  0  0  0  0  0  0  0
   15.8063   51.2885   11.4939 C   0  0  0  0  0  0  0  0  0  0  0  0
   16.3388   46.7656    9.3879 C   0  0  0  0  0  0  0  0  0  0  0  0
   15.2132   47.5036    9.7196 C   0  0  0  0  0  0  0  0  0  0  0  0
   14.4437   48.0584    8.7080 C   0  0  0  0  0  0  0  0  0  0  0  0
   13.7171   48.3957   11.4042 N   0  0  0  0  0  0  0  0  0  0  0  0
   10.3578   47.5128   10.2049 N   0  0  0  0  0  0  0  0  0  0  0  0
    8.1291   44.9644   11.9382 C   0  0  2  0  0  0  0  0  0  0  0  0
    6.6305   44.5985   11.7612 C   0  0  0  0  0  0  0  0  0  0  0  0
    8.7257   42.5836   13.1168 O   0  0  0  0  0  0  0  0  0  0  0  0
    7.4831   41.2178   11.7504 O   0  0  0  0  0  0  0  0  0  0  0  0
    7.8890   46.2926   10.0293 O   0  0  0  0  0  0  0  0  0  0  0  0
   10.8053   46.3117   12.0785 N   0  0  0  0  0  0  0  0  0  0  0  0
   12.0157   46.8630   12.2219 C   0  0  0  0  0  0  0  0  0  0  0  0
   12.8656   46.5264   13.2642 O   0  0  0  0  0  0  0  0  0  0  0  0
   13.7948   49.7648   11.8658 C   0  0  0  0  0  0  0  0  0  0  0  0
   14.6048   50.6155   10.8741 C   0  0  1  0  0  0  0  0  0  0  0  0
  1  2  2  0
 19  1  1  0
  3  2  1  0
 17  3  2  0
  4  5  2  0
  4 18  1  0
 20  4  1  0
  5  6  1  0
  6  7  2  0
 17  7  1  0
  8  9  2  0
 20  8  1  0
  8 28  1  0
  9 21  1  0
 10 11  1  0
 21 10  2  0
 27 10  1  0
 22 11  1  6
 11 26  2  0
 12 13  1  1
 22 12  1  0
 23 12  1  0
 13 24  2  0
 13 25  1  0
 29 14  1  0
 16 15  1  0
 31 15  1  0
 31 16  1  0
 18 17  1  0
 18 19  2  0
 30 20  1  0
 22 23  1  0
 28 27  2  0
 28 29  1  0
 31 30  1  1
M  END
$$$$
