
     RDKit          3D

 31 35  0  0  0  0  0  0  0  0999 V2000
    1.7418   59.2560   31.4024 C   0  0  0  0  0  0  0  0  0  0  0  0
    2.3841   59.9237   32.4207 C   0  0  0  0  0  0  0  0  0  0  0  0
    3.6496   59.5834   32.8097 C   0  0  0  0  0  0  0  0  0  0  0  0
    4.3050   56.8072   30.4732 C   0  0  0  0  0  0  0  0  0  0  0  0
    5.5945   56.4527   30.8633 C   0  0  0  0  0  0  0  0  0  0  0  0
    6.2103   57.1306   31.8774 C   0  0  0  0  0  0  0  0  0  0  0  0
    5.5575   58.1582   32.5075 C   0  0  0  0  0  0  0  0  0  0  0  0
    2.7831   55.0492   29.6385 C   0  0  0  0  0  0  0  0  0  0  0  0
    1.3971   55.1769   29.5880 C   0  0  0  0  0  0  0  0  0  0  0  0
    1.1146   52.8731   30.0723 C   0  0  0  0  0  0  0  0  0  0  0  0
    0.2322   51.7233   30.3016 C   0  0  0  0  0  0  0  0  0  0  0  0
    0.6073   49.3544   29.4912 C   0  0  2  0  0  0  0  0  0  0  0  0
    1.7387   48.4105   29.4513 C   0  0  0  0  0  0  0  0  0  0  0  0
    5.1797   52.3174   30.2558 C   0  0  0  0  0  0  0  0  0  0  0  0
    4.6337   55.1530   25.9891 C   0  0  0  0  0  0  0  0  0  0  0  0
    5.6413   56.2567   26.2025 C   0  0  0  0  0  0  0  0  0  0  0  0
    4.2675   58.5346   32.1374 C   0  0  0  0  0  0  0  0  0  0  0  0
    3.6301   57.8556   31.1106 C   0  0  0  0  0  0  0  0  0  0  0  0
    2.3459   58.2302   30.7447 C   0  0  0  0  0  0  0  0  0  0  0  0
    3.6610   56.1377   29.4017 N   0  0  0  0  0  0  0  0  0  0  0  0
    0.6326   54.0960   29.8046 N   0  0  0  0  0  0  0  0  0  0  0  0
    0.7150   50.3877   30.6446 C   0  0  2  0  0  0  0  0  0  0  0  0
   -0.3747   49.2822   30.6051 C   0  0  0  0  0  0  0  0  0  0  0  0
    1.5093   47.1883   29.1761 O   0  0  0  0  0  0  0  0  0  0  0  0
    3.0139   48.8412   29.7058 O   0  0  0  0  0  0  0  0  0  0  0  0
   -1.0034   51.9078   30.1949 O   0  0  0  0  0  0  0  0  0  0  0  0
    2.4526   52.7753   30.1158 N   0  0  0  0  0  0  0  0  0  0  0  0
    3.3032   53.7881   29.9155 C   0  0  0  0  0  0  0  0  0  0  0  0
    4.6786   53.6249   29.9757 O   0  0  0  0  0  0  0  0  0  0  0  0
    3.8835   56.5382   28.0293 C   0  0  0  0  0  0  0  0  0  0  0  0
    4.9240   55.6195   27.3688 C   0  0  1  0  0  0  0  0  0  0  0  0
  1  2  2  0
 19  1  1  0
  3  2  1  0
 17  3  2  0
  4  5  2  0
  4 18  1  0
 20  4  1  0
  5  6  1  0
  6  7  2  0
 17  7  1  0
  8  9  2  0
 20  8  1  0
  8 28  1  0
  9 21  1  0
 10 11  1  0
 21 10  2  0
 27 10  1  0
 22 11  1  6
 11 26  2  0
 12 13  1  1
 22 12  1  0
 23 12  1  0
 13 24  2  0
 13 25  1  0
 29 14  1  0
 16 15  1  0
 31 15  1  0
 31 16  1  0
 18 17  1  0
 18 19  2  0
 30 20  1  0
 22 23  1  0
 28 27  2  0
 28 29  1  0
 31 30  1  6
M  END
$$$$
