
     RDKit          3D

 31 35  0  0  0  0  0  0  0  0999 V2000
   10.7867   82.0366   16.6482 C   0  0  0  0  0  0  0  0  0  0  0  0
   10.1695   82.7041   17.6820 C   0  0  0  0  0  0  0  0  0  0  0  0
    8.8685   82.4521   18.0175 C   0  0  0  0  0  0  0  0  0  0  0  0
    8.0610   79.8623   15.5202 C   0  0  0  0  0  0  0  0  0  0  0  0
    6.7344   79.5993   15.8543 C   0  0  0  0  0  0  0  0  0  0  0  0
    6.1441   80.2758   16.8843 C   0  0  0  0  0  0  0  0  0  0  0  0
    6.8594   81.2109   17.5865 C   0  0  0  0  0  0  0  0  0  0  0  0
    9.6374   78.1200   14.7568 C   0  0  0  0  0  0  0  0  0  0  0  0
   10.6971   77.8154   13.9059 C   0  0  0  0  0  0  0  0  0  0  0  0
   11.4615   76.1216   15.3785 C   0  0  0  0  0  0  0  0  0  0  0  0
   12.4259   75.0654   15.7066 C   0  0  0  0  0  0  0  0  0  0  0  0
   13.5444   73.0698   14.6222 C   0  0  2  0  0  0  0  0  0  0  0  0
   13.8775   72.6540   13.2478 C   0  0  0  0  0  0  0  0  0  0  0  0
    7.8952   76.5617   17.5038 C   0  0  0  0  0  0  0  0  0  0  0  0
    7.2824   81.4182   11.8806 C   0  0  0  0  0  0  0  0  0  0  0  0
    6.3952   80.2045   11.7437 C   0  0  0  0  0  0  0  0  0  0  0  0
    8.1881   81.4936   17.2744 C   0  0  0  0  0  0  0  0  0  0  0  0
    8.7999   80.8155   16.2317 C   0  0  0  0  0  0  0  0  0  0  0  0
   10.1216   81.0991   15.9212 C   0  0  0  0  0  0  0  0  0  0  0  0
    8.7016   79.1482   14.4759 N   0  0  0  0  0  0  0  0  0  0  0  0
   11.5526   76.8409   14.2500 N   0  0  0  0  0  0  0  0  0  0  0  0
   13.4713   74.6110   14.7926 C   0  0  2  0  0  0  0  0  0  0  0  0
   14.5726   73.7427   15.4590 C   0  0  0  0  0  0  0  0  0  0  0  0
   14.4154   73.5011   12.4634 O   0  0  0  0  0  0  0  0  0  0  0  0
   13.6129   71.3789   12.8228 O   0  0  0  0  0  0  0  0  0  0  0  0
   12.3396   74.5294   16.8367 O   0  0  0  0  0  0  0  0  0  0  0  0
   10.4325   76.4334   16.1819 N   0  0  0  0  0  0  0  0  0  0  0  0
    9.5251   77.3843   15.9331 C   0  0  0  0  0  0  0  0  0  0  0  0
    8.4808   77.6592   16.8026 O   0  0  0  0  0  0  0  0  0  0  0  0
    8.4274   79.4493   13.0875 C   0  0  0  0  0  0  0  0  0  0  0  0
    7.2391   80.4183   12.9777 C   0  0  1  0  0  0  0  0  0  0  0  0
  1  2  2  0
 19  1  1  0
  3  2  1  0
 17  3  2  0
  4  5  2  0
  4 18  1  0
 20  4  1  0
  5  6  1  0
  6  7  2  0
 17  7  1  0
  8  9  2  0
 20  8  1  0
  8 28  1  0
  9 21  1  0
 10 11  1  0
 21 10  2  0
 27 10  1  0
 22 11  1  1
 11 26  2  0
 12 13  1  6
 22 12  1  0
 23 12  1  0
 13 24  2  0
 13 25  1  0
 29 14  1  0
 16 15  1  0
 31 15  1  0
 31 16  1  0
 18 17  1  0
 18 19  2  0
 30 20  1  0
 22 23  1  0
 28 27  2  0
 28 29  1  0
 31 30  1  6
M  END
$$$$
