
     RDKit          3D

 31 35  0  0  0  0  0  0  0  0999 V2000
    3.1544   60.5604   29.3769 C   0  0  0  0  0  0  0  0  0  0  0  0
    3.3856   61.0954   28.1295 C   0  0  0  0  0  0  0  0  0  0  0  0
    4.0924   60.4114   27.1802 C   0  0  0  0  0  0  0  0  0  0  0  0
    4.8536   57.3295   29.0560 C   0  0  0  0  0  0  0  0  0  0  0  0
    5.5757   56.6252   28.0951 C   0  0  0  0  0  0  0  0  0  0  0  0
    5.7923   57.1782   26.8646 C   0  0  0  0  0  0  0  0  0  0  0  0
    5.2976   58.4243   26.5788 C   0  0  0  0  0  0  0  0  0  0  0  0
    3.4692   55.9161   30.5356 C   0  0  0  0  0  0  0  0  0  0  0  0
    2.3911   56.2829   31.3375 C   0  0  0  0  0  0  0  0  0  0  0  0
    1.2835   54.2381   30.8745 C   0  0  0  0  0  0  0  0  0  0  0  0
    0.1281   53.3516   31.0540 C   0  0  0  0  0  0  0  0  0  0  0  0
   -2.3034   52.8666   31.5658 C   0  0  2  0  0  0  0  0  0  0  0  0
   -3.0894   52.5186   32.7633 C   0  0  0  0  0  0  0  0  0  0  0  0
    4.3753   52.9998   28.4713 C   0  0  0  0  0  0  0  0  0  0  0  0
    7.7222   56.3089   32.4476 C   0  0  0  0  0  0  0  0  0  0  0  0
    6.7262   55.2053   32.7107 C   0  0  0  0  0  0  0  0  0  0  0  0
    4.5713   59.1509   27.5206 C   0  0  0  0  0  0  0  0  0  0  0  0
    4.3441   58.6028   28.7734 C   0  0  0  0  0  0  0  0  0  0  0  0
    3.6226   59.3278   29.7101 C   0  0  0  0  0  0  0  0  0  0  0  0
    4.5901   56.7599   30.3277 N   0  0  0  0  0  0  0  0  0  0  0  0
    1.3577   55.4377   31.4703 N   0  0  0  0  0  0  0  0  0  0  0  0
   -1.0226   53.6808   31.8920 C   0  0  2  0  0  0  0  0  0  0  0  0
   -2.2274   54.2826   31.1192 C   0  0  0  0  0  0  0  0  0  0  0  0
   -3.0359   53.2870   33.7776 O   0  0  0  0  0  0  0  0  0  0  0  0
   -3.8634   51.3885   32.7838 O   0  0  0  0  0  0  0  0  0  0  0  0
    0.1385   52.2528   30.4503 O   0  0  0  0  0  0  0  0  0  0  0  0
    2.3341   53.9072   30.1073 N   0  0  0  0  0  0  0  0  0  0  0  0
    3.4116   54.6747   29.9088 C   0  0  0  0  0  0  0  0  0  0  0  0
    4.4685   54.2761   29.1049 O   0  0  0  0  0  0  0  0  0  0  0  0
    5.4526   57.0263   31.4585 C   0  0  0  0  0  0  0  0  0  0  0  0
    6.6410   56.0513   31.4626 C   0  0  1  0  0  0  0  0  0  0  0  0
  1  2  2  0
 19  1  1  0
  3  2  1  0
 17  3  2  0
  4  5  2  0
  4 18  1  0
 20  4  1  0
  5  6  1  0
  6  7  2  0
 17  7  1  0
  8  9  2  0
 20  8  1  0
  8 28  1  0
  9 21  1  0
 10 11  1  0
 21 10  2  0
 27 10  1  0
 22 11  1  6
 11 26  2  0
 12 13  1  1
 22 12  1  0
 23 12  1  0
 13 24  2  0
 13 25  1  0
 29 14  1  0
 16 15  1  0
 31 15  1  0
 31 16  1  0
 18 17  1  0
 18 19  2  0
 30 20  1  0
 22 23  1  0
 28 27  2  0
 28 29  1  0
 31 30  1  1
M  END
$$$$
