
     RDKit          3D

 31 35  0  0  0  0  0  0  0  0999 V2000
   10.8542   76.5852   17.0846 C   0  0  0  0  0  0  0  0  0  0  0  0
    9.9738   77.3693   16.3737 C   0  0  0  0  0  0  0  0  0  0  0  0
    9.8215   77.2255   15.0229 C   0  0  0  0  0  0  0  0  0  0  0  0
   12.2270   74.5009   14.4012 C   0  0  0  0  0  0  0  0  0  0  0  0
   12.0792   74.3476   13.0245 C   0  0  0  0  0  0  0  0  0  0  0  0
   11.1991   75.1387   12.3414 C   0  0  0  0  0  0  0  0  0  0  0  0
   10.4635   76.0805   13.0130 C   0  0  0  0  0  0  0  0  0  0  0  0
   14.4156   74.1058   15.4770 C   0  0  0  0  0  0  0  0  0  0  0  0
   15.2938   73.3311   16.2310 C   0  0  0  0  0  0  0  0  0  0  0  0
   16.9729   74.9990   16.0857 C   0  0  0  0  0  0  0  0  0  0  0  0
   18.3246   75.4706   16.4077 C   0  0  0  0  0  0  0  0  0  0  0  0
   20.3681   76.6499   15.4898 C   0  0  2  0  0  0  0  0  0  0  0  0
   20.6767   77.4829   14.3136 C   0  0  0  0  0  0  0  0  0  0  0  0
   14.4909   77.4378   13.9032 C   0  0  0  0  0  0  0  0  0  0  0  0
   12.6989   71.4361   17.9627 C   0  0  0  0  0  0  0  0  0  0  0  0
   13.4270   70.4395   17.0933 C   0  0  0  0  0  0  0  0  0  0  0  0
   10.5906   76.2550   14.3899 C   0  0  0  0  0  0  0  0  0  0  0  0
   11.4799   75.4600   15.0961 C   0  0  0  0  0  0  0  0  0  0  0  0
   11.6065   75.6360   16.4660 C   0  0  0  0  0  0  0  0  0  0  0  0
   13.1110   73.6682   15.1334 N   0  0  0  0  0  0  0  0  0  0  0  0
   16.5195   73.8062   16.4992 N   0  0  0  0  0  0  0  0  0  0  0  0
   18.8794   76.7319   15.9220 C   0  0  2  0  0  0  0  0  0  0  0  0
   20.0383   77.2978   16.7866 C   0  0  0  0  0  0  0  0  0  0  0  0
   19.8298   77.5425   13.3641 O   0  0  0  0  0  0  0  0  0  0  0  0
   21.8536   78.1803   14.2439 O   0  0  0  0  0  0  0  0  0  0  0  0
   19.0350   74.7433   17.1414 O   0  0  0  0  0  0  0  0  0  0  0  0
   16.1086   75.7269   15.3611 N   0  0  0  0  0  0  0  0  0  0  0  0
   14.8671   75.3474   15.0387 C   0  0  0  0  0  0  0  0  0  0  0  0
   14.0186   76.1461   14.2876 O   0  0  0  0  0  0  0  0  0  0  0  0
   12.7140   72.3403   15.5489 C   0  0  0  0  0  0  0  0  0  0  0  0
   13.4937   71.9206   16.8055 C   0  0  1  0  0  0  0  0  0  0  0  0
  1  2  2  0
 19  1  1  0
  3  2  1  0
 17  3  2  0
  4  5  2  0
  4 18  1  0
 20  4  1  0
  5  6  1  0
  6  7  2  0
 17  7  1  0
  8  9  2  0
 20  8  1  0
  8 28  1  0
  9 21  1  0
 10 11  1  0
 21 10  2  0
 27 10  1  0
 22 11  1  1
 11 26  2  0
 12 13  1  6
 22 12  1  0
 23 12  1  0
 13 24  2  0
 13 25  1  0
 29 14  1  0
 16 15  1  0
 31 15  1  0
 31 16  1  0
 18 17  1  0
 18 19  2  0
 30 20  1  0
 22 23  1  0
 28 27  2  0
 28 29  1  0
 31 30  1  6
M  END
$$$$
