
     RDKit          3D

 31 35  0  0  0  0  0  0  0  0999 V2000
   11.6280   71.7142   16.1995 C   0  0  0  0  0  0  0  0  0  0  0  0
   12.9731   71.4212   16.2202 C   0  0  0  0  0  0  0  0  0  0  0  0
   13.7793   71.8439   17.2400 C   0  0  0  0  0  0  0  0  0  0  0  0
   11.3030   73.6333   19.3045 C   0  0  0  0  0  0  0  0  0  0  0  0
   12.1169   74.0691   20.3477 C   0  0  0  0  0  0  0  0  0  0  0  0
   13.4492   73.7659   20.3448 C   0  0  0  0  0  0  0  0  0  0  0  0
   13.9809   73.0328   19.3157 C   0  0  0  0  0  0  0  0  0  0  0  0
    9.3737   74.9664   18.5272 C   0  0  0  0  0  0  0  0  0  0  0  0
    8.0636   75.4156   18.6742 C   0  0  0  0  0  0  0  0  0  0  0  0
    8.3865   77.0663   17.0029 C   0  0  0  0  0  0  0  0  0  0  0  0
    7.8641   78.1761   16.1975 C   0  0  0  0  0  0  0  0  0  0  0  0
    8.0526   80.3195   14.8635 C   0  0  2  0  0  0  0  0  0  0  0  0
    9.0484   81.3962   14.7156 C   0  0  0  0  0  0  0  0  0  0  0  0
   12.3722   76.0580   16.7140 C   0  0  0  0  0  0  0  0  0  0  0  0
    7.6663   70.9308   19.8709 C   0  0  0  0  0  0  0  0  0  0  0  0
    6.7428   72.0761   19.5327 C   0  0  0  0  0  0  0  0  0  0  0  0
   13.1900   72.5833   18.2599 C   0  0  0  0  0  0  0  0  0  0  0  0
   11.8368   72.8838   18.2490 C   0  0  0  0  0  0  0  0  0  0  0  0
   11.0514   72.4372   17.1967 C   0  0  0  0  0  0  0  0  0  0  0  0
    9.9121   73.9097   19.3051 N   0  0  0  0  0  0  0  0  0  0  0  0
    7.6325   76.4339   17.9144 N   0  0  0  0  0  0  0  0  0  0  0  0
    8.6801   78.9601   15.2732 C   0  0  2  0  0  0  0  0  0  0  0  0
    8.0259   79.2000   13.8856 C   0  0  0  0  0  0  0  0  0  0  0  0
   10.2770   81.0836   14.5932 O   0  0  0  0  0  0  0  0  0  0  0  0
    8.6583   82.7093   14.7100 O   0  0  0  0  0  0  0  0  0  0  0  0
    6.6486   78.4594   16.3163 O   0  0  0  0  0  0  0  0  0  0  0  0
    9.6447   76.6155   16.8796 N   0  0  0  0  0  0  0  0  0  0  0  0
   10.1724   75.6094   17.5860 C   0  0  0  0  0  0  0  0  0  0  0  0
   11.4813   75.1869   17.4115 O   0  0  0  0  0  0  0  0  0  0  0  0
    8.9954   73.1269   20.1054 C   0  0  0  0  0  0  0  0  0  0  0  0
    8.2178   72.1439   19.2154 C   0  0  1  0  0  0  0  0  0  0  0  0
  1  2  2  0
 19  1  1  0
  3  2  1  0
 17  3  2  0
  4  5  2  0
  4 18  1  0
 20  4  1  0
  5  6  1  0
  6  7  2  0
 17  7  1  0
  8  9  2  0
 20  8  1  0
  8 28  1  0
  9 21  1  0
 10 11  1  0
 21 10  2  0
 27 10  1  0
 22 11  1  1
 11 26  2  0
 12 13  1  6
 22 12  1  0
 23 12  1  0
 13 24  2  0
 13 25  1  0
 29 14  1  0
 16 15  1  0
 31 15  1  0
 31 16  1  0
 18 17  1  0
 18 19  2  0
 30 20  1  0
 22 23  1  0
 28 27  2  0
 28 29  1  0
 31 30  1  1
M  END
$$$$
