
     RDKit          3D

 31 35  0  0  0  0  0  0  0  0999 V2000
    6.7067   57.3775   30.5873 C   0  0  0  0  0  0  0  0  0  0  0  0
    7.5016   56.9547   29.5457 C   0  0  0  0  0  0  0  0  0  0  0  0
    7.1049   57.0919   28.2448 C   0  0  0  0  0  0  0  0  0  0  0  0
    3.8180   58.6849   28.7499 C   0  0  0  0  0  0  0  0  0  0  0  0
    3.4049   58.8282   27.4272 C   0  0  0  0  0  0  0  0  0  0  0  0
    4.2118   58.3999   26.4111 C   0  0  0  0  0  0  0  0  0  0  0  0
    5.4261   57.8312   26.6963 C   0  0  0  0  0  0  0  0  0  0  0  0
    1.9132   58.3902   30.2953 C   0  0  0  0  0  0  0  0  0  0  0  0
    2.0563   57.3814   31.2449 C   0  0  0  0  0  0  0  0  0  0  0  0
   -0.2765   56.9577   31.2230 C   0  0  0  0  0  0  0  0  0  0  0  0
   -1.4335   56.2001   31.7136 C   0  0  0  0  0  0  0  0  0  0  0  0
   -1.5691   53.6761   31.5705 C   0  0  2  0  0  0  0  0  0  0  0  0
   -0.7027   52.5418   31.9387 C   0  0  0  0  0  0  0  0  0  0  0  0
   -0.8764   59.8862   28.4067 C   0  0  0  0  0  0  0  0  0  0  0  0
    2.1721   62.7571   30.4871 C   0  0  0  0  0  0  0  0  0  0  0  0
    3.3624   62.8151   29.5604 C   0  0  0  0  0  0  0  0  0  0  0  0
    5.8648   57.6762   28.0100 C   0  0  0  0  0  0  0  0  0  0  0  0
    5.0567   58.1055   29.0512 C   0  0  0  0  0  0  0  0  0  0  0  0
    5.4940   57.9489   30.3580 C   0  0  0  0  0  0  0  0  0  0  0  0
    3.0098   59.1523   29.8173 N   0  0  0  0  0  0  0  0  0  0  0  0
    0.9680   56.7171   31.6621 N   0  0  0  0  0  0  0  0  0  0  0  0
   -1.3254   54.9378   32.4414 C   0  0  2  0  0  0  0  0  0  0  0  0
   -2.6421   54.1170   32.5003 C   0  0  0  0  0  0  0  0  0  0  0  0
   -0.1720   52.5250   33.0964 O   0  0  0  0  0  0  0  0  0  0  0  0
   -0.4730   51.5244   31.0507 O   0  0  0  0  0  0  0  0  0  0  0  0
   -2.5740   56.6707   31.4907 O   0  0  0  0  0  0  0  0  0  0  0  0
   -0.3887   57.9338   30.3086 N   0  0  0  0  0  0  0  0  0  0  0  0
    0.6297   58.6549   29.8265 C   0  0  0  0  0  0  0  0  0  0  0  0
    0.4505   59.6511   28.8791 O   0  0  0  0  0  0  0  0  0  0  0  0
    3.2724   60.4264   30.4506 C   0  0  0  0  0  0  0  0  0  0  0  0
    2.5441   61.5535   29.7007 C   0  0  1  0  0  0  0  0  0  0  0  0
  1  2  2  0
 19  1  1  0
  3  2  1  0
 17  3  2  0
  4  5  2  0
  4 18  1  0
 20  4  1  0
  5  6  1  0
  6  7  2  0
 17  7  1  0
  8  9  2  0
 20  8  1  0
  8 28  1  0
  9 21  1  0
 10 11  1  0
 21 10  2  0
 27 10  1  0
 22 11  1  6
 11 26  2  0
 12 13  1  1
 22 12  1  0
 23 12  1  0
 13 24  2  0
 13 25  1  0
 29 14  1  0
 16 15  1  0
 31 15  1  0
 31 16  1  0
 18 17  1  0
 18 19  2  0
 30 20  1  0
 22 23  1  0
 28 27  2  0
 28 29  1  0
 31 30  1  1
M  END
$$$$
