
     RDKit          3D

 31 35  0  0  0  0  0  0  0  0999 V2000
   25.6589   67.1373   22.3746 C   0  0  0  0  0  0  0  0  0  0  0  0
   25.2644   65.9581   21.7835 C   0  0  0  0  0  0  0  0  0  0  0  0
   25.4779   64.7510   22.3885 C   0  0  0  0  0  0  0  0  0  0  0  0
   27.1444   65.8775   25.4788 C   0  0  0  0  0  0  0  0  0  0  0  0
   27.3669   64.6520   26.1026 C   0  0  0  0  0  0  0  0  0  0  0  0
   26.9665   63.4955   25.4950 C   0  0  0  0  0  0  0  0  0  0  0  0
   26.3462   63.5446   24.2736 C   0  0  0  0  0  0  0  0  0  0  0  0
   28.7116   67.7699   25.7357 C   0  0  0  0  0  0  0  0  0  0  0  0
   29.5699   67.2957   24.7466 C   0  0  0  0  0  0  0  0  0  0  0  0
   31.0052   69.1627   25.0234 C   0  0  0  0  0  0  0  0  0  0  0  0
   32.2176   69.8983   24.6465 C   0  0  0  0  0  0  0  0  0  0  0  0
   32.8620   72.3465   24.6254 C   0  0  2  0  0  0  0  0  0  0  0  0
   32.5594   73.5331   25.4459 C   0  0  0  0  0  0  0  0  0  0  0  0
   28.5820   70.7088   27.9569 C   0  0  0  0  0  0  0  0  0  0  0  0
   24.2698   67.9697   26.3860 C   0  0  0  0  0  0  0  0  0  0  0  0
   24.5247   68.9339   27.5194 C   0  0  0  0  0  0  0  0  0  0  0  0
   26.1102   64.7566   23.6272 C   0  0  0  0  0  0  0  0  0  0  0  0
   26.5113   65.9380   24.2312 C   0  0  0  0  0  0  0  0  0  0  0  0
   26.2773   67.1431   23.5859 C   0  0  0  0  0  0  0  0  0  0  0  0
   27.5230   67.0911   26.1072 N   0  0  0  0  0  0  0  0  0  0  0  0
   30.6663   68.0046   24.4375 N   0  0  0  0  0  0  0  0  0  0  0  0
   32.7596   71.0152   25.4170 C   0  0  2  0  0  0  0  0  0  0  0  0
   34.1055   71.5720   24.8790 C   0  0  0  0  0  0  0  0  0  0  0  0
   32.6119   73.4322   26.7144 O   0  0  0  0  0  0  0  0  0  0  0  0
   32.2277   74.7229   24.8534 O   0  0  0  0  0  0  0  0  0  0  0  0
   32.8144   69.5408   23.6034 O   0  0  0  0  0  0  0  0  0  0  0  0
   30.1629   69.5989   25.9731 N   0  0  0  0  0  0  0  0  0  0  0  0
   29.0461   68.9701   26.3563 C   0  0  0  0  0  0  0  0  0  0  0  0
   28.2155   69.4706   27.3471 O   0  0  0  0  0  0  0  0  0  0  0  0
   26.7125   67.6745   27.1542 C   0  0  0  0  0  0  0  0  0  0  0  0
   25.6196   68.5680   26.5457 C   0  0  1  0  0  0  0  0  0  0  0  0
  1  2  2  0
 19  1  1  0
  3  2  1  0
 17  3  2  0
  4  5  2  0
  4 18  1  0
 20  4  1  0
  5  6  1  0
  6  7  2  0
 17  7  1  0
  8  9  2  0
 20  8  1  0
  8 28  1  0
  9 21  1  0
 10 11  1  0
 21 10  2  0
 27 10  1  0
 22 11  1  6
 11 26  2  0
 12 13  1  1
 22 12  1  0
 23 12  1  0
 13 24  2  0
 13 25  1  0
 29 14  1  0
 16 15  1  0
 31 15  1  0
 31 16  1  0
 18 17  1  0
 18 19  2  0
 30 20  1  0
 22 23  1  0
 28 27  2  0
 28 29  1  0
 31 30  1  1
M  END
$$$$
