
     RDKit          3D

 31 35  0  0  0  0  0  0  0  0999 V2000
    3.9607   61.6075   29.5901 C   0  0  0  0  0  0  0  0  0  0  0  0
    4.0022   62.1412   28.3216 C   0  0  0  0  0  0  0  0  0  0  0  0
    4.2843   61.3667   27.2311 C   0  0  0  0  0  0  0  0  0  0  0  0
    4.7460   58.0997   28.8772 C   0  0  0  0  0  0  0  0  0  0  0  0
    5.0352   57.3027   27.7718 C   0  0  0  0  0  0  0  0  0  0  0  0
    5.0711   57.8564   26.5232 C   0  0  0  0  0  0  0  0  0  0  0  0
    4.8215   59.1946   26.3617 C   0  0  0  0  0  0  0  0  0  0  0  0
    3.6145   56.6658   30.5406 C   0  0  0  0  0  0  0  0  0  0  0  0
    3.7329   55.2790   30.4882 C   0  0  0  0  0  0  0  0  0  0  0  0
    1.5226   55.0070   31.3020 C   0  0  0  0  0  0  0  0  0  0  0  0
    0.4172   54.1297   31.7041 C   0  0  0  0  0  0  0  0  0  0  0  0
   -0.8556   52.0346   31.0719 C   0  0  2  0  0  0  0  0  0  0  0  0
   -0.6255   50.8753   30.1911 C   0  0  0  0  0  0  0  0  0  0  0  0
    0.9881   59.0754   31.4797 C   0  0  0  0  0  0  0  0  0  0  0  0
    8.1593   57.1888   31.0415 C   0  0  0  0  0  0  0  0  0  0  0  0
    7.6524   56.8161   32.4137 C   0  0  0  0  0  0  0  0  0  0  0  0
    4.5288   60.0152   27.4495 C   0  0  0  0  0  0  0  0  0  0  0  0
    4.4895   59.4676   28.7223 C   0  0  0  0  0  0  0  0  0  0  0  0
    4.1998   60.2859   29.8040 C   0  0  0  0  0  0  0  0  0  0  0  0
    4.6721   57.5383   30.1773 N   0  0  0  0  0  0  0  0  0  0  0  0
    2.6939   54.5194   30.8666 N   0  0  0  0  0  0  0  0  0  0  0  0
    0.4586   52.6733   31.5958 C   0  0  2  0  0  0  0  0  0  0  0  0
   -0.5438   51.9327   32.5220 C   0  0  0  0  0  0  0  0  0  0  0  0
    0.5549   50.4085   30.0864 O   0  0  0  0  0  0  0  0  0  0  0  0
   -1.6634   50.3108   29.4979 O   0  0  0  0  0  0  0  0  0  0  0  0
   -0.6161   54.6699   32.1652 O   0  0  0  0  0  0  0  0  0  0  0  0
    1.4327   56.3456   31.3434 N   0  0  0  0  0  0  0  0  0  0  0  0
    2.4064   57.1917   30.9892 C   0  0  0  0  0  0  0  0  0  0  0  0
    2.2527   58.5681   31.0522 O   0  0  0  0  0  0  0  0  0  0  0  0
    5.6698   57.8425   31.1801 C   0  0  0  0  0  0  0  0  0  0  0  0
    6.7502   56.7492   31.2045 C   0  0  1  0  0  0  0  0  0  0  0  0
  1  2  2  0
 19  1  1  0
  3  2  1  0
 17  3  2  0
  4  5  2  0
  4 18  1  0
 20  4  1  0
  5  6  1  0
  6  7  2  0
 17  7  1  0
  8  9  2  0
 20  8  1  0
  8 28  1  0
  9 21  1  0
 10 11  1  0
 21 10  2  0
 27 10  1  0
 22 11  1  1
 11 26  2  0
 12 13  1  6
 22 12  1  0
 23 12  1  0
 13 24  2  0
 13 25  1  0
 29 14  1  0
 16 15  1  0
 31 15  1  0
 31 16  1  0
 18 17  1  0
 18 19  2  0
 30 20  1  0
 22 23  1  0
 28 27  2  0
 28 29  1  0
 31 30  1  1
M  END
$$$$
