
     RDKit          3D

 31 35  0  0  0  0  0  0  0  0999 V2000
   29.0127   61.9753   26.0946 C   0  0  0  0  0  0  0  0  0  0  0  0
   28.1299   61.1289   25.4623 C   0  0  0  0  0  0  0  0  0  0  0  0
   26.9704   61.5934   24.9070 C   0  0  0  0  0  0  0  0  0  0  0  0
   27.2794   65.1803   25.7038 C   0  0  0  0  0  0  0  0  0  0  0  0
   26.0997   65.6628   25.1414 C   0  0  0  0  0  0  0  0  0  0  0  0
   25.2394   64.8023   24.5197 C   0  0  0  0  0  0  0  0  0  0  0  0
   25.5401   63.4666   24.4506 C   0  0  0  0  0  0  0  0  0  0  0  0
   29.4039   66.4409   25.6765 C   0  0  0  0  0  0  0  0  0  0  0  0
   30.6463   65.9244   26.0362 C   0  0  0  0  0  0  0  0  0  0  0  0
   31.7214   67.1917   24.3449 C   0  0  0  0  0  0  0  0  0  0  0  0
   32.9466   67.5882   23.6415 C   0  0  0  0  0  0  0  0  0  0  0  0
   35.3963   68.1811   23.8801 C   0  0  2  0  0  0  0  0  0  0  0  0
   36.4175   68.0778   24.9381 C   0  0  0  0  0  0  0  0  0  0  0  0
   28.1374   68.7928   23.1365 C   0  0  0  0  0  0  0  0  0  0  0  0
   27.0134   68.7636   28.6844 C   0  0  0  0  0  0  0  0  0  0  0  0
   28.5181   68.8772   28.6375 C   0  0  0  0  0  0  0  0  0  0  0  0
   26.7134   62.9568   25.0038 C   0  0  0  0  0  0  0  0  0  0  0  0
   27.5954   63.8177   25.6380 C   0  0  0  0  0  0  0  0  0  0  0  0
   28.7617   63.3086   26.1895 C   0  0  0  0  0  0  0  0  0  0  0  0
   28.2007   66.0615   26.3247 N   0  0  0  0  0  0  0  0  0  0  0  0
   31.7378   66.3179   25.3625 N   0  0  0  0  0  0  0  0  0  0  0  0
   34.2790   67.1105   24.0039 C   0  0  2  0  0  0  0  0  0  0  0  0
   35.3043   67.1249   22.8379 C   0  0  0  0  0  0  0  0  0  0  0  0
   36.5019   66.9970   25.6066 O   0  0  0  0  0  0  0  0  0  0  0  0
   37.2604   69.1261   25.1968 O   0  0  0  0  0  0  0  0  0  0  0  0
   32.8331   68.3814   22.6772 O   0  0  0  0  0  0  0  0  0  0  0  0
   30.5130   67.6754   24.0171 N   0  0  0  0  0  0  0  0  0  0  0  0
   29.3656   67.3498   24.6230 C   0  0  0  0  0  0  0  0  0  0  0  0
   28.1459   67.8859   24.2396 O   0  0  0  0  0  0  0  0  0  0  0  0
   27.9477   66.5981   27.6444 C   0  0  0  0  0  0  0  0  0  0  0  0
   27.7595   68.1220   27.5721 C   0  0  1  0  0  0  0  0  0  0  0  0
  1  2  2  0
 19  1  1  0
  3  2  1  0
 17  3  2  0
  4  5  2  0
  4 18  1  0
 20  4  1  0
  5  6  1  0
  6  7  2  0
 17  7  1  0
  8  9  2  0
 20  8  1  0
  8 28  1  0
  9 21  1  0
 10 11  1  0
 21 10  2  0
 27 10  1  0
 22 11  1  6
 11 26  2  0
 12 13  1  1
 22 12  1  0
 23 12  1  0
 13 24  2  0
 13 25  1  0
 29 14  1  0
 16 15  1  0
 31 15  1  0
 31 16  1  0
 18 17  1  0
 18 19  2  0
 30 20  1  0
 22 23  1  0
 28 27  2  0
 28 29  1  0
 31 30  1  1
M  END
$$$$
