
     RDKit          3D

 47 50  0  0  0  0  0  0  0  0999 V2000
   37.0933   49.2532   16.0244 C   0  0  0  0  0  0  0  0  0  0  0  0
   34.8196   55.1852   20.7700 C   0  0  0  0  0  0  0  0  0  0  0  0
   34.6615   56.5653   20.1530 C   0  0  0  0  0  0  0  0  0  0  0  0
   33.4002   57.0285   17.9316 C   0  0  0  0  0  0  0  0  0  0  0  0
   33.7102   57.5013   16.5532 C   0  0  0  0  0  0  0  0  0  0  0  0
   34.2340   59.7813   17.0168 C   0  0  0  0  0  0  0  0  0  0  0  0
   33.7747   60.7073   18.0291 C   0  0  0  0  0  0  0  0  0  0  0  0
   33.1619   61.8844   17.6515 C   0  0  0  0  0  0  0  0  0  0  0  0
   32.6828   62.7864   18.5710 C   0  0  0  0  0  0  0  0  0  0  0  0
   32.7999   62.5431   19.9189 C   0  0  0  0  0  0  0  0  0  0  0  0
   33.4098   61.3737   20.3091 C   0  0  0  0  0  0  0  0  0  0  0  0
   35.3813   49.8917   14.2973 C   0  0  0  0  0  0  0  0  0  0  0  0
   33.8992   60.4543   19.3703 C   0  0  0  0  0  0  0  0  0  0  0  0
   34.5874   59.2617   19.9365 C   0  0  0  0  0  0  0  0  0  0  0  0
   32.1249   59.2177   15.8656 C   0  0  0  0  0  0  0  0  0  0  0  0
   32.0608   59.6916   14.4346 C   0  0  0  0  0  0  0  0  0  0  0  0
   31.9995   61.0779   14.2183 C   0  0  0  0  0  0  0  0  0  0  0  0
   31.9333   61.6408   12.9672 C   0  0  0  0  0  0  0  0  0  0  0  0
   31.9246   60.8351   11.8671 C   0  0  0  0  0  0  0  0  0  0  0  0
   31.9828   59.4745   12.0651 C   0  0  0  0  0  0  0  0  0  0  0  0
   32.0506   58.8947   13.3426 C   0  0  0  0  0  0  0  0  0  0  0  0
   32.0795   57.4011   13.3175 C   0  0  0  0  0  0  0  0  0  0  0  0
   34.2690   50.8909   14.1181 C   0  0  0  0  0  0  0  0  0  0  0  0
   32.3475   55.6536   10.8770 C   0  0  0  0  0  0  0  0  0  0  0  0
   32.8445   54.4841   11.6811 C   0  0  1  0  0  0  0  0  0  0  0  0
   33.0269   53.3337   10.7656 C   0  0  0  0  0  0  0  0  0  0  0  0
   34.6899   54.3082   13.4101 C   0  0  0  0  0  0  0  0  0  0  0  0
   34.7834   52.2233   14.6355 C   0  0  0  0  0  0  0  0  0  0  0  0
   33.8894   53.3647   14.2451 C   0  0  1  0  0  0  0  0  0  0  0  0
   33.5611   54.1252   16.6645 C   0  0  0  0  0  0  0  0  0  0  0  0
   34.8958   54.4981   17.1396 C   0  0  0  0  0  0  0  0  0  0  0  0
   34.9912   55.1025   18.4646 C   0  0  2  0  0  0  0  0  0  0  0  0
   34.5894   54.2199   19.6224 C   0  0  0  0  0  0  0  0  0  0  0  0
   38.3164   49.4945   16.3066 N   0  0  0  0  0  4  0  0  0  0  0  0
   36.4964   47.9900   16.4310 N   0  0  0  0  0  0  0  0  0  0  0  0
   36.3380   50.1909   15.2967 N   0  0  0  0  0  0  0  0  0  0  0  0
   33.1785   53.9813   15.3080 N   0  0  0  0  0  0  0  0  0  0  0  0
   34.2750   56.2956   18.7614 N   0  0  0  0  0  0  0  0  0  0  0  0
   33.3576   58.9003   16.3852 N   0  0  0  0  0  0  0  0  0  0  0  0
   31.9353   52.5046   10.3860 N   0  0  0  0  0  0  0  0  0  0  0  0
   34.1410   54.8785   12.2266 N   0  0  0  0  0  0  0  0  0  0  0  0
   32.6196   53.8979   17.5055 O   0  0  0  0  0  0  0  0  0  0  0  0
   32.2260   57.3444   18.3448 O   0  0  0  0  0  0  0  0  0  0  0  0
   35.9213   59.2980   19.4981 O   0  0  0  0  0  0  0  0  0  0  0  0
   34.1581   53.0509   10.2923 O   0  0  0  0  0  0  0  0  0  0  0  0
   35.8646   54.6133   13.7418 O   0  0  0  0  0  0  0  0  0  0  0  0
   31.2866   56.7626   11.8136 S   0  0  0  0  0  0  0  0  0  0  0  0
  1 34  2  0
  1 35  1  0
 36  1  1  0
  3  2  1  0
 33  2  1  0
 38  3  1  0
  5  4  1  0
  4 38  1  0
  4 43  2  0
 39  5  1  0
  6  7  1  0
 39  6  1  0
  7  8  2  0
  7 13  1  0
  8  9  1  0
  9 10  2  0
 11 10  1  0
 13 11  2  0
 23 12  1  0
 12 36  1  0
 13 14  1  0
 14 44  1  0
 16 15  1  0
 15 39  1  0
 16 17  1  0
 21 16  2  0
 17 18  2  0
 19 18  1  0
 20 19  2  0
 21 20  1  0
 22 21  1  0
 28 23  1  0
 25 24  1  0
 25 26  1  6
 41 25  1  0
 26 40  1  0
 26 45  2  0
 29 27  1  0
 27 41  1  0
 27 46  2  0
 29 28  1  1
 37 29  1  0
 31 30  1  0
 30 37  1  0
 30 42  2  0
 32 31  1  6
 32 33  1  0
 38 32  1  0
 47 22  1  0
 24 47  1  0
M  CHG  1  34   1
M  END
$$$$
