
     RDKit          3D

 47 50  0  0  0  0  0  0  0  0999 V2000
   35.8939   49.6083   15.1454 C   0  0  0  0  0  0  0  0  0  0  0  0
   29.3344   57.0336   14.5736 C   0  0  0  0  0  0  0  0  0  0  0  0
   29.6806   57.2088   16.0432 C   0  0  0  0  0  0  0  0  0  0  0  0
   32.0980   57.5074   16.9414 C   0  0  0  0  0  0  0  0  0  0  0  0
   33.0699   56.7631   17.7905 C   0  0  0  0  0  0  0  0  0  0  0  0
   31.9948   56.9685   19.9094 C   0  0  0  0  0  0  0  0  0  0  0  0
   31.5544   57.8092   21.0014 C   0  0  0  0  0  0  0  0  0  0  0  0
   31.9025   57.4856   22.2967 C   0  0  0  0  0  0  0  0  0  0  0  0
   31.5341   58.2633   23.3683 C   0  0  0  0  0  0  0  0  0  0  0  0
   30.7947   59.4073   23.1833 C   0  0  0  0  0  0  0  0  0  0  0  0
   30.4400   59.7409   21.8970 C   0  0  0  0  0  0  0  0  0  0  0  0
   34.8316   51.7513   14.3706 C   0  0  0  0  0  0  0  0  0  0  0  0
   30.8154   58.9465   20.8043 C   0  0  0  0  0  0  0  0  0  0  0  0
   30.3115   59.3975   19.4780 C   0  0  0  0  0  0  0  0  0  0  0  0
   34.0573   58.2447   19.4524 C   0  0  0  0  0  0  0  0  0  0  0  0
   35.2436   57.8106   20.2774 C   0  0  0  0  0  0  0  0  0  0  0  0
   35.1955   58.0666   21.6575 C   0  0  0  0  0  0  0  0  0  0  0  0
   36.2089   57.7272   22.5202 C   0  0  0  0  0  0  0  0  0  0  0  0
   37.3257   57.1118   22.0367 C   0  0  0  0  0  0  0  0  0  0  0  0
   37.3861   56.8564   20.6857 C   0  0  0  0  0  0  0  0  0  0  0  0
   36.3522   57.2018   19.8000 C   0  0  0  0  0  0  0  0  0  0  0  0
   36.6458   56.8524   18.3773 C   0  0  0  0  0  0  0  0  0  0  0  0
   35.7727   52.4854   13.4523 C   0  0  0  0  0  0  0  0  0  0  0  0
   38.9860   55.2411   17.3728 C   0  0  0  0  0  0  0  0  0  0  0  0
   38.2836   54.8869   16.0913 C   0  0  1  0  0  0  0  0  0  0  0  0
   39.2189   54.1060   15.2484 C   0  0  0  0  0  0  0  0  0  0  0  0
   35.9773   53.9276   15.6592 C   0  0  0  0  0  0  0  0  0  0  0  0
   35.2642   53.9128   13.3466 C   0  0  0  0  0  0  0  0  0  0  0  0
   35.7901   54.7837   14.4508 C   0  0  1  0  0  0  0  0  0  0  0  0
   33.6837   56.2326   14.5081 C   0  0  0  0  0  0  0  0  0  0  0  0
   32.5964   55.3239   14.8796 C   0  0  0  0  0  0  0  0  0  0  0  0
   31.2828   55.9129   15.1199 C   0  0  2  0  0  0  0  0  0  0  0  0
   30.6228   56.5615   13.9263 C   0  0  0  0  0  0  0  0  0  0  0  0
   35.0621   48.6458   15.0199 N   0  0  0  0  0  4  0  0  0  0  0  0
   37.3225   49.3343   15.1104 N   0  0  0  0  0  0  0  0  0  0  0  0
   35.4299   50.9209   15.3483 N   0  0  0  0  0  0  0  0  0  0  0  0
   35.0665   55.9819   14.6878 N   0  0  0  0  0  0  0  0  0  0  0  0
   31.1197   56.9206   16.1111 N   0  0  0  0  0  0  0  0  0  0  0  0
   33.1087   57.2999   19.1396 N   0  0  0  0  0  0  0  0  0  0  0  0
   40.3446   54.7138   14.6266 N   0  0  0  0  0  0  0  0  0  0  0  0
   37.1481   54.0455   16.4609 N   0  0  0  0  0  0  0  0  0  0  0  0
   33.4184   57.3665   13.9702 O   0  0  0  0  0  0  0  0  0  0  0  0
   32.2071   58.7850   17.0130 O   0  0  0  0  0  0  0  0  0  0  0  0
   30.6270   60.7600   19.3490 O   0  0  0  0  0  0  0  0  0  0  0  0
   39.0472   52.8747   15.0538 O   0  0  0  0  0  0  0  0  0  0  0  0
   35.1001   53.0872   15.9870 O   0  0  0  0  0  0  0  0  0  0  0  0
   38.4364   56.8007   18.0788 S   0  0  0  0  0  0  0  0  0  0  0  0
  1 34  2  0
  1 35  1  0
 36  1  1  0
  3  2  1  0
 33  2  1  0
 38  3  1  0
  5  4  1  0
  4 38  1  0
  4 43  2  0
 39  5  1  0
  6  7  1  0
 39  6  1  0
  7  8  2  0
  7 13  1  0
  8  9  1  0
  9 10  2  0
 11 10  1  0
 13 11  2  0
 23 12  1  0
 12 36  1  0
 13 14  1  0
 14 44  1  0
 16 15  1  0
 15 39  1  0
 16 17  1  0
 21 16  2  0
 17 18  2  0
 19 18  1  0
 20 19  2  0
 21 20  1  0
 22 21  1  0
 28 23  1  0
 25 24  1  0
 25 26  1  6
 41 25  1  0
 26 40  1  0
 26 45  2  0
 29 27  1  0
 27 41  1  0
 27 46  2  0
 29 28  1  6
 37 29  1  0
 31 30  1  0
 30 37  1  0
 30 42  2  0
 32 31  1  6
 32 33  1  0
 38 32  1  0
 47 22  1  0
 24 47  1  0
M  CHG  1  34   1
M  END
$$$$
