
     RDKit          3D

 47 50  0  0  0  0  0  0  0  0999 V2000
   36.9259   49.1065   15.6211 C   0  0  0  0  0  0  0  0  0  0  0  0
   35.2101   55.8269   21.6516 C   0  0  0  0  0  0  0  0  0  0  0  0
   34.3354   56.9399   21.0981 C   0  0  0  0  0  0  0  0  0  0  0  0
   32.9461   56.7466   18.9135 C   0  0  0  0  0  0  0  0  0  0  0  0
   32.9188   57.3555   17.5540 C   0  0  0  0  0  0  0  0  0  0  0  0
   32.1913   59.5571   18.1123 C   0  0  0  0  0  0  0  0  0  0  0  0
   32.0628   59.6783   19.5483 C   0  0  0  0  0  0  0  0  0  0  0  0
   33.0485   59.1689   20.3684 C   0  0  0  0  0  0  0  0  0  0  0  0
   32.9902   59.2803   21.7369 C   0  0  0  0  0  0  0  0  0  0  0  0
   31.9315   59.9125   22.3446 C   0  0  0  0  0  0  0  0  0  0  0  0
   30.9414   60.4241   21.5386 C   0  0  0  0  0  0  0  0  0  0  0  0
   36.5378   51.2652   14.3922 C   0  0  0  0  0  0  0  0  0  0  0  0
   31.0011   60.3092   20.1425 C   0  0  0  0  0  0  0  0  0  0  0  0
   29.8317   60.8568   19.4015 C   0  0  0  0  0  0  0  0  0  0  0  0
   30.6496   58.0117   16.9607 C   0  0  0  0  0  0  0  0  0  0  0  0
   30.3011   58.4277   15.5529 C   0  0  0  0  0  0  0  0  0  0  0  0
   29.5187   59.5838   15.3989 C   0  0  0  0  0  0  0  0  0  0  0  0
   29.1279   60.0688   14.1748 C   0  0  0  0  0  0  0  0  0  0  0  0
   29.5049   59.4129   13.0401 C   0  0  0  0  0  0  0  0  0  0  0  0
   30.2707   58.2777   13.1771 C   0  0  0  0  0  0  0  0  0  0  0  0
   30.6725   57.7782   14.4268 C   0  0  0  0  0  0  0  0  0  0  0  0
   31.4754   56.5215   14.3353 C   0  0  0  0  0  0  0  0  0  0  0  0
   37.1100   52.6522   14.2619 C   0  0  0  0  0  0  0  0  0  0  0  0
   32.5358   55.2506   11.8170 C   0  0  0  0  0  0  0  0  0  0  0  0
   33.5958   54.4882   12.5630 C   0  0  1  0  0  0  0  0  0  0  0  0
   34.3215   53.6325   11.5954 C   0  0  0  0  0  0  0  0  0  0  0  0
   35.3173   55.2472   14.2619 C   0  0  0  0  0  0  0  0  0  0  0  0
   36.5243   53.4804   15.3927 C   0  0  0  0  0  0  0  0  0  0  0  0
   35.1541   53.9983   15.0632 C   0  0  1  0  0  0  0  0  0  0  0  0
   34.5563   54.3975   17.5173 C   0  0  0  0  0  0  0  0  0  0  0  0
   35.5152   55.3973   17.9937 C   0  0  0  0  0  0  0  0  0  0  0  0
   35.3245   55.9198   19.3430 C   0  0  2  0  0  0  0  0  0  0  0  0
   35.4800   54.9208   20.4650 C   0  0  0  0  0  0  0  0  0  0  0  0
   37.9677   48.4042   15.3854 N   0  0  0  0  0  4  0  0  0  0  0  0
   35.6791   48.4471   15.9787 N   0  0  0  0  0  0  0  0  0  0  0  0
   36.9772   50.5076   15.5040 N   0  0  0  0  0  0  0  0  0  0  0  0
   34.2609   54.1183   16.1601 N   0  0  0  0  0  0  0  0  0  0  0  0
   34.1012   56.5527   19.7003 N   0  0  0  0  0  0  0  0  0  0  0  0
   31.8830   58.3686   17.4521 N   0  0  0  0  0  0  0  0  0  0  0  0
   35.2478   54.1811   10.6659 N   0  0  0  0  0  0  0  0  0  0  0  0
   34.5132   55.4842   13.1110 N   0  0  0  0  0  0  0  0  0  0  0  0
   33.8995   53.6850   18.3578 O   0  0  0  0  0  0  0  0  0  0  0  0
   31.7937   56.3891   19.3532 O   0  0  0  0  0  0  0  0  0  0  0  0
   28.9756   59.7816   19.1122 O   0  0  0  0  0  0  0  0  0  0  0  0
   34.1412   52.3875   11.5639 O   0  0  0  0  0  0  0  0  0  0  0  0
   36.1704   56.1104   14.5937 O   0  0  0  0  0  0  0  0  0  0  0  0
   31.0834   55.6113   12.8135 S   0  0  0  0  0  0  0  0  0  0  0  0
  1 34  2  0
  1 35  1  0
 36  1  1  0
  3  2  1  0
 33  2  1  0
 38  3  1  0
  5  4  1  0
  4 38  1  0
  4 43  2  0
 39  5  1  0
  6  7  1  0
 39  6  1  0
  7  8  2  0
  7 13  1  0
  8  9  1  0
  9 10  2  0
 11 10  1  0
 13 11  2  0
 23 12  1  0
 12 36  1  0
 13 14  1  0
 14 44  1  0
 16 15  1  0
 15 39  1  0
 16 17  1  0
 21 16  2  0
 17 18  2  0
 19 18  1  0
 20 19  2  0
 21 20  1  0
 22 21  1  0
 28 23  1  0
 25 24  1  0
 25 26  1  6
 41 25  1  0
 26 40  1  0
 26 45  2  0
 29 27  1  0
 27 41  1  0
 27 46  2  0
 29 28  1  1
 37 29  1  0
 31 30  1  0
 30 37  1  0
 30 42  2  0
 32 31  1  6
 32 33  1  0
 38 32  1  0
 47 22  1  0
 24 47  1  0
M  CHG  1  34   1
M  END
$$$$
