
     RDKit          3D

 47 50  0  0  0  0  0  0  0  0999 V2000
   36.0958   49.5569   15.9123 C   0  0  0  0  0  0  0  0  0  0  0  0
   31.0779   54.6934   20.7988 C   0  0  0  0  0  0  0  0  0  0  0  0
   32.1763   55.7409   20.7186 C   0  0  0  0  0  0  0  0  0  0  0  0
   32.9956   56.8211   18.5047 C   0  0  0  0  0  0  0  0  0  0  0  0
   34.2298   56.8512   17.6706 C   0  0  0  0  0  0  0  0  0  0  0  0
   35.6542   58.1190   19.1030 C   0  0  0  0  0  0  0  0  0  0  0  0
   34.9404   58.1942   20.3592 C   0  0  0  0  0  0  0  0  0  0  0  0
   35.0967   57.1928   21.2954 C   0  0  0  0  0  0  0  0  0  0  0  0
   34.4640   57.2275   22.5149 C   0  0  0  0  0  0  0  0  0  0  0  0
   33.6411   58.2769   22.8485 C   0  0  0  0  0  0  0  0  0  0  0  0
   33.4757   59.2815   21.9237 C   0  0  0  0  0  0  0  0  0  0  0  0
   35.0103   51.6443   15.0259 C   0  0  0  0  0  0  0  0  0  0  0  0
   34.1208   59.2450   20.6793 C   0  0  0  0  0  0  0  0  0  0  0  0
   33.8028   60.3693   19.7567 C   0  0  0  0  0  0  0  0  0  0  0  0
   34.7726   59.1390   17.0357 C   0  0  0  0  0  0  0  0  0  0  0  0
   35.8270   59.4306   15.9967 C   0  0  0  0  0  0  0  0  0  0  0  0
   36.7591   60.4389   16.2917 C   0  0  0  0  0  0  0  0  0  0  0  0
   37.7659   60.8057   15.4326 C   0  0  0  0  0  0  0  0  0  0  0  0
   37.8860   60.1755   14.2292 C   0  0  0  0  0  0  0  0  0  0  0  0
   36.9781   59.1865   13.9271 C   0  0  0  0  0  0  0  0  0  0  0  0
   35.9470   58.8081   14.8027 C   0  0  0  0  0  0  0  0  0  0  0  0
   35.0665   57.7321   14.2556 C   0  0  0  0  0  0  0  0  0  0  0  0
   33.7666   51.2486   14.2746 C   0  0  0  0  0  0  0  0  0  0  0  0
   35.5180   56.1595   11.7248 C   0  0  0  0  0  0  0  0  0  0  0  0
   34.6333   55.0330   12.1823 C   0  0  1  0  0  0  0  0  0  0  0  0
   34.5469   54.0359   11.0899 C   0  0  0  0  0  0  0  0  0  0  0  0
   34.5925   53.7127   14.3460 C   0  0  0  0  0  0  0  0  0  0  0  0
   32.6873   52.2508   14.6465 C   0  0  0  0  0  0  0  0  0  0  0  0
   33.1006   53.6633   14.3489 C   0  0  1  0  0  0  0  0  0  0  0  0
   32.0252   54.5807   16.4800 C   0  0  0  0  0  0  0  0  0  0  0  0
   32.7349   53.9311   17.5847 C   0  0  0  0  0  0  0  0  0  0  0  0
   32.4149   54.3718   18.9387 C   0  0  2  0  0  0  0  0  0  0  0  0
   31.0029   54.1039   19.4029 C   0  0  0  0  0  0  0  0  0  0  0  0
   36.3006   49.0822   14.7432 N   0  0  0  0  0  4  0  0  0  0  0  0
   36.5415   48.8119   17.0800 N   0  0  0  0  0  0  0  0  0  0  0  0
   35.4148   50.7779   16.0695 N   0  0  0  0  0  0  0  0  0  0  0  0
   32.4827   54.6658   15.1418 N   0  0  0  0  0  0  0  0  0  0  0  0
   32.5745   55.7376   19.3044 N   0  0  0  0  0  0  0  0  0  0  0  0
   34.9792   58.0770   17.8840 N   0  0  0  0  0  0  0  0  0  0  0  0
   34.0437   54.3817    9.8052 N   0  0  0  0  0  0  0  0  0  0  0  0
   35.2954   54.4297   13.3364 N   0  0  0  0  0  0  0  0  0  0  0  0
   30.8876   55.1367   16.6853 O   0  0  0  0  0  0  0  0  0  0  0  0
   32.2984   57.8984   18.4518 O   0  0  0  0  0  0  0  0  0  0  0  0
   34.9188   61.2216   19.7315 O   0  0  0  0  0  0  0  0  0  0  0  0
   34.9168   52.8458   11.2634 O   0  0  0  0  0  0  0  0  0  0  0  0
   35.2516   53.1193   15.2385 O   0  0  0  0  0  0  0  0  0  0  0  0
   35.0748   57.7486   12.4396 S   0  0  0  0  0  0  0  0  0  0  0  0
  1 34  2  0
  1 35  1  0
 36  1  1  0
  3  2  1  0
 33  2  1  0
 38  3  1  0
  5  4  1  0
  4 38  1  0
  4 43  2  0
 39  5  1  0
  6  7  1  0
 39  6  1  0
  7  8  2  0
  7 13  1  0
  8  9  1  0
  9 10  2  0
 11 10  1  0
 13 11  2  0
 23 12  1  0
 12 36  1  0
 13 14  1  0
 14 44  1  0
 16 15  1  0
 15 39  1  0
 16 17  1  0
 21 16  2  0
 17 18  2  0
 19 18  1  0
 20 19  2  0
 21 20  1  0
 22 21  1  0
 28 23  1  0
 25 24  1  0
 25 26  1  6
 41 25  1  0
 26 40  1  0
 26 45  2  0
 29 27  1  0
 27 41  1  0
 27 46  2  0
 29 28  1  1
 37 29  1  0
 31 30  1  0
 30 37  1  0
 30 42  2  0
 32 31  1  6
 32 33  1  0
 38 32  1  0
 47 22  1  0
 24 47  1  0
M  CHG  1  34   1
M  END
$$$$
