
     RDKit          3D

 47 50  0  0  0  0  0  0  0  0999 V2000
   37.0206   48.9263   15.8375 C   0  0  0  0  0  0  0  0  0  0  0  0
   35.4140   56.4590   21.3403 C   0  0  0  0  0  0  0  0  0  0  0  0
   34.4680   57.4230   20.6431 C   0  0  0  0  0  0  0  0  0  0  0  0
   33.1591   56.8604   18.4728 C   0  0  0  0  0  0  0  0  0  0  0  0
   33.1201   57.3016   17.0503 C   0  0  0  0  0  0  0  0  0  0  0  0
   32.2028   59.4852   17.3299 C   0  0  0  0  0  0  0  0  0  0  0  0
   32.4032   59.7026   18.7461 C   0  0  0  0  0  0  0  0  0  0  0  0
   32.4453   60.9898   19.2411 C   0  0  0  0  0  0  0  0  0  0  0  0
   32.6061   61.2528   20.5804 C   0  0  0  0  0  0  0  0  0  0  0  0
   32.7327   60.2266   21.4863 C   0  0  0  0  0  0  0  0  0  0  0  0
   32.6935   58.9384   21.0060 C   0  0  0  0  0  0  0  0  0  0  0  0
   36.6938   51.1963   14.8071 C   0  0  0  0  0  0  0  0  0  0  0  0
   32.5304   58.6709   19.6393 C   0  0  0  0  0  0  0  0  0  0  0  0
   32.5658   57.2325   19.2568 C   0  0  0  0  0  0  0  0  0  0  0  0
   30.8225   57.6928   16.3431 C   0  0  0  0  0  0  0  0  0  0  0  0
   30.4804   57.9107   14.8899 C   0  0  0  0  0  0  0  0  0  0  0  0
   29.6120   58.9718   14.5857 C   0  0  0  0  0  0  0  0  0  0  0  0
   29.2171   59.2760   13.3059 C   0  0  0  0  0  0  0  0  0  0  0  0
   29.6765   58.5255   12.2642 C   0  0  0  0  0  0  0  0  0  0  0  0
   30.5272   57.4817   12.5487 C   0  0  0  0  0  0  0  0  0  0  0  0
   30.9335   57.1671   13.8559 C   0  0  0  0  0  0  0  0  0  0  0  0
   31.8372   55.9795   13.9286 C   0  0  0  0  0  0  0  0  0  0  0  0
   37.6385   52.3540   14.6195 C   0  0  0  0  0  0  0  0  0  0  0  0
   33.0649   54.5151   11.5984 C   0  0  0  0  0  0  0  0  0  0  0  0
   34.1620   53.9360   12.4483 C   0  0  1  0  0  0  0  0  0  0  0  0
   34.9804   53.0363   11.6024 C   0  0  0  0  0  0  0  0  0  0  0  0
   35.7697   55.0292   14.0751 C   0  0  0  0  0  0  0  0  0  0  0  0
   37.0836   53.5135   15.4291 C   0  0  0  0  0  0  0  0  0  0  0  0
   35.6856   53.8735   15.0162 C   0  0  1  0  0  0  0  0  0  0  0  0
   34.9908   54.5061   17.3945 C   0  0  0  0  0  0  0  0  0  0  0  0
   35.8527   55.6311   17.7655 C   0  0  0  0  0  0  0  0  0  0  0  0
   35.5837   56.2902   19.0395 C   0  0  2  0  0  0  0  0  0  0  0  0
   35.7884   55.4459   20.2749 C   0  0  0  0  0  0  0  0  0  0  0  0
   35.8559   48.4071   15.9275 N   0  0  0  0  0  4  0  0  0  0  0  0
   38.0642   48.5182   16.7657 N   0  0  0  0  0  0  0  0  0  0  0  0
   37.2822   49.9103   14.8666 N   0  0  0  0  0  0  0  0  0  0  0  0
   34.7560   54.0464   16.0751 N   0  0  0  0  0  0  0  0  0  0  0  0
   34.3041   56.8567   19.2973 N   0  0  0  0  0  0  0  0  0  0  0  0
   32.0094   58.2062   16.8103 N   0  0  0  0  0  0  0  0  0  0  0  0
   34.5869   51.6937   11.3467 N   0  0  0  0  0  0  0  0  0  0  0  0
   34.9810   55.0621   12.8901 N   0  0  0  0  0  0  0  0  0  0  0  0
   34.3707   53.8448   18.3020 O   0  0  0  0  0  0  0  0  0  0  0  0
   32.0276   56.4623   18.9315 O   0  0  0  0  0  0  0  0  0  0  0  0
   32.5198   56.4805   20.4421 O   0  0  0  0  0  0  0  0  0  0  0  0
   36.0551   53.4319   11.0807 O   0  0  0  0  0  0  0  0  0  0  0  0
   36.5412   55.9932   14.3170 O   0  0  0  0  0  0  0  0  0  0  0  0
   31.5615   54.8680   12.5191 S   0  0  0  0  0  0  0  0  0  0  0  0
  1 34  2  0
  1 35  1  0
 36  1  1  0
  3  2  1  0
 33  2  1  0
 38  3  1  0
  5  4  1  0
  4 38  1  0
  4 43  2  0
 39  5  1  0
  6  7  1  0
 39  6  1  0
  7  8  2  0
  7 13  1  0
  8  9  1  0
  9 10  2  0
 11 10  1  0
 13 11  2  0
 23 12  1  0
 12 36  1  0
 13 14  1  0
 14 44  1  0
 16 15  1  0
 15 39  1  0
 16 17  1  0
 21 16  2  0
 17 18  2  0
 19 18  1  0
 20 19  2  0
 21 20  1  0
 22 21  1  0
 28 23  1  0
 25 24  1  0
 25 26  1  6
 41 25  1  0
 26 40  1  0
 26 45  2  0
 29 27  1  0
 27 41  1  0
 27 46  2  0
 29 28  1  1
 37 29  1  0
 31 30  1  0
 30 37  1  0
 30 42  2  0
 32 31  1  6
 32 33  1  0
 38 32  1  0
 47 22  1  0
 24 47  1  0
M  CHG  1  34   1
M  END
$$$$
