
     RDKit          3D

 47 50  0  0  0  0  0  0  0  0999 V2000
   36.3947   49.2288   15.1894 C   0  0  0  0  0  0  0  0  0  0  0  0
   36.3898   56.2532   21.5865 C   0  0  0  0  0  0  0  0  0  0  0  0
   35.2218   57.1418   21.1911 C   0  0  0  0  0  0  0  0  0  0  0  0
   33.5595   56.5901   19.2748 C   0  0  0  0  0  0  0  0  0  0  0  0
   33.1791   57.1326   17.9404 C   0  0  0  0  0  0  0  0  0  0  0  0
   32.1104   59.1546   18.6164 C   0  0  0  0  0  0  0  0  0  0  0  0
   31.6251   59.4174   19.9538 C   0  0  0  0  0  0  0  0  0  0  0  0
   30.2684   59.5267   20.1796 C   0  0  0  0  0  0  0  0  0  0  0  0
   29.7519   59.7487   21.4337 C   0  0  0  0  0  0  0  0  0  0  0  0
   30.5822   59.8714   22.5224 C   0  0  0  0  0  0  0  0  0  0  0  0
   31.9371   59.7655   22.3111 C   0  0  0  0  0  0  0  0  0  0  0  0
   36.2510   51.7378   15.1135 C   0  0  0  0  0  0  0  0  0  0  0  0
   32.4634   59.5400   21.0311 C   0  0  0  0  0  0  0  0  0  0  0  0
   33.9492   59.5066   20.9433 C   0  0  0  0  0  0  0  0  0  0  0  0
   30.7564   57.2852   17.7427 C   0  0  0  0  0  0  0  0  0  0  0  0
   30.0989   57.5712   16.4152 C   0  0  0  0  0  0  0  0  0  0  0  0
   29.0773   58.5348   16.3977 C   0  0  0  0  0  0  0  0  0  0  0  0
   28.3953   58.8859   15.2585 C   0  0  0  0  0  0  0  0  0  0  0  0
   28.7066   58.2829   14.0756 C   0  0  0  0  0  0  0  0  0  0  0  0
   29.7049   57.3357   14.0791 C   0  0  0  0  0  0  0  0  0  0  0  0
   30.4050   56.9736   15.2417 C   0  0  0  0  0  0  0  0  0  0  0  0
   31.4264   55.9073   15.0137 C   0  0  0  0  0  0  0  0  0  0  0  0
   37.4928   52.5686   14.9253 C   0  0  0  0  0  0  0  0  0  0  0  0
   32.2944   54.7959   12.3504 C   0  0  0  0  0  0  0  0  0  0  0  0
   33.5996   54.2951   12.9043 C   0  0  1  0  0  0  0  0  0  0  0  0
   34.3167   53.5745   11.8265 C   0  0  0  0  0  0  0  0  0  0  0  0
   35.3826   55.4516   14.2860 C   0  0  0  0  0  0  0  0  0  0  0  0
   37.1040   54.0124   15.1931 C   0  0  0  0  0  0  0  0  0  0  0  0
   35.6203   54.2246   15.1022 C   0  0  1  0  0  0  0  0  0  0  0  0
   35.3699   54.5768   17.6226 C   0  0  0  0  0  0  0  0  0  0  0  0
   36.1640   55.7689   17.9297 C   0  0  0  0  0  0  0  0  0  0  0  0
   36.0958   56.2874   19.2923 C   0  0  2  0  0  0  0  0  0  0  0  0
   36.6418   55.3816   20.3705 C   0  0  0  0  0  0  0  0  0  0  0  0
   36.6889   49.2102   16.4333 N   0  0  0  0  0  4  0  0  0  0  0  0
   36.2349   47.9749   14.4688 N   0  0  0  0  0  0  0  0  0  0  0  0
   36.2577   50.4555   14.5142 N   0  0  0  0  0  0  0  0  0  0  0  0
   34.9175   54.1957   16.3353 N   0  0  0  0  0  0  0  0  0  0  0  0
   34.8442   56.6662   19.8532 N   0  0  0  0  0  0  0  0  0  0  0  0
   31.9521   57.9060   18.0172 N   0  0  0  0  0  0  0  0  0  0  0  0
   35.6592   53.8950   11.4829 N   0  0  0  0  0  0  0  0  0  0  0  0
   34.3665   55.4774   13.2890 N   0  0  0  0  0  0  0  0  0  0  0  0
   35.0263   53.7737   18.5621 O   0  0  0  0  0  0  0  0  0  0  0  0
   32.5972   56.0179   19.9040 O   0  0  0  0  0  0  0  0  0  0  0  0
   34.4332   59.0373   22.1754 O   0  0  0  0  0  0  0  0  0  0  0  0
   33.7593   52.6521   11.1770 O   0  0  0  0  0  0  0  0  0  0  0  0
   36.0793   56.4833   14.4685 O   0  0  0  0  0  0  0  0  0  0  0  0
   30.9855   54.8835   13.5800 S   0  0  0  0  0  0  0  0  0  0  0  0
  1 34  2  0
  1 35  1  0
 36  1  1  0
  3  2  1  0
 33  2  1  0
 38  3  1  0
  5  4  1  0
  4 38  1  0
  4 43  2  0
 39  5  1  0
  6  7  1  0
 39  6  1  0
  7  8  2  0
  7 13  1  0
  8  9  1  0
  9 10  2  0
 11 10  1  0
 13 11  2  0
 23 12  1  0
 12 36  1  0
 13 14  1  0
 14 44  1  0
 16 15  1  0
 15 39  1  0
 16 17  1  0
 21 16  2  0
 17 18  2  0
 19 18  1  0
 20 19  2  0
 21 20  1  0
 22 21  1  0
 28 23  1  0
 25 24  1  0
 25 26  1  6
 41 25  1  0
 26 40  1  0
 26 45  2  0
 29 27  1  0
 27 41  1  0
 27 46  2  0
 29 28  1  1
 37 29  1  0
 31 30  1  0
 30 37  1  0
 30 42  2  0
 32 31  1  6
 32 33  1  0
 38 32  1  0
 47 22  1  0
 24 47  1  0
M  CHG  1  34   1
M  END
$$$$
