
     RDKit          3D

 47 50  0  0  0  0  0  0  0  0999 V2000
   36.4691   48.8260   15.4692 C   0  0  0  0  0  0  0  0  0  0  0  0
   29.2981   56.5216   16.1335 C   0  0  0  0  0  0  0  0  0  0  0  0
   29.9049   57.5343   17.0909 C   0  0  0  0  0  0  0  0  0  0  0  0
   32.3753   58.3264   16.9947 C   0  0  0  0  0  0  0  0  0  0  0  0
   33.6066   58.2361   17.8286 C   0  0  0  0  0  0  0  0  0  0  0  0
   32.9688   59.6448   19.6442 C   0  0  0  0  0  0  0  0  0  0  0  0
   31.7645   58.8554   19.7844 C   0  0  0  0  0  0  0  0  0  0  0  0
   31.7991   57.6767   20.5008 C   0  0  0  0  0  0  0  0  0  0  0  0
   30.6794   56.9022   20.6879 C   0  0  0  0  0  0  0  0  0  0  0  0
   29.4683   57.2810   20.1593 C   0  0  0  0  0  0  0  0  0  0  0  0
   29.4200   58.4535   19.4419 C   0  0  0  0  0  0  0  0  0  0  0  0
   36.0109   51.1506   14.6279 C   0  0  0  0  0  0  0  0  0  0  0  0
   30.5631   59.2428   19.2506 C   0  0  0  0  0  0  0  0  0  0  0  0
   30.3748   60.4530   18.4043 C   0  0  0  0  0  0  0  0  0  0  0  0
   34.6630   60.4217   18.0263 C   0  0  0  0  0  0  0  0  0  0  0  0
   36.0468   60.5691   18.6093 C   0  0  0  0  0  0  0  0  0  0  0  0
   36.2416   61.5907   19.5531 C   0  0  0  0  0  0  0  0  0  0  0  0
   37.4509   61.8353   20.1565 C   0  0  0  0  0  0  0  0  0  0  0  0
   38.5290   61.0627   19.8395 C   0  0  0  0  0  0  0  0  0  0  0  0
   38.3519   60.0588   18.9150 C   0  0  0  0  0  0  0  0  0  0  0  0
   37.1171   59.8052   18.2955 C   0  0  0  0  0  0  0  0  0  0  0  0
   37.1656   58.6851   17.3079 C   0  0  0  0  0  0  0  0  0  0  0  0
   36.2778   52.2168   15.6575 C   0  0  0  0  0  0  0  0  0  0  0  0
   39.4779   56.8116   16.8336 C   0  0  0  0  0  0  0  0  0  0  0  0
   38.5942   55.7626   16.2173 C   0  0  1  0  0  0  0  0  0  0  0  0
   39.4500   54.6425   15.7611 C   0  0  0  0  0  0  0  0  0  0  0  0
   36.4320   54.7139   17.0243 C   0  0  0  0  0  0  0  0  0  0  0  0
   35.2728   53.3293   15.4131 C   0  0  0  0  0  0  0  0  0  0  0  0
   35.8672   54.6888   15.6428 C   0  0  1  0  0  0  0  0  0  0  0  0
   33.6130   55.8736   15.4097 C   0  0  0  0  0  0  0  0  0  0  0  0
   32.7843   55.3509   16.4987 C   0  0  0  0  0  0  0  0  0  0  0  0
   31.4707   55.9569   16.6920 C   0  0  2  0  0  0  0  0  0  0  0  0
   30.4855   55.7692   15.5628 C   0  0  0  0  0  0  0  0  0  0  0  0
   37.7276   49.0255   15.5707 N   0  0  0  0  0  4  0  0  0  0  0  0
   35.9327   47.4900   15.6806 N   0  0  0  0  0  0  0  0  0  0  0  0
   35.6114   49.8864   15.1236 N   0  0  0  0  0  0  0  0  0  0  0  0
   35.0253   55.7893   15.3338 N   0  0  0  0  0  0  0  0  0  0  0  0
   31.3546   57.3541   16.9345 N   0  0  0  0  0  0  0  0  0  0  0  0
   33.8341   59.4667   18.5659 N   0  0  0  0  0  0  0  0  0  0  0  0
   39.5623   54.3050   14.3840 N   0  0  0  0  0  0  0  0  0  0  0  0
   37.7077   55.2927   17.2791 N   0  0  0  0  0  0  0  0  0  0  0  0
   33.0655   56.4682   14.4136 O   0  0  0  0  0  0  0  0  0  0  0  0
   32.2910   59.4003   16.2954 O   0  0  0  0  0  0  0  0  0  0  0  0
   30.3778   60.0339   17.0638 O   0  0  0  0  0  0  0  0  0  0  0  0
   40.1078   53.9499   16.5804 O   0  0  0  0  0  0  0  0  0  0  0  0
   35.7863   54.2223   17.9858 O   0  0  0  0  0  0  0  0  0  0  0  0
   38.8421   58.4822   16.6398 S   0  0  0  0  0  0  0  0  0  0  0  0
  1 34  2  0
  1 35  1  0
 36  1  1  0
  3  2  1  0
 33  2  1  0
 38  3  1  0
  5  4  1  0
  4 38  1  0
  4 43  2  0
 39  5  1  0
  6  7  1  0
 39  6  1  0
  7  8  2  0
  7 13  1  0
  8  9  1  0
  9 10  2  0
 11 10  1  0
 13 11  2  0
 23 12  1  0
 12 36  1  0
 13 14  1  0
 14 44  1  0
 16 15  1  0
 15 39  1  0
 16 17  1  0
 21 16  2  0
 17 18  2  0
 19 18  1  0
 20 19  2  0
 21 20  1  0
 22 21  1  0
 28 23  1  0
 25 24  1  0
 25 26  1  1
 41 25  1  0
 26 40  1  0
 26 45  2  0
 29 27  1  0
 27 41  1  0
 27 46  2  0
 29 28  1  1
 37 29  1  0
 31 30  1  0
 30 37  1  0
 30 42  2  0
 32 31  1  6
 32 33  1  0
 38 32  1  0
 47 22  1  0
 24 47  1  0
M  CHG  1  34   1
M  END
$$$$
