
     RDKit          3D

 47 50  0  0  0  0  0  0  0  0999 V2000
   35.7583   49.1237   16.2285 C   0  0  0  0  0  0  0  0  0  0  0  0
   33.2956   55.3966   20.6991 C   0  0  0  0  0  0  0  0  0  0  0  0
   33.9399   56.6427   20.1140 C   0  0  0  0  0  0  0  0  0  0  0  0
   33.4257   57.5684   17.7437 C   0  0  0  0  0  0  0  0  0  0  0  0
   34.1323   57.7606   16.4462 C   0  0  0  0  0  0  0  0  0  0  0  0
   35.6454   59.4975   17.0640 C   0  0  0  0  0  0  0  0  0  0  0  0
   35.4736   59.9939   18.4121 C   0  0  0  0  0  0  0  0  0  0  0  0
   36.0341   59.3078   19.4699 C   0  0  0  0  0  0  0  0  0  0  0  0
   35.9249   59.7488   20.7669 C   0  0  0  0  0  0  0  0  0  0  0  0
   35.2428   60.9060   21.0591 C   0  0  0  0  0  0  0  0  0  0  0  0
   34.6783   61.5992   20.0139 C   0  0  0  0  0  0  0  0  0  0  0  0
   34.1790   50.7098   15.0834 C   0  0  0  0  0  0  0  0  0  0  0  0
   34.7893   61.1481   18.6909 C   0  0  0  0  0  0  0  0  0  0  0  0
   34.0789   61.9669   17.6704 C   0  0  0  0  0  0  0  0  0  0  0  0
   33.7355   60.0041   15.5851 C   0  0  0  0  0  0  0  0  0  0  0  0
   34.1309   60.3807   14.1786 C   0  0  0  0  0  0  0  0  0  0  0  0
   34.8010   61.6025   14.0042 C   0  0  0  0  0  0  0  0  0  0  0  0
   35.2120   62.0656   12.7782 C   0  0  0  0  0  0  0  0  0  0  0  0
   34.9683   61.3210   11.6621 C   0  0  0  0  0  0  0  0  0  0  0  0
   34.3111   60.1221   11.8189 C   0  0  0  0  0  0  0  0  0  0  0  0
   33.8890   59.6448   13.0706 C   0  0  0  0  0  0  0  0  0  0  0  0
   33.1739   58.3349   12.9979 C   0  0  0  0  0  0  0  0  0  0  0  0
   34.1571   52.1869   14.7907 C   0  0  0  0  0  0  0  0  0  0  0  0
   32.8985   56.5750   10.5672 C   0  0  0  0  0  0  0  0  0  0  0  0
   32.6205   55.3517   11.3963 C   0  0  1  0  0  0  0  0  0  0  0  0
   32.3408   54.2219   10.4796 C   0  0  0  0  0  0  0  0  0  0  0  0
   33.8505   54.3618   13.3796 C   0  0  0  0  0  0  0  0  0  0  0  0
   32.7090   52.5651   14.5310 C   0  0  0  0  0  0  0  0  0  0  0  0
   32.5719   53.9805   14.0490 C   0  0  1  0  0  0  0  0  0  0  0  0
   32.3077   54.9141   16.4150 C   0  0  0  0  0  0  0  0  0  0  0  0
   33.5623   54.5960   17.1012 C   0  0  0  0  0  0  0  0  0  0  0  0
   33.7463   55.1334   18.4456 C   0  0  2  0  0  0  0  0  0  0  0  0
   32.7903   54.6215   19.4968 C   0  0  0  0  0  0  0  0  0  0  0  0
   34.8197   48.4494   16.7746 N   0  0  0  0  0  4  0  0  0  0  0  0
   37.1409   48.8660   16.6017 N   0  0  0  0  0  0  0  0  0  0  0  0
   35.4533   50.1314   15.2952 N   0  0  0  0  0  0  0  0  0  0  0  0
   32.1124   54.9171   15.0117 N   0  0  0  0  0  0  0  0  0  0  0  0
   33.6839   56.5369   18.6711 N   0  0  0  0  0  0  0  0  0  0  0  0
   34.5527   59.1404   16.2755 N   0  0  0  0  0  0  0  0  0  0  0  0
   31.0440   54.0089    9.9354 N   0  0  0  0  0  0  0  0  0  0  0  0
   33.8427   55.0743   12.1469 N   0  0  0  0  0  0  0  0  0  0  0  0
   31.2643   55.2238   17.0938 O   0  0  0  0  0  0  0  0  0  0  0  0
   32.5181   58.4447   17.9835 O   0  0  0  0  0  0  0  0  0  0  0  0
   33.8149   63.2205   18.2460 O   0  0  0  0  0  0  0  0  0  0  0  0
   33.2447   53.4102   10.1515 O   0  0  0  0  0  0  0  0  0  0  0  0
   34.9562   54.0579   13.8973 O   0  0  0  0  0  0  0  0  0  0  0  0
   32.4040   58.1064   11.3691 S   0  0  0  0  0  0  0  0  0  0  0  0
  1 34  2  0
  1 35  1  0
 36  1  1  0
  3  2  1  0
 33  2  1  0
 38  3  1  0
  5  4  1  0
  4 38  1  0
  4 43  2  0
 39  5  1  0
  6  7  1  0
 39  6  1  0
  7  8  2  0
  7 13  1  0
  8  9  1  0
  9 10  2  0
 11 10  1  0
 13 11  2  0
 23 12  1  0
 12 36  1  0
 13 14  1  0
 14 44  1  0
 16 15  1  0
 15 39  1  0
 16 17  1  0
 21 16  2  0
 17 18  2  0
 19 18  1  0
 20 19  2  0
 21 20  1  0
 22 21  1  0
 28 23  1  0
 25 24  1  0
 25 26  1  6
 41 25  1  0
 26 40  1  0
 26 45  2  0
 29 27  1  0
 27 41  1  0
 27 46  2  0
 29 28  1  1
 37 29  1  0
 31 30  1  0
 30 37  1  0
 30 42  2  0
 32 31  1  6
 32 33  1  0
 38 32  1  0
 47 22  1  0
 24 47  1  0
M  CHG  1  34   1
M  END
$$$$
