
     RDKit          3D

 47 50  0  0  0  0  0  0  0  0999 V2000
   35.5793   48.8426   15.6430 C   0  0  0  0  0  0  0  0  0  0  0  0
   31.9844   56.7333   21.5437 C   0  0  0  0  0  0  0  0  0  0  0  0
   32.9941   57.7115   20.9657 C   0  0  0  0  0  0  0  0  0  0  0  0
   33.3429   58.1080   18.4239 C   0  0  0  0  0  0  0  0  0  0  0  0
   34.4030   57.8946   17.3991 C   0  0  0  0  0  0  0  0  0  0  0  0
   35.9942   59.5181   18.1203 C   0  0  0  0  0  0  0  0  0  0  0  0
   35.9294   58.9397   19.4448 C   0  0  0  0  0  0  0  0  0  0  0  0
   36.8239   57.9526   19.8044 C   0  0  0  0  0  0  0  0  0  0  0  0
   36.8244   57.3881   21.0574 C   0  0  0  0  0  0  0  0  0  0  0  0
   35.9195   57.7935   22.0096 C   0  0  0  0  0  0  0  0  0  0  0  0
   35.0214   58.7761   21.6639 C   0  0  0  0  0  0  0  0  0  0  0  0
   34.2946   51.0018   15.5504 C   0  0  0  0  0  0  0  0  0  0  0  0
   35.0209   59.3510   20.3850 C   0  0  0  0  0  0  0  0  0  0  0  0
   33.9553   60.3598   20.1336 C   0  0  0  0  0  0  0  0  0  0  0  0
   34.7020   59.9023   16.0529 C   0  0  0  0  0  0  0  0  0  0  0  0
   35.5349   59.8808   14.7951 C   0  0  0  0  0  0  0  0  0  0  0  0
   36.4510   60.9296   14.6124 C   0  0  0  0  0  0  0  0  0  0  0  0
   37.2657   61.0320   13.5114 C   0  0  0  0  0  0  0  0  0  0  0  0
   37.1994   60.0822   12.5352 C   0  0  0  0  0  0  0  0  0  0  0  0
   36.3048   59.0497   12.7013 C   0  0  0  0  0  0  0  0  0  0  0  0
   35.4699   58.9410   13.8255 C   0  0  0  0  0  0  0  0  0  0  0  0
   34.5626   57.7548   13.7805 C   0  0  0  0  0  0  0  0  0  0  0  0
   32.8579   51.3836   15.3093 C   0  0  0  0  0  0  0  0  0  0  0  0
   34.6317   55.5200   11.7599 C   0  0  0  0  0  0  0  0  0  0  0  0
   33.9042   54.5742   12.6750 C   0  0  1  0  0  0  0  0  0  0  0  0
   33.6743   53.3053   11.9456 C   0  0  0  0  0  0  0  0  0  0  0  0
   34.3235   53.9320   15.0912 C   0  0  0  0  0  0  0  0  0  0  0  0
   32.5829   52.6218   16.1451 C   0  0  0  0  0  0  0  0  0  0  0  0
   32.8613   53.8883   15.3882 C   0  0  1  0  0  0  0  0  0  0  0  0
   32.1416   55.3818   17.3352 C   0  0  0  0  0  0  0  0  0  0  0  0
   33.0719   55.0759   18.4247 C   0  0  0  0  0  0  0  0  0  0  0  0
   32.9788   55.8880   19.6338 C   0  0  2  0  0  0  0  0  0  0  0  0
   31.6897   55.7674   20.4114 C   0  0  0  0  0  0  0  0  0  0  0  0
   35.6910   47.6526   15.1899 N   0  0  0  0  0  4  0  0  0  0  0  0
   36.3307   49.2361   16.8253 N   0  0  0  0  0  0  0  0  0  0  0  0
   34.7100   49.7569   15.0203 N   0  0  0  0  0  0  0  0  0  0  0  0
   32.3450   55.0775   15.9665 N   0  0  0  0  0  0  0  0  0  0  0  0
   33.1302   57.3010   19.5616 N   0  0  0  0  0  0  0  0  0  0  0  0
   35.1135   59.1286   17.1124 N   0  0  0  0  0  0  0  0  0  0  0  0
   32.5751   53.1467   11.0570 N   0  0  0  0  0  0  0  0  0  0  0  0
   34.7942   54.3271   13.8068 N   0  0  0  0  0  0  0  0  0  0  0  0
   31.0322   55.9754   17.5848 O   0  0  0  0  0  0  0  0  0  0  0  0
   32.5922   59.1258   18.2005 O   0  0  0  0  0  0  0  0  0  0  0  0
   32.7544   59.6610   19.9279 O   0  0  0  0  0  0  0  0  0  0  0  0
   34.4467   52.3224   12.0892 O   0  0  0  0  0  0  0  0  0  0  0  0
   35.1629   53.6191   15.9747 O   0  0  0  0  0  0  0  0  0  0  0  0
   34.2423   57.2484   12.0661 S   0  0  0  0  0  0  0  0  0  0  0  0
  1 34  2  0
  1 35  1  0
 36  1  1  0
  3  2  1  0
 33  2  1  0
 38  3  1  0
  5  4  1  0
  4 38  1  0
  4 43  2  0
 39  5  1  0
  6  7  1  0
 39  6  1  0
  7  8  2  0
  7 13  1  0
  8  9  1  0
  9 10  2  0
 11 10  1  0
 13 11  2  0
 23 12  1  0
 12 36  1  0
 13 14  1  0
 14 44  1  0
 16 15  1  0
 15 39  1  0
 16 17  1  0
 21 16  2  0
 17 18  2  0
 19 18  1  0
 20 19  2  0
 21 20  1  0
 22 21  1  0
 28 23  1  0
 25 24  1  0
 25 26  1  6
 41 25  1  0
 26 40  1  0
 26 45  2  0
 29 27  1  0
 27 41  1  0
 27 46  2  0
 29 28  1  1
 37 29  1  0
 31 30  1  0
 30 37  1  0
 30 42  2  0
 32 31  1  6
 32 33  1  0
 38 32  1  0
 47 22  1  0
 24 47  1  0
M  CHG  1  34   1
M  END
$$$$
