
     RDKit          3D

 47 50  0  0  0  0  0  0  0  0999 V2000
   36.9812   49.3070   15.2330 C   0  0  0  0  0  0  0  0  0  0  0  0
   35.8231   55.9733   21.5541 C   0  0  0  0  0  0  0  0  0  0  0  0
   34.7527   56.9560   21.1080 C   0  0  0  0  0  0  0  0  0  0  0  0
   33.2446   56.6146   19.0226 C   0  0  0  0  0  0  0  0  0  0  0  0
   33.0230   57.2494   17.6931 C   0  0  0  0  0  0  0  0  0  0  0  0
   32.0209   59.2994   18.3866 C   0  0  0  0  0  0  0  0  0  0  0  0
   31.5305   59.4823   19.7354 C   0  0  0  0  0  0  0  0  0  0  0  0
   30.2593   59.9783   19.9394 C   0  0  0  0  0  0  0  0  0  0  0  0
   29.7338   60.1465   21.1981 C   0  0  0  0  0  0  0  0  0  0  0  0
   30.4682   59.8215   22.3138 C   0  0  0  0  0  0  0  0  0  0  0  0
   31.7376   59.3269   22.1246 C   0  0  0  0  0  0  0  0  0  0  0  0
   36.3648   51.7022   14.7811 C   0  0  0  0  0  0  0  0  0  0  0  0
   32.2734   59.1566   20.8401 C   0  0  0  0  0  0  0  0  0  0  0  0
   33.6789   58.6683   20.7890 C   0  0  0  0  0  0  0  0  0  0  0  0
   30.6427   57.5707   17.2894 C   0  0  0  0  0  0  0  0  0  0  0  0
   30.1295   57.9677   15.9273 C   0  0  0  0  0  0  0  0  0  0  0  0
   29.1743   58.9959   15.8744 C   0  0  0  0  0  0  0  0  0  0  0  0
   28.6231   59.4495   14.7010 C   0  0  0  0  0  0  0  0  0  0  0  0
   29.0056   58.8896   13.5179 C   0  0  0  0  0  0  0  0  0  0  0  0
   29.9400   57.8800   13.5558 C   0  0  0  0  0  0  0  0  0  0  0  0
   30.5061   57.4130   14.7533 C   0  0  0  0  0  0  0  0  0  0  0  0
   31.4777   56.2952   14.5562 C   0  0  0  0  0  0  0  0  0  0  0  0
   37.2007   52.6108   15.6435 C   0  0  0  0  0  0  0  0  0  0  0  0
   32.5195   55.2688   11.9212 C   0  0  0  0  0  0  0  0  0  0  0  0
   33.7351   54.6554   12.5595 C   0  0  1  0  0  0  0  0  0  0  0  0
   34.5039   53.9462   11.5102 C   0  0  0  0  0  0  0  0  0  0  0  0
   35.4494   55.6192   14.1589 C   0  0  0  0  0  0  0  0  0  0  0  0
   36.9889   54.0251   15.1313 C   0  0  0  0  0  0  0  0  0  0  0  0
   35.5357   54.3386   14.9210 C   0  0  1  0  0  0  0  0  0  0  0  0
   35.0748   54.5753   17.4252 C   0  0  0  0  0  0  0  0  0  0  0  0
   35.9078   55.6952   17.8700 C   0  0  0  0  0  0  0  0  0  0  0  0
   35.7454   56.1457   19.2486 C   0  0  2  0  0  0  0  0  0  0  0  0
   36.1332   55.1514   20.3172 C   0  0  0  0  0  0  0  0  0  0  0  0
   36.1438   49.1654   16.1884 N   0  0  0  0  0  4  0  0  0  0  0  0
   37.9900   48.2840   15.0026 N   0  0  0  0  0  0  0  0  0  0  0  0
   36.9473   50.4611   14.4291 N   0  0  0  0  0  0  0  0  0  0  0  0
   34.7212   54.2919   16.0828 N   0  0  0  0  0  0  0  0  0  0  0  0
   34.4724   56.5762   19.7166 N   0  0  0  0  0  0  0  0  0  0  0  0
   31.8432   58.0966   17.7047 N   0  0  0  0  0  0  0  0  0  0  0  0
   33.9048   52.9437   10.6983 N   0  0  0  0  0  0  0  0  0  0  0  0
   34.5333   55.7633   13.0785 N   0  0  0  0  0  0  0  0  0  0  0  0
   34.5976   53.7489   18.2824 O   0  0  0  0  0  0  0  0  0  0  0  0
   32.1952   56.0750   19.5296 O   0  0  0  0  0  0  0  0  0  0  0  0
   33.7300   57.4579   21.4996 O   0  0  0  0  0  0  0  0  0  0  0  0
   35.7170   54.2081   11.3024 O   0  0  0  0  0  0  0  0  0  0  0  0
   36.1874   56.5921   14.4619 O   0  0  0  0  0  0  0  0  0  0  0  0
   31.1102   55.3782   13.0323 S   0  0  0  0  0  0  0  0  0  0  0  0
  1 34  2  0
  1 35  1  0
 36  1  1  0
  3  2  1  0
 33  2  1  0
 38  3  1  0
  5  4  1  0
  4 38  1  0
  4 43  2  0
 39  5  1  0
  6  7  1  0
 39  6  1  0
  7  8  2  0
  7 13  1  0
  8  9  1  0
  9 10  2  0
 11 10  1  0
 13 11  2  0
 23 12  1  0
 12 36  1  0
 13 14  1  0
 14 44  1  0
 16 15  1  0
 15 39  1  0
 16 17  1  0
 21 16  2  0
 17 18  2  0
 19 18  1  0
 20 19  2  0
 21 20  1  0
 22 21  1  0
 28 23  1  0
 25 24  1  0
 25 26  1  6
 41 25  1  0
 26 40  1  0
 26 45  2  0
 29 27  1  0
 27 41  1  0
 27 46  2  0
 29 28  1  1
 37 29  1  0
 31 30  1  0
 30 37  1  0
 30 42  2  0
 32 31  1  6
 32 33  1  0
 38 32  1  0
 47 22  1  0
 24 47  1  0
M  CHG  1  34   1
M  END
$$$$
