
     RDKit          3D

 47 50  0  0  0  0  0  0  0  0999 V2000
   36.3841   49.4169   15.8665 C   0  0  0  0  0  0  0  0  0  0  0  0
   33.5218   56.2951   21.1103 C   0  0  0  0  0  0  0  0  0  0  0  0
   34.0942   57.4095   20.2496 C   0  0  0  0  0  0  0  0  0  0  0  0
   33.4964   57.7674   17.7488 C   0  0  0  0  0  0  0  0  0  0  0  0
   34.1714   57.7009   16.4223 C   0  0  0  0  0  0  0  0  0  0  0  0
   35.6067   59.5969   16.6042 C   0  0  0  0  0  0  0  0  0  0  0  0
   35.4224   60.4973   17.7217 C   0  0  0  0  0  0  0  0  0  0  0  0
   34.4949   61.5150   17.6339 C   0  0  0  0  0  0  0  0  0  0  0  0
   34.2603   62.3815   18.6745 C   0  0  0  0  0  0  0  0  0  0  0  0
   34.9525   62.2621   19.8562 C   0  0  0  0  0  0  0  0  0  0  0  0
   35.8809   61.2523   19.9566 C   0  0  0  0  0  0  0  0  0  0  0  0
   34.5003   50.5806   14.6756 C   0  0  0  0  0  0  0  0  0  0  0  0
   36.1204   60.3692   18.8942 C   0  0  0  0  0  0  0  0  0  0  0  0
   37.1939   59.3635   19.1232 C   0  0  0  0  0  0  0  0  0  0  0  0
   33.6503   59.6801   15.1019 C   0  0  0  0  0  0  0  0  0  0  0  0
   34.0037   59.7554   13.6370 C   0  0  0  0  0  0  0  0  0  0  0  0
   34.6097   60.9377   13.1816 C   0  0  0  0  0  0  0  0  0  0  0  0
   34.9773   61.1376   11.8734 C   0  0  0  0  0  0  0  0  0  0  0  0
   34.7526   60.1557   10.9542 C   0  0  0  0  0  0  0  0  0  0  0  0
   34.1581   58.9925   11.3872 C   0  0  0  0  0  0  0  0  0  0  0  0
   33.7805   58.7839   12.7238 C   0  0  0  0  0  0  0  0  0  0  0  0
   33.1299   57.4595   12.9587 C   0  0  0  0  0  0  0  0  0  0  0  0
   34.4231   51.6942   15.6865 C   0  0  0  0  0  0  0  0  0  0  0  0
   32.9023   55.1975   10.9804 C   0  0  0  0  0  0  0  0  0  0  0  0
   32.6987   54.1753   12.0643 C   0  0  1  0  0  0  0  0  0  0  0  0
   32.4602   52.8603   11.4250 C   0  0  0  0  0  0  0  0  0  0  0  0
   34.0081   53.7018   14.1826 C   0  0  0  0  0  0  0  0  0  0  0  0
   32.9757   52.1532   15.7295 C   0  0  0  0  0  0  0  0  0  0  0  0
   32.7610   53.4203   14.9532 C   0  0  1  0  0  0  0  0  0  0  0  0
   32.4895   54.8387   17.0636 C   0  0  0  0  0  0  0  0  0  0  0  0
   33.7693   54.7356   17.7690 C   0  0  0  0  0  0  0  0  0  0  0  0
   33.9483   55.5631   18.9578 C   0  0  2  0  0  0  0  0  0  0  0  0
   33.0360   55.2528   20.1207 C   0  0  0  0  0  0  0  0  0  0  0  0
   36.3330   48.9540   17.0569 N   0  0  0  0  0  4  0  0  0  0  0  0
   37.6349   49.9593   15.3582 N   0  0  0  0  0  0  0  0  0  0  0  0
   35.2287   49.4308   15.0638 N   0  0  0  0  0  0  0  0  0  0  0  0
   32.2714   54.5243   15.6995 N   0  0  0  0  0  0  0  0  0  0  0  0
   33.8203   56.9777   18.8722 N   0  0  0  0  0  0  0  0  0  0  0  0
   34.5203   59.0268   15.9425 N   0  0  0  0  0  0  0  0  0  0  0  0
   31.1440   52.3766   11.1866 N   0  0  0  0  0  0  0  0  0  0  0  0
   33.9451   54.1247   12.8245 N   0  0  0  0  0  0  0  0  0  0  0  0
   31.4432   55.2432   17.6858 O   0  0  0  0  0  0  0  0  0  0  0  0
   32.5506   58.6336   17.8151 O   0  0  0  0  0  0  0  0  0  0  0  0
   36.6170   58.2801   19.8060 O   0  0  0  0  0  0  0  0  0  0  0  0
   33.4180   52.1250   11.0709 O   0  0  0  0  0  0  0  0  0  0  0  0
   35.1358   53.5688   14.7245 O   0  0  0  0  0  0  0  0  0  0  0  0
   32.3459   56.8442   11.4406 S   0  0  0  0  0  0  0  0  0  0  0  0
  1 34  2  0
  1 35  1  0
 36  1  1  0
  3  2  1  0
 33  2  1  0
 38  3  1  0
  5  4  1  0
  4 38  1  0
  4 43  2  0
 39  5  1  0
  6  7  1  0
 39  6  1  0
  7  8  2  0
  7 13  1  0
  8  9  1  0
  9 10  2  0
 11 10  1  0
 13 11  2  0
 23 12  1  0
 12 36  1  0
 13 14  1  0
 14 44  1  0
 16 15  1  0
 15 39  1  0
 16 17  1  0
 21 16  2  0
 17 18  2  0
 19 18  1  0
 20 19  2  0
 21 20  1  0
 22 21  1  0
 28 23  1  0
 25 24  1  0
 25 26  1  6
 41 25  1  0
 26 40  1  0
 26 45  2  0
 29 27  1  0
 27 41  1  0
 27 46  2  0
 29 28  1  1
 37 29  1  0
 31 30  1  0
 30 37  1  0
 30 42  2  0
 32 31  1  6
 32 33  1  0
 38 32  1  0
 47 22  1  0
 24 47  1  0
M  CHG  1  34   1
M  END
$$$$
