
     RDKit          3D

 47 50  0  0  0  0  0  0  0  0999 V2000
   35.7991   49.1291   15.0480 C   0  0  0  0  0  0  0  0  0  0  0  0
   29.3821   58.1611   13.7530 C   0  0  0  0  0  0  0  0  0  0  0  0
   29.4761   58.2749   15.2658 C   0  0  0  0  0  0  0  0  0  0  0  0
   31.6769   57.9820   16.6113 C   0  0  0  0  0  0  0  0  0  0  0  0
   32.2553   57.0372   17.6075 C   0  0  0  0  0  0  0  0  0  0  0  0
   30.8834   57.5465   19.4907 C   0  0  0  0  0  0  0  0  0  0  0  0
   30.4061   58.5966   20.3640 C   0  0  0  0  0  0  0  0  0  0  0  0
   29.9656   58.2827   21.6333 C   0  0  0  0  0  0  0  0  0  0  0  0
   29.5274   59.2433   22.5131 C   0  0  0  0  0  0  0  0  0  0  0  0
   29.5126   60.5699   22.1527 C   0  0  0  0  0  0  0  0  0  0  0  0
   29.9482   60.8964   20.8897 C   0  0  0  0  0  0  0  0  0  0  0  0
   34.9576   51.3395   14.1956 C   0  0  0  0  0  0  0  0  0  0  0  0
   30.3942   59.9157   19.9923 C   0  0  0  0  0  0  0  0  0  0  0  0
   30.7799   60.4078   18.6412 C   0  0  0  0  0  0  0  0  0  0  0  0
   33.2457   58.2609   19.4660 C   0  0  0  0  0  0  0  0  0  0  0  0
   34.1091   57.5627   20.4874 C   0  0  0  0  0  0  0  0  0  0  0  0
   33.8655   57.8508   21.8402 C   0  0  0  0  0  0  0  0  0  0  0  0
   34.5810   57.2881   22.8687 C   0  0  0  0  0  0  0  0  0  0  0  0
   35.5813   56.4049   22.5876 C   0  0  0  0  0  0  0  0  0  0  0  0
   35.8312   56.1149   21.2657 C   0  0  0  0  0  0  0  0  0  0  0  0
   35.1021   56.6880   20.2108 C   0  0  0  0  0  0  0  0  0  0  0  0
   35.5639   56.2476   18.8599 C   0  0  0  0  0  0  0  0  0  0  0  0
   35.3389   52.4384   13.2389 C   0  0  0  0  0  0  0  0  0  0  0  0
   37.5787   54.0854   18.2703 C   0  0  0  0  0  0  0  0  0  0  0  0
   37.0663   53.8906   16.8701 C   0  0  1  0  0  0  0  0  0  0  0  0
   37.9212   52.8849   16.1974 C   0  0  0  0  0  0  0  0  0  0  0  0
   34.7191   53.5255   15.9849 C   0  0  0  0  0  0  0  0  0  0  0  0
   34.4758   53.6410   13.5798 C   0  0  0  0  0  0  0  0  0  0  0  0
   34.9821   54.3764   14.7870 C   0  0  1  0  0  0  0  0  0  0  0  0
   33.3287   56.3039   14.4862 C   0  0  0  0  0  0  0  0  0  0  0  0
   32.0002   55.7015   14.6209 C   0  0  0  0  0  0  0  0  0  0  0  0
   30.8524   56.6030   14.6255 C   0  0  2  0  0  0  0  0  0  0  0  0
   30.6119   57.3707   13.3473 C   0  0  0  0  0  0  0  0  0  0  0  0
   34.8677   48.9377   15.9023 N   0  0  0  0  0  4  0  0  0  0  0  0
   37.0213   48.3434   15.1276 N   0  0  0  0  0  0  0  0  0  0  0  0
   35.6559   50.1164   14.0560 N   0  0  0  0  0  0  0  0  0  0  0  0
   34.5464   55.7214   14.9163 N   0  0  0  0  0  0  0  0  0  0  0  0
   30.7592   57.6397   15.5956 N   0  0  0  0  0  0  0  0  0  0  0  0
   32.1696   57.5750   18.9541 N   0  0  0  0  0  0  0  0  0  0  0  0
   39.2486   53.1908   15.7884 N   0  0  0  0  0  0  0  0  0  0  0  0
   35.7090   53.3653   16.9957 N   0  0  0  0  0  0  0  0  0  0  0  0
   33.4593   57.4569   13.9395 O   0  0  0  0  0  0  0  0  0  0  0  0
   32.0834   59.1937   16.7374 O   0  0  0  0  0  0  0  0  0  0  0  0
   29.9640   61.5125   18.3469 O   0  0  0  0  0  0  0  0  0  0  0  0
   37.4991   51.7225   15.9644 O   0  0  0  0  0  0  0  0  0  0  0  0
   33.6155   52.9362   16.1181 O   0  0  0  0  0  0  0  0  0  0  0  0
   37.3090   55.7467   18.9029 S   0  0  0  0  0  0  0  0  0  0  0  0
  1 34  2  0
  1 35  1  0
 36  1  1  0
  3  2  1  0
 33  2  1  0
 38  3  1  0
  5  4  1  0
  4 38  1  0
  4 43  2  0
 39  5  1  0
  6  7  1  0
 39  6  1  0
  7  8  2  0
  7 13  1  0
  8  9  1  0
  9 10  2  0
 11 10  1  0
 13 11  2  0
 23 12  1  0
 12 36  1  0
 13 14  1  0
 14 44  1  0
 16 15  1  0
 15 39  1  0
 16 17  1  0
 21 16  2  0
 17 18  2  0
 19 18  1  0
 20 19  2  0
 21 20  1  0
 22 21  1  0
 28 23  1  0
 25 24  1  0
 25 26  1  6
 41 25  1  0
 26 40  1  0
 26 45  2  0
 29 27  1  0
 27 41  1  0
 27 46  2  0
 29 28  1  6
 37 29  1  0
 31 30  1  0
 30 37  1  0
 30 42  2  0
 32 31  1  6
 32 33  1  0
 38 32  1  0
 47 22  1  0
 24 47  1  0
M  CHG  1  34   1
M  END
$$$$
