
     RDKit          3D

 47 50  0  0  0  0  0  0  0  0999 V2000
   36.7407   48.4295   15.9799 C   0  0  0  0  0  0  0  0  0  0  0  0
   34.0958   56.6068   19.9582 C   0  0  0  0  0  0  0  0  0  0  0  0
   33.6782   57.8029   19.1184 C   0  0  0  0  0  0  0  0  0  0  0  0
   32.6024   57.6205   16.7628 C   0  0  0  0  0  0  0  0  0  0  0  0
   32.9424   57.9657   15.3540 C   0  0  0  0  0  0  0  0  0  0  0  0
   32.8407   60.3448   15.4855 C   0  0  0  0  0  0  0  0  0  0  0  0
   34.2191   60.7075   15.2368 C   0  0  0  0  0  0  0  0  0  0  0  0
   34.7441   60.5695   13.9683 C   0  0  0  0  0  0  0  0  0  0  0  0
   36.0381   60.9238   13.6706 C   0  0  0  0  0  0  0  0  0  0  0  0
   36.8661   61.4355   14.6414 C   0  0  0  0  0  0  0  0  0  0  0  0
   36.3555   61.5773   15.9106 C   0  0  0  0  0  0  0  0  0  0  0  0
   36.1998   50.7265   15.1126 C   0  0  0  0  0  0  0  0  0  0  0  0
   35.0355   61.2146   16.2138 C   0  0  0  0  0  0  0  0  0  0  0  0
   34.6379   61.3676   17.6403 C   0  0  0  0  0  0  0  0  0  0  0  0
   31.0761   59.1070   14.2832 C   0  0  0  0  0  0  0  0  0  0  0  0
   31.0614   59.3499   12.7941 C   0  0  0  0  0  0  0  0  0  0  0  0
   30.6901   60.6312   12.3551 C   0  0  0  0  0  0  0  0  0  0  0  0
   30.6314   60.9832   11.0288 C   0  0  0  0  0  0  0  0  0  0  0  0
   30.9435   60.0609   10.0740 C   0  0  0  0  0  0  0  0  0  0  0  0
   31.3076   58.8009   10.4908 C   0  0  0  0  0  0  0  0  0  0  0  0
   31.3689   58.4367   11.8459 C   0  0  0  0  0  0  0  0  0  0  0  0
   31.7624   57.0117   12.0621 C   0  0  0  0  0  0  0  0  0  0  0  0
   35.3107   51.4440   14.1315 C   0  0  0  0  0  0  0  0  0  0  0  0
   32.7217   55.0776    9.9594 C   0  0  0  0  0  0  0  0  0  0  0  0
   33.3934   54.1956   10.9752 C   0  0  1  0  0  0  0  0  0  0  0  0
   33.9524   53.0176   10.2717 C   0  0  0  0  0  0  0  0  0  0  0  0
   35.0181   54.7363   12.8445 C   0  0  0  0  0  0  0  0  0  0  0  0
   35.4757   52.9316   14.3907 C   0  0  0  0  0  0  0  0  0  0  0  0
   34.3814   53.7409   13.7566 C   0  0  1  0  0  0  0  0  0  0  0  0
   33.6062   54.7122   15.9916 C   0  0  0  0  0  0  0  0  0  0  0  0
   34.7476   55.4766   16.5005 C   0  0  0  0  0  0  0  0  0  0  0  0
   34.5426   56.2591   17.7153 C   0  0  2  0  0  0  0  0  0  0  0  0
   34.2387   55.4683   18.9655 C   0  0  0  0  0  0  0  0  0  0  0  0
   37.9590   48.5176   16.3570 N   0  0  0  0  0  4  0  0  0  0  0  0
   35.8893   47.3877   16.5339 N   0  0  0  0  0  0  0  0  0  0  0  0
   36.2355   49.3152   15.0106 N   0  0  0  0  0  0  0  0  0  0  0  0
   33.4262   54.2922   14.6506 N   0  0  0  0  0  0  0  0  0  0  0  0
   33.5291   57.2568   17.7627 N   0  0  0  0  0  0  0  0  0  0  0  0
   32.2819   59.1908   14.9384 N   0  0  0  0  0  0  0  0  0  0  0  0
   33.2199   51.8040   10.1552 N   0  0  0  0  0  0  0  0  0  0  0  0
   34.4849   54.9803   11.5470 N   0  0  0  0  0  0  0  0  0  0  0  0
   32.6590   54.3666   16.7846 O   0  0  0  0  0  0  0  0  0  0  0  0
   31.3476   57.6769   17.0303 O   0  0  0  0  0  0  0  0  0  0  0  0
   33.5010   62.1916   17.6743 O   0  0  0  0  0  0  0  0  0  0  0  0
   35.0981   53.0522    9.7525 O   0  0  0  0  0  0  0  0  0  0  0  0
   36.0381   55.3754   13.2108 O   0  0  0  0  0  0  0  0  0  0  0  0
   31.3241   55.9930   10.6239 S   0  0  0  0  0  0  0  0  0  0  0  0
  1 34  2  0
  1 35  1  0
 36  1  1  0
  3  2  1  0
 33  2  1  0
 38  3  1  0
  5  4  1  0
  4 38  1  0
  4 43  2  0
 39  5  1  0
  6  7  1  0
 39  6  1  0
  7  8  2  0
  7 13  1  0
  8  9  1  0
  9 10  2  0
 11 10  1  0
 13 11  2  0
 23 12  1  0
 12 36  1  0
 13 14  1  0
 14 44  1  0
 16 15  1  0
 15 39  1  0
 16 17  1  0
 21 16  2  0
 17 18  2  0
 19 18  1  0
 20 19  2  0
 21 20  1  0
 22 21  1  0
 28 23  1  0
 25 24  1  0
 25 26  1  6
 41 25  1  0
 26 40  1  0
 26 45  2  0
 29 27  1  0
 27 41  1  0
 27 46  2  0
 29 28  1  1
 37 29  1  0
 31 30  1  0
 30 37  1  0
 30 42  2  0
 32 31  1  6
 32 33  1  0
 38 32  1  0
 47 22  1  0
 24 47  1  0
M  CHG  1  34   1
M  END
$$$$
