
     RDKit          3D

 47 50  0  0  0  0  0  0  0  0999 V2000
   35.5898   48.3208   16.7718 C   0  0  0  0  0  0  0  0  0  0  0  0
   33.8972   58.3437   19.7760 C   0  0  0  0  0  0  0  0  0  0  0  0
   33.6182   59.2336   18.5758 C   0  0  0  0  0  0  0  0  0  0  0  0
   32.6369   58.3787   16.3295 C   0  0  0  0  0  0  0  0  0  0  0  0
   33.0668   58.2335   14.9104 C   0  0  0  0  0  0  0  0  0  0  0  0
   33.1572   60.5315   14.2788 C   0  0  0  0  0  0  0  0  0  0  0  0
   34.1072   61.0529   13.3202 C   0  0  0  0  0  0  0  0  0  0  0  0
   35.3800   61.3896   13.7328 C   0  0  0  0  0  0  0  0  0  0  0  0
   36.3297   61.8635   12.8597 C   0  0  0  0  0  0  0  0  0  0  0  0
   36.0392   62.0209   11.5253 C   0  0  0  0  0  0  0  0  0  0  0  0
   34.7736   61.6899   11.1009 C   0  0  0  0  0  0  0  0  0  0  0  0
   35.1399   50.5733   15.7495 C   0  0  0  0  0  0  0  0  0  0  0  0
   33.8049   61.2073   11.9924 C   0  0  0  0  0  0  0  0  0  0  0  0
   32.4625   60.9463   11.4040 C   0  0  0  0  0  0  0  0  0  0  0  0
   31.3513   59.0913   13.4093 C   0  0  0  0  0  0  0  0  0  0  0  0
   31.4232   58.8466   11.9223 C   0  0  0  0  0  0  0  0  0  0  0  0
   31.1795   59.9419   11.0777 C   0  0  0  0  0  0  0  0  0  0  0  0
   31.2093   59.8551    9.7073 C   0  0  0  0  0  0  0  0  0  0  0  0
   31.4859   58.6582    9.1153 C   0  0  0  0  0  0  0  0  0  0  0  0
   31.7253   57.5764    9.9316 C   0  0  0  0  0  0  0  0  0  0  0  0
   31.6958   57.6607   11.3333 C   0  0  0  0  0  0  0  0  0  0  0  0
   31.9596   56.3569   12.0136 C   0  0  0  0  0  0  0  0  0  0  0  0
   35.8499   51.7614   15.1560 C   0  0  0  0  0  0  0  0  0  0  0  0
   32.8476   53.7952   10.6980 C   0  0  0  0  0  0  0  0  0  0  0  0
   33.3979   53.2421   11.9834 C   0  0  1  0  0  0  0  0  0  0  0  0
   33.8879   51.8677   11.7267 C   0  0  0  0  0  0  0  0  0  0  0  0
   34.9770   54.2451   13.6942 C   0  0  0  0  0  0  0  0  0  0  0  0
   35.2139   53.0028   15.7576 C   0  0  0  0  0  0  0  0  0  0  0  0
   34.2199   53.6363   14.8274 C   0  0  1  0  0  0  0  0  0  0  0  0
   33.4292   55.3180   16.5841 C   0  0  0  0  0  0  0  0  0  0  0  0
   34.6063   56.1295   16.9035 C   0  0  0  0  0  0  0  0  0  0  0  0
   34.4131   57.2703   17.7929 C   0  0  2  0  0  0  0  0  0  0  0  0
   33.9891   56.9413   19.2047 C   0  0  0  0  0  0  0  0  0  0  0  0
   34.5104   47.6662   16.5708 N   0  0  0  0  0  4  0  0  0  0  0  0
   36.4571   47.9556   17.8816 N   0  0  0  0  0  0  0  0  0  0  0  0
   35.9207   49.4088   15.9434 N   0  0  0  0  0  0  0  0  0  0  0  0
   33.2749   54.5044   15.4345 N   0  0  0  0  0  0  0  0  0  0  0  0
   33.4848   58.2941   17.4541 N   0  0  0  0  0  0  0  0  0  0  0  0
   32.5295   59.3018   14.0860 N   0  0  0  0  0  0  0  0  0  0  0  0
   33.3852   50.7513   12.4506 N   0  0  0  0  0  0  0  0  0  0  0  0
   34.5242   54.0961   12.3525 N   0  0  0  0  0  0  0  0  0  0  0  0
   32.4222   55.3055   17.3786 O   0  0  0  0  0  0  0  0  0  0  0  0
   31.3805   58.5984   16.4789 O   0  0  0  0  0  0  0  0  0  0  0  0
   31.8604   62.1916   11.1602 O   0  0  0  0  0  0  0  0  0  0  0  0
   34.7688   51.6421   10.8568 O   0  0  0  0  0  0  0  0  0  0  0  0
   36.0292   54.9004   13.9098 O   0  0  0  0  0  0  0  0  0  0  0  0
   31.5027   54.9630   10.9429 S   0  0  0  0  0  0  0  0  0  0  0  0
  1 34  2  0
  1 35  1  0
 36  1  1  0
  3  2  1  0
 33  2  1  0
 38  3  1  0
  5  4  1  0
  4 38  1  0
  4 43  2  0
 39  5  1  0
  6  7  1  0
 39  6  1  0
  7  8  2  0
  7 13  1  0
  8  9  1  0
  9 10  2  0
 11 10  1  0
 13 11  2  0
 23 12  1  0
 12 36  1  0
 13 14  1  0
 14 44  1  0
 16 15  1  0
 15 39  1  0
 16 17  1  0
 21 16  2  0
 17 18  2  0
 19 18  1  0
 20 19  2  0
 21 20  1  0
 22 21  1  0
 28 23  1  0
 25 24  1  0
 25 26  1  6
 41 25  1  0
 26 40  1  0
 26 45  2  0
 29 27  1  0
 27 41  1  0
 27 46  2  0
 29 28  1  1
 37 29  1  0
 31 30  1  0
 30 37  1  0
 30 42  2  0
 32 31  1  6
 32 33  1  0
 38 32  1  0
 47 22  1  0
 24 47  1  0
M  CHG  1  34   1
M  END
$$$$
