
     RDKit          3D

 47 50  0  0  0  0  0  0  0  0999 V2000
   37.4136   49.2784   15.7435 C   0  0  0  0  0  0  0  0  0  0  0  0
   36.3660   55.4155   20.8388 C   0  0  0  0  0  0  0  0  0  0  0  0
   35.3278   56.4941   20.5759 C   0  0  0  0  0  0  0  0  0  0  0  0
   33.5944   56.4031   18.6455 C   0  0  0  0  0  0  0  0  0  0  0  0
   33.2836   57.1466   17.3924 C   0  0  0  0  0  0  0  0  0  0  0  0
   32.5049   59.1995   18.3236 C   0  0  0  0  0  0  0  0  0  0  0  0
   31.7689   59.5683   19.5133 C   0  0  0  0  0  0  0  0  0  0  0  0
   30.5407   60.1856   19.3935 C   0  0  0  0  0  0  0  0  0  0  0  0
   29.7875   60.5328   20.4893 C   0  0  0  0  0  0  0  0  0  0  0  0
   30.2391   60.2732   21.7615 C   0  0  0  0  0  0  0  0  0  0  0  0
   31.4624   59.6590   21.8951 C   0  0  0  0  0  0  0  0  0  0  0  0
   37.4086   51.6920   15.0396 C   0  0  0  0  0  0  0  0  0  0  0  0
   32.2308   59.3059   20.7767 C   0  0  0  0  0  0  0  0  0  0  0  0
   33.5589   58.7021   21.0734 C   0  0  0  0  0  0  0  0  0  0  0  0
   30.9032   57.6469   17.2675 C   0  0  0  0  0  0  0  0  0  0  0  0
   30.2829   58.1745   15.9974 C   0  0  0  0  0  0  0  0  0  0  0  0
   29.4024   59.2623   16.1153 C   0  0  0  0  0  0  0  0  0  0  0  0
   28.7678   59.8349   15.0403 C   0  0  0  0  0  0  0  0  0  0  0  0
   28.9869   59.3404   13.7885 C   0  0  0  0  0  0  0  0  0  0  0  0
   29.8466   58.2736   13.6591 C   0  0  0  0  0  0  0  0  0  0  0  0
   30.4976   57.6849   14.7557 C   0  0  0  0  0  0  0  0  0  0  0  0
   31.3625   56.5253   14.3820 C   0  0  0  0  0  0  0  0  0  0  0  0
   36.9105   52.4189   13.8183 C   0  0  0  0  0  0  0  0  0  0  0  0
   32.0547   55.6314   11.5885 C   0  0  0  0  0  0  0  0  0  0  0  0
   33.2826   54.8970   12.0511 C   0  0  1  0  0  0  0  0  0  0  0  0
   33.8882   54.2196   10.8809 C   0  0  0  0  0  0  0  0  0  0  0  0
   35.2151   55.6302   13.5187 C   0  0  0  0  0  0  0  0  0  0  0  0
   36.7293   53.8746   14.2130 C   0  0  0  0  0  0  0  0  0  0  0  0
   35.2880   54.2941   14.1805 C   0  0  1  0  0  0  0  0  0  0  0  0
   35.1031   54.3748   16.7297 C   0  0  0  0  0  0  0  0  0  0  0  0
   36.0543   55.4040   17.1564 C   0  0  0  0  0  0  0  0  0  0  0  0
   36.0657   55.7614   18.5714 C   0  0  2  0  0  0  0  0  0  0  0  0
   36.4894   54.6687   19.5239 C   0  0  0  0  0  0  0  0  0  0  0  0
   38.6563   49.2905   16.0428 N   0  0  0  0  0  4  0  0  0  0  0  0
   36.6745   48.0258   15.7889 N   0  0  0  0  0  0  0  0  0  0  0  0
   36.7722   50.4643   15.3416 N   0  0  0  0  0  0  0  0  0  0  0  0
   34.5952   54.2139   15.4169 N   0  0  0  0  0  0  0  0  0  0  0  0
   34.8809   56.2361   19.2003 N   0  0  0  0  0  0  0  0  0  0  0  0
   32.1741   58.0637   17.5862 N   0  0  0  0  0  0  0  0  0  0  0  0
   33.3164   53.0419   10.3248 N   0  0  0  0  0  0  0  0  0  0  0  0
   34.2060   55.9110   12.5543 N   0  0  0  0  0  0  0  0  0  0  0  0
   34.6588   53.5196   17.5762 O   0  0  0  0  0  0  0  0  0  0  0  0
   32.5668   55.8952   19.2246 O   0  0  0  0  0  0  0  0  0  0  0  0
   34.5272   59.7021   20.8864 O   0  0  0  0  0  0  0  0  0  0  0  0
   34.9326   54.6653   10.3387 O   0  0  0  0  0  0  0  0  0  0  0  0
   36.0472   56.5294   13.8051 O   0  0  0  0  0  0  0  0  0  0  0  0
   30.7774   55.7479   12.8486 S   0  0  0  0  0  0  0  0  0  0  0  0
  1 34  2  0
  1 35  1  0
 36  1  1  0
  3  2  1  0
 33  2  1  0
 38  3  1  0
  5  4  1  0
  4 38  1  0
  4 43  2  0
 39  5  1  0
  6  7  1  0
 39  6  1  0
  7  8  2  0
  7 13  1  0
  8  9  1  0
  9 10  2  0
 11 10  1  0
 13 11  2  0
 23 12  1  0
 12 36  1  0
 13 14  1  0
 14 44  1  0
 16 15  1  0
 15 39  1  0
 16 17  1  0
 21 16  2  0
 17 18  2  0
 19 18  1  0
 20 19  2  0
 21 20  1  0
 22 21  1  0
 28 23  1  0
 25 24  1  0
 25 26  1  6
 41 25  1  0
 26 40  1  0
 26 45  2  0
 29 27  1  0
 27 41  1  0
 27 46  2  0
 29 28  1  1
 37 29  1  0
 31 30  1  0
 30 37  1  0
 30 42  2  0
 32 31  1  6
 32 33  1  0
 38 32  1  0
 47 22  1  0
 24 47  1  0
M  CHG  1  34   1
M  END
$$$$
