
     RDKit          3D

 47 50  0  0  0  0  0  0  0  0999 V2000
   32.1087   55.8558   22.7610 C   0  0  0  0  0  0  0  0  0  0  0  0
   40.9926   56.7658   17.7579 C   0  0  0  0  0  0  0  0  0  0  0  0
   40.3464   55.7967   16.7813 C   0  0  0  0  0  0  0  0  0  0  0  0
   38.0092   56.1555   15.7097 C   0  0  0  0  0  0  0  0  0  0  0  0
   36.6610   55.5222   15.7413 C   0  0  0  0  0  0  0  0  0  0  0  0
   37.1445   53.4862   14.5972 C   0  0  0  0  0  0  0  0  0  0  0  0
   36.4592   52.2123   14.5716 C   0  0  0  0  0  0  0  0  0  0  0  0
   35.5503   51.9049   15.5631 C   0  0  0  0  0  0  0  0  0  0  0  0
   34.8518   50.7213   15.5727 C   0  0  0  0  0  0  0  0  0  0  0  0
   35.0379   49.7892   14.5796 C   0  0  0  0  0  0  0  0  0  0  0  0
   35.9420   50.0827   13.5854 C   0  0  0  0  0  0  0  0  0  0  0  0
   33.6150   57.7062   21.9685 C   0  0  0  0  0  0  0  0  0  0  0  0
   36.6549   51.2900   13.5769 C   0  0  0  0  0  0  0  0  0  0  0  0
   37.6417   51.4465   12.4732 C   0  0  0  0  0  0  0  0  0  0  0  0
   35.8039   55.2316   13.4800 C   0  0  0  0  0  0  0  0  0  0  0  0
   34.3677   54.8400   13.2349 C   0  0  0  0  0  0  0  0  0  0  0  0
   34.1295   53.8243   12.2946 C   0  0  0  0  0  0  0  0  0  0  0  0
   32.8710   53.3766   11.9750 C   0  0  0  0  0  0  0  0  0  0  0  0
   31.7850   53.9301   12.5864 C   0  0  0  0  0  0  0  0  0  0  0  0
   32.0044   54.9275   13.5089 C   0  0  0  0  0  0  0  0  0  0  0  0
   33.2896   55.3883   13.8388 C   0  0  0  0  0  0  0  0  0  0  0  0
   33.2857   56.4931   14.8446 C   0  0  0  0  0  0  0  0  0  0  0  0
   34.8119   57.4820   21.0824 C   0  0  0  0  0  0  0  0  0  0  0  0
   30.9036   57.5028   16.3899 C   0  0  0  0  0  0  0  0  0  0  0  0
   31.7658   58.1010   17.4669 C   0  0  1  0  0  0  0  0  0  0  0  0
   30.8861   58.7989   18.4334 C   0  0  0  0  0  0  0  0  0  0  0  0
   33.6653   57.1165   18.8266 C   0  0  0  0  0  0  0  0  0  0  0  0
   34.9195   58.6914   20.1697 C   0  0  0  0  0  0  0  0  0  0  0  0
   34.4315   58.3968   18.7806 C   0  0  1  0  0  0  0  0  0  0  0  0
   36.7989   58.1689   17.8409 C   0  0  0  0  0  0  0  0  0  0  0  0
   37.3948   57.0386   18.5574 C   0  0  0  0  0  0  0  0  0  0  0  0
   38.7154   56.5919   18.1254 C   0  0  2  0  0  0  0  0  0  0  0  0
   39.8402   57.5822   18.3122 C   0  0  0  0  0  0  0  0  0  0  0  0
   32.3272   56.0518   24.0051 N   0  0  0  0  0  4  0  0  0  0  0  0
   31.4419   54.6362   22.3308 N   0  0  0  0  0  0  0  0  0  0  0  0
   32.5395   56.7997   21.8108 N   0  0  0  0  0  0  0  0  0  0  0  0
   35.4139   58.4554   17.7574 N   0  0  0  0  0  0  0  0  0  0  0  0
   38.9277   56.1786   16.7805 N   0  0  0  0  0  0  0  0  0  0  0  0
   36.4429   54.6905   14.5706 N   0  0  0  0  0  0  0  0  0  0  0  0
   31.0350   58.6223   19.8369 N   0  0  0  0  0  0  0  0  0  0  0  0
   32.4278   56.9833   18.1351 N   0  0  0  0  0  0  0  0  0  0  0  0
   37.5488   59.0025   17.2178 O   0  0  0  0  0  0  0  0  0  0  0  0
   38.3043   56.7094   14.5893 O   0  0  0  0  0  0  0  0  0  0  0  0
   36.9499   51.2762   11.2628 O   0  0  0  0  0  0  0  0  0  0  0  0
   29.9745   59.5733   18.0428 O   0  0  0  0  0  0  0  0  0  0  0  0
   34.1040   56.1344   19.4794 O   0  0  0  0  0  0  0  0  0  0  0  0
   31.7208   57.4131   14.7909 S   0  0  0  0  0  0  0  0  0  0  0  0
  1 34  2  0
  1 35  1  0
 36  1  1  0
  3  2  1  0
 33  2  1  0
 38  3  1  0
  5  4  1  0
  4 38  1  0
  4 43  2  0
 39  5  1  0
  6  7  1  0
 39  6  1  0
  7  8  2  0
  7 13  1  0
  8  9  1  0
  9 10  2  0
 11 10  1  0
 13 11  2  0
 23 12  1  0
 12 36  1  0
 13 14  1  0
 14 44  1  0
 16 15  1  0
 15 39  1  0
 16 17  1  0
 21 16  2  0
 17 18  2  0
 19 18  1  0
 20 19  2  0
 21 20  1  0
 22 21  1  0
 28 23  1  0
 25 24  1  0
 25 26  1  1
 41 25  1  0
 26 40  1  0
 26 45  2  0
 29 27  1  0
 27 41  1  0
 27 46  2  0
 29 28  1  1
 37 29  1  0
 31 30  1  0
 30 37  1  0
 30 42  2  0
 32 31  1  6
 32 33  1  0
 38 32  1  0
 47 22  1  0
 24 47  1  0
M  CHG  1  34   1
M  END
$$$$
