
     RDKit          3D

 20 20  0  0  0  0  0  0  0  0999 V2000
  135.1356   32.6190  -10.8437 C   0  0  0  0  0  0  0  0  0  0  0  0
  134.0743   33.6254  -10.9570 C   0  0  0  0  0  0  0  0  0  0  0  0
  133.0508   33.5456  -10.1351 C   0  0  0  0  0  0  0  0  0  0  0  0
  131.9520   34.4839  -10.1607 C   0  0  1  0  0  0  0  0  0  0  0  0
  132.2526   35.7647  -10.8966 C   0  0  2  0  0  0  0  0  0  0  0  0
  133.0371   35.5263  -12.1562 C   0  0  2  0  0  0  0  0  0  0  0  0
  132.2307   34.8459  -13.2369 C   0  0  1  0  0  0  0  0  0  0  0  0
  133.0632   34.3730  -14.4072 C   0  0  1  0  0  0  0  0  0  0  0  0
  132.2169   34.1621  -15.6444 C   0  0  0  0  0  0  0  0  0  0  0  0
  132.4421   37.9739   -9.6725 C   0  0  0  0  0  0  0  0  0  0  0  0
  133.3651   39.1115   -9.3308 C   0  0  0  0  0  0  0  0  0  0  0  0
  132.9473   36.6860   -9.9996 N   0  0  0  0  0  0  0  0  0  0  0  0
  135.2652   31.8111   -9.7381 O   0  0  0  0  0  0  0  0  0  0  0  0
  135.9418   32.4994  -11.7852 O   0  0  0  0  0  0  0  0  0  0  0  0
  130.8381   33.9035  -10.8113 O   0  0  0  0  0  0  0  0  0  0  0  0
  134.1316   34.6381  -11.8969 O   0  0  0  0  0  0  0  0  0  0  0  0
  131.5383   33.7458  -12.7018 O   0  0  0  0  0  0  0  0  0  0  0  0
  133.9639   35.4213  -14.7266 O   0  0  0  0  0  0  0  0  0  0  0  0
  131.7133   35.3767  -16.0896 O   0  0  0  0  0  0  0  0  0  0  0  0
  131.1933   38.1252   -9.6799 O   0  0  0  0  0  0  0  0  0  0  0  0
  2  1  1  0
  1 13  1  0
  1 14  2  0
  3  2  2  0
 16  2  1  0
  4  3  1  0
  5  4  1  0
  4 15  1  6
  5  6  1  0
  5 12  1  1
  6  7  1  0
  6 16  1  1
  7  8  1  0
  7 17  1  1
  8  9  1  0
  8 18  1  6
  9 19  1  0
 10 11  1  0
 10 12  1  0
 10 20  2  0
M  END
$$$$
