
     RDKit          3D

 20 20  0  0  0  0  0  0  0  0999 V2000
  161.9448   15.5857  -19.2268 C   0  0  0  0  0  0  0  0  0  0  0  0
  161.6002   17.0115  -19.2001 C   0  0  0  0  0  0  0  0  0  0  0  0
  162.2395   17.8215  -20.0153 C   0  0  0  0  0  0  0  0  0  0  0  0
  161.9787   19.2418  -20.0705 C   0  0  1  0  0  0  0  0  0  0  0  0
  160.6713   19.6530  -19.4426 C   0  0  2  0  0  0  0  0  0  0  0  0
  160.3954   18.9102  -18.1655 C   0  0  2  0  0  0  0  0  0  0  0  0
  161.3100   19.3160  -17.0342 C   0  0  1  0  0  0  0  0  0  0  0  0
  161.1627   18.4577  -15.7981 C   0  0  1  0  0  0  0  0  0  0  0  0
  161.6615   19.1722  -14.5604 C   0  0  0  0  0  0  0  0  0  0  0  0
  158.7374   20.5311  -20.8222 C   0  0  0  0  0  0  0  0  0  0  0  0
  157.2810   20.2918  -21.1131 C   0  0  0  0  0  0  0  0  0  0  0  0
  159.5919   19.4720  -20.4111 N   0  0  0  0  0  0  0  0  0  0  0  0
  161.3384   14.6691  -18.3999 O   0  0  0  0  0  0  0  0  0  0  0  0
  162.8169   15.2018  -20.0285 O   0  0  0  0  0  0  0  0  0  0  0  0
  162.9914   19.9448  -19.3770 O   0  0  0  0  0  0  0  0  0  0  0  0
  160.6316   17.5083  -18.3473 O   0  0  0  0  0  0  0  0  0  0  0  0
  162.6497   19.2715  -17.4574 O   0  0  0  0  0  0  0  0  0  0  0  0
  159.7732   18.2552  -15.5965 O   0  0  0  0  0  0  0  0  0  0  0  0
  160.8016   20.2109  -14.2310 O   0  0  0  0  0  0  0  0  0  0  0  0
  159.2464   21.6761  -20.9332 O   0  0  0  0  0  0  0  0  0  0  0  0
  2  1  1  0
  1 13  1  0
  1 14  2  0
  3  2  2  0
 16  2  1  0
  4  3  1  0
  5  4  1  0
  4 15  1  1
  5  6  1  0
  5 12  1  6
  6  7  1  0
  6 16  1  6
  7  8  1  0
  7 17  1  6
  8  9  1  0
  8 18  1  1
  9 19  1  0
 10 11  1  0
 10 12  1  0
 10 20  2  0
M  END
$$$$
