
     RDKit          3D

 20 20  0  0  0  0  0  0  0  0999 V2000
  132.8419   30.6011  -12.7105 C   0  0  0  0  0  0  0  0  0  0  0  0
  132.4756   32.0215  -12.7321 C   0  0  0  0  0  0  0  0  0  0  0  0
  132.1499   32.5975  -11.5956 C   0  0  0  0  0  0  0  0  0  0  0  0
  131.7732   33.9896  -11.5039 C   0  0  1  0  0  0  0  0  0  0  0  0
  132.1687   34.8151  -12.7017 C   0  0  2  0  0  0  0  0  0  0  0  0
  131.9458   34.0832  -13.9954 C   0  0  2  0  0  0  0  0  0  0  0  0
  130.4842   33.9078  -14.3329 C   0  0  1  0  0  0  0  0  0  0  0  0
  130.2466   33.2372  -15.6672 C   0  0  1  0  0  0  0  0  0  0  0  0
  130.1415   34.2485  -16.7886 C   0  0  0  0  0  0  0  0  0  0  0  0
  133.9429   36.5999  -12.4168 C   0  0  0  0  0  0  0  0  0  0  0  0
  135.0756   37.1810  -13.2183 C   0  0  0  0  0  0  0  0  0  0  0  0
  133.5603   35.2382  -12.5590 N   0  0  0  0  0  0  0  0  0  0  0  0
  133.0118   29.8699  -13.8630 O   0  0  0  0  0  0  0  0  0  0  0  0
  133.0023   30.0472  -11.6068 O   0  0  0  0  0  0  0  0  0  0  0  0
  130.3678   34.1018  -11.3901 O   0  0  0  0  0  0  0  0  0  0  0  0
  132.4673   32.7512  -13.9067 O   0  0  0  0  0  0  0  0  0  0  0  0
  129.8443   33.1580  -13.3308 O   0  0  0  0  0  0  0  0  0  0  0  0
  131.3983   32.4595  -15.9519 O   0  0  0  0  0  0  0  0  0  0  0  0
  129.8642   33.6041  -17.9865 O   0  0  0  0  0  0  0  0  0  0  0  0
  133.2975   37.3001  -11.5949 O   0  0  0  0  0  0  0  0  0  0  0  0
  2  1  1  0
  1 13  1  0
  1 14  2  0
  3  2  2  0
 16  2  1  0
  4  3  1  0
  5  4  1  0
  4 15  1  6
  5  6  1  0
  5 12  1  1
  6  7  1  0
  6 16  1  1
  7  8  1  0
  7 17  1  1
  8  9  1  0
  8 18  1  6
  9 19  1  0
 10 11  1  0
 10 12  1  0
 10 20  2  0
M  END
$$$$
