
     RDKit          3D

 20 20  0  0  0  0  0  0  0  0999 V2000
  154.2904   22.0402  -15.1824 C   0  0  0  0  0  0  0  0  0  0  0  0
  155.3091   21.2048  -15.8278 C   0  0  0  0  0  0  0  0  0  0  0  0
  154.9785   20.5541  -16.9217 C   0  0  0  0  0  0  0  0  0  0  0  0
  155.9035   19.7043  -17.6363 C   0  0  1  0  0  0  0  0  0  0  0  0
  157.3509   19.9360  -17.2840 C   0  0  2  0  0  0  0  0  0  0  0  0
  157.5497   20.1529  -15.8101 C   0  0  2  0  0  0  0  0  0  0  0  0
  157.3307   18.9024  -14.9921 C   0  0  1  0  0  0  0  0  0  0  0  0
  157.4777   19.1189  -13.5028 C   0  0  1  0  0  0  0  0  0  0  0  0
  158.2268   17.9799  -12.8450 C   0  0  0  0  0  0  0  0  0  0  0  0
  158.8872   20.9183  -19.0417 C   0  0  0  0  0  0  0  0  0  0  0  0
  159.8769   22.0208  -19.3021 C   0  0  0  0  0  0  0  0  0  0  0  0
  157.8645   21.0598  -18.0645 N   0  0  0  0  0  0  0  0  0  0  0  0
  154.4697   22.5789  -13.9296 O   0  0  0  0  0  0  0  0  0  0  0  0
  153.2308   22.2637  -15.7972 O   0  0  0  0  0  0  0  0  0  0  0  0
  155.6353   18.3468  -17.3433 O   0  0  0  0  0  0  0  0  0  0  0  0
  156.5880   21.0926  -15.3139 O   0  0  0  0  0  0  0  0  0  0  0  0
  156.0523   18.3766  -15.2475 O   0  0  0  0  0  0  0  0  0  0  0  0
  158.2890   20.2695  -13.3287 O   0  0  0  0  0  0  0  0  0  0  0  0
  159.5954   18.1666  -12.9843 O   0  0  0  0  0  0  0  0  0  0  0  0
  158.9325   19.8353  -19.6800 O   0  0  0  0  0  0  0  0  0  0  0  0
  2  1  1  0
  1 13  1  0
  1 14  2  0
  3  2  2  0
 16  2  1  0
  4  3  1  0
  5  4  1  0
  4 15  1  1
  5  6  1  0
  5 12  1  6
  6  7  1  0
  6 16  1  1
  7  8  1  0
  7 17  1  1
  8  9  1  0
  8 18  1  6
  9 19  1  0
 10 11  1  0
 10 12  1  0
 10 20  2  0
M  END
$$$$
