
     RDKit          3D

 20 20  0  0  0  0  0  0  0  0999 V2000
  134.4059   33.1529  -12.3494 C   0  0  0  0  0  0  0  0  0  0  0  0
  133.0364   33.6777  -12.3141 C   0  0  0  0  0  0  0  0  0  0  0  0
  132.1916   33.1545  -11.4526 C   0  0  0  0  0  0  0  0  0  0  0  0
  130.8207   33.5962  -11.3346 C   0  0  1  0  0  0  0  0  0  0  0  0
  130.5503   34.9403  -11.9614 C   0  0  2  0  0  0  0  0  0  0  0  0
  131.2596   35.1078  -13.2758 C   0  0  2  0  0  0  0  0  0  0  0  0
  130.6858   34.2436  -14.3734 C   0  0  1  0  0  0  0  0  0  0  0  0
  131.4344   34.3506  -15.6828 C   0  0  1  0  0  0  0  0  0  0  0  0
  130.5231   34.1102  -16.8673 C   0  0  0  0  0  0  0  0  0  0  0  0
  129.9693   36.9111  -10.4806 C   0  0  0  0  0  0  0  0  0  0  0  0
  130.3663   38.3119  -10.1022 C   0  0  0  0  0  0  0  0  0  0  0  0
  130.9146   35.9955  -11.0181 N   0  0  0  0  0  0  0  0  0  0  0  0
  135.3371   33.5941  -13.2605 O   0  0  0  0  0  0  0  0  0  0  0  0
  134.7271   32.2788  -11.5227 O   0  0  0  0  0  0  0  0  0  0  0  0
  129.9611   32.6765  -11.9797 O   0  0  0  0  0  0  0  0  0  0  0  0
  132.6269   34.6949  -13.1566 O   0  0  0  0  0  0  0  0  0  0  0  0
  130.6725   32.8971  -13.9700 O   0  0  0  0  0  0  0  0  0  0  0  0
  131.8772   35.6932  -15.7994 O   0  0  0  0  0  0  0  0  0  0  0  0
  129.5107   35.0596  -16.8898 O   0  0  0  0  0  0  0  0  0  0  0  0
  128.7880   36.5045  -10.3336 O   0  0  0  0  0  0  0  0  0  0  0  0
  2  1  1  0
  1 13  1  0
  1 14  2  0
  3  2  2  0
 16  2  1  0
  4  3  1  0
  5  4  1  0
  4 15  1  6
  5  6  1  0
  5 12  1  1
  6  7  1  0
  6 16  1  1
  7  8  1  0
  7 17  1  1
  8  9  1  0
  8 18  1  6
  9 19  1  0
 10 11  1  0
 10 12  1  0
 10 20  2  0
M  END
$$$$
