
     RDKit          3D

 20 20  0  0  0  0  0  0  0  0999 V2000
  136.9697   32.2267  -10.2790 C   0  0  0  0  0  0  0  0  0  0  0  0
  135.6608   32.6099  -10.8194 C   0  0  0  0  0  0  0  0  0  0  0  0
  134.5947   32.3921  -10.0809 C   0  0  0  0  0  0  0  0  0  0  0  0
  133.2590   32.7307  -10.5162 C   0  0  1  0  0  0  0  0  0  0  0  0
  133.2141   33.7018  -11.6684 C   0  0  2  0  0  0  0  0  0  0  0  0
  134.2649   33.4071  -12.7017 C   0  0  2  0  0  0  0  0  0  0  0  0
  133.9918   32.1422  -13.4807 C   0  0  1  0  0  0  0  0  0  0  0  0
  135.1488   31.7042  -14.3501 C   0  0  1  0  0  0  0  0  0  0  0  0
  134.6895   30.8064  -15.4789 C   0  0  0  0  0  0  0  0  0  0  0  0
  132.2752   36.0111  -11.2208 C   0  0  0  0  0  0  0  0  0  0  0  0
  132.5378   37.4580  -11.5379 C   0  0  0  0  0  0  0  0  0  0  0  0
  133.3346   35.0654  -11.1562 N   0  0  0  0  0  0  0  0  0  0  0  0
  138.1066   32.2111  -11.0529 O   0  0  0  0  0  0  0  0  0  0  0  0
  137.0442   31.9062   -9.0780 O   0  0  0  0  0  0  0  0  0  0  0  0
  132.5843   31.5661  -10.9512 O   0  0  0  0  0  0  0  0  0  0  0  0
  135.5322   33.1860  -12.0700 O   0  0  0  0  0  0  0  0  0  0  0  0
  133.6665   31.0949  -12.6013 O   0  0  0  0  0  0  0  0  0  0  0  0
  135.6685   32.8706  -14.9681 O   0  0  0  0  0  0  0  0  0  0  0  0
  135.7541   30.5188  -16.3220 O   0  0  0  0  0  0  0  0  0  0  0  0
  131.1097   35.5911  -11.0024 O   0  0  0  0  0  0  0  0  0  0  0  0
  2  1  1  0
  1 13  1  0
  1 14  2  0
  3  2  2  0
 16  2  1  0
  4  3  1  0
  5  4  1  0
  4 15  1  6
  5  6  1  0
  5 12  1  1
  6  7  1  0
  6 16  1  1
  7  8  1  0
  7 17  1  1
  8  9  1  0
  8 18  1  6
  9 19  1  0
 10 11  1  0
 10 12  1  0
 10 20  2  0
M  END
$$$$
