
     RDKit          3D

 42 45  0  0  0  0  0  0  0  0999 V2000
   72.9393   53.9421   15.8042 C   0  0  0  0  0  0  0  0  0  0  0  0
   71.1569   56.4907   14.2800 C   0  0  0  0  0  0  0  0  0  0  0  0
   72.5124   58.8657   17.1801 C   0  0  0  0  0  0  0  0  0  0  0  0
   75.5100   60.5416   18.6945 C   0  0  0  0  0  0  0  0  0  0  0  0
   73.3344   60.3738   19.5585 C   0  0  1  0  0  0  0  0  0  0  0  0
   72.4492   61.3197   18.8030 C   0  0  0  0  0  0  0  0  0  0  0  0
   66.7112   51.9829   12.9507 C   0  0  0  0  0  0  0  0  0  0  0  0
   66.5800   53.2880   12.5316 C   0  0  0  0  0  0  0  0  0  0  0  0
   67.2442   54.3035   13.1840 C   0  0  0  0  0  0  0  0  0  0  0  0
   68.0625   54.0841   14.2714 C   0  0  0  0  0  0  0  0  0  0  0  0
   68.1858   52.7637   14.6833 C   0  0  0  0  0  0  0  0  0  0  0  0
   67.5238   51.7388   14.0354 C   0  0  0  0  0  0  0  0  0  0  0  0
   71.0638   54.1030   14.2746 C   0  0  0  0  0  0  0  0  0  0  0  0
   72.5935   53.9565   14.3656 C   0  0  1  0  0  0  0  0  0  0  0  0
   73.2547   54.9942   13.5194 C   0  0  0  0  0  0  0  0  0  0  0  0
   70.3898   57.7367   14.4348 C   0  0  2  0  0  0  0  0  0  0  0  0
   70.4556   58.3198   15.8333 C   0  0  2  0  0  0  0  0  0  0  0  0
   74.3212   59.6422   18.6566 C   0  0  1  0  0  0  0  0  0  0  0  0
   74.2079   61.2957   20.3706 C   0  0  1  0  0  0  0  0  0  0  0  0
   72.8810   62.6981   19.2631 C   0  0  0  0  0  0  0  0  0  0  0  0
   69.3682   59.3444   16.0637 C   0  0  0  0  0  0  0  0  0  0  0  0
   69.1695   59.5375   17.5248 C   0  0  0  0  0  0  0  0  0  0  0  0
   68.6927   60.7225   18.0536 C   0  0  0  0  0  0  0  0  0  0  0  0
   68.5148   60.8864   19.4081 C   0  0  0  0  0  0  0  0  0  0  0  0
   68.8091   59.8655   20.2864 C   0  0  0  0  0  0  0  0  0  0  0  0
   69.2819   58.6891   19.7692 C   0  0  0  0  0  0  0  0  0  0  0  0
   69.4635   58.5145   18.4170 C   0  0  0  0  0  0  0  0  0  0  0  0
   65.9945   50.8617   12.2530 C   0  0  2  0  0  0  0  0  0  0  0  0
   66.8918   50.1564   11.2832 C   0  0  0  0  0  0  0  0  0  0  0  0
   74.7445   54.9480   13.4566 C   0  0  0  0  0  0  0  0  0  0  0  0
   72.2010   52.9983   16.6852 C   0  0  0  0  0  0  0  0  0  0  0  0
   70.5886   55.3112   14.8650 N   0  0  0  0  0  0  0  0  0  0  0  0
   71.7171   59.0106   16.0141 N   0  0  0  0  0  0  0  0  0  0  0  0
   68.6382   55.1902   16.5712 O   0  0  0  0  0  0  0  0  0  0  0  0
   68.3369   56.7121   14.7319 O   0  0  0  0  0  0  0  0  0  0  0  0
   69.0397   57.5115   14.1801 O   0  0  0  0  0  0  0  0  0  0  0  0
   72.1480   58.0974   18.1186 O   0  0  0  0  0  0  0  0  0  0  0  0
   73.7182   59.5346   17.3810 O   0  0  0  0  0  0  0  0  0  0  0  0
   75.3199   61.5386   19.6108 O   0  0  0  0  0  0  0  0  0  0  0  0
   73.5004   62.4932   20.4958 O   0  0  0  0  0  0  0  0  0  0  0  0
   64.8681   51.3814   11.5858 O   0  0  0  0  0  0  0  0  0  0  0  0
   68.9088   55.3716   15.1031 S   0  0  2  0  0  6  0  0  0  0  0  0
 14  1  1  1
  1 31  1  0
  2 16  1  0
 32  2  1  0
 33  3  1  0
  3 37  2  0
  3 38  1  0
 18  4  1  0
  4 39  1  0
  5  6  1  6
 18  5  1  0
  5 19  1  0
  6 20  1  0
  8  7  2  0
 12  7  1  0
  7 28  1  0
  9  8  1  0
 10  9  2  0
 10 11  1  0
 42 10  1  0
 11 12  2  0
 13 14  1  0
 32 13  1  0
 14 15  1  0
 15 30  1  0
 16 17  1  0
 16 36  1  1
 17 21  1  6
 17 33  1  0
 18 38  1  6
 19 39  1  6
 19 40  1  0
 40 20  1  0
 21 22  1  0
 22 23  2  0
 22 27  1  0
 23 24  1  0
 24 25  2  0
 26 25  1  0
 27 26  2  0
 28 29  1  6
 28 41  1  0
 42 32  1  1
 42 34  2  0
 42 35  2  0
M  END
$$$$
