
     RDKit          3D

 42 45  0  0  0  0  0  0  0  0999 V2000
   72.1545   54.0057   11.5190 C   0  0  0  0  0  0  0  0  0  0  0  0
   72.3924   56.4320   15.1147 C   0  0  0  0  0  0  0  0  0  0  0  0
   72.0002   59.7727   18.5838 C   0  0  0  0  0  0  0  0  0  0  0  0
   69.9629   62.7305   19.6801 C   0  0  0  0  0  0  0  0  0  0  0  0
   69.6611   60.5162   20.3967 C   0  0  1  0  0  0  0  0  0  0  0  0
   68.9343   59.7642   19.3218 C   0  0  0  0  0  0  0  0  0  0  0  0
   66.5525   52.8825   14.5429 C   0  0  0  0  0  0  0  0  0  0  0  0
   67.0402   53.7172   13.5623 C   0  0  0  0  0  0  0  0  0  0  0  0
   68.0240   54.6375   13.8509 C   0  0  0  0  0  0  0  0  0  0  0  0
   68.5699   54.7787   15.1088 C   0  0  0  0  0  0  0  0  0  0  0  0
   68.0690   53.9309   16.0880 C   0  0  0  0  0  0  0  0  0  0  0  0
   67.0827   53.0050   15.8080 C   0  0  0  0  0  0  0  0  0  0  0  0
   71.2388   55.2953   13.3578 C   0  0  0  0  0  0  0  0  0  0  0  0
   72.5118   54.6195   12.8170 C   0  0  1  0  0  0  0  0  0  0  0  0
   73.0896   53.7176   13.8576 C   0  0  0  0  0  0  0  0  0  0  0  0
   72.5789   56.6933   16.5506 C   0  0  2  0  0  0  0  0  0  0  0  0
   72.8721   58.1468   16.8696 C   0  0  2  0  0  0  0  0  0  0  0  0
   70.7232   61.4580   19.8422 C   0  0  1  0  0  0  0  0  0  0  0  0
   68.6057   61.4465   20.9382 C   0  0  1  0  0  0  0  0  0  0  0  0
   67.5231   60.3166   19.3555 C   0  0  0  0  0  0  0  0  0  0  0  0
   74.1456   58.2977   17.6701 C   0  0  0  0  0  0  0  0  0  0  0  0
   74.3571   59.7321   18.0008 C   0  0  0  0  0  0  0  0  0  0  0  0
   74.3034   60.7256   17.0410 C   0  0  0  0  0  0  0  0  0  0  0  0
   74.5021   62.0486   17.3623 C   0  0  0  0  0  0  0  0  0  0  0  0
   74.7630   62.4269   18.6619 C   0  0  0  0  0  0  0  0  0  0  0  0
   74.8177   61.4479   19.6176 C   0  0  0  0  0  0  0  0  0  0  0  0
   74.6206   60.1224   19.3075 C   0  0  0  0  0  0  0  0  0  0  0  0
   65.4793   51.8731   14.2481 C   0  0  2  0  0  0  0  0  0  0  0  0
   64.3357   51.9922   15.2077 C   0  0  0  0  0  0  0  0  0  0  0  0
   74.5704   53.7684   14.0310 C   0  0  0  0  0  0  0  0  0  0  0  0
   71.1917   54.7333   10.6497 C   0  0  0  0  0  0  0  0  0  0  0  0
   71.3080   55.5646   14.7566 N   0  0  0  0  0  0  0  0  0  0  0  0
   71.8055   58.6909   17.6866 N   0  0  0  0  0  0  0  0  0  0  0  0
   70.0066   55.9225   16.9721 O   0  0  0  0  0  0  0  0  0  0  0  0
   69.3690   57.3388   15.1343 O   0  0  0  0  0  0  0  0  0  0  0  0
   73.6636   55.9706   17.0397 O   0  0  0  0  0  0  0  0  0  0  0  0
   72.9582   59.7600   19.4120 O   0  0  0  0  0  0  0  0  0  0  0  0
   71.1807   60.8990   18.6255 O   0  0  0  0  0  0  0  0  0  0  0  0
   68.7133   62.6073   20.2214 O   0  0  0  0  0  0  0  0  0  0  0  0
   67.3755   60.8615   20.6308 O   0  0  0  0  0  0  0  0  0  0  0  0
   66.0352   50.5804   14.3101 O   0  0  0  0  0  0  0  0  0  0  0  0
   69.8205   55.9465   15.4800 S   0  0  2  0  0  6  0  0  0  0  0  0
 14  1  1  6
  1 31  1  0
  2 16  1  0
 32  2  1  0
 33  3  1  0
  3 37  2  0
  3 38  1  0
 18  4  1  0
  4 39  1  0
  5  6  1  6
 18  5  1  0
  5 19  1  0
  6 20  1  0
  8  7  2  0
 12  7  1  0
  7 28  1  0
  9  8  1  0
 10  9  2  0
 10 11  1  0
 42 10  1  0
 11 12  2  0
 13 14  1  0
 32 13  1  0
 14 15  1  0
 15 30  1  0
 16 17  1  0
 16 36  1  6
 17 21  1  1
 17 33  1  0
 18 38  1  6
 19 39  1  6
 19 40  1  0
 40 20  1  0
 21 22  1  0
 22 23  2  0
 22 27  1  0
 23 24  1  0
 24 25  2  0
 26 25  1  0
 27 26  2  0
 28 29  1  1
 28 41  1  0
 42 32  1  6
 42 34  2  0
 42 35  2  0
M  END
$$$$
