
     RDKit          3D

 42 45  0  0  0  0  0  0  0  0999 V2000
   73.1568   54.1499   12.3813 C   0  0  0  0  0  0  0  0  0  0  0  0
   71.8051   56.4379   15.5301 C   0  0  0  0  0  0  0  0  0  0  0  0
   72.7718   58.8897   17.9740 C   0  0  0  0  0  0  0  0  0  0  0  0
   75.5209   61.2292   18.4038 C   0  0  0  0  0  0  0  0  0  0  0  0
   73.7299   60.6107   19.7886 C   0  0  1  0  0  0  0  0  0  0  0  0
   72.4484   60.9511   19.0879 C   0  0  0  0  0  0  0  0  0  0  0  0
   67.0968   52.3096   13.0488 C   0  0  0  0  0  0  0  0  0  0  0  0
   68.1462   51.8514   13.8137 C   0  0  0  0  0  0  0  0  0  0  0  0
   68.8637   52.7174   14.6096 C   0  0  0  0  0  0  0  0  0  0  0  0
   68.5843   54.0649   14.6895 C   0  0  0  0  0  0  0  0  0  0  0  0
   67.5239   54.5134   13.9132 C   0  0  0  0  0  0  0  0  0  0  0  0
   66.7987   53.6526   13.1123 C   0  0  0  0  0  0  0  0  0  0  0  0
   71.4915   54.5505   14.0986 C   0  0  0  0  0  0  0  0  0  0  0  0
   72.8753   54.9766   13.5757 C   0  0  1  0  0  0  0  0  0  0  0  0
   73.8745   54.9287   14.6845 C   0  0  0  0  0  0  0  0  0  0  0  0
   70.9636   57.6397   15.4185 C   0  0  2  0  0  0  0  0  0  0  0  0
   70.6525   58.2885   16.7536 C   0  0  2  0  0  0  0  0  0  0  0  0
   74.7750   60.0179   18.8511 C   0  0  1  0  0  0  0  0  0  0  0  0
   74.2952   61.9617   20.1457 C   0  0  1  0  0  0  0  0  0  0  0  0
   72.3839   62.4653   19.1224 C   0  0  0  0  0  0  0  0  0  0  0  0
   69.3703   59.0876   16.7018 C   0  0  0  0  0  0  0  0  0  0  0  0
   69.0234   59.5590   18.0689 C   0  0  0  0  0  0  0  0  0  0  0  0
   68.5754   58.6985   19.0538 C   0  0  0  0  0  0  0  0  0  0  0  0
   68.2575   59.1498   20.3141 C   0  0  0  0  0  0  0  0  0  0  0  0
   68.3771   60.4849   20.6357 C   0  0  0  0  0  0  0  0  0  0  0  0
   68.8202   61.3428   19.6648 C   0  0  0  0  0  0  0  0  0  0  0  0
   69.1408   60.9023   18.4018 C   0  0  0  0  0  0  0  0  0  0  0  0
   66.3029   51.3812   12.1740 C   0  0  2  0  0  0  0  0  0  0  0  0
   65.2021   50.7137   12.9392 C   0  0  0  0  0  0  0  0  0  0  0  0
   73.9578   53.6494   15.4473 C   0  0  0  0  0  0  0  0  0  0  0  0
   73.5126   52.7217   12.5948 C   0  0  0  0  0  0  0  0  0  0  0  0
   71.1509   55.1769   15.3338 N   0  0  0  0  0  0  0  0  0  0  0  0
   71.7060   59.2225   17.0985 N   0  0  0  0  0  0  0  0  0  0  0  0
   69.3300   54.6933   17.1171 O   0  0  0  0  0  0  0  0  0  0  0  0
   68.9000   56.5499   15.6481 O   0  0  0  0  0  0  0  0  0  0  0  0
   69.7314   57.3201   14.8550 O   0  0  0  0  0  0  0  0  0  0  0  0
   72.5766   58.1318   18.9696 O   0  0  0  0  0  0  0  0  0  0  0  0
   74.0760   59.3543   17.8151 O   0  0  0  0  0  0  0  0  0  0  0  0
   75.1031   62.3272   19.1034 O   0  0  0  0  0  0  0  0  0  0  0  0
   73.2109   62.8411   20.1807 O   0  0  0  0  0  0  0  0  0  0  0  0
   67.1687   50.4163   11.6234 O   0  0  0  0  0  0  0  0  0  0  0  0
   69.4932   55.1688   15.6999 S   0  0  2  0  0  6  0  0  0  0  0  0
 14  1  1  6
  1 31  1  0
  2 16  1  0
 32  2  1  0
 33  3  1  0
  3 37  2  0
  3 38  1  0
 18  4  1  0
  4 39  1  0
  5  6  1  6
 18  5  1  0
  5 19  1  0
  6 20  1  0
  8  7  2  0
 12  7  1  0
  7 28  1  0
  9  8  1  0
 10  9  2  0
 10 11  1  0
 42 10  1  0
 11 12  2  0
 13 14  1  0
 32 13  1  0
 14 15  1  0
 15 30  1  0
 16 17  1  0
 16 36  1  1
 17 21  1  6
 17 33  1  0
 18 38  1  6
 19 39  1  6
 19 40  1  0
 40 20  1  0
 21 22  1  0
 22 23  2  0
 22 27  1  0
 23 24  1  0
 24 25  2  0
 26 25  1  0
 27 26  2  0
 28 29  1  1
 28 41  1  0
 42 32  1  6
 42 34  2  0
 42 35  2  0
M  END
$$$$
