
     RDKit          3D

 42 45  0  0  0  0  0  0  0  0999 V2000
   72.8310   54.3002   12.8254 C   0  0  0  0  0  0  0  0  0  0  0  0
   70.6422   56.7335   14.3173 C   0  0  0  0  0  0  0  0  0  0  0  0
   72.5435   58.9262   18.2019 C   0  0  0  0  0  0  0  0  0  0  0  0
   75.0311   60.4062   18.0392 C   0  0  0  0  0  0  0  0  0  0  0  0
   74.1697   60.5546   20.2172 C   0  0  1  0  0  0  0  0  0  0  0  0
   72.6835   60.7344   20.1288 C   0  0  0  0  0  0  0  0  0  0  0  0
   67.0496   52.5696   12.5106 C   0  0  0  0  0  0  0  0  0  0  0  0
   66.9420   53.9424   12.5083 C   0  0  0  0  0  0  0  0  0  0  0  0
   67.5672   54.6960   13.4774 C   0  0  0  0  0  0  0  0  0  0  0  0
   68.3221   54.1382   14.4870 C   0  0  0  0  0  0  0  0  0  0  0  0
   68.4222   52.7532   14.4775 C   0  0  0  0  0  0  0  0  0  0  0  0
   67.7990   51.9893   13.5098 C   0  0  0  0  0  0  0  0  0  0  0  0
   71.5633   54.5994   14.8714 C   0  0  0  0  0  0  0  0  0  0  0  0
   72.7605   55.1197   14.0554 C   0  0  1  0  0  0  0  0  0  0  0  0
   73.9816   55.1607   14.9140 C   0  0  0  0  0  0  0  0  0  0  0  0
   71.3190   57.9647   14.7542 C   0  0  2  0  0  0  0  0  0  0  0  0
   71.1245   58.2742   16.2262 C   0  0  2  0  0  0  0  0  0  0  0  0
   74.7021   59.5428   19.2096 C   0  0  1  0  0  0  0  0  0  0  0  0
   74.7052   61.8722   19.7178 C   0  0  1  0  0  0  0  0  0  0  0  0
   72.4991   62.1449   19.6048 C   0  0  0  0  0  0  0  0  0  0  0  0
   70.2480   59.4886   16.4313 C   0  0  0  0  0  0  0  0  0  0  0  0
   69.8197   59.5573   17.8537 C   0  0  0  0  0  0  0  0  0  0  0  0
   69.9662   60.7031   18.6132 C   0  0  0  0  0  0  0  0  0  0  0  0
   69.5657   60.7511   19.9287 C   0  0  0  0  0  0  0  0  0  0  0  0
   69.0015   59.6488   20.5344 C   0  0  0  0  0  0  0  0  0  0  0  0
   68.8535   58.5106   19.7879 C   0  0  0  0  0  0  0  0  0  0  0  0
   69.2503   58.4516   18.4722 C   0  0  0  0  0  0  0  0  0  0  0  0
   66.3746   51.7304   11.4630 C   0  0  2  0  0  0  0  0  0  0  0  0
   64.8990   51.6375   11.7014 C   0  0  0  0  0  0  0  0  0  0  0  0
   74.0591   54.1467   16.0055 C   0  0  0  0  0  0  0  0  0  0  0  0
   73.5359   52.9928   12.9029 C   0  0  0  0  0  0  0  0  0  0  0  0
   70.6535   55.6345   15.2386 N   0  0  0  0  0  0  0  0  0  0  0  0
   72.4045   58.5834   16.8321 N   0  0  0  0  0  0  0  0  0  0  0  0
   69.2937   54.1960   16.9154 O   0  0  0  0  0  0  0  0  0  0  0  0
   68.2379   56.2254   16.1693 O   0  0  0  0  0  0  0  0  0  0  0  0
   70.8183   59.0658   14.0651 O   0  0  0  0  0  0  0  0  0  0  0  0
   71.6246   59.5536   18.8068 O   0  0  0  0  0  0  0  0  0  0  0  0
   73.6647   58.6114   18.9673 O   0  0  0  0  0  0  0  0  0  0  0  0
   74.8891   61.7254   18.3697 O   0  0  0  0  0  0  0  0  0  0  0  0
   73.6866   62.8070   19.9155 O   0  0  0  0  0  0  0  0  0  0  0  0
   66.9504   50.4450   11.4629 O   0  0  0  0  0  0  0  0  0  0  0  0
   69.1187   55.0921   15.7204 S   0  0  2  0  0  6  0  0  0  0  0  0
 14  1  1  6
  1 31  1  0
  2 16  1  0
 32  2  1  0
 33  3  1  0
  3 37  2  0
  3 38  1  0
 18  4  1  0
  4 39  1  0
  5  6  1  6
 18  5  1  0
  5 19  1  0
  6 20  1  0
  8  7  2  0
 12  7  1  0
  7 28  1  0
  9  8  1  0
 10  9  2  0
 10 11  1  0
 42 10  1  0
 11 12  2  0
 13 14  1  0
 32 13  1  0
 14 15  1  0
 15 30  1  0
 16 17  1  0
 16 36  1  6
 17 21  1  6
 17 33  1  0
 18 38  1  6
 19 39  1  6
 19 40  1  0
 40 20  1  0
 21 22  1  0
 22 23  2  0
 22 27  1  0
 23 24  1  0
 24 25  2  0
 26 25  1  0
 27 26  2  0
 28 29  1  1
 28 41  1  0
 42 32  1  6
 42 34  2  0
 42 35  2  0
M  END
$$$$
