
     RDKit          3D

 42 45  0  0  0  0  0  0  0  0999 V2000
   72.6261   56.3912   13.4764 C   0  0  0  0  0  0  0  0  0  0  0  0
   70.4484   57.2197   13.9725 C   0  0  0  0  0  0  0  0  0  0  0  0
   72.2570   59.1544   18.1632 C   0  0  0  0  0  0  0  0  0  0  0  0
   75.0591   60.2344   18.4557 C   0  0  0  0  0  0  0  0  0  0  0  0
   73.6645   60.4842   20.3266 C   0  0  1  0  0  0  0  0  0  0  0  0
   72.2887   60.8422   19.8489 C   0  0  0  0  0  0  0  0  0  0  0  0
   66.7821   51.9230   13.0288 C   0  0  0  0  0  0  0  0  0  0  0  0
   65.9809   52.9749   13.4131 C   0  0  0  0  0  0  0  0  0  0  0  0
   66.5281   54.0939   14.0016 C   0  0  0  0  0  0  0  0  0  0  0  0
   67.8794   54.2294   14.2379 C   0  0  0  0  0  0  0  0  0  0  0  0
   68.6756   53.1615   13.8455 C   0  0  0  0  0  0  0  0  0  0  0  0
   68.1359   52.0354   13.2546 C   0  0  0  0  0  0  0  0  0  0  0  0
   70.7611   54.8624   13.7367 C   0  0  0  0  0  0  0  0  0  0  0  0
   72.2948   54.9590   13.6449 C   0  0  1  0  0  0  0  0  0  0  0  0
   72.8018   54.0182   12.6018 C   0  0  0  0  0  0  0  0  0  0  0  0
   71.4621   58.0260   14.6705 C   0  0  2  0  0  0  0  0  0  0  0  0
   71.0519   58.4351   16.0722 C   0  0  2  0  0  0  0  0  0  0  0  0
   74.3282   59.4162   19.4656 C   0  0  1  0  0  0  0  0  0  0  0  0
   74.4642   61.7279   20.0332 C   0  0  1  0  0  0  0  0  0  0  0  0
   72.4178   62.2650   19.3419 C   0  0  0  0  0  0  0  0  0  0  0  0
   69.9505   59.4703   16.0528 C   0  0  0  0  0  0  0  0  0  0  0  0
   69.4950   59.7369   17.4431 C   0  0  0  0  0  0  0  0  0  0  0  0
   69.6291   60.9778   18.0376 C   0  0  0  0  0  0  0  0  0  0  0  0
   69.2035   61.2089   19.3255 C   0  0  0  0  0  0  0  0  0  0  0  0
   68.6256   60.2017   20.0683 C   0  0  0  0  0  0  0  0  0  0  0  0
   68.4898   58.9701   19.4855 C   0  0  0  0  0  0  0  0  0  0  0  0
   68.9118   58.7281   18.1989 C   0  0  0  0  0  0  0  0  0  0  0  0
   66.2042   50.6939   12.3863 C   0  0  2  0  0  0  0  0  0  0  0  0
   66.0769   49.5700   13.3679 C   0  0  0  0  0  0  0  0  0  0  0  0
   73.9818   53.1861   12.9765 C   0  0  0  0  0  0  0  0  0  0  0  0
   72.4105   57.2940   14.6385 C   0  0  0  0  0  0  0  0  0  0  0  0
   70.1866   55.9154   14.5082 N   0  0  0  0  0  0  0  0  0  0  0  0
   72.1782   59.0451   16.7508 N   0  0  0  0  0  0  0  0  0  0  0  0
   68.5658   55.4095   16.4696 O   0  0  0  0  0  0  0  0  0  0  0  0
   67.7156   56.8578   14.7463 O   0  0  0  0  0  0  0  0  0  0  0  0
   71.6983   59.2127   13.9821 O   0  0  0  0  0  0  0  0  0  0  0  0
   71.3588   59.7653   18.8144 O   0  0  0  0  0  0  0  0  0  0  0  0
   73.2941   58.6171   18.9232 O   0  0  0  0  0  0  0  0  0  0  0  0
   74.9872   61.5609   18.7797 O   0  0  0  0  0  0  0  0  0  0  0  0
   73.5457   62.7787   19.9815 O   0  0  0  0  0  0  0  0  0  0  0  0
   67.0258   50.3094   11.3088 O   0  0  0  0  0  0  0  0  0  0  0  0
   68.5792   55.6498   14.9851 S   0  0  2  0  0  6  0  0  0  0  0  0
 14  1  1  6
  1 31  1  0
  2 16  1  0
 32  2  1  0
 33  3  1  0
  3 37  2  0
  3 38  1  0
 18  4  1  0
  4 39  1  0
  5  6  1  6
 18  5  1  0
  5 19  1  0
  6 20  1  0
  8  7  2  0
 12  7  1  0
  7 28  1  0
  9  8  1  0
 10  9  2  0
 10 11  1  0
 42 10  1  0
 11 12  2  0
 13 14  1  0
 32 13  1  0
 14 15  1  0
 15 30  1  0
 16 17  1  0
 16 36  1  6
 17 21  1  6
 17 33  1  0
 18 38  1  6
 19 39  1  6
 19 40  1  0
 40 20  1  0
 21 22  1  0
 22 23  2  0
 22 27  1  0
 23 24  1  0
 24 25  2  0
 26 25  1  0
 27 26  2  0
 28 29  1  1
 28 41  1  0
 42 32  1  6
 42 34  2  0
 42 35  2  0
M  END
$$$$
