
     RDKit          3D

 42 45  0  0  0  0  0  0  0  0999 V2000
   68.0109   55.0457   15.6378 C   0  0  0  0  0  0  0  0  0  0  0  0
   71.7410   56.5025   15.5756 C   0  0  0  0  0  0  0  0  0  0  0  0
   72.4459   57.8000   17.6999 C   0  0  0  0  0  0  0  0  0  0  0  0
   75.2479   60.2164   17.8503 C   0  0  0  0  0  0  0  0  0  0  0  0
   73.6907   60.1525   19.6049 C   0  0  1  0  0  0  0  0  0  0  0  0
   72.4935   60.9633   19.2071 C   0  0  0  0  0  0  0  0  0  0  0  0
   72.5181   50.3931   12.5619 C   0  0  0  0  0  0  0  0  0  0  0  0
   72.6615   51.6172   11.9478 C   0  0  0  0  0  0  0  0  0  0  0  0
   72.7936   52.7658   12.6970 C   0  0  0  0  0  0  0  0  0  0  0  0
   72.7907   52.7638   14.0754 C   0  0  0  0  0  0  0  0  0  0  0  0
   72.6454   51.5230   14.6816 C   0  0  0  0  0  0  0  0  0  0  0  0
   72.5124   50.3659   13.9387 C   0  0  0  0  0  0  0  0  0  0  0  0
   70.3574   54.5848   15.2321 C   0  0  0  0  0  0  0  0  0  0  0  0
   69.1372   55.3841   14.7399 C   0  0  1  0  0  0  0  0  0  0  0  0
   68.9332   55.1521   13.2788 C   0  0  0  0  0  0  0  0  0  0  0  0
   70.6485   57.4676   15.3759 C   0  0  2  0  0  0  0  0  0  0  0  0
   70.1752   58.1223   16.6596 C   0  0  2  0  0  0  0  0  0  0  0  0
   74.2365   59.3066   18.4609 C   0  0  1  0  0  0  0  0  0  0  0  0
   74.7570   61.1966   19.8179 C   0  0  1  0  0  0  0  0  0  0  0  0
   72.9746   62.4004   19.2456 C   0  0  0  0  0  0  0  0  0  0  0  0
   70.2609   59.6296   16.5831 C   0  0  0  0  0  0  0  0  0  0  0  0
   69.7341   60.2214   17.8416 C   0  0  0  0  0  0  0  0  0  0  0  0
   69.8486   61.5692   18.1268 C   0  0  0  0  0  0  0  0  0  0  0  0
   69.3567   62.1020   19.2961 C   0  0  0  0  0  0  0  0  0  0  0  0
   68.7296   61.3013   20.2266 C   0  0  0  0  0  0  0  0  0  0  0  0
   68.6129   59.9653   19.9505 C   0  0  0  0  0  0  0  0  0  0  0  0
   69.1009   59.4222   18.7847 C   0  0  0  0  0  0  0  0  0  0  0  0
   72.3718   49.1294   11.7624 C   0  0  2  0  0  0  0  0  0  0  0  0
   73.2970   48.0591   12.2539 C   0  0  0  0  0  0  0  0  0  0  0  0
   69.1982   53.7701   12.7836 C   0  0  0  0  0  0  0  0  0  0  0  0
   68.3268   54.7232   17.0549 C   0  0  0  0  0  0  0  0  0  0  0  0
   71.5953   55.2278   14.9349 N   0  0  0  0  0  0  0  0  0  0  0  0
   71.0307   57.7166   17.7572 N   0  0  0  0  0  0  0  0  0  0  0  0
   74.1352   54.9727   14.4725 O   0  0  0  0  0  0  0  0  0  0  0  0
   73.3103   53.8868   16.4551 O   0  0  0  0  0  0  0  0  0  0  0  0
   69.5316   56.8336   14.8386 O   0  0  0  0  0  0  0  0  0  0  0  0
   73.1559   56.7517   17.7274 O   0  0  0  0  0  0  0  0  0  0  0  0
   73.1462   59.0016   17.6120 O   0  0  0  0  0  0  0  0  0  0  0  0
   75.4014   61.3369   18.6188 O   0  0  0  0  0  0  0  0  0  0  0  0
   74.0850   62.3903   20.0894 O   0  0  0  0  0  0  0  0  0  0  0  0
   72.6291   49.4114   10.4066 O   0  0  0  0  0  0  0  0  0  0  0  0
   72.9587   54.2210   15.0315 S   0  0  2  0  0  6  0  0  0  0  0  0
 14  1  1  1
  1 31  1  0
  2 16  1  0
 32  2  1  0
 33  3  1  0
  3 37  2  0
  3 38  1  0
 18  4  1  0
  4 39  1  0
  5  6  1  6
 18  5  1  0
  5 19  1  0
  6 20  1  0
  8  7  2  0
 12  7  1  0
  7 28  1  0
  9  8  1  0
 10  9  2  0
 10 11  1  0
 42 10  1  0
 11 12  2  0
 13 14  1  0
 32 13  1  0
 14 15  1  0
 15 30  1  0
 16 17  1  0
 16 36  1  1
 17 21  1  6
 17 33  1  0
 18 38  1  6
 19 39  1  6
 19 40  1  0
 40 20  1  0
 21 22  1  0
 22 23  2  0
 22 27  1  0
 23 24  1  0
 24 25  2  0
 26 25  1  0
 27 26  2  0
 28 29  1  1
 28 41  1  0
 42 32  1  1
 42 34  2  0
 42 35  2  0
M  END
$$$$
