
     RDKit          3D

 42 45  0  0  0  0  0  0  0  0999 V2000
   74.8570   55.7838   15.9954 C   0  0  0  0  0  0  0  0  0  0  0  0
   72.5139   57.4022   15.1848 C   0  0  0  0  0  0  0  0  0  0  0  0
   68.3840   55.7248   15.1354 C   0  0  0  0  0  0  0  0  0  0  0  0
   66.1600   53.6906   12.9068 C   0  0  0  0  0  0  0  0  0  0  0  0
   68.1402   52.8908   13.8798 C   0  0  1  0  0  0  0  0  0  0  0  0
   69.3011   53.3877   13.0710 C   0  0  0  0  0  0  0  0  0  0  0  0
   74.0525   60.8852   20.8898 C   0  0  0  0  0  0  0  0  0  0  0  0
   73.1974   61.3529   19.9170 C   0  0  0  0  0  0  0  0  0  0  0  0
   72.6776   60.4972   18.9706 C   0  0  0  0  0  0  0  0  0  0  0  0
   72.9728   59.1511   18.9372 C   0  0  0  0  0  0  0  0  0  0  0  0
   73.8360   58.6929   19.9236 C   0  0  0  0  0  0  0  0  0  0  0  0
   74.3621   59.5433   20.8768 C   0  0  0  0  0  0  0  0  0  0  0  0
   74.5003   58.1671   16.2706 C   0  0  0  0  0  0  0  0  0  0  0  0
   75.0918   57.0907   15.3425 C   0  0  1  0  0  0  0  0  0  0  0  0
   76.5045   57.4343   15.0013 C   0  0  0  0  0  0  0  0  0  0  0  0
   71.3946   56.5257   15.5640 C   0  0  2  0  0  0  0  0  0  0  0  0
   70.1586   57.2807   16.0141 C   0  0  2  0  0  0  0  0  0  0  0  0
   67.0582   53.9472   14.0691 C   0  0  1  0  0  0  0  0  0  0  0  0
   67.4954   51.8778   12.9684 C   0  0  1  0  0  0  0  0  0  0  0  0
   69.2296   52.6024   11.7763 C   0  0  0  0  0  0  0  0  0  0  0  0
   69.7242   56.8658   17.4014 C   0  0  0  0  0  0  0  0  0  0  0  0
   68.3587   57.3893   17.6714 C   0  0  0  0  0  0  0  0  0  0  0  0
   67.3322   56.5767   18.1156 C   0  0  0  0  0  0  0  0  0  0  0  0
   66.0735   57.0757   18.3604 C   0  0  0  0  0  0  0  0  0  0  0  0
   65.7954   58.4122   18.1687 C   0  0  0  0  0  0  0  0  0  0  0  0
   66.8077   59.2226   17.7287 C   0  0  0  0  0  0  0  0  0  0  0  0
   68.0695   58.7343   17.4809 C   0  0  0  0  0  0  0  0  0  0  0  0
   74.6303   61.8026   21.9300 C   0  0  2  0  0  0  0  0  0  0  0  0
   73.5549   62.4967   22.7076 C   0  0  0  0  0  0  0  0  0  0  0  0
   77.4196   57.6949   16.1503 C   0  0  0  0  0  0  0  0  0  0  0  0
   75.2952   54.5595   15.2736 C   0  0  0  0  0  0  0  0  0  0  0  0
   73.0755   58.2118   16.2268 N   0  0  0  0  0  0  0  0  0  0  0  0
   69.0524   56.9764   15.1282 N   0  0  0  0  0  0  0  0  0  0  0  0
   70.8651   58.4250   17.5679 O   0  0  0  0  0  0  0  0  0  0  0  0
   72.3359   56.6417   18.2363 O   0  0  0  0  0  0  0  0  0  0  0  0
   71.7546   55.7129   16.6354 O   0  0  0  0  0  0  0  0  0  0  0  0
   68.3824   54.9999   16.1738 O   0  0  0  0  0  0  0  0  0  0  0  0
   67.6984   55.2087   14.0375 O   0  0  0  0  0  0  0  0  0  0  0  0
   66.5488   52.5562   12.2497 O   0  0  0  0  0  0  0  0  0  0  0  0
   68.4917   51.4596   12.0837 O   0  0  0  0  0  0  0  0  0  0  0  0
   75.4622   62.7473   21.2981 O   0  0  0  0  0  0  0  0  0  0  0  0
   72.3142   58.0600   17.7365 S   0  0  2  0  0  6  0  0  0  0  0  0
 14  1  1  1
  1 31  1  0
  2 16  1  0
 32  2  1  0
 33  3  1  0
  3 37  2  0
  3 38  1  0
 18  4  1  0
  4 39  1  0
  5  6  1  6
 18  5  1  0
  5 19  1  0
  6 20  1  0
  8  7  2  0
 12  7  1  0
  7 28  1  0
  9  8  1  0
 10  9  2  0
 10 11  1  0
 42 10  1  0
 11 12  2  0
 13 14  1  0
 32 13  1  0
 14 15  1  0
 15 30  1  0
 16 17  1  0
 16 36  1  1
 17 21  1  1
 17 33  1  0
 18 38  1  6
 19 39  1  6
 19 40  1  0
 40 20  1  0
 21 22  1  0
 22 23  2  0
 22 27  1  0
 23 24  1  0
 24 25  2  0
 26 25  1  0
 27 26  2  0
 28 29  1  6
 28 41  1  0
 42 32  1  6
 42 34  2  0
 42 35  2  0
M  END
$$$$
