
     RDKit          3D

 42 45  0  0  0  0  0  0  0  0999 V2000
   73.4430   53.7294   13.0712 C   0  0  0  0  0  0  0  0  0  0  0  0
   70.3908   56.8098   14.0474 C   0  0  0  0  0  0  0  0  0  0  0  0
   72.3425   58.6950   18.0849 C   0  0  0  0  0  0  0  0  0  0  0  0
   74.7181   60.9029   18.5539 C   0  0  0  0  0  0  0  0  0  0  0  0
   73.5880   61.0730   20.6037 C   0  0  1  0  0  0  0  0  0  0  0  0
   72.3725   61.9290   20.4063 C   0  0  0  0  0  0  0  0  0  0  0  0
   67.1039   51.8479   12.5175 C   0  0  0  0  0  0  0  0  0  0  0  0
   67.2785   51.5627   13.8533 C   0  0  0  0  0  0  0  0  0  0  0  0
   67.9002   52.4661   14.6872 C   0  0  0  0  0  0  0  0  0  0  0  0
   68.3758   53.6835   14.2491 C   0  0  0  0  0  0  0  0  0  0  0  0
   68.1932   53.9582   12.9002 C   0  0  0  0  0  0  0  0  0  0  0  0
   67.5709   53.0586   12.0564 C   0  0  0  0  0  0  0  0  0  0  0  0
   71.2970   54.6160   13.7722 C   0  0  0  0  0  0  0  0  0  0  0  0
   72.8181   54.7056   13.9910 C   0  0  1  0  0  0  0  0  0  0  0  0
   73.1318   54.5650   15.4443 C   0  0  0  0  0  0  0  0  0  0  0  0
   71.2262   57.8852   14.6047 C   0  0  2  0  0  0  0  0  0  0  0  0
   70.9315   58.1893   16.0611 C   0  0  2  0  0  0  0  0  0  0  0  0
   73.8251   60.1099   19.4468 C   0  0  1  0  0  0  0  0  0  0  0  0
   74.7237   62.0575   20.4879 C   0  0  1  0  0  0  0  0  0  0  0  0
   72.9184   63.3301   20.2137 C   0  0  0  0  0  0  0  0  0  0  0  0
   69.8283   59.2125   16.2066 C   0  0  0  0  0  0  0  0  0  0  0  0
   69.4158   59.2987   17.6327 C   0  0  0  0  0  0  0  0  0  0  0  0
   69.0059   58.1902   18.3499 C   0  0  0  0  0  0  0  0  0  0  0  0
   68.6264   58.2859   19.6689 C   0  0  0  0  0  0  0  0  0  0  0  0
   68.6436   59.5003   20.3210 C   0  0  0  0  0  0  0  0  0  0  0  0
   69.0485   60.6025   19.6165 C   0  0  0  0  0  0  0  0  0  0  0  0
   69.4299   60.5181   18.2977 C   0  0  0  0  0  0  0  0  0  0  0  0
   66.4293   50.8754   11.5919 C   0  0  2  0  0  0  0  0  0  0  0  0
   66.6616   51.2331   10.1563 C   0  0  0  0  0  0  0  0  0  0  0  0
   73.7520   53.2759   15.8671 C   0  0  0  0  0  0  0  0  0  0  0  0
   74.9278   53.6446   13.0545 C   0  0  0  0  0  0  0  0  0  0  0  0
   70.5646   55.5041   14.6143 N   0  0  0  0  0  0  0  0  0  0  0  0
   72.1076   58.7603   16.6871 N   0  0  0  0  0  0  0  0  0  0  0  0
   69.5708   54.0809   16.5422 O   0  0  0  0  0  0  0  0  0  0  0  0
   68.1995   55.8952   15.7561 O   0  0  0  0  0  0  0  0  0  0  0  0
   71.0095   59.0758   13.9166 O   0  0  0  0  0  0  0  0  0  0  0  0
   72.3647   57.5795   18.6842 O   0  0  0  0  0  0  0  0  0  0  0  0
   72.5603   59.8149   18.8850 O   0  0  0  0  0  0  0  0  0  0  0  0
   75.0918   62.0652   19.1699 O   0  0  0  0  0  0  0  0  0  0  0  0
   74.1866   63.3099   20.7936 O   0  0  0  0  0  0  0  0  0  0  0  0
   65.0491   50.8564   11.8724 O   0  0  0  0  0  0  0  0  0  0  0  0
   69.1660   54.8347   15.3055 S   0  0  2  0  0  6  0  0  0  0  0  0
 14  1  1  6
  1 31  1  0
  2 16  1  0
 32  2  1  0
 33  3  1  0
  3 37  2  0
  3 38  1  0
 18  4  1  0
  4 39  1  0
  5  6  1  6
 18  5  1  0
  5 19  1  0
  6 20  1  0
  8  7  2  0
 12  7  1  0
  7 28  1  0
  9  8  1  0
 10  9  2  0
 10 11  1  0
 42 10  1  0
 11 12  2  0
 13 14  1  0
 32 13  1  0
 14 15  1  0
 15 30  1  0
 16 17  1  0
 16 36  1  6
 17 21  1  6
 17 33  1  0
 18 38  1  6
 19 39  1  6
 19 40  1  0
 40 20  1  0
 21 22  1  0
 22 23  2  0
 22 27  1  0
 23 24  1  0
 24 25  2  0
 26 25  1  0
 27 26  2  0
 28 29  1  6
 28 41  1  0
 42 32  1  6
 42 34  2  0
 42 35  2  0
M  END
$$$$
