
     RDKit          3D

 42 45  0  0  0  0  0  0  0  0999 V2000
   69.8061   54.8498   11.2049 C   0  0  0  0  0  0  0  0  0  0  0  0
   71.7528   56.6929   14.5829 C   0  0  0  0  0  0  0  0  0  0  0  0
   72.8408   58.5825   17.2188 C   0  0  0  0  0  0  0  0  0  0  0  0
   74.7615   60.4882   17.9347 C   0  0  0  0  0  0  0  0  0  0  0  0
   73.4967   60.7958   19.8875 C   0  0  1  0  0  0  0  0  0  0  0  0
   72.0929   61.1469   19.4937 C   0  0  0  0  0  0  0  0  0  0  0  0
   71.6668   49.9761   15.6492 C   0  0  0  0  0  0  0  0  0  0  0  0
   70.4316   50.5542   15.8396 C   0  0  0  0  0  0  0  0  0  0  0  0
   70.3065   51.9223   15.9418 C   0  0  0  0  0  0  0  0  0  0  0  0
   71.3830   52.7796   15.8622 C   0  0  0  0  0  0  0  0  0  0  0  0
   72.6224   52.1834   15.6702 C   0  0  0  0  0  0  0  0  0  0  0  0
   72.7576   50.8125   15.5664 C   0  0  0  0  0  0  0  0  0  0  0  0
   70.3654   55.0397   13.5573 C   0  0  0  0  0  0  0  0  0  0  0  0
   70.6819   55.5772   12.1500 C   0  0  1  0  0  0  0  0  0  0  0  0
   72.1527   55.5112   11.8996 C   0  0  0  0  0  0  0  0  0  0  0  0
   70.6430   57.6364   14.7901 C   0  0  2  0  0  0  0  0  0  0  0  0
   70.5713   58.1882   16.2010 C   0  0  2  0  0  0  0  0  0  0  0  0
   74.0980   59.7015   19.0138 C   0  0  1  0  0  0  0  0  0  0  0  0
   74.2783   62.0272   19.5067 C   0  0  1  0  0  0  0  0  0  0  0  0
   72.1916   62.5546   18.9399 C   0  0  0  0  0  0  0  0  0  0  0  0
   69.3563   59.0661   16.3971 C   0  0  0  0  0  0  0  0  0  0  0  0
   69.1089   59.2538   17.8514 C   0  0  0  0  0  0  0  0  0  0  0  0
   68.9367   58.1870   18.7136 C   0  0  0  0  0  0  0  0  0  0  0  0
   68.7076   58.3767   20.0570 C   0  0  0  0  0  0  0  0  0  0  0  0
   68.6424   59.6469   20.5885 C   0  0  0  0  0  0  0  0  0  0  0  0
   68.8120   60.7082   19.7400 C   0  0  0  0  0  0  0  0  0  0  0  0
   69.0415   60.5299   18.3955 C   0  0  0  0  0  0  0  0  0  0  0  0
   71.8239   48.4861   15.5362 C   0  0  2  0  0  0  0  0  0  0  0  0
   71.8340   47.8318   16.8833 C   0  0  0  0  0  0  0  0  0  0  0  0
   72.6857   54.2031   11.4199 C   0  0  0  0  0  0  0  0  0  0  0  0
   68.3659   54.7210   11.5533 C   0  0  0  0  0  0  0  0  0  0  0  0
   71.4057   55.3041   14.4965 N   0  0  0  0  0  0  0  0  0  0  0  0
   71.7281   59.0233   16.4568 N   0  0  0  0  0  0  0  0  0  0  0  0
   72.3335   54.9859   16.8981 O   0  0  0  0  0  0  0  0  0  0  0  0
   69.9398   54.8905   16.6715 O   0  0  0  0  0  0  0  0  0  0  0  0
   69.4215   57.0075   14.5655 O   0  0  0  0  0  0  0  0  0  0  0  0
   73.7410   57.8648   16.6910 O   0  0  0  0  0  0  0  0  0  0  0  0
   73.0274   58.8926   18.5645 O   0  0  0  0  0  0  0  0  0  0  0  0
   74.7153   61.8234   18.2260 O   0  0  0  0  0  0  0  0  0  0  0  0
   73.3615   63.0804   19.4878 O   0  0  0  0  0  0  0  0  0  0  0  0
   73.0186   48.2012   14.8467 O   0  0  0  0  0  0  0  0  0  0  0  0
   71.2286   54.5189   15.9911 S   0  0  2  0  0  6  0  0  0  0  0  0
 14  1  1  6
  1 31  1  0
  2 16  1  0
 32  2  1  0
 33  3  1  0
  3 37  2  0
  3 38  1  0
 18  4  1  0
  4 39  1  0
  5  6  1  6
 18  5  1  0
  5 19  1  0
  6 20  1  0
  8  7  2  0
 12  7  1  0
  7 28  1  0
  9  8  1  0
 10  9  2  0
 10 11  1  0
 42 10  1  0
 11 12  2  0
 13 14  1  0
 32 13  1  0
 14 15  1  0
 15 30  1  0
 16 17  1  0
 16 36  1  1
 17 21  1  6
 17 33  1  0
 18 38  1  6
 19 39  1  6
 19 40  1  0
 40 20  1  0
 21 22  1  0
 22 23  2  0
 22 27  1  0
 23 24  1  0
 24 25  2  0
 26 25  1  0
 27 26  2  0
 28 29  1  1
 28 41  1  0
 42 32  1  6
 42 34  2  0
 42 35  2  0
M  END
$$$$
