
     RDKit          3D

 42 45  0  0  0  0  0  0  0  0999 V2000
   70.9230   59.1699   15.0027 C   0  0  0  0  0  0  0  0  0  0  0  0
   71.0240   57.3229   14.2313 C   0  0  0  0  0  0  0  0  0  0  0  0
   73.1827   58.7975   17.9547 C   0  0  0  0  0  0  0  0  0  0  0  0
   76.1874   60.8299   18.5393 C   0  0  0  0  0  0  0  0  0  0  0  0
   74.2630   60.4468   19.8268 C   0  0  1  0  0  0  0  0  0  0  0  0
   73.0802   60.9995   19.0890 C   0  0  0  0  0  0  0  0  0  0  0  0
   67.4345   52.0267   13.8090 C   0  0  0  0  0  0  0  0  0  0  0  0
   66.7347   53.2111   13.8680 C   0  0  0  0  0  0  0  0  0  0  0  0
   67.3141   54.3415   14.4015 C   0  0  0  0  0  0  0  0  0  0  0  0
   68.5998   54.3593   14.8983 C   0  0  0  0  0  0  0  0  0  0  0  0
   69.2940   53.1584   14.8326 C   0  0  0  0  0  0  0  0  0  0  0  0
   68.7214   52.0199   14.2994 C   0  0  0  0  0  0  0  0  0  0  0  0
   68.7908   58.1315   14.4942 C   0  0  0  0  0  0  0  0  0  0  0  0
   69.5715   59.4582   14.4739 C   0  0  1  0  0  0  0  0  0  0  0  0
   68.7846   60.5216   15.1669 C   0  0  0  0  0  0  0  0  0  0  0  0
   71.5186   58.4944   14.9714 C   0  0  2  0  0  0  0  0  0  0  0  0
   71.1904   58.4597   16.4517 C   0  0  2  0  0  0  0  0  0  0  0  0
   75.2486   59.7323   18.9101 C   0  0  1  0  0  0  0  0  0  0  0  0
   75.0080   61.6846   20.2574 C   0  0  1  0  0  0  0  0  0  0  0  0
   73.2422   62.5041   19.1783 C   0  0  0  0  0  0  0  0  0  0  0  0
   69.8045   58.9956   16.7300 C   0  0  0  0  0  0  0  0  0  0  0  0
   69.5898   59.0781   18.1992 C   0  0  0  0  0  0  0  0  0  0  0  0
   70.5298   58.6291   19.1079 C   0  0  0  0  0  0  0  0  0  0  0  0
   70.3164   58.7114   20.4647 C   0  0  0  0  0  0  0  0  0  0  0  0
   69.1489   59.2487   20.9633 C   0  0  0  0  0  0  0  0  0  0  0  0
   68.2135   59.6953   20.0687 C   0  0  0  0  0  0  0  0  0  0  0  0
   68.4165   59.6178   18.7105 C   0  0  0  0  0  0  0  0  0  0  0  0
   66.8199   50.7831   13.2317 C   0  0  2  0  0  0  0  0  0  0  0  0
   67.8663   49.7920   12.8247 C   0  0  0  0  0  0  0  0  0  0  0  0
   68.9951   61.9193   14.6901 C   0  0  0  0  0  0  0  0  0  0  0  0
   71.1871   59.4754   16.4342 C   0  0  0  0  0  0  0  0  0  0  0  0
   69.6407   56.9893   14.4097 N   0  0  0  0  0  0  0  0  0  0  0  0
   72.1138   59.3109   17.1754 N   0  0  0  0  0  0  0  0  0  0  0  0
   70.6594   55.3663   16.1584 O   0  0  0  0  0  0  0  0  0  0  0  0
   68.5250   56.3219   16.7249 O   0  0  0  0  0  0  0  0  0  0  0  0
   70.9377   59.6606   14.4807 O   0  0  0  0  0  0  0  0  0  0  0  0
   72.9728   57.9088   18.8322 O   0  0  0  0  0  0  0  0  0  0  0  0
   74.5055   59.2153   17.8225 O   0  0  0  0  0  0  0  0  0  0  0  0
   75.9079   61.9561   19.2628 O   0  0  0  0  0  0  0  0  0  0  0  0
   74.0675   62.7167   20.2823 O   0  0  0  0  0  0  0  0  0  0  0  0
   66.0248   51.1354   12.1237 O   0  0  0  0  0  0  0  0  0  0  0  0
   69.3402   55.7936   15.5767 S   0  0  2  0  0  6  0  0  0  0  0  0
 14  1  1  1
  1 31  1  0
  2 16  1  0
 32  2  1  0
 33  3  1  0
  3 37  2  0
  3 38  1  0
 18  4  1  0
  4 39  1  0
  5  6  1  6
 18  5  1  0
  5 19  1  0
  6 20  1  0
  8  7  2  0
 12  7  1  0
  7 28  1  0
  9  8  1  0
 10  9  2  0
 10 11  1  0
 42 10  1  0
 11 12  2  0
 13 14  1  0
 32 13  1  0
 14 15  1  0
 15 30  1  0
 16 17  1  0
 16 36  1  6
 17 21  1  6
 17 33  1  0
 18 38  1  6
 19 39  1  6
 19 40  1  0
 40 20  1  0
 21 22  1  0
 22 23  2  0
 22 27  1  0
 23 24  1  0
 24 25  2  0
 26 25  1  0
 27 26  2  0
 28 29  1  6
 28 41  1  0
 42 32  1  6
 42 34  2  0
 42 35  2  0
M  END
$$$$
