
     RDKit          3D

 42 45  0  0  0  0  0  0  0  0999 V2000
   73.2234   54.9615   14.3789 C   0  0  0  0  0  0  0  0  0  0  0  0
   70.2334   57.1016   13.9695 C   0  0  0  0  0  0  0  0  0  0  0  0
   72.9174   59.1121   17.2590 C   0  0  0  0  0  0  0  0  0  0  0  0
   75.8039   60.8034   18.9541 C   0  0  0  0  0  0  0  0  0  0  0  0
   73.5918   60.8417   19.7370 C   0  0  1  0  0  0  0  0  0  0  0  0
   72.8266   61.8622   18.9485 C   0  0  0  0  0  0  0  0  0  0  0  0
   66.6050   52.1984   12.8454 C   0  0  0  0  0  0  0  0  0  0  0  0
   66.4345   53.5580   12.7086 C   0  0  0  0  0  0  0  0  0  0  0  0
   67.1864   54.4373   13.4565 C   0  0  0  0  0  0  0  0  0  0  0  0
   68.1345   54.0231   14.3675 C   0  0  0  0  0  0  0  0  0  0  0  0
   68.2961   52.6499   14.4954 C   0  0  0  0  0  0  0  0  0  0  0  0
   67.5468   51.7606   13.7497 C   0  0  0  0  0  0  0  0  0  0  0  0
   70.9687   54.8795   13.4885 C   0  0  0  0  0  0  0  0  0  0  0  0
   72.1228   54.0290   14.0493 C   0  0  1  0  0  0  0  0  0  0  0  0
   72.4376   52.9144   13.1065 C   0  0  0  0  0  0  0  0  0  0  0  0
   71.1516   58.1239   14.4958 C   0  0  2  0  0  0  0  0  0  0  0  0
   70.8615   58.5184   15.9313 C   0  0  2  0  0  0  0  0  0  0  0  0
   74.5390   60.0179   18.8730 C   0  0  1  0  0  0  0  0  0  0  0  0
   74.5166   61.6822   20.5801 C   0  0  1  0  0  0  0  0  0  0  0  0
   73.3672   63.1966   19.4229 C   0  0  0  0  0  0  0  0  0  0  0  0
   69.5213   59.2054   16.0625 C   0  0  0  0  0  0  0  0  0  0  0  0
   69.2681   59.5311   17.4912 C   0  0  0  0  0  0  0  0  0  0  0  0
   70.1555   59.1876   18.4941 C   0  0  0  0  0  0  0  0  0  0  0  0
   69.9070   59.4952   19.8120 C   0  0  0  0  0  0  0  0  0  0  0  0
   68.7558   60.1609   20.1754 C   0  0  0  0  0  0  0  0  0  0  0  0
   67.8725   60.5041   19.1871 C   0  0  0  0  0  0  0  0  0  0  0  0
   68.1110   60.2015   17.8666 C   0  0  0  0  0  0  0  0  0  0  0  0
   65.7941   51.2235   12.0395 C   0  0  2  0  0  0  0  0  0  0  0  0
   66.6535   50.1428   11.4594 C   0  0  0  0  0  0  0  0  0  0  0  0
   73.6167   52.0679   13.4506 C   0  0  0  0  0  0  0  0  0  0  0  0
   73.4632   55.2714   15.8136 C   0  0  0  0  0  0  0  0  0  0  0  0
   70.4136   55.7656   14.4585 N   0  0  0  0  0  0  0  0  0  0  0  0
   71.8573   59.4686   16.3859 N   0  0  0  0  0  0  0  0  0  0  0  0
   69.6259   54.3584   16.4905 O   0  0  0  0  0  0  0  0  0  0  0  0
   68.2289   56.2252   15.8959 O   0  0  0  0  0  0  0  0  0  0  0  0
   71.0519   59.2964   13.7519 O   0  0  0  0  0  0  0  0  0  0  0  0
   72.9473   57.9700   17.8053 O   0  0  0  0  0  0  0  0  0  0  0  0
   73.9760   59.9611   17.5760 O   0  0  0  0  0  0  0  0  0  0  0  0
   75.6735   61.8177   19.8618 O   0  0  0  0  0  0  0  0  0  0  0  0
   73.9191   62.9406   20.6780 O   0  0  0  0  0  0  0  0  0  0  0  0
   65.1267   51.9195   11.0128 O   0  0  0  0  0  0  0  0  0  0  0  0
   69.0926   55.1371   15.3197 S   0  0  2  0  0  6  0  0  0  0  0  0
 14  1  1  6
  1 31  1  0
  2 16  1  0
 32  2  1  0
 33  3  1  0
  3 37  2  0
  3 38  1  0
 18  4  1  0
  4 39  1  0
  5  6  1  6
 18  5  1  0
  5 19  1  0
  6 20  1  0
  8  7  2  0
 12  7  1  0
  7 28  1  0
  9  8  1  0
 10  9  2  0
 10 11  1  0
 42 10  1  0
 11 12  2  0
 13 14  1  0
 32 13  1  0
 14 15  1  0
 15 30  1  0
 16 17  1  0
 16 36  1  6
 17 21  1  6
 17 33  1  0
 18 38  1  6
 19 39  1  6
 19 40  1  0
 40 20  1  0
 21 22  1  0
 22 23  2  0
 22 27  1  0
 23 24  1  0
 24 25  2  0
 26 25  1  0
 27 26  2  0
 28 29  1  6
 28 41  1  0
 42 32  1  6
 42 34  2  0
 42 35  2  0
M  END
$$$$
