
     RDKit          3D

 42 45  0  0  0  0  0  0  0  0999 V2000
   71.9402   54.4031   13.1914 C   0  0  0  0  0  0  0  0  0  0  0  0
   70.6797   56.2457   14.4363 C   0  0  0  0  0  0  0  0  0  0  0  0
   72.7564   58.0527   18.0934 C   0  0  0  0  0  0  0  0  0  0  0  0
   74.8459   60.0589   18.4622 C   0  0  0  0  0  0  0  0  0  0  0  0
   73.3962   61.1360   19.9609 C   0  0  1  0  0  0  0  0  0  0  0  0
   72.2122   61.6444   19.1938 C   0  0  0  0  0  0  0  0  0  0  0  0
   67.3223   52.0173   12.6778 C   0  0  0  0  0  0  0  0  0  0  0  0
   67.2841   53.3817   12.4953 C   0  0  0  0  0  0  0  0  0  0  0  0
   67.7755   54.2319   13.4615 C   0  0  0  0  0  0  0  0  0  0  0  0
   68.3234   53.7828   14.6441 C   0  0  0  0  0  0  0  0  0  0  0  0
   68.3555   52.4051   14.8151 C   0  0  0  0  0  0  0  0  0  0  0  0
   67.8653   51.5448   13.8518 C   0  0  0  0  0  0  0  0  0  0  0  0
   71.5099   54.3171   15.5769 C   0  0  0  0  0  0  0  0  0  0  0  0
   72.6046   54.4997   14.5100 C   0  0  1  0  0  0  0  0  0  0  0  0
   73.7322   53.5563   14.7720 C   0  0  0  0  0  0  0  0  0  0  0  0
   71.2983   57.5537   14.7035 C   0  0  2  0  0  0  0  0  0  0  0  0
   71.1618   58.0062   16.1447 C   0  0  2  0  0  0  0  0  0  0  0  0
   73.8360   59.7470   19.5141 C   0  0  1  0  0  0  0  0  0  0  0  0
   74.5162   62.0321   19.4972 C   0  0  1  0  0  0  0  0  0  0  0  0
   72.7543   62.7980   18.3732 C   0  0  0  0  0  0  0  0  0  0  0  0
   70.4240   59.3214   16.2504 C   0  0  0  0  0  0  0  0  0  0  0  0
   69.7297   59.3971   17.5632 C   0  0  0  0  0  0  0  0  0  0  0  0
   69.0258   60.5184   17.9613 C   0  0  0  0  0  0  0  0  0  0  0  0
   68.3891   60.5738   19.1798 C   0  0  0  0  0  0  0  0  0  0  0  0
   68.4340   59.5039   20.0479 C   0  0  0  0  0  0  0  0  0  0  0  0
   69.1295   58.3901   19.6599 C   0  0  0  0  0  0  0  0  0  0  0  0
   69.7697   58.3241   18.4442 C   0  0  0  0  0  0  0  0  0  0  0  0
   66.7907   51.0738   11.6362 C   0  0  2  0  0  0  0  0  0  0  0  0
   67.8273   50.0766   11.2192 C   0  0  0  0  0  0  0  0  0  0  0  0
   74.0575   53.2933   16.2040 C   0  0  0  0  0  0  0  0  0  0  0  0
   72.7803   54.0500   12.0160 C   0  0  0  0  0  0  0  0  0  0  0  0
   70.5395   55.3621   15.5570 N   0  0  0  0  0  0  0  0  0  0  0  0
   72.4772   58.2253   16.7130 N   0  0  0  0  0  0  0  0  0  0  0  0
   68.9521   54.0878   17.1652 O   0  0  0  0  0  0  0  0  0  0  0  0
   68.0231   56.0260   16.0835 O   0  0  0  0  0  0  0  0  0  0  0  0
   70.6928   58.5443   13.9352 O   0  0  0  0  0  0  0  0  0  0  0  0
   73.0934   56.9193   18.5469 O   0  0  0  0  0  0  0  0  0  0  0  0
   72.6847   59.0814   19.0307 O   0  0  0  0  0  0  0  0  0  0  0  0
   75.0922   61.4035   18.4268 O   0  0  0  0  0  0  0  0  0  0  0  0
   73.9123   63.2039   19.0362 O   0  0  0  0  0  0  0  0  0  0  0  0
   66.3540   51.8177   10.5228 O   0  0  0  0  0  0  0  0  0  0  0  0
   68.9493   54.8597   15.8746 S   0  0  2  0  0  6  0  0  0  0  0  0
 14  1  1  6
  1 31  1  0
  2 16  1  0
 32  2  1  0
 33  3  1  0
  3 37  2  0
  3 38  1  0
 18  4  1  0
  4 39  1  0
  5  6  1  6
 18  5  1  0
  5 19  1  0
  6 20  1  0
  8  7  2  0
 12  7  1  0
  7 28  1  0
  9  8  1  0
 10  9  2  0
 10 11  1  0
 42 10  1  0
 11 12  2  0
 13 14  1  0
 32 13  1  0
 14 15  1  0
 15 30  1  0
 16 17  1  0
 16 36  1  6
 17 21  1  6
 17 33  1  0
 18 38  1  6
 19 39  1  6
 19 40  1  0
 40 20  1  0
 21 22  1  0
 22 23  2  0
 22 27  1  0
 23 24  1  0
 24 25  2  0
 26 25  1  0
 27 26  2  0
 28 29  1  6
 28 41  1  0
 42 32  1  6
 42 34  2  0
 42 35  2  0
M  END
$$$$
