
     RDKit          3D

 42 45  0  0  0  0  0  0  0  0999 V2000
   73.1612   53.3828   13.0089 C   0  0  0  0  0  0  0  0  0  0  0  0
   70.2445   56.5348   14.2155 C   0  0  0  0  0  0  0  0  0  0  0  0
   72.6126   58.5883   17.8416 C   0  0  0  0  0  0  0  0  0  0  0  0
   75.6021   60.5978   18.3880 C   0  0  0  0  0  0  0  0  0  0  0  0
   73.7248   60.1486   19.7227 C   0  0  1  0  0  0  0  0  0  0  0  0
   72.5059   60.6625   19.0162 C   0  0  0  0  0  0  0  0  0  0  0  0
   66.5242   51.9912   12.6590 C   0  0  0  0  0  0  0  0  0  0  0  0
   66.3987   53.3623   12.6760 C   0  0  0  0  0  0  0  0  0  0  0  0
   67.1642   54.1256   13.5300 C   0  0  0  0  0  0  0  0  0  0  0  0
   68.0825   53.5794   14.4011 C   0  0  0  0  0  0  0  0  0  0  0  0
   68.1988   52.1959   14.3736 C   0  0  0  0  0  0  0  0  0  0  0  0
   67.4356   51.4224   13.5207 C   0  0  0  0  0  0  0  0  0  0  0  0
   71.0785   54.3323   13.8114 C   0  0  0  0  0  0  0  0  0  0  0  0
   72.6111   54.4741   13.8431 C   0  0  1  0  0  0  0  0  0  0  0  0
   73.0852   54.5518   15.2571 C   0  0  0  0  0  0  0  0  0  0  0  0
   71.0833   57.5877   14.8092 C   0  0  2  0  0  0  0  0  0  0  0  0
   70.7869   57.8453   16.2742 C   0  0  2  0  0  0  0  0  0  0  0  0
   74.7102   59.4688   18.7797 C   0  0  1  0  0  0  0  0  0  0  0  0
   74.4386   61.4099   20.1373 C   0  0  1  0  0  0  0  0  0  0  0  0
   72.6198   62.1715   19.1050 C   0  0  0  0  0  0  0  0  0  0  0  0
   70.4105   59.2880   16.5234 C   0  0  0  0  0  0  0  0  0  0  0  0
   69.7167   59.4010   17.8338 C   0  0  0  0  0  0  0  0  0  0  0  0
   69.3600   58.2913   18.5772 C   0  0  0  0  0  0  0  0  0  0  0  0
   68.7175   58.4118   19.7879 C   0  0  0  0  0  0  0  0  0  0  0  0
   68.4074   59.6532   20.3008 C   0  0  0  0  0  0  0  0  0  0  0  0
   68.7579   60.7566   19.5697 C   0  0  0  0  0  0  0  0  0  0  0  0
   69.4003   60.6475   18.3583 C   0  0  0  0  0  0  0  0  0  0  0  0
   65.6977   51.1415   11.7356 C   0  0  2  0  0  0  0  0  0  0  0  0
   64.4073   50.7312   12.3755 C   0  0  0  0  0  0  0  0  0  0  0  0
   74.5597   54.4685   15.4676 C   0  0  0  0  0  0  0  0  0  0  0  0
   72.2853   52.8085   11.9529 C   0  0  0  0  0  0  0  0  0  0  0  0
   70.4238   55.2074   14.7277 N   0  0  0  0  0  0  0  0  0  0  0  0
   71.9747   57.5875   17.0640 N   0  0  0  0  0  0  0  0  0  0  0  0
   69.5302   53.6257   16.5797 O   0  0  0  0  0  0  0  0  0  0  0  0
   68.2219   55.6008   16.1585 O   0  0  0  0  0  0  0  0  0  0  0  0
   70.8730   58.8011   14.1600 O   0  0  0  0  0  0  0  0  0  0  0  0
   71.9656   59.2359   18.7167 O   0  0  0  0  0  0  0  0  0  0  0  0
   73.9575   58.9289   17.7100 O   0  0  0  0  0  0  0  0  0  0  0  0
   75.3036   61.7129   19.1210 O   0  0  0  0  0  0  0  0  0  0  0  0
   73.4651   62.4099   20.1884 O   0  0  0  0  0  0  0  0  0  0  0  0
   66.4429   50.0042   11.3679 O   0  0  0  0  0  0  0  0  0  0  0  0
   69.0577   54.5456   15.4878 S   0  0  2  0  0  6  0  0  0  0  0  0
 14  1  1  1
  1 31  1  0
  2 16  1  0
 32  2  1  0
 33  3  1  0
  3 37  2  0
  3 38  1  0
 18  4  1  0
  4 39  1  0
  5  6  1  6
 18  5  1  0
  5 19  1  0
  6 20  1  0
  8  7  2  0
 12  7  1  0
  7 28  1  0
  9  8  1  0
 10  9  2  0
 10 11  1  0
 42 10  1  0
 11 12  2  0
 13 14  1  0
 32 13  1  0
 14 15  1  0
 15 30  1  0
 16 17  1  0
 16 36  1  6
 17 21  1  6
 17 33  1  0
 18 38  1  6
 19 39  1  6
 19 40  1  0
 40 20  1  0
 21 22  1  0
 22 23  2  0
 22 27  1  0
 23 24  1  0
 24 25  2  0
 26 25  1  0
 27 26  2  0
 28 29  1  1
 28 41  1  0
 42 32  1  6
 42 34  2  0
 42 35  2  0
M  END
$$$$
