
     RDKit          3D

 42 45  0  0  0  0  0  0  0  0999 V2000
   66.9244   55.7163   15.4752 C   0  0  0  0  0  0  0  0  0  0  0  0
   70.0401   56.6711   14.5376 C   0  0  0  0  0  0  0  0  0  0  0  0
   72.9060   59.1388   17.6450 C   0  0  0  0  0  0  0  0  0  0  0  0
   75.8762   61.0880   18.6463 C   0  0  0  0  0  0  0  0  0  0  0  0
   73.8672   60.6006   19.7571 C   0  0  1  0  0  0  0  0  0  0  0  0
   72.7435   61.2665   19.0204 C   0  0  0  0  0  0  0  0  0  0  0  0
   72.1781   50.7829   12.2716 C   0  0  0  0  0  0  0  0  0  0  0  0
   71.6826   50.7210   13.5549 C   0  0  0  0  0  0  0  0  0  0  0  0
   71.5238   51.8683   14.3008 C   0  0  0  0  0  0  0  0  0  0  0  0
   71.8428   53.1212   13.8226 C   0  0  0  0  0  0  0  0  0  0  0  0
   72.3414   53.1692   12.5275 C   0  0  0  0  0  0  0  0  0  0  0  0
   72.5040   52.0242   11.7719 C   0  0  0  0  0  0  0  0  0  0  0  0
   69.1278   54.7047   15.5430 C   0  0  0  0  0  0  0  0  0  0  0  0
   67.7189   54.5920   14.9329 C   0  0  1  0  0  0  0  0  0  0  0  0
   67.1807   53.2155   15.1476 C   0  0  0  0  0  0  0  0  0  0  0  0
   71.2319   57.3968   15.0044 C   0  0  2  0  0  0  0  0  0  0  0  0
   71.0200   58.1325   16.3137 C   0  0  2  0  0  0  0  0  0  0  0  0
   74.8971   59.9771   18.8229 C   0  0  1  0  0  0  0  0  0  0  0  0
   74.6039   61.7592   20.3795 C   0  0  1  0  0  0  0  0  0  0  0  0
   72.9249   62.7452   19.3011 C   0  0  0  0  0  0  0  0  0  0  0  0
   69.7155   58.8964   16.3211 C   0  0  0  0  0  0  0  0  0  0  0  0
   69.4308   59.3795   17.6984 C   0  0  0  0  0  0  0  0  0  0  0  0
   69.1617   58.5141   18.7423 C   0  0  0  0  0  0  0  0  0  0  0  0
   68.8993   58.9763   20.0114 C   0  0  0  0  0  0  0  0  0  0  0  0
   68.8968   60.3278   20.2829 C   0  0  0  0  0  0  0  0  0  0  0  0
   69.1625   61.1907   19.2534 C   0  0  0  0  0  0  0  0  0  0  0  0
   69.4261   60.7394   17.9810 C   0  0  0  0  0  0  0  0  0  0  0  0
   72.3594   49.5430   11.4426 C   0  0  2  0  0  0  0  0  0  0  0  0
   71.1214   49.2170   10.6654 C   0  0  0  0  0  0  0  0  0  0  0  0
   65.7190   53.0311   14.9135 C   0  0  0  0  0  0  0  0  0  0  0  0
   66.9631   57.0097   14.7419 C   0  0  0  0  0  0  0  0  0  0  0  0
   70.0836   55.2407   14.6301 N   0  0  0  0  0  0  0  0  0  0  0  0
   72.0720   59.1126   16.4974 N   0  0  0  0  0  0  0  0  0  0  0  0
   72.6229   55.5855   14.2261 O   0  0  0  0  0  0  0  0  0  0  0  0
   72.0284   54.3465   16.2013 O   0  0  0  0  0  0  0  0  0  0  0  0
   71.6037   58.3680   14.0787 O   0  0  0  0  0  0  0  0  0  0  0  0
   72.4808   58.7192   18.7617 O   0  0  0  0  0  0  0  0  0  0  0  0
   74.2165   59.6126   17.6371 O   0  0  0  0  0  0  0  0  0  0  0  0
   75.5701   62.1258   19.4823 O   0  0  0  0  0  0  0  0  0  0  0  0
   73.6813   62.8036   20.4714 O   0  0  0  0  0  0  0  0  0  0  0  0
   72.7002   48.4702   12.2892 O   0  0  0  0  0  0  0  0  0  0  0  0
   71.6422   54.5819   14.7670 S   0  0  2  0  0  6  0  0  0  0  0  0
 14  1  1  1
  1 31  1  0
  2 16  1  0
 32  2  1  0
 33  3  1  0
  3 37  2  0
  3 38  1  0
 18  4  1  0
  4 39  1  0
  5  6  1  6
 18  5  1  0
  5 19  1  0
  6 20  1  0
  8  7  2  0
 12  7  1  0
  7 28  1  0
  9  8  1  0
 10  9  2  0
 10 11  1  0
 42 10  1  0
 11 12  2  0
 13 14  1  0
 32 13  1  0
 14 15  1  0
 15 30  1  0
 16 17  1  0
 16 36  1  6
 17 21  1  6
 17 33  1  0
 18 38  1  6
 19 39  1  6
 19 40  1  0
 40 20  1  0
 21 22  1  0
 22 23  2  0
 22 27  1  0
 23 24  1  0
 24 25  2  0
 26 25  1  0
 27 26  2  0
 28 29  1  1
 28 41  1  0
 42 32  1  1
 42 34  2  0
 42 35  2  0
M  END
$$$$
