
     RDKit          3D

 42 45  0  0  0  0  0  0  0  0999 V2000
   73.0436   52.9954   13.4114 C   0  0  0  0  0  0  0  0  0  0  0  0
   71.1349   56.6854   14.6270 C   0  0  0  0  0  0  0  0  0  0  0  0
   72.1745   58.1066   18.2487 C   0  0  0  0  0  0  0  0  0  0  0  0
   74.4147   60.2909   18.2131 C   0  0  0  0  0  0  0  0  0  0  0  0
   73.5355   60.8702   20.3105 C   0  0  1  0  0  0  0  0  0  0  0  0
   72.2477   61.6088   20.0980 C   0  0  0  0  0  0  0  0  0  0  0  0
   66.7307   52.2824   12.8719 C   0  0  0  0  0  0  0  0  0  0  0  0
   67.6757   51.8396   13.7703 C   0  0  0  0  0  0  0  0  0  0  0  0
   68.3804   52.7351   14.5445 C   0  0  0  0  0  0  0  0  0  0  0  0
   68.1898   54.0984   14.4716 C   0  0  0  0  0  0  0  0  0  0  0  0
   67.2341   54.5312   13.5618 C   0  0  0  0  0  0  0  0  0  0  0  0
   66.5225   53.6407   12.7814 C   0  0  0  0  0  0  0  0  0  0  0  0
   71.1538   54.3581   14.0854 C   0  0  0  0  0  0  0  0  0  0  0  0
   72.6834   54.3399   13.9134 C   0  0  1  0  0  0  0  0  0  0  0  0
   73.3422   54.7917   15.1751 C   0  0  0  0  0  0  0  0  0  0  0  0
   70.2558   57.7936   15.0318 C   0  0  2  0  0  0  0  0  0  0  0  0
   70.3585   58.1425   16.5043 C   0  0  2  0  0  0  0  0  0  0  0  0
   73.6961   59.6824   19.3694 C   0  0  1  0  0  0  0  0  0  0  0  0
   74.5761   61.8497   19.8308 C   0  0  1  0  0  0  0  0  0  0  0  0
   72.6656   62.9521   19.5334 C   0  0  0  0  0  0  0  0  0  0  0  0
   69.7804   59.5084   16.7969 C   0  0  0  0  0  0  0  0  0  0  0  0
   69.1831   59.5133   18.1588 C   0  0  0  0  0  0  0  0  0  0  0  0
   69.1314   58.3775   18.9452 C   0  0  0  0  0  0  0  0  0  0  0  0
   68.5748   58.3976   20.2033 C   0  0  0  0  0  0  0  0  0  0  0  0
   68.0473   59.5607   20.7223 C   0  0  0  0  0  0  0  0  0  0  0  0
   68.0951   60.6894   19.9486 C   0  0  0  0  0  0  0  0  0  0  0  0
   68.6492   60.6805   18.6896 C   0  0  0  0  0  0  0  0  0  0  0  0
   65.9525   51.3217   12.0182 C   0  0  2  0  0  0  0  0  0  0  0  0
   64.5606   51.8142   11.7673 C   0  0  0  0  0  0  0  0  0  0  0  0
   74.5340   54.0110   15.6174 C   0  0  0  0  0  0  0  0  0  0  0  0
   72.7185   52.6737   11.9962 C   0  0  0  0  0  0  0  0  0  0  0  0
   70.7121   55.3650   14.9937 N   0  0  0  0  0  0  0  0  0  0  0  0
   71.7530   58.1932   16.8966 N   0  0  0  0  0  0  0  0  0  0  0  0
   69.0343   54.7268   16.8666 O   0  0  0  0  0  0  0  0  0  0  0  0
   68.3990   56.5795   15.4687 O   0  0  0  0  0  0  0  0  0  0  0  0
   68.9218   57.4614   14.8122 O   0  0  0  0  0  0  0  0  0  0  0  0
   72.3736   56.9800   18.7918 O   0  0  0  0  0  0  0  0  0  0  0  0
   72.3959   59.2165   19.0616 O   0  0  0  0  0  0  0  0  0  0  0  0
   74.7782   61.5762   18.5053 O   0  0  0  0  0  0  0  0  0  0  0  0
   73.9937   63.1154   19.9268 O   0  0  0  0  0  0  0  0  0  0  0  0
   65.9180   50.0657   12.6547 O   0  0  0  0  0  0  0  0  0  0  0  0
   69.0828   55.2400   15.4539 S   0  0  2  0  0  6  0  0  0  0  0  0
 14  1  1  1
  1 31  1  0
  2 16  1  0
 32  2  1  0
 33  3  1  0
  3 37  2  0
  3 38  1  0
 18  4  1  0
  4 39  1  0
  5  6  1  6
 18  5  1  0
  5 19  1  0
  6 20  1  0
  8  7  2  0
 12  7  1  0
  7 28  1  0
  9  8  1  0
 10  9  2  0
 10 11  1  0
 42 10  1  0
 11 12  2  0
 13 14  1  0
 32 13  1  0
 14 15  1  0
 15 30  1  0
 16 17  1  0
 16 36  1  1
 17 21  1  6
 17 33  1  0
 18 38  1  6
 19 39  1  6
 19 40  1  0
 40 20  1  0
 21 22  1  0
 22 23  2  0
 22 27  1  0
 23 24  1  0
 24 25  2  0
 26 25  1  0
 27 26  2  0
 28 29  1  1
 28 41  1  0
 42 32  1  6
 42 34  2  0
 42 35  2  0
M  END
$$$$
