
     RDKit          3D

 20 22  0  0  0  0  0  0  0  0999 V2000
  -14.2777   -2.3998   -8.8782 O   0  0  0  0  0  0  0  0  0  0  0  0
  -13.4745   -2.9939   -7.8889 C   0  0  0  0  0  0  0  0  0  0  0  0
  -14.3397   -4.1045   -7.2770 C   0  0  1  0  0  0  0  0  0  0  0  0
  -14.8545   -4.8832   -8.2811 O   0  0  0  0  0  0  0  0  0  0  0  0
  -14.0194   -5.9425   -8.5147 C   0  0  1  0  0  0  0  0  0  0  0  0
  -13.6373   -5.9641   -9.9056 N   0  0  0  0  0  0  0  0  0  0  0  0
  -13.4846   -4.9461  -10.7691 C   0  0  0  0  0  0  0  0  0  0  0  0
  -13.1069   -5.4426  -12.0011 C   0  0  0  0  0  0  0  0  0  0  0  0
  -13.0271   -6.8107  -11.8823 C   0  0  0  0  0  0  0  0  0  0  0  0
  -12.6956   -7.7879  -12.8011 C   0  0  0  0  0  0  0  0  0  0  0  0
  -12.7097   -9.0628  -12.3672 N   0  0  0  0  0  0  0  0  0  0  0  0
  -13.0312   -9.3826  -11.0962 C   0  0  0  0  0  0  0  0  0  0  0  0
  -13.3500   -8.4110  -10.2222 N   0  0  0  0  0  0  0  0  0  0  0  0
  -13.3626   -7.0998  -10.5692 C   0  0  0  0  0  0  0  0  0  0  0  0
  -12.3499   -7.4951  -14.1523 N   0  0  0  0  0  0  0  0  0  0  0  0
  -12.8482   -5.8487   -7.5881 C   0  0  2  0  0  0  0  0  0  0  0  0
  -12.3969   -7.0790   -7.1396 O   0  0  0  0  0  0  0  0  0  0  0  0
  -13.4819   -5.0425   -6.4506 C   0  0  2  0  0  0  0  0  0  0  0  0
  -14.3521   -5.8491   -5.7228 O   0  0  0  0  0  0  0  0  0  0  0  0
  -12.7091   -4.3797  -13.7738 I   0  0  0  0  0  0  0  0  0  0  0  0
  1  2  1  0
  3  2  1  6
  3  4  1  0
  3 18  1  0
  4  5  1  0
  5  6  1  6
  5 16  1  0
  6  7  1  0
  6 14  1  0
  7  8  2  0
  8  9  1  0
  8 20  1  0
  9 10  1  0
  9 14  2  0
 10 11  2  0
 10 15  1  0
 11 12  1  0
 12 13  2  0
 13 14  1  0
 16 17  1  1
 16 18  1  0
 18 19  1  1
M  END
$$$$
