
     RDKit          3D

 20 22  0  0  0  0  0  0  0  0999 V2000
  -13.0830   -3.5772   -9.4079 O   0  0  0  0  0  0  0  0  0  0  0  0
  -13.5003   -3.1041   -8.1514 C   0  0  0  0  0  0  0  0  0  0  0  0
  -14.2285   -4.2852   -7.4947 C   0  0  1  0  0  0  0  0  0  0  0  0
  -14.6525   -5.1536   -8.4671 O   0  0  0  0  0  0  0  0  0  0  0  0
  -13.7007   -6.1164   -8.6698 C   0  0  1  0  0  0  0  0  0  0  0  0
  -13.3232   -6.1429  -10.0618 N   0  0  0  0  0  0  0  0  0  0  0  0
  -13.2050   -5.1311  -10.9379 C   0  0  0  0  0  0  0  0  0  0  0  0
  -12.8167   -5.6305  -12.1655 C   0  0  0  0  0  0  0  0  0  0  0  0
  -12.6947   -6.9940  -12.0308 C   0  0  0  0  0  0  0  0  0  0  0  0
  -12.3368   -7.9715  -12.9394 C   0  0  0  0  0  0  0  0  0  0  0  0
  -12.3102   -9.2409  -12.4904 N   0  0  0  0  0  0  0  0  0  0  0  0
  -12.6170   -9.5552  -11.2144 C   0  0  0  0  0  0  0  0  0  0  0  0
  -12.9623   -8.5834  -10.3506 N   0  0  0  0  0  0  0  0  0  0  0  0
  -13.0163   -7.2775  -10.7130 C   0  0  0  0  0  0  0  0  0  0  0  0
  -12.0052   -7.6845  -14.2953 N   0  0  0  0  0  0  0  0  0  0  0  0
  -12.5452   -5.8543   -7.7557 C   0  0  2  0  0  0  0  0  0  0  0  0
  -11.9525   -7.0072   -7.2679 O   0  0  0  0  0  0  0  0  0  0  0  0
  -13.2647   -5.0872   -6.6424 C   0  0  2  0  0  0  0  0  0  0  0  0
  -14.0327   -5.9630   -5.8804 O   0  0  0  0  0  0  0  0  0  0  0  0
  -12.4582   -4.5772  -13.9522 I   0  0  0  0  0  0  0  0  0  0  0  0
  1  2  1  0
  3  2  1  6
  3  4  1  0
  3 18  1  0
  4  5  1  0
  5  6  1  6
  5 16  1  0
  6  7  1  0
  6 14  1  0
  7  8  2  0
  8  9  1  0
  8 20  1  0
  9 10  1  0
  9 14  2  0
 10 11  2  0
 10 15  1  0
 11 12  1  0
 12 13  2  0
 13 14  1  0
 16 17  1  1
 16 18  1  0
 18 19  1  1
M  END
$$$$
