
     RDKit          3D

 20 22  0  0  0  0  0  0  0  0999 V2000
  -12.4527   -3.2108   -8.2885 O   0  0  0  0  0  0  0  0  0  0  0  0
  -13.8283   -2.9597   -8.1423 C   0  0  0  0  0  0  0  0  0  0  0  0
  -14.3924   -4.1957   -7.4277 C   0  0  1  0  0  0  0  0  0  0  0  0
  -14.7246   -5.1454   -8.3590 O   0  0  0  0  0  0  0  0  0  0  0  0
  -13.6654   -5.9911   -8.5504 C   0  0  1  0  0  0  0  0  0  0  0  0
  -13.3142   -6.0234   -9.9492 N   0  0  0  0  0  0  0  0  0  0  0  0
  -13.2130   -5.0153  -10.8316 C   0  0  0  0  0  0  0  0  0  0  0  0
  -12.8477   -5.5197  -12.0641 C   0  0  0  0  0  0  0  0  0  0  0  0
  -12.7225   -6.8826  -11.9260 C   0  0  0  0  0  0  0  0  0  0  0  0
  -12.3813   -7.8638  -12.8370 C   0  0  0  0  0  0  0  0  0  0  0  0
  -12.3457   -9.1313  -12.3833 N   0  0  0  0  0  0  0  0  0  0  0  0
  -12.6283   -9.4403  -11.1004 C   0  0  0  0  0  0  0  0  0  0  0  0
  -12.9576   -8.4650  -10.2344 N   0  0  0  0  0  0  0  0  0  0  0  0
  -13.0191   -7.1606  -10.6012 C   0  0  0  0  0  0  0  0  0  0  0  0
  -12.0756   -7.5824  -14.2002 N   0  0  0  0  0  0  0  0  0  0  0  0
  -12.5338   -5.5553   -7.6735 C   0  0  2  0  0  0  0  0  0  0  0  0
  -11.7941   -6.6077   -7.1599 O   0  0  0  0  0  0  0  0  0  0  0  0
  -13.3210   -4.8409   -6.5709 C   0  0  2  0  0  0  0  0  0  0  0  0
  -13.9604   -5.7751   -5.7610 O   0  0  0  0  0  0  0  0  0  0  0  0
  -12.5235   -4.4739  -13.8618 I   0  0  0  0  0  0  0  0  0  0  0  0
  1  2  1  0
  3  2  1  6
  3  4  1  0
  3 18  1  0
  4  5  1  0
  5  6  1  6
  5 16  1  0
  6  7  1  0
  6 14  1  0
  7  8  2  0
  8  9  1  0
  8 20  1  0
  9 10  1  0
  9 14  2  0
 10 11  2  0
 10 15  1  0
 11 12  1  0
 12 13  2  0
 13 14  1  0
 16 17  1  1
 16 18  1  0
 18 19  1  1
M  END
$$$$
