
     RDKit          3D

 20 22  0  0  0  0  0  0  0  0999 V2000
  -14.0258   -2.3756   -8.7572 O   0  0  0  0  0  0  0  0  0  0  0  0
  -13.2525   -3.0011   -7.7634 C   0  0  0  0  0  0  0  0  0  0  0  0
  -14.1621   -4.0817   -7.1620 C   0  0  1  0  0  0  0  0  0  0  0  0
  -14.7061   -4.8304   -8.1734 O   0  0  0  0  0  0  0  0  0  0  0  0
  -13.9135   -5.9200   -8.4155 C   0  0  1  0  0  0  0  0  0  0  0  0
  -13.5308   -5.9448   -9.8061 N   0  0  0  0  0  0  0  0  0  0  0  0
  -13.3754   -4.9285  -10.6711 C   0  0  0  0  0  0  0  0  0  0  0  0
  -12.9981   -5.4278  -11.9022 C   0  0  0  0  0  0  0  0  0  0  0  0
  -12.9215   -6.7959  -11.7811 C   0  0  0  0  0  0  0  0  0  0  0  0
  -12.5916   -7.7753  -12.6982 C   0  0  0  0  0  0  0  0  0  0  0  0
  -12.6088   -9.0494  -12.2623 N   0  0  0  0  0  0  0  0  0  0  0  0
  -12.9317   -9.3665  -10.9909 C   0  0  0  0  0  0  0  0  0  0  0  0
  -13.2488   -8.3928  -10.1186 N   0  0  0  0  0  0  0  0  0  0  0  0
  -13.2583   -7.0821  -10.4677 C   0  0  0  0  0  0  0  0  0  0  0  0
  -12.2446   -7.4855  -14.0497 N   0  0  0  0  0  0  0  0  0  0  0  0
  -12.7407   -5.8810   -7.4870 C   0  0  2  0  0  0  0  0  0  0  0  0
  -12.3394   -7.1322   -7.0488 O   0  0  0  0  0  0  0  0  0  0  0  0
  -13.3434   -5.0602   -6.3430 C   0  0  2  0  0  0  0  0  0  0  0  0
  -14.2459   -5.8378   -5.6232 O   0  0  0  0  0  0  0  0  0  0  0  0
  -12.5970   -4.3687  -13.6763 I   0  0  0  0  0  0  0  0  0  0  0  0
  1  2  1  0
  3  2  1  6
  3  4  1  0
  3 18  1  0
  4  5  1  0
  5  6  1  6
  5 16  1  0
  6  7  1  0
  6 14  1  0
  7  8  2  0
  8  9  1  0
  8 20  1  0
  9 10  1  0
  9 14  2  0
 10 11  2  0
 10 15  1  0
 11 12  1  0
 12 13  2  0
 13 14  1  0
 16 17  1  1
 16 18  1  0
 18 19  1  1
M  END
$$$$
