
     RDKit          3D

 20 22  0  0  0  0  0  0  0  0999 V2000
  -13.6118   -2.5966   -9.1373 O   0  0  0  0  0  0  0  0  0  0  0  0
  -12.9428   -3.0609   -7.9911 C   0  0  0  0  0  0  0  0  0  0  0  0
  -13.8773   -4.1104   -7.3733 C   0  0  1  0  0  0  0  0  0  0  0  0
  -14.4439   -4.8575   -8.3733 O   0  0  0  0  0  0  0  0  0  0  0  0
  -13.6803   -5.9699   -8.6044 C   0  0  1  0  0  0  0  0  0  0  0  0
  -13.3034   -6.0217   -9.9959 N   0  0  0  0  0  0  0  0  0  0  0  0
  -13.1490   -5.0222  -10.8805 C   0  0  0  0  0  0  0  0  0  0  0  0
  -12.7781   -5.5454  -12.1035 C   0  0  0  0  0  0  0  0  0  0  0  0
  -12.7045   -6.9113  -11.9571 C   0  0  0  0  0  0  0  0  0  0  0  0
  -12.3809   -7.9085  -12.8570 C   0  0  0  0  0  0  0  0  0  0  0  0
  -12.3995   -9.1742  -12.3972 N   0  0  0  0  0  0  0  0  0  0  0  0
  -12.7178   -9.4666  -11.1188 C   0  0  0  0  0  0  0  0  0  0  0  0
  -13.0288   -8.4759  -10.2636 N   0  0  0  0  0  0  0  0  0  0  0  0
  -13.0365   -7.1719  -10.6372 C   0  0  0  0  0  0  0  0  0  0  0  0
  -12.0388   -7.6450  -14.2151 N   0  0  0  0  0  0  0  0  0  0  0  0
  -12.5034   -5.9493   -7.6804 C   0  0  2  0  0  0  0  0  0  0  0  0
  -12.1325   -7.2047   -7.2280 O   0  0  0  0  0  0  0  0  0  0  0  0
  -13.0808   -5.0992   -6.5448 C   0  0  2  0  0  0  0  0  0  0  0  0
  -14.0001   -5.8445   -5.8123 O   0  0  0  0  0  0  0  0  0  0  0  0
  -12.3818   -4.5208  -13.8988 I   0  0  0  0  0  0  0  0  0  0  0  0
  1  2  1  0
  3  2  1  6
  3  4  1  0
  3 18  1  0
  4  5  1  0
  5  6  1  6
  5 16  1  0
  6  7  1  0
  6 14  1  0
  7  8  2  0
  8  9  1  0
  8 20  1  0
  9 10  1  0
  9 14  2  0
 10 11  2  0
 10 15  1  0
 11 12  1  0
 12 13  2  0
 13 14  1  0
 16 17  1  1
 16 18  1  0
 18 19  1  1
M  END
$$$$
