
     RDKit          3D

 20 22  0  0  0  0  0  0  0  0999 V2000
  -13.2165   -2.3993   -7.2172 O   0  0  0  0  0  0  0  0  0  0  0  0
  -14.0489   -3.0097   -8.1719 C   0  0  0  0  0  0  0  0  0  0  0  0
  -14.5956   -4.2700   -7.4867 C   0  0  1  0  0  0  0  0  0  0  0  0
  -14.8872   -5.2129   -8.4381 O   0  0  0  0  0  0  0  0  0  0  0  0
  -13.8042   -6.0297   -8.6223 C   0  0  1  0  0  0  0  0  0  0  0  0
  -13.4267   -6.0318  -10.0146 N   0  0  0  0  0  0  0  0  0  0  0  0
  -13.3308   -5.0075  -10.8788 C   0  0  0  0  0  0  0  0  0  0  0  0
  -12.9321   -5.4840  -12.1122 C   0  0  0  0  0  0  0  0  0  0  0  0
  -12.7803   -6.8461  -11.9934 C   0  0  0  0  0  0  0  0  0  0  0  0
  -12.4015   -7.8049  -12.9132 C   0  0  0  0  0  0  0  0  0  0  0  0
  -12.3471   -9.0786  -12.4790 N   0  0  0  0  0  0  0  0  0  0  0  0
  -12.6466   -9.4143  -11.2068 C   0  0  0  0  0  0  0  0  0  0  0  0
  -13.0126   -8.4604  -10.3317 N   0  0  0  0  0  0  0  0  0  0  0  0
  -13.0953   -7.1518  -10.6790 C   0  0  0  0  0  0  0  0  0  0  0  0
  -12.0767   -7.4950  -14.2658 N   0  0  0  0  0  0  0  0  0  0  0  0
  -12.6999   -5.5801   -7.7179 C   0  0  2  0  0  0  0  0  0  0  0  0
  -11.9443   -6.6221   -7.2064 O   0  0  0  0  0  0  0  0  0  0  0  0
  -13.5246   -4.9022   -6.6197 C   0  0  2  0  0  0  0  0  0  0  0  0
  -14.1556   -5.8640   -5.8360 O   0  0  0  0  0  0  0  0  0  0  0  0
  -12.5973   -4.4025  -13.8866 I   0  0  0  0  0  0  0  0  0  0  0  0
  1  2  1  0
  3  2  1  6
  3  4  1  0
  3 18  1  0
  4  5  1  0
  5  6  1  6
  5 16  1  0
  6  7  1  0
  6 14  1  0
  7  8  2  0
  8  9  1  0
  8 20  1  0
  9 10  1  0
  9 14  2  0
 10 11  2  0
 10 15  1  0
 11 12  1  0
 12 13  2  0
 13 14  1  0
 16 17  1  1
 16 18  1  0
 18 19  1  1
M  END
$$$$
