
     RDKit          3D

 20 22  0  0  0  0  0  0  0  0999 V2000
  -14.0494   -2.1897   -8.6459 O   0  0  0  0  0  0  0  0  0  0  0  0
  -13.2240   -3.0481   -7.8985 C   0  0  0  0  0  0  0  0  0  0  0  0
  -14.1663   -4.1099   -7.3143 C   0  0  1  0  0  0  0  0  0  0  0  0
  -14.7188   -4.8373   -8.3366 O   0  0  0  0  0  0  0  0  0  0  0  0
  -13.9514   -5.9446   -8.5793 C   0  0  1  0  0  0  0  0  0  0  0  0
  -13.5556   -5.9687   -9.9662 N   0  0  0  0  0  0  0  0  0  0  0  0
  -13.3870   -4.9517  -10.8279 C   0  0  0  0  0  0  0  0  0  0  0  0
  -13.0004   -5.4506  -12.0562 C   0  0  0  0  0  0  0  0  0  0  0  0
  -12.9316   -6.8193  -11.9369 C   0  0  0  0  0  0  0  0  0  0  0  0
  -12.5977   -7.7986  -12.8526 C   0  0  0  0  0  0  0  0  0  0  0  0
  -12.6253   -9.0735  -12.4192 N   0  0  0  0  0  0  0  0  0  0  0  0
  -12.9617   -9.3912  -11.1515 C   0  0  0  0  0  0  0  0  0  0  0  0
  -13.2824   -8.4175  -10.2805 N   0  0  0  0  0  0  0  0  0  0  0  0
  -13.2823   -7.1062  -10.6273 C   0  0  0  0  0  0  0  0  0  0  0  0
  -12.2365   -7.5081  -14.2001 N   0  0  0  0  0  0  0  0  0  0  0  0
  -12.7873   -5.9420   -7.6390 C   0  0  2  0  0  0  0  0  0  0  0  0
  -12.4219   -7.2060   -7.2065 O   0  0  0  0  0  0  0  0  0  0  0  0
  -13.3806   -5.1146   -6.4948 C   0  0  2  0  0  0  0  0  0  0  0  0
  -14.3095   -5.8746   -5.7898 O   0  0  0  0  0  0  0  0  0  0  0  0
  -12.5773   -4.3903  -13.8245 I   0  0  0  0  0  0  0  0  0  0  0  0
  1  2  1  0
  3  2  1  6
  3  4  1  0
  3 18  1  0
  4  5  1  0
  5  6  1  6
  5 16  1  0
  6  7  1  0
  6 14  1  0
  7  8  2  0
  8  9  1  0
  8 20  1  0
  9 10  1  0
  9 14  2  0
 10 11  2  0
 10 15  1  0
 11 12  1  0
 12 13  2  0
 13 14  1  0
 16 17  1  1
 16 18  1  0
 18 19  1  1
M  END
$$$$
