
     RDKit          3D

 20 22  0  0  0  0  0  0  0  0999 V2000
  -14.2649   -1.9621   -8.1006 O   0  0  0  0  0  0  0  0  0  0  0  0
  -13.3938   -3.0534   -7.9357 C   0  0  0  0  0  0  0  0  0  0  0  0
  -14.2586   -4.1774   -7.3480 C   0  0  1  0  0  0  0  0  0  0  0  0
  -14.7577   -4.9457   -8.3679 O   0  0  0  0  0  0  0  0  0  0  0  0
  -13.9135   -5.9966   -8.6065 C   0  0  1  0  0  0  0  0  0  0  0  0
  -13.5163   -5.9973   -9.9933 N   0  0  0  0  0  0  0  0  0  0  0  0
  -13.3682   -4.9676  -10.8436 C   0  0  0  0  0  0  0  0  0  0  0  0
  -12.9706   -5.4449  -12.0770 C   0  0  0  0  0  0  0  0  0  0  0  0
  -12.8735   -6.8131  -11.9726 C   0  0  0  0  0  0  0  0  0  0  0  0
  -12.5189   -7.7752  -12.8987 C   0  0  0  0  0  0  0  0  0  0  0  0
  -12.5203   -9.0551  -12.4793 N   0  0  0  0  0  0  0  0  0  0  0  0
  -12.8510   -9.3936  -11.2155 C   0  0  0  0  0  0  0  0  0  0  0  0
  -13.1923   -8.4363  -10.3341 N   0  0  0  0  0  0  0  0  0  0  0  0
  -13.2191   -7.1215  -10.6665 C   0  0  0  0  0  0  0  0  0  0  0  0
  -12.1628   -7.4626  -14.2427 N   0  0  0  0  0  0  0  0  0  0  0  0
  -12.7530   -5.9081   -7.6661 C   0  0  2  0  0  0  0  0  0  0  0  0
  -12.2989   -7.1415   -7.2291 O   0  0  0  0  0  0  0  0  0  0  0  0
  -13.4040   -5.1210   -6.5248 C   0  0  2  0  0  0  0  0  0  0  0  0
  -14.2769   -5.9426   -5.8174 O   0  0  0  0  0  0  0  0  0  0  0  0
  -12.5683   -4.3568  -13.8332 I   0  0  0  0  0  0  0  0  0  0  0  0
  1  2  1  0
  3  2  1  6
  3  4  1  0
  3 18  1  0
  4  5  1  0
  5  6  1  6
  5 16  1  0
  6  7  1  0
  6 14  1  0
  7  8  2  0
  8  9  1  0
  8 20  1  0
  9 10  1  0
  9 14  2  0
 10 11  2  0
 10 15  1  0
 11 12  1  0
 12 13  2  0
 13 14  1  0
 16 17  1  1
 16 18  1  0
 18 19  1  1
M  END
$$$$
