
     RDKit          3D

 20 22  0  0  0  0  0  0  0  0999 V2000
  -14.2722   -1.8962   -8.1593 O   0  0  0  0  0  0  0  0  0  0  0  0
  -13.3840   -2.9348   -7.8287 C   0  0  0  0  0  0  0  0  0  0  0  0
  -14.2584   -4.0354   -7.2119 C   0  0  1  0  0  0  0  0  0  0  0  0
  -14.7722   -4.8199   -8.2120 O   0  0  0  0  0  0  0  0  0  0  0  0
  -13.9417   -5.8856   -8.4321 C   0  0  1  0  0  0  0  0  0  0  0  0
  -13.5525   -5.9212   -9.8207 N   0  0  0  0  0  0  0  0  0  0  0  0
  -13.4027   -4.9126  -10.6957 C   0  0  0  0  0  0  0  0  0  0  0  0
  -13.0151   -5.4212  -11.9197 C   0  0  0  0  0  0  0  0  0  0  0  0
  -12.9262   -6.7872  -11.7839 C   0  0  0  0  0  0  0  0  0  0  0  0
  -12.5830   -7.7729  -12.6892 C   0  0  0  0  0  0  0  0  0  0  0  0
  -12.5901   -9.0426  -12.2400 N   0  0  0  0  0  0  0  0  0  0  0  0
  -12.9157   -9.3494  -10.9668 C   0  0  0  0  0  0  0  0  0  0  0  0
  -13.2459   -8.3696  -10.1062 N   0  0  0  0  0  0  0  0  0  0  0  0
  -13.2663   -7.0628  -10.4691 C   0  0  0  0  0  0  0  0  0  0  0  0
  -12.2326   -7.4940  -14.0421 N   0  0  0  0  0  0  0  0  0  0  0  0
  -12.7748   -5.7902   -7.5002 C   0  0  2  0  0  0  0  0  0  0  0  0
  -12.3327   -7.0190   -7.0388 O   0  0  0  0  0  0  0  0  0  0  0  0
  -13.4101   -4.9708   -6.3729 C   0  0  2  0  0  0  0  0  0  0  0  0
  -14.2885   -5.7665   -5.6429 O   0  0  0  0  0  0  0  0  0  0  0  0
  -12.6161   -4.3770  -13.7031 I   0  0  0  0  0  0  0  0  0  0  0  0
  1  2  1  0
  3  2  1  6
  3  4  1  0
  3 18  1  0
  4  5  1  0
  5  6  1  6
  5 16  1  0
  6  7  1  0
  6 14  1  0
  7  8  2  0
  8  9  1  0
  8 20  1  0
  9 10  1  0
  9 14  2  0
 10 11  2  0
 10 15  1  0
 11 12  1  0
 12 13  2  0
 13 14  1  0
 16 17  1  1
 16 18  1  0
 18 19  1  1
M  END
$$$$
