
     RDKit          3D

 20 22  0  0  0  0  0  0  0  0999 V2000
  -13.9079   -2.1008   -8.6999 O   0  0  0  0  0  0  0  0  0  0  0  0
  -13.0976   -2.8706   -7.8468 C   0  0  0  0  0  0  0  0  0  0  0  0
  -14.0251   -3.9501   -7.2716 C   0  0  1  0  0  0  0  0  0  0  0  0
  -14.5795   -4.6666   -8.3005 O   0  0  0  0  0  0  0  0  0  0  0  0
  -13.8041   -5.7628   -8.5669 C   0  0  1  0  0  0  0  0  0  0  0  0
  -13.4198   -5.7616   -9.9573 N   0  0  0  0  0  0  0  0  0  0  0  0
  -13.2453   -4.7281  -10.7980 C   0  0  0  0  0  0  0  0  0  0  0  0
  -12.8750   -5.2048  -12.0401 C   0  0  0  0  0  0  0  0  0  0  0  0
  -12.8226   -6.5766  -11.9512 C   0  0  0  0  0  0  0  0  0  0  0  0
  -12.5087   -7.5397  -12.8907 C   0  0  0  0  0  0  0  0  0  0  0  0
  -12.5489   -8.8233  -12.4849 N   0  0  0  0  0  0  0  0  0  0  0  0
  -12.8792   -9.1645  -11.2218 C   0  0  0  0  0  0  0  0  0  0  0  0
  -13.1804   -8.2061  -10.3271 N   0  0  0  0  0  0  0  0  0  0  0  0
  -13.1664   -6.8876  -10.6452 C   0  0  0  0  0  0  0  0  0  0  0  0
  -12.1547   -7.2244  -14.2346 N   0  0  0  0  0  0  0  0  0  0  0  0
  -12.6321   -5.7639   -7.6365 C   0  0  2  0  0  0  0  0  0  0  0  0
  -12.2513   -7.0311   -7.2269 O   0  0  0  0  0  0  0  0  0  0  0  0
  -13.2232   -4.9602   -6.4745 C   0  0  2  0  0  0  0  0  0  0  0  0
  -14.1390   -5.7397   -5.7738 O   0  0  0  0  0  0  0  0  0  0  0  0
  -12.4528   -4.1115  -13.7884 I   0  0  0  0  0  0  0  0  0  0  0  0
  1  2  1  0
  3  2  1  6
  3  4  1  0
  3 18  1  0
  4  5  1  0
  5  6  1  6
  5 16  1  0
  6  7  1  0
  6 14  1  0
  7  8  2  0
  8  9  1  0
  8 20  1  0
  9 10  1  0
  9 14  2  0
 10 11  2  0
 10 15  1  0
 11 12  1  0
 12 13  2  0
 13 14  1  0
 16 17  1  1
 16 18  1  0
 18 19  1  1
M  END
$$$$
