
     RDKit          3D

 20 22  0  0  0  0  0  0  0  0999 V2000
  -13.7463   -2.3468   -8.7645 O   0  0  0  0  0  0  0  0  0  0  0  0
  -13.0062   -2.9787   -7.7498 C   0  0  0  0  0  0  0  0  0  0  0  0
  -13.9437   -4.0468   -7.1693 C   0  0  1  0  0  0  0  0  0  0  0  0
  -14.4798   -4.7841   -8.1933 O   0  0  0  0  0  0  0  0  0  0  0  0
  -13.6997   -5.8852   -8.4237 C   0  0  1  0  0  0  0  0  0  0  0  0
  -13.2909   -5.9118   -9.8069 N   0  0  0  0  0  0  0  0  0  0  0  0
  -13.0959   -4.8951  -10.6634 C   0  0  0  0  0  0  0  0  0  0  0  0
  -12.7063   -5.3968  -11.8896 C   0  0  0  0  0  0  0  0  0  0  0  0
  -12.6630   -6.7668  -11.7744 C   0  0  0  0  0  0  0  0  0  0  0  0
  -12.3378   -7.7490  -12.6902 C   0  0  0  0  0  0  0  0  0  0  0  0
  -12.3922   -9.0245  -12.2615 N   0  0  0  0  0  0  0  0  0  0  0  0
  -12.7466   -9.3404  -10.9982 C   0  0  0  0  0  0  0  0  0  0  0  0
  -13.0583   -8.3640  -10.1270 N   0  0  0  0  0  0  0  0  0  0  0  0
  -13.0315   -7.0517  -10.4692 C   0  0  0  0  0  0  0  0  0  0  0  0
  -11.9584   -7.4605  -14.0332 N   0  0  0  0  0  0  0  0  0  0  0  0
  -12.5443   -5.8671   -7.4729 C   0  0  2  0  0  0  0  0  0  0  0  0
  -12.1708   -7.1255   -7.0312 O   0  0  0  0  0  0  0  0  0  0  0  0
  -13.1560   -5.0403   -6.3380 C   0  0  2  0  0  0  0  0  0  0  0  0
  -14.0840   -5.8059   -5.6380 O   0  0  0  0  0  0  0  0  0  0  0  0
  -12.2473   -4.3384  -13.6501 I   0  0  0  0  0  0  0  0  0  0  0  0
  1  2  1  0
  3  2  1  6
  3  4  1  0
  3 18  1  0
  4  5  1  0
  5  6  1  6
  5 16  1  0
  6  7  1  0
  6 14  1  0
  7  8  2  0
  8  9  1  0
  8 20  1  0
  9 10  1  0
  9 14  2  0
 10 11  2  0
 10 15  1  0
 11 12  1  0
 12 13  2  0
 13 14  1  0
 16 17  1  1
 16 18  1  0
 18 19  1  1
M  END
$$$$
