
     RDKit          3D

 20 22  0  0  0  0  0  0  0  0999 V2000
  -13.9156   -2.2303   -8.4661 O   0  0  0  0  0  0  0  0  0  0  0  0
  -13.0824   -3.1690   -7.8325 C   0  0  0  0  0  0  0  0  0  0  0  0
  -14.0320   -4.2220   -7.2441 C   0  0  1  0  0  0  0  0  0  0  0  0
  -14.5723   -4.9644   -8.2621 O   0  0  0  0  0  0  0  0  0  0  0  0
  -13.8024   -6.0753   -8.4791 C   0  0  1  0  0  0  0  0  0  0  0  0
  -13.3899   -6.1199   -9.8607 N   0  0  0  0  0  0  0  0  0  0  0  0
  -13.2036   -5.1152  -10.7331 C   0  0  0  0  0  0  0  0  0  0  0  0
  -12.8056   -5.6325  -11.9501 C   0  0  0  0  0  0  0  0  0  0  0  0
  -12.7479   -7.0000  -11.8125 C   0  0  0  0  0  0  0  0  0  0  0  0
  -12.4099   -7.9932  -12.7115 C   0  0  0  0  0  0  0  0  0  0  0  0
  -12.4517   -9.2622  -12.2623 N   0  0  0  0  0  0  0  0  0  0  0  0
  -12.8059   -9.5614  -10.9949 C   0  0  0  0  0  0  0  0  0  0  0  0
  -13.1303   -8.5744  -10.1404 N   0  0  0  0  0  0  0  0  0  0  0  0
  -13.1166   -7.2676  -10.5038 C   0  0  0  0  0  0  0  0  0  0  0  0
  -12.0302   -7.7225  -14.0581 N   0  0  0  0  0  0  0  0  0  0  0  0
  -12.6497   -6.0588   -7.5250 C   0  0  2  0  0  0  0  0  0  0  0  0
  -12.2899   -7.3163   -7.0695 O   0  0  0  0  0  0  0  0  0  0  0  0
  -13.2565   -5.2146   -6.4004 C   0  0  2  0  0  0  0  0  0  0  0  0
  -14.1940   -5.9640   -5.6955 O   0  0  0  0  0  0  0  0  0  0  0  0
  -12.3535   -4.5979  -13.7265 I   0  0  0  0  0  0  0  0  0  0  0  0
  1  2  1  0
  3  2  1  6
  3  4  1  0
  3 18  1  0
  4  5  1  0
  5  6  1  6
  5 16  1  0
  6  7  1  0
  6 14  1  0
  7  8  2  0
  8  9  1  0
  8 20  1  0
  9 10  1  0
  9 14  2  0
 10 11  2  0
 10 15  1  0
 11 12  1  0
 12 13  2  0
 13 14  1  0
 16 17  1  1
 16 18  1  0
 18 19  1  1
M  END
$$$$
