
     RDKit          3D

 20 22  0  0  0  0  0  0  0  0999 V2000
  -14.1424   -2.0805   -8.5392 O   0  0  0  0  0  0  0  0  0  0  0  0
  -13.3094   -2.9849   -7.8574 C   0  0  0  0  0  0  0  0  0  0  0  0
  -14.2542   -4.0417   -7.2685 C   0  0  1  0  0  0  0  0  0  0  0  0
  -14.8067   -4.7739   -8.2875 O   0  0  0  0  0  0  0  0  0  0  0  0
  -14.0410   -5.8839   -8.5229 C   0  0  1  0  0  0  0  0  0  0  0  0
  -13.6433   -5.9165   -9.9092 N   0  0  0  0  0  0  0  0  0  0  0  0
  -13.4526   -4.9033  -10.7708 C   0  0  0  0  0  0  0  0  0  0  0  0
  -13.0742   -5.4103  -11.9983 C   0  0  0  0  0  0  0  0  0  0  0  0
  -13.0336   -6.7801  -11.8786 C   0  0  0  0  0  0  0  0  0  0  0  0
  -12.7183   -7.7663  -12.7935 C   0  0  0  0  0  0  0  0  0  0  0  0
  -12.7725   -9.0402  -12.3599 N   0  0  0  0  0  0  0  0  0  0  0  0
  -13.1175   -9.3507  -11.0927 C   0  0  0  0  0  0  0  0  0  0  0  0
  -13.4197   -8.3704  -10.2225 N   0  0  0  0  0  0  0  0  0  0  0  0
  -13.3922   -7.0594  -10.5695 C   0  0  0  0  0  0  0  0  0  0  0  0
  -12.3489   -7.4836  -14.1406 N   0  0  0  0  0  0  0  0  0  0  0  0
  -12.8780   -5.8780   -7.5812 C   0  0  2  0  0  0  0  0  0  0  0  0
  -12.5153   -7.1402   -7.1412 O   0  0  0  0  0  0  0  0  0  0  0  0
  -13.4713   -5.0433   -6.4424 C   0  0  2  0  0  0  0  0  0  0  0  0
  -14.4024   -5.7977   -5.7343 O   0  0  0  0  0  0  0  0  0  0  0  0
  -12.6267   -4.3594  -13.7662 I   0  0  0  0  0  0  0  0  0  0  0  0
  1  2  1  0
  3  2  1  6
  3  4  1  0
  3 18  1  0
  4  5  1  0
  5  6  1  6
  5 16  1  0
  6  7  1  0
  6 14  1  0
  7  8  2  0
  8  9  1  0
  8 20  1  0
  9 10  1  0
  9 14  2  0
 10 11  2  0
 10 15  1  0
 11 12  1  0
 12 13  2  0
 13 14  1  0
 16 17  1  1
 16 18  1  0
 18 19  1  1
M  END
$$$$
