
     RDKit          3D

 20 22  0  0  0  0  0  0  0  0999 V2000
  -12.7713   -2.8202   -7.5577 O   0  0  0  0  0  0  0  0  0  0  0  0
  -14.0270   -3.1012   -8.1244 C   0  0  0  0  0  0  0  0  0  0  0  0
  -14.5421   -4.3383   -7.3757 C   0  0  1  0  0  0  0  0  0  0  0  0
  -14.8370   -5.3254   -8.2803 O   0  0  0  0  0  0  0  0  0  0  0  0
  -13.7454   -6.1339   -8.4499 C   0  0  1  0  0  0  0  0  0  0  0  0
  -13.3936   -6.1906   -9.8477 N   0  0  0  0  0  0  0  0  0  0  0  0
  -13.3144   -5.2010  -10.7531 C   0  0  0  0  0  0  0  0  0  0  0  0
  -12.9381   -5.7255  -11.9739 C   0  0  0  0  0  0  0  0  0  0  0  0
  -12.7831   -7.0818  -11.8046 C   0  0  0  0  0  0  0  0  0  0  0  0
  -12.4205   -8.0759  -12.6930 C   0  0  0  0  0  0  0  0  0  0  0  0
  -12.3572   -9.3316  -12.2102 N   0  0  0  0  0  0  0  0  0  0  0  0
  -12.6330   -9.6172  -10.9205 C   0  0  0  0  0  0  0  0  0  0  0  0
  -12.9836   -8.6297  -10.0770 N   0  0  0  0  0  0  0  0  0  0  0  0
  -13.0736   -7.3357  -10.4736 C   0  0  0  0  0  0  0  0  0  0  0  0
  -12.1209   -7.8193  -14.0624 N   0  0  0  0  0  0  0  0  0  0  0  0
  -12.6316   -5.6303   -7.5867 C   0  0  2  0  0  0  0  0  0  0  0  0
  -11.8512   -6.6384   -7.0455 O   0  0  0  0  0  0  0  0  0  0  0  0
  -13.4460   -4.9175   -6.5030 C   0  0  2  0  0  0  0  0  0  0  0  0
  -14.0481   -5.8535   -5.6671 O   0  0  0  0  0  0  0  0  0  0  0  0
  -12.6368   -4.7144  -13.7952 I   0  0  0  0  0  0  0  0  0  0  0  0
  1  2  1  0
  3  2  1  6
  3  4  1  0
  3 18  1  0
  4  5  1  0
  5  6  1  6
  5 16  1  0
  6  7  1  0
  6 14  1  0
  7  8  2  0
  8  9  1  0
  8 20  1  0
  9 10  1  0
  9 14  2  0
 10 11  2  0
 10 15  1  0
 11 12  1  0
 12 13  2  0
 13 14  1  0
 16 17  1  1
 16 18  1  0
 18 19  1  1
M  END
$$$$
