
     RDKit          3D

 20 22  0  0  0  0  0  0  0  0999 V2000
  -14.0434   -2.0378   -8.4026 O   0  0  0  0  0  0  0  0  0  0  0  0
  -13.1842   -3.0323   -7.9030 C   0  0  0  0  0  0  0  0  0  0  0  0
  -14.1069   -4.0944   -7.2889 C   0  0  1  0  0  0  0  0  0  0  0  0
  -14.6429   -4.8627   -8.2899 O   0  0  0  0  0  0  0  0  0  0  0  0
  -13.8535   -5.9616   -8.4980 C   0  0  1  0  0  0  0  0  0  0  0  0
  -13.4541   -6.0194   -9.8829 N   0  0  0  0  0  0  0  0  0  0  0  0
  -13.2826   -5.0235  -10.7684 C   0  0  0  0  0  0  0  0  0  0  0  0
  -12.8932   -5.5522  -11.9833 C   0  0  0  0  0  0  0  0  0  0  0  0
  -12.8258   -6.9176  -11.8309 C   0  0  0  0  0  0  0  0  0  0  0  0
  -12.4904   -7.9190  -12.7219 C   0  0  0  0  0  0  0  0  0  0  0  0
  -12.5200   -9.1830  -12.2580 N   0  0  0  0  0  0  0  0  0  0  0  0
  -12.8600   -9.4699  -10.9839 C   0  0  0  0  0  0  0  0  0  0  0  0
  -13.1821   -8.4752  -10.1374 N   0  0  0  0  0  0  0  0  0  0  0  0
  -13.1801   -7.1726  -10.5157 C   0  0  0  0  0  0  0  0  0  0  0  0
  -12.1255   -7.6613  -14.0751 N   0  0  0  0  0  0  0  0  0  0  0  0
  -12.6918   -5.9080   -7.5563 C   0  0  2  0  0  0  0  0  0  0  0  0
  -12.3028   -7.1512   -7.0855 O   0  0  0  0  0  0  0  0  0  0  0  0
  -13.3037   -5.0586   -6.4384 C   0  0  2  0  0  0  0  0  0  0  0  0
  -14.2191   -5.8152   -5.7125 O   0  0  0  0  0  0  0  0  0  0  0  0
  -12.4648   -4.5351  -13.7756 I   0  0  0  0  0  0  0  0  0  0  0  0
  1  2  1  0
  3  2  1  6
  3  4  1  0
  3 18  1  0
  4  5  1  0
  5  6  1  6
  5 16  1  0
  6  7  1  0
  6 14  1  0
  7  8  2  0
  8  9  1  0
  8 20  1  0
  9 10  1  0
  9 14  2  0
 10 11  2  0
 10 15  1  0
 11 12  1  0
 12 13  2  0
 13 14  1  0
 16 17  1  1
 16 18  1  0
 18 19  1  1
M  END
$$$$
