
     RDKit          3D

 20 22  0  0  0  0  0  0  0  0999 V2000
  -13.9796   -2.3157   -8.7025 O   0  0  0  0  0  0  0  0  0  0  0  0
  -13.1865   -2.9207   -7.7116 C   0  0  0  0  0  0  0  0  0  0  0  0
  -14.0900   -3.9749   -7.0567 C   0  0  1  0  0  0  0  0  0  0  0  0
  -14.6394   -4.7688   -8.0301 O   0  0  0  0  0  0  0  0  0  0  0  0
  -13.8465   -5.8668   -8.2289 C   0  0  1  0  0  0  0  0  0  0  0  0
  -13.4730   -5.9527   -9.6197 N   0  0  0  0  0  0  0  0  0  0  0  0
  -13.3188   -4.9750  -10.5283 C   0  0  0  0  0  0  0  0  0  0  0  0
  -12.9518   -5.5282  -11.7393 C   0  0  0  0  0  0  0  0  0  0  0  0
  -12.8805   -6.8903  -11.5603 C   0  0  0  0  0  0  0  0  0  0  0  0
  -12.5611   -7.9095  -12.4368 C   0  0  0  0  0  0  0  0  0  0  0  0
  -12.5811   -9.1638  -11.9468 N   0  0  0  0  0  0  0  0  0  0  0  0
  -12.8970   -9.4247  -10.6610 C   0  0  0  0  0  0  0  0  0  0  0  0
  -13.2040   -8.4131   -9.8291 N   0  0  0  0  0  0  0  0  0  0  0  0
  -13.2100   -7.1185  -10.2338 C   0  0  0  0  0  0  0  0  0  0  0  0
  -12.2217   -7.6793  -13.8016 N   0  0  0  0  0  0  0  0  0  0  0  0
  -12.6675   -5.7848   -7.3110 C   0  0  2  0  0  0  0  0  0  0  0  0
  -12.2610   -7.0146   -6.8205 O   0  0  0  0  0  0  0  0  0  0  0  0
  -13.2640   -4.9148   -6.2006 C   0  0  2  0  0  0  0  0  0  0  0  0
  -14.1603   -5.6611   -5.4408 O   0  0  0  0  0  0  0  0  0  0  0  0
  -12.5577   -4.5478  -13.5596 I   0  0  0  0  0  0  0  0  0  0  0  0
  1  2  1  0
  3  2  1  6
  3  4  1  0
  3 18  1  0
  4  5  1  0
  5  6  1  6
  5 16  1  0
  6  7  1  0
  6 14  1  0
  7  8  2  0
  8  9  1  0
  8 20  1  0
  9 10  1  0
  9 14  2  0
 10 11  2  0
 10 15  1  0
 11 12  1  0
 12 13  2  0
 13 14  1  0
 16 17  1  1
 16 18  1  0
 18 19  1  1
M  END
$$$$
