
     RDKit          3D

 50 50  0  0  0  0  0  0  0  0999 V2000
   16.2238    9.6148   23.3372 N   0  0  0  0  0  4  0  0  0  0  0  0
   16.4747    9.7834   24.7508 C   0  0  2  0  0  0  0  0  0  0  0  0
   16.3416    8.4616   25.4659 C   0  0  0  0  0  0  0  0  0  0  0  0
   16.5811    8.2926   26.6740 O   0  0  0  0  0  0  0  0  0  0  0  0
   15.4208   10.6717   25.3839 C   0  0  0  0  0  0  0  0  0  0  0  0
   15.3168   10.5683   26.8702 C   0  0  0  0  0  0  0  0  0  0  0  0
   16.5799   11.2698   27.4359 C   0  0  0  0  0  0  0  0  0  0  0  0
   16.0851   12.3676   28.3660 C   0  0  0  0  0  0  0  0  0  0  0  0
   15.9121    7.3727   24.6665 N   0  0  0  0  0  0  0  0  0  0  0  0
   16.0489    6.0171   25.1372 C   0  0  2  0  0  0  0  0  0  0  0  0
   15.0572    5.8170   26.2620 C   0  0  0  0  0  0  0  0  0  0  0  0
   15.4327    5.4134   27.3975 O   0  0  0  0  0  0  0  0  0  0  0  0
   17.4281    5.7966   25.7628 C   0  0  0  0  0  0  0  0  0  0  0  0
   13.6983    6.0854   26.0418 N   0  0  0  0  0  0  0  0  0  0  0  0
   12.6750    6.0983   27.0493 C   0  0  2  0  0  0  0  0  0  0  0  0
   11.9855    4.8023   27.1736 C   0  0  0  0  0  0  0  0  0  0  0  0
   11.4827    4.1924   26.2083 O   0  0  0  0  0  0  0  0  0  0  0  0
   11.7052    7.2219   26.6868 C   0  0  0  0  0  0  0  0  0  0  0  0
   12.1923    8.5139   27.1886 C   0  0  0  0  0  0  0  0  0  0  0  0
   13.1372    9.1177   26.6523 O   0  0  0  0  0  0  0  0  0  0  0  0
   11.5530    9.0484   28.3007 O   0  0  0  0  0  0  0  0  0  0  0  0
   11.8946    4.2080   28.4609 N   0  0  0  0  0  0  0  0  0  0  0  0
   11.0903    3.0546   28.7217 C   0  0  2  0  0  0  0  0  0  0  0  0
    9.6595    3.1842   28.4663 C   0  0  0  0  0  0  0  0  0  0  0  0
    9.2005    3.6512   27.3746 O   0  0  0  0  0  0  0  0  0  0  0  0
   11.3273    2.5791   30.1794 C   0  0  2  0  0  0  0  0  0  0  0  0
   10.9707    3.6300   30.9901 O   0  0  0  0  0  0  0  0  0  0  0  0
   12.8504    2.4459   30.3211 C   0  0  0  0  0  0  0  0  0  0  0  0
    8.6753    2.7967   29.4061 N   0  0  0  0  0  0  0  0  0  0  0  0
    7.2701    2.8766   29.1411 C   0  0  2  0  0  0  0  0  0  0  0  0
    6.3608    2.5232   30.2221 C   0  0  0  0  0  0  0  0  0  0  0  0
    6.7905    2.6544   31.4019 O   0  0  0  0  0  0  0  0  0  0  0  0
    6.9937    1.9709   27.9320 C   0  0  2  0  0  0  0  0  0  0  0  0
    7.5501    0.7275   28.2323 O   0  0  0  0  0  0  0  0  0  0  0  0
    7.6574    2.5038   26.6874 C   0  0  0  0  0  0  0  0  0  0  0  0
    5.0385    2.0404   30.1021 N   0  0  0  0  0  0  0  0  0  0  0  0
    4.1148    2.0718   31.2438 C   0  0  2  0  0  0  0  0  0  0  0  0
    2.7936    1.5452   30.8599 C   0  0  0  0  0  0  0  0  0  0  0  0
    2.3344    1.8183   29.7353 O   0  0  0  0  0  0  0  0  0  0  0  0
    3.9397    3.5575   31.5627 C   0  0  2  0  0  0  0  0  0  0  0  0
    3.6451    4.2156   30.3468 O   0  0  0  0  0  0  0  0  0  0  0  0
    5.2283    4.0502   32.1550 C   0  0  0  0  0  0  0  0  0  0  0  0
    2.0606    0.7245   31.7786 N   0  0  0  0  0  0  0  0  0  0  0  0
    0.9710   -0.1532   31.5569 C   0  0  2  0  0  0  0  0  0  0  0  0
   -0.2968    0.6011   31.2522 C   0  0  0  0  0  0  0  0  0  0  0  0
   -1.2091   -0.0513   30.4439 O   0  0  0  0  0  0  0  0  0  0  0  0
    0.6998   -0.9226   32.8126 C   0  0  0  0  0  0  0  0  0  0  0  0
    1.9020   -0.6561   33.6741 C   0  0  0  0  0  0  0  0  0  0  0  0
    2.3698    0.6875   33.2266 C   0  0  0  0  0  0  0  0  0  0  0  0
   -0.5329    1.7267   31.6784 O   0  0  0  0  0  0  0  0  0  0  0  0
  2  1  1  6
  2  3  1  0
  2  5  1  0
  3  4  2  0
  3  9  1  0
  5  6  1  0
  6  7  1  0
  7  8  1  0
  9 10  1  0
 10 11  1  0
 10 13  1  1
 11 12  2  0
 11 14  1  0
 14 15  1  0
 15 16  1  0
 15 18  1  6
 16 17  2  0
 16 22  1  0
 18 19  1  0
 19 20  2  0
 19 21  1  0
 23 22  1  1
 23 24  1  0
 23 26  1  0
 24 25  2  0
 24 29  1  0
 26 27  1  0
 26 28  1  6
 30 29  1  1
 30 31  1  0
 30 33  1  0
 31 32  2  0
 31 36  1  0
 33 34  1  0
 33 35  1  6
 37 36  1  6
 37 38  1  0
 37 40  1  0
 38 39  2  0
 38 43  1  0
 40 41  1  0
 40 42  1  6
 43 44  1  0
 43 49  1  0
 44 45  1  1
 44 47  1  0
 45 46  1  0
 45 50  2  0
 47 48  1  0
 48 49  1  0
M  CHG  1   1   1
M  END
$$$$
