
     RDKit          3D

 50 50  0  0  0  0  0  0  0  0999 V2000
   -3.3628    5.1939   28.1904 N   0  0  0  0  0  4  0  0  0  0  0  0
   -2.0061    5.6635   28.0212 C   0  0  2  0  0  0  0  0  0  0  0  0
   -1.1325    4.5544   27.4890 C   0  0  0  0  0  0  0  0  0  0  0  0
   -1.4416    3.3505   27.5076 O   0  0  0  0  0  0  0  0  0  0  0  0
   -1.3911    6.0305   29.3582 C   0  0  0  0  0  0  0  0  0  0  0  0
   -2.2429    6.8937   30.2300 C   0  0  0  0  0  0  0  0  0  0  0  0
   -1.3783    7.2284   31.4741 C   0  0  0  0  0  0  0  0  0  0  0  0
   -2.3133    7.8634   32.4926 C   0  0  0  0  0  0  0  0  0  0  0  0
    0.1101    4.9618   26.9421 N   0  0  0  0  0  0  0  0  0  0  0  0
    1.0370    3.9891   26.4201 C   0  0  2  0  0  0  0  0  0  0  0  0
    2.0204    3.6525   27.5194 C   0  0  0  0  0  0  0  0  0  0  0  0
    1.6927    3.7380   28.7354 O   0  0  0  0  0  0  0  0  0  0  0  0
    1.8757    4.5907   25.2902 C   0  0  0  0  0  0  0  0  0  0  0  0
    3.3173    3.2370   27.1838 N   0  0  0  0  0  0  0  0  0  0  0  0
    4.3327    2.8331   28.1155 C   0  0  2  0  0  0  0  0  0  0  0  0
    5.2250    3.9414   28.4974 C   0  0  0  0  0  0  0  0  0  0  0  0
    4.8495    5.1270   28.5972 O   0  0  0  0  0  0  0  0  0  0  0  0
    5.1038    1.6850   27.4660 C   0  0  0  0  0  0  0  0  0  0  0  0
    6.0046    1.0469   28.4354 C   0  0  0  0  0  0  0  0  0  0  0  0
    5.5942    0.5820   29.5127 O   0  0  0  0  0  0  0  0  0  0  0  0
    7.3526    0.9788   28.1047 O   0  0  0  0  0  0  0  0  0  0  0  0
    6.5862    3.6452   28.7765 N   0  0  0  0  0  0  0  0  0  0  0  0
    7.4405    4.5458   29.4867 C   0  0  2  0  0  0  0  0  0  0  0  0
    8.8053    4.0933   29.7353 C   0  0  0  0  0  0  0  0  0  0  0  0
    9.0697    2.9217   30.1575 O   0  0  0  0  0  0  0  0  0  0  0  0
    6.7652    4.9517   30.8233 C   0  0  2  0  0  0  0  0  0  0  0  0
    7.5571    5.9313   31.3730 O   0  0  0  0  0  0  0  0  0  0  0  0
    6.9182    3.7317   31.7431 C   0  0  0  0  0  0  0  0  0  0  0  0
    9.9363    4.9161   29.5214 N   0  0  0  0  0  0  0  0  0  0  0  0
   11.1324    4.4478   28.8882 C   0  0  2  0  0  0  0  0  0  0  0  0
   12.2341    5.3901   28.7517 C   0  0  0  0  0  0  0  0  0  0  0  0
   11.9910    6.4782   28.1593 O   0  0  0  0  0  0  0  0  0  0  0  0
   10.7283    3.9380   27.4970 C   0  0  2  0  0  0  0  0  0  0  0  0
   10.2916    5.0508   26.7781 O   0  0  0  0  0  0  0  0  0  0  0  0
    9.5925    2.9503   27.5859 C   0  0  0  0  0  0  0  0  0  0  0  0
   13.5612    5.2240   29.2071 N   0  0  0  0  0  0  0  0  0  0  0  0
   14.6329    6.1237   28.7602 C   0  0  2  0  0  0  0  0  0  0  0  0
   14.4449    6.4969   27.3475 C   0  0  0  0  0  0  0  0  0  0  0  0
   13.9075    5.6851   26.5713 O   0  0  0  0  0  0  0  0  0  0  0  0
   15.9080    5.2833   28.8453 C   0  0  2  0  0  0  0  0  0  0  0  0
   15.7217    4.1532   28.0167 O   0  0  0  0  0  0  0  0  0  0  0  0
   16.0956    4.8859   30.2809 C   0  0  0  0  0  0  0  0  0  0  0  0
   14.8752    7.7850   26.8887 N   0  0  0  0  0  0  0  0  0  0  0  0
   14.8841    8.3388   25.5848 C   0  0  2  0  0  0  0  0  0  0  0  0
   15.9382    7.7013   24.7178 C   0  0  0  0  0  0  0  0  0  0  0  0
   15.7584    7.8313   23.3533 O   0  0  0  0  0  0  0  0  0  0  0  0
   15.2457    9.7892   25.6723 C   0  0  0  0  0  0  0  0  0  0  0  0
   15.1387   10.1073   27.1372 C   0  0  0  0  0  0  0  0  0  0  0  0
   15.4306    8.8066   27.8061 C   0  0  0  0  0  0  0  0  0  0  0  0
   16.9065    7.0959   25.1654 O   0  0  0  0  0  0  0  0  0  0  0  0
  2  1  1  1
  2  3  1  0
  2  5  1  0
  3  4  2  0
  3  9  1  0
  5  6  1  0
  6  7  1  0
  7  8  1  0
  9 10  1  0
 10 11  1  0
 10 13  1  6
 11 12  2  0
 11 14  1  0
 14 15  1  0
 15 16  1  0
 15 18  1  6
 16 17  2  0
 16 22  1  0
 18 19  1  0
 19 20  2  0
 19 21  1  0
 23 22  1  1
 23 24  1  0
 23 26  1  0
 24 25  2  0
 24 29  1  0
 26 27  1  0
 26 28  1  1
 30 29  1  6
 30 31  1  0
 30 33  1  0
 31 32  2  0
 31 36  1  0
 33 34  1  0
 33 35  1  1
 37 36  1  6
 37 38  1  0
 37 40  1  0
 38 39  2  0
 38 43  1  0
 40 41  1  0
 40 42  1  1
 43 44  1  0
 43 49  1  0
 44 45  1  6
 44 47  1  0
 45 46  1  0
 45 50  2  0
 47 48  1  0
 48 49  1  0
M  CHG  1   1   1
M  END
$$$$
