
     RDKit          3D

 50 50  0  0  0  0  0  0  0  0999 V2000
    4.2105   -3.5202   33.0544 N   0  0  0  0  0  4  0  0  0  0  0  0
    4.9137   -2.5175   33.8223 C   0  0  2  0  0  0  0  0  0  0  0  0
    5.6975   -1.6119   32.9047 C   0  0  0  0  0  0  0  0  0  0  0  0
    6.4693   -0.7190   33.2952 O   0  0  0  0  0  0  0  0  0  0  0  0
    5.9583   -3.1570   34.7170 C   0  0  0  0  0  0  0  0  0  0  0  0
    5.4561   -4.2661   35.5820 C   0  0  0  0  0  0  0  0  0  0  0  0
    5.2320   -3.6441   36.9858 C   0  0  0  0  0  0  0  0  0  0  0  0
    6.5962   -3.5888   37.6572 C   0  0  0  0  0  0  0  0  0  0  0  0
    5.5086   -1.8328   31.5174 N   0  0  0  0  0  0  0  0  0  0  0  0
    6.1101   -0.9547   30.5453 C   0  0  2  0  0  0  0  0  0  0  0  0
    6.9467    0.0590   31.2944 C   0  0  0  0  0  0  0  0  0  0  0  0
    7.2591   -0.1205   32.5042 O   0  0  0  0  0  0  0  0  0  0  0  0
    5.0400   -0.1419   29.8129 C   0  0  0  0  0  0  0  0  0  0  0  0
    7.3847    1.2169   30.6351 N   0  0  0  0  0  0  0  0  0  0  0  0
    8.3206    1.2553   29.5466 C   0  0  2  0  0  0  0  0  0  0  0  0
    8.5294    2.6177   29.0263 C   0  0  0  0  0  0  0  0  0  0  0  0
    8.2278    2.9679   27.8674 O   0  0  0  0  0  0  0  0  0  0  0  0
    7.7893    0.3134   28.4672 C   0  0  0  0  0  0  0  0  0  0  0  0
    8.7125    0.2538   27.3260 C   0  0  0  0  0  0  0  0  0  0  0  0
    9.8240   -0.2974   27.4028 O   0  0  0  0  0  0  0  0  0  0  0  0
    8.2974    0.8436   26.1381 O   0  0  0  0  0  0  0  0  0  0  0  0
    9.0969    3.5903   29.8925 N   0  0  0  0  0  0  0  0  0  0  0  0
    9.3785    4.9273   29.4701 C   0  0  2  0  0  0  0  0  0  0  0  0
   10.1809    5.0753   28.2604 C   0  0  0  0  0  0  0  0  0  0  0  0
   10.6810    4.0782   27.6468 O   0  0  0  0  0  0  0  0  0  0  0  0
   10.0325    5.7108   30.6387 C   0  0  2  0  0  0  0  0  0  0  0  0
   11.1727    5.0208   30.9745 O   0  0  0  0  0  0  0  0  0  0  0  0
    9.0783    5.5369   31.8291 C   0  0  0  0  0  0  0  0  0  0  0  0
   10.4592    6.3328   27.6746 N   0  0  0  0  0  0  0  0  0  0  0  0
   11.4117    6.5077   26.6195 C   0  0  2  0  0  0  0  0  0  0  0  0
   12.4390    7.5232   26.8026 C   0  0  0  0  0  0  0  0  0  0  0  0
   12.0561    8.7246   26.8654 O   0  0  0  0  0  0  0  0  0  0  0  0
   10.6121    6.8216   25.3465 C   0  0  2  0  0  0  0  0  0  0  0  0
    9.8356    5.6944   25.0775 O   0  0  0  0  0  0  0  0  0  0  0  0
   11.5269    7.0633   24.1725 C   0  0  0  0  0  0  0  0  0  0  0  0
   13.8323    7.3179   26.9151 N   0  0  0  0  0  0  0  0  0  0  0  0
   14.7551    8.4514   27.0613 C   0  0  2  0  0  0  0  0  0  0  0  0
   14.9089    9.1665   25.7826 C   0  0  0  0  0  0  0  0  0  0  0  0
   14.6799    8.5630   24.7179 O   0  0  0  0  0  0  0  0  0  0  0  0
   16.1052    7.8143   27.3941 C   0  0  2  0  0  0  0  0  0  0  0  0
   16.3686    6.8455   26.3990 O   0  0  0  0  0  0  0  0  0  0  0  0
   15.9892    7.1871   28.7532 C   0  0  0  0  0  0  0  0  0  0  0  0
   15.3119   10.5422   25.7810 N   0  0  0  0  0  0  0  0  0  0  0  0
   15.3902   11.4741   24.7169 C   0  0  2  0  0  0  0  0  0  0  0  0
   16.5327   11.1603   23.7866 C   0  0  0  0  0  0  0  0  0  0  0  0
   16.4028   11.6251   22.4912 O   0  0  0  0  0  0  0  0  0  0  0  0
   15.6776   12.8327   25.2773 C   0  0  0  0  0  0  0  0  0  0  0  0
   15.4498   12.6770   26.7545 C   0  0  0  0  0  0  0  0  0  0  0  0
   15.7516   11.2392   27.0116 C   0  0  0  0  0  0  0  0  0  0  0  0
   17.5291   10.5314   24.1276 O   0  0  0  0  0  0  0  0  0  0  0  0
  2  1  1  6
  2  3  1  0
  2  5  1  0
  3  4  2  0
  3  9  1  0
  5  6  1  0
  6  7  1  0
  7  8  1  0
  9 10  1  0
 10 11  1  0
 10 13  1  1
 11 12  2  0
 11 14  1  0
 14 15  1  0
 15 16  1  0
 15 18  1  6
 16 17  2  0
 16 22  1  0
 18 19  1  0
 19 20  2  0
 19 21  1  0
 23 22  1  1
 23 24  1  0
 23 26  1  0
 24 25  2  0
 24 29  1  0
 26 27  1  0
 26 28  1  1
 30 29  1  1
 30 31  1  0
 30 33  1  0
 31 32  2  0
 31 36  1  0
 33 34  1  0
 33 35  1  6
 37 36  1  6
 37 38  1  0
 37 40  1  0
 38 39  2  0
 38 43  1  0
 40 41  1  0
 40 42  1  1
 43 44  1  0
 43 49  1  0
 44 45  1  6
 44 47  1  0
 45 46  1  0
 45 50  2  0
 47 48  1  0
 48 49  1  0
M  CHG  1   1   1
M  END
$$$$
