
     RDKit          3D

 50 50  0  0  0  0  0  0  0  0999 V2000
   16.2262    6.5950   24.4557 N   0  0  0  0  0  4  0  0  0  0  0  0
   17.1318    6.8594   25.5510 C   0  0  2  0  0  0  0  0  0  0  0  0
   16.4819    6.4996   26.8642 C   0  0  0  0  0  0  0  0  0  0  0  0
   17.0305    5.8286   27.7554 O   0  0  0  0  0  0  0  0  0  0  0  0
   17.4272    8.3431   25.6611 C   0  0  0  0  0  0  0  0  0  0  0  0
   17.9794    8.9711   24.4237 C   0  0  0  0  0  0  0  0  0  0  0  0
   19.3710    9.5344   24.8158 C   0  0  0  0  0  0  0  0  0  0  0  0
   19.2845   11.0457   24.6635 C   0  0  0  0  0  0  0  0  0  0  0  0
   15.1614    6.9811   27.0469 N   0  0  0  0  0  0  0  0  0  0  0  0
   14.4628    6.7566   28.2877 C   0  0  2  0  0  0  0  0  0  0  0  0
   13.4410    5.6663   28.0512 C   0  0  0  0  0  0  0  0  0  0  0  0
   13.0600    5.3725   26.8842 O   0  0  0  0  0  0  0  0  0  0  0  0
   13.6565    7.9942   28.6878 C   0  0  0  0  0  0  0  0  0  0  0  0
   12.9085    4.9685   29.1451 N   0  0  0  0  0  0  0  0  0  0  0  0
   11.9292    3.9208   29.0714 C   0  0  2  0  0  0  0  0  0  0  0  0
   10.6178    4.4024   28.6038 C   0  0  0  0  0  0  0  0  0  0  0  0
    9.9519    5.2758   29.1956 O   0  0  0  0  0  0  0  0  0  0  0  0
   11.8383    3.2956   30.4626 C   0  0  0  0  0  0  0  0  0  0  0  0
   11.6494    1.8416   30.3701 C   0  0  0  0  0  0  0  0  0  0  0  0
   11.5316    1.1247   31.3787 O   0  0  0  0  0  0  0  0  0  0  0  0
   11.6065    1.2835   29.0981 O   0  0  0  0  0  0  0  0  0  0  0  0
   10.0839    3.8499   27.4087 N   0  0  0  0  0  0  0  0  0  0  0  0
    8.7773    4.1746   26.9266 C   0  0  2  0  0  0  0  0  0  0  0  0
    7.6750    3.3587   27.4251 C   0  0  0  0  0  0  0  0  0  0  0  0
    7.3362    2.2608   26.8769 O   0  0  0  0  0  0  0  0  0  0  0  0
    8.7829    4.1664   25.3751 C   0  0  2  0  0  0  0  0  0  0  0  0
    9.0923    2.8816   24.9978 O   0  0  0  0  0  0  0  0  0  0  0  0
    9.9930    5.0196   24.9683 C   0  0  0  0  0  0  0  0  0  0  0  0
    6.9045    3.7200   28.5555 N   0  0  0  0  0  0  0  0  0  0  0  0
    5.7546    2.9813   28.9835 C   0  0  2  0  0  0  0  0  0  0  0  0
    4.4947    3.2444   28.3026 C   0  0  0  0  0  0  0  0  0  0  0  0
    4.3777    4.3570   27.7178 O   0  0  0  0  0  0  0  0  0  0  0  0
    5.5842    3.2552   30.4850 C   0  0  2  0  0  0  0  0  0  0  0  0
    5.4008    4.6315   30.6189 O   0  0  0  0  0  0  0  0  0  0  0  0
    6.8184    2.8600   31.2558 C   0  0  0  0  0  0  0  0  0  0  0  0
    3.3723    2.3899   28.2232 N   0  0  0  0  0  0  0  0  0  0  0  0
    2.2046    2.7480   27.4072 C   0  0  2  0  0  0  0  0  0  0  0  0
    0.9657    2.6479   28.1980 C   0  0  0  0  0  0  0  0  0  0  0  0
    0.9691    1.9823   29.2502 O   0  0  0  0  0  0  0  0  0  0  0  0
    2.1426    1.6717   26.3221 C   0  0  2  0  0  0  0  0  0  0  0  0
    2.2865    0.4204   26.9638 O   0  0  0  0  0  0  0  0  0  0  0  0
    3.2681    1.9286   25.3622 C   0  0  0  0  0  0  0  0  0  0  0  0
   -0.2194    3.3194   27.7514 N   0  0  0  0  0  0  0  0  0  0  0  0
   -1.4802    3.4707   28.3794 C   0  0  2  0  0  0  0  0  0  0  0  0
   -2.2484    2.1751   28.4022 C   0  0  0  0  0  0  0  0  0  0  0  0
   -3.3481    2.1389   29.2392 O   0  0  0  0  0  0  0  0  0  0  0  0
   -2.3116    4.4276   27.5823 C   0  0  0  0  0  0  0  0  0  0  0  0
   -1.3356    5.0561   26.6278 C   0  0  0  0  0  0  0  0  0  0  0  0
   -0.2938    4.0052   26.4407 C   0  0  0  0  0  0  0  0  0  0  0  0
   -1.9406    1.1947   27.7323 O   0  0  0  0  0  0  0  0  0  0  0  0
  2  1  1  6
  2  3  1  0
  2  5  1  0
  3  4  2  0
  3  9  1  0
  5  6  1  0
  6  7  1  0
  7  8  1  0
  9 10  1  0
 10 11  1  0
 10 13  1  6
 11 12  2  0
 11 14  1  0
 14 15  1  0
 15 16  1  0
 15 18  1  1
 16 17  2  0
 16 22  1  0
 18 19  1  0
 19 20  2  0
 19 21  1  0
 23 22  1  1
 23 24  1  0
 23 26  1  0
 24 25  2  0
 24 29  1  0
 26 27  1  0
 26 28  1  1
 30 29  1  6
 30 31  1  0
 30 33  1  0
 31 32  2  0
 31 36  1  0
 33 34  1  0
 33 35  1  1
 37 36  1  1
 37 38  1  0
 37 40  1  0
 38 39  2  0
 38 43  1  0
 40 41  1  0
 40 42  1  6
 43 44  1  0
 43 49  1  0
 44 45  1  6
 44 47  1  0
 45 46  1  0
 45 50  2  0
 47 48  1  0
 48 49  1  0
M  CHG  1   1   1
M  END
$$$$
