
     RDKit          3D

 50 50  0  0  0  0  0  0  0  0999 V2000
   19.6264   11.1928   25.2478 N   0  0  0  0  0  4  0  0  0  0  0  0
   19.8371   10.3003   24.1303 C   0  0  2  0  0  0  0  0  0  0  0  0
   19.6168    8.8697   24.5560 C   0  0  0  0  0  0  0  0  0  0  0  0
   20.4779    7.9765   24.4787 O   0  0  0  0  0  0  0  0  0  0  0  0
   21.2807   10.3466   23.6672 C   0  0  0  0  0  0  0  0  0  0  0  0
   21.7405    9.1440   22.9104 C   0  0  0  0  0  0  0  0  0  0  0  0
   23.2122    9.4290   22.5099 C   0  0  0  0  0  0  0  0  0  0  0  0
   23.5095    8.5524   21.3024 C   0  0  0  0  0  0  0  0  0  0  0  0
   18.3297    8.5748   25.0712 N   0  0  0  0  0  0  0  0  0  0  0  0
   18.0766    7.3256   25.7444 C   0  0  2  0  0  0  0  0  0  0  0  0
   16.5784    7.1752   25.8901 C   0  0  0  0  0  0  0  0  0  0  0  0
   15.8872    8.0622   26.4635 O   0  0  0  0  0  0  0  0  0  0  0  0
   18.6260    7.3579   27.1725 C   0  0  0  0  0  0  0  0  0  0  0  0
   15.9450    6.0330   25.3788 N   0  0  0  0  0  0  0  0  0  0  0  0
   14.5343    5.7683   25.4250 C   0  0  2  0  0  0  0  0  0  0  0  0
   14.1242    5.0957   26.6699 C   0  0  0  0  0  0  0  0  0  0  0  0
   14.4757    3.9389   26.9778 O   0  0  0  0  0  0  0  0  0  0  0  0
   14.1962    4.9310   24.1925 C   0  0  0  0  0  0  0  0  0  0  0  0
   12.9187    5.3578   23.6060 C   0  0  0  0  0  0  0  0  0  0  0  0
   12.1126    4.5481   23.1163 O   0  0  0  0  0  0  0  0  0  0  0  0
   12.6352    6.7183   23.6155 O   0  0  0  0  0  0  0  0  0  0  0  0
   13.2898    5.8044   27.5755 N   0  0  0  0  0  0  0  0  0  0  0  0
   12.5713    5.1567   28.6289 C   0  0  2  0  0  0  0  0  0  0  0  0
   11.3613    4.4358   28.2477 C   0  0  0  0  0  0  0  0  0  0  0  0
   11.2318    3.8711   27.1141 O   0  0  0  0  0  0  0  0  0  0  0  0
   12.2453    6.1880   29.7412 C   0  0  2  0  0  0  0  0  0  0  0  0
   11.3238    7.0550   29.2046 O   0  0  0  0  0  0  0  0  0  0  0  0
   13.5295    7.0099   29.9229 C   0  0  0  0  0  0  0  0  0  0  0  0
   10.2452    4.3038   29.1072 N   0  0  0  0  0  0  0  0  0  0  0  0
    9.2871    3.2464   28.9841 C   0  0  2  0  0  0  0  0  0  0  0  0
    8.2969    3.1096   30.0428 C   0  0  0  0  0  0  0  0  0  0  0  0
    8.4091    3.8773   31.0387 O   0  0  0  0  0  0  0  0  0  0  0  0
   10.0824    1.9381   28.8640 C   0  0  2  0  0  0  0  0  0  0  0  0
    9.1574    0.9374   28.5661 O   0  0  0  0  0  0  0  0  0  0  0  0
   10.7610    1.5901   30.1648 C   0  0  0  0  0  0  0  0  0  0  0  0
    7.2141    2.2031   30.0873 N   0  0  0  0  0  0  0  0  0  0  0  0
    6.1850    2.3038   31.1306 C   0  0  2  0  0  0  0  0  0  0  0  0
    5.1241    1.3048   30.9144 C   0  0  0  0  0  0  0  0  0  0  0  0
    4.8959    0.9019   29.7586 O   0  0  0  0  0  0  0  0  0  0  0  0
    5.5600    3.6853   30.9294 C   0  0  2  0  0  0  0  0  0  0  0  0
    4.4399    3.7680   31.7879 O   0  0  0  0  0  0  0  0  0  0  0  0
    5.1555    3.7956   29.4877 C   0  0  0  0  0  0  0  0  0  0  0  0
    4.3768    0.8076   32.0320 N   0  0  0  0  0  0  0  0  0  0  0  0
    3.6490   -0.3980   32.1859 C   0  0  2  0  0  0  0  0  0  0  0  0
    2.3830   -0.3906   31.3697 C   0  0  0  0  0  0  0  0  0  0  0  0
    2.0026   -1.6064   30.8327 O   0  0  0  0  0  0  0  0  0  0  0  0
    3.2169   -0.5293   33.6136 C   0  0  0  0  0  0  0  0  0  0  0  0
    4.0098    0.5233   34.3360 C   0  0  0  0  0  0  0  0  0  0  0  0
    4.2460    1.5668   33.2970 C   0  0  0  0  0  0  0  0  0  0  0  0
    1.7106    0.6164   31.1740 O   0  0  0  0  0  0  0  0  0  0  0  0
  2  1  1  1
  2  3  1  0
  2  5  1  0
  3  4  2  0
  3  9  1  0
  5  6  1  0
  6  7  1  0
  7  8  1  0
  9 10  1  0
 10 11  1  0
 10 13  1  1
 11 12  2  0
 11 14  1  0
 14 15  1  0
 15 16  1  0
 15 18  1  6
 16 17  2  0
 16 22  1  0
 18 19  1  0
 19 20  2  0
 19 21  1  0
 23 22  1  6
 23 24  1  0
 23 26  1  0
 24 25  2  0
 24 29  1  0
 26 27  1  0
 26 28  1  6
 30 29  1  1
 30 31  1  0
 30 33  1  0
 31 32  2  0
 31 36  1  0
 33 34  1  0
 33 35  1  1
 37 36  1  6
 37 38  1  0
 37 40  1  0
 38 39  2  0
 38 43  1  0
 40 41  1  0
 40 42  1  6
 43 44  1  0
 43 49  1  0
 44 45  1  6
 44 47  1  0
 45 46  1  0
 45 50  2  0
 47 48  1  0
 48 49  1  0
M  CHG  1   1   1
M  END
$$$$
