
     RDKit          3D

 50 50  0  0  0  0  0  0  0  0999 V2000
   18.3342    9.2988   23.0230 N   0  0  0  0  0  4  0  0  0  0  0  0
   19.0995    9.9378   24.0697 C   0  0  2  0  0  0  0  0  0  0  0  0
   18.4100    9.7648   25.4004 C   0  0  0  0  0  0  0  0  0  0  0  0
   18.3811   10.6315   26.2912 O   0  0  0  0  0  0  0  0  0  0  0  0
   19.1563   11.4386   23.8574 C   0  0  0  0  0  0  0  0  0  0  0  0
   19.8543   12.2032   24.9338 C   0  0  0  0  0  0  0  0  0  0  0  0
   19.8424   13.6868   24.4796 C   0  0  0  0  0  0  0  0  0  0  0  0
   20.8484   14.4161   25.3576 C   0  0  0  0  0  0  0  0  0  0  0  0
   17.7673    8.5174   25.6002 N   0  0  0  0  0  0  0  0  0  0  0  0
   16.3400    8.4485   25.7899 C   0  0  2  0  0  0  0  0  0  0  0  0
   15.9660    6.9918   25.9533 C   0  0  0  0  0  0  0  0  0  0  0  0
   16.8525    6.0980   26.0461 O   0  0  0  0  0  0  0  0  0  0  0  0
   15.6026    8.9226   24.5354 C   0  0  0  0  0  0  0  0  0  0  0  0
   14.6127    6.6268   26.0046 N   0  0  0  0  0  0  0  0  0  0  0  0
   13.7759    6.6822   27.1703 C   0  0  2  0  0  0  0  0  0  0  0  0
   12.3866    6.2794   26.8906 C   0  0  0  0  0  0  0  0  0  0  0  0
   11.8150    6.4830   25.8004 O   0  0  0  0  0  0  0  0  0  0  0  0
   13.8527    8.1103   27.7080 C   0  0  0  0  0  0  0  0  0  0  0  0
   13.0823    8.2418   28.9520 C   0  0  0  0  0  0  0  0  0  0  0  0
   12.1306    7.4896   29.2229 O   0  0  0  0  0  0  0  0  0  0  0  0
   13.4570    9.2511   29.8307 O   0  0  0  0  0  0  0  0  0  0  0  0
   11.6587    5.6145   27.9136 N   0  0  0  0  0  0  0  0  0  0  0  0
   10.7319    4.5605   27.6388 C   0  0  2  0  0  0  0  0  0  0  0  0
   10.0435    3.9795   28.7867 C   0  0  0  0  0  0  0  0  0  0  0  0
   10.5614    3.0609   29.5000 O   0  0  0  0  0  0  0  0  0  0  0  0
   11.4439    3.4455   26.8281 C   0  0  2  0  0  0  0  0  0  0  0  0
   12.4388    2.9549   27.6395 O   0  0  0  0  0  0  0  0  0  0  0  0
   12.1647    4.1722   25.6835 C   0  0  0  0  0  0  0  0  0  0  0  0
    8.7549    4.3947   29.1980 N   0  0  0  0  0  0  0  0  0  0  0  0
    8.0299    3.7546   30.2543 C   0  0  2  0  0  0  0  0  0  0  0  0
    7.5703    2.3921   30.0248 C   0  0  0  0  0  0  0  0  0  0  0  0
    6.9331    2.1715   28.9575 O   0  0  0  0  0  0  0  0  0  0  0  0
    6.8218    4.6490   30.5695 C   0  0  2  0  0  0  0  0  0  0  0  0
    7.2552    5.9668   30.4241 O   0  0  0  0  0  0  0  0  0  0  0  0
    6.3532    4.4535   31.9893 C   0  0  0  0  0  0  0  0  0  0  0  0
    7.7532    1.2754   30.8707 N   0  0  0  0  0  0  0  0  0  0  0  0
    7.0095    0.0282   30.6492 C   0  0  2  0  0  0  0  0  0  0  0  0
    5.6991    0.0765   31.3208 C   0  0  0  0  0  0  0  0  0  0  0  0
    5.5485    0.8237   32.3053 O   0  0  0  0  0  0  0  0  0  0  0  0
    7.8408   -1.0503   31.3460 C   0  0  2  0  0  0  0  0  0  0  0  0
    6.9417   -2.0350   31.8153 O   0  0  0  0  0  0  0  0  0  0  0  0
    8.5774   -0.3955   32.4786 C   0  0  0  0  0  0  0  0  0  0  0  0
    4.6188   -0.7283   30.8310 N   0  0  0  0  0  0  0  0  0  0  0  0
    3.2459   -0.7323   31.1804 C   0  0  2  0  0  0  0  0  0  0  0  0
    3.0241   -1.3085   32.5545 C   0  0  0  0  0  0  0  0  0  0  0  0
    1.8598   -0.9218   33.1916 O   0  0  0  0  0  0  0  0  0  0  0  0
    2.5036   -1.6257   30.2353 C   0  0  0  0  0  0  0  0  0  0  0  0
    3.4866   -1.8891   29.1295 C   0  0  0  0  0  0  0  0  0  0  0  0
    4.8146   -1.7718   29.7983 C   0  0  0  0  0  0  0  0  0  0  0  0
    3.8108   -2.0742   33.1015 O   0  0  0  0  0  0  0  0  0  0  0  0
  2  1  1  6
  2  3  1  0
  2  5  1  0
  3  4  2  0
  3  9  1  0
  5  6  1  0
  6  7  1  0
  7  8  1  0
  9 10  1  0
 10 11  1  0
 10 13  1  6
 11 12  2  0
 11 14  1  0
 14 15  1  0
 15 16  1  0
 15 18  1  6
 16 17  2  0
 16 22  1  0
 18 19  1  0
 19 20  2  0
 19 21  1  0
 23 22  1  1
 23 24  1  0
 23 26  1  0
 24 25  2  0
 24 29  1  0
 26 27  1  0
 26 28  1  6
 30 29  1  6
 30 31  1  0
 30 33  1  0
 31 32  2  0
 31 36  1  0
 33 34  1  0
 33 35  1  1
 37 36  1  1
 37 38  1  0
 37 40  1  0
 38 39  2  0
 38 43  1  0
 40 41  1  0
 40 42  1  1
 43 44  1  0
 43 49  1  0
 44 45  1  1
 44 47  1  0
 45 46  1  0
 45 50  2  0
 47 48  1  0
 48 49  1  0
M  CHG  1   1   1
M  END
$$$$
