
     RDKit          3D

 50 50  0  0  0  0  0  0  0  0999 V2000
   20.5014    7.8635   26.3404 N   0  0  0  0  0  4  0  0  0  0  0  0
   19.6985    8.4540   25.2934 C   0  0  2  0  0  0  0  0  0  0  0  0
   18.4862    9.1306   25.8840 C   0  0  0  0  0  0  0  0  0  0  0  0
   18.3788   10.3588   26.0436 O   0  0  0  0  0  0  0  0  0  0  0  0
   19.1349    7.3847   24.3771 C   0  0  0  0  0  0  0  0  0  0  0  0
   19.4036    7.5927   22.9229 C   0  0  0  0  0  0  0  0  0  0  0  0
   18.4282    6.6498   22.1697 C   0  0  0  0  0  0  0  0  0  0  0  0
   19.2852    5.7644   21.2772 C   0  0  0  0  0  0  0  0  0  0  0  0
   17.4278    8.2682   26.2652 N   0  0  0  0  0  0  0  0  0  0  0  0
   16.0747    8.5368   25.8470 C   0  0  2  0  0  0  0  0  0  0  0  0
   15.1810    7.4909   26.4764 C   0  0  0  0  0  0  0  0  0  0  0  0
   15.4900    6.2674   26.4479 O   0  0  0  0  0  0  0  0  0  0  0  0
   15.9262    8.3469   24.3357 C   0  0  0  0  0  0  0  0  0  0  0  0
   13.9903    7.8856   27.1037 N   0  0  0  0  0  0  0  0  0  0  0  0
   13.0091    7.0007   27.6665 C   0  0  2  0  0  0  0  0  0  0  0  0
   12.0470    6.5102   26.6645 C   0  0  0  0  0  0  0  0  0  0  0  0
   12.3524    6.2515   25.4827 O   0  0  0  0  0  0  0  0  0  0  0  0
   12.3129    7.7637   28.7923 C   0  0  0  0  0  0  0  0  0  0  0  0
   12.4175    7.0315   30.0616 C   0  0  0  0  0  0  0  0  0  0  0  0
   11.4235    6.5464   30.6290 O   0  0  0  0  0  0  0  0  0  0  0  0
   13.6839    6.8964   30.6177 O   0  0  0  0  0  0  0  0  0  0  0  0
   10.6986    6.3113   27.0656 N   0  0  0  0  0  0  0  0  0  0  0  0
   10.1471    5.0120   27.2958 C   0  0  2  0  0  0  0  0  0  0  0  0
    9.6979    4.7238   28.6539 C   0  0  0  0  0  0  0  0  0  0  0  0
   10.4766    4.2555   29.5455 O   0  0  0  0  0  0  0  0  0  0  0  0
   11.1601    3.9320   26.8325 C   0  0  2  0  0  0  0  0  0  0  0  0
   10.4581    2.7529   26.7565 O   0  0  0  0  0  0  0  0  0  0  0  0
   12.1345    3.7582   28.0064 C   0  0  0  0  0  0  0  0  0  0  0  0
    8.3689    4.9473   29.0849 N   0  0  0  0  0  0  0  0  0  0  0  0
    7.6785    4.0619   29.9740 C   0  0  2  0  0  0  0  0  0  0  0  0
    6.6851    3.1680   29.3956 C   0  0  0  0  0  0  0  0  0  0  0  0
    6.2108    3.4858   28.2696 O   0  0  0  0  0  0  0  0  0  0  0  0
    7.0082    4.9385   31.0422 C   0  0  2  0  0  0  0  0  0  0  0  0
    6.0891    5.7465   30.3727 O   0  0  0  0  0  0  0  0  0  0  0  0
    8.0141    5.8268   31.7297 C   0  0  0  0  0  0  0  0  0  0  0  0
    6.1811    1.9737   29.9575 N   0  0  0  0  0  0  0  0  0  0  0  0
    5.1864    1.1622   29.2434 C   0  0  2  0  0  0  0  0  0  0  0  0
    3.8202    1.6077   29.5681 C   0  0  0  0  0  0  0  0  0  0  0  0
    3.6402    2.3437   30.5560 O   0  0  0  0  0  0  0  0  0  0  0  0
    5.3543   -0.2483   29.8107 C   0  0  2  0  0  0  0  0  0  0  0  0
    5.2184   -0.1547   31.2146 O   0  0  0  0  0  0  0  0  0  0  0  0
    6.7209   -0.7344   29.4231 C   0  0  0  0  0  0  0  0  0  0  0  0
    2.7227    1.1952   28.7434 N   0  0  0  0  0  0  0  0  0  0  0  0
    1.3735    1.6267   28.7282 C   0  0  2  0  0  0  0  0  0  0  0  0
    0.6204    1.1384   29.9380 C   0  0  0  0  0  0  0  0  0  0  0  0
   -0.0671    2.1020   30.6519 O   0  0  0  0  0  0  0  0  0  0  0  0
    0.6817    1.0267   27.5434 C   0  0  0  0  0  0  0  0  0  0  0  0
    1.8001    0.4737   26.7056 C   0  0  0  0  0  0  0  0  0  0  0  0
    2.8650    0.1539   27.6997 C   0  0  0  0  0  0  0  0  0  0  0  0
    0.6012   -0.0352   30.2941 O   0  0  0  0  0  0  0  0  0  0  0  0
  2  1  1  1
  2  3  1  0
  2  5  1  0
  3  4  2  0
  3  9  1  0
  5  6  1  0
  6  7  1  0
  7  8  1  0
  9 10  1  0
 10 11  1  0
 10 13  1  6
 11 12  2  0
 11 14  1  0
 14 15  1  0
 15 16  1  0
 15 18  1  1
 16 17  2  0
 16 22  1  0
 18 19  1  0
 19 20  2  0
 19 21  1  0
 23 22  1  1
 23 24  1  0
 23 26  1  0
 24 25  2  0
 24 29  1  0
 26 27  1  0
 26 28  1  1
 30 29  1  6
 30 31  1  0
 30 33  1  0
 31 32  2  0
 31 36  1  0
 33 34  1  0
 33 35  1  6
 37 36  1  1
 37 38  1  0
 37 40  1  0
 38 39  2  0
 38 43  1  0
 40 41  1  0
 40 42  1  1
 43 44  1  0
 43 49  1  0
 44 45  1  1
 44 47  1  0
 45 46  1  0
 45 50  2  0
 47 48  1  0
 48 49  1  0
M  CHG  1   1   1
M  END
$$$$
