
     RDKit          3D

 50 50  0  0  0  0  0  0  0  0999 V2000
   17.0262   11.7195   24.9637 N   0  0  0  0  0  4  0  0  0  0  0  0
   18.0037   10.7614   24.4988 C   0  0  2  0  0  0  0  0  0  0  0  0
   17.3138    9.5537   23.9142 C   0  0  0  0  0  0  0  0  0  0  0  0
   17.8729    8.4642   23.7000 O   0  0  0  0  0  0  0  0  0  0  0  0
   18.8188   10.2169   25.6562 C   0  0  0  0  0  0  0  0  0  0  0  0
   18.7853   11.0459   26.8980 C   0  0  0  0  0  0  0  0  0  0  0  0
   18.0400   10.1942   27.9595 C   0  0  0  0  0  0  0  0  0  0  0  0
   18.9370   10.1518   29.1877 C   0  0  0  0  0  0  0  0  0  0  0  0
   15.9403    9.7212   23.6068 N   0  0  0  0  0  0  0  0  0  0  0  0
   15.2052    8.6783   22.9362 C   0  0  2  0  0  0  0  0  0  0  0  0
   14.5866    7.7946   23.9969 C   0  0  0  0  0  0  0  0  0  0  0  0
   14.1694    8.2781   25.0857 O   0  0  0  0  0  0  0  0  0  0  0  0
   16.1504    7.7702   22.1463 C   0  0  0  0  0  0  0  0  0  0  0  0
   14.4725    6.4156   23.7677 N   0  0  0  0  0  0  0  0  0  0  0  0
   13.3531    5.5965   24.1395 C   0  0  2  0  0  0  0  0  0  0  0  0
   13.2163    5.4519   25.5992 C   0  0  0  0  0  0  0  0  0  0  0  0
   14.0879    5.8169   26.4138 O   0  0  0  0  0  0  0  0  0  0  0  0
   13.5412    4.2445   23.4529 C   0  0  0  0  0  0  0  0  0  0  0  0
   13.0844    4.2996   22.0577 C   0  0  0  0  0  0  0  0  0  0  0  0
   13.1170    3.3059   21.3116 O   0  0  0  0  0  0  0  0  0  0  0  0
   12.6073    5.5182   21.5903 O   0  0  0  0  0  0  0  0  0  0  0  0
   12.0235    4.8737   26.1103 N   0  0  0  0  0  0  0  0  0  0  0  0
   11.7930    4.6941   27.5103 C   0  0  2  0  0  0  0  0  0  0  0  0
   10.5693    3.9941   27.8869 C   0  0  0  0  0  0  0  0  0  0  0  0
    9.5187    4.0215   27.1684 O   0  0  0  0  0  0  0  0  0  0  0  0
   11.8575    6.0699   28.2245 C   0  0  2  0  0  0  0  0  0  0  0  0
   10.8270    6.8197   27.7101 O   0  0  0  0  0  0  0  0  0  0  0  0
   13.1455    6.7326   27.7150 C   0  0  0  0  0  0  0  0  0  0  0  0
   10.4580    3.2289   29.0718 N   0  0  0  0  0  0  0  0  0  0  0  0
    9.5069    2.1698   29.2293 C   0  0  2  0  0  0  0  0  0  0  0  0
    8.4877    2.3286   30.2571 C   0  0  0  0  0  0  0  0  0  0  0  0
    8.8602    2.7932   31.3703 O   0  0  0  0  0  0  0  0  0  0  0  0
   10.3092    0.8899   29.5069 C   0  0  2  0  0  0  0  0  0  0  0  0
   11.1705    0.7187   28.4232 O   0  0  0  0  0  0  0  0  0  0  0  0
    9.4048   -0.3135   29.5938 C   0  0  0  0  0  0  0  0  0  0  0  0
    7.1141    2.0152   30.1530 N   0  0  0  0  0  0  0  0  0  0  0  0
    6.1739    2.3678   31.2252 C   0  0  2  0  0  0  0  0  0  0  0  0
    4.8205    1.8760   30.9142 C   0  0  0  0  0  0  0  0  0  0  0  0
    4.4120    1.9245   29.7390 O   0  0  0  0  0  0  0  0  0  0  0  0
    6.1199    3.8963   31.2090 C   0  0  2  0  0  0  0  0  0  0  0  0
    5.9065    4.2944   29.8695 O   0  0  0  0  0  0  0  0  0  0  0  0
    7.4339    4.4031   31.7293 C   0  0  0  0  0  0  0  0  0  0  0  0
    3.9984    1.3453   31.9617 N   0  0  0  0  0  0  0  0  0  0  0  0
    2.7908    0.6075   31.8958 C   0  0  2  0  0  0  0  0  0  0  0  0
    1.6366    1.4694   31.4555 C   0  0  0  0  0  0  0  0  0  0  0  0
    1.8652    2.8328   31.4566 O   0  0  0  0  0  0  0  0  0  0  0  0
    2.4402    0.1203   33.2677 C   0  0  0  0  0  0  0  0  0  0  0  0
    3.6862    0.3605   34.0728 C   0  0  0  0  0  0  0  0  0  0  0  0
    4.3301    1.5222   33.3943 C   0  0  0  0  0  0  0  0  0  0  0  0
    0.5483    1.0188   31.1133 O   0  0  0  0  0  0  0  0  0  0  0  0
  2  1  1  1
  2  3  1  0
  2  5  1  0
  3  4  2  0
  3  9  1  0
  5  6  1  0
  6  7  1  0
  7  8  1  0
  9 10  1  0
 10 11  1  0
 10 13  1  6
 11 12  2  0
 11 14  1  0
 14 15  1  0
 15 16  1  0
 15 18  1  6
 16 17  2  0
 16 22  1  0
 18 19  1  0
 19 20  2  0
 19 21  1  0
 23 22  1  6
 23 24  1  0
 23 26  1  0
 24 25  2  0
 24 29  1  0
 26 27  1  0
 26 28  1  6
 30 29  1  1
 30 31  1  0
 30 33  1  0
 31 32  2  0
 31 36  1  0
 33 34  1  0
 33 35  1  6
 37 36  1  6
 37 38  1  0
 37 40  1  0
 38 39  2  0
 38 43  1  0
 40 41  1  0
 40 42  1  6
 43 44  1  0
 43 49  1  0
 44 45  1  1
 44 47  1  0
 45 46  1  0
 45 50  2  0
 47 48  1  0
 48 49  1  0
M  CHG  1   1   1
M  END
$$$$
