
     RDKit          3D

 50 50  0  0  0  0  0  0  0  0999 V2000
   14.3219    9.1816   24.5462 N   0  0  0  0  0  4  0  0  0  0  0  0
   15.6056    8.8628   25.1293 C   0  0  2  0  0  0  0  0  0  0  0  0
   15.4209    8.2540   26.4974 C   0  0  0  0  0  0  0  0  0  0  0  0
   15.0550    8.8886   27.5018 O   0  0  0  0  0  0  0  0  0  0  0  0
   16.4150   10.1220   25.3741 C   0  0  0  0  0  0  0  0  0  0  0  0
   17.7440    9.9035   26.0195 C   0  0  0  0  0  0  0  0  0  0  0  0
   17.4746    9.8614   27.5470 C   0  0  0  0  0  0  0  0  0  0  0  0
   18.1136   11.1114   28.1335 C   0  0  0  0  0  0  0  0  0  0  0  0
   15.6933    6.8663   26.5926 N   0  0  0  0  0  0  0  0  0  0  0  0
   15.4690    6.1568   27.8272 C   0  0  2  0  0  0  0  0  0  0  0  0
   14.0353    5.6737   27.8278 C   0  0  0  0  0  0  0  0  0  0  0  0
   13.2004    6.1123   28.6668 O   0  0  0  0  0  0  0  0  0  0  0  0
   15.5832    7.1027   29.0249 C   0  0  0  0  0  0  0  0  0  0  0  0
   13.6250    4.7244   26.8804 N   0  0  0  0  0  0  0  0  0  0  0  0
   12.2675    4.4668   26.4894 C   0  0  2  0  0  0  0  0  0  0  0  0
   11.5558    3.6028   27.4472 C   0  0  0  0  0  0  0  0  0  0  0  0
   12.1115    2.7056   28.1127 O   0  0  0  0  0  0  0  0  0  0  0  0
   12.3147    3.8450   25.0945 C   0  0  0  0  0  0  0  0  0  0  0  0
   10.9583    3.6033   24.5846 C   0  0  0  0  0  0  0  0  0  0  0  0
   10.7518    3.0390   23.4964 O   0  0  0  0  0  0  0  0  0  0  0  0
    9.8954    4.0330   25.3701 O   0  0  0  0  0  0  0  0  0  0  0  0
   10.1618    3.8063   27.6316 N   0  0  0  0  0  0  0  0  0  0  0  0
    9.3640    2.9623   28.4662 C   0  0  2  0  0  0  0  0  0  0  0  0
    7.9387    3.2677   28.5327 C   0  0  0  0  0  0  0  0  0  0  0  0
    7.4790    4.4329   28.3051 O   0  0  0  0  0  0  0  0  0  0  0  0
    9.9666    2.9316   29.8956 C   0  0  2  0  0  0  0  0  0  0  0  0
    9.2486    1.9922   30.5962 O   0  0  0  0  0  0  0  0  0  0  0  0
    9.5982    4.2846   30.5212 C   0  0  0  0  0  0  0  0  0  0  0  0
    6.9606    2.2952   28.8482 N   0  0  0  0  0  0  0  0  0  0  0  0
    5.5717    2.4577   28.5390 C   0  0  2  0  0  0  0  0  0  0  0  0
    4.7942    3.3508   29.3865 C   0  0  0  0  0  0  0  0  0  0  0  0
    5.3099    3.6948   30.4863 O   0  0  0  0  0  0  0  0  0  0  0  0
    4.9427    1.0570   28.5702 C   0  0  2  0  0  0  0  0  0  0  0  0
    5.1422    0.5611   29.8586 O   0  0  0  0  0  0  0  0  0  0  0  0
    5.6209    0.1319   27.5914 C   0  0  0  0  0  0  0  0  0  0  0  0
    3.5119    3.8802   29.1192 N   0  0  0  0  0  0  0  0  0  0  0  0
    2.8537    4.7859   30.0702 C   0  0  2  0  0  0  0  0  0  0  0  0
    1.5453    4.2482   30.4817 C   0  0  0  0  0  0  0  0  0  0  0  0
    0.9219    3.5045   29.7017 O   0  0  0  0  0  0  0  0  0  0  0  0
    2.5921    6.0649   29.2731 C   0  0  2  0  0  0  0  0  0  0  0  0
    3.8384    6.5137   28.7794 O   0  0  0  0  0  0  0  0  0  0  0  0
    1.9799    7.0666   30.2090 C   0  0  0  0  0  0  0  0  0  0  0  0
    1.0128    4.5814   31.7702 N   0  0  0  0  0  0  0  0  0  0  0  0
   -0.1151    4.0689   32.4574 C   0  0  2  0  0  0  0  0  0  0  0  0
   -1.4046    4.5287   31.8290 C   0  0  0  0  0  0  0  0  0  0  0  0
   -2.4785    3.6671   31.9527 O   0  0  0  0  0  0  0  0  0  0  0  0
   -0.1231    4.6084   33.8542 C   0  0  0  0  0  0  0  0  0  0  0  0
    1.2414    5.2155   34.0219 C   0  0  0  0  0  0  0  0  0  0  0  0
    1.6264    5.6137   32.6371 C   0  0  0  0  0  0  0  0  0  0  0  0
   -1.5248    5.5956   31.2357 O   0  0  0  0  0  0  0  0  0  0  0  0
  2  1  1  1
  2  3  1  0
  2  5  1  0
  3  4  2  0
  3  9  1  0
  5  6  1  0
  6  7  1  0
  7  8  1  0
  9 10  1  0
 10 11  1  0
 10 13  1  1
 11 12  2  0
 11 14  1  0
 14 15  1  0
 15 16  1  0
 15 18  1  6
 16 17  2  0
 16 22  1  0
 18 19  1  0
 19 20  2  0
 19 21  1  0
 23 22  1  6
 23 24  1  0
 23 26  1  0
 24 25  2  0
 24 29  1  0
 26 27  1  0
 26 28  1  1
 30 29  1  1
 30 31  1  0
 30 33  1  0
 31 32  2  0
 31 36  1  0
 33 34  1  0
 33 35  1  6
 37 36  1  6
 37 38  1  0
 37 40  1  0
 38 39  2  0
 38 43  1  0
 40 41  1  0
 40 42  1  1
 43 44  1  0
 43 49  1  0
 44 45  1  6
 44 47  1  0
 45 46  1  0
 45 50  2  0
 47 48  1  0
 48 49  1  0
M  CHG  1   1   1
M  END
$$$$
