
     RDKit          3D

 50 50  0  0  0  0  0  0  0  0999 V2000
   18.2255    6.2156   23.1883 N   0  0  0  0  0  4  0  0  0  0  0  0
   18.2405    7.6506   23.3622 C   0  0  2  0  0  0  0  0  0  0  0  0
   16.9025    8.1290   23.8694 C   0  0  0  0  0  0  0  0  0  0  0  0
   16.6388    9.3141   24.1367 O   0  0  0  0  0  0  0  0  0  0  0  0
   18.4216    8.3538   22.0305 C   0  0  0  0  0  0  0  0  0  0  0  0
   18.3918    9.8456   22.0944 C   0  0  0  0  0  0  0  0  0  0  0  0
   18.1417   10.3299   20.6417 C   0  0  0  0  0  0  0  0  0  0  0  0
   19.3601    9.9132   19.8311 C   0  0  0  0  0  0  0  0  0  0  0  0
   15.9152    7.1255   24.0347 N   0  0  0  0  0  0  0  0  0  0  0  0
   14.5906    7.4663   24.4900 C   0  0  2  0  0  0  0  0  0  0  0  0
   14.2975    6.6354   25.7198 C   0  0  0  0  0  0  0  0  0  0  0  0
   14.5965    5.4099   25.7645 O   0  0  0  0  0  0  0  0  0  0  0  0
   13.5392    7.0545   23.4570 C   0  0  0  0  0  0  0  0  0  0  0  0
   13.6850    7.2353   26.8298 N   0  0  0  0  0  0  0  0  0  0  0  0
   13.2982    6.5605   28.0370 C   0  0  2  0  0  0  0  0  0  0  0  0
   12.1100    5.7088   27.8545 C   0  0  0  0  0  0  0  0  0  0  0  0
   11.0251    6.1253   27.4004 O   0  0  0  0  0  0  0  0  0  0  0  0
   13.0644    7.6372   29.0955 C   0  0  0  0  0  0  0  0  0  0  0  0
   14.3391    8.0952   29.6645 C   0  0  0  0  0  0  0  0  0  0  0  0
   14.3989    9.0183   30.4949 O   0  0  0  0  0  0  0  0  0  0  0  0
   15.4955    7.4534   29.2376 O   0  0  0  0  0  0  0  0  0  0  0  0
   12.2048    4.3355   28.2059 N   0  0  0  0  0  0  0  0  0  0  0  0
   11.0578    3.4890   28.3213 C   0  0  2  0  0  0  0  0  0  0  0  0
    9.9264    4.0202   29.0742 C   0  0  0  0  0  0  0  0  0  0  0  0
    9.4313    5.1698   28.8419 O   0  0  0  0  0  0  0  0  0  0  0  0
   11.4858    2.1169   28.9057 C   0  0  2  0  0  0  0  0  0  0  0  0
   11.9096    2.3607   30.1901 O   0  0  0  0  0  0  0  0  0  0  0  0
   12.7453    1.7169   28.1237 C   0  0  0  0  0  0  0  0  0  0  0  0
    9.2908    3.2992   30.1126 N   0  0  0  0  0  0  0  0  0  0  0  0
    7.9585    3.5819   30.5555 C   0  0  2  0  0  0  0  0  0  0  0  0
    6.9434    2.5636   30.3262 C   0  0  0  0  0  0  0  0  0  0  0  0
    6.6495    2.3035   29.1263 O   0  0  0  0  0  0  0  0  0  0  0  0
    7.5294    4.8868   29.8685 C   0  0  2  0  0  0  0  0  0  0  0  0
    8.5079    5.8341   30.1697 O   0  0  0  0  0  0  0  0  0  0  0  0
    6.2080    5.3771   30.4043 C   0  0  0  0  0  0  0  0  0  0  0  0
    6.2372    1.8267   31.3032 N   0  0  0  0  0  0  0  0  0  0  0  0
    5.2772    0.7839   30.9173 C   0  0  2  0  0  0  0  0  0  0  0  0
    3.8937    1.2564   31.0985 C   0  0  0  0  0  0  0  0  0  0  0  0
    3.6724    2.2035   31.8760 O   0  0  0  0  0  0  0  0  0  0  0  0
    5.5085   -0.3486   31.9190 C   0  0  2  0  0  0  0  0  0  0  0  0
    5.2626    0.1754   33.2087 O   0  0  0  0  0  0  0  0  0  0  0  0
    6.9326   -0.8009   31.7730 C   0  0  0  0  0  0  0  0  0  0  0  0
    2.8269    0.6273   30.3768 N   0  0  0  0  0  0  0  0  0  0  0  0
    1.4608    0.9845   30.2622 C   0  0  2  0  0  0  0  0  0  0  0  0
    0.7118    0.7348   31.5450 C   0  0  0  0  0  0  0  0  0  0  0  0
   -0.3747    1.5564   31.7806 O   0  0  0  0  0  0  0  0  0  0  0  0
    0.8126    0.1131   29.2313 C   0  0  0  0  0  0  0  0  0  0  0  0
    1.9656   -0.5566   28.5381 C   0  0  0  0  0  0  0  0  0  0  0  0
    3.0286   -0.6068   29.5830 C   0  0  0  0  0  0  0  0  0  0  0  0
    1.0238   -0.1349   32.3518 O   0  0  0  0  0  0  0  0  0  0  0  0
  2  1  1  6
  2  3  1  0
  2  5  1  0
  3  4  2  0
  3  9  1  0
  5  6  1  0
  6  7  1  0
  7  8  1  0
  9 10  1  0
 10 11  1  0
 10 13  1  6
 11 12  2  0
 11 14  1  0
 14 15  1  0
 15 16  1  0
 15 18  1  1
 16 17  2  0
 16 22  1  0
 18 19  1  0
 19 20  2  0
 19 21  1  0
 23 22  1  1
 23 24  1  0
 23 26  1  0
 24 25  2  0
 24 29  1  0
 26 27  1  0
 26 28  1  6
 30 29  1  6
 30 31  1  0
 30 33  1  0
 31 32  2  0
 31 36  1  0
 33 34  1  0
 33 35  1  1
 37 36  1  1
 37 38  1  0
 37 40  1  0
 38 39  2  0
 38 43  1  0
 40 41  1  0
 40 42  1  1
 43 44  1  0
 43 49  1  0
 44 45  1  1
 44 47  1  0
 45 46  1  0
 45 50  2  0
 47 48  1  0
 48 49  1  0
M  CHG  1   1   1
M  END
$$$$
