
     RDKit          3D

 50 50  0  0  0  0  0  0  0  0999 V2000
   14.7198    8.3708   23.3871 N   0  0  0  0  0  4  0  0  0  0  0  0
   15.0405    8.7594   24.7420 C   0  0  2  0  0  0  0  0  0  0  0  0
   15.5055    7.5613   25.5324 C   0  0  0  0  0  0  0  0  0  0  0  0
   16.2393    6.6661   25.0790 O   0  0  0  0  0  0  0  0  0  0  0  0
   13.8027    9.2455   25.4715 C   0  0  0  0  0  0  0  0  0  0  0  0
   14.0608    9.8911   26.7932 C   0  0  0  0  0  0  0  0  0  0  0  0
   12.7010    9.8914   27.5406 C   0  0  0  0  0  0  0  0  0  0  0  0
   11.9555   11.1359   27.0818 C   0  0  0  0  0  0  0  0  0  0  0  0
   15.0507    7.4976   26.8734 N   0  0  0  0  0  0  0  0  0  0  0  0
   15.4575    6.4170   27.7363 C   0  0  2  0  0  0  0  0  0  0  0  0
   14.2268    5.9158   28.4596 C   0  0  0  0  0  0  0  0  0  0  0  0
   13.4707    6.7092   29.0857 O   0  0  0  0  0  0  0  0  0  0  0  0
   16.3990    6.9225   28.8318 C   0  0  0  0  0  0  0  0  0  0  0  0
   13.9185    4.5478   28.4335 N   0  0  0  0  0  0  0  0  0  0  0  0
   12.7611    3.9636   27.8158 C   0  0  2  0  0  0  0  0  0  0  0  0
   11.5229    4.7018   28.1196 C   0  0  0  0  0  0  0  0  0  0  0  0
   11.4067    5.9374   27.9915 O   0  0  0  0  0  0  0  0  0  0  0  0
   12.6853    2.5134   28.2906 C   0  0  0  0  0  0  0  0  0  0  0  0
   11.6044    1.7947   27.6026 C   0  0  0  0  0  0  0  0  0  0  0  0
   10.7633    1.1181   28.2190 O   0  0  0  0  0  0  0  0  0  0  0  0
   11.5514    1.8962   26.2176 O   0  0  0  0  0  0  0  0  0  0  0  0
   10.3951    3.9677   28.5751 N   0  0  0  0  0  0  0  0  0  0  0  0
    9.1626    4.5957   28.9382 C   0  0  2  0  0  0  0  0  0  0  0  0
    8.0400    3.7112   29.2326 C   0  0  0  0  0  0  0  0  0  0  0  0
    7.6739    2.7856   28.4388 O   0  0  0  0  0  0  0  0  0  0  0  0
    8.7599    5.6152   27.8401 C   0  0  2  0  0  0  0  0  0  0  0  0
    8.4915    4.8792   26.7109 O   0  0  0  0  0  0  0  0  0  0  0  0
   10.0406    6.4019   27.5263 C   0  0  0  0  0  0  0  0  0  0  0  0
    7.2785    3.8093   30.4210 N   0  0  0  0  0  0  0  0  0  0  0  0
    6.1607    2.9594   30.7030 C   0  0  2  0  0  0  0  0  0  0  0  0
    4.9076    3.2477   30.0198 C   0  0  0  0  0  0  0  0  0  0  0  0
    4.7068    4.4426   29.6653 O   0  0  0  0  0  0  0  0  0  0  0  0
    5.9328    3.0141   32.2208 C   0  0  2  0  0  0  0  0  0  0  0  0
    5.6916    4.3509   32.5379 O   0  0  0  0  0  0  0  0  0  0  0  0
    7.1568    2.5574   32.9737 C   0  0  0  0  0  0  0  0  0  0  0  0
    3.8756    2.3347   29.7075 N   0  0  0  0  0  0  0  0  0  0  0  0
    2.6784    2.7673   28.9746 C   0  0  2  0  0  0  0  0  0  0  0  0
    1.4579    2.4491   29.7358 C   0  0  0  0  0  0  0  0  0  0  0  0
    1.5210    1.6260   30.6679 O   0  0  0  0  0  0  0  0  0  0  0  0
    2.6648    1.9086   27.7089 C   0  0  2  0  0  0  0  0  0  0  0  0
    2.7741    0.5593   28.1162 O   0  0  0  0  0  0  0  0  0  0  0  0
    3.8355    2.3235   26.8654 C   0  0  0  0  0  0  0  0  0  0  0  0
    0.2218    3.0922   29.3993 N   0  0  0  0  0  0  0  0  0  0  0  0
   -1.0167    3.1166   30.0866 C   0  0  2  0  0  0  0  0  0  0  0  0
   -1.7159    1.7841   30.0188 C   0  0  0  0  0  0  0  0  0  0  0  0
   -2.5272    1.4715   31.0936 O   0  0  0  0  0  0  0  0  0  0  0  0
   -1.9296    4.0947   29.4142 C   0  0  0  0  0  0  0  0  0  0  0  0
   -1.0293    4.8595   28.4853 C   0  0  0  0  0  0  0  0  0  0  0  0
    0.0557    3.8887   28.1617 C   0  0  0  0  0  0  0  0  0  0  0  0
   -1.5915    1.0021   29.0820 O   0  0  0  0  0  0  0  0  0  0  0  0
  2  1  1  6
  2  3  1  0
  2  5  1  0
  3  4  2  0
  3  9  1  0
  5  6  1  0
  6  7  1  0
  7  8  1  0
  9 10  1  0
 10 11  1  0
 10 13  1  1
 11 12  2  0
 11 14  1  0
 14 15  1  0
 15 16  1  0
 15 18  1  1
 16 17  2  0
 16 22  1  0
 18 19  1  0
 19 20  2  0
 19 21  1  0
 23 22  1  6
 23 24  1  0
 23 26  1  0
 24 25  2  0
 24 29  1  0
 26 27  1  0
 26 28  1  6
 30 29  1  6
 30 31  1  0
 30 33  1  0
 31 32  2  0
 31 36  1  0
 33 34  1  0
 33 35  1  1
 37 36  1  1
 37 38  1  0
 37 40  1  0
 38 39  2  0
 38 43  1  0
 40 41  1  0
 40 42  1  6
 43 44  1  0
 43 49  1  0
 44 45  1  6
 44 47  1  0
 45 46  1  0
 45 50  2  0
 47 48  1  0
 48 49  1  0
M  CHG  1   1   1
M  END
$$$$
