
     RDKit          3D

 50 50  0  0  0  0  0  0  0  0999 V2000
   15.5717   10.7324   23.4558 N   0  0  0  0  0  4  0  0  0  0  0  0
   16.5376   11.0525   24.4826 C   0  0  2  0  0  0  0  0  0  0  0  0
   17.2204    9.7971   24.9666 C   0  0  0  0  0  0  0  0  0  0  0  0
   18.4304    9.5558   24.8140 O   0  0  0  0  0  0  0  0  0  0  0  0
   15.8516   11.6164   25.7122 C   0  0  0  0  0  0  0  0  0  0  0  0
   14.6355   12.4383   25.4363 C   0  0  0  0  0  0  0  0  0  0  0  0
   13.5655   11.9737   26.4596 C   0  0  0  0  0  0  0  0  0  0  0  0
   12.2596   11.8416   25.6901 C   0  0  0  0  0  0  0  0  0  0  0  0
   16.3871    8.8639   25.6327 N   0  0  0  0  0  0  0  0  0  0  0  0
   16.9472    7.6851   26.2447 C   0  0  2  0  0  0  0  0  0  0  0  0
   15.8520    6.6449   26.3300 C   0  0  0  0  0  0  0  0  0  0  0  0
   16.0865    5.4869   26.7742 O   0  0  0  0  0  0  0  0  0  0  0  0
   17.3573    7.9678   27.6917 C   0  0  0  0  0  0  0  0  0  0  0  0
   14.5540    6.9712   25.9106 N   0  0  0  0  0  0  0  0  0  0  0  0
   13.4223    6.0874   25.9308 C   0  0  2  0  0  0  0  0  0  0  0  0
   13.2402    5.4292   27.2362 C   0  0  0  0  0  0  0  0  0  0  0  0
   14.1685    5.2349   28.0469 O   0  0  0  0  0  0  0  0  0  0  0  0
   13.6293    5.0708   24.8092 C   0  0  0  0  0  0  0  0  0  0  0  0
   13.5789    5.7258   23.4952 C   0  0  0  0  0  0  0  0  0  0  0  0
   13.0225    6.8242   23.3249 O   0  0  0  0  0  0  0  0  0  0  0  0
   14.1825    5.0673   22.4306 O   0  0  0  0  0  0  0  0  0  0  0  0
   11.9354    4.9989   27.5979 N   0  0  0  0  0  0  0  0  0  0  0  0
   11.6739    4.2475   28.7863 C   0  0  2  0  0  0  0  0  0  0  0  0
   11.2442    2.8650   28.6042 C   0  0  0  0  0  0  0  0  0  0  0  0
   11.6791    2.1341   27.6569 O   0  0  0  0  0  0  0  0  0  0  0  0
   10.6466    5.0105   29.6636 C   0  0  2  0  0  0  0  0  0  0  0  0
    9.7031    5.5151   28.8012 O   0  0  0  0  0  0  0  0  0  0  0  0
   11.4036    6.2304   30.2082 C   0  0  0  0  0  0  0  0  0  0  0  0
   10.3191    2.2303   29.4664 N   0  0  0  0  0  0  0  0  0  0  0  0
    9.1355    1.5765   28.9945 C   0  0  2  0  0  0  0  0  0  0  0  0
    7.8533    2.1671   29.3515 C   0  0  0  0  0  0  0  0  0  0  0  0
    7.7485    3.4210   29.2488 O   0  0  0  0  0  0  0  0  0  0  0  0
    9.1886    0.1322   29.5141 C   0  0  2  0  0  0  0  0  0  0  0  0
    7.8963   -0.3795   29.3962 O   0  0  0  0  0  0  0  0  0  0  0  0
    9.5894    0.0888   30.9670 C   0  0  0  0  0  0  0  0  0  0  0  0
    6.6999    1.4917   29.8093 N   0  0  0  0  0  0  0  0  0  0  0  0
    5.4816    2.2307   30.1661 C   0  0  2  0  0  0  0  0  0  0  0  0
    4.4242    1.3075   30.6133 C   0  0  0  0  0  0  0  0  0  0  0  0
    4.2754    0.2223   30.0213 O   0  0  0  0  0  0  0  0  0  0  0  0
    5.0117    2.8636   28.8553 C   0  0  2  0  0  0  0  0  0  0  0  0
    4.9056    1.8248   27.9023 O   0  0  0  0  0  0  0  0  0  0  0  0
    6.0390    3.8796   28.4472 C   0  0  0  0  0  0  0  0  0  0  0  0
    3.5891    1.6659   31.7218 N   0  0  0  0  0  0  0  0  0  0  0  0
    2.6917    0.8803   32.4863 C   0  0  2  0  0  0  0  0  0  0  0  0
    1.4578    0.5228   31.6996 C   0  0  0  0  0  0  0  0  0  0  0  0
    1.0027   -0.7745   31.8452 O   0  0  0  0  0  0  0  0  0  0  0  0
    2.2147    1.6830   33.6569 C   0  0  0  0  0  0  0  0  0  0  0  0
    3.1356    2.8702   33.6886 C   0  0  0  0  0  0  0  0  0  0  0  0
    3.5422    3.0434   32.2641 C   0  0  0  0  0  0  0  0  0  0  0  0
    0.8720    1.3115   30.9653 O   0  0  0  0  0  0  0  0  0  0  0  0
  2  1  1  6
  2  3  1  0
  2  5  1  0
  3  4  2  0
  3  9  1  0
  5  6  1  0
  6  7  1  0
  7  8  1  0
  9 10  1  0
 10 11  1  0
 10 13  1  1
 11 12  2  0
 11 14  1  0
 14 15  1  0
 15 16  1  0
 15 18  1  6
 16 17  2  0
 16 22  1  0
 18 19  1  0
 19 20  2  0
 19 21  1  0
 23 22  1  6
 23 24  1  0
 23 26  1  0
 24 25  2  0
 24 29  1  0
 26 27  1  0
 26 28  1  6
 30 29  1  1
 30 31  1  0
 30 33  1  0
 31 32  2  0
 31 36  1  0
 33 34  1  0
 33 35  1  1
 37 36  1  6
 37 38  1  0
 37 40  1  0
 38 39  2  0
 38 43  1  0
 40 41  1  0
 40 42  1  6
 43 44  1  0
 43 49  1  0
 44 45  1  6
 44 47  1  0
 45 46  1  0
 45 50  2  0
 47 48  1  0
 48 49  1  0
M  CHG  1   1   1
M  END
$$$$
