
     RDKit          3D

 50 50  0  0  0  0  0  0  0  0999 V2000
    8.7417   -1.2845   23.4322 N   0  0  0  0  0  4  0  0  0  0  0  0
    8.2738   -2.6521   23.4564 C   0  0  2  0  0  0  0  0  0  0  0  0
    7.5522   -2.9340   24.7510 C   0  0  0  0  0  0  0  0  0  0  0  0
    7.5036   -4.0503   25.2960 O   0  0  0  0  0  0  0  0  0  0  0  0
    9.4400   -3.6218   23.4462 C   0  0  0  0  0  0  0  0  0  0  0  0
   10.7909   -2.9856   23.4170 C   0  0  0  0  0  0  0  0  0  0  0  0
   11.5856   -3.7225   22.3067 C   0  0  0  0  0  0  0  0  0  0  0  0
   13.0134   -3.8586   22.8144 C   0  0  0  0  0  0  0  0  0  0  0  0
    6.9041   -1.8227   25.3462 N   0  0  0  0  0  0  0  0  0  0  0  0
    6.3296   -1.9268   26.6641 C   0  0  2  0  0  0  0  0  0  0  0  0
    6.6088   -0.6307   27.3928 C   0  0  0  0  0  0  0  0  0  0  0  0
    5.7546    0.2981   27.4207 O   0  0  0  0  0  0  0  0  0  0  0  0
    7.0336   -3.0146   27.4784 C   0  0  0  0  0  0  0  0  0  0  0  0
    7.8357   -0.4574   28.0501 N   0  0  0  0  0  0  0  0  0  0  0  0
    8.0248    0.2219   29.3011 C   0  0  2  0  0  0  0  0  0  0  0  0
    7.2759    1.4882   29.3776 C   0  0  0  0  0  0  0  0  0  0  0  0
    6.1115    1.6285   28.9519 O   0  0  0  0  0  0  0  0  0  0  0  0
    9.5275    0.4432   29.4666 C   0  0  0  0  0  0  0  0  0  0  0  0
   10.2287   -0.8373   29.6308 C   0  0  0  0  0  0  0  0  0  0  0  0
   11.3466   -1.0479   29.1298 O   0  0  0  0  0  0  0  0  0  0  0  0
    9.5918   -1.8225   30.3759 O   0  0  0  0  0  0  0  0  0  0  0  0
    7.9087    2.6104   29.9765 N   0  0  0  0  0  0  0  0  0  0  0  0
    7.6017    3.9569   29.6051 C   0  0  2  0  0  0  0  0  0  0  0  0
    8.7345    4.8281   29.3099 C   0  0  0  0  0  0  0  0  0  0  0  0
    9.8007    4.8207   30.0055 O   0  0  0  0  0  0  0  0  0  0  0  0
    6.7076    4.6022   30.6966 C   0  0  2  0  0  0  0  0  0  0  0  0
    7.4541    4.6110   31.8504 O   0  0  0  0  0  0  0  0  0  0  0  0
    5.5762    3.5939   30.9438 C   0  0  0  0  0  0  0  0  0  0  0  0
    8.7380    5.7404   28.2284 N   0  0  0  0  0  0  0  0  0  0  0  0
    9.8186    6.6458   27.9759 C   0  0  2  0  0  0  0  0  0  0  0  0
    9.4958    8.0603   27.8530 C   0  0  0  0  0  0  0  0  0  0  0  0
    8.6133    8.3782   27.0081 O   0  0  0  0  0  0  0  0  0  0  0  0
   10.5046    6.1703   26.6867 C   0  0  2  0  0  0  0  0  0  0  0  0
    9.5562    6.2786   25.6695 O   0  0  0  0  0  0  0  0  0  0  0  0
   10.9284    4.7272   26.7938 C   0  0  0  0  0  0  0  0  0  0  0  0
   10.0658    9.1322   28.5758 N   0  0  0  0  0  0  0  0  0  0  0  0
    9.6099   10.5129   28.3674 C   0  0  2  0  0  0  0  0  0  0  0  0
   10.3486   11.1442   27.2601 C   0  0  0  0  0  0  0  0  0  0  0  0
   11.4788   10.7154   26.9618 O   0  0  0  0  0  0  0  0  0  0  0  0
    9.9949   11.2485   29.6519 C   0  0  2  0  0  0  0  0  0  0  0  0
   11.1356   12.0314   29.3612 O   0  0  0  0  0  0  0  0  0  0  0  0
   10.2925   10.2127   30.6972 C   0  0  0  0  0  0  0  0  0  0  0  0
    9.7573   12.2338   26.5404 N   0  0  0  0  0  0  0  0  0  0  0  0
   10.0555   12.7555   25.2576 C   0  0  2  0  0  0  0  0  0  0  0  0
   11.3701   13.4909   25.2489 C   0  0  0  0  0  0  0  0  0  0  0  0
   11.9489   13.6801   24.0078 O   0  0  0  0  0  0  0  0  0  0  0  0
    9.0158   13.7676   24.8877 C   0  0  0  0  0  0  0  0  0  0  0  0
    7.9286   13.5669   25.9057 C   0  0  0  0  0  0  0  0  0  0  0  0
    8.6521   13.0450   27.1009 C   0  0  0  0  0  0  0  0  0  0  0  0
   11.9191   13.9065   26.2640 O   0  0  0  0  0  0  0  0  0  0  0  0
  2  1  1  1
  2  3  1  0
  2  5  1  0
  3  4  2  0
  3  9  1  0
  5  6  1  0
  6  7  1  0
  7  8  1  0
  9 10  1  0
 10 11  1  0
 10 13  1  1
 11 12  2  0
 11 14  1  0
 14 15  1  0
 15 16  1  0
 15 18  1  6
 16 17  2  0
 16 22  1  0
 18 19  1  0
 19 20  2  0
 19 21  1  0
 23 22  1  1
 23 24  1  0
 23 26  1  0
 24 25  2  0
 24 29  1  0
 26 27  1  0
 26 28  1  1
 30 29  1  6
 30 31  1  0
 30 33  1  0
 31 32  2  0
 31 36  1  0
 33 34  1  0
 33 35  1  1
 37 36  1  1
 37 38  1  0
 37 40  1  0
 38 39  2  0
 38 43  1  0
 40 41  1  0
 40 42  1  1
 43 44  1  0
 43 49  1  0
 44 45  1  1
 44 47  1  0
 45 46  1  0
 45 50  2  0
 47 48  1  0
 48 49  1  0
M  CHG  1   1   1
M  END
$$$$
