
     RDKit          3D

 50 50  0  0  0  0  0  0  0  0999 V2000
   15.1220   11.7320   23.2631 N   0  0  0  0  0  4  0  0  0  0  0  0
   15.9204   10.5410   23.0796 C   0  0  2  0  0  0  0  0  0  0  0  0
   15.7964    9.6389   24.2826 C   0  0  0  0  0  0  0  0  0  0  0  0
   16.2516    8.4835   24.3404 O   0  0  0  0  0  0  0  0  0  0  0  0
   17.3957   10.8859   23.0070 C   0  0  0  0  0  0  0  0  0  0  0  0
   18.3124    9.7150   22.8689 C   0  0  0  0  0  0  0  0  0  0  0  0
   18.8519    9.4251   24.2945 C   0  0  0  0  0  0  0  0  0  0  0  0
   19.7797   10.5777   24.6486 C   0  0  0  0  0  0  0  0  0  0  0  0
   15.1094   10.1896   25.3935 N   0  0  0  0  0  0  0  0  0  0  0  0
   14.8735    9.4000   26.5761 C   0  0  2  0  0  0  0  0  0  0  0  0
   14.3904    8.0368   26.1320 C   0  0  0  0  0  0  0  0  0  0  0  0
   15.1370    7.2657   25.4677 O   0  0  0  0  0  0  0  0  0  0  0  0
   13.7294    9.9906   27.4034 C   0  0  0  0  0  0  0  0  0  0  0  0
   13.0929    7.6208   26.4644 N   0  0  0  0  0  0  0  0  0  0  0  0
   12.7610    6.6072   27.4261 C   0  0  2  0  0  0  0  0  0  0  0  0
   11.3711    6.7118   27.9032 C   0  0  0  0  0  0  0  0  0  0  0  0
   11.0376    7.3466   28.9242 O   0  0  0  0  0  0  0  0  0  0  0  0
   13.7630    6.7337   28.5725 C   0  0  0  0  0  0  0  0  0  0  0  0
   13.4868    5.7404   29.6191 C   0  0  0  0  0  0  0  0  0  0  0  0
   14.1526    5.6817   30.6672 O   0  0  0  0  0  0  0  0  0  0  0  0
   12.4405    4.8533   29.3966 O   0  0  0  0  0  0  0  0  0  0  0  0
   10.3515    6.0626   27.1566 N   0  0  0  0  0  0  0  0  0  0  0  0
   10.2266    4.6391   27.0992 C   0  0  2  0  0  0  0  0  0  0  0  0
   10.0668    3.9450   28.3728 C   0  0  0  0  0  0  0  0  0  0  0  0
   10.9222    3.1074   28.8057 O   0  0  0  0  0  0  0  0  0  0  0  0
   11.4306    4.0464   26.3204 C   0  0  2  0  0  0  0  0  0  0  0  0
   11.2577    2.6830   26.3234 O   0  0  0  0  0  0  0  0  0  0  0  0
   12.6570    4.3097   27.2059 C   0  0  0  0  0  0  0  0  0  0  0  0
    8.9564    4.1530   29.2247 N   0  0  0  0  0  0  0  0  0  0  0  0
    8.6512    3.2960   30.3308 C   0  0  2  0  0  0  0  0  0  0  0  0
    8.0284    2.0133   30.0358 C   0  0  0  0  0  0  0  0  0  0  0  0
    7.8430    1.7295   28.8197 O   0  0  0  0  0  0  0  0  0  0  0  0
    7.7396    4.0952   31.2737 C   0  0  2  0  0  0  0  0  0  0  0  0
    6.6530    4.5202   30.5092 O   0  0  0  0  0  0  0  0  0  0  0  0
    8.4470    5.3111   31.8166 C   0  0  0  0  0  0  0  0  0  0  0  0
    7.5984    1.0392   30.9644 N   0  0  0  0  0  0  0  0  0  0  0  0
    6.5870    0.0388   30.5982 C   0  0  2  0  0  0  0  0  0  0  0  0
    5.5063   -0.0001   31.5985 C   0  0  0  0  0  0  0  0  0  0  0  0
    5.6855    0.5374   32.7072 O   0  0  0  0  0  0  0  0  0  0  0  0
    7.3217   -1.3010   30.6664 C   0  0  2  0  0  0  0  0  0  0  0  0
    7.7453   -1.4795   32.0032 O   0  0  0  0  0  0  0  0  0  0  0  0
    8.4897   -1.2275   29.7260 C   0  0  0  0  0  0  0  0  0  0  0  0
    4.2670   -0.6473   31.2820 N   0  0  0  0  0  0  0  0  0  0  0  0
    3.0341   -0.6599   31.9795 C   0  0  2  0  0  0  0  0  0  0  0  0
    3.1170   -1.4815   33.2393 C   0  0  0  0  0  0  0  0  0  0  0  0
    2.4680   -0.9619   34.3439 O   0  0  0  0  0  0  0  0  0  0  0  0
    1.9962   -1.3202   31.1256 C   0  0  0  0  0  0  0  0  0  0  0  0
    2.6365   -1.4062   29.7688 C   0  0  0  0  0  0  0  0  0  0  0  0
    4.0959   -1.4782   30.0678 C   0  0  0  0  0  0  0  0  0  0  0  0
    3.7175   -2.5485   33.3124 O   0  0  0  0  0  0  0  0  0  0  0  0
  2  1  1  1
  2  3  1  0
  2  5  1  0
  3  4  2  0
  3  9  1  0
  5  6  1  0
  6  7  1  0
  7  8  1  0
  9 10  1  0
 10 11  1  0
 10 13  1  1
 11 12  2  0
 11 14  1  0
 14 15  1  0
 15 16  1  0
 15 18  1  1
 16 17  2  0
 16 22  1  0
 18 19  1  0
 19 20  2  0
 19 21  1  0
 23 22  1  1
 23 24  1  0
 23 26  1  0
 24 25  2  0
 24 29  1  0
 26 27  1  0
 26 28  1  1
 30 29  1  6
 30 31  1  0
 30 33  1  0
 31 32  2  0
 31 36  1  0
 33 34  1  0
 33 35  1  6
 37 36  1  1
 37 38  1  0
 37 40  1  0
 38 39  2  0
 38 43  1  0
 40 41  1  0
 40 42  1  6
 43 44  1  0
 43 49  1  0
 44 45  1  1
 44 47  1  0
 45 46  1  0
 45 50  2  0
 47 48  1  0
 48 49  1  0
M  CHG  1   1   1
M  END
$$$$
