
     RDKit          3D

 50 50  0  0  0  0  0  0  0  0999 V2000
   16.4894    9.9896   25.0546 N   0  0  0  0  0  4  0  0  0  0  0  0
   16.8547    9.0369   26.0787 C   0  0  2  0  0  0  0  0  0  0  0  0
   15.6181    8.4936   26.7510 C   0  0  0  0  0  0  0  0  0  0  0  0
   15.3041    8.7263   27.9311 O   0  0  0  0  0  0  0  0  0  0  0  0
   17.6330    9.7125   27.1915 C   0  0  0  0  0  0  0  0  0  0  0  0
   19.0930    9.3994   27.2218 C   0  0  0  0  0  0  0  0  0  0  0  0
   19.5611    9.6881   28.6727 C   0  0  0  0  0  0  0  0  0  0  0  0
   19.4164    8.3832   29.4416 C   0  0  0  0  0  0  0  0  0  0  0  0
   14.7929    7.6708   25.9440 N   0  0  0  0  0  0  0  0  0  0  0  0
   15.0770    6.2654   25.7963 C   0  0  2  0  0  0  0  0  0  0  0  0
   13.7984    5.5048   26.0707 C   0  0  0  0  0  0  0  0  0  0  0  0
   13.2988    4.7359   25.2032 O   0  0  0  0  0  0  0  0  0  0  0  0
   16.0692    5.7974   26.8634 C   0  0  0  0  0  0  0  0  0  0  0  0
   13.1571    5.6540   27.3091 N   0  0  0  0  0  0  0  0  0  0  0  0
   11.7762    5.3638   27.5755 C   0  0  2  0  0  0  0  0  0  0  0  0
   11.4725    3.9247   27.4899 C   0  0  0  0  0  0  0  0  0  0  0  0
   11.8751    3.1878   26.5671 O   0  0  0  0  0  0  0  0  0  0  0  0
   10.9489    6.1760   26.5803 C   0  0  0  0  0  0  0  0  0  0  0  0
    9.5581    6.3006   27.0367 C   0  0  0  0  0  0  0  0  0  0  0  0
    8.6105    5.7874   26.4173 O   0  0  0  0  0  0  0  0  0  0  0  0
    9.3314    7.0230   28.2020 O   0  0  0  0  0  0  0  0  0  0  0  0
   10.6857    3.3396   28.5181 N   0  0  0  0  0  0  0  0  0  0  0  0
   10.1559    2.0147   28.4229 C   0  0  2  0  0  0  0  0  0  0  0  0
    8.7521    1.8978   28.0422 C   0  0  0  0  0  0  0  0  0  0  0  0
    8.3886    1.5702   26.8669 O   0  0  0  0  0  0  0  0  0  0  0  0
   10.4077    1.2613   29.7556 C   0  0  2  0  0  0  0  0  0  0  0  0
    9.1686    0.9556   30.2654 O   0  0  0  0  0  0  0  0  0  0  0  0
   11.0002    2.3088   30.7092 C   0  0  0  0  0  0  0  0  0  0  0  0
    7.6905    2.1327   28.9476 N   0  0  0  0  0  0  0  0  0  0  0  0
    6.3115    2.0594   28.5680 C   0  0  2  0  0  0  0  0  0  0  0  0
    5.4447    3.1590   28.9675 C   0  0  0  0  0  0  0  0  0  0  0  0
    5.9154    4.3267   28.8732 O   0  0  0  0  0  0  0  0  0  0  0  0
    5.7610    0.7469   29.1450 C   0  0  2  0  0  0  0  0  0  0  0  0
    6.0765    0.7477   30.5038 O   0  0  0  0  0  0  0  0  0  0  0  0
    6.4164   -0.4495   28.5027 C   0  0  0  0  0  0  0  0  0  0  0  0
    4.1231    3.0694   29.4587 N   0  0  0  0  0  0  0  0  0  0  0  0
    3.3882    4.2704   29.8776 C   0  0  2  0  0  0  0  0  0  0  0  0
    2.0210    3.9231   30.3025 C   0  0  0  0  0  0  0  0  0  0  0  0
    1.4503    2.9499   29.7758 O   0  0  0  0  0  0  0  0  0  0  0  0
    3.2715    5.1179   28.6096 C   0  0  2  0  0  0  0  0  0  0  0  0
    2.8789    4.2537   27.5621 O   0  0  0  0  0  0  0  0  0  0  0  0
    4.6183    5.7257   28.3436 C   0  0  0  0  0  0  0  0  0  0  0  0
    1.3716    4.7021   31.3155 N   0  0  0  0  0  0  0  0  0  0  0  0
    0.1708    4.4628   32.0281 C   0  0  2  0  0  0  0  0  0  0  0  0
   -1.0404    4.6347   31.1491 C   0  0  0  0  0  0  0  0  0  0  0  0
   -2.1959    4.0124   31.5835 O   0  0  0  0  0  0  0  0  0  0  0  0
    0.0369    5.4823   33.1166 C   0  0  0  0  0  0  0  0  0  0  0  0
    1.3910    6.1310   33.1815 C   0  0  0  0  0  0  0  0  0  0  0  0
    1.9189    5.9927   31.7935 C   0  0  0  0  0  0  0  0  0  0  0  0
   -1.0325    5.2793   30.1056 O   0  0  0  0  0  0  0  0  0  0  0  0
  2  1  1  6
  2  3  1  0
  2  5  1  0
  3  4  2  0
  3  9  1  0
  5  6  1  0
  6  7  1  0
  7  8  1  0
  9 10  1  0
 10 11  1  0
 10 13  1  1
 11 12  2  0
 11 14  1  0
 14 15  1  0
 15 16  1  0
 15 18  1  6
 16 17  2  0
 16 22  1  0
 18 19  1  0
 19 20  2  0
 19 21  1  0
 23 22  1  1
 23 24  1  0
 23 26  1  0
 24 25  2  0
 24 29  1  0
 26 27  1  0
 26 28  1  1
 30 29  1  1
 30 31  1  0
 30 33  1  0
 31 32  2  0
 31 36  1  0
 33 34  1  0
 33 35  1  6
 37 36  1  6
 37 38  1  0
 37 40  1  0
 38 39  2  0
 38 43  1  0
 40 41  1  0
 40 42  1  6
 43 44  1  0
 43 49  1  0
 44 45  1  6
 44 47  1  0
 45 46  1  0
 45 50  2  0
 47 48  1  0
 48 49  1  0
M  CHG  1   1   1
M  END
$$$$
