
     RDKit          3D

 50 50  0  0  0  0  0  0  0  0999 V2000
   16.6469   10.1238   27.9078 N   0  0  0  0  0  4  0  0  0  0  0  0
   16.6093    9.4096   26.6515 C   0  0  2  0  0  0  0  0  0  0  0  0
   15.2764    8.7238   26.4806 C   0  0  0  0  0  0  0  0  0  0  0  0
   14.3063    8.8808   27.2420 O   0  0  0  0  0  0  0  0  0  0  0  0
   17.6260    8.2841   26.6397 C   0  0  0  0  0  0  0  0  0  0  0  0
   18.6779    8.3716   27.6963 C   0  0  0  0  0  0  0  0  0  0  0  0
   19.0253    6.9074   28.0746 C   0  0  0  0  0  0  0  0  0  0  0  0
   20.0742    6.9820   29.1742 C   0  0  0  0  0  0  0  0  0  0  0  0
   15.1724    7.8554   25.3652 N   0  0  0  0  0  0  0  0  0  0  0  0
   13.9413    7.1581   25.0895 C   0  0  2  0  0  0  0  0  0  0  0  0
   13.3709    6.6894   26.4099 C   0  0  0  0  0  0  0  0  0  0  0  0
   14.1151    6.1990   27.3038 O   0  0  0  0  0  0  0  0  0  0  0  0
   14.2077    5.8850   24.2831 C   0  0  0  0  0  0  0  0  0  0  0  0
   11.9931    6.8023   26.6472 N   0  0  0  0  0  0  0  0  0  0  0  0
   11.2916    6.2544   27.7741 C   0  0  2  0  0  0  0  0  0  0  0  0
   11.0006    4.8187   27.6174 C   0  0  0  0  0  0  0  0  0  0  0  0
   11.5823    4.0821   26.7954 O   0  0  0  0  0  0  0  0  0  0  0  0
   10.0139    7.0744   27.9467 C   0  0  0  0  0  0  0  0  0  0  0  0
   10.3238    8.4302   28.4199 C   0  0  0  0  0  0  0  0  0  0  0  0
   11.2069    8.6491   29.2669 O   0  0  0  0  0  0  0  0  0  0  0  0
    9.5858    9.4778   27.8823 O   0  0  0  0  0  0  0  0  0  0  0  0
   10.0098    4.2367   28.4530 N   0  0  0  0  0  0  0  0  0  0  0  0
   10.0078    2.8475   28.7925 C   0  0  2  0  0  0  0  0  0  0  0  0
    8.9083    2.3811   29.6308 C   0  0  0  0  0  0  0  0  0  0  0  0
    8.4466    1.1971   29.5546 O   0  0  0  0  0  0  0  0  0  0  0  0
   11.3657    2.4733   29.4432 C   0  0  2  0  0  0  0  0  0  0  0  0
   12.3054    2.5473   28.4430 O   0  0  0  0  0  0  0  0  0  0  0  0
   11.2515    0.9827   29.7938 C   0  0  0  0  0  0  0  0  0  0  0  0
    8.2767    3.2033   30.5936 N   0  0  0  0  0  0  0  0  0  0  0  0
    6.8598    3.2131   30.8014 C   0  0  2  0  0  0  0  0  0  0  0  0
    6.0590    2.2825   30.0186 C   0  0  0  0  0  0  0  0  0  0  0  0
    6.2448    2.2720   28.7700 O   0  0  0  0  0  0  0  0  0  0  0  0
    6.3804    4.6463   30.5276 C   0  0  2  0  0  0  0  0  0  0  0  0
    6.4567    4.8332   29.1473 O   0  0  0  0  0  0  0  0  0  0  0  0
    7.2749    5.6587   31.1974 C   0  0  0  0  0  0  0  0  0  0  0  0
    5.0828    1.3816   30.5000 N   0  0  0  0  0  0  0  0  0  0  0  0
    4.3465    0.5021   29.5823 C   0  0  2  0  0  0  0  0  0  0  0  0
    3.0113    1.0527   29.2918 C   0  0  0  0  0  0  0  0  0  0  0  0
    2.6068    2.0373   29.9377 O   0  0  0  0  0  0  0  0  0  0  0  0
    4.1451   -0.7966   30.3649 C   0  0  2  0  0  0  0  0  0  0  0  0
    3.7085   -0.4416   31.6617 O   0  0  0  0  0  0  0  0  0  0  0  0
    5.4647   -1.5114   30.4068 C   0  0  0  0  0  0  0  0  0  0  0  0
    2.2022    0.4548   28.2706 N   0  0  0  0  0  0  0  0  0  0  0  0
    0.9619    0.8670   27.7240 C   0  0  2  0  0  0  0  0  0  0  0  0
   -0.1675    0.6746   28.7020 C   0  0  0  0  0  0  0  0  0  0  0  0
   -1.1100    1.6851   28.7437 O   0  0  0  0  0  0  0  0  0  0  0  0
    0.6364    0.0033   26.5449 C   0  0  0  0  0  0  0  0  0  0  0  0
    1.9179   -0.7280   26.2596 C   0  0  0  0  0  0  0  0  0  0  0  0
    2.5890   -0.8022   27.5895 C   0  0  0  0  0  0  0  0  0  0  0  0
   -0.2707   -0.3063   29.4312 O   0  0  0  0  0  0  0  0  0  0  0  0
  2  1  1  1
  2  3  1  0
  2  5  1  0
  3  4  2  0
  3  9  1  0
  5  6  1  0
  6  7  1  0
  7  8  1  0
  9 10  1  0
 10 11  1  0
 10 13  1  6
 11 12  2  0
 11 14  1  0
 14 15  1  0
 15 16  1  0
 15 18  1  6
 16 17  2  0
 16 22  1  0
 18 19  1  0
 19 20  2  0
 19 21  1  0
 23 22  1  1
 23 24  1  0
 23 26  1  0
 24 25  2  0
 24 29  1  0
 26 27  1  0
 26 28  1  6
 30 29  1  6
 30 31  1  0
 30 33  1  0
 31 32  2  0
 31 36  1  0
 33 34  1  0
 33 35  1  1
 37 36  1  1
 37 38  1  0
 37 40  1  0
 38 39  2  0
 38 43  1  0
 40 41  1  0
 40 42  1  1
 43 44  1  0
 43 49  1  0
 44 45  1  1
 44 47  1  0
 45 46  1  0
 45 50  2  0
 47 48  1  0
 48 49  1  0
M  CHG  1   1   1
M  END
$$$$
