
     RDKit          3D

 23 26  0  0  0  0  0  0  0  0999 V2000
   92.0417   93.9055  -42.8892 N   0  0  0  0  0  0  0  0  0  0  0  0
   91.7545   95.1640  -42.4484 C   0  0  0  0  0  0  0  0  0  0  0  0
   91.1184   95.8661  -43.4546 C   0  0  0  0  0  0  0  0  0  0  0  0
   90.7225   97.1722  -43.2548 C   0  0  0  0  0  0  0  0  0  0  0  0
   90.9492   97.8087  -42.0534 C   0  0  0  0  0  0  0  0  0  0  0  0
   91.5871   97.0903  -41.0580 C   0  0  0  0  0  0  0  0  0  0  0  0
   91.9850   95.7840  -41.2526 C   0  0  0  0  0  0  0  0  0  0  0  0
   90.5130   99.2139  -41.8652 C   0  0  0  0  0  0  0  0  0  0  0  0
   91.5972   93.8070  -44.1521 C   0  0  0  0  0  0  0  0  0  0  0  0
   91.0317   94.9992  -44.5066 C   0  0  0  0  0  0  0  0  0  0  0  0
   90.4824   95.1802  -45.7796 C   0  0  0  0  0  0  0  0  0  0  0  0
   90.5021   94.1570  -46.7004 C   0  0  0  0  0  0  0  0  0  0  0  0
   91.0744   92.9788  -46.3147 C   0  0  0  0  0  0  0  0  0  0  0  0
   91.6207   92.7835  -45.0630 C   0  0  0  0  0  0  0  0  0  0  0  0
   92.7101   92.8863  -42.0993 C   0  0  0  0  0  0  0  0  0  0  0  0
   91.1087   91.8626  -47.2852 C   0  0  0  0  0  0  0  0  0  0  0  0
   91.6466   90.6189  -47.1167 C   0  0  0  0  0  0  0  0  0  0  0  0
   91.5598   89.7622  -48.1448 C   0  0  0  0  0  0  0  0  0  0  0  0
   90.9399   90.2011  -49.2804 C   0  0  0  0  0  0  0  0  0  0  0  0
   90.4956   91.7970  -48.8815 S   0  0  0  0  0  0  0  0  0  0  0  0
   91.7234   91.9217  -41.4923 C   0  0  0  0  0  0  0  0  0  0  0  0
   91.4633  100.1425  -42.4716 N   0  0  0  0  0  4  0  0  0  0  0  0
   90.9943  101.5023  -42.2409 C   0  0  0  0  0  0  0  0  0  0  0  0
  1  2  1  0
  1  9  1  0
  1 15  1  0
  2  3  2  0
  2  7  1  0
  3  4  1  0
  3 10  1  0
  4  5  2  0
  5  6  1  0
  5  8  1  0
  6  7  2  0
  8 22  1  0
  9 10  2  0
  9 14  1  0
 10 11  1  0
 11 12  2  0
 12 13  1  0
 13 14  2  0
 13 16  1  0
 15 21  1  0
 16 17  2  0
 16 20  1  0
 17 18  1  0
 18 19  2  0
 19 20  1  0
 22 23  1  0
M  CHG  1  22   1
M  END
$$$$
