
     RDKit          3D

 23 26  0  0  0  0  0  0  0  0999 V2000
   92.0396   94.1811  -42.9884 N   0  0  0  0  0  0  0  0  0  0  0  0
   91.7259   95.4339  -42.5495 C   0  0  0  0  0  0  0  0  0  0  0  0
   91.0761   96.1213  -43.5571 C   0  0  0  0  0  0  0  0  0  0  0  0
   90.6528   97.4191  -43.3594 C   0  0  0  0  0  0  0  0  0  0  0  0
   90.8653   98.0618  -42.1586 C   0  0  0  0  0  0  0  0  0  0  0  0
   91.5173   97.3581  -41.1618 C   0  0  0  0  0  0  0  0  0  0  0  0
   91.9425   96.0602  -41.3544 C   0  0  0  0  0  0  0  0  0  0  0  0
   90.3998   99.4578  -41.9726 C   0  0  0  0  0  0  0  0  0  0  0  0
   91.5983   94.0717  -44.2515 C   0  0  0  0  0  0  0  0  0  0  0  0
   91.0083   95.2514  -44.6080 C   0  0  0  0  0  0  0  0  0  0  0  0
   90.4564   95.4193  -45.8817 C   0  0  0  0  0  0  0  0  0  0  0  0
   90.4981   94.3955  -46.8011 C   0  0  0  0  0  0  0  0  0  0  0  0
   91.0946   93.2299  -46.4134 C   0  0  0  0  0  0  0  0  0  0  0  0
   91.6438   93.0478  -45.1611 C   0  0  0  0  0  0  0  0  0  0  0  0
   92.7285   93.1771  -42.1966 C   0  0  0  0  0  0  0  0  0  0  0  0
   91.1529   92.1135  -47.3824 C   0  0  0  0  0  0  0  0  0  0  0  0
   90.4843   91.9932  -48.5669 C   0  0  0  0  0  0  0  0  0  0  0  0
   90.6953   90.8817  -49.2870 C   0  0  0  0  0  0  0  0  0  0  0  0
   91.5628   89.9567  -48.7789 C   0  0  0  0  0  0  0  0  0  0  0  0
   92.0597   90.6640  -47.3105 S   0  0  0  0  0  0  0  0  0  0  0  0
   91.7565   92.2497  -41.5127 C   0  0  0  0  0  0  0  0  0  0  0  0
   91.5283  100.3641  -41.7768 N   0  0  0  0  0  4  0  0  0  0  0  0
   91.0131  101.7163  -41.6082 C   0  0  0  0  0  0  0  0  0  0  0  0
  1  2  1  0
  1  9  1  0
  1 15  1  0
  2  3  2  0
  2  7  1  0
  3  4  1  0
  3 10  1  0
  4  5  2  0
  5  6  1  0
  5  8  1  0
  6  7  2  0
  8 22  1  0
  9 10  2  0
  9 14  1  0
 10 11  1  0
 11 12  2  0
 12 13  1  0
 13 14  2  0
 13 16  1  0
 15 21  1  0
 16 17  2  0
 16 20  1  0
 17 18  1  0
 18 19  2  0
 19 20  1  0
 22 23  1  0
M  CHG  1  22   1
M  END
$$$$
