
     RDKit          3D

 23 26  0  0  0  0  0  0  0  0999 V2000
   91.3952   93.7192  -42.8508 N   0  0  0  0  0  0  0  0  0  0  0  0
   91.1526   94.9816  -42.3948 C   0  0  0  0  0  0  0  0  0  0  0  0
   90.6611   95.7544  -43.4297 C   0  0  0  0  0  0  0  0  0  0  0  0
   90.3361   97.0787  -43.2218 C   0  0  0  0  0  0  0  0  0  0  0  0
   90.4917   97.6637  -41.9834 C   0  0  0  0  0  0  0  0  0  0  0  0
   90.9850   96.8748  -40.9595 C   0  0  0  0  0  0  0  0  0  0  0  0
   91.3115   95.5501  -41.1623 C   0  0  0  0  0  0  0  0  0  0  0  0
   90.1344   99.0898  -41.7873 C   0  0  0  0  0  0  0  0  0  0  0  0
   91.0647   93.6876  -44.1515 C   0  0  0  0  0  0  0  0  0  0  0  0
   90.6153   94.9258  -44.5146 C   0  0  0  0  0  0  0  0  0  0  0  0
   90.2002   95.1804  -45.8253 C   0  0  0  0  0  0  0  0  0  0  0  0
   90.2374   94.1847  -46.7753 C   0  0  0  0  0  0  0  0  0  0  0  0
   90.6917   92.9592  -46.3801 C   0  0  0  0  0  0  0  0  0  0  0  0
   91.1048   92.6911  -45.0914 C   0  0  0  0  0  0  0  0  0  0  0  0
   91.9179   92.6341  -42.0391 C   0  0  0  0  0  0  0  0  0  0  0  0
   90.7419   91.8712  -47.3815 C   0  0  0  0  0  0  0  0  0  0  0  0
   90.2881   91.8929  -48.6691 C   0  0  0  0  0  0  0  0  0  0  0  0
   90.4421   90.7784  -49.3988 C   0  0  0  0  0  0  0  0  0  0  0  0
   91.0411   89.7084  -48.7965 C   0  0  0  0  0  0  0  0  0  0  0  0
   91.3725   90.2878  -47.2288 S   0  0  0  0  0  0  0  0  0  0  0  0
   93.4252   92.6126  -42.0492 C   0  0  0  0  0  0  0  0  0  0  0  0
   91.3306   99.9258  -41.7286 N   0  0  0  0  0  4  0  0  0  0  0  0
   90.9189  101.3130  -41.5604 C   0  0  0  0  0  0  0  0  0  0  0  0
  1  2  1  0
  1  9  1  0
  1 15  1  0
  2  3  2  0
  2  7  1  0
  3  4  1  0
  3 10  1  0
  4  5  2  0
  5  6  1  0
  5  8  1  0
  6  7  2  0
  8 22  1  0
  9 10  2  0
  9 14  1  0
 10 11  1  0
 11 12  2  0
 12 13  1  0
 13 14  2  0
 13 16  1  0
 15 21  1  0
 16 17  2  0
 16 20  1  0
 17 18  1  0
 18 19  2  0
 19 20  1  0
 22 23  1  0
M  CHG  1  22   1
M  END
$$$$
