
     RDKit          3D

 23 26  0  0  0  0  0  0  0  0999 V2000
   92.0835   94.1563  -42.8887 N   0  0  0  0  0  0  0  0  0  0  0  0
   91.7645   95.4073  -42.4486 C   0  0  0  0  0  0  0  0  0  0  0  0
   91.1232   96.0973  -43.4598 C   0  0  0  0  0  0  0  0  0  0  0  0
   90.6967   97.3940  -43.2618 C   0  0  0  0  0  0  0  0  0  0  0  0
   90.8976   98.0330  -42.0570 C   0  0  0  0  0  0  0  0  0  0  0  0
   91.5413   97.3268  -41.0566 C   0  0  0  0  0  0  0  0  0  0  0  0
   91.9696   96.0300  -41.2496 C   0  0  0  0  0  0  0  0  0  0  0  0
   90.4289   99.4279  -41.8708 C   0  0  0  0  0  0  0  0  0  0  0  0
   91.6538   94.0505  -44.1561 C   0  0  0  0  0  0  0  0  0  0  0  0
   91.0659   95.2308  -44.5141 C   0  0  0  0  0  0  0  0  0  0  0  0
   90.5253   95.4022  -45.7922 C   0  0  0  0  0  0  0  0  0  0  0  0
   90.5765   94.3814  -46.7145 C   0  0  0  0  0  0  0  0  0  0  0  0
   91.1706   93.2153  -46.3252 C   0  0  0  0  0  0  0  0  0  0  0  0
   91.7087   93.0296  -45.0686 C   0  0  0  0  0  0  0  0  0  0  0  0
   92.7663   93.1504  -42.0940 C   0  0  0  0  0  0  0  0  0  0  0  0
   91.2390   92.1020  -47.2973 C   0  0  0  0  0  0  0  0  0  0  0  0
   90.6168   92.0052  -48.5089 C   0  0  0  0  0  0  0  0  0  0  0  0
   90.8274   90.8917  -49.2259 C   0  0  0  0  0  0  0  0  0  0  0  0
   91.6481   89.9413  -48.6878 C   0  0  0  0  0  0  0  0  0  0  0  0
   92.1028   90.6283  -47.1963 S   0  0  0  0  0  0  0  0  0  0  0  0
   91.7913   92.1919  -41.4590 C   0  0  0  0  0  0  0  0  0  0  0  0
   91.5225  100.3772  -42.0606 N   0  0  0  0  0  4  0  0  0  0  0  0
   91.0083  101.7244  -41.8532 C   0  0  0  0  0  0  0  0  0  0  0  0
  1  2  1  0
  1  9  1  0
  1 15  1  0
  2  3  2  0
  2  7  1  0
  3  4  1  0
  3 10  1  0
  4  5  2  0
  5  6  1  0
  5  8  1  0
  6  7  2  0
  8 22  1  0
  9 10  2  0
  9 14  1  0
 10 11  1  0
 11 12  2  0
 12 13  1  0
 13 14  2  0
 13 16  1  0
 15 21  1  0
 16 17  2  0
 16 20  1  0
 17 18  1  0
 18 19  2  0
 19 20  1  0
 22 23  1  0
M  CHG  1  22   1
M  END
$$$$
