
     RDKit          3D

 23 26  0  0  0  0  0  0  0  0999 V2000
   91.1808   96.2425  -42.4032 N   0  0  0  0  0  0  0  0  0  0  0  0
   90.5445   97.0405  -43.3081 C   0  0  0  0  0  0  0  0  0  0  0  0
   90.2508   96.3035  -44.4397 C   0  0  0  0  0  0  0  0  0  0  0  0
   89.6030   96.8884  -45.5079 C   0  0  0  0  0  0  0  0  0  0  0  0
   89.2333   98.2159  -45.4757 C   0  0  0  0  0  0  0  0  0  0  0  0
   89.5355   98.9378  -44.3348 C   0  0  0  0  0  0  0  0  0  0  0  0
   90.1831   98.3576  -43.2640 C   0  0  0  0  0  0  0  0  0  0  0  0
   88.5377   98.8200  -46.6382 C   0  0  0  0  0  0  0  0  0  0  0  0
   91.2907   95.0202  -42.9474 C   0  0  0  0  0  0  0  0  0  0  0  0
   90.7257   95.0472  -44.1911 C   0  0  0  0  0  0  0  0  0  0  0  0
   90.6996   93.9002  -44.9903 C   0  0  0  0  0  0  0  0  0  0  0  0
   91.2445   92.7203  -44.5361 C   0  0  0  0  0  0  0  0  0  0  0  0
   91.8011   92.7270  -43.2893 C   0  0  0  0  0  0  0  0  0  0  0  0
   91.8352   93.8495  -42.4881 C   0  0  0  0  0  0  0  0  0  0  0  0
   91.6400   96.6790  -41.0963 C   0  0  0  0  0  0  0  0  0  0  0  0
   92.3938   91.4719  -42.7769 C   0  0  0  0  0  0  0  0  0  0  0  0
   92.2146   90.2037  -43.2501 C   0  0  0  0  0  0  0  0  0  0  0  0
   92.8597   89.2109  -42.6203 C   0  0  0  0  0  0  0  0  0  0  0  0
   93.6458   89.5463  -41.5545 C   0  0  0  0  0  0  0  0  0  0  0  0
   93.4626   91.2378  -41.4612 S   0  0  0  0  0  0  0  0  0  0  0  0
   90.6786   96.2729  -40.0085 C   0  0  0  0  0  0  0  0  0  0  0  0
   87.2462   99.3765  -46.2440 N   0  0  0  0  0  4  0  0  0  0  0  0
   86.6364  100.0032  -47.4091 C   0  0  0  0  0  0  0  0  0  0  0  0
  1  2  1  0
  1  9  1  0
  1 15  1  0
  2  3  2  0
  2  7  1  0
  3  4  1  0
  3 10  1  0
  4  5  2  0
  5  6  1  0
  5  8  1  0
  6  7  2  0
  8 22  1  0
  9 10  2  0
  9 14  1  0
 10 11  1  0
 11 12  2  0
 12 13  1  0
 13 14  2  0
 13 16  1  0
 15 21  1  0
 16 17  2  0
 16 20  1  0
 17 18  1  0
 18 19  2  0
 19 20  1  0
 22 23  1  0
M  CHG  1  22   1
M  END
$$$$
