
     RDKit          3D

 23 26  0  0  0  0  0  0  0  0999 V2000
   90.9739   95.1892  -42.0932 N   0  0  0  0  0  0  0  0  0  0  0  0
   90.4747   96.3103  -42.6887 C   0  0  0  0  0  0  0  0  0  0  0  0
   90.3981   96.1067  -44.0535 C   0  0  0  0  0  0  0  0  0  0  0  0
   89.9216   97.0995  -44.8840 C   0  0  0  0  0  0  0  0  0  0  0  0
   89.5113   98.3144  -44.3782 C   0  0  0  0  0  0  0  0  0  0  0  0
   89.5952   98.5001  -43.0099 C   0  0  0  0  0  0  0  0  0  0  0  0
   90.0709   97.5105  -42.1750 C   0  0  0  0  0  0  0  0  0  0  0  0
   89.0029   99.3648  -45.2938 C   0  0  0  0  0  0  0  0  0  0  0  0
   91.2110   94.2882  -43.0596 C   0  0  0  0  0  0  0  0  0  0  0  0
   90.8626   94.8391  -44.2605 C   0  0  0  0  0  0  0  0  0  0  0  0
   91.0063   94.1154  -45.4483 C   0  0  0  0  0  0  0  0  0  0  0  0
   91.5029   92.8316  -45.4279 C   0  0  0  0  0  0  0  0  0  0  0  0
   91.8415   92.3107  -44.2120 C   0  0  0  0  0  0  0  0  0  0  0  0
   91.7061   93.0107  -43.0310 C   0  0  0  0  0  0  0  0  0  0  0  0
   91.1932   95.0406  -40.6651 C   0  0  0  0  0  0  0  0  0  0  0  0
   92.3777   90.9326  -44.1619 C   0  0  0  0  0  0  0  0  0  0  0  0
   92.5174   90.0475  -45.1921 C   0  0  0  0  0  0  0  0  0  0  0  0
   93.0326   88.8424  -44.9076 C   0  0  0  0  0  0  0  0  0  0  0  0
   93.3774   88.5949  -43.6091 C   0  0  0  0  0  0  0  0  0  0  0  0
   92.9729   90.0508  -42.8216 S   0  0  0  0  0  0  0  0  0  0  0  0
   92.6176   95.3595  -40.2884 C   0  0  0  0  0  0  0  0  0  0  0  0
   89.6589  100.6444  -45.0378 N   0  0  0  0  0  4  0  0  0  0  0  0
   89.0589  101.6536  -45.9002 C   0  0  0  0  0  0  0  0  0  0  0  0
  1  2  1  0
  1  9  1  0
  1 15  1  0
  2  3  2  0
  2  7  1  0
  3  4  1  0
  3 10  1  0
  4  5  2  0
  5  6  1  0
  5  8  1  0
  6  7  2  0
  8 22  1  0
  9 10  2  0
  9 14  1  0
 10 11  1  0
 11 12  2  0
 12 13  1  0
 13 14  2  0
 13 16  1  0
 15 21  1  0
 16 17  2  0
 16 20  1  0
 17 18  1  0
 18 19  2  0
 19 20  1  0
 22 23  1  0
M  CHG  1  22   1
M  END
$$$$
