
     RDKit          3D

 23 26  0  0  0  0  0  0  0  0999 V2000
   91.7259   95.4773  -42.1643 N   0  0  0  0  0  0  0  0  0  0  0  0
   91.1326   96.5809  -42.7032 C   0  0  0  0  0  0  0  0  0  0  0  0
   90.7579   96.3079  -44.0052 C   0  0  0  0  0  0  0  0  0  0  0  0
   90.1332   97.2704  -44.7706 C   0  0  0  0  0  0  0  0  0  0  0  0
   89.8671   98.5231  -44.2607 C   0  0  0  0  0  0  0  0  0  0  0  0
   90.2492   98.7781  -42.9558 C   0  0  0  0  0  0  0  0  0  0  0  0
   90.8743   97.8192  -42.1862 C   0  0  0  0  0  0  0  0  0  0  0  0
   89.1940   99.5396  -45.1055 C   0  0  0  0  0  0  0  0  0  0  0  0
   91.7296   94.5190  -43.1045 C   0  0  0  0  0  0  0  0  0  0  0  0
   91.1406   95.0166  -44.2325 C   0  0  0  0  0  0  0  0  0  0  0  0
   91.0088   94.2268  -45.3787 C   0  0  0  0  0  0  0  0  0  0  0  0
   91.4717   92.9303  -45.3904 C   0  0  0  0  0  0  0  0  0  0  0  0
   92.0550   92.4638  -44.2473 C   0  0  0  0  0  0  0  0  0  0  0  0
   92.1930   93.2294  -43.1080 C   0  0  0  0  0  0  0  0  0  0  0  0
   92.2464   95.3974  -40.8107 C   0  0  0  0  0  0  0  0  0  0  0  0
   92.5611   91.0736  -44.2328 C   0  0  0  0  0  0  0  0  0  0  0  0
   92.5723   90.1728  -45.2590 C   0  0  0  0  0  0  0  0  0  0  0  0
   93.0859   88.9589  -45.0118 C   0  0  0  0  0  0  0  0  0  0  0  0
   93.5578   88.7187  -43.7525 C   0  0  0  0  0  0  0  0  0  0  0  0
   93.2714   90.1935  -42.9486 S   0  0  0  0  0  0  0  0  0  0  0  0
   91.2222   94.8375  -39.8567 C   0  0  0  0  0  0  0  0  0  0  0  0
   87.8111   99.7406  -44.6807 N   0  0  0  0  0  4  0  0  0  0  0  0
   87.1543  100.6182  -45.6402 C   0  0  0  0  0  0  0  0  0  0  0  0
  1  2  1  0
  1  9  1  0
  1 15  1  0
  2  3  2  0
  2  7  1  0
  3  4  1  0
  3 10  1  0
  4  5  2  0
  5  6  1  0
  5  8  1  0
  6  7  2  0
  8 22  1  0
  9 10  2  0
  9 14  1  0
 10 11  1  0
 11 12  2  0
 12 13  1  0
 13 14  2  0
 13 16  1  0
 15 21  1  0
 16 17  2  0
 16 20  1  0
 17 18  1  0
 18 19  2  0
 19 20  1  0
 22 23  1  0
M  CHG  1  22   1
M  END
$$$$
