
     RDKit          3D

 23 26  0  0  0  0  0  0  0  0999 V2000
   91.5320   93.9931  -42.8405 N   0  0  0  0  0  0  0  0  0  0  0  0
   91.3960   95.2881  -42.4342 C   0  0  0  0  0  0  0  0  0  0  0  0
   90.9976   96.0637  -43.5065 C   0  0  0  0  0  0  0  0  0  0  0  0
   90.7901   97.4185  -43.3521 C   0  0  0  0  0  0  0  0  0  0  0  0
   90.9734   98.0320  -42.1314 C   0  0  0  0  0  0  0  0  0  0  0  0
   91.3723   97.2399  -41.0696 C   0  0  0  0  0  0  0  0  0  0  0  0
   91.5812   95.8847  -41.2187 C   0  0  0  0  0  0  0  0  0  0  0  0
   90.7432   99.4908  -41.9930 C   0  0  0  0  0  0  0  0  0  0  0  0
   91.2261   93.9439  -44.1468 C   0  0  0  0  0  0  0  0  0  0  0  0
   90.8984   95.2034  -44.5628 C   0  0  0  0  0  0  0  0  0  0  0  0
   90.5345   95.4463  -45.8908 C   0  0  0  0  0  0  0  0  0  0  0  0
   90.5001   94.4173  -46.8047 C   0  0  0  0  0  0  0  0  0  0  0  0
   90.8331   93.1711  -46.3568 C   0  0  0  0  0  0  0  0  0  0  0  0
   91.1943   92.9142  -45.0504 C   0  0  0  0  0  0  0  0  0  0  0  0
   91.9376   92.8958  -41.9799 C   0  0  0  0  0  0  0  0  0  0  0  0
   90.8044   92.0472  -47.3186 C   0  0  0  0  0  0  0  0  0  0  0  0
   90.2515   92.0235  -48.5669 C   0  0  0  0  0  0  0  0  0  0  0  0
   90.3474   90.8825  -49.2650 C   0  0  0  0  0  0  0  0  0  0  0  0
   90.9908   89.8331  -48.6724 C   0  0  0  0  0  0  0  0  0  0  0  0
   91.4439   90.4681  -47.1576 S   0  0  0  0  0  0  0  0  0  0  0  0
   93.4377   92.7533  -41.9355 C   0  0  0  0  0  0  0  0  0  0  0  0
   89.4994   99.7587  -41.2760 N   0  0  0  0  0  4  0  0  0  0  0  0
   89.3656  101.1988  -41.1018 C   0  0  0  0  0  0  0  0  0  0  0  0
  1  2  1  0
  1  9  1  0
  1 15  1  0
  2  3  2  0
  2  7  1  0
  3  4  1  0
  3 10  1  0
  4  5  2  0
  5  6  1  0
  5  8  1  0
  6  7  2  0
  8 22  1  0
  9 10  2  0
  9 14  1  0
 10 11  1  0
 11 12  2  0
 12 13  1  0
 13 14  2  0
 13 16  1  0
 15 21  1  0
 16 17  2  0
 16 20  1  0
 17 18  1  0
 18 19  2  0
 19 20  1  0
 22 23  1  0
M  CHG  1  22   1
M  END
$$$$
