
     RDKit          3D

 23 26  0  0  0  0  0  0  0  0999 V2000
   91.7676   94.0509  -42.8678 N   0  0  0  0  0  0  0  0  0  0  0  0
   91.5124   95.3325  -42.4766 C   0  0  0  0  0  0  0  0  0  0  0  0
   90.9396   96.0249  -43.5266 C   0  0  0  0  0  0  0  0  0  0  0  0
   90.5861   97.3503  -43.3815 C   0  0  0  0  0  0  0  0  0  0  0  0
   90.7934   98.0161  -42.1925 C   0  0  0  0  0  0  0  0  0  0  0  0
   91.3678   97.3069  -41.1527 C   0  0  0  0  0  0  0  0  0  0  0  0
   91.7231   95.9815  -41.2926 C   0  0  0  0  0  0  0  0  0  0  0  0
   90.4039   99.4415  -42.0636 C   0  0  0  0  0  0  0  0  0  0  0  0
   91.3653   93.9285  -44.1427 C   0  0  0  0  0  0  0  0  0  0  0  0
   90.8581   95.1287  -44.5541 C   0  0  0  0  0  0  0  0  0  0  0  0
   90.3620   95.2890  -45.8515 C   0  0  0  0  0  0  0  0  0  0  0  0
   90.3761   94.2369  -46.7393 C   0  0  0  0  0  0  0  0  0  0  0  0
   90.8895   93.0515  -46.2969 C   0  0  0  0  0  0  0  0  0  0  0  0
   91.3829   92.8764  -45.0206 C   0  0  0  0  0  0  0  0  0  0  0  0
   92.3685   93.0337  -42.0231 C   0  0  0  0  0  0  0  0  0  0  0  0
   90.9166   91.9045  -47.2310 C   0  0  0  0  0  0  0  0  0  0  0  0
   90.4477   91.8532  -48.5124 C   0  0  0  0  0  0  0  0  0  0  0  0
   90.5815   90.6949  -49.1749 C   0  0  0  0  0  0  0  0  0  0  0  0
   91.1767   89.6568  -48.5157 C   0  0  0  0  0  0  0  0  0  0  0  0
   91.5328   90.3263  -46.9898 S   0  0  0  0  0  0  0  0  0  0  0  0
   91.3206   92.1904  -41.3425 C   0  0  0  0  0  0  0  0  0  0  0  0
   89.2915   99.5977  -41.1301 N   0  0  0  0  0  4  0  0  0  0  0  0
   88.9841  101.0165  -41.0086 C   0  0  0  0  0  0  0  0  0  0  0  0
  1  2  1  0
  1  9  1  0
  1 15  1  0
  2  3  2  0
  2  7  1  0
  3  4  1  0
  3 10  1  0
  4  5  2  0
  5  6  1  0
  5  8  1  0
  6  7  2  0
  8 22  1  0
  9 10  2  0
  9 14  1  0
 10 11  1  0
 11 12  2  0
 12 13  1  0
 13 14  2  0
 13 16  1  0
 15 21  1  0
 16 17  2  0
 16 20  1  0
 17 18  1  0
 18 19  2  0
 19 20  1  0
 22 23  1  0
M  CHG  1  22   1
M  END
$$$$
