
     RDKit          3D

 23 26  0  0  0  0  0  0  0  0999 V2000
   91.8554   94.2521  -42.8871 N   0  0  0  0  0  0  0  0  0  0  0  0
   91.5288   95.5246  -42.5201 C   0  0  0  0  0  0  0  0  0  0  0  0
   90.8817   96.1504  -43.5687 C   0  0  0  0  0  0  0  0  0  0  0  0
   90.4471   97.4537  -43.4457 C   0  0  0  0  0  0  0  0  0  0  0  0
   90.6452   98.1630  -42.2806 C   0  0  0  0  0  0  0  0  0  0  0  0
   91.2947   97.5204  -41.2417 C   0  0  0  0  0  0  0  0  0  0  0  0
   91.7313   96.2173  -41.3596 C   0  0  0  0  0  0  0  0  0  0  0  0
   90.1677   99.5633  -42.1750 C   0  0  0  0  0  0  0  0  0  0  0  0
   91.4248   94.0700  -44.1455 C   0  0  0  0  0  0  0  0  0  0  0  0
   90.8287   95.2236  -44.5706 C   0  0  0  0  0  0  0  0  0  0  0  0
   90.2855   95.3169  -45.8557 C   0  0  0  0  0  0  0  0  0  0  0  0
   90.3422   94.2445  -46.7171 C   0  0  0  0  0  0  0  0  0  0  0  0
   90.9444   93.1068  -46.2615 C   0  0  0  0  0  0  0  0  0  0  0  0
   91.4852   92.9981  -44.9971 C   0  0  0  0  0  0  0  0  0  0  0  0
   92.5457   93.2986  -42.0363 C   0  0  0  0  0  0  0  0  0  0  0  0
   91.0188   91.9393  -47.1673 C   0  0  0  0  0  0  0  0  0  0  0  0
   90.3358   91.7345  -48.3317 C   0  0  0  0  0  0  0  0  0  0  0  0
   90.5664   90.5901  -48.9918 C   0  0  0  0  0  0  0  0  0  0  0  0
   91.4668   89.7188  -48.4473 C   0  0  0  0  0  0  0  0  0  0  0  0
   91.9663   90.5211  -47.0295 S   0  0  0  0  0  0  0  0  0  0  0  0
   91.5767   92.3835  -41.3318 C   0  0  0  0  0  0  0  0  0  0  0  0
   91.1553  100.4950  -42.7133 N   0  0  0  0  0  4  0  0  0  0  0  0
   90.8539  101.8299  -42.2137 C   0  0  0  0  0  0  0  0  0  0  0  0
  1  2  1  0
  1  9  1  0
  1 15  1  0
  2  3  2  0
  2  7  1  0
  3  4  1  0
  3 10  1  0
  4  5  2  0
  5  6  1  0
  5  8  1  0
  6  7  2  0
  8 22  1  0
  9 10  2  0
  9 14  1  0
 10 11  1  0
 11 12  2  0
 12 13  1  0
 13 14  2  0
 13 16  1  0
 15 21  1  0
 16 17  2  0
 16 20  1  0
 17 18  1  0
 18 19  2  0
 19 20  1  0
 22 23  1  0
M  CHG  1  22   1
M  END
$$$$
