
     RDKit          3D

 23 26  0  0  0  0  0  0  0  0999 V2000
   91.5990   94.3034  -43.0578 N   0  0  0  0  0  0  0  0  0  0  0  0
   91.3369   95.5953  -42.7077 C   0  0  0  0  0  0  0  0  0  0  0  0
   90.7805   96.2567  -43.7861 C   0  0  0  0  0  0  0  0  0  0  0  0
   90.4239   97.5853  -43.6849 C   0  0  0  0  0  0  0  0  0  0  0  0
   90.6118   98.2852  -42.5124 C   0  0  0  0  0  0  0  0  0  0  0  0
   91.1700   97.6069  -41.4436 C   0  0  0  0  0  0  0  0  0  0  0  0
   91.5282   96.2784  -41.5396 C   0  0  0  0  0  0  0  0  0  0  0  0
   90.2195   99.7133  -42.4306 C   0  0  0  0  0  0  0  0  0  0  0  0
   91.2172   94.1440  -44.3349 C   0  0  0  0  0  0  0  0  0  0  0  0
   90.7159   95.3313  -44.7886 C   0  0  0  0  0  0  0  0  0  0  0  0
   90.2405   95.4537  -46.0978 C   0  0  0  0  0  0  0  0  0  0  0  0
   90.2694   94.3765  -46.9547 C   0  0  0  0  0  0  0  0  0  0  0  0
   90.7764   93.2048  -46.4703 C   0  0  0  0  0  0  0  0  0  0  0  0
   91.2494   93.0671  -45.1817 C   0  0  0  0  0  0  0  0  0  0  0  0
   92.1870   93.3115  -42.1747 C   0  0  0  0  0  0  0  0  0  0  0  0
   90.8190   92.0315  -47.3705 C   0  0  0  0  0  0  0  0  0  0  0  0
   90.2222   91.8860  -48.5899 C   0  0  0  0  0  0  0  0  0  0  0  0
   90.4009   90.7221  -49.2319 C   0  0  0  0  0  0  0  0  0  0  0  0
   91.1662   89.7732  -48.6153 C   0  0  0  0  0  0  0  0  0  0  0  0
   91.6150   90.5318  -47.1570 S   0  0  0  0  0  0  0  0  0  0  0  0
   91.1292   92.4784  -41.4967 C   0  0  0  0  0  0  0  0  0  0  0  0
   89.1016   99.8970  -41.5089 N   0  0  0  0  0  4  0  0  0  0  0  0
   88.7851  101.3174  -41.4413 C   0  0  0  0  0  0  0  0  0  0  0  0
  1  2  1  0
  1  9  1  0
  1 15  1  0
  2  3  2  0
  2  7  1  0
  3  4  1  0
  3 10  1  0
  4  5  2  0
  5  6  1  0
  5  8  1  0
  6  7  2  0
  8 22  1  0
  9 10  2  0
  9 14  1  0
 10 11  1  0
 11 12  2  0
 12 13  1  0
 13 14  2  0
 13 16  1  0
 15 21  1  0
 16 17  2  0
 16 20  1  0
 17 18  1  0
 18 19  2  0
 19 20  1  0
 22 23  1  0
M  CHG  1  22   1
M  END
$$$$
