
     RDKit          3D

 23 26  0  0  0  0  0  0  0  0999 V2000
   91.8133   94.0595  -43.0147 N   0  0  0  0  0  0  0  0  0  0  0  0
   91.5981   95.3488  -42.6250 C   0  0  0  0  0  0  0  0  0  0  0  0
   91.0540   96.0594  -43.6781 C   0  0  0  0  0  0  0  0  0  0  0  0
   90.7434   97.3957  -43.5350 C   0  0  0  0  0  0  0  0  0  0  0  0
   90.9660   98.0546  -42.3449 C   0  0  0  0  0  0  0  0  0  0  0  0
   91.5111   97.3273  -41.3020 C   0  0  0  0  0  0  0  0  0  0  0  0
   91.8235   95.9909  -41.4399 C   0  0  0  0  0  0  0  0  0  0  0  0
   90.6227   99.4921  -42.2181 C   0  0  0  0  0  0  0  0  0  0  0  0
   91.4141   93.9501  -44.2918 C   0  0  0  0  0  0  0  0  0  0  0  0
   90.9488   95.1662  -44.7060 C   0  0  0  0  0  0  0  0  0  0  0  0
   90.4653   95.3423  -46.0061 C   0  0  0  0  0  0  0  0  0  0  0  0
   90.4498   94.2901  -46.8937 C   0  0  0  0  0  0  0  0  0  0  0  0
   90.9216   93.0886  -46.4485 C   0  0  0  0  0  0  0  0  0  0  0  0
   91.4020   92.8978  -45.1695 C   0  0  0  0  0  0  0  0  0  0  0  0
   92.3759   93.0234  -42.1667 C   0  0  0  0  0  0  0  0  0  0  0  0
   90.9162   91.9411  -47.3824 C   0  0  0  0  0  0  0  0  0  0  0  0
   90.6634   91.9511  -48.7242 C   0  0  0  0  0  0  0  0  0  0  0  0
   90.7151   90.7784  -49.3728 C   0  0  0  0  0  0  0  0  0  0  0  0
   91.0167   89.6656  -48.6400 C   0  0  0  0  0  0  0  0  0  0  0  0
   91.2196   90.2869  -47.0665 S   0  0  0  0  0  0  0  0  0  0  0  0
   91.2981   92.1752  -41.5409 C   0  0  0  0  0  0  0  0  0  0  0  0
   89.5389   99.6887  -41.2591 N   0  0  0  0  0  4  0  0  0  0  0  0
   89.2928  101.1182  -41.1244 C   0  0  0  0  0  0  0  0  0  0  0  0
  1  2  1  0
  1  9  1  0
  1 15  1  0
  2  3  2  0
  2  7  1  0
  3  4  1  0
  3 10  1  0
  4  5  2  0
  5  6  1  0
  5  8  1  0
  6  7  2  0
  8 22  1  0
  9 10  2  0
  9 14  1  0
 10 11  1  0
 11 12  2  0
 12 13  1  0
 13 14  2  0
 13 16  1  0
 15 21  1  0
 16 17  2  0
 16 20  1  0
 17 18  1  0
 18 19  2  0
 19 20  1  0
 22 23  1  0
M  CHG  1  22   1
M  END
$$$$
