
     RDKit          3D

 23 26  0  0  0  0  0  0  0  0999 V2000
   91.8499   97.3605  -44.9606 N   0  0  0  0  0  0  0  0  0  0  0  0
   91.4207   98.1354  -43.9233 C   0  0  0  0  0  0  0  0  0  0  0  0
   90.5736   97.3952  -43.1204 C   0  0  0  0  0  0  0  0  0  0  0  0
   90.0032   97.9582  -41.9978 C   0  0  0  0  0  0  0  0  0  0  0  0
   90.2610   99.2664  -41.6485 C   0  0  0  0  0  0  0  0  0  0  0  0
   91.1112   99.9918  -42.4639 C   0  0  0  0  0  0  0  0  0  0  0  0
   91.6842   99.4336  -43.5876 C   0  0  0  0  0  0  0  0  0  0  0  0
   89.6343   99.8470  -40.4359 C   0  0  0  0  0  0  0  0  0  0  0  0
   91.2873   96.1495  -44.8217 C   0  0  0  0  0  0  0  0  0  0  0  0
   90.5061   96.1607  -43.7008 C   0  0  0  0  0  0  0  0  0  0  0  0
   89.7958   95.0207  -43.3123 C   0  0  0  0  0  0  0  0  0  0  0  0
   89.8718   93.8639  -44.0549 C   0  0  0  0  0  0  0  0  0  0  0  0
   90.6610   93.8860  -45.1690 C   0  0  0  0  0  0  0  0  0  0  0  0
   91.3682   95.0019  -45.5663 C   0  0  0  0  0  0  0  0  0  0  0  0
   92.7540   97.8068  -46.0060 C   0  0  0  0  0  0  0  0  0  0  0  0
   90.7604   92.6560  -45.9850 C   0  0  0  0  0  0  0  0  0  0  0  0
   89.8798   91.6141  -46.0451 C   0  0  0  0  0  0  0  0  0  0  0  0
   90.1806   90.5955  -46.8638 C   0  0  0  0  0  0  0  0  0  0  0  0
   91.3447   90.6801  -47.5738 C   0  0  0  0  0  0  0  0  0  0  0  0
   91.9868   92.1787  -47.0789 S   0  0  0  0  0  0  0  0  0  0  0  0
   92.0008   98.3478  -47.1945 C   0  0  0  0  0  0  0  0  0  0  0  0
   90.6411  100.1594  -39.4250 N   0  0  0  0  0  4  0  0  0  0  0  0
   89.9986  100.8916  -38.3417 C   0  0  0  0  0  0  0  0  0  0  0  0
  1  2  1  0
  1  9  1  0
  1 15  1  0
  2  3  2  0
  2  7  1  0
  3  4  1  0
  3 10  1  0
  4  5  2  0
  5  6  1  0
  5  8  1  0
  6  7  2  0
  8 22  1  0
  9 10  2  0
  9 14  1  0
 10 11  1  0
 11 12  2  0
 12 13  1  0
 13 14  2  0
 13 16  1  0
 15 21  1  0
 16 17  2  0
 16 20  1  0
 17 18  1  0
 18 19  2  0
 19 20  1  0
 22 23  1  0
M  CHG  1  22   1
M  END
$$$$
