
     RDKit          3D

 23 26  0  0  0  0  0  0  0  0999 V2000
   90.7403   96.0930  -42.3026 N   0  0  0  0  0  0  0  0  0  0  0  0
   90.1739   96.8718  -43.2686 C   0  0  0  0  0  0  0  0  0  0  0  0
   90.1831   96.1884  -44.4698 C   0  0  0  0  0  0  0  0  0  0  0  0
   89.6621   96.7666  -45.6085 C   0  0  0  0  0  0  0  0  0  0  0  0
   89.1214   98.0342  -45.5795 C   0  0  0  0  0  0  0  0  0  0  0  0
   89.1209   98.7031  -44.3685 C   0  0  0  0  0  0  0  0  0  0  0  0
   89.6406   98.1293  -43.2269 C   0  0  0  0  0  0  0  0  0  0  0  0
   88.5679   98.6325  -46.8188 C   0  0  0  0  0  0  0  0  0  0  0  0
   91.1038   94.9352  -42.8768 C   0  0  0  0  0  0  0  0  0  0  0  0
   90.7677   94.9837  -44.2003 C   0  0  0  0  0  0  0  0  0  0  0  0
   91.0333   93.9025  -45.0461 C   0  0  0  0  0  0  0  0  0  0  0  0
   91.6400   92.7670  -44.5582 C   0  0  0  0  0  0  0  0  0  0  0  0
   91.9630   92.7507  -43.2316 C   0  0  0  0  0  0  0  0  0  0  0  0
   91.7079   93.8085  -42.3835 C   0  0  0  0  0  0  0  0  0  0  0  0
   90.9012   96.4862  -40.9137 C   0  0  0  0  0  0  0  0  0  0  0  0
   92.6159   91.5424  -42.6815 C   0  0  0  0  0  0  0  0  0  0  0  0
   92.7822   90.3288  -43.2849 C   0  0  0  0  0  0  0  0  0  0  0  0
   93.4105   89.3713  -42.5871 C   0  0  0  0  0  0  0  0  0  0  0  0
   93.8350   89.6852  -41.3271 C   0  0  0  0  0  0  0  0  0  0  0  0
   93.3454   91.3078  -41.1514 S   0  0  0  0  0  0  0  0  0  0  0  0
   92.1480   97.3094  -40.7130 C   0  0  0  0  0  0  0  0  0  0  0  0
   89.4410   99.6879  -47.3257 N   0  0  0  0  0  4  0  0  0  0  0  0
   88.8220  100.2741  -48.5070 C   0  0  0  0  0  0  0  0  0  0  0  0
  1  2  1  0
  1  9  1  0
  1 15  1  0
  2  3  2  0
  2  7  1  0
  3  4  1  0
  3 10  1  0
  4  5  2  0
  5  6  1  0
  5  8  1  0
  6  7  2  0
  8 22  1  0
  9 10  2  0
  9 14  1  0
 10 11  1  0
 11 12  2  0
 12 13  1  0
 13 14  2  0
 13 16  1  0
 15 21  1  0
 16 17  2  0
 16 20  1  0
 17 18  1  0
 18 19  2  0
 19 20  1  0
 22 23  1  0
M  CHG  1  22   1
M  END
$$$$
