
     RDKit          3D

 23 26  0  0  0  0  0  0  0  0999 V2000
   91.3868   96.1199  -42.3745 N   0  0  0  0  0  0  0  0  0  0  0  0
   90.7483   96.9093  -43.2855 C   0  0  0  0  0  0  0  0  0  0  0  0
   90.4590   96.1636  -44.4125 C   0  0  0  0  0  0  0  0  0  0  0  0
   89.8102   96.7387  -45.4853 C   0  0  0  0  0  0  0  0  0  0  0  0
   89.4350   98.0649  -45.4624 C   0  0  0  0  0  0  0  0  0  0  0  0
   89.7328   98.7956  -44.3260 C   0  0  0  0  0  0  0  0  0  0  0  0
   90.3815   98.2252  -43.2506 C   0  0  0  0  0  0  0  0  0  0  0  0
   88.7383   98.6583  -46.6297 C   0  0  0  0  0  0  0  0  0  0  0  0
   91.5024   94.8945  -42.9104 C   0  0  0  0  0  0  0  0  0  0  0  0
   90.9388   94.9110  -44.1550 C   0  0  0  0  0  0  0  0  0  0  0  0
   90.9183   93.7585  -44.9465 C   0  0  0  0  0  0  0  0  0  0  0  0
   91.4675   92.5839  -44.4839 C   0  0  0  0  0  0  0  0  0  0  0  0
   92.0226   92.6012  -43.2364 C   0  0  0  0  0  0  0  0  0  0  0  0
   92.0511   93.7291  -42.4427 C   0  0  0  0  0  0  0  0  0  0  0  0
   91.8426   96.5670  -41.0700 C   0  0  0  0  0  0  0  0  0  0  0  0
   92.6198   91.3520  -42.7150 C   0  0  0  0  0  0  0  0  0  0  0  0
   92.5861   90.1071  -43.2749 C   0  0  0  0  0  0  0  0  0  0  0  0
   93.2028   89.1150  -42.6163 C   0  0  0  0  0  0  0  0  0  0  0  0
   93.8166   89.4277  -41.4365 C   0  0  0  0  0  0  0  0  0  0  0  0
   93.5157   91.0975  -41.2795 S   0  0  0  0  0  0  0  0  0  0  0  0
   90.8260   96.2694  -39.9973 C   0  0  0  0  0  0  0  0  0  0  0  0
   87.3296   98.9013  -46.3305 N   0  0  0  0  0  4  0  0  0  0  0  0
   86.7097   99.5243  -47.4922 C   0  0  0  0  0  0  0  0  0  0  0  0
  1  2  1  0
  1  9  1  0
  1 15  1  0
  2  3  2  0
  2  7  1  0
  3  4  1  0
  3 10  1  0
  4  5  2  0
  5  6  1  0
  5  8  1  0
  6  7  2  0
  8 22  1  0
  9 10  2  0
  9 14  1  0
 10 11  1  0
 11 12  2  0
 12 13  1  0
 13 14  2  0
 13 16  1  0
 15 21  1  0
 16 17  2  0
 16 20  1  0
 17 18  1  0
 18 19  2  0
 19 20  1  0
 22 23  1  0
M  CHG  1  22   1
M  END
$$$$
