
     RDKit          3D

 34 39  0  0  0  0  0  0  0  0999 V2000
   26.6349  -13.5219   13.5889 O   0  0  0  0  0  0  0  0  0  0  0  0
   25.5703  -12.9568   13.1896 C   0  0  0  0  0  0  0  0  0  0  0  0
   24.5958  -13.7086   12.5334 N   0  0  0  0  0  0  0  0  0  0  0  0
   24.8741  -14.6283   11.4347 C   0  0  0  0  0  0  0  0  0  0  0  0
   23.9147  -15.7884   11.5407 C   0  0  0  0  0  0  0  0  0  0  0  0
   23.7758  -16.8725   10.7221 N   0  0  0  0  0  0  0  0  0  0  0  0
   22.8146  -17.6385   11.1974 N   0  0  0  0  0  0  0  0  0  0  0  0
   22.3056  -17.1014   12.3083 C   0  0  0  0  0  0  0  0  0  0  0  0
   21.2106  -17.6061   13.2093 C   0  0  1  0  0  0  0  0  0  0  0  0
   19.8352  -17.3059   12.9333 C   0  0  0  0  0  0  0  0  0  0  0  0
   20.2536  -18.5721   12.6563 C   0  0  0  0  0  0  0  0  0  0  0  0
   23.0127  -15.9410   12.5021 N   0  0  0  0  0  0  0  0  0  0  0  0
   22.8892  -14.9654   13.5600 C   0  0  0  0  0  0  0  0  0  0  0  0
   23.1926  -13.5939   12.9912 C   0  0  0  0  0  0  0  0  0  0  0  0
   25.3598  -11.5245   13.4103 C   0  0  0  0  0  0  0  0  0  0  0  0
   26.2499  -10.6031   12.9015 C   0  0  0  0  0  0  0  0  0  0  0  0
   26.0919   -9.2468   13.0898 C   0  0  0  0  0  0  0  0  0  0  0  0
   24.2939  -11.0363   14.1244 C   0  0  0  0  0  0  0  0  0  0  0  0
   24.1318   -9.6561   14.3187 C   0  0  0  0  0  0  0  0  0  0  0  0
   25.0197   -8.7456   13.8084 C   0  0  0  0  0  0  0  0  0  0  0  0
   24.9198   -7.3210   14.0111 C   0  0  0  0  0  0  0  0  0  0  0  0
   25.6198   -6.3905   13.4002 C   0  0  0  0  0  0  0  0  0  0  0  0
   25.6802   -4.9579   13.6451 C   0  0  0  0  0  0  0  0  0  0  0  0
   25.0702   -4.2734   14.4964 O   0  0  0  0  0  0  0  0  0  0  0  0
   26.5087   -6.6045   12.3229 O   0  0  0  0  0  0  0  0  0  0  0  0
   27.0850   -5.4171   11.9193 C   0  0  0  0  0  0  0  0  0  0  0  0
   28.0147   -5.1128   10.9148 C   0  0  0  0  0  0  0  0  0  0  0  0
   28.5024   -6.2040   10.0889 C   0  0  0  0  0  0  0  0  0  0  0  0
   29.3409   -5.9492    9.1920 O   0  0  0  0  0  0  0  0  0  0  0  0
   28.0312   -7.5109   10.3034 N   0  0  0  0  0  0  0  0  0  0  0  0
   26.6308   -4.3707   12.6766 C   0  0  0  0  0  0  0  0  0  0  0  0
   27.0553   -3.0536   12.4814 C   0  0  0  0  0  0  0  0  0  0  0  0
   27.9696   -2.7522   11.4941 C   0  0  0  0  0  0  0  0  0  0  0  0
   28.4229   -3.8081   10.7356 C   0  0  0  0  0  0  0  0  0  0  0  0
  1  2  2  0
  2  3  1  0
  2 15  1  0
  3  4  1  0
  3 14  1  0
  4  5  1  0
  5  6  2  0
  5 12  1  0
  6  7  1  0
  7  8  2  0
  9  8  1  6
  8 12  1  0
  9 10  1  0
  9 11  1  0
 10 11  2  0
 12 13  1  0
 13 14  1  0
 15 16  2  0
 15 18  1  0
 16 17  1  0
 17 20  2  0
 18 19  2  0
 19 20  1  0
 20 21  1  0
 21 22  2  0
 22 23  1  0
 22 25  1  0
 23 24  2  0
 23 31  1  0
 25 26  1  0
 26 27  2  0
 26 31  1  0
 27 28  1  0
 27 34  1  0
 28 29  2  0
 28 30  1  0
 31 32  2  0
 32 33  1  0
 33 34  2  0
M  END
$$$$
