
     RDKit          3D

 34 39  0  0  0  0  0  0  0  0999 V2000
   25.8179  -13.8498    9.6853 O   0  0  0  0  0  0  0  0  0  0  0  0
   25.5383  -12.8734   10.4474 C   0  0  0  0  0  0  0  0  0  0  0  0
   24.7997  -13.0960   11.6094 N   0  0  0  0  0  0  0  0  0  0  0  0
   23.6308  -12.3133   11.9985 C   0  0  0  0  0  0  0  0  0  0  0  0
   22.6643  -13.2337   12.7031 C   0  0  0  0  0  0  0  0  0  0  0  0
   21.4552  -12.9473   13.2697 N   0  0  0  0  0  0  0  0  0  0  0  0
   20.9513  -14.0575   13.7698 N   0  0  0  0  0  0  0  0  0  0  0  0
   21.7847  -15.0779   13.5560 C   0  0  0  0  0  0  0  0  0  0  0  0
   21.6454  -16.5305   13.9250 C   0  0  1  0  0  0  0  0  0  0  0  0
   21.8945  -16.9750   15.2660 C   0  0  0  0  0  0  0  0  0  0  0  0
   20.5913  -16.9016   14.8768 C   0  0  0  0  0  0  0  0  0  0  0  0
   22.8520  -14.5347   12.8853 N   0  0  0  0  0  0  0  0  0  0  0  0
   24.0449  -15.1842   12.3940 C   0  0  0  0  0  0  0  0  0  0  0  0
   25.2024  -14.2115   12.4956 C   0  0  0  0  0  0  0  0  0  0  0  0
   25.9823  -11.5181   10.1145 C   0  0  0  0  0  0  0  0  0  0  0  0
   25.6543  -10.9566    8.8991 C   0  0  0  0  0  0  0  0  0  0  0  0
   26.0556   -9.6866    8.5440 C   0  0  0  0  0  0  0  0  0  0  0  0
   26.7363  -10.7567   10.9724 C   0  0  0  0  0  0  0  0  0  0  0  0
   27.1472   -9.4641   10.6125 C   0  0  0  0  0  0  0  0  0  0  0  0
   26.8159   -8.9114    9.4032 C   0  0  0  0  0  0  0  0  0  0  0  0
   27.2441   -7.6039    8.9699 C   0  0  0  0  0  0  0  0  0  0  0  0
   27.3345   -6.5220    9.7119 C   0  0  0  0  0  0  0  0  0  0  0  0
   28.0522   -5.2808    9.4665 C   0  0  0  0  0  0  0  0  0  0  0  0
   28.7606   -4.9556    8.4878 O   0  0  0  0  0  0  0  0  0  0  0  0
   26.7153   -6.3321   10.9677 O   0  0  0  0  0  0  0  0  0  0  0  0
   27.0097   -5.0829   11.4757 C   0  0  0  0  0  0  0  0  0  0  0  0
   26.6384   -4.4353   12.6625 C   0  0  0  0  0  0  0  0  0  0  0  0
   25.7915   -5.1601   13.5943 C   0  0  0  0  0  0  0  0  0  0  0  0
   25.3743   -4.5631   14.6151 O   0  0  0  0  0  0  0  0  0  0  0  0
   25.4593   -6.5025   13.3419 N   0  0  0  0  0  0  0  0  0  0  0  0
   27.8179   -4.3845   10.6190 C   0  0  0  0  0  0  0  0  0  0  0  0
   28.2661   -3.0884   10.8874 C   0  0  0  0  0  0  0  0  0  0  0  0
   27.9021   -2.4496   12.0541 C   0  0  0  0  0  0  0  0  0  0  0  0
   27.0894   -3.1565   12.9117 C   0  0  0  0  0  0  0  0  0  0  0  0
  1  2  2  0
  2  3  1  0
  2 15  1  0
  3  4  1  0
  3 14  1  0
  4  5  1  0
  5  6  2  0
  5 12  1  0
  6  7  1  0
  7  8  2  0
  9  8  1  1
  8 12  1  0
  9 10  1  0
  9 11  1  0
 10 11  2  0
 12 13  1  0
 13 14  1  0
 15 16  2  0
 15 18  1  0
 16 17  1  0
 17 20  2  0
 18 19  2  0
 19 20  1  0
 20 21  1  0
 21 22  2  0
 22 23  1  0
 22 25  1  0
 23 24  2  0
 23 31  1  0
 25 26  1  0
 26 27  2  0
 26 31  1  0
 27 28  1  0
 27 34  1  0
 28 29  2  0
 28 30  1  0
 31 32  2  0
 32 33  1  0
 33 34  2  0
M  END
$$$$
