
     RDKit          3D

 34 39  0  0  0  0  0  0  0  0999 V2000
   23.3598  -12.0944    9.1178 O   0  0  0  0  0  0  0  0  0  0  0  0
   24.4399  -12.1158    9.7849 C   0  0  0  0  0  0  0  0  0  0  0  0
   24.7067  -13.1934   10.6293 N   0  0  0  0  0  0  0  0  0  0  0  0
   25.7001  -13.1687   11.6984 C   0  0  0  0  0  0  0  0  0  0  0  0
   25.1858  -14.0177   12.8352 C   0  0  0  0  0  0  0  0  0  0  0  0
   25.7797  -14.3164   14.0281 N   0  0  0  0  0  0  0  0  0  0  0  0
   24.9673  -15.0887   14.7210 N   0  0  0  0  0  0  0  0  0  0  0  0
   23.8484  -15.3164   14.0298 C   0  0  0  0  0  0  0  0  0  0  0  0
   22.6310  -16.1192   14.4027 C   0  0  1  0  0  0  0  0  0  0  0  0
   22.5648  -17.5251   14.1252 C   0  0  0  0  0  0  0  0  0  0  0  0
   22.7811  -17.1657   15.4210 C   0  0  0  0  0  0  0  0  0  0  0  0
   24.0104  -14.6337   12.8501 N   0  0  0  0  0  0  0  0  0  0  0  0
   23.1044  -14.5218   11.7309 C   0  0  0  0  0  0  0  0  0  0  0  0
   23.9186  -14.4346   10.4558 C   0  0  0  0  0  0  0  0  0  0  0  0
   25.4040  -11.0188    9.6764 C   0  0  0  0  0  0  0  0  0  0  0  0
   25.2441   -9.8742   10.4277 C   0  0  0  0  0  0  0  0  0  0  0  0
   26.1250   -8.8167   10.3525 C   0  0  0  0  0  0  0  0  0  0  0  0
   26.4880  -11.0690    8.8357 C   0  0  0  0  0  0  0  0  0  0  0  0
   27.3853   -9.9931    8.7564 C   0  0  0  0  0  0  0  0  0  0  0  0
   27.2212   -8.8588    9.5076 C   0  0  0  0  0  0  0  0  0  0  0  0
   28.0920   -7.7112    9.4358 C   0  0  0  0  0  0  0  0  0  0  0  0
   27.9691   -6.5895   10.1109 C   0  0  0  0  0  0  0  0  0  0  0  0
   28.7648   -5.3733   10.0506 C   0  0  0  0  0  0  0  0  0  0  0  0
   29.7622   -5.1137    9.3413 O   0  0  0  0  0  0  0  0  0  0  0  0
   26.9816   -6.3200   11.0849 O   0  0  0  0  0  0  0  0  0  0  0  0
   27.1325   -5.0473   11.5973 C   0  0  0  0  0  0  0  0  0  0  0  0
   26.4155   -4.3279   12.5638 C   0  0  0  0  0  0  0  0  0  0  0  0
   25.2903   -4.9874   13.2039 C   0  0  0  0  0  0  0  0  0  0  0  0
   24.6268   -4.3502   14.0561 O   0  0  0  0  0  0  0  0  0  0  0  0
   24.9686   -6.3131   12.8645 N   0  0  0  0  0  0  0  0  0  0  0  0
   28.1959   -4.4093   11.0168 C   0  0  0  0  0  0  0  0  0  0  0  0
   28.5716   -3.1054   11.3508 C   0  0  0  0  0  0  0  0  0  0  0  0
   27.8677   -2.3961   12.3011 C   0  0  0  0  0  0  0  0  0  0  0  0
   26.7995   -3.0424   12.8814 C   0  0  0  0  0  0  0  0  0  0  0  0
  1  2  2  0
  2  3  1  0
  2 15  1  0
  3  4  1  0
  3 14  1  0
  4  5  1  0
  5  6  2  0
  5 12  1  0
  6  7  1  0
  7  8  2  0
  9  8  1  6
  8 12  1  0
  9 10  1  0
  9 11  1  0
 10 11  2  0
 12 13  1  0
 13 14  1  0
 15 16  2  0
 15 18  1  0
 16 17  1  0
 17 20  2  0
 18 19  2  0
 19 20  1  0
 20 21  1  0
 21 22  2  0
 22 23  1  0
 22 25  1  0
 23 24  2  0
 23 31  1  0
 25 26  1  0
 26 27  2  0
 26 31  1  0
 27 28  1  0
 27 34  1  0
 28 29  2  0
 28 30  1  0
 31 32  2  0
 32 33  1  0
 33 34  2  0
M  END
$$$$
