
     RDKit          3D

 34 39  0  0  0  0  0  0  0  0999 V2000
   23.8490  -12.5198   14.8344 O   0  0  0  0  0  0  0  0  0  0  0  0
   24.4382  -12.6227   13.7144 C   0  0  0  0  0  0  0  0  0  0  0  0
   24.1688  -13.7167   12.8922 N   0  0  0  0  0  0  0  0  0  0  0  0
   25.1963  -14.5253   12.2436 C   0  0  0  0  0  0  0  0  0  0  0  0
   24.7048  -15.9511   12.1885 C   0  0  0  0  0  0  0  0  0  0  0  0
   25.3049  -17.0519   11.6473 N   0  0  0  0  0  0  0  0  0  0  0  0
   24.5181  -18.0930   11.8302 N   0  0  0  0  0  0  0  0  0  0  0  0
   23.4102  -17.7240   12.4768 C   0  0  0  0  0  0  0  0  0  0  0  0
   22.2326  -18.5497   12.9211 C   0  0  1  0  0  0  0  0  0  0  0  0
   21.3008  -19.0744   11.9649 C   0  0  0  0  0  0  0  0  0  0  0  0
   22.1835  -19.9577   12.5088 C   0  0  0  0  0  0  0  0  0  0  0  0
   23.5516  -16.3755   12.6898 N   0  0  0  0  0  0  0  0  0  0  0  0
   22.6545  -15.4597   13.3552 C   0  0  0  0  0  0  0  0  0  0  0  0
   22.7563  -14.1065   12.6808 C   0  0  0  0  0  0  0  0  0  0  0  0
   25.3980  -11.6047   13.2817 C   0  0  0  0  0  0  0  0  0  0  0  0
   24.9665  -10.4823   12.6077 C   0  0  0  0  0  0  0  0  0  0  0  0
   25.8364   -9.5028   12.1789 C   0  0  0  0  0  0  0  0  0  0  0  0
   26.7465  -11.7156   13.5134 C   0  0  0  0  0  0  0  0  0  0  0  0
   27.6341  -10.7204   13.0765 C   0  0  0  0  0  0  0  0  0  0  0  0
   27.1979   -9.6062   12.4085 C   0  0  0  0  0  0  0  0  0  0  0  0
   28.0713   -8.5742   11.9057 C   0  0  0  0  0  0  0  0  0  0  0  0
   27.8298   -7.2818   11.8883 C   0  0  0  0  0  0  0  0  0  0  0  0
   28.7403   -6.1661   11.6824 C   0  0  0  0  0  0  0  0  0  0  0  0
   29.9748   -6.1783   11.4792 O   0  0  0  0  0  0  0  0  0  0  0  0
   26.5653   -6.6789   12.0727 O   0  0  0  0  0  0  0  0  0  0  0  0
   26.6604   -5.3044   11.9899 C   0  0  0  0  0  0  0  0  0  0  0  0
   25.7050   -4.2840   12.0986 C   0  0  0  0  0  0  0  0  0  0  0  0
   24.3290   -4.6686   12.3620 C   0  0  0  0  0  0  0  0  0  0  0  0
   23.4420   -3.7827   12.3313 O   0  0  0  0  0  0  0  0  0  0  0  0
   24.0175   -6.0096   12.6460 N   0  0  0  0  0  0  0  0  0  0  0  0
   27.9522   -4.9169   11.7535 C   0  0  0  0  0  0  0  0  0  0  0  0
   28.3297   -3.5779   11.6222 C   0  0  0  0  0  0  0  0  0  0  0  0
   27.3916   -2.5727   11.7289 C   0  0  0  0  0  0  0  0  0  0  0  0
   26.0944   -2.9680   11.9665 C   0  0  0  0  0  0  0  0  0  0  0  0
  1  2  2  0
  2  3  1  0
  2 15  1  0
  3  4  1  0
  3 14  1  0
  4  5  1  0
  5  6  2  0
  5 12  1  0
  6  7  1  0
  7  8  2  0
  9  8  1  6
  8 12  1  0
  9 10  1  0
  9 11  1  0
 10 11  2  0
 12 13  1  0
 13 14  1  0
 15 16  2  0
 15 18  1  0
 16 17  1  0
 17 20  2  0
 18 19  2  0
 19 20  1  0
 20 21  1  0
 21 22  2  0
 22 23  1  0
 22 25  1  0
 23 24  2  0
 23 31  1  0
 25 26  1  0
 26 27  2  0
 26 31  1  0
 27 28  1  0
 27 34  1  0
 28 29  2  0
 28 30  1  0
 31 32  2  0
 32 33  1  0
 33 34  2  0
M  END
$$$$
