
     RDKit          3D

 34 39  0  0  0  0  0  0  0  0999 V2000
   26.2285  -13.5587   13.8272 O   0  0  0  0  0  0  0  0  0  0  0  0
   25.2411  -13.0059   13.2512 C   0  0  0  0  0  0  0  0  0  0  0  0
   24.3152  -13.7920   12.5654 N   0  0  0  0  0  0  0  0  0  0  0  0
   23.8813  -13.5373   11.1953 C   0  0  0  0  0  0  0  0  0  0  0  0
   23.6271  -14.8677   10.5297 C   0  0  0  0  0  0  0  0  0  0  0  0
   23.1790  -15.1306    9.2668 N   0  0  0  0  0  0  0  0  0  0  0  0
   23.1086  -16.4369    9.1086 N   0  0  0  0  0  0  0  0  0  0  0  0
   23.4953  -17.0569   10.2256 C   0  0  0  0  0  0  0  0  0  0  0  0
   23.5987  -18.5283   10.5256 C   0  0  1  0  0  0  0  0  0  0  0  0
   22.5427  -19.4283   10.1610 C   0  0  0  0  0  0  0  0  0  0  0  0
   23.6670  -19.4593    9.3928 C   0  0  0  0  0  0  0  0  0  0  0  0
   23.8153  -16.0502   11.1021 N   0  0  0  0  0  0  0  0  0  0  0  0
   24.3027  -16.1444   12.4584 C   0  0  0  0  0  0  0  0  0  0  0  0
   23.7529  -14.9767   13.2525 C   0  0  0  0  0  0  0  0  0  0  0  0
   25.0693  -11.5523   13.2994 C   0  0  0  0  0  0  0  0  0  0  0  0
   23.8239  -11.0052   13.5222 C   0  0  0  0  0  0  0  0  0  0  0  0
   23.6175   -9.6431   13.5704 C   0  0  0  0  0  0  0  0  0  0  0  0
   26.1138  -10.6792   13.1227 C   0  0  0  0  0  0  0  0  0  0  0  0
   25.9058   -9.2924   13.1699 C   0  0  0  0  0  0  0  0  0  0  0  0
   24.6651   -8.7552   13.3936 C   0  0  0  0  0  0  0  0  0  0  0  0
   24.3913   -7.3392   13.4139 C   0  0  0  0  0  0  0  0  0  0  0  0
   25.1522   -6.3858   12.9230 C   0  0  0  0  0  0  0  0  0  0  0  0
   25.2586   -4.9869   13.3077 C   0  0  0  0  0  0  0  0  0  0  0  0
   24.6408   -4.3611   14.1977 O   0  0  0  0  0  0  0  0  0  0  0  0
   26.0763   -6.5342   11.8644 O   0  0  0  0  0  0  0  0  0  0  0  0
   26.7151   -5.3397   11.5998 C   0  0  0  0  0  0  0  0  0  0  0  0
   27.6972   -4.9814   10.6655 C   0  0  0  0  0  0  0  0  0  0  0  0
   28.1757   -6.0089    9.7567 C   0  0  0  0  0  0  0  0  0  0  0  0
   29.0051   -5.6888    8.8723 O   0  0  0  0  0  0  0  0  0  0  0  0
   27.7059   -7.3281    9.8795 N   0  0  0  0  0  0  0  0  0  0  0  0
   26.2711   -4.3516   12.4374 C   0  0  0  0  0  0  0  0  0  0  0  0
   26.7547   -3.0415   12.3870 C   0  0  0  0  0  0  0  0  0  0  0  0
   27.7206   -2.6870   11.4687 C   0  0  0  0  0  0  0  0  0  0  0  0
   28.1634   -3.6844   10.6292 C   0  0  0  0  0  0  0  0  0  0  0  0
  1  2  2  0
  2  3  1  0
  2 15  1  0
  3  4  1  0
  3 14  1  0
  4  5  1  0
  5  6  2  0
  5 12  1  0
  6  7  1  0
  7  8  2  0
  9  8  1  6
  8 12  1  0
  9 10  1  0
  9 11  1  0
 10 11  2  0
 12 13  1  0
 13 14  1  0
 15 16  2  0
 15 18  1  0
 16 17  1  0
 17 20  2  0
 18 19  2  0
 19 20  1  0
 20 21  1  0
 21 22  2  0
 22 23  1  0
 22 25  1  0
 23 24  2  0
 23 31  1  0
 25 26  1  0
 26 27  2  0
 26 31  1  0
 27 28  1  0
 27 34  1  0
 28 29  2  0
 28 30  1  0
 31 32  2  0
 32 33  1  0
 33 34  2  0
M  END
$$$$
