
     RDKit          3D

 34 39  0  0  0  0  0  0  0  0999 V2000
   23.4186  -12.8244    9.3037 O   0  0  0  0  0  0  0  0  0  0  0  0
   24.1043  -12.3143   10.2428 C   0  0  0  0  0  0  0  0  0  0  0  0
   24.0292  -12.8586   11.5248 N   0  0  0  0  0  0  0  0  0  0  0  0
   22.9705  -12.5542   12.4822 C   0  0  0  0  0  0  0  0  0  0  0  0
   22.7013  -13.7978   13.2937 C   0  0  0  0  0  0  0  0  0  0  0  0
   21.8240  -13.9847   14.3234 N   0  0  0  0  0  0  0  0  0  0  0  0
   21.9182  -15.2328   14.7354 N   0  0  0  0  0  0  0  0  0  0  0  0
   22.8308  -15.8874   14.0141 C   0  0  0  0  0  0  0  0  0  0  0  0
   23.2788  -17.3220   14.0983 C   0  0  1  0  0  0  0  0  0  0  0  0
   22.4682  -18.3075   14.7536 C   0  0  0  0  0  0  0  0  0  0  0  0
   22.4846  -18.3344   13.3919 C   0  0  0  0  0  0  0  0  0  0  0  0
   23.3076  -14.9649   13.1166 N   0  0  0  0  0  0  0  0  0  0  0  0
   24.3057  -15.1291   12.0855 C   0  0  0  0  0  0  0  0  0  0  0  0
   25.0687  -13.8280   11.9390 C   0  0  0  0  0  0  0  0  0  0  0  0
   24.9693  -11.1597    9.9907 C   0  0  0  0  0  0  0  0  0  0  0  0
   25.6806  -11.0660    8.8137 C   0  0  0  0  0  0  0  0  0  0  0  0
   26.5092   -9.9994    8.5386 C   0  0  0  0  0  0  0  0  0  0  0  0
   25.1187  -10.1378   10.8950 C   0  0  0  0  0  0  0  0  0  0  0  0
   25.9628   -9.0517   10.6178 C   0  0  0  0  0  0  0  0  0  0  0  0
   26.6656   -8.9641    9.4447 C   0  0  0  0  0  0  0  0  0  0  0  0
   27.5743   -7.8898    9.1274 C   0  0  0  0  0  0  0  0  0  0  0  0
   27.7358   -6.7734    9.8032 C   0  0  0  0  0  0  0  0  0  0  0  0
   28.7172   -5.7135    9.6314 C   0  0  0  0  0  0  0  0  0  0  0  0
   29.6461   -5.6216    8.7983 O   0  0  0  0  0  0  0  0  0  0  0  0
   26.9425   -6.3497   10.8929 O   0  0  0  0  0  0  0  0  0  0  0  0
   27.3771   -5.1300   11.3710 C   0  0  0  0  0  0  0  0  0  0  0  0
   26.9254   -4.3103   12.4150 C   0  0  0  0  0  0  0  0  0  0  0  0
   25.7931   -4.7728   13.1991 C   0  0  0  0  0  0  0  0  0  0  0  0
   25.3120   -4.0071   14.0679 O   0  0  0  0  0  0  0  0  0  0  0  0
   25.2630   -6.0556   12.9767 N   0  0  0  0  0  0  0  0  0  0  0  0
   28.4528   -4.6788   10.6541 C   0  0  0  0  0  0  0  0  0  0  0  0
   29.0895   -3.4649   10.9262 C   0  0  0  0  0  0  0  0  0  0  0  0
   28.6469   -2.6573   11.9525 C   0  0  0  0  0  0  0  0  0  0  0  0
   27.5650   -3.1158   12.6700 C   0  0  0  0  0  0  0  0  0  0  0  0
  1  2  2  0
  2  3  1  0
  2 15  1  0
  3  4  1  0
  3 14  1  0
  4  5  1  0
  5  6  2  0
  5 12  1  0
  6  7  1  0
  7  8  2  0
  9  8  1  6
  8 12  1  0
  9 10  1  0
  9 11  1  0
 10 11  2  0
 12 13  1  0
 13 14  1  0
 15 16  2  0
 15 18  1  0
 16 17  1  0
 17 20  2  0
 18 19  2  0
 19 20  1  0
 20 21  1  0
 21 22  2  0
 22 23  1  0
 22 25  1  0
 23 24  2  0
 23 31  1  0
 25 26  1  0
 26 27  2  0
 26 31  1  0
 27 28  1  0
 27 34  1  0
 28 29  2  0
 28 30  1  0
 31 32  2  0
 32 33  1  0
 33 34  2  0
M  END
$$$$
