
     RDKit          3D

 34 39  0  0  0  0  0  0  0  0999 V2000
   25.8988  -13.5935   13.6307 O   0  0  0  0  0  0  0  0  0  0  0  0
   24.9419  -12.8556   13.2404 C   0  0  0  0  0  0  0  0  0  0  0  0
   23.8406  -13.4326   12.6083 N   0  0  0  0  0  0  0  0  0  0  0  0
   22.6654  -12.6865   12.1695 C   0  0  0  0  0  0  0  0  0  0  0  0
   22.1496  -13.3271   10.9042 C   0  0  0  0  0  0  0  0  0  0  0  0
   21.0584  -12.9983   10.1518 N   0  0  0  0  0  0  0  0  0  0  0  0
   20.9890  -13.8243    9.1275 N   0  0  0  0  0  0  0  0  0  0  0  0
   21.9992  -14.6957    9.1703 C   0  0  0  0  0  0  0  0  0  0  0  0
   22.3508  -15.8118    8.2235 C   0  0  1  0  0  0  0  0  0  0  0  0
   23.4589  -16.6821    8.4930 C   0  0  0  0  0  0  0  0  0  0  0  0
   22.2137  -17.1920    8.7041 C   0  0  0  0  0  0  0  0  0  0  0  0
   22.7126  -14.3627   10.2946 N   0  0  0  0  0  0  0  0  0  0  0  0
   23.9128  -14.9674   10.8238 C   0  0  0  0  0  0  0  0  0  0  0  0
   23.8685  -14.8876   12.3364 C   0  0  0  0  0  0  0  0  0  0  0  0
   24.9875  -11.4064   13.4464 C   0  0  0  0  0  0  0  0  0  0  0  0
   25.5213  -10.5819   12.4793 C   0  0  0  0  0  0  0  0  0  0  0  0
   25.5877   -9.2139   12.6348 C   0  0  0  0  0  0  0  0  0  0  0  0
   24.5183  -10.8081   14.5893 C   0  0  0  0  0  0  0  0  0  0  0  0
   24.5862   -9.4158   14.7505 C   0  0  0  0  0  0  0  0  0  0  0  0
   25.1166   -8.6019   13.7840 C   0  0  0  0  0  0  0  0  0  0  0  0
   25.2443   -7.1712   13.9158 C   0  0  0  0  0  0  0  0  0  0  0  0
   25.9043   -6.3651   13.1134 C   0  0  0  0  0  0  0  0  0  0  0  0
   26.2742   -4.9697   13.2919 C   0  0  0  0  0  0  0  0  0  0  0  0
   26.0423   -4.2057   14.2552 O   0  0  0  0  0  0  0  0  0  0  0  0
   26.4211   -6.7101   11.8444 O   0  0  0  0  0  0  0  0  0  0  0  0
   27.0638   -5.6334   11.2673 C   0  0  0  0  0  0  0  0  0  0  0  0
   27.7280   -5.4765   10.0426 C   0  0  0  0  0  0  0  0  0  0  0  0
   27.7808   -6.6201    9.1482 C   0  0  0  0  0  0  0  0  0  0  0  0
   28.3249   -6.4805    8.0270 O   0  0  0  0  0  0  0  0  0  0  0  0
   27.2260   -7.8487    9.5470 N   0  0  0  0  0  0  0  0  0  0  0  0
   27.0167   -4.5385   12.0881 C   0  0  0  0  0  0  0  0  0  0  0  0
   27.5937   -3.3118   11.7487 C   0  0  0  0  0  0  0  0  0  0  0  0
   28.2474   -3.1552   10.5446 C   0  0  0  0  0  0  0  0  0  0  0  0
   28.2917   -4.2594    9.7234 C   0  0  0  0  0  0  0  0  0  0  0  0
  1  2  2  0
  2  3  1  0
  2 15  1  0
  3  4  1  0
  3 14  1  0
  4  5  1  0
  5  6  2  0
  5 12  1  0
  6  7  1  0
  7  8  2  0
  9  8  1  1
  8 12  1  0
  9 10  1  0
  9 11  1  0
 10 11  2  0
 12 13  1  0
 13 14  1  0
 15 16  2  0
 15 18  1  0
 16 17  1  0
 17 20  2  0
 18 19  2  0
 19 20  1  0
 20 21  1  0
 21 22  2  0
 22 23  1  0
 22 25  1  0
 23 24  2  0
 23 31  1  0
 25 26  1  0
 26 27  2  0
 26 31  1  0
 27 28  1  0
 27 34  1  0
 28 29  2  0
 28 30  1  0
 31 32  2  0
 32 33  1  0
 33 34  2  0
M  END
$$$$
