
     RDKit          3D

 34 39  0  0  0  0  0  0  0  0999 V2000
   21.9236   -7.2080   11.9652 O   0  0  0  0  0  0  0  0  0  0  0  0
   23.1742   -7.3703   12.1126 C   0  0  0  0  0  0  0  0  0  0  0  0
   24.0248   -6.2669   12.0452 N   0  0  0  0  0  0  0  0  0  0  0  0
   24.6269   -5.6255   13.2099 C   0  0  0  0  0  0  0  0  0  0  0  0
   25.9973   -5.1313   12.8161 C   0  0  0  0  0  0  0  0  0  0  0  0
   26.9149   -4.4450   13.5589 N   0  0  0  0  0  0  0  0  0  0  0  0
   27.9784   -4.2222   12.8133 N   0  0  0  0  0  0  0  0  0  0  0  0
   27.8017   -4.7377   11.5948 C   0  0  0  0  0  0  0  0  0  0  0  0
   28.7289   -4.7499   10.4092 C   0  0  1  0  0  0  0  0  0  0  0  0
   29.7175   -3.7243   10.2391 C   0  0  0  0  0  0  0  0  0  0  0  0
   30.1629   -4.9414   10.6578 C   0  0  0  0  0  0  0  0  0  0  0  0
   26.5509   -5.3023   11.6222 N   0  0  0  0  0  0  0  0  0  0  0  0
   25.8478   -6.0091   10.5770 C   0  0  0  0  0  0  0  0  0  0  0  0
   24.3659   -5.7226   10.7113 C   0  0  0  0  0  0  0  0  0  0  0  0
   23.7290   -8.7047   12.3498 C   0  0  0  0  0  0  0  0  0  0  0  0
   25.0683   -8.9503   12.1356 C   0  0  0  0  0  0  0  0  0  0  0  0
   25.6300  -10.1922   12.3419 C   0  0  0  0  0  0  0  0  0  0  0  0
   22.9609   -9.7576   12.7811 C   0  0  0  0  0  0  0  0  0  0  0  0
   23.5301  -11.0229   12.9903 C   0  0  0  0  0  0  0  0  0  0  0  0
   24.8630  -11.2596   12.7771 C   0  0  0  0  0  0  0  0  0  0  0  0
   25.4892  -12.5487   12.9405 C   0  0  0  0  0  0  0  0  0  0  0  0
   24.8838  -13.6893   13.1884 C   0  0  0  0  0  0  0  0  0  0  0  0
   25.4404  -15.0226   13.3574 C   0  0  0  0  0  0  0  0  0  0  0  0
   26.6330  -15.3963   13.2989 O   0  0  0  0  0  0  0  0  0  0  0  0
   23.4912  -13.8621   13.3543 O   0  0  0  0  0  0  0  0  0  0  0  0
   23.1879  -15.1846   13.6079 C   0  0  0  0  0  0  0  0  0  0  0  0
   21.9741  -15.8462   13.8421 C   0  0  0  0  0  0  0  0  0  0  0  0
   20.7550  -15.0564   13.8157 C   0  0  0  0  0  0  0  0  0  0  0  0
   19.6560  -15.6444   13.9537 O   0  0  0  0  0  0  0  0  0  0  0  0
   20.8250  -13.6640   13.6357 N   0  0  0  0  0  0  0  0  0  0  0  0
   24.3219  -15.9517   13.6258 C   0  0  0  0  0  0  0  0  0  0  0  0
   24.3015  -17.3287   13.8635 C   0  0  0  0  0  0  0  0  0  0  0  0
   23.1088  -17.9814   14.0940 C   0  0  0  0  0  0  0  0  0  0  0  0
   21.9718  -17.2051   14.0749 C   0  0  0  0  0  0  0  0  0  0  0  0
  1  2  2  0
  2  3  1  0
  2 15  1  0
  3  4  1  0
  3 14  1  0
  4  5  1  0
  5  6  2  0
  5 12  1  0
  6  7  1  0
  7  8  2  0
  9  8  1  1
  8 12  1  0
  9 10  1  0
  9 11  1  0
 10 11  2  0
 12 13  1  0
 13 14  1  0
 15 16  2  0
 15 18  1  0
 16 17  1  0
 17 20  2  0
 18 19  2  0
 19 20  1  0
 20 21  1  0
 21 22  2  0
 22 23  1  0
 22 25  1  0
 23 24  2  0
 23 31  1  0
 25 26  1  0
 26 27  2  0
 26 31  1  0
 27 28  1  0
 27 34  1  0
 28 29  2  0
 28 30  1  0
 31 32  2  0
 32 33  1  0
 33 34  2  0
M  END
$$$$
