
     RDKit          3D

 34 39  0  0  0  0  0  0  0  0999 V2000
   26.8369  -10.1225    5.4656 O   0  0  0  0  0  0  0  0  0  0  0  0
   26.4518  -10.6680    6.5457 C   0  0  0  0  0  0  0  0  0  0  0  0
   25.5720  -11.7491    6.4958 N   0  0  0  0  0  0  0  0  0  0  0  0
   24.8794  -12.2946    7.6591 C   0  0  0  0  0  0  0  0  0  0  0  0
   23.5204  -12.7752    7.2122 C   0  0  0  0  0  0  0  0  0  0  0  0
   22.5375  -13.3847    7.9383 N   0  0  0  0  0  0  0  0  0  0  0  0
   21.5150  -13.6264    7.1429 N   0  0  0  0  0  0  0  0  0  0  0  0
   21.7824  -13.1980    5.9073 C   0  0  0  0  0  0  0  0  0  0  0  0
   20.9303  -13.2384    4.6671 C   0  0  1  0  0  0  0  0  0  0  0  0
   19.7819  -14.0949    4.5924 C   0  0  0  0  0  0  0  0  0  0  0  0
   19.5444  -12.7653    4.7676 C   0  0  0  0  0  0  0  0  0  0  0  0
   23.0467  -12.6683    5.9771 N   0  0  0  0  0  0  0  0  0  0  0  0
   23.8348  -12.0523    4.9351 C   0  0  0  0  0  0  0  0  0  0  0  0
   25.2958  -12.3708    5.1809 C   0  0  0  0  0  0  0  0  0  0  0  0
   26.9217  -10.1698    7.8401 C   0  0  0  0  0  0  0  0  0  0  0  0
   27.9216  -10.8317    8.5199 C   0  0  0  0  0  0  0  0  0  0  0  0
   28.3898  -10.3996    9.7423 C   0  0  0  0  0  0  0  0  0  0  0  0
   26.3986   -9.0478    8.4334 C   0  0  0  0  0  0  0  0  0  0  0  0
   26.8725   -8.6069    9.6784 C   0  0  0  0  0  0  0  0  0  0  0  0
   27.8682   -9.2689   10.3479 C   0  0  0  0  0  0  0  0  0  0  0  0
   28.3643   -8.8798   11.6452 C   0  0  0  0  0  0  0  0  0  0  0  0
   28.0184   -7.8115   12.3294 C   0  0  0  0  0  0  0  0  0  0  0  0
   28.7472   -7.0881   13.3597 C   0  0  0  0  0  0  0  0  0  0  0  0
   29.8781   -7.3210   13.8416 O   0  0  0  0  0  0  0  0  0  0  0  0
   26.8016   -7.1062   12.1935 O   0  0  0  0  0  0  0  0  0  0  0  0
   26.7593   -6.0301   13.0568 C   0  0  0  0  0  0  0  0  0  0  0  0
   25.7884   -5.0462   13.2917 C   0  0  0  0  0  0  0  0  0  0  0  0
   24.5557   -5.1133   12.5259 C   0  0  0  0  0  0  0  0  0  0  0  0
   23.6719   -4.2485   12.7343 O   0  0  0  0  0  0  0  0  0  0  0  0
   24.3739   -6.1348   11.5774 N   0  0  0  0  0  0  0  0  0  0  0  0
   27.9074   -5.9531   13.7990 C   0  0  0  0  0  0  0  0  0  0  0  0
   28.1288   -4.9542   14.7508 C   0  0  0  0  0  0  0  0  0  0  0  0
   27.1752   -3.9856   14.9834 C   0  0  0  0  0  0  0  0  0  0  0  0
   26.0229   -4.0678   14.2343 C   0  0  0  0  0  0  0  0  0  0  0  0
  1  2  2  0
  2  3  1  0
  2 15  1  0
  3  4  1  0
  3 14  1  0
  4  5  1  0
  5  6  2  0
  5 12  1  0
  6  7  1  0
  7  8  2  0
  9  8  1  1
  8 12  1  0
  9 10  1  0
  9 11  1  0
 10 11  2  0
 12 13  1  0
 13 14  1  0
 15 16  2  0
 15 18  1  0
 16 17  1  0
 17 20  2  0
 18 19  2  0
 19 20  1  0
 20 21  1  0
 21 22  2  0
 22 23  1  0
 22 25  1  0
 23 24  2  0
 23 31  1  0
 25 26  1  0
 26 27  2  0
 26 31  1  0
 27 28  1  0
 27 34  1  0
 28 29  2  0
 28 30  1  0
 31 32  2  0
 32 33  1  0
 33 34  2  0
M  END
$$$$
