
     RDKit          3D

 34 39  0  0  0  0  0  0  0  0999 V2000
   22.9778  -12.6020   10.4279 O   0  0  0  0  0  0  0  0  0  0  0  0
   23.9519  -12.2634    9.6872 C   0  0  0  0  0  0  0  0  0  0  0  0
   23.9681  -12.6551    8.3486 N   0  0  0  0  0  0  0  0  0  0  0  0
   25.1334  -13.2205    7.6756 C   0  0  0  0  0  0  0  0  0  0  0  0
   24.6467  -14.2331    6.6680 C   0  0  0  0  0  0  0  0  0  0  0  0
   25.3651  -14.9893    5.7866 N   0  0  0  0  0  0  0  0  0  0  0  0
   24.5299  -15.7427    5.1001 N   0  0  0  0  0  0  0  0  0  0  0  0
   23.2751  -15.5147    5.4939 C   0  0  0  0  0  0  0  0  0  0  0  0
   21.9880  -16.1358    5.0212 C   0  0  1  0  0  0  0  0  0  0  0  0
   20.7210  -15.5924    5.4179 C   0  0  0  0  0  0  0  0  0  0  0  0
   21.1225  -15.3419    4.1407 C   0  0  0  0  0  0  0  0  0  0  0  0
   23.3754  -14.5634    6.4783 N   0  0  0  0  0  0  0  0  0  0  0  0
   22.3288  -13.9513    7.2632 C   0  0  0  0  0  0  0  0  0  0  0  0
   22.7221  -12.5185    7.5609 C   0  0  0  0  0  0  0  0  0  0  0  0
   25.0570  -11.4687   10.2274 C   0  0  0  0  0  0  0  0  0  0  0  0
   25.0105  -10.0917   10.1851 C   0  0  0  0  0  0  0  0  0  0  0  0
   26.0306   -9.3064   10.6778 C   0  0  0  0  0  0  0  0  0  0  0  0
   26.1737  -12.0402   10.7850 C   0  0  0  0  0  0  0  0  0  0  0  0
   27.2141  -11.2428   11.2858 C   0  0  0  0  0  0  0  0  0  0  0  0
   27.1604   -9.8742   11.2421 C   0  0  0  0  0  0  0  0  0  0  0  0
   28.2176   -9.0105   11.7079 C   0  0  0  0  0  0  0  0  0  0  0  0
   28.1475   -7.7093   11.8840 C   0  0  0  0  0  0  0  0  0  0  0  0
   29.2086   -6.7148   11.9182 C   0  0  0  0  0  0  0  0  0  0  0  0
   30.4438   -6.8699   11.7936 O   0  0  0  0  0  0  0  0  0  0  0  0
   26.9605   -6.9693   12.0835 O   0  0  0  0  0  0  0  0  0  0  0  0
   27.2391   -5.6253   12.2295 C   0  0  0  0  0  0  0  0  0  0  0  0
   26.4178   -4.5089   12.4412 C   0  0  0  0  0  0  0  0  0  0  0  0
   24.9864   -4.7311   12.5523 C   0  0  0  0  0  0  0  0  0  0  0  0
   24.2429   -3.7486   12.7858 O   0  0  0  0  0  0  0  0  0  0  0  0
   24.4640   -6.0274   12.4009 N   0  0  0  0  0  0  0  0  0  0  0  0
   28.5854   -5.3924   12.1403 C   0  0  0  0  0  0  0  0  0  0  0  0
   29.1425   -4.1156   12.2505 C   0  0  0  0  0  0  0  0  0  0  0  0
   28.3365   -3.0161   12.4588 C   0  0  0  0  0  0  0  0  0  0  0  0
   26.9837   -3.2561   12.5477 C   0  0  0  0  0  0  0  0  0  0  0  0
  1  2  2  0
  2  3  1  0
  2 15  1  0
  3  4  1  0
  3 14  1  0
  4  5  1  0
  5  6  2  0
  5 12  1  0
  6  7  1  0
  7  8  2  0
  9  8  1  1
  8 12  1  0
  9 10  1  0
  9 11  1  0
 10 11  2  0
 12 13  1  0
 13 14  1  0
 15 16  2  0
 15 18  1  0
 16 17  1  0
 17 20  2  0
 18 19  2  0
 19 20  1  0
 20 21  1  0
 21 22  2  0
 22 23  1  0
 22 25  1  0
 23 24  2  0
 23 31  1  0
 25 26  1  0
 26 27  2  0
 26 31  1  0
 27 28  1  0
 27 34  1  0
 28 29  2  0
 28 30  1  0
 31 32  2  0
 32 33  1  0
 33 34  2  0
M  END
$$$$
