
     RDKit          3D

 34 39  0  0  0  0  0  0  0  0999 V2000
   27.2820   -9.5067    7.6172 O   0  0  0  0  0  0  0  0  0  0  0  0
   26.8036   -8.6040    8.3713 C   0  0  0  0  0  0  0  0  0  0  0  0
   27.0944   -7.2647    8.1124 N   0  0  0  0  0  0  0  0  0  0  0  0
   28.4466   -6.7203    8.0393 C   0  0  0  0  0  0  0  0  0  0  0  0
   28.4552   -5.6257    7.0004 C   0  0  0  0  0  0  0  0  0  0  0  0
   29.4808   -4.8131    6.6096 N   0  0  0  0  0  0  0  0  0  0  0  0
   29.0408   -4.0033    5.6678 N   0  0  0  0  0  0  0  0  0  0  0  0
   27.7531   -4.2480    5.4157 C   0  0  0  0  0  0  0  0  0  0  0  0
   26.8242   -3.5994    4.4245 C   0  0  1  0  0  0  0  0  0  0  0  0
   27.3163   -3.1062    3.1705 C   0  0  0  0  0  0  0  0  0  0  0  0
   26.6123   -4.2717    3.1369 C   0  0  0  0  0  0  0  0  0  0  0  0
   27.4093   -5.2699    6.2650 N   0  0  0  0  0  0  0  0  0  0  0  0
   26.1393   -5.9415    6.4145 C   0  0  0  0  0  0  0  0  0  0  0  0
   25.9682   -6.3353    7.8678 C   0  0  0  0  0  0  0  0  0  0  0  0
   25.9531   -8.9584    9.5096 C   0  0  0  0  0  0  0  0  0  0  0  0
   25.1380   -8.0113   10.0915 C   0  0  0  0  0  0  0  0  0  0  0  0
   24.3258   -8.3012   11.1668 C   0  0  0  0  0  0  0  0  0  0  0  0
   25.9287  -10.2208   10.0482 C   0  0  0  0  0  0  0  0  0  0  0  0
   25.1039  -10.5180   11.1438 C   0  0  0  0  0  0  0  0  0  0  0  0
   24.2946   -9.5718   11.7162 C   0  0  0  0  0  0  0  0  0  0  0  0
   23.4576   -9.8153   12.8655 C   0  0  0  0  0  0  0  0  0  0  0  0
   23.3994  -10.9219   13.5734 C   0  0  0  0  0  0  0  0  0  0  0  0
   22.7189  -11.1891   14.8310 C   0  0  0  0  0  0  0  0  0  0  0  0
   22.0318  -10.4196   15.5390 O   0  0  0  0  0  0  0  0  0  0  0  0
   24.0173  -12.1471   13.2365 O   0  0  0  0  0  0  0  0  0  0  0  0
   23.7532  -13.1084   14.1911 C   0  0  0  0  0  0  0  0  0  0  0  0
   24.1307  -14.4538   14.3052 C   0  0  0  0  0  0  0  0  0  0  0  0
   24.9736  -15.0125   13.2620 C   0  0  0  0  0  0  0  0  0  0  0  0
   25.2299  -16.2397   13.2907 O   0  0  0  0  0  0  0  0  0  0  0  0
   25.4844  -14.1794   12.2515 N   0  0  0  0  0  0  0  0  0  0  0  0
   22.9689  -12.6010   15.1923 C   0  0  0  0  0  0  0  0  0  0  0  0
   22.5495  -13.3629   16.2861 C   0  0  0  0  0  0  0  0  0  0  0  0
   22.9196  -14.6863   16.4002 C   0  0  0  0  0  0  0  0  0  0  0  0
   23.7082  -15.1913   15.3908 C   0  0  0  0  0  0  0  0  0  0  0  0
  1  2  2  0
  2  3  1  0
  2 15  1  0
  3  4  1  0
  3 14  1  0
  4  5  1  0
  5  6  2  0
  5 12  1  0
  6  7  1  0
  7  8  2  0
  9  8  1  1
  8 12  1  0
  9 10  1  0
  9 11  1  0
 10 11  2  0
 12 13  1  0
 13 14  1  0
 15 16  2  0
 15 18  1  0
 16 17  1  0
 17 20  2  0
 18 19  2  0
 19 20  1  0
 20 21  1  0
 21 22  2  0
 22 23  1  0
 22 25  1  0
 23 24  2  0
 23 31  1  0
 25 26  1  0
 26 27  2  0
 26 31  1  0
 27 28  1  0
 27 34  1  0
 28 29  2  0
 28 30  1  0
 31 32  2  0
 32 33  1  0
 33 34  2  0
M  END
$$$$
