
     RDKit          3D

 34 39  0  0  0  0  0  0  0  0999 V2000
   25.6653  -13.1178   13.0231 O   0  0  0  0  0  0  0  0  0  0  0  0
   25.3021  -12.6896   11.8843 C   0  0  0  0  0  0  0  0  0  0  0  0
   24.4140  -13.4426   11.1163 N   0  0  0  0  0  0  0  0  0  0  0  0
   24.4011  -13.4542    9.6569 C   0  0  0  0  0  0  0  0  0  0  0  0
   24.0118  -14.8399    9.2031 C   0  0  0  0  0  0  0  0  0  0  0  0
   23.8375  -15.3170    7.9355 N   0  0  0  0  0  0  0  0  0  0  0  0
   23.5026  -16.5895    8.0071 N   0  0  0  0  0  0  0  0  0  0  0  0
   23.4473  -16.9794    9.2825 C   0  0  0  0  0  0  0  0  0  0  0  0
   23.1249  -18.3293    9.8652 C   0  0  1  0  0  0  0  0  0  0  0  0
   23.6362  -19.5287    9.2669 C   0  0  0  0  0  0  0  0  0  0  0  0
   24.2285  -19.1201   10.4233 C   0  0  0  0  0  0  0  0  0  0  0  0
   23.7706  -15.8632   10.0130 N   0  0  0  0  0  0  0  0  0  0  0  0
   23.8750  -15.7112   11.4455 C   0  0  0  0  0  0  0  0  0  0  0  0
   23.4383  -14.3083   11.8165 C   0  0  0  0  0  0  0  0  0  0  0  0
   25.8096  -11.4151   11.3716 C   0  0  0  0  0  0  0  0  0  0  0  0
   26.7095  -11.3932   10.3276 C   0  0  0  0  0  0  0  0  0  0  0  0
   27.2154  -10.2165    9.8181 C   0  0  0  0  0  0  0  0  0  0  0  0
   25.4299  -10.2046   11.8959 C   0  0  0  0  0  0  0  0  0  0  0  0
   25.9448   -9.0056   11.3798 C   0  0  0  0  0  0  0  0  0  0  0  0
   26.8378   -8.9911   10.3405 C   0  0  0  0  0  0  0  0  0  0  0  0
   27.4251   -7.7902    9.7988 C   0  0  0  0  0  0  0  0  0  0  0  0
   27.3642   -6.5837   10.3183 C   0  0  0  0  0  0  0  0  0  0  0  0
   28.0461   -5.3620    9.9201 C   0  0  0  0  0  0  0  0  0  0  0  0
   28.8597   -5.1768    8.9879 O   0  0  0  0  0  0  0  0  0  0  0  0
   26.5774   -6.2055   11.4292 O   0  0  0  0  0  0  0  0  0  0  0  0
   26.7410   -4.8645   11.7123 C   0  0  0  0  0  0  0  0  0  0  0  0
   26.1860   -4.0330   12.6954 C   0  0  0  0  0  0  0  0  0  0  0  0
   25.2610   -4.6285   13.6443 C   0  0  0  0  0  0  0  0  0  0  0  0
   24.6958   -3.8834   14.4797 O   0  0  0  0  0  0  0  0  0  0  0  0
   25.0189   -6.0129   13.6134 N   0  0  0  0  0  0  0  0  0  0  0  0
   27.6191   -4.2834   10.8371 C   0  0  0  0  0  0  0  0  0  0  0  0
   27.9640   -2.9305   10.8960 C   0  0  0  0  0  0  0  0  0  0  0  0
   27.4193   -2.1109   11.8620 C   0  0  0  0  0  0  0  0  0  0  0  0
   26.5371   -2.7004   12.7394 C   0  0  0  0  0  0  0  0  0  0  0  0
  1  2  2  0
  2  3  1  0
  2 15  1  0
  3  4  1  0
  3 14  1  0
  4  5  1  0
  5  6  2  0
  5 12  1  0
  6  7  1  0
  7  8  2  0
  9  8  1  6
  8 12  1  0
  9 10  1  0
  9 11  1  0
 10 11  2  0
 12 13  1  0
 13 14  1  0
 15 16  2  0
 15 18  1  0
 16 17  1  0
 17 20  2  0
 18 19  2  0
 19 20  1  0
 20 21  1  0
 21 22  2  0
 22 23  1  0
 22 25  1  0
 23 24  2  0
 23 31  1  0
 25 26  1  0
 26 27  2  0
 26 31  1  0
 27 28  1  0
 27 34  1  0
 28 29  2  0
 28 30  1  0
 31 32  2  0
 32 33  1  0
 33 34  2  0
M  END
$$$$
