
     RDKit          3D

 34 39  0  0  0  0  0  0  0  0999 V2000
   27.6260  -12.7360    7.4490 O   0  0  0  0  0  0  0  0  0  0  0  0
   26.6871  -12.1472    8.0689 C   0  0  0  0  0  0  0  0  0  0  0  0
   25.6606  -12.8994    8.6397 N   0  0  0  0  0  0  0  0  0  0  0  0
   24.3016  -12.4074    8.8432 C   0  0  0  0  0  0  0  0  0  0  0  0
   23.3514  -13.5644    8.6536 C   0  0  0  0  0  0  0  0  0  0  0  0
   21.9914  -13.5946    8.7743 N   0  0  0  0  0  0  0  0  0  0  0  0
   21.5728  -14.8167    8.5142 N   0  0  0  0  0  0  0  0  0  0  0  0
   22.6094  -15.6057    8.2231 C   0  0  0  0  0  0  0  0  0  0  0  0
   22.6368  -17.0635    7.8494 C   0  0  1  0  0  0  0  0  0  0  0  0
   22.0541  -18.0533    8.7089 C   0  0  0  0  0  0  0  0  0  0  0  0
   21.3566  -17.7310    7.5843 C   0  0  0  0  0  0  0  0  0  0  0  0
   23.7138  -14.7962    8.3178 N   0  0  0  0  0  0  0  0  0  0  0  0
   25.1035  -15.1222    8.0970 C   0  0  0  0  0  0  0  0  0  0  0  0
   25.9509  -14.2943    9.0418 C   0  0  0  0  0  0  0  0  0  0  0  0
   26.6731  -10.6875    8.1863 C   0  0  0  0  0  0  0  0  0  0  0  0
   26.3356   -9.9049    7.1029 C   0  0  0  0  0  0  0  0  0  0  0  0
   26.3144   -8.5282    7.1690 C   0  0  0  0  0  0  0  0  0  0  0  0
   26.9943  -10.0375    9.3519 C   0  0  0  0  0  0  0  0  0  0  0  0
   26.9748   -8.6362    9.4211 C   0  0  0  0  0  0  0  0  0  0  0  0
   26.6365   -7.8642    8.3406 C   0  0  0  0  0  0  0  0  0  0  0  0
   26.6377   -6.4218    8.3481 C   0  0  0  0  0  0  0  0  0  0  0  0
   26.9726   -5.6427    9.3530 C   0  0  0  0  0  0  0  0  0  0  0  0
   28.0104   -4.6271    9.4394 C   0  0  0  0  0  0  0  0  0  0  0  0
   28.8354   -4.2619    8.5725 O   0  0  0  0  0  0  0  0  0  0  0  0
   26.3559   -5.6295   10.6243 O   0  0  0  0  0  0  0  0  0  0  0  0
   26.9454   -4.6898   11.4456 C   0  0  0  0  0  0  0  0  0  0  0  0
   26.6940   -4.3031   12.7696 C   0  0  0  0  0  0  0  0  0  0  0  0
   25.6312   -4.9874   13.4858 C   0  0  0  0  0  0  0  0  0  0  0  0
   25.2705   -4.5361   14.5988 O   0  0  0  0  0  0  0  0  0  0  0  0
   25.0333   -6.1312   12.9288 N   0  0  0  0  0  0  0  0  0  0  0  0
   27.9596   -4.0391   10.7952 C   0  0  0  0  0  0  0  0  0  0  0  0
   28.7234   -3.0347   11.3957 C   0  0  0  0  0  0  0  0  0  0  0  0
   28.4778   -2.6530   12.6979 C   0  0  0  0  0  0  0  0  0  0  0  0
   27.4570   -3.3104   13.3470 C   0  0  0  0  0  0  0  0  0  0  0  0
  1  2  2  0
  2  3  1  0
  2 15  1  0
  3  4  1  0
  3 14  1  0
  4  5  1  0
  5  6  2  0
  5 12  1  0
  6  7  1  0
  7  8  2  0
  9  8  1  1
  8 12  1  0
  9 10  1  0
  9 11  1  0
 10 11  2  0
 12 13  1  0
 13 14  1  0
 15 16  2  0
 15 18  1  0
 16 17  1  0
 17 20  2  0
 18 19  2  0
 19 20  1  0
 20 21  1  0
 21 22  2  0
 22 23  1  0
 22 25  1  0
 23 24  2  0
 23 31  1  0
 25 26  1  0
 26 27  2  0
 26 31  1  0
 27 28  1  0
 27 34  1  0
 28 29  2  0
 28 30  1  0
 31 32  2  0
 32 33  1  0
 33 34  2  0
M  END
$$$$
