
     RDKit          3D

 41 44  0  0  0  0  0  0  0  0999 V2000
   72.8208   56.5492   14.0865 C   0  0  0  0  0  0  0  0  0  0  0  0
   70.3251   56.1935   14.1382 C   0  0  0  0  0  0  0  0  0  0  0  0
   71.8722   58.2491   18.3283 C   0  0  0  0  0  0  0  0  0  0  0  0
   74.1252   60.6677   18.4834 C   0  0  0  0  0  0  0  0  0  0  0  0
   73.0008   60.9656   20.4986 C   0  0  1  0  0  0  0  0  0  0  0  0
   72.1464   62.1421   20.0941 C   0  0  0  0  0  0  0  0  0  0  0  0
   66.9232   50.9582   13.5615 C   0  0  0  0  0  0  0  0  0  0  0  0
   67.9790   50.6694   14.3761 C   0  0  0  0  0  0  0  0  0  0  0  0
   68.7023   51.6819   15.0077 C   0  0  0  0  0  0  0  0  0  0  0  0
   68.3560   52.9774   14.8141 C   0  0  0  0  0  0  0  0  0  0  0  0
   67.2941   53.2881   13.9958 C   0  0  0  0  0  0  0  0  0  0  0  0
   66.5892   52.3031   13.3801 C   0  0  0  0  0  0  0  0  0  0  0  0
   71.7856   54.4676   14.9911 C   0  0  0  0  0  0  0  0  0  0  0  0
   72.8264   55.0366   14.0466 C   0  0  2  0  0  0  0  0  0  0  0  0
   74.1775   54.5111   14.4100 C   0  0  0  0  0  0  0  0  0  0  0  0
   71.3878   57.0721   14.7653 C   0  0  2  0  0  0  0  0  0  0  0  0
   70.9700   57.4353   16.1476 C   0  0  2  0  0  0  0  0  0  0  0  0
   73.1876   59.9499   19.4209 C   0  0  1  0  0  0  0  0  0  0  0  0
   74.3783   61.6058   20.5009 C   0  0  1  0  0  0  0  0  0  0  0  0
   72.9366   63.2966   20.6970 C   0  0  0  0  0  0  0  0  0  0  0  0
   70.0372   58.6217   16.0972 C   0  0  0  0  0  0  0  0  0  0  0  0
   69.5754   58.9788   17.4686 C   0  0  0  0  0  0  0  0  0  0  0  0
   69.4845   60.2857   17.8819 C   0  0  0  0  0  0  0  0  0  0  0  0
   69.0684   60.5646   19.1524 C   0  0  0  0  0  0  0  0  0  0  0  0
   68.7307   59.5739   20.0518 C   0  0  0  0  0  0  0  0  0  0  0  0
   68.8260   58.2679   19.6258 C   0  0  0  0  0  0  0  0  0  0  0  0
   69.2450   57.9721   18.3445 C   0  0  0  0  0  0  0  0  0  0  0  0
   66.0821   49.9960   12.8309 C   0  0  1  0  0  0  0  0  0  0  0  0
   65.1791   49.1872   13.7053 C   0  0  0  0  0  0  0  0  0  0  0  0
   70.4711   54.8567   14.5903 N   0  0  0  0  0  0  0  0  0  0  0  0
   72.0943   57.8699   16.9845 N   0  0  0  0  0  0  0  0  0  0  0  0
   69.7701   53.8826   16.9130 O   0  0  0  0  0  0  0  0  0  0  0  0
   68.2727   55.4358   15.8369 O   0  0  0  0  0  0  0  0  0  0  0  0
   71.5731   58.2705   14.0736 O   0  0  0  0  0  0  0  0  0  0  0  0
   71.5451   57.3440   19.1338 O   0  0  0  0  0  0  0  0  0  0  0  0
   71.9904   59.5430   18.8077 O   0  0  0  0  0  0  0  0  0  0  0  0
   74.7195   61.7078   19.1782 O   0  0  0  0  0  0  0  0  0  0  0  0
   74.1476   62.8106   21.1162 O   0  0  0  0  0  0  0  0  0  0  0  0
   65.2822   50.7347   11.9366 O   0  0  0  0  0  0  0  0  0  0  0  0
   64.3521   48.3212   13.0284 O   0  0  0  0  0  0  0  0  0  0  0  0
   69.2283   54.2724   15.5908 S   0  0  2  0  0  6  0  0  0  0  0  0
 14  1  1  1
  2 16  1  0
 30  2  1  0
 31  3  1  0
  3 35  2  0
  3 36  1  0
 18  4  1  0
  4 37  1  0
  5  6  1  6
 18  5  1  0
  5 19  1  0
  6 20  1  0
  8  7  2  0
 12  7  1  0
  7 28  1  0
  9  8  1  0
 10  9  2  0
 10 11  1  0
 41 10  1  0
 11 12  2  0
 13 14  1  0
 30 13  1  0
 14 15  1  0
 16 17  1  0
 16 34  1  6
 17 21  1  6
 17 31  1  0
 18 36  1  6
 19 37  1  6
 19 38  1  0
 38 20  1  0
 21 22  1  0
 22 23  2  0
 22 27  1  0
 23 24  1  0
 24 25  2  0
 26 25  1  0
 27 26  2  0
 28 29  1  0
 28 39  1  6
 29 40  1  0
 41 30  1  6
 41 32  2  0
 41 33  2  0
M  END
$$$$
