
     RDKit          3D

 41 44  0  0  0  0  0  0  0  0999 V2000
   73.6962   53.6001   13.8446 C   0  0  0  0  0  0  0  0  0  0  0  0
   70.9207   56.3928   15.1825 C   0  0  0  0  0  0  0  0  0  0  0  0
   73.4284   58.9682   17.7848 C   0  0  0  0  0  0  0  0  0  0  0  0
   74.9363   61.4677   18.0683 C   0  0  0  0  0  0  0  0  0  0  0  0
   73.9934   61.7544   20.1760 C   0  0  1  0  0  0  0  0  0  0  0  0
   72.7899   62.5659   19.7626 C   0  0  0  0  0  0  0  0  0  0  0  0
   66.9313   51.2367   13.5385 C   0  0  0  0  0  0  0  0  0  0  0  0
   67.7950   50.9771   14.5624 C   0  0  0  0  0  0  0  0  0  0  0  0
   68.4512   52.0097   15.2335 C   0  0  0  0  0  0  0  0  0  0  0  0
   68.2317   53.2958   14.8683 C   0  0  0  0  0  0  0  0  0  0  0  0
   67.3641   53.5772   13.8377 C   0  0  0  0  0  0  0  0  0  0  0  0
   66.7248   52.5726   13.1834 C   0  0  0  0  0  0  0  0  0  0  0  0
   71.3784   54.0856   14.6290 C   0  0  0  0  0  0  0  0  0  0  0  0
   72.5823   54.6237   13.8806 C   0  0  2  0  0  0  0  0  0  0  0  0
   72.1825   55.0070   12.4924 C   0  0  0  0  0  0  0  0  0  0  0  0
   71.5736   56.3397   16.5483 C   0  0  2  0  0  0  0  0  0  0  0  0
   71.3828   57.6478   17.2336 C   0  0  2  0  0  0  0  0  0  0  0  0
   74.3592   60.6743   19.2130 C   0  0  1  0  0  0  0  0  0  0  0  0
   75.1100   62.7461   19.8986 C   0  0  1  0  0  0  0  0  0  0  0  0
   73.2597   63.9754   20.0991 C   0  0  0  0  0  0  0  0  0  0  0  0
   70.0733   58.2598   16.7968 C   0  0  0  0  0  0  0  0  0  0  0  0
   69.3729   58.8748   17.9599 C   0  0  0  0  0  0  0  0  0  0  0  0
   68.1660   59.5155   17.8190 C   0  0  0  0  0  0  0  0  0  0  0  0
   67.5674   60.0755   18.9113 C   0  0  0  0  0  0  0  0  0  0  0  0
   68.1327   60.0243   20.1692 C   0  0  0  0  0  0  0  0  0  0  0  0
   69.3426   59.3795   20.2976 C   0  0  0  0  0  0  0  0  0  0  0  0
   69.9583   58.8091   19.2020 C   0  0  0  0  0  0  0  0  0  0  0  0
   66.1815   50.2503   12.7437 C   0  0  1  0  0  0  0  0  0  0  0  0
   66.0621   50.5972   11.2948 C   0  0  0  0  0  0  0  0  0  0  0  0
   70.4103   55.1147   14.8380 N   0  0  0  0  0  0  0  0  0  0  0  0
   72.4054   58.6346   16.8677 N   0  0  0  0  0  0  0  0  0  0  0  0
   69.3675   54.2939   17.0906 O   0  0  0  0  0  0  0  0  0  0  0  0
   68.0782   55.8115   15.7314 O   0  0  0  0  0  0  0  0  0  0  0  0
   72.9505   56.1196   16.4789 O   0  0  0  0  0  0  0  0  0  0  0  0
   74.5437   58.4148   17.6273 O   0  0  0  0  0  0  0  0  0  0  0  0
   73.2797   59.8574   18.8361 O   0  0  0  0  0  0  0  0  0  0  0  0
   75.2639   62.7288   18.5377 O   0  0  0  0  0  0  0  0  0  0  0  0
   74.5975   63.9199   20.3913 O   0  0  0  0  0  0  0  0  0  0  0  0
   66.8658   49.0230   12.8471 O   0  0  0  0  0  0  0  0  0  0  0  0
   65.5177   49.6058   10.5119 O   0  0  0  0  0  0  0  0  0  0  0  0
   69.0250   54.6161   15.6861 S   0  0  2  0  0  6  0  0  0  0  0  0
 14  1  1  6
  2 16  1  0
 30  2  1  0
 31  3  1  0
  3 35  2  0
  3 36  1  0
 18  4  1  0
  4 37  1  0
  5  6  1  6
 18  5  1  0
  5 19  1  0
  6 20  1  0
  8  7  2  0
 12  7  1  0
  7 28  1  0
  9  8  1  0
 10  9  2  0
 10 11  1  0
 41 10  1  0
 11 12  2  0
 13 14  1  0
 30 13  1  0
 14 15  1  0
 16 17  1  0
 16 34  1  6
 17 21  1  6
 17 31  1  0
 18 36  1  6
 19 37  1  6
 19 38  1  0
 38 20  1  0
 21 22  1  0
 22 23  2  0
 22 27  1  0
 23 24  1  0
 24 25  2  0
 26 25  1  0
 27 26  2  0
 28 29  1  0
 28 39  1  6
 29 40  1  0
 41 30  1  6
 41 32  2  0
 41 33  2  0
M  END
$$$$
