
     RDKit          3D

 41 44  0  0  0  0  0  0  0  0999 V2000
   71.6890   53.9391   16.1801 C   0  0  0  0  0  0  0  0  0  0  0  0
   70.0491   57.0706   14.4537 C   0  0  0  0  0  0  0  0  0  0  0  0
   72.3671   58.6254   18.4540 C   0  0  0  0  0  0  0  0  0  0  0  0
   74.8228   60.6268   18.5179 C   0  0  0  0  0  0  0  0  0  0  0  0
   73.2488   60.6131   20.2315 C   0  0  1  0  0  0  0  0  0  0  0  0
   72.0297   60.9395   19.4038 C   0  0  0  0  0  0  0  0  0  0  0  0
   66.9171   51.6594   13.7851 C   0  0  0  0  0  0  0  0  0  0  0  0
   66.4800   52.9284   14.0308 C   0  0  0  0  0  0  0  0  0  0  0  0
   67.3215   53.8851   14.5997 C   0  0  0  0  0  0  0  0  0  0  0  0
   68.5972   53.5561   14.9163 C   0  0  0  0  0  0  0  0  0  0  0  0
   69.0559   52.2811   14.6761 C   0  0  0  0  0  0  0  0  0  0  0  0
   68.2374   51.3487   14.1223 C   0  0  0  0  0  0  0  0  0  0  0  0
   71.7676   55.3977   14.1579 C   0  0  0  0  0  0  0  0  0  0  0  0
   72.4838   54.9851   15.4291 C   0  0  2  0  0  0  0  0  0  0  0  0
   73.8443   54.4645   15.0947 C   0  0  0  0  0  0  0  0  0  0  0  0
   71.2036   57.8845   15.0006 C   0  0  2  0  0  0  0  0  0  0  0  0
   70.9615   58.1712   16.4416 C   0  0  2  0  0  0  0  0  0  0  0  0
   74.2218   59.7083   19.5515 C   0  0  1  0  0  0  0  0  0  0  0  0
   74.0059   61.9273   20.1475 C   0  0  1  0  0  0  0  0  0  0  0  0
   71.8853   62.4317   19.6743 C   0  0  0  0  0  0  0  0  0  0  0  0
   69.8050   59.1325   16.5773 C   0  0  0  0  0  0  0  0  0  0  0  0
   69.5196   59.4033   18.0149 C   0  0  0  0  0  0  0  0  0  0  0  0
   68.5167   60.2581   18.4029 C   0  0  0  0  0  0  0  0  0  0  0  0
   68.3001   60.4858   19.7318 C   0  0  0  0  0  0  0  0  0  0  0  0
   69.0579   59.8843   20.7160 C   0  0  0  0  0  0  0  0  0  0  0  0
   70.0602   59.0297   20.3146 C   0  0  0  0  0  0  0  0  0  0  0  0
   70.2897   58.7907   18.9748 C   0  0  0  0  0  0  0  0  0  0  0  0
   66.1396   50.5550   13.1998 C   0  0  1  0  0  0  0  0  0  0  0  0
   66.3754   50.3498   11.7381 C   0  0  0  0  0  0  0  0  0  0  0  0
   70.3960   55.6952   14.4229 N   0  0  0  0  0  0  0  0  0  0  0  0
   72.0952   58.8460   17.0842 N   0  0  0  0  0  0  0  0  0  0  0  0
   70.7272   54.0958   16.4643 O   0  0  0  0  0  0  0  0  0  0  0  0
   68.8887   55.6540   16.5321 O   0  0  0  0  0  0  0  0  0  0  0  0
   71.3421   59.1189   14.3632 O   0  0  0  0  0  0  0  0  0  0  0  0
   71.3826   58.4857   19.2197 O   0  0  0  0  0  0  0  0  0  0  0  0
   73.6380   58.5552   18.9997 O   0  0  0  0  0  0  0  0  0  0  0  0
   74.5598   61.9332   18.8948 O   0  0  0  0  0  0  0  0  0  0  0  0
   73.0127   62.8572   20.3271 O   0  0  0  0  0  0  0  0  0  0  0  0
   66.5138   49.3765   13.8752 O   0  0  0  0  0  0  0  0  0  0  0  0
   65.3489   49.7173   11.0762 O   0  0  0  0  0  0  0  0  0  0  0  0
   69.6839   54.7238   15.6212 S   0  0  2  0  0  6  0  0  0  0  0  0
 14  1  1  6
  2 16  1  0
 30  2  1  0
 31  3  1  0
  3 35  2  0
  3 36  1  0
 18  4  1  0
  4 37  1  0
  5  6  1  6
 18  5  1  0
  5 19  1  0
  6 20  1  0
  8  7  2  0
 12  7  1  0
  7 28  1  0
  9  8  1  0
 10  9  2  0
 10 11  1  0
 41 10  1  0
 11 12  2  0
 13 14  1  0
 30 13  1  0
 14 15  1  0
 16 17  1  0
 16 34  1  6
 17 21  1  6
 17 31  1  0
 18 36  1  6
 19 37  1  6
 19 38  1  0
 38 20  1  0
 21 22  1  0
 22 23  2  0
 22 27  1  0
 23 24  1  0
 24 25  2  0
 26 25  1  0
 27 26  2  0
 28 29  1  0
 28 39  1  1
 29 40  1  0
 41 30  1  6
 41 32  2  0
 41 33  2  0
M  END
$$$$
