
     RDKit          3D

 41 44  0  0  0  0  0  0  0  0999 V2000
   72.4428   57.3851   15.8631 C   0  0  0  0  0  0  0  0  0  0  0  0
   70.1011   56.5047   14.7026 C   0  0  0  0  0  0  0  0  0  0  0  0
   72.6501   58.6285   18.3012 C   0  0  0  0  0  0  0  0  0  0  0  0
   75.3235   60.3700   18.5427 C   0  0  0  0  0  0  0  0  0  0  0  0
   73.5706   60.5905   20.0568 C   0  0  1  0  0  0  0  0  0  0  0  0
   72.4986   61.0124   19.0818 C   0  0  0  0  0  0  0  0  0  0  0  0
   66.6925   51.6339   13.6607 C   0  0  0  0  0  0  0  0  0  0  0  0
   66.5284   52.9828   13.5371 C   0  0  0  0  0  0  0  0  0  0  0  0
   67.2854   53.8754   14.2970 C   0  0  0  0  0  0  0  0  0  0  0  0
   68.2023   53.4022   15.1750 C   0  0  0  0  0  0  0  0  0  0  0  0
   68.3819   52.0448   15.3136 C   0  0  0  0  0  0  0  0  0  0  0  0
   67.6452   51.1748   14.5745 C   0  0  0  0  0  0  0  0  0  0  0  0
   71.7175   55.0045   15.6905 C   0  0  0  0  0  0  0  0  0  0  0  0
   72.6584   56.0658   15.1543 C   0  0  2  0  0  0  0  0  0  0  0  0
   74.0735   55.6129   15.3163 C   0  0  0  0  0  0  0  0  0  0  0  0
   71.2486   57.4458   15.0060 C   0  0  2  0  0  0  0  0  0  0  0  0
   71.1822   57.8539   16.4365 C   0  0  2  0  0  0  0  0  0  0  0  0
   74.5098   59.5616   19.5210 C   0  0  1  0  0  0  0  0  0  0  0  0
   74.4726   61.8124   20.0293 C   0  0  1  0  0  0  0  0  0  0  0  0
   72.4893   62.5209   19.2943 C   0  0  0  0  0  0  0  0  0  0  0  0
   70.1437   58.9371   16.6042 C   0  0  0  0  0  0  0  0  0  0  0  0
   69.6798   58.9983   18.0194 C   0  0  0  0  0  0  0  0  0  0  0  0
   70.1533   59.9462   18.8936 C   0  0  0  0  0  0  0  0  0  0  0  0
   69.7090   59.9557   20.1849 C   0  0  0  0  0  0  0  0  0  0  0  0
   68.7908   59.0391   20.6554 C   0  0  0  0  0  0  0  0  0  0  0  0
   68.3237   58.0939   19.7696 C   0  0  0  0  0  0  0  0  0  0  0  0
   68.7643   58.0732   18.4619 C   0  0  0  0  0  0  0  0  0  0  0  0
   65.9613   50.5846   12.9319 C   0  0  1  0  0  0  0  0  0  0  0  0
   66.6094   50.1654   11.6519 C   0  0  0  0  0  0  0  0  0  0  0  0
   70.3918   55.2080   15.1994 N   0  0  0  0  0  0  0  0  0  0  0  0
   72.4349   58.4496   16.9153 N   0  0  0  0  0  0  0  0  0  0  0  0
   69.7636   53.8184   17.3230 O   0  0  0  0  0  0  0  0  0  0  0  0
   68.2903   55.6095   16.6641 O   0  0  0  0  0  0  0  0  0  0  0  0
   71.1975   58.6188   14.2508 O   0  0  0  0  0  0  0  0  0  0  0  0
   71.6618   58.9669   18.9968 O   0  0  0  0  0  0  0  0  0  0  0  0
   73.8699   58.4566   18.9340 O   0  0  0  0  0  0  0  0  0  0  0  0
   75.1645   61.7107   18.8515 O   0  0  0  0  0  0  0  0  0  0  0  0
   73.5739   62.8489   20.0653 O   0  0  0  0  0  0  0  0  0  0  0  0
   65.8905   49.4600   13.7778 O   0  0  0  0  0  0  0  0  0  0  0  0
   65.9711   49.1379   10.9970 O   0  0  0  0  0  0  0  0  0  0  0  0
   69.1747   54.4833   16.1378 S   0  0  2  0  0  6  0  0  0  0  0  0
 14  1  1  1
  2 16  1  0
 30  2  1  0
 31  3  1  0
  3 35  2  0
  3 36  1  0
 18  4  1  0
  4 37  1  0
  5  6  1  6
 18  5  1  0
  5 19  1  0
  6 20  1  0
  8  7  2  0
 12  7  1  0
  7 28  1  0
  9  8  1  0
 10  9  2  0
 10 11  1  0
 41 10  1  0
 11 12  2  0
 13 14  1  0
 30 13  1  0
 14 15  1  0
 16 17  1  0
 16 34  1  6
 17 21  1  6
 17 31  1  0
 18 36  1  6
 19 37  1  6
 19 38  1  0
 38 20  1  0
 21 22  1  0
 22 23  2  0
 22 27  1  0
 23 24  1  0
 24 25  2  0
 26 25  1  0
 27 26  2  0
 28 29  1  0
 28 39  1  1
 29 40  1  0
 41 30  1  6
 41 32  2  0
 41 33  2  0
M  END
$$$$
