
     RDKit          3D

 41 44  0  0  0  0  0  0  0  0999 V2000
   73.8211   55.7538   15.3021 C   0  0  0  0  0  0  0  0  0  0  0  0
   70.0686   56.3323   14.7245 C   0  0  0  0  0  0  0  0  0  0  0  0
   72.8129   58.3012   18.1773 C   0  0  0  0  0  0  0  0  0  0  0  0
   75.3041   60.4396   18.4906 C   0  0  0  0  0  0  0  0  0  0  0  0
   73.4636   60.3206   19.9092 C   0  0  1  0  0  0  0  0  0  0  0  0
   72.3947   60.6649   18.9009 C   0  0  0  0  0  0  0  0  0  0  0  0
   66.8938   51.1179   13.4524 C   0  0  0  0  0  0  0  0  0  0  0  0
   67.7778   50.7354   14.4190 C   0  0  0  0  0  0  0  0  0  0  0  0
   68.4547   51.6787   15.1931 C   0  0  0  0  0  0  0  0  0  0  0  0
   68.2354   52.9998   14.9879 C   0  0  0  0  0  0  0  0  0  0  0  0
   67.3476   53.4047   14.0175 C   0  0  0  0  0  0  0  0  0  0  0  0
   66.6881   52.4872   13.2630 C   0  0  0  0  0  0  0  0  0  0  0  0
   71.6082   54.6097   15.4326 C   0  0  0  0  0  0  0  0  0  0  0  0
   72.6317   55.2490   14.5146 C   0  0  2  0  0  0  0  0  0  0  0  0
   73.0715   54.2600   13.4839 C   0  0  0  0  0  0  0  0  0  0  0  0
   71.3263   57.1305   15.0001 C   0  0  2  0  0  0  0  0  0  0  0  0
   71.2111   57.7808   16.3346 C   0  0  2  0  0  0  0  0  0  0  0  0
   74.5592   59.4644   19.3665 C   0  0  1  0  0  0  0  0  0  0  0  0
   74.1921   61.6496   20.0118 C   0  0  1  0  0  0  0  0  0  0  0  0
   72.1706   62.1404   19.2065 C   0  0  0  0  0  0  0  0  0  0  0  0
   70.2713   58.9590   16.2422 C   0  0  0  0  0  0  0  0  0  0  0  0
   69.5231   59.1290   17.5200 C   0  0  0  0  0  0  0  0  0  0  0  0
   68.6781   60.1924   17.7254 C   0  0  0  0  0  0  0  0  0  0  0  0
   68.0232   60.3139   18.9176 C   0  0  0  0  0  0  0  0  0  0  0  0
   68.1772   59.3997   19.9399 C   0  0  0  0  0  0  0  0  0  0  0  0
   69.0269   58.3383   19.7220 C   0  0  0  0  0  0  0  0  0  0  0  0
   69.6948   58.2034   18.5218 C   0  0  0  0  0  0  0  0  0  0  0  0
   66.1209   50.2355   12.5631 C   0  0  1  0  0  0  0  0  0  0  0  0
   66.7705   49.9800   11.2414 C   0  0  0  0  0  0  0  0  0  0  0  0
   70.2822   54.9654   15.0388 N   0  0  0  0  0  0  0  0  0  0  0  0
   72.4828   58.3436   16.8031 N   0  0  0  0  0  0  0  0  0  0  0  0
   69.6004   53.6692   17.2045 O   0  0  0  0  0  0  0  0  0  0  0  0
   68.0552   55.2972   16.3245 O   0  0  0  0  0  0  0  0  0  0  0  0
   71.5298   58.1527   14.0712 O   0  0  0  0  0  0  0  0  0  0  0  0
   71.8626   58.2348   18.9944 O   0  0  0  0  0  0  0  0  0  0  0  0
   74.1051   58.3287   18.6745 O   0  0  0  0  0  0  0  0  0  0  0  0
   74.9497   61.7226   18.8730 O   0  0  0  0  0  0  0  0  0  0  0  0
   73.1607   62.5536   20.0594 O   0  0  0  0  0  0  0  0  0  0  0  0
   65.9717   49.0010   13.2257 O   0  0  0  0  0  0  0  0  0  0  0  0
   66.5486   50.9549   10.2967 O   0  0  0  0  0  0  0  0  0  0  0  0
   69.0544   54.2108   15.9388 S   0  0  2  0  0  6  0  0  0  0  0  0
 14  1  1  1
  2 16  1  0
 30  2  1  0
 31  3  1  0
  3 35  2  0
  3 36  1  0
 18  4  1  0
  4 37  1  0
  5  6  1  6
 18  5  1  0
  5 19  1  0
  6 20  1  0
  8  7  2  0
 12  7  1  0
  7 28  1  0
  9  8  1  0
 10  9  2  0
 10 11  1  0
 41 10  1  0
 11 12  2  0
 13 14  1  0
 30 13  1  0
 14 15  1  0
 16 17  1  0
 16 34  1  6
 17 21  1  6
 17 31  1  0
 18 36  1  6
 19 37  1  6
 19 38  1  0
 38 20  1  0
 21 22  1  0
 22 23  2  0
 22 27  1  0
 23 24  1  0
 24 25  2  0
 26 25  1  0
 27 26  2  0
 28 29  1  0
 28 39  1  1
 29 40  1  0
 41 30  1  6
 41 32  2  0
 41 33  2  0
M  END
$$$$
