
     RDKit          3D

 41 44  0  0  0  0  0  0  0  0999 V2000
   73.6477   54.4264   14.8590 C   0  0  0  0  0  0  0  0  0  0  0  0
   71.6505   55.8747   15.3052 C   0  0  0  0  0  0  0  0  0  0  0  0
   72.7679   58.2540   18.5097 C   0  0  0  0  0  0  0  0  0  0  0  0
   74.4669   60.8598   18.5174 C   0  0  0  0  0  0  0  0  0  0  0  0
   73.5260   60.1289   20.5159 C   0  0  1  0  0  0  0  0  0  0  0  0
   72.0789   60.1422   20.0877 C   0  0  0  0  0  0  0  0  0  0  0  0
   67.0046   51.2141   13.7693 C   0  0  0  0  0  0  0  0  0  0  0  0
   66.6813   52.5364   13.6753 C   0  0  0  0  0  0  0  0  0  0  0  0
   67.4550   53.5156   14.2997 C   0  0  0  0  0  0  0  0  0  0  0  0
   68.5487   53.1551   15.0136 C   0  0  0  0  0  0  0  0  0  0  0  0
   68.8904   51.8262   15.1198 C   0  0  0  0  0  0  0  0  0  0  0  0
   68.1377   50.8720   14.5125 C   0  0  0  0  0  0  0  0  0  0  0  0
   71.3817   53.8772   13.9720 C   0  0  0  0  0  0  0  0  0  0  0  0
   72.8068   54.2510   13.6133 C   0  0  2  0  0  0  0  0  0  0  0  0
   73.3967   53.1988   12.7308 C   0  0  0  0  0  0  0  0  0  0  0  0
   70.9365   57.2057   15.4201 C   0  0  2  0  0  0  0  0  0  0  0  0
   71.0130   57.6825   16.8287 C   0  0  2  0  0  0  0  0  0  0  0  0
   74.4713   59.6774   19.4527 C   0  0  1  0  0  0  0  0  0  0  0  0
   73.8300   61.6171   20.5262 C   0  0  1  0  0  0  0  0  0  0  0  0
   71.6105   61.4627   20.6856 C   0  0  0  0  0  0  0  0  0  0  0  0
   70.8299   59.1809   16.8647 C   0  0  0  0  0  0  0  0  0  0  0  0
   70.0536   59.5812   18.0724 C   0  0  0  0  0  0  0  0  0  0  0  0
   69.8743   60.9005   18.4104 C   0  0  0  0  0  0  0  0  0  0  0  0
   69.1663   61.2195   19.5337 C   0  0  0  0  0  0  0  0  0  0  0  0
   68.6155   60.2577   20.3560 C   0  0  0  0  0  0  0  0  0  0  0  0
   68.8022   58.9389   20.0068 C   0  0  0  0  0  0  0  0  0  0  0  0
   69.5155   58.6026   18.8741 C   0  0  0  0  0  0  0  0  0  0  0  0
   66.2778   50.0824   13.1712 C   0  0  1  0  0  0  0  0  0  0  0  0
   65.0226   50.4707   12.4587 C   0  0  0  0  0  0  0  0  0  0  0  0
   70.7744   54.8985   14.7646 N   0  0  0  0  0  0  0  0  0  0  0  0
   72.3268   57.4445   17.4377 N   0  0  0  0  0  0  0  0  0  0  0  0
   70.1277   53.8551   17.0729 O   0  0  0  0  0  0  0  0  0  0  0  0
   68.6881   55.5578   16.1558 O   0  0  0  0  0  0  0  0  0  0  0  0
   69.5808   57.1192   15.0983 O   0  0  0  0  0  0  0  0  0  0  0  0
   71.8869   58.8072   19.2118 O   0  0  0  0  0  0  0  0  0  0  0  0
   74.0969   58.4741   18.8309 O   0  0  0  0  0  0  0  0  0  0  0  0
   73.9725   61.9547   19.2064 O   0  0  0  0  0  0  0  0  0  0  0  0
   72.7142   62.1467   21.1244 O   0  0  0  0  0  0  0  0  0  0  0  0
   67.1429   49.4760   12.2389 O   0  0  0  0  0  0  0  0  0  0  0  0
   64.3374   49.4207   11.8930 O   0  0  0  0  0  0  0  0  0  0  0  0
   69.5471   54.3475   15.8025 S   0  0  2  0  0  6  0  0  0  0  0  0
 14  1  1  1
  2 16  1  0
 30  2  1  0
 31  3  1  0
  3 35  2  0
  3 36  1  0
 18  4  1  0
  4 37  1  0
  5  6  1  6
 18  5  1  0
  5 19  1  0
  6 20  1  0
  8  7  2  0
 12  7  1  0
  7 28  1  0
  9  8  1  0
 10  9  2  0
 10 11  1  0
 41 10  1  0
 11 12  2  0
 13 14  1  0
 30 13  1  0
 14 15  1  0
 16 17  1  0
 16 34  1  1
 17 21  1  6
 17 31  1  0
 18 36  1  6
 19 37  1  6
 19 38  1  0
 38 20  1  0
 21 22  1  0
 22 23  2  0
 22 27  1  0
 23 24  1  0
 24 25  2  0
 26 25  1  0
 27 26  2  0
 28 29  1  0
 28 39  1  6
 29 40  1  0
 41 30  1  6
 41 32  2  0
 41 33  2  0
M  END
$$$$
