
     RDKit          3D

 41 44  0  0  0  0  0  0  0  0999 V2000
   74.0516   54.6905   15.3018 C   0  0  0  0  0  0  0  0  0  0  0  0
   70.1045   56.5220   14.3484 C   0  0  0  0  0  0  0  0  0  0  0  0
   72.3068   58.3283   18.2283 C   0  0  0  0  0  0  0  0  0  0  0  0
   75.0007   60.2542   18.6315 C   0  0  0  0  0  0  0  0  0  0  0  0
   73.1223   60.2263   20.0042 C   0  0  1  0  0  0  0  0  0  0  0  0
   72.1134   60.7179   18.9951 C   0  0  0  0  0  0  0  0  0  0  0  0
   66.6300   51.9231   13.0057 C   0  0  0  0  0  0  0  0  0  0  0  0
   66.4526   53.2761   13.0039 C   0  0  0  0  0  0  0  0  0  0  0  0
   67.1890   54.1024   13.8536 C   0  0  0  0  0  0  0  0  0  0  0  0
   68.0987   53.5596   14.6982 C   0  0  0  0  0  0  0  0  0  0  0  0
   68.2913   52.1970   14.7144 C   0  0  0  0  0  0  0  0  0  0  0  0
   67.5747   51.3914   13.8877 C   0  0  0  0  0  0  0  0  0  0  0  0
   71.6137   55.1194   15.6111 C   0  0  0  0  0  0  0  0  0  0  0  0
   72.7353   54.9555   14.6040 C   0  0  2  0  0  0  0  0  0  0  0  0
   72.4100   53.8393   13.6648 C   0  0  0  0  0  0  0  0  0  0  0  0
   71.1160   57.5394   14.8342 C   0  0  2  0  0  0  0  0  0  0  0  0
   70.8415   57.8598   16.2622 C   0  0  2  0  0  0  0  0  0  0  0  0
   74.1508   59.3051   19.4375 C   0  0  1  0  0  0  0  0  0  0  0  0
   73.9628   61.4772   20.1940 C   0  0  1  0  0  0  0  0  0  0  0  0
   72.0134   62.1893   19.3765 C   0  0  0  0  0  0  0  0  0  0  0  0
   69.6365   58.7652   16.3534 C   0  0  0  0  0  0  0  0  0  0  0  0
   69.2193   58.9344   17.7742 C   0  0  0  0  0  0  0  0  0  0  0  0
   68.7833   57.8731   18.5296 C   0  0  0  0  0  0  0  0  0  0  0  0
   68.3988   58.0782   19.8238 C   0  0  0  0  0  0  0  0  0  0  0  0
   68.4302   59.3257   20.4133 C   0  0  0  0  0  0  0  0  0  0  0  0
   68.8690   60.3815   19.6460 C   0  0  0  0  0  0  0  0  0  0  0  0
   69.2605   60.1881   18.3368 C   0  0  0  0  0  0  0  0  0  0  0  0
   65.9207   50.9381   12.1729 C   0  0  1  0  0  0  0  0  0  0  0  0
   66.4052   49.5342   12.3416 C   0  0  0  0  0  0  0  0  0  0  0  0
   70.3558   55.2618   14.9498 N   0  0  0  0  0  0  0  0  0  0  0  0
   71.9315   58.6115   16.8948 N   0  0  0  0  0  0  0  0  0  0  0  0
   69.5199   53.8206   16.9646 O   0  0  0  0  0  0  0  0  0  0  0  0
   68.1747   55.7010   16.2810 O   0  0  0  0  0  0  0  0  0  0  0  0
   71.0482   58.7441   14.1320 O   0  0  0  0  0  0  0  0  0  0  0  0
   71.3834   58.1343   19.0558 O   0  0  0  0  0  0  0  0  0  0  0  0
   73.6153   58.2528   18.6754 O   0  0  0  0  0  0  0  0  0  0  0  0
   74.7520   61.5419   19.0763 O   0  0  0  0  0  0  0  0  0  0  0  0
   73.0147   62.4665   20.2704 O   0  0  0  0  0  0  0  0  0  0  0  0
   64.5613   50.9813   12.5407 O   0  0  0  0  0  0  0  0  0  0  0  0
   65.6786   48.5914   11.6522 O   0  0  0  0  0  0  0  0  0  0  0  0
   69.0454   54.5572   15.7704 S   0  0  2  0  0  6  0  0  0  0  0  0
 14  1  1  1
  2 16  1  0
 30  2  1  0
 31  3  1  0
  3 35  2  0
  3 36  1  0
 18  4  1  0
  4 37  1  0
  5  6  1  6
 18  5  1  0
  5 19  1  0
  6 20  1  0
  8  7  2  0
 12  7  1  0
  7 28  1  0
  9  8  1  0
 10  9  2  0
 10 11  1  0
 41 10  1  0
 11 12  2  0
 13 14  1  0
 30 13  1  0
 14 15  1  0
 16 17  1  0
 16 34  1  6
 17 21  1  6
 17 31  1  0
 18 36  1  6
 19 37  1  6
 19 38  1  0
 38 20  1  0
 21 22  1  0
 22 23  2  0
 22 27  1  0
 23 24  1  0
 24 25  2  0
 26 25  1  0
 27 26  2  0
 28 29  1  0
 28 39  1  1
 29 40  1  0
 41 30  1  6
 41 32  2  0
 41 33  2  0
M  END
$$$$
