
     RDKit          3D

 41 44  0  0  0  0  0  0  0  0999 V2000
   73.1187   55.5399   13.9046 C   0  0  0  0  0  0  0  0  0  0  0  0
   71.3028   55.8314   15.7137 C   0  0  0  0  0  0  0  0  0  0  0  0
   72.1774   59.7239   17.5383 C   0  0  0  0  0  0  0  0  0  0  0  0
   73.5137   62.9004   18.9601 C   0  0  0  0  0  0  0  0  0  0  0  0
   74.2488   60.7773   19.5649 C   0  0  1  0  0  0  0  0  0  0  0  0
   73.4041   60.6039   20.8035 C   0  0  0  0  0  0  0  0  0  0  0  0
   67.3391   50.8886   13.4345 C   0  0  0  0  0  0  0  0  0  0  0  0
   67.9859   50.6931   14.6200 C   0  0  0  0  0  0  0  0  0  0  0  0
   68.5327   51.7629   15.3297 C   0  0  0  0  0  0  0  0  0  0  0  0
   68.4234   53.0213   14.8400 C   0  0  0  0  0  0  0  0  0  0  0  0
   67.7748   53.2381   13.6457 C   0  0  0  0  0  0  0  0  0  0  0  0
   67.2421   52.1973   12.9537 C   0  0  0  0  0  0  0  0  0  0  0  0
   71.1832   53.9866   14.1576 C   0  0  0  0  0  0  0  0  0  0  0  0
   72.6840   54.1462   14.3025 C   0  0  2  0  0  0  0  0  0  0  0  0
   73.0876   53.8577   15.7124 C   0  0  0  0  0  0  0  0  0  0  0  0
   71.0363   57.2713   15.3261 C   0  0  2  0  0  0  0  0  0  0  0  0
   70.6325   58.0378   16.5372 C   0  0  2  0  0  0  0  0  0  0  0  0
   73.5540   61.4829   18.4481 C   0  0  1  0  0  0  0  0  0  0  0  0
   75.1965   61.8729   20.0217 C   0  0  1  0  0  0  0  0  0  0  0  0
   74.4116   60.9474   21.8933 C   0  0  0  0  0  0  0  0  0  0  0  0
   69.1367   58.2441   16.5281 C   0  0  0  0  0  0  0  0  0  0  0  0
   68.6924   58.8857   17.7979 C   0  0  0  0  0  0  0  0  0  0  0  0
   68.5864   60.2499   17.9186 C   0  0  0  0  0  0  0  0  0  0  0  0
   68.1874   60.7938   19.1060 C   0  0  0  0  0  0  0  0  0  0  0  0
   67.8820   60.0187   20.2062 C   0  0  0  0  0  0  0  0  0  0  0  0
   67.9922   58.6527   20.0730 C   0  0  0  0  0  0  0  0  0  0  0  0
   68.3942   58.0900   18.8786 C   0  0  0  0  0  0  0  0  0  0  0  0
   66.7251   49.8570   12.5826 C   0  0  1  0  0  0  0  0  0  0  0  0
   67.3129   49.7683   11.2113 C   0  0  0  0  0  0  0  0  0  0  0  0
   70.4921   54.9619   14.9394 N   0  0  0  0  0  0  0  0  0  0  0  0
   71.2033   59.3893   16.5697 N   0  0  0  0  0  0  0  0  0  0  0  0
   69.3539   54.0881   17.1249 O   0  0  0  0  0  0  0  0  0  0  0  0
   68.0711   55.5261   15.6760 O   0  0  0  0  0  0  0  0  0  0  0  0
   69.9946   57.3972   14.4052 O   0  0  0  0  0  0  0  0  0  0  0  0
   72.9970   58.8300   17.8610 O   0  0  0  0  0  0  0  0  0  0  0  0
   72.2835   60.9627   18.1483 O   0  0  0  0  0  0  0  0  0  0  0  0
   74.4538   63.0227   19.9696 O   0  0  0  0  0  0  0  0  0  0  0  0
   75.5255   61.4737   21.2928 O   0  0  0  0  0  0  0  0  0  0  0  0
   66.9162   48.6171   13.2240 O   0  0  0  0  0  0  0  0  0  0  0  0
   66.3930   49.5845   10.2052 O   0  0  0  0  0  0  0  0  0  0  0  0
   69.0854   54.3868   15.6992 S   0  0  2  0  0  6  0  0  0  0  0  0
 14  1  1  1
  2 16  1  0
 30  2  1  0
 31  3  1  0
  3 35  2  0
  3 36  1  0
 18  4  1  0
  4 37  1  0
  5  6  1  1
 18  5  1  0
  5 19  1  0
  6 20  1  0
  8  7  2  0
 12  7  1  0
  7 28  1  0
  9  8  1  0
 10  9  2  0
 10 11  1  0
 41 10  1  0
 11 12  2  0
 13 14  1  0
 30 13  1  0
 14 15  1  0
 16 17  1  0
 16 34  1  6
 17 21  1  6
 17 31  1  0
 18 36  1  1
 19 37  1  1
 19 38  1  0
 38 20  1  0
 21 22  1  0
 22 23  2  0
 22 27  1  0
 23 24  1  0
 24 25  2  0
 26 25  1  0
 27 26  2  0
 28 29  1  0
 28 39  1  1
 29 40  1  0
 41 30  1  6
 41 32  2  0
 41 33  2  0
M  END
$$$$
