
     RDKit          3D

 41 44  0  0  0  0  0  0  0  0999 V2000
   73.3284   54.6911   15.2637 C   0  0  0  0  0  0  0  0  0  0  0  0
   71.3980   56.2604   15.1954 C   0  0  0  0  0  0  0  0  0  0  0  0
   72.0195   58.6451   18.5745 C   0  0  0  0  0  0  0  0  0  0  0  0
   74.5446   60.4600   18.6556 C   0  0  0  0  0  0  0  0  0  0  0  0
   72.9681   60.6561   20.3554 C   0  0  1  0  0  0  0  0  0  0  0  0
   71.7767   61.0143   19.5010 C   0  0  0  0  0  0  0  0  0  0  0  0
   66.8244   51.6868   13.2205 C   0  0  0  0  0  0  0  0  0  0  0  0
   67.8519   51.2845   14.0231 C   0  0  0  0  0  0  0  0  0  0  0  0
   68.6178   52.2091   14.7343 C   0  0  0  0  0  0  0  0  0  0  0  0
   68.3423   53.5317   14.6318 C   0  0  0  0  0  0  0  0  0  0  0  0
   67.3099   53.9564   13.8271 C   0  0  0  0  0  0  0  0  0  0  0  0
   66.5636   53.0571   13.1340 C   0  0  0  0  0  0  0  0  0  0  0  0
   71.2934   54.2241   13.8985 C   0  0  0  0  0  0  0  0  0  0  0  0
   72.7820   54.5104   13.8642 C   0  0  2  0  0  0  0  0  0  0  0  0
   73.4935   53.3959   13.1674 C   0  0  0  0  0  0  0  0  0  0  0  0
   70.6471   57.5755   15.2307 C   0  0  2  0  0  0  0  0  0  0  0  0
   70.5592   58.0517   16.6388 C   0  0  2  0  0  0  0  0  0  0  0  0
   73.8791   59.6481   19.7376 C   0  0  1  0  0  0  0  0  0  0  0  0
   73.8133   61.9084   20.1988 C   0  0  1  0  0  0  0  0  0  0  0  0
   71.7336   62.5265   19.6809 C   0  0  0  0  0  0  0  0  0  0  0  0
   69.7019   59.2932   16.6988 C   0  0  0  0  0  0  0  0  0  0  0  0
   69.0215   59.3921   18.0212 C   0  0  0  0  0  0  0  0  0  0  0  0
   68.3991   58.3104   18.5952 C   0  0  0  0  0  0  0  0  0  0  0  0
   67.7772   58.4515   19.8027 C   0  0  0  0  0  0  0  0  0  0  0  0
   67.7471   59.6533   20.4805 C   0  0  0  0  0  0  0  0  0  0  0  0
   68.3742   60.7303   19.8949 C   0  0  0  0  0  0  0  0  0  0  0  0
   69.0066   60.6013   18.6750 C   0  0  0  0  0  0  0  0  0  0  0  0
   65.9449   50.8257   12.4131 C   0  0  1  0  0  0  0  0  0  0  0  0
   66.3909   49.4014   12.3330 C   0  0  0  0  0  0  0  0  0  0  0  0
   70.5945   55.2583   14.5929 N   0  0  0  0  0  0  0  0  0  0  0  0
   71.8598   58.4600   17.1819 N   0  0  0  0  0  0  0  0  0  0  0  0
   69.7224   54.2265   16.8311 O   0  0  0  0  0  0  0  0  0  0  0  0
   68.3898   55.9367   15.7766 O   0  0  0  0  0  0  0  0  0  0  0  0
   69.3368   57.4603   14.7630 O   0  0  0  0  0  0  0  0  0  0  0  0
   70.9979   58.9572   19.2333 O   0  0  0  0  0  0  0  0  0  0  0  0
   73.2197   58.5064   19.2514 O   0  0  0  0  0  0  0  0  0  0  0  0
   74.3703   61.8015   18.9520 O   0  0  0  0  0  0  0  0  0  0  0  0
   72.8853   62.9127   20.3154 O   0  0  0  0  0  0  0  0  0  0  0  0
   64.6691   50.8540   13.0104 O   0  0  0  0  0  0  0  0  0  0  0  0
   67.3767   49.1618   11.4040 O   0  0  0  0  0  0  0  0  0  0  0  0
   69.2696   54.7192   15.5098 S   0  0  2  0  0  6  0  0  0  0  0  0
 14  1  1  1
  2 16  1  0
 30  2  1  0
 31  3  1  0
  3 35  2  0
  3 36  1  0
 18  4  1  0
  4 37  1  0
  5  6  1  6
 18  5  1  0
  5 19  1  0
  6 20  1  0
  8  7  2  0
 12  7  1  0
  7 28  1  0
  9  8  1  0
 10  9  2  0
 10 11  1  0
 41 10  1  0
 11 12  2  0
 13 14  1  0
 30 13  1  0
 14 15  1  0
 16 17  1  0
 16 34  1  1
 17 21  1  6
 17 31  1  0
 18 36  1  6
 19 37  1  6
 19 38  1  0
 38 20  1  0
 21 22  1  0
 22 23  2  0
 22 27  1  0
 23 24  1  0
 24 25  2  0
 26 25  1  0
 27 26  2  0
 28 29  1  0
 28 39  1  1
 29 40  1  0
 41 30  1  6
 41 32  2  0
 41 33  2  0
M  END
$$$$
