
     RDKit          3D

 41 44  0  0  0  0  0  0  0  0999 V2000
   74.0654   54.3619   14.2745 C   0  0  0  0  0  0  0  0  0  0  0  0
   70.6808   56.8008   14.2261 C   0  0  0  0  0  0  0  0  0  0  0  0
   72.9793   58.6866   17.7123 C   0  0  0  0  0  0  0  0  0  0  0  0
   75.1213   60.0924   18.6231 C   0  0  0  0  0  0  0  0  0  0  0  0
   73.6448   60.6176   20.3429 C   0  0  1  0  0  0  0  0  0  0  0  0
   72.6326   61.3851   19.5280 C   0  0  0  0  0  0  0  0  0  0  0  0
   66.9426   51.4825   13.6783 C   0  0  0  0  0  0  0  0  0  0  0  0
   67.8498   51.3143   14.6836 C   0  0  0  0  0  0  0  0  0  0  0  0
   68.5305   52.4019   15.2321 C   0  0  0  0  0  0  0  0  0  0  0  0
   68.2916   53.6507   14.7641 C   0  0  0  0  0  0  0  0  0  0  0  0
   67.3802   53.8401   13.7504 C   0  0  0  0  0  0  0  0  0  0  0  0
   66.7170   52.7818   13.2154 C   0  0  0  0  0  0  0  0  0  0  0  0
   71.6653   54.6900   14.8703 C   0  0  0  0  0  0  0  0  0  0  0  0
   72.9040   55.3319   14.2763 C   0  0  2  0  0  0  0  0  0  0  0  0
   72.6128   55.7980   12.8864 C   0  0  0  0  0  0  0  0  0  0  0  0
   71.7049   57.3927   15.1723 C   0  0  2  0  0  0  0  0  0  0  0  0
   71.0485   57.7040   16.4720 C   0  0  2  0  0  0  0  0  0  0  0  0
   74.2222   59.4348   19.6391 C   0  0  1  0  0  0  0  0  0  0  0  0
   74.8302   61.5655   20.2843 C   0  0  1  0  0  0  0  0  0  0  0  0
   73.0427   62.8206   19.8315 C   0  0  0  0  0  0  0  0  0  0  0  0
   69.6257   58.1455   16.2256 C   0  0  0  0  0  0  0  0  0  0  0  0
   69.0124   58.6519   17.4861 C   0  0  0  0  0  0  0  0  0  0  0  0
   69.0488   59.9833   17.8222 C   0  0  0  0  0  0  0  0  0  0  0  0
   68.4846   60.3995   18.9941 C   0  0  0  0  0  0  0  0  0  0  0  0
   67.8706   59.5255   19.8681 C   0  0  0  0  0  0  0  0  0  0  0  0
   67.8407   58.1936   19.5202 C   0  0  0  0  0  0  0  0  0  0  0  0
   68.4069   57.7596   18.3388 C   0  0  0  0  0  0  0  0  0  0  0  0
   66.1630   50.4300   13.0066 C   0  0  1  0  0  0  0  0  0  0  0  0
   66.3648   50.3709   11.5268 C   0  0  0  0  0  0  0  0  0  0  0  0
   70.4933   55.4239   14.5125 N   0  0  0  0  0  0  0  0  0  0  0  0
   71.6805   58.8283   17.1719 N   0  0  0  0  0  0  0  0  0  0  0  0
   69.4740   54.8601   16.8531 O   0  0  0  0  0  0  0  0  0  0  0  0
   68.1844   56.2452   15.3593 O   0  0  0  0  0  0  0  0  0  0  0  0
   72.2471   58.5890   14.6993 O   0  0  0  0  0  0  0  0  0  0  0  0
   73.9372   58.6483   16.9024 O   0  0  0  0  0  0  0  0  0  0  0  0
   73.2593   58.5874   19.0650 O   0  0  0  0  0  0  0  0  0  0  0  0
   75.3527   61.3959   19.0295 O   0  0  0  0  0  0  0  0  0  0  0  0
   74.2451   62.7900   20.4884 O   0  0  0  0  0  0  0  0  0  0  0  0
   66.5666   49.1965   13.5551 O   0  0  0  0  0  0  0  0  0  0  0  0
   65.4979   49.5335   10.8640 O   0  0  0  0  0  0  0  0  0  0  0  0
   69.1146   55.0378   15.4273 S   0  0  2  0  0  6  0  0  0  0  0  0
 14  1  1  6
  2 16  1  0
 30  2  1  0
 31  3  1  0
  3 35  2  0
  3 36  1  0
 18  4  1  0
  4 37  1  0
  5  6  1  6
 18  5  1  0
  5 19  1  0
  6 20  1  0
  8  7  2  0
 12  7  1  0
  7 28  1  0
  9  8  1  0
 10  9  2  0
 10 11  1  0
 41 10  1  0
 11 12  2  0
 13 14  1  0
 30 13  1  0
 14 15  1  0
 16 17  1  0
 16 34  1  6
 17 21  1  6
 17 31  1  0
 18 36  1  6
 19 37  1  6
 19 38  1  0
 38 20  1  0
 21 22  1  0
 22 23  2  0
 22 27  1  0
 23 24  1  0
 24 25  2  0
 26 25  1  0
 27 26  2  0
 28 29  1  0
 28 39  1  1
 29 40  1  0
 41 30  1  6
 41 32  2  0
 41 33  2  0
M  END
$$$$
