
     RDKit          3D

 41 44  0  0  0  0  0  0  0  0999 V2000
   73.9718   55.4918   15.1785 C   0  0  0  0  0  0  0  0  0  0  0  0
   70.0240   56.3102   14.5489 C   0  0  0  0  0  0  0  0  0  0  0  0
   72.3897   59.1557   17.6015 C   0  0  0  0  0  0  0  0  0  0  0  0
   75.2469   61.0037   18.9260 C   0  0  0  0  0  0  0  0  0  0  0  0
   73.2687   61.1133   20.1460 C   0  0  1  0  0  0  0  0  0  0  0  0
   72.8207   62.4848   19.7029 C   0  0  0  0  0  0  0  0  0  0  0  0
   66.9508   51.0434   13.9005 C   0  0  0  0  0  0  0  0  0  0  0  0
   66.4381   52.3079   13.8882 C   0  0  0  0  0  0  0  0  0  0  0  0
   67.0735   53.3518   14.5618 C   0  0  0  0  0  0  0  0  0  0  0  0
   68.2207   53.1139   15.2422 C   0  0  0  0  0  0  0  0  0  0  0  0
   68.7528   51.8449   15.2662 C   0  0  0  0  0  0  0  0  0  0  0  0
   68.1349   50.8277   14.6109 C   0  0  0  0  0  0  0  0  0  0  0  0
   71.6068   54.8729   15.6751 C   0  0  0  0  0  0  0  0  0  0  0  0
   72.6566   55.0268   14.5920 C   0  0  2  0  0  0  0  0  0  0  0  0
   72.8364   53.7272   13.8762 C   0  0  0  0  0  0  0  0  0  0  0  0
   71.0610   57.3221   14.9906 C   0  0  2  0  0  0  0  0  0  0  0  0
   70.6760   57.8691   16.3209 C   0  0  2  0  0  0  0  0  0  0  0  0
   73.9173   60.3077   19.0699 C   0  0  1  0  0  0  0  0  0  0  0  0
   74.4869   61.4711   20.9798 C   0  0  1  0  0  0  0  0  0  0  0  0
   73.2607   63.3323   20.8898 C   0  0  0  0  0  0  0  0  0  0  0  0
   69.2048   58.2089   16.3200 C   0  0  0  0  0  0  0  0  0  0  0  0
   68.8310   58.9053   17.5837 C   0  0  0  0  0  0  0  0  0  0  0  0
   67.5446   59.3230   17.8242 C   0  0  0  0  0  0  0  0  0  0  0  0
   67.2514   59.9688   18.9912 C   0  0  0  0  0  0  0  0  0  0  0  0
   68.2076   60.2234   19.9532 C   0  0  0  0  0  0  0  0  0  0  0  0
   69.4933   59.8001   19.7006 C   0  0  0  0  0  0  0  0  0  0  0  0
   69.8031   59.1462   18.5253 C   0  0  0  0  0  0  0  0  0  0  0  0
   66.3844   49.8541   13.2436 C   0  0  1  0  0  0  0  0  0  0  0  0
   66.0390   50.0581   11.8038 C   0  0  0  0  0  0  0  0  0  0  0  0
   70.2950   55.0482   15.1378 N   0  0  0  0  0  0  0  0  0  0  0  0
   71.3580   59.1299   16.6350 N   0  0  0  0  0  0  0  0  0  0  0  0
   69.5807   53.9549   17.4027 O   0  0  0  0  0  0  0  0  0  0  0  0
   68.0647   55.5212   16.3725 O   0  0  0  0  0  0  0  0  0  0  0  0
   71.1563   58.4102   14.1211 O   0  0  0  0  0  0  0  0  0  0  0  0
   72.5928   58.1024   18.2529 O   0  0  0  0  0  0  0  0  0  0  0  0
   73.1821   60.2585   17.8732 O   0  0  0  0  0  0  0  0  0  0  0  0
   75.4648   61.7602   20.0654 O   0  0  0  0  0  0  0  0  0  0  0  0
   74.0503   62.5563   21.6977 O   0  0  0  0  0  0  0  0  0  0  0  0
   67.3513   48.8323   13.3233 O   0  0  0  0  0  0  0  0  0  0  0  0
   65.6821   48.9115   11.1329 O   0  0  0  0  0  0  0  0  0  0  0  0
   69.0507   54.3917   16.0904 S   0  0  2  0  0  6  0  0  0  0  0  0
 14  1  1  1
  2 16  1  0
 30  2  1  0
 31  3  1  0
  3 35  2  0
  3 36  1  0
 18  4  1  0
  4 37  1  0
  5  6  1  6
 18  5  1  0
  5 19  1  0
  6 20  1  0
  8  7  2  0
 12  7  1  0
  7 28  1  0
  9  8  1  0
 10  9  2  0
 10 11  1  0
 41 10  1  0
 11 12  2  0
 13 14  1  0
 30 13  1  0
 14 15  1  0
 16 17  1  0
 16 34  1  6
 17 21  1  6
 17 31  1  0
 18 36  1  6
 19 37  1  6
 19 38  1  0
 38 20  1  0
 21 22  1  0
 22 23  2  0
 22 27  1  0
 23 24  1  0
 24 25  2  0
 26 25  1  0
 27 26  2  0
 28 29  1  0
 28 39  1  6
 29 40  1  0
 41 30  1  6
 41 32  2  0
 41 33  2  0
M  END
$$$$
