
     RDKit          3D

 41 44  0  0  0  0  0  0  0  0999 V2000
   74.1070   55.0109   15.0248 C   0  0  0  0  0  0  0  0  0  0  0  0
   69.9084   56.5536   14.1641 C   0  0  0  0  0  0  0  0  0  0  0  0
   72.2556   58.8467   17.7563 C   0  0  0  0  0  0  0  0  0  0  0  0
   74.7631   61.3050   18.7914 C   0  0  0  0  0  0  0  0  0  0  0  0
   73.3015   60.5121   20.4188 C   0  0  1  0  0  0  0  0  0  0  0  0
   72.3705   61.6991   20.4658 C   0  0  0  0  0  0  0  0  0  0  0  0
   67.1137   51.4049   13.2454 C   0  0  0  0  0  0  0  0  0  0  0  0
   68.2072   51.0717   13.9904 C   0  0  0  0  0  0  0  0  0  0  0  0
   68.8750   52.0251   14.7600 C   0  0  0  0  0  0  0  0  0  0  0  0
   68.4358   53.3067   14.7735 C   0  0  0  0  0  0  0  0  0  0  0  0
   67.3345   53.6617   14.0284 C   0  0  0  0  0  0  0  0  0  0  0  0
   66.6836   52.7343   13.2785 C   0  0  0  0  0  0  0  0  0  0  0  0
   71.6786   55.4525   15.3862 C   0  0  0  0  0  0  0  0  0  0  0  0
   72.7059   54.7620   14.5104 C   0  0  2  0  0  0  0  0  0  0  0  0
   72.4221   53.2954   14.4615 C   0  0  0  0  0  0  0  0  0  0  0  0
   70.8564   57.7033   14.4363 C   0  0  2  0  0  0  0  0  0  0  0  0
   70.8115   58.0424   15.8855 C   0  0  2  0  0  0  0  0  0  0  0  0
   73.7945   60.1791   19.0500 C   0  0  1  0  0  0  0  0  0  0  0  0
   74.5607   61.1185   21.0137 C   0  0  1  0  0  0  0  0  0  0  0  0
   72.8897   62.4275   21.6990 C   0  0  0  0  0  0  0  0  0  0  0  0
   69.9996   59.2999   16.0843 C   0  0  0  0  0  0  0  0  0  0  0  0
   69.7022   59.5039   17.5305 C   0  0  0  0  0  0  0  0  0  0  0  0
   69.2501   58.4791   18.3258 C   0  0  0  0  0  0  0  0  0  0  0  0
   68.9784   58.7160   19.6429 C   0  0  0  0  0  0  0  0  0  0  0  0
   69.1411   59.9605   20.2170 C   0  0  0  0  0  0  0  0  0  0  0  0
   69.5946   60.9796   19.4096 C   0  0  0  0  0  0  0  0  0  0  0  0
   69.8731   60.7537   18.0769 C   0  0  0  0  0  0  0  0  0  0  0  0
   66.3225   50.5078   12.3875 C   0  0  1  0  0  0  0  0  0  0  0  0
   66.2286   49.1046   12.8937 C   0  0  0  0  0  0  0  0  0  0  0  0
   70.3787   55.3754   14.7993 N   0  0  0  0  0  0  0  0  0  0  0  0
   72.1356   58.3527   16.4369 N   0  0  0  0  0  0  0  0  0  0  0  0
   69.8703   53.9733   16.9466 O   0  0  0  0  0  0  0  0  0  0  0  0
   68.2025   55.5454   16.1985 O   0  0  0  0  0  0  0  0  0  0  0  0
   70.5099   58.8633   13.7413 O   0  0  0  0  0  0  0  0  0  0  0  0
   71.8587   58.1032   18.6862 O   0  0  0  0  0  0  0  0  0  0  0  0
   72.7772   60.0868   18.0848 O   0  0  0  0  0  0  0  0  0  0  0  0
   75.0916   61.8810   20.0072 O   0  0  0  0  0  0  0  0  0  0  0  0
   74.0729   61.8446   22.0712 O   0  0  0  0  0  0  0  0  0  0  0  0
   65.0190   51.0382   12.3178 O   0  0  0  0  0  0  0  0  0  0  0  0
   65.5873   48.2320   12.0456 O   0  0  0  0  0  0  0  0  0  0  0  0
   69.2364   54.5271   15.7279 S   0  0  2  0  0  6  0  0  0  0  0  0
 14  1  1  1
  2 16  1  0
 30  2  1  0
 31  3  1  0
  3 35  2  0
  3 36  1  0
 18  4  1  0
  4 37  1  0
  5  6  1  6
 18  5  1  0
  5 19  1  0
  6 20  1  0
  8  7  2  0
 12  7  1  0
  7 28  1  0
  9  8  1  0
 10  9  2  0
 10 11  1  0
 41 10  1  0
 11 12  2  0
 13 14  1  0
 30 13  1  0
 14 15  1  0
 16 17  1  0
 16 34  1  6
 17 21  1  6
 17 31  1  0
 18 36  1  6
 19 37  1  6
 19 38  1  0
 38 20  1  0
 21 22  1  0
 22 23  2  0
 22 27  1  0
 23 24  1  0
 24 25  2  0
 26 25  1  0
 27 26  2  0
 28 29  1  0
 28 39  1  1
 29 40  1  0
 41 30  1  6
 41 32  2  0
 41 33  2  0
M  END
$$$$
