
     RDKit          3D

 41 44  0  0  0  0  0  0  0  0999 V2000
   67.1889   54.1885   14.3655 C   0  0  0  0  0  0  0  0  0  0  0  0
   70.6700   56.1793   14.3189 C   0  0  0  0  0  0  0  0  0  0  0  0
   72.6731   57.9502   17.8574 C   0  0  0  0  0  0  0  0  0  0  0  0
   75.7620   59.8058   17.9137 C   0  0  0  0  0  0  0  0  0  0  0  0
   73.9554   59.8301   19.3797 C   0  0  1  0  0  0  0  0  0  0  0  0
   73.0213   60.6796   18.5528 C   0  0  0  0  0  0  0  0  0  0  0  0
   71.2526   50.1174   13.9730 C   0  0  0  0  0  0  0  0  0  0  0  0
   71.7931   51.0924   13.1863 C   0  0  0  0  0  0  0  0  0  0  0  0
   72.0138   52.3791   13.6793 C   0  0  0  0  0  0  0  0  0  0  0  0
   71.6888   52.6733   14.9613 C   0  0  0  0  0  0  0  0  0  0  0  0
   71.1424   51.7029   15.7699 C   0  0  0  0  0  0  0  0  0  0  0  0
   70.9269   50.4499   15.2909 C   0  0  0  0  0  0  0  0  0  0  0  0
   69.3421   54.5871   15.5604 C   0  0  0  0  0  0  0  0  0  0  0  0
   68.2848   55.1906   14.6566 C   0  0  2  0  0  0  0  0  0  0  0  0
   67.7142   56.4149   15.2963 C   0  0  0  0  0  0  0  0  0  0  0  0
   71.0769   57.5436   14.8361 C   0  0  2  0  0  0  0  0  0  0  0  0
   70.7580   57.6322   16.2879 C   0  0  2  0  0  0  0  0  0  0  0  0
   74.7794   58.8766   18.5800 C   0  0  1  0  0  0  0  0  0  0  0  0
   75.0160   60.8537   19.7467 C   0  0  1  0  0  0  0  0  0  0  0  0
   73.2042   62.0403   19.2130 C   0  0  0  0  0  0  0  0  0  0  0  0
   69.3963   58.2594   16.4679 C   0  0  0  0  0  0  0  0  0  0  0  0
   69.3371   59.0147   17.7515 C   0  0  0  0  0  0  0  0  0  0  0  0
   69.4698   60.3814   17.7913 C   0  0  0  0  0  0  0  0  0  0  0  0
   69.4217   61.0297   18.9923 C   0  0  0  0  0  0  0  0  0  0  0  0
   69.2431   60.3594   20.1853 C   0  0  0  0  0  0  0  0  0  0  0  0
   69.1116   58.9897   20.1324 C   0  0  0  0  0  0  0  0  0  0  0  0
   69.1581   58.3221   18.9254 C   0  0  0  0  0  0  0  0  0  0  0  0
   70.9607   48.7283   13.5830 C   0  0  1  0  0  0  0  0  0  0  0  0
   71.8349   48.2045   12.4897 C   0  0  0  0  0  0  0  0  0  0  0  0
   70.5932   55.2557   15.3931 N   0  0  0  0  0  0  0  0  0  0  0  0
   71.6807   58.5082   17.0191 N   0  0  0  0  0  0  0  0  0  0  0  0
   73.1646   54.9174   15.0640 O   0  0  0  0  0  0  0  0  0  0  0  0
   72.1753   54.1502   17.1244 O   0  0  0  0  0  0  0  0  0  0  0  0
   70.3891   58.5844   14.2095 O   0  0  0  0  0  0  0  0  0  0  0  0
   72.2816   57.2695   18.8363 O   0  0  0  0  0  0  0  0  0  0  0  0
   74.0364   58.1059   17.6697 O   0  0  0  0  0  0  0  0  0  0  0  0
   75.7673   61.0023   18.6110 O   0  0  0  0  0  0  0  0  0  0  0  0
   74.2676   61.9565   20.0736 O   0  0  0  0  0  0  0  0  0  0  0  0
   71.1540   47.9244   14.7239 O   0  0  0  0  0  0  0  0  0  0  0  0
   71.6273   46.8815   12.1753 O   0  0  0  0  0  0  0  0  0  0  0  0
   71.9558   54.2661   15.6191 S   0  0  2  0  0  6  0  0  0  0  0  0
 14  1  1  1
  2 16  1  0
 30  2  1  0
 31  3  1  0
  3 35  2  0
  3 36  1  0
 18  4  1  0
  4 37  1  0
  5  6  1  6
 18  5  1  0
  5 19  1  0
  6 20  1  0
  8  7  2  0
 12  7  1  0
  7 28  1  0
  9  8  1  0
 10  9  2  0
 10 11  1  0
 41 10  1  0
 11 12  2  0
 13 14  1  0
 30 13  1  0
 14 15  1  0
 16 17  1  0
 16 34  1  6
 17 21  1  6
 17 31  1  0
 18 36  1  6
 19 37  1  6
 19 38  1  0
 38 20  1  0
 21 22  1  0
 22 23  2  0
 22 27  1  0
 23 24  1  0
 24 25  2  0
 26 25  1  0
 27 26  2  0
 28 29  1  0
 28 39  1  1
 29 40  1  0
 41 30  1  1
 41 32  2  0
 41 33  2  0
M  END
$$$$
