
     RDKit          3D

 41 44  0  0  0  0  0  0  0  0999 V2000
   74.0055   55.1598   14.5171 C   0  0  0  0  0  0  0  0  0  0  0  0
   71.7108   56.4297   15.1766 C   0  0  0  0  0  0  0  0  0  0  0  0
   71.9262   58.8456   18.4884 C   0  0  0  0  0  0  0  0  0  0  0  0
   74.6639   60.7127   18.9027 C   0  0  0  0  0  0  0  0  0  0  0  0
   72.6430   60.9762   20.0253 C   0  0  1  0  0  0  0  0  0  0  0  0
   71.7845   61.3357   18.8372 C   0  0  0  0  0  0  0  0  0  0  0  0
   67.1041   51.7284   13.7418 C   0  0  0  0  0  0  0  0  0  0  0  0
   68.0228   51.4501   14.7116 C   0  0  0  0  0  0  0  0  0  0  0  0
   68.7733   52.4640   15.3081 C   0  0  0  0  0  0  0  0  0  0  0  0
   68.5922   53.7504   14.9235 C   0  0  0  0  0  0  0  0  0  0  0  0
   67.6703   54.0504   13.9468 C   0  0  0  0  0  0  0  0  0  0  0  0
   66.9391   53.0641   13.3651 C   0  0  0  0  0  0  0  0  0  0  0  0
   71.8099   54.0333   14.8822 C   0  0  0  0  0  0  0  0  0  0  0  0
   72.9938   54.1892   13.9477 C   0  0  2  0  0  0  0  0  0  0  0  0
   73.6273   52.8565   13.7102 C   0  0  0  0  0  0  0  0  0  0  0  0
   70.7440   57.5957   15.1658 C   0  0  2  0  0  0  0  0  0  0  0  0
   70.5397   58.0755   16.5606 C   0  0  2  0  0  0  0  0  0  0  0  0
   73.6762   59.9381   19.7377 C   0  0  1  0  0  0  0  0  0  0  0  0
   73.5252   62.2093   20.1183 C   0  0  1  0  0  0  0  0  0  0  0  0
   71.7242   62.8521   18.9698 C   0  0  0  0  0  0  0  0  0  0  0  0
   69.4190   59.0870   16.5870 C   0  0  0  0  0  0  0  0  0  0  0  0
   69.0192   59.3839   17.9918 C   0  0  0  0  0  0  0  0  0  0  0  0
   69.0710   60.6579   18.5030 C   0  0  0  0  0  0  0  0  0  0  0  0
   68.7069   60.8802   19.8003 C   0  0  0  0  0  0  0  0  0  0  0  0
   68.2831   59.8635   20.6317 C   0  0  0  0  0  0  0  0  0  0  0  0
   68.2356   58.5909   20.1079 C   0  0  0  0  0  0  0  0  0  0  0  0
   68.6006   58.3524   18.7984 C   0  0  0  0  0  0  0  0  0  0  0  0
   66.2540   50.7623   13.0270 C   0  0  1  0  0  0  0  0  0  0  0  0
   64.8850   50.6076   13.6067 C   0  0  0  0  0  0  0  0  0  0  0  0
   71.0188   55.2223   14.9005 N   0  0  0  0  0  0  0  0  0  0  0  0
   71.7077   58.7868   17.0927 N   0  0  0  0  0  0  0  0  0  0  0  0
   69.6664   54.8824   17.1120 O   0  0  0  0  0  0  0  0  0  0  0  0
   68.7518   56.3590   15.4399 O   0  0  0  0  0  0  0  0  0  0  0  0
   69.4853   57.2473   14.6724 O   0  0  0  0  0  0  0  0  0  0  0  0
   70.9147   58.9495   19.2241 O   0  0  0  0  0  0  0  0  0  0  0  0
   73.1728   58.7973   19.0897 O   0  0  0  0  0  0  0  0  0  0  0  0
   74.4387   62.0636   19.1081 O   0  0  0  0  0  0  0  0  0  0  0  0
   72.6313   63.2324   19.9243 O   0  0  0  0  0  0  0  0  0  0  0  0
   66.1210   51.2229   11.7020 O   0  0  0  0  0  0  0  0  0  0  0  0
   63.9935   49.9409   12.7988 O   0  0  0  0  0  0  0  0  0  0  0  0
   69.5036   55.0481   15.6492 S   0  0  2  0  0  6  0  0  0  0  0  0
 14  1  1  1
  2 16  1  0
 30  2  1  0
 31  3  1  0
  3 35  2  0
  3 36  1  0
 18  4  1  0
  4 37  1  0
  5  6  1  6
 18  5  1  0
  5 19  1  0
  6 20  1  0
  8  7  2  0
 12  7  1  0
  7 28  1  0
  9  8  1  0
 10  9  2  0
 10 11  1  0
 41 10  1  0
 11 12  2  0
 13 14  1  0
 30 13  1  0
 14 15  1  0
 16 17  1  0
 16 34  1  1
 17 21  1  6
 17 31  1  0
 18 36  1  6
 19 37  1  6
 19 38  1  0
 38 20  1  0
 21 22  1  0
 22 23  2  0
 22 27  1  0
 23 24  1  0
 24 25  2  0
 26 25  1  0
 27 26  2  0
 28 29  1  0
 28 39  1  6
 29 40  1  0
 41 30  1  6
 41 32  2  0
 41 33  2  0
M  END
$$$$
