
     RDKit          3D

 41 44  0  0  0  0  0  0  0  0999 V2000
   73.6665   54.2252   14.8976 C   0  0  0  0  0  0  0  0  0  0  0  0
   71.7268   55.7946   15.0989 C   0  0  0  0  0  0  0  0  0  0  0  0
   72.5024   59.0351   17.9947 C   0  0  0  0  0  0  0  0  0  0  0  0
   74.9513   61.6655   18.9346 C   0  0  0  0  0  0  0  0  0  0  0  0
   73.2774   60.9525   20.3849 C   0  0  1  0  0  0  0  0  0  0  0  0
   72.2923   62.0692   20.1389 C   0  0  0  0  0  0  0  0  0  0  0  0
   67.3845   51.0280   13.0888 C   0  0  0  0  0  0  0  0  0  0  0  0
   66.9327   52.3152   13.1132 C   0  0  0  0  0  0  0  0  0  0  0  0
   67.6139   53.3068   13.8204 C   0  0  0  0  0  0  0  0  0  0  0  0
   68.7452   52.9939   14.4971 C   0  0  0  0  0  0  0  0  0  0  0  0
   69.2161   51.7008   14.4842 C   0  0  0  0  0  0  0  0  0  0  0  0
   68.5536   50.7345   13.7962 C   0  0  0  0  0  0  0  0  0  0  0  0
   71.5536   53.8972   13.6127 C   0  0  0  0  0  0  0  0  0  0  0  0
   73.0368   54.1990   13.5219 C   0  0  2  0  0  0  0  0  0  0  0  0
   73.7073   53.1771   12.6618 C   0  0  0  0  0  0  0  0  0  0  0  0
   71.1047   57.1736   15.0212 C   0  0  2  0  0  0  0  0  0  0  0  0
   71.0723   57.7738   16.3834 C   0  0  2  0  0  0  0  0  0  0  0  0
   74.0119   60.5089   19.1636 C   0  0  1  0  0  0  0  0  0  0  0  0
   74.3847   61.7068   21.1006 C   0  0  1  0  0  0  0  0  0  0  0  0
   72.5567   62.9615   21.3450 C   0  0  0  0  0  0  0  0  0  0  0  0
   70.1976   59.0046   16.3717 C   0  0  0  0  0  0  0  0  0  0  0  0
   69.6756   59.2849   17.7394 C   0  0  0  0  0  0  0  0  0  0  0  0
   69.2173   58.2804   18.5567 C   0  0  0  0  0  0  0  0  0  0  0  0
   68.7360   58.5863   19.7976 C   0  0  0  0  0  0  0  0  0  0  0  0
   68.6899   59.8816   20.2717 C   0  0  0  0  0  0  0  0  0  0  0  0
   69.1519   60.8796   19.4431 C   0  0  0  0  0  0  0  0  0  0  0  0
   69.6411   60.5842   18.1868 C   0  0  0  0  0  0  0  0  0  0  0  0
   66.7653   49.8874   12.3942 C   0  0  1  0  0  0  0  0  0  0  0  0
   65.8755   49.0551   13.2599 C   0  0  0  0  0  0  0  0  0  0  0  0
   70.8933   54.8483   14.4490 N   0  0  0  0  0  0  0  0  0  0  0  0
   72.3890   58.2464   16.8267 N   0  0  0  0  0  0  0  0  0  0  0  0
   70.1530   53.6966   16.6763 O   0  0  0  0  0  0  0  0  0  0  0  0
   68.6924   55.3598   15.7206 O   0  0  0  0  0  0  0  0  0  0  0  0
   69.7861   57.1445   14.5635 O   0  0  0  0  0  0  0  0  0  0  0  0
   71.9475   58.6043   19.0346 O   0  0  0  0  0  0  0  0  0  0  0  0
   73.1792   60.2414   18.0636 O   0  0  0  0  0  0  0  0  0  0  0  0
   75.0388   62.3913   20.1108 O   0  0  0  0  0  0  0  0  0  0  0  0
   73.6880   62.5069   21.9711 O   0  0  0  0  0  0  0  0  0  0  0  0
   65.9894   50.4108   11.3409 O   0  0  0  0  0  0  0  0  0  0  0  0
   65.3086   47.9740   12.6259 O   0  0  0  0  0  0  0  0  0  0  0  0
   69.6310   54.2044   15.3865 S   0  0  2  0  0  6  0  0  0  0  0  0
 14  1  1  1
  2 16  1  0
 30  2  1  0
 31  3  1  0
  3 35  2  0
  3 36  1  0
 18  4  1  0
  4 37  1  0
  5  6  1  6
 18  5  1  0
  5 19  1  0
  6 20  1  0
  8  7  2  0
 12  7  1  0
  7 28  1  0
  9  8  1  0
 10  9  2  0
 10 11  1  0
 41 10  1  0
 11 12  2  0
 13 14  1  0
 30 13  1  0
 14 15  1  0
 16 17  1  0
 16 34  1  1
 17 21  1  6
 17 31  1  0
 18 36  1  6
 19 37  1  6
 19 38  1  0
 38 20  1  0
 21 22  1  0
 22 23  2  0
 22 27  1  0
 23 24  1  0
 24 25  2  0
 26 25  1  0
 27 26  2  0
 28 29  1  0
 28 39  1  6
 29 40  1  0
 41 30  1  6
 41 32  2  0
 41 33  2  0
M  END
$$$$
