
     RDKit          3D

 41 44  0  0  0  0  0  0  0  0999 V2000
   68.0679   53.8996   15.8570 C   0  0  0  0  0  0  0  0  0  0  0  0
   70.0721   55.8246   16.2477 C   0  0  0  0  0  0  0  0  0  0  0  0
   72.4615   57.7477   17.7772 C   0  0  0  0  0  0  0  0  0  0  0  0
   74.7780   60.5039   17.4588 C   0  0  0  0  0  0  0  0  0  0  0  0
   73.7715   59.5826   19.3434 C   0  0  1  0  0  0  0  0  0  0  0  0
   72.4167   60.2322   19.2006 C   0  0  0  0  0  0  0  0  0  0  0  0
   72.8942   50.4645   13.7285 C   0  0  0  0  0  0  0  0  0  0  0  0
   73.1876   50.9764   14.9588 C   0  0  0  0  0  0  0  0  0  0  0  0
   72.9041   52.3057   15.2746 C   0  0  0  0  0  0  0  0  0  0  0  0
   72.3267   53.1089   14.3488 C   0  0  0  0  0  0  0  0  0  0  0  0
   72.0236   52.6104   13.1024 C   0  0  0  0  0  0  0  0  0  0  0  0
   72.2993   51.3164   12.7936 C   0  0  0  0  0  0  0  0  0  0  0  0
   69.4037   55.0165   14.0706 C   0  0  0  0  0  0  0  0  0  0  0  0
   68.0210   54.5654   14.4989 C   0  0  2  0  0  0  0  0  0  0  0  0
   67.0942   55.7377   14.5256 C   0  0  0  0  0  0  0  0  0  0  0  0
   70.5145   57.2282   15.8890 C   0  0  2  0  0  0  0  0  0  0  0  0
   70.1297   58.1584   16.9861 C   0  0  2  0  0  0  0  0  0  0  0  0
   74.3891   59.1719   18.0481 C   0  0  1  0  0  0  0  0  0  0  0  0
   74.6296   60.7913   19.6746 C   0  0  1  0  0  0  0  0  0  0  0  0
   72.5418   61.3862   20.1873 C   0  0  0  0  0  0  0  0  0  0  0  0
   69.9208   59.5437   16.4229 C   0  0  0  0  0  0  0  0  0  0  0  0
   69.4230   60.4664   17.4823 C   0  0  0  0  0  0  0  0  0  0  0  0
   68.9054   59.9955   18.6644 C   0  0  0  0  0  0  0  0  0  0  0  0
   68.4492   60.8785   19.6010 C   0  0  0  0  0  0  0  0  0  0  0  0
   68.4867   62.2443   19.4066 C   0  0  0  0  0  0  0  0  0  0  0  0
   69.0076   62.7040   18.2177 C   0  0  0  0  0  0  0  0  0  0  0  0
   69.4722   61.8226   17.2628 C   0  0  0  0  0  0  0  0  0  0  0  0
   73.1436   49.0913   13.2606 C   0  0  1  0  0  0  0  0  0  0  0  0
   71.9026   48.3005   12.9989 C   0  0  0  0  0  0  0  0  0  0  0  0
   70.3211   54.9446   15.1630 N   0  0  0  0  0  0  0  0  0  0  0  0
   71.1838   58.3124   17.9954 N   0  0  0  0  0  0  0  0  0  0  0  0
   72.2674   55.6843   13.5818 O   0  0  0  0  0  0  0  0  0  0  0  0
   72.7932   55.2308   15.8906 O   0  0  0  0  0  0  0  0  0  0  0  0
   69.9056   57.7043   14.7264 O   0  0  0  0  0  0  0  0  0  0  0  0
   72.6255   56.5503   18.1153 O   0  0  0  0  0  0  0  0  0  0  0  0
   73.5335   58.4251   17.2204 O   0  0  0  0  0  0  0  0  0  0  0  0
   74.7980   61.4395   18.4796 O   0  0  0  0  0  0  0  0  0  0  0  0
   73.8527   61.4718   20.5783 O   0  0  0  0  0  0  0  0  0  0  0  0
   73.8674   49.1853   12.0554 O   0  0  0  0  0  0  0  0  0  0  0  0
   72.1245   47.0063   12.5891 O   0  0  0  0  0  0  0  0  0  0  0  0
   71.9484   54.7735   14.7054 S   0  0  2  0  0  6  0  0  0  0  0  0
 14  1  1  1
  2 16  1  0
 30  2  1  0
 31  3  1  0
  3 35  2  0
  3 36  1  0
 18  4  1  0
  4 37  1  0
  5  6  1  6
 18  5  1  0
  5 19  1  0
  6 20  1  0
  8  7  2  0
 12  7  1  0
  7 28  1  0
  9  8  1  0
 10  9  2  0
 10 11  1  0
 41 10  1  0
 11 12  2  0
 13 14  1  0
 30 13  1  0
 14 15  1  0
 16 17  1  0
 16 34  1  6
 17 21  1  6
 17 31  1  0
 18 36  1  6
 19 37  1  6
 19 38  1  0
 38 20  1  0
 21 22  1  0
 22 23  2  0
 22 27  1  0
 23 24  1  0
 24 25  2  0
 26 25  1  0
 27 26  2  0
 28 29  1  0
 28 39  1  6
 29 40  1  0
 41 30  1  1
 41 32  2  0
 41 33  2  0
M  END
$$$$
