
     RDKit          3D

 41 44  0  0  0  0  0  0  0  0999 V2000
   71.0588   53.2775   17.9682 C   0  0  0  0  0  0  0  0  0  0  0  0
   71.9797   55.5569   15.6857 C   0  0  0  0  0  0  0  0  0  0  0  0
   72.4257   58.0381   18.4402 C   0  0  0  0  0  0  0  0  0  0  0  0
   75.2686   59.9543   17.2934 C   0  0  0  0  0  0  0  0  0  0  0  0
   74.2328   59.8815   19.3756 C   0  0  1  0  0  0  0  0  0  0  0  0
   73.0516   60.7654   19.0572 C   0  0  0  0  0  0  0  0  0  0  0  0
   71.4437   50.7883   12.1832 C   0  0  0  0  0  0  0  0  0  0  0  0
   71.9280   51.9937   11.7657 C   0  0  0  0  0  0  0  0  0  0  0  0
   71.5060   53.1856   12.3561 C   0  0  0  0  0  0  0  0  0  0  0  0
   70.5999   53.1539   13.3629 C   0  0  0  0  0  0  0  0  0  0  0  0
   70.1001   51.9475   13.7974 C   0  0  0  0  0  0  0  0  0  0  0  0
   70.5100   50.7864   13.2232 C   0  0  0  0  0  0  0  0  0  0  0  0
   69.8513   55.0688   16.7207 C   0  0  0  0  0  0  0  0  0  0  0  0
   69.7046   53.8513   17.6124 C   0  0  2  0  0  0  0  0  0  0  0  0
   68.9543   54.2214   18.8510 C   0  0  0  0  0  0  0  0  0  0  0  0
   71.6769   57.0382   15.5934 C   0  0  2  0  0  0  0  0  0  0  0  0
   70.7509   57.4185   16.6957 C   0  0  2  0  0  0  0  0  0  0  0  0
   74.6381   58.9808   18.2566 C   0  0  1  0  0  0  0  0  0  0  0  0
   75.3639   60.8939   19.3238 C   0  0  1  0  0  0  0  0  0  0  0  0
   73.5103   62.0900   19.6537 C   0  0  0  0  0  0  0  0  0  0  0  0
   70.4439   58.8944   16.6101 C   0  0  0  0  0  0  0  0  0  0  0  0
   69.7769   59.3603   17.8589 C   0  0  0  0  0  0  0  0  0  0  0  0
   70.2339   60.4515   18.5571 C   0  0  0  0  0  0  0  0  0  0  0  0
   69.5983   60.8341   19.7037 C   0  0  0  0  0  0  0  0  0  0  0  0
   68.4999   60.1601   20.1978 C   0  0  0  0  0  0  0  0  0  0  0  0
   68.0514   59.0680   19.4891 C   0  0  0  0  0  0  0  0  0  0  0  0
   68.6845   58.6707   18.3289 C   0  0  0  0  0  0  0  0  0  0  0  0
   71.7940   49.4624   11.6484 C   0  0  1  0  0  0  0  0  0  0  0  0
   71.2165   49.1758   10.2999 C   0  0  0  0  0  0  0  0  0  0  0  0
   70.7726   54.8118   15.6600 N   0  0  0  0  0  0  0  0  0  0  0  0
   71.3431   57.2290   18.0250 N   0  0  0  0  0  0  0  0  0  0  0  0
   68.5771   54.6877   14.2460 O   0  0  0  0  0  0  0  0  0  0  0  0
   70.4807   55.8141   13.2867 O   0  0  0  0  0  0  0  0  0  0  0  0
   71.0432   57.3850   14.3988 O   0  0  0  0  0  0  0  0  0  0  0  0
   72.3294   58.5955   19.5605 O   0  0  0  0  0  0  0  0  0  0  0  0
   73.5740   58.2534   17.6966 O   0  0  0  0  0  0  0  0  0  0  0  0
   75.5788   61.1112   17.9886 O   0  0  0  0  0  0  0  0  0  0  0  0
   74.8335   61.9701   19.9901 O   0  0  0  0  0  0  0  0  0  0  0  0
   73.1983   49.4109   11.5452 O   0  0  0  0  0  0  0  0  0  0  0  0
   71.9784   48.3402    9.5168 O   0  0  0  0  0  0  0  0  0  0  0  0
   70.0523   54.6194   14.1332 S   0  0  2  0  0  6  0  0  0  0  0  0
 14  1  1  1
  2 16  1  0
 30  2  1  0
 31  3  1  0
  3 35  2  0
  3 36  1  0
 18  4  1  0
  4 37  1  0
  5  6  1  6
 18  5  1  0
  5 19  1  0
  6 20  1  0
  8  7  2  0
 12  7  1  0
  7 28  1  0
  9  8  1  0
 10  9  2  0
 10 11  1  0
 41 10  1  0
 11 12  2  0
 13 14  1  0
 30 13  1  0
 14 15  1  0
 16 17  1  0
 16 34  1  6
 17 21  1  6
 17 31  1  0
 18 36  1  6
 19 37  1  6
 19 38  1  0
 38 20  1  0
 21 22  1  0
 22 23  2  0
 22 27  1  0
 23 24  1  0
 24 25  2  0
 26 25  1  0
 27 26  2  0
 28 29  1  0
 28 39  1  6
 29 40  1  0
 41 30  1  1
 41 32  2  0
 41 33  2  0
M  END
$$$$
