
     RDKit          3D

 41 44  0  0  0  0  0  0  0  0999 V2000
   68.1802   55.1124   12.6898 C   0  0  0  0  0  0  0  0  0  0  0  0
   69.1177   55.6682   15.7476 C   0  0  0  0  0  0  0  0  0  0  0  0
   72.6849   58.3740   17.8024 C   0  0  0  0  0  0  0  0  0  0  0  0
   74.8619   61.2745   18.1632 C   0  0  0  0  0  0  0  0  0  0  0  0
   72.8604   60.7460   19.2255 C   0  0  1  0  0  0  0  0  0  0  0  0
   71.9162   61.1991   18.1388 C   0  0  0  0  0  0  0  0  0  0  0  0
   71.8942   49.7353   14.0754 C   0  0  0  0  0  0  0  0  0  0  0  0
   71.7540   50.6437   13.0670 C   0  0  0  0  0  0  0  0  0  0  0  0
   71.5071   51.9904   13.3368 C   0  0  0  0  0  0  0  0  0  0  0  0
   71.4039   52.4115   14.6204 C   0  0  0  0  0  0  0  0  0  0  0  0
   71.5422   51.5098   15.6508 C   0  0  0  0  0  0  0  0  0  0  0  0
   71.7824   50.1984   15.3894 C   0  0  0  0  0  0  0  0  0  0  0  0
   68.5411   53.5993   14.6400 C   0  0  0  0  0  0  0  0  0  0  0  0
   67.5697   54.5360   13.9487 C   0  0  2  0  0  0  0  0  0  0  0  0
   66.3067   53.8044   13.6269 C   0  0  0  0  0  0  0  0  0  0  0  0
   70.2896   56.5954   15.4998 C   0  0  2  0  0  0  0  0  0  0  0  0
   70.7443   57.1676   16.7971 C   0  0  2  0  0  0  0  0  0  0  0  0
   74.1044   60.0952   18.7186 C   0  0  1  0  0  0  0  0  0  0  0  0
   73.4261   62.0801   19.6809 C   0  0  1  0  0  0  0  0  0  0  0  0
   71.5001   62.5664   18.6662 C   0  0  0  0  0  0  0  0  0  0  0  0
   69.6779   58.0856   17.3449 C   0  0  0  0  0  0  0  0  0  0  0  0
   69.5768   57.9406   18.8249 C   0  0  0  0  0  0  0  0  0  0  0  0
   70.3040   56.9971   19.5088 C   0  0  0  0  0  0  0  0  0  0  0  0
   70.1692   56.8923   20.8637 C   0  0  0  0  0  0  0  0  0  0  0  0
   69.3200   57.7066   21.5853 C   0  0  0  0  0  0  0  0  0  0  0  0
   68.5964   58.6483   20.8884 C   0  0  0  0  0  0  0  0  0  0  0  0
   68.7233   58.7649   19.5191 C   0  0  0  0  0  0  0  0  0  0  0  0
   72.1481   48.2921   13.9354 C   0  0  1  0  0  0  0  0  0  0  0  0
   71.6892   47.4755   15.1001 C   0  0  0  0  0  0  0  0  0  0  0  0
   69.4784   54.3336   15.4289 N   0  0  0  0  0  0  0  0  0  0  0  0
   71.9378   58.0100   16.6585 N   0  0  0  0  0  0  0  0  0  0  0  0
   71.4934   55.0000   13.9021 O   0  0  0  0  0  0  0  0  0  0  0  0
   71.9459   54.4780   16.2119 O   0  0  0  0  0  0  0  0  0  0  0  0
   69.9582   57.6748   14.6788 O   0  0  0  0  0  0  0  0  0  0  0  0
   72.2314   58.0249   18.9194 O   0  0  0  0  0  0  0  0  0  0  0  0
   73.8729   59.0849   17.7696 O   0  0  0  0  0  0  0  0  0  0  0  0
   74.3265   62.4289   18.7095 O   0  0  0  0  0  0  0  0  0  0  0  0
   72.3108   62.8786   19.7262 O   0  0  0  0  0  0  0  0  0  0  0  0
   71.4531   47.8546   12.7905 O   0  0  0  0  0  0  0  0  0  0  0  0
   71.4224   46.1585   14.8059 O   0  0  0  0  0  0  0  0  0  0  0  0
   71.1042   54.0867   15.0012 S   0  0  2  0  0  6  0  0  0  0  0  0
 14  1  1  6
  2 16  1  0
 30  2  1  0
 31  3  1  0
  3 35  2  0
  3 36  1  0
 18  4  1  0
  4 37  1  0
  5  6  1  6
 18  5  1  0
  5 19  1  0
  6 20  1  0
  8  7  2  0
 12  7  1  0
  7 28  1  0
  9  8  1  0
 10  9  2  0
 10 11  1  0
 41 10  1  0
 11 12  2  0
 13 14  1  0
 30 13  1  0
 14 15  1  0
 16 17  1  0
 16 34  1  6
 17 21  1  6
 17 31  1  0
 18 36  1  6
 19 37  1  6
 19 38  1  0
 38 20  1  0
 21 22  1  0
 22 23  2  0
 22 27  1  0
 23 24  1  0
 24 25  2  0
 26 25  1  0
 27 26  2  0
 28 29  1  0
 28 39  1  6
 29 40  1  0
 41 30  1  1
 41 32  2  0
 41 33  2  0
M  END
$$$$
