
     RDKit          3D

 27 29  0  0  0  0  0  0  0  0999 V2000
   -8.0331    5.5440    1.7800 C   0  0  0  0  0  0  0  0  0  0  0  0
   -8.0326    4.9930    3.0605 C   0  0  0  0  0  0  0  0  0  0  0  0
   -8.1427    3.6608    3.3110 C   0  0  0  0  0  0  0  0  0  0  0  0
   -6.5358   11.2620    3.3363 C   0  0  0  0  0  0  0  0  0  0  0  0
   -7.3712   12.0017    2.5349 C   0  0  0  0  0  0  0  0  0  0  0  0
   -8.3752   11.3646    1.8084 C   0  0  0  0  0  0  0  0  0  0  0  0
   -8.5247    9.9982    1.8979 C   0  0  0  0  0  0  0  0  0  0  0  0
   -5.7849    9.1337    4.2908 C   0  0  0  0  0  0  0  0  0  0  0  0
   -4.7145    8.4223    3.5912 C   0  0  0  0  0  0  0  0  0  0  0  0
   -8.1432    3.0742    4.6432 C   0  0  0  0  0  0  0  0  0  0  0  0
   -8.1776    1.7082    4.8154 C   0  0  0  0  0  0  0  0  0  0  0  0
   -8.1788    1.1215    6.0686 C   0  0  0  0  0  0  0  0  0  0  0  0
   -8.1430    1.9704    7.1802 C   0  0  0  0  0  0  0  0  0  0  0  0
   -8.1082    3.3410    7.0274 C   0  0  0  0  0  0  0  0  0  0  0  0
   -8.1079    3.8991    5.7702 C   0  0  0  0  0  0  0  0  0  0  0  0
   -8.2131   -0.3230    6.3087 C   0  0  0  0  0  0  0  0  0  0  0  0
   -8.2626    2.8058    2.2102 C   0  0  0  0  0  0  0  0  0  0  0  0
   -8.2701    3.2802    0.9253 C   0  0  0  0  0  0  0  0  0  0  0  0
   -8.1531    4.6618    0.7395 C   0  0  0  0  0  0  0  0  0  0  0  0
   -7.9088    6.9879    1.6332 C   0  0  0  0  0  0  0  0  0  0  0  0
   -7.8309    7.8325    2.7426 N   0  0  0  0  0  0  0  0  0  0  0  0
   -7.6907    9.2408    2.7010 C   0  0  0  0  0  0  0  0  0  0  0  0
   -6.7042    9.8780    3.4128 C   0  0  0  0  0  0  0  0  0  0  0  0
   -4.0612    8.9821    2.6828 O   0  0  0  0  0  0  0  0  0  0  0  0
   -4.4400    7.1177    3.9544 O   0  0  0  0  0  0  0  0  0  0  0  0
   -7.8688    7.4989    0.4814 O   0  0  0  0  0  0  0  0  0  0  0  0
   -8.7843   -0.6797    7.5878 N   0  0  0  0  0  4  0  0  0  0  0  0
  1  2  2  0
  1 19  1  0
 20  1  1  0
  2  3  1  0
  3 10  1  0
  3 17  2  0
  5  4  2  0
  4 23  1  0
  6  5  1  0
  7  6  2  0
 22  7  1  0
  8  9  1  0
 23  8  1  0
  9 24  2  0
  9 25  1  0
 10 11  2  0
 10 15  1  0
 11 12  1  0
 12 13  2  0
 12 16  1  0
 14 13  1  0
 15 14  2  0
 16 27  1  0
 18 17  1  0
 19 18  2  0
 21 20  1  0
 20 26  2  0
 21 22  1  0
 22 23  2  0
M  CHG  1  27   1
M  END
$$$$
