
     RDKit          3D

 27 29  0  0  0  0  0  0  0  0999 V2000
   -7.4871    5.9789    2.2853 C   0  0  0  0  0  0  0  0  0  0  0  0
   -7.5046    4.9749    3.2524 C   0  0  0  0  0  0  0  0  0  0  0  0
   -8.2390    3.8351    3.1464 C   0  0  0  0  0  0  0  0  0  0  0  0
   -4.8105   10.4738    5.4190 C   0  0  0  0  0  0  0  0  0  0  0  0
   -3.6391   10.6933    4.7357 C   0  0  0  0  0  0  0  0  0  0  0  0
   -3.2673    9.8309    3.7063 C   0  0  0  0  0  0  0  0  0  0  0  0
   -4.0755    8.7644    3.3795 C   0  0  0  0  0  0  0  0  0  0  0  0
   -6.8627    9.2006    5.8333 C   0  0  0  0  0  0  0  0  0  0  0  0
   -8.0868    9.4294    5.0648 C   0  0  0  0  0  0  0  0  0  0  0  0
   -8.2652    2.7803    4.1491 C   0  0  0  0  0  0  0  0  0  0  0  0
   -7.6004    2.9248    5.3466 C   0  0  0  0  0  0  0  0  0  0  0  0
   -7.6072    1.9402    6.3188 C   0  0  0  0  0  0  0  0  0  0  0  0
   -8.3229    0.7688    6.0479 C   0  0  0  0  0  0  0  0  0  0  0  0
   -8.9949    0.6061    4.8543 C   0  0  0  0  0  0  0  0  0  0  0  0
   -8.9722    1.6004    3.9042 C   0  0  0  0  0  0  0  0  0  0  0  0
   -6.9197    2.0421    7.6081 C   0  0  0  0  0  0  0  0  0  0  0  0
   -9.0168    3.6743    1.9948 C   0  0  0  0  0  0  0  0  0  0  0  0
   -9.0460    4.6212    1.0055 C   0  0  0  0  0  0  0  0  0  0  0  0
   -8.2665    5.7699    1.1790 C   0  0  0  0  0  0  0  0  0  0  0  0
   -6.6608    7.1578    2.5072 C   0  0  0  0  0  0  0  0  0  0  0  0
   -6.0507    7.4027    3.7394 N   0  0  0  0  0  0  0  0  0  0  0  0
   -5.2578    8.5314    4.0591 C   0  0  0  0  0  0  0  0  0  0  0  0
   -5.6153    9.3868    5.0721 C   0  0  0  0  0  0  0  0  0  0  0  0
   -8.2189   10.4564    4.3625 O   0  0  0  0  0  0  0  0  0  0  0  0
   -9.0952    8.4872    5.1312 O   0  0  0  0  0  0  0  0  0  0  0  0
   -6.4844    7.9838    1.5714 O   0  0  0  0  0  0  0  0  0  0  0  0
   -7.4056    1.1036    8.5944 N   0  0  0  0  0  4  0  0  0  0  0  0
  1  2  2  0
  1 19  1  0
 20  1  1  0
  2  3  1  0
  3 10  1  0
  3 17  2  0
  5  4  2  0
  4 23  1  0
  6  5  1  0
  7  6  2  0
 22  7  1  0
  8  9  1  0
 23  8  1  0
  9 24  2  0
  9 25  1  0
 10 11  2  0
 10 15  1  0
 11 12  1  0
 12 13  2  0
 12 16  1  0
 14 13  1  0
 15 14  2  0
 16 27  1  0
 18 17  1  0
 19 18  2  0
 21 20  1  0
 20 26  2  0
 21 22  1  0
 22 23  2  0
M  CHG  1  27   1
M  END
$$$$
