
     RDKit          3D

 27 29  0  0  0  0  0  0  0  0999 V2000
   -8.2646    7.3612    5.7605 C   0  0  0  0  0  0  0  0  0  0  0  0
   -7.7849    6.1229    5.3363 C   0  0  0  0  0  0  0  0  0  0  0  0
   -8.2542    4.9320    5.7958 C   0  0  0  0  0  0  0  0  0  0  0  0
   -3.9149   10.8574    3.4865 C   0  0  0  0  0  0  0  0  0  0  0  0
   -4.5250   11.7522    2.6414 C   0  0  0  0  0  0  0  0  0  0  0  0
   -5.8706   11.5903    2.3176 C   0  0  0  0  0  0  0  0  0  0  0  0
   -6.5811   10.5352    2.8464 C   0  0  0  0  0  0  0  0  0  0  0  0
   -3.9515    8.8677    4.9163 C   0  0  0  0  0  0  0  0  0  0  0  0
   -3.5564    7.5987    4.3040 C   0  0  0  0  0  0  0  0  0  0  0  0
   -7.7615    3.6333    5.3604 C   0  0  0  0  0  0  0  0  0  0  0  0
   -7.8013    2.5428    6.2005 C   0  0  0  0  0  0  0  0  0  0  0  0
   -7.3408    1.2962    5.8149 C   0  0  0  0  0  0  0  0  0  0  0  0
   -6.8229    1.1697    4.5213 C   0  0  0  0  0  0  0  0  0  0  0  0
   -6.7750    2.2506    3.6657 C   0  0  0  0  0  0  0  0  0  0  0  0
   -7.2393    3.4795    4.0737 C   0  0  0  0  0  0  0  0  0  0  0  0
   -7.3606    0.1044    6.6661 C   0  0  0  0  0  0  0  0  0  0  0  0
   -9.2776    4.9670    6.7491 C   0  0  0  0  0  0  0  0  0  0  0  0
   -9.7949    6.1487    7.2095 C   0  0  0  0  0  0  0  0  0  0  0  0
   -9.2659    7.3370    6.6943 C   0  0  0  0  0  0  0  0  0  0  0  0
   -7.6847    8.5730    5.1974 C   0  0  0  0  0  0  0  0  0  0  0  0
   -6.7147    8.5224    4.1940 N   0  0  0  0  0  0  0  0  0  0  0  0
   -5.9795    9.6265    3.6987 C   0  0  0  0  0  0  0  0  0  0  0  0
   -4.6530    9.7946    4.0115 C   0  0  0  0  0  0  0  0  0  0  0  0
   -2.9528    7.5774    3.2083 O   0  0  0  0  0  0  0  0  0  0  0  0
   -3.8645    6.4230    4.9612 O   0  0  0  0  0  0  0  0  0  0  0  0
   -8.0605    9.7006    5.6175 O   0  0  0  0  0  0  0  0  0  0  0  0
   -8.0948    0.2896    7.8976 N   0  0  0  0  0  4  0  0  0  0  0  0
  1  2  2  0
  1 19  1  0
 20  1  1  0
  2  3  1  0
  3 10  1  0
  3 17  2  0
  5  4  2  0
  4 23  1  0
  6  5  1  0
  7  6  2  0
 22  7  1  0
  8  9  1  0
 23  8  1  0
  9 24  2  0
  9 25  1  0
 10 11  2  0
 10 15  1  0
 11 12  1  0
 12 13  2  0
 12 16  1  0
 14 13  1  0
 15 14  2  0
 16 27  1  0
 18 17  1  0
 19 18  2  0
 21 20  1  0
 20 26  2  0
 21 22  1  0
 22 23  2  0
M  CHG  1  27   1
M  END
$$$$
