
     RDKit          3D

 27 29  0  0  0  0  0  0  0  0999 V2000
   -7.5023    6.3610    2.0115 C   0  0  0  0  0  0  0  0  0  0  0  0
   -7.5178    5.3208    2.9395 C   0  0  0  0  0  0  0  0  0  0  0  0
   -8.3194    4.2270    2.8365 C   0  0  0  0  0  0  0  0  0  0  0  0
   -4.6376   10.5567    5.2782 C   0  0  0  0  0  0  0  0  0  0  0  0
   -3.5115   10.8901    4.5656 C   0  0  0  0  0  0  0  0  0  0  0  0
   -3.1545   10.1406    3.4465 C   0  0  0  0  0  0  0  0  0  0  0  0
   -3.9319    9.0707    3.0610 C   0  0  0  0  0  0  0  0  0  0  0  0
   -6.6113    9.1576    5.6673 C   0  0  0  0  0  0  0  0  0  0  0  0
   -7.8196    9.8733    5.2561 C   0  0  0  0  0  0  0  0  0  0  0  0
   -8.3442    3.1350    3.7987 C   0  0  0  0  0  0  0  0  0  0  0  0
   -7.9590    3.3340    5.1059 C   0  0  0  0  0  0  0  0  0  0  0  0
   -7.9721    2.3160    6.0430 C   0  0  0  0  0  0  0  0  0  0  0  0
   -8.3964    1.0520    5.6189 C   0  0  0  0  0  0  0  0  0  0  0  0
   -8.7861    0.8336    4.3138 C   0  0  0  0  0  0  0  0  0  0  0  0
   -8.7637    1.8629    3.4016 C   0  0  0  0  0  0  0  0  0  0  0  0
   -7.5748    2.4726    7.4441 C   0  0  0  0  0  0  0  0  0  0  0  0
   -9.1726    4.1550    1.7301 C   0  0  0  0  0  0  0  0  0  0  0  0
   -9.2081    5.1417    0.7807 C   0  0  0  0  0  0  0  0  0  0  0  0
   -8.3569    6.2392    0.9485 C   0  0  0  0  0  0  0  0  0  0  0  0
   -6.5999    7.4842    2.2258 C   0  0  0  0  0  0  0  0  0  0  0  0
   -5.8278    7.5922    3.3845 N   0  0  0  0  0  0  0  0  0  0  0  0
   -5.0686    8.7237    3.7693 C   0  0  0  0  0  0  0  0  0  0  0  0
   -5.4118    9.4684    4.8708 C   0  0  0  0  0  0  0  0  0  0  0  0
   -8.3251   10.7508    5.9909 O   0  0  0  0  0  0  0  0  0  0  0  0
   -8.3920    9.5595    4.0383 O   0  0  0  0  0  0  0  0  0  0  0  0
   -6.5046    8.3865    1.3505 O   0  0  0  0  0  0  0  0  0  0  0  0
   -8.4416    1.7771    8.3685 N   0  0  0  0  0  4  0  0  0  0  0  0
  1  2  2  0
  1 19  1  0
 20  1  1  0
  2  3  1  0
  3 10  1  0
  3 17  2  0
  5  4  2  0
  4 23  1  0
  6  5  1  0
  7  6  2  0
 22  7  1  0
  8  9  1  0
 23  8  1  0
  9 24  2  0
  9 25  1  0
 10 11  2  0
 10 15  1  0
 11 12  1  0
 12 13  2  0
 12 16  1  0
 14 13  1  0
 15 14  2  0
 16 27  1  0
 18 17  1  0
 19 18  2  0
 21 20  1  0
 20 26  2  0
 21 22  1  0
 22 23  2  0
M  CHG  1  27   1
M  END
$$$$
