
     RDKit          3D

 27 29  0  0  0  0  0  0  0  0999 V2000
   -7.5423    5.3723    2.1633 C   0  0  0  0  0  0  0  0  0  0  0  0
   -7.5230    4.7174    3.3938 C   0  0  0  0  0  0  0  0  0  0  0  0
   -8.2594    3.6084    3.6722 C   0  0  0  0  0  0  0  0  0  0  0  0
   -4.9495   10.0572   -0.7107 C   0  0  0  0  0  0  0  0  0  0  0  0
   -3.7850   10.2563   -0.0099 C   0  0  0  0  0  0  0  0  0  0  0  0
   -3.3789    9.3182    0.9371 C   0  0  0  0  0  0  0  0  0  0  0  0
   -4.1465    8.1973    1.1649 C   0  0  0  0  0  0  0  0  0  0  0  0
   -6.9499    8.7474   -1.2472 C   0  0  0  0  0  0  0  0  0  0  0  0
   -8.1808    9.0486   -0.5155 C   0  0  0  0  0  0  0  0  0  0  0  0
   -8.2474    2.9162    4.9527 C   0  0  0  0  0  0  0  0  0  0  0  0
   -8.1642    1.5428    5.0145 C   0  0  0  0  0  0  0  0  0  0  0  0
   -8.1505    0.8571    6.2163 C   0  0  0  0  0  0  0  0  0  0  0  0
   -8.2246    1.6115    7.3923 C   0  0  0  0  0  0  0  0  0  0  0  0
   -8.3084    2.9877    7.3502 C   0  0  0  0  0  0  0  0  0  0  0  0
   -8.3203    3.6454    6.1421 C   0  0  0  0  0  0  0  0  0  0  0  0
   -8.0622   -0.5998    6.3395 C   0  0  0  0  0  0  0  0  0  0  0  0
   -9.0790    3.1069    2.6553 C   0  0  0  0  0  0  0  0  0  0  0  0
   -9.1457    3.7012    1.4231 C   0  0  0  0  0  0  0  0  0  0  0  0
   -8.3617    4.8391    1.2045 C   0  0  0  0  0  0  0  0  0  0  0  0
   -6.7098    6.5534    1.9797 C   0  0  0  0  0  0  0  0  0  0  0  0
   -6.1200    6.8493    0.7489 N   0  0  0  0  0  0  0  0  0  0  0  0
   -5.3215    7.9839    0.4664 C   0  0  0  0  0  0  0  0  0  0  0  0
   -5.7131    8.9143   -0.4646 C   0  0  0  0  0  0  0  0  0  0  0  0
   -9.0292    8.1558   -0.2952 O   0  0  0  0  0  0  0  0  0  0  0  0
   -8.3875   10.3411   -0.0727 O   0  0  0  0  0  0  0  0  0  0  0  0
   -6.5104    7.3355    2.9482 O   0  0  0  0  0  0  0  0  0  0  0  0
   -7.5243   -1.0378    7.6078 N   0  0  0  0  0  4  0  0  0  0  0  0
  1  2  2  0
  1 19  1  0
 20  1  1  0
  2  3  1  0
  3 10  1  0
  3 17  2  0
  5  4  2  0
  4 23  1  0
  6  5  1  0
  7  6  2  0
 22  7  1  0
  8  9  1  0
 23  8  1  0
  9 24  2  0
  9 25  1  0
 10 11  2  0
 10 15  1  0
 11 12  1  0
 12 13  2  0
 12 16  1  0
 14 13  1  0
 15 14  2  0
 16 27  1  0
 18 17  1  0
 19 18  2  0
 21 20  1  0
 20 26  2  0
 21 22  1  0
 22 23  2  0
M  CHG  1  27   1
M  END
$$$$
