
     RDKit          3D

 27 29  0  0  0  0  0  0  0  0999 V2000
   -6.4677    6.0014    3.5037 C   0  0  0  0  0  0  0  0  0  0  0  0
   -6.7807    4.7221    3.9607 C   0  0  0  0  0  0  0  0  0  0  0  0
   -8.0376    4.3249    4.2957 C   0  0  0  0  0  0  0  0  0  0  0  0
   -1.6836    9.5008    3.4363 C   0  0  0  0  0  0  0  0  0  0  0  0
   -0.8050    9.0405    2.4859 C   0  0  0  0  0  0  0  0  0  0  0  0
   -1.2255    8.0893    1.5586 C   0  0  0  0  0  0  0  0  0  0  0  0
   -2.5187    7.6164    1.5996 C   0  0  0  0  0  0  0  0  0  0  0  0
   -3.8922    9.5394    4.4971 C   0  0  0  0  0  0  0  0  0  0  0  0
   -4.8055   10.5848    4.0342 C   0  0  0  0  0  0  0  0  0  0  0  0
   -8.3765    2.9924    4.7737 C   0  0  0  0  0  0  0  0  0  0  0  0
   -7.5116    2.2889    5.5822 C   0  0  0  0  0  0  0  0  0  0  0  0
   -7.8060    1.0212    6.0522 C   0  0  0  0  0  0  0  0  0  0  0  0
   -9.0319    0.4607    5.6769 C   0  0  0  0  0  0  0  0  0  0  0  0
   -9.9110    1.1503    4.8679 C   0  0  0  0  0  0  0  0  0  0  0  0
   -9.5941    2.4095    4.4139 C   0  0  0  0  0  0  0  0  0  0  0  0
   -6.9247    0.2302    6.9143 C   0  0  0  0  0  0  0  0  0  0  0  0
   -9.0658    5.2651    4.1692 C   0  0  0  0  0  0  0  0  0  0  0  0
   -8.8283    6.5393    3.7263 C   0  0  0  0  0  0  0  0  0  0  0  0
   -7.5118    6.8811    3.3990 C   0  0  0  0  0  0  0  0  0  0  0  0
   -5.0836    6.3137    3.1743 C   0  0  0  0  0  0  0  0  0  0  0  0
   -4.7246    7.5378    2.6059 N   0  0  0  0  0  0  0  0  0  0  0  0
   -3.4142    8.0711    2.5512 C   0  0  0  0  0  0  0  0  0  0  0  0
   -2.9900    9.0084    3.4607 C   0  0  0  0  0  0  0  0  0  0  0  0
   -4.8075   11.7158    4.5692 O   0  0  0  0  0  0  0  0  0  0  0  0
   -5.6671   10.2969    2.9931 O   0  0  0  0  0  0  0  0  0  0  0  0
   -4.1788    5.4664    3.4042 O   0  0  0  0  0  0  0  0  0  0  0  0
   -7.4506    0.0313    8.2460 N   0  0  0  0  0  4  0  0  0  0  0  0
  1  2  2  0
  1 19  1  0
 20  1  1  0
  2  3  1  0
  3 10  1  0
  3 17  2  0
  5  4  2  0
  4 23  1  0
  6  5  1  0
  7  6  2  0
 22  7  1  0
  8  9  1  0
 23  8  1  0
  9 24  2  0
  9 25  1  0
 10 11  2  0
 10 15  1  0
 11 12  1  0
 12 13  2  0
 12 16  1  0
 14 13  1  0
 15 14  2  0
 16 27  1  0
 18 17  1  0
 19 18  2  0
 21 20  1  0
 20 26  2  0
 21 22  1  0
 22 23  2  0
M  CHG  1  27   1
M  END
$$$$
