
     RDKit          3D

 27 29  0  0  0  0  0  0  0  0999 V2000
   -7.9052    5.9472    2.2617 C   0  0  0  0  0  0  0  0  0  0  0  0
   -7.7971    5.2267    3.4502 C   0  0  0  0  0  0  0  0  0  0  0  0
   -8.2038    3.9367    3.5926 C   0  0  0  0  0  0  0  0  0  0  0  0
   -4.6775   10.5062    4.2033 C   0  0  0  0  0  0  0  0  0  0  0  0
   -5.2112   11.6832    3.7375 C   0  0  0  0  0  0  0  0  0  0  0  0
   -6.4808   11.6870    3.1630 C   0  0  0  0  0  0  0  0  0  0  0  0
   -7.1930   10.5119    3.0657 C   0  0  0  0  0  0  0  0  0  0  0  0
   -4.7988    8.0936    4.6146 C   0  0  0  0  0  0  0  0  0  0  0  0
   -5.4165    7.5682    5.8327 C   0  0  0  0  0  0  0  0  0  0  0  0
   -8.0959    3.1744    4.8280 C   0  0  0  0  0  0  0  0  0  0  0  0
   -7.9604    1.8041    4.8051 C   0  0  0  0  0  0  0  0  0  0  0  0
   -7.8554    1.0528    5.9623 C   0  0  0  0  0  0  0  0  0  0  0  0
   -7.8910    1.7363    7.1826 C   0  0  0  0  0  0  0  0  0  0  0  0
   -8.0261    3.1084    7.2254 C   0  0  0  0  0  0  0  0  0  0  0  0
   -8.1286    3.8321    6.0602 C   0  0  0  0  0  0  0  0  0  0  0  0
   -7.7084   -0.4042    5.9954 C   0  0  0  0  0  0  0  0  0  0  0  0
   -8.7607    3.3092    2.4731 C   0  0  0  0  0  0  0  0  0  0  0  0
   -8.8965    3.9585    1.2747 C   0  0  0  0  0  0  0  0  0  0  0  0
   -8.4575    5.2846    1.1981 C   0  0  0  0  0  0  0  0  0  0  0  0
   -7.4351    7.3254    2.2270 C   0  0  0  0  0  0  0  0  0  0  0  0
   -7.3964    8.1149    3.3784 N   0  0  0  0  0  0  0  0  0  0  0  0
   -6.6678    9.3194    3.5306 C   0  0  0  0  0  0  0  0  0  0  0  0
   -5.4159    9.3260    4.0949 C   0  0  0  0  0  0  0  0  0  0  0  0
   -4.7709    6.8318    6.6113 O   0  0  0  0  0  0  0  0  0  0  0  0
   -6.7293    7.9021    6.1055 O   0  0  0  0  0  0  0  0  0  0  0  0
   -7.0506    7.8285    1.1369 O   0  0  0  0  0  0  0  0  0  0  0  0
   -7.6119   -0.9419    7.3338 N   0  0  0  0  0  4  0  0  0  0  0  0
  1  2  2  0
  1 19  1  0
 20  1  1  0
  2  3  1  0
  3 10  1  0
  3 17  2  0
  5  4  2  0
  4 23  1  0
  6  5  1  0
  7  6  2  0
 22  7  1  0
  8  9  1  0
 23  8  1  0
  9 24  2  0
  9 25  1  0
 10 11  2  0
 10 15  1  0
 11 12  1  0
 12 13  2  0
 12 16  1  0
 14 13  1  0
 15 14  2  0
 16 27  1  0
 18 17  1  0
 19 18  2  0
 21 20  1  0
 20 26  2  0
 21 22  1  0
 22 23  2  0
M  CHG  1  27   1
M  END
$$$$
