
     RDKit          3D

 27 29  0  0  0  0  0  0  0  0999 V2000
   -7.3038    5.8248    2.3759 C   0  0  0  0  0  0  0  0  0  0  0  0
   -7.2982    5.0753    3.5514 C   0  0  0  0  0  0  0  0  0  0  0  0
   -7.8931    3.8586    3.6758 C   0  0  0  0  0  0  0  0  0  0  0  0
   -5.1178   11.0803    4.5849 C   0  0  0  0  0  0  0  0  0  0  0  0
   -4.0031   11.3083    3.8150 C   0  0  0  0  0  0  0  0  0  0  0  0
   -3.5648   10.3288    2.9261 C   0  0  0  0  0  0  0  0  0  0  0  0
   -4.2510    9.1387    2.8240 C   0  0  0  0  0  0  0  0  0  0  0  0
   -6.9904    9.6766    5.3112 C   0  0  0  0  0  0  0  0  0  0  0  0
   -8.2486    9.5557    4.5740 C   0  0  0  0  0  0  0  0  0  0  0  0
   -7.8937    3.0672    4.8974 C   0  0  0  0  0  0  0  0  0  0  0  0
   -8.1060    1.7069    4.8599 C   0  0  0  0  0  0  0  0  0  0  0  0
   -8.1121    0.9284    6.0038 C   0  0  0  0  0  0  0  0  0  0  0  0
   -7.8917    1.5730    7.2260 C   0  0  0  0  0  0  0  0  0  0  0  0
   -7.6772    2.9344    7.2833 C   0  0  0  0  0  0  0  0  0  0  0  0
   -7.6762    3.6857    6.1311 C   0  0  0  0  0  0  0  0  0  0  0  0
   -8.3311   -0.5197    6.0210 C   0  0  0  0  0  0  0  0  0  0  0  0
   -8.5445    3.3417    2.5508 C   0  0  0  0  0  0  0  0  0  0  0  0
   -8.5883    4.0251    1.3646 C   0  0  0  0  0  0  0  0  0  0  0  0
   -7.9555    5.2714    1.3062 C   0  0  0  0  0  0  0  0  0  0  0  0
   -6.6323    7.1173    2.3601 C   0  0  0  0  0  0  0  0  0  0  0  0
   -6.0385    7.6478    3.5075 N   0  0  0  0  0  0  0  0  0  0  0  0
   -5.3751    8.8957    3.5931 C   0  0  0  0  0  0  0  0  0  0  0  0
   -5.7989    9.8672    4.4663 C   0  0  0  0  0  0  0  0  0  0  0  0
   -8.8317    8.4527    4.4798 O   0  0  0  0  0  0  0  0  0  0  0  0
   -8.7801   10.6859    3.9829 O   0  0  0  0  0  0  0  0  0  0  0  0
   -6.5788    7.7819    1.2903 O   0  0  0  0  0  0  0  0  0  0  0  0
   -7.2947   -1.2496    6.7158 N   0  0  0  0  0  4  0  0  0  0  0  0
  1  2  2  0
  1 19  1  0
 20  1  1  0
  2  3  1  0
  3 10  1  0
  3 17  2  0
  5  4  2  0
  4 23  1  0
  6  5  1  0
  7  6  2  0
 22  7  1  0
  8  9  1  0
 23  8  1  0
  9 24  2  0
  9 25  1  0
 10 11  2  0
 10 15  1  0
 11 12  1  0
 12 13  2  0
 12 16  1  0
 14 13  1  0
 15 14  2  0
 16 27  1  0
 18 17  1  0
 19 18  2  0
 21 20  1  0
 20 26  2  0
 21 22  1  0
 22 23  2  0
M  CHG  1  27   1
M  END
$$$$
