
     RDKit          3D

 27 29  0  0  0  0  0  0  0  0999 V2000
   -7.1243    6.4208    3.1010 C   0  0  0  0  0  0  0  0  0  0  0  0
   -7.4948    5.3128    3.8616 C   0  0  0  0  0  0  0  0  0  0  0  0
   -7.8378    4.1096    3.3284 C   0  0  0  0  0  0  0  0  0  0  0  0
   -3.5736   11.1622    4.2624 C   0  0  0  0  0  0  0  0  0  0  0  0
   -4.3711   12.0857    4.8934 C   0  0  0  0  0  0  0  0  0  0  0  0
   -5.7482   11.8823    4.9559 C   0  0  0  0  0  0  0  0  0  0  0  0
   -6.3018   10.7572    4.3855 C   0  0  0  0  0  0  0  0  0  0  0  0
   -3.2537    9.0680    3.0309 C   0  0  0  0  0  0  0  0  0  0  0  0
   -3.4511    8.9382    1.5868 C   0  0  0  0  0  0  0  0  0  0  0  0
   -8.2261    2.9460    4.1121 C   0  0  0  0  0  0  0  0  0  0  0  0
   -7.8762    2.8376    5.4398 C   0  0  0  0  0  0  0  0  0  0  0  0
   -8.2309    1.7443    6.2102 C   0  0  0  0  0  0  0  0  0  0  0  0
   -8.9704    0.7301    5.5920 C   0  0  0  0  0  0  0  0  0  0  0  0
   -9.3301    0.8212    4.2634 C   0  0  0  0  0  0  0  0  0  0  0  0
   -8.9648    1.9189    3.5195 C   0  0  0  0  0  0  0  0  0  0  0  0
   -7.8869    1.5788    7.6242 C   0  0  0  0  0  0  0  0  0  0  0  0
   -7.8129    3.9916    1.9346 C   0  0  0  0  0  0  0  0  0  0  0  0
   -7.4585    5.0402    1.1277 C   0  0  0  0  0  0  0  0  0  0  0  0
   -7.1171    6.2497    1.7424 C   0  0  0  0  0  0  0  0  0  0  0  0
   -6.7766    7.6602    3.7828 C   0  0  0  0  0  0  0  0  0  0  0  0
   -6.1043    8.6932    3.1261 N   0  0  0  0  0  0  0  0  0  0  0  0
   -5.5108    9.8189    3.7469 C   0  0  0  0  0  0  0  0  0  0  0  0
   -4.1548   10.0286    3.6905 C   0  0  0  0  0  0  0  0  0  0  0  0
   -3.4474    9.9472    0.8471 O   0  0  0  0  0  0  0  0  0  0  0  0
   -3.6424    7.6768    1.0561 O   0  0  0  0  0  0  0  0  0  0  0  0
   -7.0856    7.8157    4.9951 O   0  0  0  0  0  0  0  0  0  0  0  0
   -6.5218    1.9431    7.9302 N   0  0  0  0  0  4  0  0  0  0  0  0
  1  2  2  0
  1 19  1  0
 20  1  1  0
  2  3  1  0
  3 10  1  0
  3 17  2  0
  5  4  2  0
  4 23  1  0
  6  5  1  0
  7  6  2  0
 22  7  1  0
  8  9  1  0
 23  8  1  0
  9 24  2  0
  9 25  1  0
 10 11  2  0
 10 15  1  0
 11 12  1  0
 12 13  2  0
 12 16  1  0
 14 13  1  0
 15 14  2  0
 16 27  1  0
 18 17  1  0
 19 18  2  0
 21 20  1  0
 20 26  2  0
 21 22  1  0
 22 23  2  0
M  CHG  1  27   1
M  END
$$$$
