
     RDKit          3D

 27 29  0  0  0  0  0  0  0  0999 V2000
   -7.3703    5.4069    2.3434 C   0  0  0  0  0  0  0  0  0  0  0  0
   -7.3860    4.7816    3.5893 C   0  0  0  0  0  0  0  0  0  0  0  0
   -8.1458    3.6914    3.8792 C   0  0  0  0  0  0  0  0  0  0  0  0
   -2.8136    9.2968    2.8472 C   0  0  0  0  0  0  0  0  0  0  0  0
   -3.3750   10.5505    2.8630 C   0  0  0  0  0  0  0  0  0  0  0  0
   -4.7537   10.6887    3.0103 C   0  0  0  0  0  0  0  0  0  0  0  0
   -5.5454    9.5688    3.1394 C   0  0  0  0  0  0  0  0  0  0  0  0
   -2.9799    6.8547    2.9610 C   0  0  0  0  0  0  0  0  0  0  0  0
   -2.7824    6.2897    1.6257 C   0  0  0  0  0  0  0  0  0  0  0  0
   -8.1704    3.0302    5.1758 C   0  0  0  0  0  0  0  0  0  0  0  0
   -7.9055    1.6835    5.2890 C   0  0  0  0  0  0  0  0  0  0  0  0
   -7.9211    1.0275    6.5073 C   0  0  0  0  0  0  0  0  0  0  0  0
   -8.2192    1.7845    7.6457 C   0  0  0  0  0  0  0  0  0  0  0  0
   -8.4870    3.1344    7.5518 C   0  0  0  0  0  0  0  0  0  0  0  0
   -8.4651    3.7627    6.3284 C   0  0  0  0  0  0  0  0  0  0  0  0
   -7.6460   -0.4001    6.6848 C   0  0  0  0  0  0  0  0  0  0  0  0
   -8.9532    3.1787    2.8583 C   0  0  0  0  0  0  0  0  0  0  0  0
   -8.9859    3.7440    1.6111 C   0  0  0  0  0  0  0  0  0  0  0  0
   -8.1793    4.8637    1.3813 C   0  0  0  0  0  0  0  0  0  0  0  0
   -6.5152    6.5698    2.1485 C   0  0  0  0  0  0  0  0  0  0  0  0
   -5.8294    7.1607    3.2120 N   0  0  0  0  0  0  0  0  0  0  0  0
   -4.9935    8.3002    3.1252 C   0  0  0  0  0  0  0  0  0  0  0  0
   -3.6338    8.1746    2.9794 C   0  0  0  0  0  0  0  0  0  0  0  0
   -2.4807    5.0844    1.4789 O   0  0  0  0  0  0  0  0  0  0  0  0
   -2.9356    7.1158    0.5287 O   0  0  0  0  0  0  0  0  0  0  0  0
   -6.3826    7.0633    0.9961 O   0  0  0  0  0  0  0  0  0  0  0  0
   -6.5534   -0.8807    5.8694 N   0  0  0  0  0  4  0  0  0  0  0  0
  1  2  2  0
  1 19  1  0
 20  1  1  0
  2  3  1  0
  3 10  1  0
  3 17  2  0
  5  4  2  0
  4 23  1  0
  6  5  1  0
  7  6  2  0
 22  7  1  0
  8  9  1  0
 23  8  1  0
  9 24  2  0
  9 25  1  0
 10 11  2  0
 10 15  1  0
 11 12  1  0
 12 13  2  0
 12 16  1  0
 14 13  1  0
 15 14  2  0
 16 27  1  0
 18 17  1  0
 19 18  2  0
 21 20  1  0
 20 26  2  0
 21 22  1  0
 22 23  2  0
M  CHG  1  27   1
M  END
$$$$
