
     RDKit          3D

 27 29  0  0  0  0  0  0  0  0999 V2000
   -7.7939    5.7112    2.1975 C   0  0  0  0  0  0  0  0  0  0  0  0
   -7.7580    5.0253    3.4107 C   0  0  0  0  0  0  0  0  0  0  0  0
   -8.1168    3.7212    3.5534 C   0  0  0  0  0  0  0  0  0  0  0  0
   -5.3532   10.7029    4.4715 C   0  0  0  0  0  0  0  0  0  0  0  0
   -5.7614   11.7305    3.6563 C   0  0  0  0  0  0  0  0  0  0  0  0
   -6.7700   11.5113    2.7202 C   0  0  0  0  0  0  0  0  0  0  0  0
   -7.3519   10.2669    2.6176 C   0  0  0  0  0  0  0  0  0  0  0  0
   -5.4840    8.3842    5.2532 C   0  0  0  0  0  0  0  0  0  0  0  0
   -4.5466    7.4397    4.6447 C   0  0  0  0  0  0  0  0  0  0  0  0
   -8.0833    2.9948    4.8144 C   0  0  0  0  0  0  0  0  0  0  0  0
   -8.0148    1.6195    4.8377 C   0  0  0  0  0  0  0  0  0  0  0  0
   -7.9812    0.9016    6.0201 C   0  0  0  0  0  0  0  0  0  0  0  0
   -8.0193    1.6249    7.2173 C   0  0  0  0  0  0  0  0  0  0  0  0
   -8.0880    3.0026    7.2137 C   0  0  0  0  0  0  0  0  0  0  0  0
   -8.1201    3.6926    6.0242 C   0  0  0  0  0  0  0  0  0  0  0  0
   -7.9072   -0.5590    6.1025 C   0  0  0  0  0  0  0  0  0  0  0  0
   -8.5445    3.0414    2.4080 C   0  0  0  0  0  0  0  0  0  0  0  0
   -8.6040    3.6546    1.1847 C   0  0  0  0  0  0  0  0  0  0  0  0
   -8.2203    4.9979    1.1092 C   0  0  0  0  0  0  0  0  0  0  0  0
   -7.3854    7.1090    2.1651 C   0  0  0  0  0  0  0  0  0  0  0  0
   -7.5284    7.9395    3.2787 N   0  0  0  0  0  0  0  0  0  0  0  0
   -6.9507    9.2230    3.4321 C   0  0  0  0  0  0  0  0  0  0  0  0
   -5.9559    9.4491    4.3513 C   0  0  0  0  0  0  0  0  0  0  0  0
   -4.6428    6.2116    4.8637 O   0  0  0  0  0  0  0  0  0  0  0  0
   -3.5514    7.9324    3.8225 O   0  0  0  0  0  0  0  0  0  0  0  0
   -6.8886    7.5917    1.1117 O   0  0  0  0  0  0  0  0  0  0  0  0
   -8.0964   -1.0695    7.4416 N   0  0  0  0  0  4  0  0  0  0  0  0
  1  2  2  0
  1 19  1  0
 20  1  1  0
  2  3  1  0
  3 10  1  0
  3 17  2  0
  5  4  2  0
  4 23  1  0
  6  5  1  0
  7  6  2  0
 22  7  1  0
  8  9  1  0
 23  8  1  0
  9 24  2  0
  9 25  1  0
 10 11  2  0
 10 15  1  0
 11 12  1  0
 12 13  2  0
 12 16  1  0
 14 13  1  0
 15 14  2  0
 16 27  1  0
 18 17  1  0
 19 18  2  0
 21 20  1  0
 20 26  2  0
 21 22  1  0
 22 23  2  0
M  CHG  1  27   1
M  END
$$$$
