
     RDKit          3D

 27 29  0  0  0  0  0  0  0  0999 V2000
   -7.5468    7.0088    3.1880 C   0  0  0  0  0  0  0  0  0  0  0  0
   -7.7547    5.6594    3.4699 C   0  0  0  0  0  0  0  0  0  0  0  0
   -7.7166    5.1339    4.7238 C   0  0  0  0  0  0  0  0  0  0  0  0
   -6.4502    6.7850   -2.7091 C   0  0  0  0  0  0  0  0  0  0  0  0
   -7.4949    7.4005   -3.3548 C   0  0  0  0  0  0  0  0  0  0  0  0
   -8.6370    7.7553   -2.6397 C   0  0  0  0  0  0  0  0  0  0  0  0
   -8.7122    7.4874   -1.2906 C   0  0  0  0  0  0  0  0  0  0  0  0
   -5.3962    5.8652   -0.6972 C   0  0  0  0  0  0  0  0  0  0  0  0
   -5.5852    4.4419   -0.4151 C   0  0  0  0  0  0  0  0  0  0  0  0
   -7.9322    3.7274    5.0303 C   0  0  0  0  0  0  0  0  0  0  0  0
   -7.6009    3.2126    6.2640 C   0  0  0  0  0  0  0  0  0  0  0  0
   -7.7942    1.8805    6.5847 C   0  0  0  0  0  0  0  0  0  0  0  0
   -8.3474    1.0524    5.6018 C   0  0  0  0  0  0  0  0  0  0  0  0
   -8.6856    1.5501    4.3606 C   0  0  0  0  0  0  0  0  0  0  0  0
   -8.4831    2.8785    4.0671 C   0  0  0  0  0  0  0  0  0  0  0  0
   -7.4616    1.2818    7.8794 C   0  0  0  0  0  0  0  0  0  0  0  0
   -7.4525    6.0100    5.7820 C   0  0  0  0  0  0  0  0  0  0  0  0
   -7.2389    7.3472    5.5759 C   0  0  0  0  0  0  0  0  0  0  0  0
   -7.2924    7.8210    4.2607 C   0  0  0  0  0  0  0  0  0  0  0  0
   -7.6119    7.4584    1.8040 C   0  0  0  0  0  0  0  0  0  0  0  0
   -7.7839    6.5592    0.7494 N   0  0  0  0  0  0  0  0  0  0  0  0
   -7.6678    6.8681   -0.6274 C   0  0  0  0  0  0  0  0  0  0  0  0
   -6.5467    6.5223   -1.3411 C   0  0  0  0  0  0  0  0  0  0  0  0
   -6.4141    3.7654   -1.0638 O   0  0  0  0  0  0  0  0  0  0  0  0
   -4.8290    3.8595    0.5840 O   0  0  0  0  0  0  0  0  0  0  0  0
   -7.5125    8.6871    1.5396 O   0  0  0  0  0  0  0  0  0  0  0  0
   -7.8223   -0.1147    7.9766 N   0  0  0  0  0  4  0  0  0  0  0  0
  1  2  2  0
  1 19  1  0
 20  1  1  0
  2  3  1  0
  3 10  1  0
  3 17  2  0
  5  4  2  0
  4 23  1  0
  6  5  1  0
  7  6  2  0
 22  7  1  0
  8  9  1  0
 23  8  1  0
  9 24  2  0
  9 25  1  0
 10 11  2  0
 10 15  1  0
 11 12  1  0
 12 13  2  0
 12 16  1  0
 14 13  1  0
 15 14  2  0
 16 27  1  0
 18 17  1  0
 19 18  2  0
 21 20  1  0
 20 26  2  0
 21 22  1  0
 22 23  2  0
M  CHG  1  27   1
M  END
$$$$
