
     RDKit          3D

 27 29  0  0  0  0  0  0  0  0999 V2000
   -7.5556    5.3713    2.0975 C   0  0  0  0  0  0  0  0  0  0  0  0
   -7.4741    4.7037    3.3187 C   0  0  0  0  0  0  0  0  0  0  0  0
   -8.0951    3.5218    3.5777 C   0  0  0  0  0  0  0  0  0  0  0  0
   -5.3540   10.7660    3.6917 C   0  0  0  0  0  0  0  0  0  0  0  0
   -4.1977   10.9382    2.9703 C   0  0  0  0  0  0  0  0  0  0  0  0
   -3.6774    9.8757    2.2342 C   0  0  0  0  0  0  0  0  0  0  0  0
   -4.3248    8.6598    2.2335 C   0  0  0  0  0  0  0  0  0  0  0  0
   -7.2335    9.3966    4.4642 C   0  0  0  0  0  0  0  0  0  0  0  0
   -7.0918    8.6364    5.7064 C   0  0  0  0  0  0  0  0  0  0  0  0
   -8.0172    2.8157    4.8482 C   0  0  0  0  0  0  0  0  0  0  0  0
   -8.1438    1.4455    4.9059 C   0  0  0  0  0  0  0  0  0  0  0  0
   -8.0739    0.7468    6.0981 C   0  0  0  0  0  0  0  0  0  0  0  0
   -7.8665    1.4844    7.2689 C   0  0  0  0  0  0  0  0  0  0  0  0
   -7.7374    2.8572    7.2309 C   0  0  0  0  0  0  0  0  0  0  0  0
   -7.8108    3.5280    6.0323 C   0  0  0  0  0  0  0  0  0  0  0  0
   -8.2002   -0.7077    6.2163 C   0  0  0  0  0  0  0  0  0  0  0  0
   -8.8563    2.9549    2.5499 C   0  0  0  0  0  0  0  0  0  0  0  0
   -8.9789    3.5573    1.3260 C   0  0  0  0  0  0  0  0  0  0  0  0
   -8.3136    4.7718    1.1273 C   0  0  0  0  0  0  0  0  0  0  0  0
   -6.8466    6.6332    1.9347 C   0  0  0  0  0  0  0  0  0  0  0  0
   -6.1143    7.2016    2.9793 N   0  0  0  0  0  0  0  0  0  0  0  0
   -5.4901    8.4722    2.9553 C   0  0  0  0  0  0  0  0  0  0  0  0
   -5.9946    9.5254    3.6777 C   0  0  0  0  0  0  0  0  0  0  0  0
   -7.3615    7.4152    5.7437 O   0  0  0  0  0  0  0  0  0  0  0  0
   -6.6539    9.2956    6.8391 O   0  0  0  0  0  0  0  0  0  0  0  0
   -6.8870    7.2357    0.8281 O   0  0  0  0  0  0  0  0  0  0  0  0
   -8.1738   -1.1778    7.5831 N   0  0  0  0  0  4  0  0  0  0  0  0
  1  2  2  0
  1 19  1  0
 20  1  1  0
  2  3  1  0
  3 10  1  0
  3 17  2  0
  5  4  2  0
  4 23  1  0
  6  5  1  0
  7  6  2  0
 22  7  1  0
  8  9  1  0
 23  8  1  0
  9 24  2  0
  9 25  1  0
 10 11  2  0
 10 15  1  0
 11 12  1  0
 12 13  2  0
 12 16  1  0
 14 13  1  0
 15 14  2  0
 16 27  1  0
 18 17  1  0
 19 18  2  0
 21 20  1  0
 20 26  2  0
 21 22  1  0
 22 23  2  0
M  CHG  1  27   1
M  END
$$$$
