
     RDKit          3D

 27 29  0  0  0  0  0  0  0  0999 V2000
   -7.9556    5.8699    3.0782 C   0  0  0  0  0  0  0  0  0  0  0  0
   -7.8454    5.0204    4.1781 C   0  0  0  0  0  0  0  0  0  0  0  0
   -8.1680    3.6996    4.1493 C   0  0  0  0  0  0  0  0  0  0  0  0
   -5.0472   11.0110    3.9927 C   0  0  0  0  0  0  0  0  0  0  0  0
   -4.0348   10.6014    4.8261 C   0  0  0  0  0  0  0  0  0  0  0  0
   -3.7712    9.2415    4.9771 C   0  0  0  0  0  0  0  0  0  0  0  0
   -4.5260    8.3162    4.2904 C   0  0  0  0  0  0  0  0  0  0  0  0
   -6.8704   10.5503    2.4216 C   0  0  0  0  0  0  0  0  0  0  0  0
   -8.1554   10.7751    3.0846 C   0  0  0  0  0  0  0  0  0  0  0  0
   -8.0570    2.8032    5.2908 C   0  0  0  0  0  0  0  0  0  0  0  0
   -7.7017    1.4832    5.1228 C   0  0  0  0  0  0  0  0  0  0  0  0
   -7.5878    0.6076    6.1881 C   0  0  0  0  0  0  0  0  0  0  0  0
   -7.8483    1.1090    7.4681 C   0  0  0  0  0  0  0  0  0  0  0  0
   -8.2053    2.4281    7.6560 C   0  0  0  0  0  0  0  0  0  0  0  0
   -8.3116    3.2781    6.5798 C   0  0  0  0  0  0  0  0  0  0  0  0
   -7.2127   -0.8031    6.0665 C   0  0  0  0  0  0  0  0  0  0  0  0
   -8.6362    3.1767    2.9391 C   0  0  0  0  0  0  0  0  0  0  0  0
   -8.7689    3.9550    1.8198 C   0  0  0  0  0  0  0  0  0  0  0  0
   -8.4190    5.3059    1.9196 C   0  0  0  0  0  0  0  0  0  0  0  0
   -7.5800    7.2693    3.2272 C   0  0  0  0  0  0  0  0  0  0  0  0
   -6.3431    7.7461    2.7876 N   0  0  0  0  0  0  0  0  0  0  0  0
   -5.5485    8.7144    3.4478 C   0  0  0  0  0  0  0  0  0  0  0  0
   -5.8006   10.0568    3.3059 C   0  0  0  0  0  0  0  0  0  0  0  0
   -9.0343   11.4885    2.5517 O   0  0  0  0  0  0  0  0  0  0  0  0
   -8.3784   10.1830    4.3129 O   0  0  0  0  0  0  0  0  0  0  0  0
   -8.3832    8.0794    3.7639 O   0  0  0  0  0  0  0  0  0  0  0  0
   -8.0963   -1.6965    6.7811 N   0  0  0  0  0  4  0  0  0  0  0  0
  1  2  2  0
  1 19  1  0
 20  1  1  0
  2  3  1  0
  3 10  1  0
  3 17  2  0
  5  4  2  0
  4 23  1  0
  6  5  1  0
  7  6  2  0
 22  7  1  0
  8  9  1  0
 23  8  1  0
  9 24  2  0
  9 25  1  0
 10 11  2  0
 10 15  1  0
 11 12  1  0
 12 13  2  0
 12 16  1  0
 14 13  1  0
 15 14  2  0
 16 27  1  0
 18 17  1  0
 19 18  2  0
 21 20  1  0
 20 26  2  0
 21 22  1  0
 22 23  2  0
M  CHG  1  27   1
M  END
$$$$
