
     RDKit          3D

 27 29  0  0  0  0  0  0  0  0999 V2000
   -7.6087    5.2821    2.4628 C   0  0  0  0  0  0  0  0  0  0  0  0
   -7.5352    4.6019    3.6774 C   0  0  0  0  0  0  0  0  0  0  0  0
   -8.0886    3.3786    3.8942 C   0  0  0  0  0  0  0  0  0  0  0  0
   -5.6740   10.8108    4.0681 C   0  0  0  0  0  0  0  0  0  0  0  0
   -4.4414   10.9388    3.4754 C   0  0  0  0  0  0  0  0  0  0  0  0
   -3.8546    9.8373    2.8557 C   0  0  0  0  0  0  0  0  0  0  0  0
   -4.5131    8.6275    2.8404 C   0  0  0  0  0  0  0  0  0  0  0  0
   -7.6461    9.4948    4.6875 C   0  0  0  0  0  0  0  0  0  0  0  0
   -8.7789    9.7296    3.7915 C   0  0  0  0  0  0  0  0  0  0  0  0
   -8.0183    2.6589    5.1575 C   0  0  0  0  0  0  0  0  0  0  0  0
   -7.9068    1.2865    5.1854 C   0  0  0  0  0  0  0  0  0  0  0  0
   -7.8376    0.5750    6.3702 C   0  0  0  0  0  0  0  0  0  0  0  0
   -7.8845    1.3018    7.5648 C   0  0  0  0  0  0  0  0  0  0  0  0
   -7.9959    2.6767    7.5567 C   0  0  0  0  0  0  0  0  0  0  0  0
   -8.0630    3.3603    6.3650 C   0  0  0  0  0  0  0  0  0  0  0  0
   -7.7172   -0.8822    6.4574 C   0  0  0  0  0  0  0  0  0  0  0  0
   -8.7679    2.7803    2.8275 C   0  0  0  0  0  0  0  0  0  0  0  0
   -8.8780    3.3930    1.6074 C   0  0  0  0  0  0  0  0  0  0  0  0
   -8.2850    4.6507    1.4533 C   0  0  0  0  0  0  0  0  0  0  0  0
   -6.9768    6.5894    2.3470 C   0  0  0  0  0  0  0  0  0  0  0  0
   -6.3939    7.2208    3.4479 N   0  0  0  0  0  0  0  0  0  0  0  0
   -5.7549    8.4842    3.4334 C   0  0  0  0  0  0  0  0  0  0  0  0
   -6.3246    9.5756    4.0417 C   0  0  0  0  0  0  0  0  0  0  0  0
   -9.9473    9.4687    4.1551 O   0  0  0  0  0  0  0  0  0  0  0  0
   -8.5316   10.2457    2.5338 O   0  0  0  0  0  0  0  0  0  0  0  0
   -6.9485    7.1744    1.2306 O   0  0  0  0  0  0  0  0  0  0  0  0
   -8.8538   -1.5867    5.9082 N   0  0  0  0  0  4  0  0  0  0  0  0
  1  2  2  0
  1 19  1  0
 20  1  1  0
  2  3  1  0
  3 10  1  0
  3 17  2  0
  5  4  2  0
  4 23  1  0
  6  5  1  0
  7  6  2  0
 22  7  1  0
  8  9  1  0
 23  8  1  0
  9 24  2  0
  9 25  1  0
 10 11  2  0
 10 15  1  0
 11 12  1  0
 12 13  2  0
 12 16  1  0
 14 13  1  0
 15 14  2  0
 16 27  1  0
 18 17  1  0
 19 18  2  0
 21 20  1  0
 20 26  2  0
 21 22  1  0
 22 23  2  0
M  CHG  1  27   1
M  END
$$$$
