
     RDKit          3D

111117  0  0  0  0  0  0  0  0999 V2000
   -3.8163    8.1851   37.9737 N   0  0  0  0  0  0  0  0  0  0  0  0
   -3.2405    8.0885   36.7564 C   0  0  2  0  0  0  0  0  0  0  0  0
   -2.9215    9.3550   36.0781 C   0  0  0  0  0  0  0  0  0  0  0  0
   -3.0322   10.3696   36.8728 O   0  0  0  0  0  0  0  0  0  0  0  0
   -2.5306    9.6118   34.7630 N   0  0  0  0  0  0  0  0  0  0  0  0
   -3.1664    9.2616   33.5261 C   0  0  2  0  0  0  0  0  0  0  0  0
   -4.6342    9.4459   33.4996 C   0  0  0  0  0  0  0  0  0  0  0  0
   -5.2770    8.4864   34.0724 O   0  0  0  0  0  0  0  0  0  0  0  0
   -2.8220    7.9029   32.9765 C   0  0  0  0  0  0  0  0  0  0  0  0
   -3.1695    6.7199   33.7732 C   0  0  0  0  0  0  0  0  0  0  0  0
   -2.1700    5.6508   33.9894 C   0  0  0  0  0  0  0  0  0  0  0  0
   -2.3238    4.9636   35.2639 N   0  0  0  0  0  0  0  0  0  0  0  0
   -1.8368    3.6530   35.5009 C   0  0  0  0  0  0  0  0  0  0  0  0
   -2.1200    2.8862   36.6634 N   0  0  0  0  0  0  0  0  0  0  0  0
   -1.0776    3.1567   34.5646 N   0  0  0  0  0  0  0  0  0  0  0  0
   -5.3992   10.4779   32.9564 N   0  0  0  0  0  0  0  0  0  0  0  0
   -5.2025   11.8823   32.8577 C   0  0  2  0  0  0  0  0  0  0  0  0
   -4.8468   12.3989   31.5107 C   0  0  0  0  0  0  0  0  0  0  0  0
   -3.9595   13.3278   31.4431 O   0  0  0  0  0  0  0  0  0  0  0  0
   -4.2058   12.4764   33.8471 C   0  0  0  0  0  0  0  0  0  0  0  0
   -4.9234   12.6801   35.4729 S   0  0  0  0  0  0  0  0  0  0  0  0
   -5.3821   11.9824   30.2745 N   0  0  0  0  0  0  0  0  0  0  0  0
   -5.2902   10.6871   29.6614 C   0  0  2  0  0  0  0  0  0  0  0  0
   -4.2075   10.5072   28.6807 C   0  0  0  0  0  0  0  0  0  0  0  0
   -3.5925    9.3802   28.7266 O   0  0  0  0  0  0  0  0  0  0  0  0
   -6.6476   10.3395   29.0664 C   0  0  2  0  0  0  0  0  0  0  0  0
   -6.5765    9.0479   28.5739 O   0  0  0  0  0  0  0  0  0  0  0  0
   -7.0450   11.3423   28.0105 C   0  0  0  0  0  0  0  0  0  0  0  0
   -3.7617   11.4097   27.6964 N   0  0  0  0  0  0  0  0  0  0  0  0
   -3.5567   12.8165   27.7803 C   0  0  2  0  0  0  0  0  0  0  0  0
   -4.5095   13.4357   26.7666 C   0  0  0  0  0  0  0  0  0  0  0  0
   -5.6695   12.8729   26.6611 O   0  0  0  0  0  0  0  0  0  0  0  0
   -2.1776   13.3516   27.6017 C   0  0  0  0  0  0  0  0  0  0  0  0
   -1.0380   12.5879   28.1466 C   0  0  0  0  0  0  0  0  0  0  0  0
   -1.0806   11.1386   28.3612 C   0  0  0  0  0  0  0  0  0  0  0  0
    0.1118   10.4962   29.0009 C   0  0  0  0  0  0  0  0  0  0  0  0
    0.1731    9.0727   29.0306 N   0  0  0  0  0  4  0  0  0  0  0  0
   -4.2877   14.5204   25.9441 N   0  0  0  0  0  0  0  0  0  0  0  0
   -3.9568   15.9062   26.3058 C   0  0  2  0  0  0  0  0  0  0  0  0
   -4.4209   16.3083   27.6374 C   0  0  0  0  0  0  0  0  0  0  0  0
   -5.6034   15.8640   27.9276 O   0  0  0  0  0  0  0  0  0  0  0  0
   -4.6080   16.7715   25.2103 C   0  0  0  0  0  0  0  0  0  0  0  0
   -6.0043   16.6424   25.2816 O   0  0  0  0  0  0  0  0  0  0  0  0
   -3.7865   17.0852   28.6206 N   0  0  0  0  0  0  0  0  0  0  0  0
   -3.3150   18.4735   28.4899 C   0  0  2  0  0  0  0  0  0  0  0  0
   -4.4007   19.4521   28.4760 C   0  0  0  0  0  0  0  0  0  0  0  0
   -5.2415   19.3965   27.5098 O   0  0  0  0  0  0  0  0  0  0  0  0
   -2.1972   18.5932   27.5430 C   0  0  0  0  0  0  0  0  0  0  0  0
   -1.0071   19.4129   27.8570 C   0  0  0  0  0  0  0  0  0  0  0  0
   -0.2932   19.1260   29.1260 C   0  0  0  0  0  0  0  0  0  0  0  0
   -1.0015   18.1478   29.9198 N   0  0  0  0  0  0  0  0  0  0  0  0
   -0.5218   17.6252   31.1460 C   0  0  0  0  0  0  0  0  0  0  0  0
    0.1603   16.3523   31.1888 N   0  0  0  0  0  0  0  0  0  0  0  0
   -0.6973   18.3019   32.2228 N   0  0  0  0  0  0  0  0  0  0  0  0
   -4.6350   20.4671   29.4213 N   0  0  0  0  0  0  0  0  0  0  0  0
   -4.4207   20.3707   30.8579 C   0  0  2  0  0  0  0  0  0  0  0  0
   -5.5785   20.7914   31.6781 C   0  0  0  0  0  0  0  0  0  0  0  0
   -5.2689   21.6687   32.5918 O   0  0  0  0  0  0  0  0  0  0  0  0
   -3.3493   21.5013   30.9386 C   0  0  0  0  0  0  0  0  0  0  0  0
   -4.1091   22.5957   30.1711 C   0  0  0  0  0  0  0  0  0  0  0  0
   -5.1050   21.8388   29.2721 C   0  0  0  0  0  0  0  0  0  0  0  0
   -6.9116   20.4039   31.6226 N   0  0  0  0  0  0  0  0  0  0  0  0
   -7.5161   19.1035   31.7958 C   0  0  2  0  0  0  0  0  0  0  0  0
   -6.7198   18.0094   32.2622 C   0  0  0  0  0  0  0  0  0  0  0  0
   -5.8675   17.4653   31.5285 O   0  0  0  0  0  0  0  0  0  0  0  0
   -8.1280   18.9487   30.4035 C   0  0  0  0  0  0  0  0  0  0  0  0
   -8.7404   20.3510   30.2472 C   0  0  0  0  0  0  0  0  0  0  0  0
   -8.1427   21.1911   31.3869 C   0  0  0  0  0  0  0  0  0  0  0  0
   -6.8595   17.4866   33.5839 N   0  0  0  0  0  0  0  0  0  0  0  0
   -7.0285   18.2679   34.7826 C   0  0  2  0  0  0  0  0  0  0  0  0
   -5.8560   18.2340   35.6931 C   0  0  0  0  0  0  0  0  0  0  0  0
   -5.1166   19.2943   35.6901 O   0  0  0  0  0  0  0  0  0  0  0  0
   -8.3109   17.9588   35.5429 C   0  0  2  0  0  0  0  0  0  0  0  0
   -9.0767   16.7974   34.9921 C   0  0  0  0  0  0  0  0  0  0  0  0
   -9.2028   19.2216   35.5568 C   0  0  0  0  0  0  0  0  0  0  0  0
   -8.1946   15.9894   34.0690 C   0  0  0  0  0  0  0  0  0  0  0  0
   -5.4594   17.1956   36.5506 N   0  0  0  0  0  0  0  0  0  0  0  0
   -5.1596   15.8227   36.2571 C   0  0  2  0  0  0  0  0  0  0  0  0
   -6.1077   14.8221   36.7751 C   0  0  0  0  0  0  0  0  0  0  0  0
   -7.0354   14.5032   35.9043 O   0  0  0  0  0  0  0  0  0  0  0  0
   -3.7589   15.4424   36.7742 C   0  0  0  0  0  0  0  0  0  0  0  0
   -3.5158   13.6502   36.7329 S   0  0  0  0  0  0  0  0  0  0  0  0
   -6.1442   14.1924   38.0269 N   0  0  0  0  0  0  0  0  0  0  0  0
   -6.0530   14.7678   39.3512 C   0  0  2  0  0  0  0  0  0  0  0  0
   -5.2373   14.0528   40.3125 C   0  0  0  0  0  0  0  0  0  0  0  0
   -3.9317   14.3464   40.1492 O   0  0  0  0  0  0  0  0  0  0  0  0
   -7.3569   15.3678   39.7854 C   0  0  0  0  0  0  0  0  0  0  0  0
   -7.6819   16.7055   39.3027 C   0  0  0  0  0  0  0  0  0  0  0  0
   -8.9058   17.3186   39.5680 C   0  0  0  0  0  0  0  0  0  0  0  0
   -6.7953   17.4016   38.5197 C   0  0  0  0  0  0  0  0  0  0  0  0
   -9.2333   18.5685   39.0781 C   0  0  0  0  0  0  0  0  0  0  0  0
   -7.1005   18.6585   38.0148 C   0  0  0  0  0  0  0  0  0  0  0  0
   -8.3286   19.2491   38.2953 C   0  0  0  0  0  0  0  0  0  0  0  0
   -5.4003   13.1417   41.3716 N   0  0  0  0  0  0  0  0  0  0  0  0
   -5.8200   11.7713   41.3660 C   0  0  2  0  0  0  0  0  0  0  0  0
   -6.2592   11.1526   40.1464 C   0  0  0  0  0  0  0  0  0  0  0  0
   -7.4233   11.4491   39.6983 O   0  0  0  0  0  0  0  0  0  0  0  0
   -6.7692   11.6420   42.5190 C   0  0  0  0  0  0  0  0  0  0  0  0
   -6.2688   12.6848   43.4767 C   0  0  0  0  0  0  0  0  0  0  0  0
   -5.0785   13.3209   42.8195 C   0  0  0  0  0  0  0  0  0  0  0  0
   -5.4347   10.2284   39.4453 N   0  0  0  0  0  0  0  0  0  0  0  0
   -4.7618    9.1210   40.0889 C   0  0  2  0  0  0  0  0  0  0  0  0
   -3.6056    8.5867   39.2807 C   0  0  0  0  0  0  0  0  0  0  0  0
   -2.5347    8.5777   39.9520 O   0  0  0  0  0  0  0  0  0  0  0  0
   -5.7983    7.9826   40.0516 C   0  0  0  0  0  0  0  0  0  0  0  0
   -5.4423    6.8602   40.9174 C   0  0  0  0  0  0  0  0  0  0  0  0
   -6.2076    6.3360   41.9446 O   0  0  0  0  0  0  0  0  0  0  0  0
   -4.3330    6.2977   40.7267 O   0  0  0  0  0  0  0  0  0  0  0  0
   -4.5894    7.6440   36.8674 O   0  0  0  0  0  0  0  0  0  0  0  0
   -0.6996    2.1779   34.6099 H   0  0  0  0  0  0  0  0  0  0  0  0
   -0.2979   18.0398   33.1322 H   0  0  0  0  0  0  0  0  0  0  0  0
  1  2  1  0
  1103  1  0
  1109  1  0
  2  3  1  0
  2109  1  6
  3  4  2  0
  3  5  1  0
  5  6  1  0
  6  7  1  0
  6  9  1  1
  7  8  2  0
  7 16  1  0
  9 10  1  0
 10 11  1  0
 11 12  1  0
 12 13  1  0
 13 14  1  0
 13 15  2  0
 17 16  1  6
 17 18  1  0
 17 20  1  0
 18 19  2  0
 18 22  1  0
 20 21  1  0
 21 82  1  0
 23 22  1  6
 23 24  1  0
 23 26  1  0
 24 25  2  0
 24 29  1  0
 26 27  1  0
 26 28  1  6
 29 30  1  0
 30 31  1  0
 30 33  1  6
 31 32  2  0
 31 38  1  0
 33 34  1  0
 34 35  1  0
 35 36  1  0
 36 37  1  0
 38 39  1  0
 39 40  1  0
 39 42  1  6
 40 41  2  0
 40 44  1  0
 42 43  1  0
 44 45  1  0
 45 46  1  0
 45 48  1  6
 46 47  2  0
 46 55  1  0
 48 49  1  0
 49 50  1  0
 50 51  1  0
 51 52  1  0
 52 53  1  0
 52 54  2  0
 55 56  1  0
 55 61  1  0
 56 57  1  0
 56 59  1  1
 57 58  2  0
 57 62  1  0
 59 60  1  0
 60 61  1  0
 62 63  1  0
 62 68  1  0
 63 64  1  0
 63 66  1  6
 64 65  2  0
 64 69  1  0
 66 67  1  0
 67 68  1  0
 70 69  1  6
 70 71  1  0
 70 73  1  0
 71 72  2  0
 71 77  1  0
 73 74  1  0
 73 75  1  6
 74 76  1  0
 78 77  1  1
 78 79  1  0
 78 81  1  0
 79 80  2  0
 79 83  1  0
 81 82  1  0
 83 84  1  0
 84 85  1  0
 84 87  1  1
 85 86  2  0
 85 94  1  0
 87 88  1  0
 88 89  2  0
 88 90  1  0
 89 91  1  0
 90 92  2  0
 91 93  2  0
 92 93  1  0
 94 95  1  0
 94100  1  0
 95 96  1  0
 95 98  1  1
 96 97  2  0
 96101  1  0
 98 99  1  0
 99100  1  0
101102  1  0
102103  1  0
102105  1  6
103104  2  0
105106  1  0
106107  1  0
106108  2  0
 15110  1  0
 54111  1  0
M  CHG  1  37   1
M  END
$$$$
