
     RDKit          3D

111117  0  0  0  0  0  0  0  0999 V2000
   -5.5283    7.8247   38.5158 N   0  0  0  0  0  0  0  0  0  0  0  0
   -4.7789    7.6123   37.4131 C   0  0  2  0  0  0  0  0  0  0  0  0
   -4.2094    8.8051   36.7659 C   0  0  0  0  0  0  0  0  0  0  0  0
   -4.3279    9.8591   37.5063 O   0  0  0  0  0  0  0  0  0  0  0  0
   -3.5843    8.9598   35.5276 N   0  0  0  0  0  0  0  0  0  0  0  0
   -4.0486    8.6290   34.2116 C   0  0  2  0  0  0  0  0  0  0  0  0
   -5.4613    8.9736   33.9385 C   0  0  0  0  0  0  0  0  0  0  0  0
   -6.2954    8.1171   34.4206 O   0  0  0  0  0  0  0  0  0  0  0  0
   -3.7807    7.2180   33.7599 C   0  0  0  0  0  0  0  0  0  0  0  0
   -2.5397    6.9449   33.0249 C   0  0  0  0  0  0  0  0  0  0  0  0
   -1.3082    7.7017   33.3402 C   0  0  0  0  0  0  0  0  0  0  0  0
   -0.1870    6.8525   33.7167 N   0  0  0  0  0  0  0  0  0  0  0  0
   -0.1939    5.4437   33.5548 C   0  0  0  0  0  0  0  0  0  0  0  0
   -1.0733    4.7363   32.6911 N   0  0  0  0  0  0  0  0  0  0  0  0
    0.6795    4.7906   34.2689 N   0  0  0  0  0  0  0  0  0  0  0  0
   -6.0032   10.0597   33.2512 N   0  0  0  0  0  0  0  0  0  0  0  0
   -5.6310   11.4280   33.1520 C   0  0  2  0  0  0  0  0  0  0  0  0
   -5.0049   11.8431   31.8700 C   0  0  0  0  0  0  0  0  0  0  0  0
   -4.0163   12.6642   31.9272 O   0  0  0  0  0  0  0  0  0  0  0  0
   -4.7446   11.9501   34.2776 C   0  0  0  0  0  0  0  0  0  0  0  0
   -5.6864   12.3023   35.7570 S   0  0  0  0  0  0  0  0  0  0  0  0
   -5.3786   11.4355   30.5730 N   0  0  0  0  0  0  0  0  0  0  0  0
   -5.3405   10.1127   30.0154 C   0  0  2  0  0  0  0  0  0  0  0  0
   -4.1422    9.7716   29.2317 C   0  0  0  0  0  0  0  0  0  0  0  0
   -3.6782    8.5864   29.4062 O   0  0  0  0  0  0  0  0  0  0  0  0
   -6.6153    9.8923   29.2130 C   0  0  2  0  0  0  0  0  0  0  0  0
   -6.8683   11.0473   28.4933 O   0  0  0  0  0  0  0  0  0  0  0  0
   -7.7613    9.5095   30.1178 C   0  0  0  0  0  0  0  0  0  0  0  0
   -3.4415   10.5756   28.3127 N   0  0  0  0  0  0  0  0  0  0  0  0
   -3.0903   11.9533   28.3948 C   0  0  2  0  0  0  0  0  0  0  0  0
   -3.7884   12.6300   27.2228 C   0  0  0  0  0  0  0  0  0  0  0  0
   -4.9738   12.1952   26.9410 O   0  0  0  0  0  0  0  0  0  0  0  0
   -1.6476   12.3240   28.4335 C   0  0  0  0  0  0  0  0  0  0  0  0
   -0.8826   12.3532   27.1715 C   0  0  0  0  0  0  0  0  0  0  0  0
   -1.5223   12.3777   25.8530 C   0  0  0  0  0  0  0  0  0  0  0  0
   -0.9104   13.2503   24.8006 C   0  0  0  0  0  0  0  0  0  0  0  0
   -0.9137   12.7825   23.4544 N   0  0  0  0  0  4  0  0  0  0  0  0
   -3.3121   13.6468   26.4219 N   0  0  0  0  0  0  0  0  0  0  0  0
   -2.8848   15.0016   26.7992 C   0  0  2  0  0  0  0  0  0  0  0  0
   -3.5075   15.5099   28.0256 C   0  0  0  0  0  0  0  0  0  0  0  0
   -4.7649   15.2125   28.1272 O   0  0  0  0  0  0  0  0  0  0  0  0
   -3.2454   15.8856   25.5903 C   0  0  0  0  0  0  0  0  0  0  0  0
   -2.8493   17.2085   25.8445 O   0  0  0  0  0  0  0  0  0  0  0  0
   -2.9539   16.2536   29.0807 N   0  0  0  0  0  0  0  0  0  0  0  0
   -2.3090   17.5740   28.9957 C   0  0  2  0  0  0  0  0  0  0  0  0
   -3.2568   18.6655   28.7787 C   0  0  0  0  0  0  0  0  0  0  0  0
   -3.9315   18.6617   27.6885 O   0  0  0  0  0  0  0  0  0  0  0  0
   -1.0469   17.5280   28.2438 C   0  0  0  0  0  0  0  0  0  0  0  0
   -0.8460   16.5696   27.1357 C   0  0  0  0  0  0  0  0  0  0  0  0
   -0.4632   15.1808   27.4921 C   0  0  0  0  0  0  0  0  0  0  0  0
   -1.1045   14.7546   28.7150 N   0  0  0  0  0  0  0  0  0  0  0  0
   -0.5385   14.9146   30.0037 C   0  0  0  0  0  0  0  0  0  0  0  0
    0.7092   14.2718   30.3464 N   0  0  0  0  0  0  0  0  0  0  0  0
   -1.1482   15.6452   30.8656 N   0  0  0  0  0  0  0  0  0  0  0  0
   -3.5207   19.7402   29.6471 N   0  0  0  0  0  0  0  0  0  0  0  0
   -3.5537   19.6828   31.1013 C   0  0  2  0  0  0  0  0  0  0  0  0
   -4.7716   20.2644   31.7084 C   0  0  0  0  0  0  0  0  0  0  0  0
   -4.5134   21.1407   32.6389 O   0  0  0  0  0  0  0  0  0  0  0  0
   -2.3850   20.6901   31.3301 C   0  0  0  0  0  0  0  0  0  0  0  0
   -2.8783   21.8278   30.4210 C   0  0  0  0  0  0  0  0  0  0  0  0
   -3.7974   21.1478   29.3887 C   0  0  0  0  0  0  0  0  0  0  0  0
   -6.1143   20.0251   31.4429 N   0  0  0  0  0  0  0  0  0  0  0  0
   -6.8860   18.8084   31.5457 C   0  0  2  0  0  0  0  0  0  0  0  0
   -6.3083   17.6540   32.1640 C   0  0  0  0  0  0  0  0  0  0  0  0
   -5.4180   16.9874   31.5947 O   0  0  0  0  0  0  0  0  0  0  0  0
   -7.2792   18.6623   30.0757 C   0  0  0  0  0  0  0  0  0  0  0  0
   -7.6908   20.1157   29.7861 C   0  0  0  0  0  0  0  0  0  0  0  0
   -7.1910   20.9330   30.9879 C   0  0  0  0  0  0  0  0  0  0  0  0
   -6.7193   17.2075   33.4568 N   0  0  0  0  0  0  0  0  0  0  0  0
   -6.9872   18.0539   34.5916 C   0  0  2  0  0  0  0  0  0  0  0  0
   -5.9890   17.9297   35.6838 C   0  0  0  0  0  0  0  0  0  0  0  0
   -5.1404   18.9003   35.7770 O   0  0  0  0  0  0  0  0  0  0  0  0
   -8.4026   17.9221   35.1370 C   0  0  2  0  0  0  0  0  0  0  0  0
   -9.2787   19.0978   34.8388 C   0  0  0  0  0  0  0  0  0  0  0  0
   -8.3324   17.6889   36.6638 C   0  0  0  0  0  0  0  0  0  0  0  0
   -8.6341   20.3644   35.3519 C   0  0  0  0  0  0  0  0  0  0  0  0
   -5.8596   16.8918   36.6203 N   0  0  0  0  0  0  0  0  0  0  0  0
   -5.6783   15.4827   36.4141 C   0  0  2  0  0  0  0  0  0  0  0  0
   -6.8076   14.6167   36.7927 C   0  0  0  0  0  0  0  0  0  0  0  0
   -7.6135   14.3652   35.7887 O   0  0  0  0  0  0  0  0  0  0  0  0
   -4.4333   14.9722   37.1647 C   0  0  0  0  0  0  0  0  0  0  0  0
   -4.3972   13.1639   37.2080 S   0  0  0  0  0  0  0  0  0  0  0  0
   -7.1186   14.0497   38.0364 N   0  0  0  0  0  0  0  0  0  0  0  0
   -7.1759   14.6682   39.3430 C   0  0  2  0  0  0  0  0  0  0  0  0
   -6.6148   13.9095   40.4431 C   0  0  0  0  0  0  0  0  0  0  0  0
   -5.2747   14.0491   40.4906 O   0  0  0  0  0  0  0  0  0  0  0  0
   -8.4538   15.4273   39.5411 C   0  0  0  0  0  0  0  0  0  0  0  0
   -9.4000   15.4635   38.4313 C   0  0  0  0  0  0  0  0  0  0  0  0
  -10.6295   16.1153   38.5188 C   0  0  0  0  0  0  0  0  0  0  0  0
   -9.1266   14.8081   37.2568 C   0  0  0  0  0  0  0  0  0  0  0  0
  -11.5457   16.1170   37.4844 C   0  0  0  0  0  0  0  0  0  0  0  0
  -10.0305   14.7942   36.2030 C   0  0  0  0  0  0  0  0  0  0  0  0
  -11.2504   15.4538   36.3150 C   0  0  0  0  0  0  0  0  0  0  0  0
   -7.0515   13.0687   41.4828 N   0  0  0  0  0  0  0  0  0  0  0  0
   -7.6214   11.7544   41.4415 C   0  0  2  0  0  0  0  0  0  0  0  0
   -7.9272   11.1360   40.1817 C   0  0  0  0  0  0  0  0  0  0  0  0
   -8.9612   11.5401   39.5403 O   0  0  0  0  0  0  0  0  0  0  0  0
   -8.7527   11.7811   42.4247 C   0  0  0  0  0  0  0  0  0  0  0  0
   -8.2953   12.8025   43.4260 C   0  0  0  0  0  0  0  0  0  0  0  0
   -6.9487   13.2736   42.9591 C   0  0  0  0  0  0  0  0  0  0  0  0
   -7.1137   10.0966   39.6493 N   0  0  0  0  0  0  0  0  0  0  0  0
   -6.6871    8.9503   40.4221 C   0  0  2  0  0  0  0  0  0  0  0  0
   -5.4859    8.2566   39.8294 C   0  0  0  0  0  0  0  0  0  0  0  0
   -4.5457    8.1580   40.6684 O   0  0  0  0  0  0  0  0  0  0  0  0
   -7.8294    7.9333   40.2421 C   0  0  0  0  0  0  0  0  0  0  0  0
   -7.7277    6.7958   41.1541 C   0  0  0  0  0  0  0  0  0  0  0  0
   -7.9716    5.4684   40.8473 O   0  0  0  0  0  0  0  0  0  0  0  0
   -7.3841    7.0228   42.3431 O   0  0  0  0  0  0  0  0  0  0  0  0
   -6.1705    7.3253   37.3106 O   0  0  0  0  0  0  0  0  0  0  0  0
    0.4966    4.5185   35.2666 H   0  0  0  0  0  0  0  0  0  0  0  0
   -1.0823   15.5041   31.8809 H   0  0  0  0  0  0  0  0  0  0  0  0
  1  2  1  0
  1103  1  0
  1109  1  0
  2  3  1  0
  2109  1  6
  3  4  2  0
  3  5  1  0
  5  6  1  0
  6  7  1  0
  6  9  1  1
  7  8  2  0
  7 16  1  0
  9 10  1  0
 10 11  1  0
 11 12  1  0
 12 13  1  0
 13 14  1  0
 13 15  2  0
 17 16  1  6
 17 18  1  0
 17 20  1  0
 18 19  2  0
 18 22  1  0
 20 21  1  0
 21 82  1  0
 23 22  1  6
 23 24  1  0
 23 26  1  0
 24 25  2  0
 24 29  1  0
 26 27  1  0
 26 28  1  1
 29 30  1  0
 30 31  1  0
 30 33  1  6
 31 32  2  0
 31 38  1  0
 33 34  1  0
 34 35  1  0
 35 36  1  0
 36 37  1  0
 38 39  1  0
 39 40  1  0
 39 42  1  6
 40 41  2  0
 40 44  1  0
 42 43  1  0
 44 45  1  0
 45 46  1  0
 45 48  1  6
 46 47  2  0
 46 55  1  0
 48 49  1  0
 49 50  1  0
 50 51  1  0
 51 52  1  0
 52 53  1  0
 52 54  2  0
 55 56  1  0
 55 61  1  0
 56 57  1  0
 56 59  1  1
 57 58  2  0
 57 62  1  0
 59 60  1  0
 60 61  1  0
 62 63  1  0
 62 68  1  0
 63 64  1  0
 63 66  1  6
 64 65  2  0
 64 69  1  0
 66 67  1  0
 67 68  1  0
 70 69  1  6
 70 71  1  0
 70 73  1  0
 71 72  2  0
 71 77  1  0
 73 74  1  0
 73 75  1  1
 74 76  1  0
 78 77  1  1
 78 79  1  0
 78 81  1  0
 79 80  2  0
 79 83  1  0
 81 82  1  0
 83 84  1  0
 84 85  1  0
 84 87  1  1
 85 86  2  0
 85 94  1  0
 87 88  1  0
 88 89  2  0
 88 90  1  0
 89 91  1  0
 90 92  2  0
 91 93  2  0
 92 93  1  0
 94 95  1  0
 94100  1  0
 95 96  1  0
 95 98  1  1
 96 97  2  0
 96101  1  0
 98 99  1  0
 99100  1  0
101102  1  0
102103  1  0
102105  1  6
103104  2  0
105106  1  0
106107  1  0
106108  2  0
 15110  1  0
 54111  1  0
M  CHG  1  37   1
M  END
$$$$
