
     RDKit          3D

111117  0  0  0  0  0  0  0  0999 V2000
   -2.8171    7.8732   35.4327 N   0  0  0  0  0  0  0  0  0  0  0  0
   -2.3857    8.2501   34.2103 C   0  0  2  0  0  0  0  0  0  0  0  0
   -2.2984    9.6981   33.9620 C   0  0  0  0  0  0  0  0  0  0  0  0
   -2.4276   10.3835   35.0514 O   0  0  0  0  0  0  0  0  0  0  0  0
   -2.1016   10.4100   32.7777 N   0  0  0  0  0  0  0  0  0  0  0  0
   -2.8381   10.3766   31.5475 C   0  0  2  0  0  0  0  0  0  0  0  0
   -4.3098   10.3412   31.6968 C   0  0  0  0  0  0  0  0  0  0  0  0
   -4.7643    9.1665   31.9715 O   0  0  0  0  0  0  0  0  0  0  0  0
   -2.4095    9.3260   30.5579 C   0  0  0  0  0  0  0  0  0  0  0  0
   -1.1898    9.5613   29.7757 C   0  0  0  0  0  0  0  0  0  0  0  0
   -0.0041    8.6985   29.9719 C   0  0  0  0  0  0  0  0  0  0  0  0
    0.2367    8.3535   31.3659 N   0  0  0  0  0  0  0  0  0  0  0  0
    1.3652    7.6102   31.7960 C   0  0  0  0  0  0  0  0  0  0  0  0
    2.4229    8.1363   32.5860 N   0  0  0  0  0  0  0  0  0  0  0  0
    1.3970    6.3640   31.4149 N   0  0  0  0  0  0  0  0  0  0  0  0
   -5.2481   11.3668   31.5830 N   0  0  0  0  0  0  0  0  0  0  0  0
   -5.2270   12.7439   31.9352 C   0  0  2  0  0  0  0  0  0  0  0  0
   -5.0986   13.7042   30.8087 C   0  0  0  0  0  0  0  0  0  0  0  0
   -4.3383   14.7276   30.9808 O   0  0  0  0  0  0  0  0  0  0  0  0
   -4.1925   13.1370   32.9842 C   0  0  0  0  0  0  0  0  0  0  0  0
   -4.7266   12.7111   34.6374 S   0  0  0  0  0  0  0  0  0  0  0  0
   -5.7283   13.6233   29.5497 N   0  0  0  0  0  0  0  0  0  0  0  0
   -5.5635   12.6148   28.5407 C   0  0  2  0  0  0  0  0  0  0  0  0
   -4.5941   12.9142   27.4743 C   0  0  0  0  0  0  0  0  0  0  0  0
   -3.8530   11.9337   27.1005 O   0  0  0  0  0  0  0  0  0  0  0  0
   -6.9342   12.2756   27.9717 C   0  0  2  0  0  0  0  0  0  0  0  0
   -7.1382   10.9168   28.1389 O   0  0  0  0  0  0  0  0  0  0  0  0
   -7.0391   12.7051   26.5285 C   0  0  0  0  0  0  0  0  0  0  0  0
   -4.3772   14.1357   26.8089 N   0  0  0  0  0  0  0  0  0  0  0  0
   -4.3260   15.4589   27.3331 C   0  0  2  0  0  0  0  0  0  0  0  0
   -5.4592   16.2176   26.6556 C   0  0  0  0  0  0  0  0  0  0  0  0
   -6.5513   15.5517   26.4617 O   0  0  0  0  0  0  0  0  0  0  0  0
   -3.0492   16.2203   27.2335 C   0  0  0  0  0  0  0  0  0  0  0  0
   -1.8023   15.4897   26.9329 C   0  0  0  0  0  0  0  0  0  0  0  0
   -1.7659   14.2884   26.0938 C   0  0  0  0  0  0  0  0  0  0  0  0
   -0.4219   13.7518   25.7079 C   0  0  0  0  0  0  0  0  0  0  0  0
   -0.3654   12.7342   24.7116 N   0  0  0  0  0  4  0  0  0  0  0  0
   -5.4644   17.5261   26.2195 N   0  0  0  0  0  0  0  0  0  0  0  0
   -5.2531   18.7607   26.9887 C   0  0  2  0  0  0  0  0  0  0  0  0
   -5.5955   18.6507   28.4103 C   0  0  0  0  0  0  0  0  0  0  0  0
   -6.6754   17.9684   28.6295 O   0  0  0  0  0  0  0  0  0  0  0  0
   -6.1270   19.8205   26.2914 C   0  0  0  0  0  0  0  0  0  0  0  0
   -5.3188   20.8889   25.8708 O   0  0  0  0  0  0  0  0  0  0  0  0
   -4.9400   19.1639   29.5415 N   0  0  0  0  0  0  0  0  0  0  0  0
   -4.6500   20.5764   29.8370 C   0  0  2  0  0  0  0  0  0  0  0  0
   -5.8343   21.3383   30.2289 C   0  0  0  0  0  0  0  0  0  0  0  0
   -6.7740   21.4657   29.3662 O   0  0  0  0  0  0  0  0  0  0  0  0
   -3.6762   21.1513   28.8980 C   0  0  0  0  0  0  0  0  0  0  0  0
   -3.1982   22.5433   29.0414 C   0  0  0  0  0  0  0  0  0  0  0  0
   -4.0356   23.4767   29.8352 C   0  0  0  0  0  0  0  0  0  0  0  0
   -4.7790   22.7777   30.8585 N   0  0  0  0  0  0  0  0  0  0  0  0
   -5.0150   23.2921   32.1571 C   0  0  0  0  0  0  0  0  0  0  0  0
   -4.2962   22.7734   33.2980 N   0  0  0  0  0  0  0  0  0  0  0  0
   -5.8759   24.2326   32.3077 N   0  0  0  0  0  0  0  0  0  0  0  0
   -6.0671   21.9584   31.4698 N   0  0  0  0  0  0  0  0  0  0  0  0
   -5.6709   21.4480   32.7743 C   0  0  2  0  0  0  0  0  0  0  0  0
   -6.7614   21.4139   33.7743 C   0  0  0  0  0  0  0  0  0  0  0  0
   -6.4460   21.9950   34.8981 O   0  0  0  0  0  0  0  0  0  0  0  0
   -4.7343   22.6411   33.1378 C   0  0  0  0  0  0  0  0  0  0  0  0
   -5.7017   23.7965   32.8328 C   0  0  0  0  0  0  0  0  0  0  0  0
   -6.7058   23.2223   31.8155 C   0  0  0  0  0  0  0  0  0  0  0  0
   -8.0382   20.8712   33.6983 N   0  0  0  0  0  0  0  0  0  0  0  0
   -8.4642   19.5080   33.4819 C   0  0  2  0  0  0  0  0  0  0  0  0
   -7.4972   18.4529   33.5007 C   0  0  0  0  0  0  0  0  0  0  0  0
   -6.6833   18.2991   32.5654 O   0  0  0  0  0  0  0  0  0  0  0  0
   -9.2184   19.7102   32.1677 C   0  0  0  0  0  0  0  0  0  0  0  0
  -10.0019   20.9840   32.5277 C   0  0  0  0  0  0  0  0  0  0  0  0
   -9.3707   21.5018   33.8299 C   0  0  0  0  0  0  0  0  0  0  0  0
   -7.4150   17.5266   34.5845 N   0  0  0  0  0  0  0  0  0  0  0  0
   -7.5260   17.8576   35.9825 C   0  0  2  0  0  0  0  0  0  0  0  0
   -6.2558   17.7126   36.7377 C   0  0  0  0  0  0  0  0  0  0  0  0
   -5.6486   18.8170   37.0251 O   0  0  0  0  0  0  0  0  0  0  0  0
   -8.6630   17.1394   36.6964 C   0  0  2  0  0  0  0  0  0  0  0  0
   -9.0910   17.7986   37.9696 C   0  0  0  0  0  0  0  0  0  0  0  0
   -8.2382   15.6790   36.9740 C   0  0  0  0  0  0  0  0  0  0  0  0
   -9.8077   19.0933   37.6642 C   0  0  0  0  0  0  0  0  0  0  0  0
   -5.6419   16.5278   37.1739 N   0  0  0  0  0  0  0  0  0  0  0  0
   -5.2246   15.3768   36.4243 C   0  0  2  0  0  0  0  0  0  0  0  0
   -5.9821   14.1357   36.6575 C   0  0  0  0  0  0  0  0  0  0  0  0
   -6.9657   13.9735   35.8050 O   0  0  0  0  0  0  0  0  0  0  0  0
   -3.7373   15.0644   36.6779 C   0  0  0  0  0  0  0  0  0  0  0  0
   -3.2973   13.4325   36.0326 S   0  0  0  0  0  0  0  0  0  0  0  0
   -5.7943   13.1463   37.6325 N   0  0  0  0  0  0  0  0  0  0  0  0
   -5.6100   13.2830   39.0610 C   0  0  2  0  0  0  0  0  0  0  0  0
   -4.6074   12.4308   39.6685 C   0  0  0  0  0  0  0  0  0  0  0  0
   -3.3734   12.9501   39.5098 O   0  0  0  0  0  0  0  0  0  0  0  0
   -6.9118   13.5168   39.7676 C   0  0  0  0  0  0  0  0  0  0  0  0
   -8.1252   13.5546   38.9587 C   0  0  0  0  0  0  0  0  0  0  0  0
   -8.5267   12.4818   38.1636 C   0  0  0  0  0  0  0  0  0  0  0  0
   -8.9040   14.6839   38.9175 C   0  0  0  0  0  0  0  0  0  0  0  0
   -9.6530   12.5289   37.3644 C   0  0  0  0  0  0  0  0  0  0  0  0
  -10.0400   14.7568   38.1224 C   0  0  0  0  0  0  0  0  0  0  0  0
  -10.4199   13.6715   37.3390 C   0  0  0  0  0  0  0  0  0  0  0  0
   -4.5355   11.2194   40.3797 N   0  0  0  0  0  0  0  0  0  0  0  0
   -4.7929    9.8741   39.9577 C   0  0  2  0  0  0  0  0  0  0  0  0
   -5.3027    9.6124   38.6406 C   0  0  0  0  0  0  0  0  0  0  0  0
   -6.5388    9.8596   38.4062 O   0  0  0  0  0  0  0  0  0  0  0  0
   -5.5745    9.2503   41.0745 C   0  0  0  0  0  0  0  0  0  0  0  0
   -5.0846   10.0011   42.2793 C   0  0  0  0  0  0  0  0  0  0  0  0
   -4.0633   10.9798   41.7767 C   0  0  0  0  0  0  0  0  0  0  0  0
   -4.4688    9.0879   37.6136 N   0  0  0  0  0  0  0  0  0  0  0  0
   -3.6005    7.9463   37.8044 C   0  0  2  0  0  0  0  0  0  0  0  0
   -2.4972    7.8699   36.7787 C   0  0  0  0  0  0  0  0  0  0  0  0
   -1.3589    7.8085   37.3248 O   0  0  0  0  0  0  0  0  0  0  0  0
   -4.4966    6.7376   37.4764 C   0  0  0  0  0  0  0  0  0  0  0  0
   -4.4837    5.7187   38.5242 C   0  0  0  0  0  0  0  0  0  0  0  0
   -4.8151    4.3827   38.3795 O   0  0  0  0  0  0  0  0  0  0  0  0
   -4.1382    6.0689   39.6824 O   0  0  0  0  0  0  0  0  0  0  0  0
   -3.6514    7.5994   34.2736 O   0  0  0  0  0  0  0  0  0  0  0  0
    2.2578    5.7702   31.5121 H   0  0  0  0  0  0  0  0  0  0  0  0
   -5.6734   25.1199   32.7840 H   0  0  0  0  0  0  0  0  0  0  0  0
  1  2  1  0
  1103  1  0
  1109  1  0
  2  3  1  0
  2109  1  6
  3  4  2  0
  3  5  1  0
  5  6  1  0
  6  7  1  0
  6  9  1  1
  7  8  2  0
  7 16  1  0
  9 10  1  0
 10 11  1  0
 11 12  1  0
 12 13  1  0
 13 14  1  0
 13 15  2  0
 17 16  1  6
 17 18  1  0
 17 20  1  0
 18 19  2  0
 18 22  1  0
 20 21  1  0
 21 82  1  0
 23 22  1  1
 23 24  1  0
 23 26  1  0
 24 25  2  0
 24 29  1  0
 26 27  1  0
 26 28  1  6
 29 30  1  0
 30 31  1  0
 30 33  1  6
 31 32  2  0
 31 38  1  0
 33 34  1  0
 34 35  1  0
 35 36  1  0
 36 37  1  0
 38 39  1  0
 39 40  1  0
 39 42  1  6
 40 41  2  0
 40 44  1  0
 42 43  1  0
 44 45  1  0
 45 46  1  0
 45 48  1  6
 46 47  2  0
 46 55  1  0
 48 49  1  0
 49 50  1  0
 50 51  1  0
 51 52  1  0
 52 53  1  0
 52 54  2  0
 55 56  1  0
 55 61  1  0
 56 57  1  0
 56 59  1  1
 57 58  2  0
 57 62  1  0
 59 60  1  0
 60 61  1  0
 62 63  1  0
 62 68  1  0
 63 64  1  0
 63 66  1  6
 64 65  2  0
 64 69  1  0
 66 67  1  0
 67 68  1  0
 70 69  1  6
 70 71  1  0
 70 73  1  0
 71 72  2  0
 71 77  1  0
 73 74  1  0
 73 75  1  1
 74 76  1  0
 78 77  1  1
 78 79  1  0
 78 81  1  0
 79 80  2  0
 79 83  1  0
 81 82  1  0
 83 84  1  0
 84 85  1  0
 84 87  1  1
 85 86  2  0
 85 94  1  0
 87 88  1  0
 88 89  2  0
 88 90  1  0
 89 91  1  0
 90 92  2  0
 91 93  2  0
 92 93  1  0
 94 95  1  0
 94100  1  0
 95 96  1  0
 95 98  1  1
 96 97  2  0
 96101  1  0
 98 99  1  0
 99100  1  0
101102  1  0
102103  1  0
102105  1  6
103104  2  0
105106  1  0
106107  1  0
106108  2  0
 15110  1  0
 54111  1  0
M  CHG  1  37   1
M  END
$$$$
