
     RDKit          3D

111117  0  0  0  0  0  0  0  0999 V2000
  -10.5326   19.1098   28.4174 N   0  0  0  0  0  0  0  0  0  0  0  0
  -10.0016   17.9643   27.9392 C   0  0  2  0  0  0  0  0  0  0  0  0
   -9.5121   17.0002   28.9376 C   0  0  0  0  0  0  0  0  0  0  0  0
   -9.8905   17.3107   30.1349 O   0  0  0  0  0  0  0  0  0  0  0  0
   -8.7371   15.8487   28.7898 N   0  0  0  0  0  0  0  0  0  0  0  0
   -7.4493   15.6745   28.1831 C   0  0  2  0  0  0  0  0  0  0  0  0
   -6.4588   16.7278   28.4974 C   0  0  0  0  0  0  0  0  0  0  0  0
   -6.6161   17.7983   27.7966 O   0  0  0  0  0  0  0  0  0  0  0  0
   -7.4555   15.4192   26.6993 C   0  0  0  0  0  0  0  0  0  0  0  0
   -6.5619   14.3837   26.1662 C   0  0  0  0  0  0  0  0  0  0  0  0
   -6.8185   12.9572   26.4628 C   0  0  0  0  0  0  0  0  0  0  0  0
   -5.6829   12.0925   26.1745 N   0  0  0  0  0  0  0  0  0  0  0  0
   -5.7563   10.6770   26.2194 C   0  0  0  0  0  0  0  0  0  0  0  0
   -6.5218    9.9395   27.1626 N   0  0  0  0  0  0  0  0  0  0  0  0
   -5.0549   10.0481   25.3183 N   0  0  0  0  0  0  0  0  0  0  0  0
   -5.4081   16.7263   29.4147 N   0  0  0  0  0  0  0  0  0  0  0  0
   -5.2557   16.1695   30.7137 C   0  0  2  0  0  0  0  0  0  0  0  0
   -4.3963   14.9611   30.8095 C   0  0  0  0  0  0  0  0  0  0  0  0
   -4.7805   14.0163   31.5934 O   0  0  0  0  0  0  0  0  0  0  0  0
   -6.5539   15.8602   31.4514 C   0  0  0  0  0  0  0  0  0  0  0  0
   -7.2853   17.3325   32.1564 S   0  0  0  0  0  0  0  0  0  0  0  0
   -3.1833   14.7275   30.1297 N   0  0  0  0  0  0  0  0  0  0  0  0
   -2.9702   14.6101   28.7144 C   0  0  2  0  0  0  0  0  0  0  0  0
   -2.9550   13.2425   28.1703 C   0  0  0  0  0  0  0  0  0  0  0  0
   -3.5493   13.0824   27.0426 O   0  0  0  0  0  0  0  0  0  0  0  0
   -1.7006   15.3694   28.3548 C   0  0  2  0  0  0  0  0  0  0  0  0
   -0.7506   15.0887   29.3215 O   0  0  0  0  0  0  0  0  0  0  0  0
   -1.9765   16.8476   28.2240 C   0  0  0  0  0  0  0  0  0  0  0  0
   -2.3700   12.0882   28.7249 N   0  0  0  0  0  0  0  0  0  0  0  0
   -2.3599   11.6343   30.0747 C   0  0  2  0  0  0  0  0  0  0  0  0
   -0.8948   11.5948   30.4881 C   0  0  0  0  0  0  0  0  0  0  0  0
   -0.1518   12.5520   30.0350 O   0  0  0  0  0  0  0  0  0  0  0  0
   -3.0343   10.3468   30.4027 C   0  0  0  0  0  0  0  0  0  0  0  0
   -2.9017    9.2115   29.4688 C   0  0  0  0  0  0  0  0  0  0  0  0
   -1.6875    8.3958   29.3744 C   0  0  0  0  0  0  0  0  0  0  0  0
   -0.3775    9.0661   29.6538 C   0  0  0  0  0  0  0  0  0  0  0  0
    0.8141    8.2968   29.5146 N   0  0  0  0  0  4  0  0  0  0  0  0
   -0.2608   10.6628   31.2829 N   0  0  0  0  0  0  0  0  0  0  0  0
   -0.5436   10.2856   32.6751 C   0  0  2  0  0  0  0  0  0  0  0  0
   -1.1880   11.3392   33.4657 C   0  0  0  0  0  0  0  0  0  0  0  0
   -0.7106   12.5220   33.2353 O   0  0  0  0  0  0  0  0  0  0  0  0
    0.8249    9.9068   33.2724 C   0  0  0  0  0  0  0  0  0  0  0  0
    1.6540   11.0397   33.2954 O   0  0  0  0  0  0  0  0  0  0  0  0
   -2.2218   11.2561   34.4127 N   0  0  0  0  0  0  0  0  0  0  0  0
   -2.2244   10.4752   35.6605 C   0  0  2  0  0  0  0  0  0  0  0  0
   -1.3733   11.0489   36.7013 C   0  0  0  0  0  0  0  0  0  0  0  0
   -0.1143   11.1203   36.4701 O   0  0  0  0  0  0  0  0  0  0  0  0
   -2.2136    9.0271   35.4091 C   0  0  0  0  0  0  0  0  0  0  0  0
   -3.3680    8.1752   35.7677 C   0  0  0  0  0  0  0  0  0  0  0  0
   -3.9936    8.3930   37.0957 C   0  0  0  0  0  0  0  0  0  0  0  0
   -3.1103    9.1154   37.9825 N   0  0  0  0  0  0  0  0  0  0  0  0
   -2.9707    8.8338   39.3637 C   0  0  0  0  0  0  0  0  0  0  0  0
   -4.1144    8.8798   40.2452 N   0  0  0  0  0  0  0  0  0  0  0  0
   -1.8109    8.5311   39.8237 N   0  0  0  0  0  0  0  0  0  0  0  0
   -1.7855   11.5437   37.9518 N   0  0  0  0  0  0  0  0  0  0  0  0
   -3.0176   12.2689   38.2263 C   0  0  2  0  0  0  0  0  0  0  0  0
   -2.8286   13.5373   38.9651 C   0  0  0  0  0  0  0  0  0  0  0  0
   -3.5868   13.6341   40.0215 O   0  0  0  0  0  0  0  0  0  0  0  0
   -3.6023   11.2234   39.2252 C   0  0  0  0  0  0  0  0  0  0  0  0
   -2.3772   11.0676   40.1411 C   0  0  0  0  0  0  0  0  0  0  0  0
   -1.1713   11.4710   39.2717 C   0  0  0  0  0  0  0  0  0  0  0  0
   -1.9862   14.6124   38.7106 N   0  0  0  0  0  0  0  0  0  0  0  0
   -1.9173   15.4981   37.5715 C   0  0  2  0  0  0  0  0  0  0  0  0
   -2.9395   15.4450   36.5710 C   0  0  0  0  0  0  0  0  0  0  0  0
   -3.0150   14.4912   35.7675 O   0  0  0  0  0  0  0  0  0  0  0  0
   -0.4995   15.1639   37.1077 C   0  0  0  0  0  0  0  0  0  0  0  0
    0.2161   15.1874   38.4690 C   0  0  0  0  0  0  0  0  0  0  0  0
   -0.9028   15.2106   39.5224 C   0  0  0  0  0  0  0  0  0  0  0  0
   -3.9196   16.4755   36.4409 N   0  0  0  0  0  0  0  0  0  0  0  0
   -4.5984   17.1311   37.5297 C   0  0  2  0  0  0  0  0  0  0  0  0
   -6.0418   16.7965   37.6274 C   0  0  0  0  0  0  0  0  0  0  0  0
   -6.3604   15.9703   38.5691 O   0  0  0  0  0  0  0  0  0  0  0  0
   -4.3907   18.6390   37.5656 C   0  0  2  0  0  0  0  0  0  0  0  0
   -4.3691   19.2798   36.2138 C   0  0  0  0  0  0  0  0  0  0  0  0
   -3.0753   18.9465   38.3177 C   0  0  0  0  0  0  0  0  0  0  0  0
   -4.0276   18.2511   35.1610 C   0  0  0  0  0  0  0  0  0  0  0  0
   -7.0930   17.2684   36.8252 N   0  0  0  0  0  0  0  0  0  0  0  0
   -7.2651   17.2045   35.4015 C   0  0  2  0  0  0  0  0  0  0  0  0
   -7.1908   18.4842   34.6766 C   0  0  0  0  0  0  0  0  0  0  0  0
   -5.9861   18.7442   34.2276 O   0  0  0  0  0  0  0  0  0  0  0  0
   -8.6099   16.5458   35.0386 C   0  0  0  0  0  0  0  0  0  0  0  0
   -8.9963   16.7807   33.2869 S   0  0  0  0  0  0  0  0  0  0  0  0
   -8.2004   19.4208   34.4152 N   0  0  0  0  0  0  0  0  0  0  0  0
   -9.1709   20.0054   35.3149 C   0  0  2  0  0  0  0  0  0  0  0  0
  -10.5224   20.1412   34.8092 C   0  0  0  0  0  0  0  0  0  0  0  0
  -11.1963   18.9785   34.9174 O   0  0  0  0  0  0  0  0  0  0  0  0
   -8.5717   21.1081   36.1356 C   0  0  0  0  0  0  0  0  0  0  0  0
   -7.8610   22.1690   35.4302 C   0  0  0  0  0  0  0  0  0  0  0  0
   -6.6209   21.9641   34.8265 C   0  0  0  0  0  0  0  0  0  0  0  0
   -8.3772   23.4394   35.3733 C   0  0  0  0  0  0  0  0  0  0  0  0
   -5.9256   22.9765   34.1932 C   0  0  0  0  0  0  0  0  0  0  0  0
   -7.6983   24.4740   34.7436 C   0  0  0  0  0  0  0  0  0  0  0  0
   -6.4625   24.2430   34.1474 C   0  0  0  0  0  0  0  0  0  0  0  0
  -11.3468   21.1278   34.2387 N   0  0  0  0  0  0  0  0  0  0  0  0
  -11.2724   21.7828   32.9661 C   0  0  2  0  0  0  0  0  0  0  0  0
  -10.1632   21.5363   32.0875 C   0  0  0  0  0  0  0  0  0  0  0  0
   -9.0346   22.0775   32.3655 O   0  0  0  0  0  0  0  0  0  0  0  0
  -11.5479   23.2293   33.2473 C   0  0  0  0  0  0  0  0  0  0  0  0
  -12.4378   23.1666   34.4554 C   0  0  0  0  0  0  0  0  0  0  0  0
  -12.6163   21.7096   34.7695 C   0  0  0  0  0  0  0  0  0  0  0  0
  -10.3008   20.7175   30.9316 N   0  0  0  0  0  0  0  0  0  0  0  0
  -11.3788   20.8680   29.9783 C   0  0  2  0  0  0  0  0  0  0  0  0
  -11.5923   19.6363   29.1341 C   0  0  0  0  0  0  0  0  0  0  0  0
  -12.7869   19.2288   29.2011 O   0  0  0  0  0  0  0  0  0  0  0  0
  -10.8502   21.9150   28.9803 C   0  0  0  0  0  0  0  0  0  0  0  0
  -11.8442   22.3012   27.9809 C   0  0  0  0  0  0  0  0  0  0  0  0
  -13.0784   21.7099   27.7739 O   0  0  0  0  0  0  0  0  0  0  0  0
  -11.5722   23.2672   27.2218 O   0  0  0  0  0  0  0  0  0  0  0  0
   -9.2826   19.1658   27.6767 O   0  0  0  0  0  0  0  0  0  0  0  0
   -4.3108    9.3521   25.5728 H   0  0  0  0  0  0  0  0  0  0  0  0
   -0.9419    8.9914   39.5267 H   0  0  0  0  0  0  0  0  0  0  0  0
  1  2  1  0
  1103  1  0
  1109  1  0
  2  3  1  0
  2109  1  6
  3  4  2  0
  3  5  1  0
  5  6  1  0
  6  7  1  0
  6  9  1  6
  7  8  2  0
  7 16  1  0
  9 10  1  0
 10 11  1  0
 11 12  1  0
 12 13  1  0
 13 14  1  0
 13 15  2  0
 17 16  1  6
 17 18  1  0
 17 20  1  0
 18 19  2  0
 18 22  1  0
 20 21  1  0
 21 82  1  0
 23 22  1  1
 23 24  1  0
 23 26  1  0
 24 25  2  0
 24 29  1  0
 26 27  1  0
 26 28  1  1
 29 30  1  0
 30 31  1  0
 30 33  1  6
 31 32  2  0
 31 38  1  0
 33 34  1  0
 34 35  1  0
 35 36  1  0
 36 37  1  0
 38 39  1  0
 39 40  1  0
 39 42  1  1
 40 41  2  0
 40 44  1  0
 42 43  1  0
 44 45  1  0
 45 46  1  0
 45 48  1  6
 46 47  2  0
 46 55  1  0
 48 49  1  0
 49 50  1  0
 50 51  1  0
 51 52  1  0
 52 53  1  0
 52 54  2  0
 55 56  1  0
 55 61  1  0
 56 57  1  0
 56 59  1  1
 57 58  2  0
 57 62  1  0
 59 60  1  0
 60 61  1  0
 62 63  1  0
 62 68  1  0
 63 64  1  0
 63 66  1  6
 64 65  2  0
 64 69  1  0
 66 67  1  0
 67 68  1  0
 70 69  1  6
 70 71  1  0
 70 73  1  0
 71 72  2  0
 71 77  1  0
 73 74  1  0
 73 75  1  6
 74 76  1  0
 78 77  1  1
 78 79  1  0
 78 81  1  0
 79 80  2  0
 79 83  1  0
 81 82  1  0
 83 84  1  0
 84 85  1  0
 84 87  1  6
 85 86  2  0
 85 94  1  0
 87 88  1  0
 88 89  2  0
 88 90  1  0
 89 91  1  0
 90 92  2  0
 91 93  2  0
 92 93  1  0
 94 95  1  0
 94100  1  0
 95 96  1  0
 95 98  1  1
 96 97  2  0
 96101  1  0
 98 99  1  0
 99100  1  0
101102  1  0
102103  1  0
102105  1  6
103104  2  0
105106  1  0
106107  1  0
106108  2  0
 15110  1  0
 54111  1  0
M  CHG  1  37   1
M  END
$$$$
