
     RDKit          3D

111117  0  0  0  0  0  0  0  0999 V2000
   -4.1608    7.8375   37.5876 N   0  0  0  0  0  0  0  0  0  0  0  0
   -3.4147    7.9306   36.4663 C   0  0  2  0  0  0  0  0  0  0  0  0
   -3.2238    9.2815   35.9145 C   0  0  0  0  0  0  0  0  0  0  0  0
   -3.6127   10.1993   36.7389 O   0  0  0  0  0  0  0  0  0  0  0  0
   -2.7043    9.7008   34.6887 N   0  0  0  0  0  0  0  0  0  0  0  0
   -3.0951    9.3532   33.3532 C   0  0  2  0  0  0  0  0  0  0  0  0
   -4.5551    9.3032   33.1186 C   0  0  0  0  0  0  0  0  0  0  0  0
   -5.0994    8.2113   33.5350 O   0  0  0  0  0  0  0  0  0  0  0  0
   -2.4538    8.1145   32.7865 C   0  0  0  0  0  0  0  0  0  0  0  0
   -1.1155    7.7426   33.2615 C   0  0  0  0  0  0  0  0  0  0  0  0
    0.0492    8.5977   32.9438 C   0  0  0  0  0  0  0  0  0  0  0  0
    1.3023    8.0952   33.4892 N   0  0  0  0  0  0  0  0  0  0  0  0
    2.2585    7.3926   32.7126 C   0  0  0  0  0  0  0  0  0  0  0  0
    2.0326    6.9188   31.3919 N   0  0  0  0  0  0  0  0  0  0  0  0
    3.4090    7.1848   33.2892 N   0  0  0  0  0  0  0  0  0  0  0  0
   -5.4011   10.2402   32.5255 N   0  0  0  0  0  0  0  0  0  0  0  0
   -5.4328   11.6613   32.5354 C   0  0  2  0  0  0  0  0  0  0  0  0
   -4.9871   12.3331   31.2873 C   0  0  0  0  0  0  0  0  0  0  0  0
   -4.2688   13.3938   31.4044 O   0  0  0  0  0  0  0  0  0  0  0  0
   -4.6967   12.3259   33.6938 C   0  0  0  0  0  0  0  0  0  0  0  0
   -5.6556   12.2832   35.2032 S   0  0  0  0  0  0  0  0  0  0  0  0
   -5.2687   11.9363   29.9639 N   0  0  0  0  0  0  0  0  0  0  0  0
   -4.8758   10.7249   29.3004 C   0  0  2  0  0  0  0  0  0  0  0  0
   -3.6535   10.7979   28.4835 C   0  0  0  0  0  0  0  0  0  0  0  0
   -2.8693    9.7831   28.5580 O   0  0  0  0  0  0  0  0  0  0  0  0
   -6.0598   10.2142   28.4913 C   0  0  2  0  0  0  0  0  0  0  0  0
   -5.5681    9.3886   27.4951 O   0  0  0  0  0  0  0  0  0  0  0  0
   -6.8734   11.3621   27.9448 C   0  0  0  0  0  0  0  0  0  0  0  0
   -3.2352   11.8351   27.6283 N   0  0  0  0  0  0  0  0  0  0  0  0
   -3.2843   13.2454   27.8198 C   0  0  2  0  0  0  0  0  0  0  0  0
   -4.1790   13.7837   26.7114 C   0  0  0  0  0  0  0  0  0  0  0  0
   -5.2015   13.0537   26.4032 O   0  0  0  0  0  0  0  0  0  0  0  0
   -2.0041   14.0055   27.8789 C   0  0  0  0  0  0  0  0  0  0  0  0
   -0.9203   13.5144   28.7523 C   0  0  0  0  0  0  0  0  0  0  0  0
   -0.6795   12.0896   28.9979 C   0  0  0  0  0  0  0  0  0  0  0  0
   -0.7166   11.1660   27.8193 C   0  0  0  0  0  0  0  0  0  0  0  0
   -0.5754    9.7678   28.0564 N   0  0  0  0  0  4  0  0  0  0  0  0
   -4.0323   14.9517   25.9927 N   0  0  0  0  0  0  0  0  0  0  0  0
   -3.9933   16.3393   26.4761 C   0  0  2  0  0  0  0  0  0  0  0  0
   -4.6977   16.5554   27.7439 C   0  0  0  0  0  0  0  0  0  0  0  0
   -5.8167   15.9071   27.8294 O   0  0  0  0  0  0  0  0  0  0  0  0
   -4.6239   17.1742   25.3456 C   0  0  0  0  0  0  0  0  0  0  0  0
   -6.0010   16.9080   25.2808 O   0  0  0  0  0  0  0  0  0  0  0  0
   -4.3453   17.3429   28.8522 N   0  0  0  0  0  0  0  0  0  0  0  0
   -4.1016   18.7945   28.8706 C   0  0  2  0  0  0  0  0  0  0  0  0
   -5.3245   19.5859   28.7494 C   0  0  0  0  0  0  0  0  0  0  0  0
   -6.0026   19.4740   27.6671 O   0  0  0  0  0  0  0  0  0  0  0  0
   -2.9004   19.1652   28.1091 C   0  0  0  0  0  0  0  0  0  0  0  0
   -1.8141   19.9583   28.7236 C   0  0  0  0  0  0  0  0  0  0  0  0
   -0.4233   19.4750   28.5372 C   0  0  0  0  0  0  0  0  0  0  0  0
   -0.1401   19.2081   27.1454 N   0  0  0  0  0  0  0  0  0  0  0  0
    0.7076   20.0094   26.3417 C   0  0  0  0  0  0  0  0  0  0  0  0
    0.8009   21.4344   26.5608 N   0  0  0  0  0  0  0  0  0  0  0  0
    1.3987   19.4505   25.4152 N   0  0  0  0  0  0  0  0  0  0  0  0
   -5.8549   20.4724   29.7041 N   0  0  0  0  0  0  0  0  0  0  0  0
   -5.8276   20.2976   31.1490 C   0  0  2  0  0  0  0  0  0  0  0  0
   -7.1417   20.4623   31.8095 C   0  0  0  0  0  0  0  0  0  0  0  0
   -7.1137   21.3024   32.8065 O   0  0  0  0  0  0  0  0  0  0  0  0
   -4.9841   21.5743   31.4511 C   0  0  0  0  0  0  0  0  0  0  0  0
   -5.8046   22.5913   30.6409 C   0  0  0  0  0  0  0  0  0  0  0  0
   -6.5247   21.7593   29.5629 C   0  0  0  0  0  0  0  0  0  0  0  0
   -8.3697   19.8733   31.5345 N   0  0  0  0  0  0  0  0  0  0  0  0
   -8.7639   18.4837   31.5431 C   0  0  2  0  0  0  0  0  0  0  0  0
   -7.8662   17.4967   32.0616 C   0  0  0  0  0  0  0  0  0  0  0  0
   -6.8413   17.1551   31.4340 O   0  0  0  0  0  0  0  0  0  0  0  0
   -9.1430   18.3446   30.0688 C   0  0  0  0  0  0  0  0  0  0  0  0
   -9.9559   19.6394   29.9010 C   0  0  0  0  0  0  0  0  0  0  0  0
   -9.6716   20.4708   31.1620 C   0  0  0  0  0  0  0  0  0  0  0  0
   -8.0964   16.8551   33.3165 N   0  0  0  0  0  0  0  0  0  0  0  0
   -8.5586   17.5020   34.5182 C   0  0  2  0  0  0  0  0  0  0  0  0
   -7.5342   17.5828   35.5899 C   0  0  0  0  0  0  0  0  0  0  0  0
   -6.9912   18.7441   35.7561 O   0  0  0  0  0  0  0  0  0  0  0  0
   -9.8628   16.9334   35.0605 C   0  0  2  0  0  0  0  0  0  0  0  0
  -10.2816   15.6523   34.4109 C   0  0  0  0  0  0  0  0  0  0  0  0
  -10.9763   17.9945   34.9037 C   0  0  0  0  0  0  0  0  0  0  0  0
  -10.1115   15.7541   32.9130 C   0  0  0  0  0  0  0  0  0  0  0  0
   -7.0899   16.5560   36.4380 N   0  0  0  0  0  0  0  0  0  0  0  0
   -6.5250   15.2759   36.1167 C   0  0  2  0  0  0  0  0  0  0  0  0
   -7.3527   14.0993   36.4312 C   0  0  0  0  0  0  0  0  0  0  0  0
   -8.0842   13.7070   35.4155 O   0  0  0  0  0  0  0  0  0  0  0  0
   -5.1650   15.0835   36.8149 C   0  0  0  0  0  0  0  0  0  0  0  0
   -4.6195   13.3618   36.7108 S   0  0  0  0  0  0  0  0  0  0  0  0
   -7.4545   13.3745   37.6267 N   0  0  0  0  0  0  0  0  0  0  0  0
   -7.6454   13.8501   38.9796 C   0  0  2  0  0  0  0  0  0  0  0  0
   -6.8610   13.2000   40.0106 C   0  0  0  0  0  0  0  0  0  0  0  0
   -5.6139   13.7096   40.0603 O   0  0  0  0  0  0  0  0  0  0  0  0
   -9.0790   14.1987   39.2473 C   0  0  0  0  0  0  0  0  0  0  0  0
   -9.3580   15.1393   40.3269 C   0  0  0  0  0  0  0  0  0  0  0  0
   -8.3706   15.5807   41.2069 C   0  0  0  0  0  0  0  0  0  0  0  0
  -10.6336   15.5963   40.5449 C   0  0  0  0  0  0  0  0  0  0  0  0
   -8.6389   16.4394   42.2558 C   0  0  0  0  0  0  0  0  0  0  0  0
  -10.9294   16.4589   41.5919 C   0  0  0  0  0  0  0  0  0  0  0  0
   -9.9255   16.8859   42.4554 C   0  0  0  0  0  0  0  0  0  0  0  0
   -7.0123   12.1934   40.9813 N   0  0  0  0  0  0  0  0  0  0  0  0
   -7.1896   10.7786   40.8372 C   0  0  2  0  0  0  0  0  0  0  0  0
   -7.3456   10.1966   39.5333 C   0  0  0  0  0  0  0  0  0  0  0  0
   -8.4700   10.3388   38.9338 O   0  0  0  0  0  0  0  0  0  0  0  0
   -8.2531   10.4087   41.8268 C   0  0  0  0  0  0  0  0  0  0  0  0
   -8.0729   11.4386   42.9047 C   0  0  0  0  0  0  0  0  0  0  0  0
   -6.9280   12.3060   42.4687 C   0  0  0  0  0  0  0  0  0  0  0  0
   -6.2883    9.4740   38.9127 N   0  0  0  0  0  0  0  0  0  0  0  0
   -5.5332    8.4401   39.5869 C   0  0  2  0  0  0  0  0  0  0  0  0
   -4.2032    8.1624   38.9317 C   0  0  0  0  0  0  0  0  0  0  0  0
   -3.2491    8.2706   39.7536 O   0  0  0  0  0  0  0  0  0  0  0  0
   -6.3474    7.1580   39.3323 C   0  0  0  0  0  0  0  0  0  0  0  0
   -5.8711    6.0172   40.1120 C   0  0  0  0  0  0  0  0  0  0  0  0
   -6.6507    5.1190   40.8199 O   0  0  0  0  0  0  0  0  0  0  0  0
   -4.6306    5.8111   40.1571 O   0  0  0  0  0  0  0  0  0  0  0  0
   -4.6714    7.2698   36.3501 O   0  0  0  0  0  0  0  0  0  0  0  0
    3.6133    6.3098   33.8329 H   0  0  0  0  0  0  0  0  0  0  0  0
    1.3382   19.7106   24.4233 H   0  0  0  0  0  0  0  0  0  0  0  0
  1  2  1  0
  1103  1  0
  1109  1  0
  2  3  1  0
  2109  1  6
  3  4  2  0
  3  5  1  0
  5  6  1  0
  6  7  1  0
  6  9  1  1
  7  8  2  0
  7 16  1  0
  9 10  1  0
 10 11  1  0
 11 12  1  0
 12 13  1  0
 13 14  1  0
 13 15  2  0
 17 16  1  6
 17 18  1  0
 17 20  1  0
 18 19  2  0
 18 22  1  0
 20 21  1  0
 21 82  1  0
 23 22  1  6
 23 24  1  0
 23 26  1  0
 24 25  2  0
 24 29  1  0
 26 27  1  0
 26 28  1  6
 29 30  1  0
 30 31  1  0
 30 33  1  6
 31 32  2  0
 31 38  1  0
 33 34  1  0
 34 35  1  0
 35 36  1  0
 36 37  1  0
 38 39  1  0
 39 40  1  0
 39 42  1  6
 40 41  2  0
 40 44  1  0
 42 43  1  0
 44 45  1  0
 45 46  1  0
 45 48  1  6
 46 47  2  0
 46 55  1  0
 48 49  1  0
 49 50  1  0
 50 51  1  0
 51 52  1  0
 52 53  1  0
 52 54  2  0
 55 56  1  0
 55 61  1  0
 56 57  1  0
 56 59  1  1
 57 58  2  0
 57 62  1  0
 59 60  1  0
 60 61  1  0
 62 63  1  0
 62 68  1  0
 63 64  1  0
 63 66  1  6
 64 65  2  0
 64 69  1  0
 66 67  1  0
 67 68  1  0
 70 69  1  6
 70 71  1  0
 70 73  1  0
 71 72  2  0
 71 77  1  0
 73 74  1  0
 73 75  1  6
 74 76  1  0
 78 77  1  1
 78 79  1  0
 78 81  1  0
 79 80  2  0
 79 83  1  0
 81 82  1  0
 83 84  1  0
 84 85  1  0
 84 87  1  1
 85 86  2  0
 85 94  1  0
 87 88  1  0
 88 89  2  0
 88 90  1  0
 89 91  1  0
 90 92  2  0
 91 93  2  0
 92 93  1  0
 94 95  1  0
 94100  1  0
 95 96  1  0
 95 98  1  1
 96 97  2  0
 96101  1  0
 98 99  1  0
 99100  1  0
101102  1  0
102103  1  0
102105  1  6
103104  2  0
105106  1  0
106107  1  0
106108  2  0
 15110  1  0
 54111  1  0
M  CHG  1  37   1
M  END
$$$$
