
     RDKit          3D

111117  0  0  0  0  0  0  0  0999 V2000
   -2.7510   19.3862   28.0815 N   0  0  0  0  0  0  0  0  0  0  0  0
   -2.4250   18.1029   27.8181 C   0  0  2  0  0  0  0  0  0  0  0  0
   -3.3207   17.0717   28.3661 C   0  0  0  0  0  0  0  0  0  0  0  0
   -4.4208   17.5790   28.8193 O   0  0  0  0  0  0  0  0  0  0  0  0
   -3.1671   15.6877   28.4616 N   0  0  0  0  0  0  0  0  0  0  0  0
   -2.1218   14.9146   29.0669 C   0  0  2  0  0  0  0  0  0  0  0  0
   -1.6506   15.4125   30.3782 C   0  0  0  0  0  0  0  0  0  0  0  0
   -0.8287   16.4008   30.2806 O   0  0  0  0  0  0  0  0  0  0  0  0
   -0.9359   14.6181   28.1880 C   0  0  0  0  0  0  0  0  0  0  0  0
   -0.2785   13.3123   28.3209 C   0  0  0  0  0  0  0  0  0  0  0  0
   -0.8577   12.1194   27.6650 C   0  0  0  0  0  0  0  0  0  0  0  0
    0.0295   11.5097   26.6845 N   0  0  0  0  0  0  0  0  0  0  0  0
    0.4232   10.1483   26.7373 C   0  0  0  0  0  0  0  0  0  0  0  0
   -0.4772    9.0488   26.7396 N   0  0  0  0  0  0  0  0  0  0  0  0
    1.7082    9.9356   26.7904 N   0  0  0  0  0  0  0  0  0  0  0  0
   -1.9576   14.9758   31.6667 N   0  0  0  0  0  0  0  0  0  0  0  0
   -3.1467   14.4751   32.2634 C   0  0  2  0  0  0  0  0  0  0  0  0
   -3.1778   13.0139   32.5310 C   0  0  0  0  0  0  0  0  0  0  0  0
   -4.2788   12.3888   32.3027 O   0  0  0  0  0  0  0  0  0  0  0  0
   -4.4424   14.8300   31.5420 C   0  0  0  0  0  0  0  0  0  0  0  0
   -4.9602   16.5063   31.8906 S   0  0  0  0  0  0  0  0  0  0  0  0
   -2.1206   12.2187   33.0187 N   0  0  0  0  0  0  0  0  0  0  0  0
   -0.8560   11.9477   32.3946 C   0  0  2  0  0  0  0  0  0  0  0  0
   -0.7675   10.6997   31.6192 C   0  0  0  0  0  0  0  0  0  0  0  0
   -0.1218   10.7740   30.5112 O   0  0  0  0  0  0  0  0  0  0  0  0
    0.2310   12.0241   33.4578 C   0  0  2  0  0  0  0  0  0  0  0  0
   -0.3204   11.6110   34.6582 O   0  0  0  0  0  0  0  0  0  0  0  0
    0.8122   13.4150   33.5342 C   0  0  0  0  0  0  0  0  0  0  0  0
   -1.2964    9.4344   31.9375 N   0  0  0  0  0  0  0  0  0  0  0  0
   -2.5640    9.0926   32.4893 C   0  0  2  0  0  0  0  0  0  0  0  0
   -2.2676    8.4081   33.8169 C   0  0  0  0  0  0  0  0  0  0  0  0
   -1.2829    8.8963   34.4992 O   0  0  0  0  0  0  0  0  0  0  0  0
   -3.5036    8.2736   31.6730 C   0  0  0  0  0  0  0  0  0  0  0  0
   -4.1988    8.9051   30.5342 C   0  0  0  0  0  0  0  0  0  0  0  0
   -3.8804   10.2533   30.0554 C   0  0  0  0  0  0  0  0  0  0  0  0
   -3.1203   10.3722   28.7703 C   0  0  0  0  0  0  0  0  0  0  0  0
   -2.7663   11.6762   28.3171 N   0  0  0  0  0  4  0  0  0  0  0  0
   -2.9166    7.3295   34.3805 N   0  0  0  0  0  0  0  0  0  0  0  0
   -4.3305    7.1918   34.7579 C   0  0  2  0  0  0  0  0  0  0  0  0
   -4.9982    8.4607   35.0651 C   0  0  0  0  0  0  0  0  0  0  0  0
   -4.2592    9.2816   35.7433 O   0  0  0  0  0  0  0  0  0  0  0  0
   -4.3279    6.2591   35.9839 C   0  0  0  0  0  0  0  0  0  0  0  0
   -5.6507    6.0051   36.3802 O   0  0  0  0  0  0  0  0  0  0  0  0
   -6.2899    8.9058   34.7395 N   0  0  0  0  0  0  0  0  0  0  0  0
   -7.5676    8.2746   35.1083 C   0  0  2  0  0  0  0  0  0  0  0  0
   -7.9091    8.4458   36.5191 C   0  0  0  0  0  0  0  0  0  0  0  0
   -7.1272    7.9224   37.3899 O   0  0  0  0  0  0  0  0  0  0  0  0
   -7.7519    6.9713   34.4540 C   0  0  0  0  0  0  0  0  0  0  0  0
   -7.8226    5.7198   35.2384 C   0  0  0  0  0  0  0  0  0  0  0  0
   -7.2030    5.7207   36.5870 C   0  0  0  0  0  0  0  0  0  0  0  0
   -6.4244    6.9178   36.8086 N   0  0  0  0  0  0  0  0  0  0  0  0
   -6.9795    8.1653   37.1858 C   0  0  0  0  0  0  0  0  0  0  0  0
   -7.9853    8.2426   38.2200 N   0  0  0  0  0  0  0  0  0  0  0  0
   -6.5723    9.2316   36.5981 N   0  0  0  0  0  0  0  0  0  0  0  0
   -9.0184    9.1349   37.0420 N   0  0  0  0  0  0  0  0  0  0  0  0
   -9.6034   10.3555   36.5063 C   0  0  2  0  0  0  0  0  0  0  0  0
   -9.7930   11.4316   37.5045 C   0  0  0  0  0  0  0  0  0  0  0  0
  -11.0036   11.9159   37.5139 O   0  0  0  0  0  0  0  0  0  0  0  0
  -11.0049    9.7432   36.2004 C   0  0  0  0  0  0  0  0  0  0  0  0
  -11.2752    9.0896   37.5656 C   0  0  0  0  0  0  0  0  0  0  0  0
   -9.8831    8.8540   38.1813 C   0  0  0  0  0  0  0  0  0  0  0  0
   -8.8993   11.9889   38.4107 N   0  0  0  0  0  0  0  0  0  0  0  0
   -7.6551   12.6882   38.1885 C   0  0  2  0  0  0  0  0  0  0  0  0
   -7.2798   13.0594   36.8580 C   0  0  0  0  0  0  0  0  0  0  0  0
   -6.8969   12.2076   36.0280 O   0  0  0  0  0  0  0  0  0  0  0  0
   -6.7172   11.7206   38.9102 C   0  0  0  0  0  0  0  0  0  0  0  0
   -7.5446   11.4810   40.1844 C   0  0  0  0  0  0  0  0  0  0  0  0
   -8.9353   12.0645   39.8885 C   0  0  0  0  0  0  0  0  0  0  0  0
   -7.3233   14.4162   36.4146 N   0  0  0  0  0  0  0  0  0  0  0  0
   -8.3704   15.3620   36.7065 C   0  0  2  0  0  0  0  0  0  0  0  0
   -9.1950   15.7295   35.5276 C   0  0  0  0  0  0  0  0  0  0  0  0
  -10.3674   15.1874   35.4761 O   0  0  0  0  0  0  0  0  0  0  0  0
   -7.8882   16.6078   37.4369 C   0  0  2  0  0  0  0  0  0  0  0  0
   -6.4505   16.9383   37.1868 C   0  0  0  0  0  0  0  0  0  0  0  0
   -8.1333   16.4273   38.9527 C   0  0  0  0  0  0  0  0  0  0  0  0
   -5.6619   15.6696   36.9596 C   0  0  0  0  0  0  0  0  0  0  0  0
   -8.8552   16.5898   34.4715 N   0  0  0  0  0  0  0  0  0  0  0  0
   -7.7416   16.5421   33.5668 C   0  0  2  0  0  0  0  0  0  0  0  0
   -6.7369   17.6091   33.7109 C   0  0  0  0  0  0  0  0  0  0  0  0
   -5.7421   17.2673   34.4945 O   0  0  0  0  0  0  0  0  0  0  0  0
   -8.2210   16.5542   32.1026 C   0  0  0  0  0  0  0  0  0  0  0  0
   -6.8422   16.8537   30.9702 S   0  0  0  0  0  0  0  0  0  0  0  0
   -6.7083   18.8896   33.1413 N   0  0  0  0  0  0  0  0  0  0  0  0
   -7.7456   19.8964   33.0839 C   0  0  2  0  0  0  0  0  0  0  0  0
   -7.8859   20.6101   31.8303 C   0  0  0  0  0  0  0  0  0  0  0  0
   -8.6039   19.8909   30.9444 O   0  0  0  0  0  0  0  0  0  0  0  0
   -7.8664   20.6419   34.3794 C   0  0  0  0  0  0  0  0  0  0  0  0
   -9.1851   20.7152   34.9991 C   0  0  0  0  0  0  0  0  0  0  0  0
   -9.5648   19.8795   36.0487 C   0  0  0  0  0  0  0  0  0  0  0  0
  -10.1295   21.5951   34.5329 C   0  0  0  0  0  0  0  0  0  0  0  0
  -10.8265   19.9178   36.6109 C   0  0  0  0  0  0  0  0  0  0  0  0
  -11.4043   21.6529   35.0801 C   0  0  0  0  0  0  0  0  0  0  0  0
  -11.7579   20.8087   36.1281 C   0  0  0  0  0  0  0  0  0  0  0  0
   -7.4977   21.8352   31.2586 N   0  0  0  0  0  0  0  0  0  0  0  0
   -6.2018   22.3207   30.8858 C   0  0  2  0  0  0  0  0  0  0  0  0
   -5.0260   21.5518   31.1845 C   0  0  0  0  0  0  0  0  0  0  0  0
   -4.6043   21.5300   32.3951 O   0  0  0  0  0  0  0  0  0  0  0  0
   -6.1621   23.7449   31.3519 C   0  0  0  0  0  0  0  0  0  0  0  0
   -7.6050   24.1551   31.2817 C   0  0  0  0  0  0  0  0  0  0  0  0
   -8.3571   22.9582   30.7766 C   0  0  0  0  0  0  0  0  0  0  0  0
   -4.3342   20.8310   30.1710 N   0  0  0  0  0  0  0  0  0  0  0  0
   -3.9674   21.4108   28.8971 C   0  0  2  0  0  0  0  0  0  0  0  0
   -3.6893   20.3733   27.8380 C   0  0  0  0  0  0  0  0  0  0  0  0
   -4.3963   20.5608   26.8072 O   0  0  0  0  0  0  0  0  0  0  0  0
   -2.5915   22.0501   29.1609 C   0  0  0  0  0  0  0  0  0  0  0  0
   -2.2846   23.1412   28.2381 C   0  0  0  0  0  0  0  0  0  0  0  0
   -2.6133   24.4758   28.4007 O   0  0  0  0  0  0  0  0  0  0  0  0
   -1.6577   22.8621   27.1834 O   0  0  0  0  0  0  0  0  0  0  0  0
   -1.5449   18.8283   28.6716 O   0  0  0  0  0  0  0  0  0  0  0  0
    2.4081   10.7168   26.7374 H   0  0  0  0  0  0  0  0  0  0  0  0
   -6.9183   10.1729   36.8209 H   0  0  0  0  0  0  0  0  0  0  0  0
  1  2  1  0
  1103  1  0
  1109  1  0
  2  3  1  0
  2109  1  1
  3  4  2  0
  3  5  1  0
  5  6  1  0
  6  7  1  0
  6  9  1  6
  7  8  2  0
  7 16  1  0
  9 10  1  0
 10 11  1  0
 11 12  1  0
 12 13  1  0
 13 14  1  0
 13 15  2  0
 17 16  1  6
 17 18  1  0
 17 20  1  0
 18 19  2  0
 18 22  1  0
 20 21  1  0
 21 82  1  0
 23 22  1  1
 23 24  1  0
 23 26  1  0
 24 25  2  0
 24 29  1  0
 26 27  1  0
 26 28  1  1
 29 30  1  0
 30 31  1  0
 30 33  1  6
 31 32  2  0
 31 38  1  0
 33 34  1  0
 34 35  1  0
 35 36  1  0
 36 37  1  0
 38 39  1  0
 39 40  1  0
 39 42  1  1
 40 41  2  0
 40 44  1  0
 42 43  1  0
 44 45  1  0
 45 46  1  0
 45 48  1  1
 46 47  2  0
 46 55  1  0
 48 49  1  0
 49 50  1  0
 50 51  1  0
 51 52  1  0
 52 53  1  0
 52 54  2  0
 55 56  1  0
 55 61  1  0
 56 57  1  0
 56 59  1  1
 57 58  2  0
 57 62  1  0
 59 60  1  0
 60 61  1  0
 62 63  1  0
 62 68  1  0
 63 64  1  0
 63 66  1  6
 64 65  2  0
 64 69  1  0
 66 67  1  0
 67 68  1  0
 70 69  1  6
 70 71  1  0
 70 73  1  0
 71 72  2  0
 71 77  1  0
 73 74  1  0
 73 75  1  1
 74 76  1  0
 78 77  1  1
 78 79  1  0
 78 81  1  0
 79 80  2  0
 79 83  1  0
 81 82  1  0
 83 84  1  0
 84 85  1  0
 84 87  1  1
 85 86  2  0
 85 94  1  0
 87 88  1  0
 88 89  2  0
 88 90  1  0
 89 91  1  0
 90 92  2  0
 91 93  2  0
 92 93  1  0
 94 95  1  0
 94100  1  0
 95 96  1  0
 95 98  1  1
 96 97  2  0
 96101  1  0
 98 99  1  0
 99100  1  0
101102  1  0
102103  1  0
102105  1  1
103104  2  0
105106  1  0
106107  1  0
106108  2  0
 15110  1  0
 54111  1  0
M  CHG  1  37   1
M  END
$$$$
