
     RDKit          3D

111117  0  0  0  0  0  0  0  0999 V2000
   -7.5508   20.2921   28.2452 N   0  0  0  0  0  0  0  0  0  0  0  0
   -7.4518   19.0738   27.6721 C   0  0  2  0  0  0  0  0  0  0  0  0
   -7.5121   17.9150   28.5773 C   0  0  0  0  0  0  0  0  0  0  0  0
   -7.8917   18.2511   29.7673 O   0  0  0  0  0  0  0  0  0  0  0  0
   -7.2362   16.5657   28.3508 N   0  0  0  0  0  0  0  0  0  0  0  0
   -6.0515   15.9389   27.8402 C   0  0  2  0  0  0  0  0  0  0  0  0
   -4.7785   16.4745   28.3710 C   0  0  0  0  0  0  0  0  0  0  0  0
   -4.4126   17.5719   27.8021 O   0  0  0  0  0  0  0  0  0  0  0  0
   -5.9637   15.8317   26.3410 C   0  0  0  0  0  0  0  0  0  0  0  0
   -4.6594   16.0449   25.7020 C   0  0  0  0  0  0  0  0  0  0  0  0
   -4.2947   17.3830   25.1872 C   0  0  0  0  0  0  0  0  0  0  0  0
   -5.4131   18.3149   25.1532 N   0  0  0  0  0  0  0  0  0  0  0  0
   -5.9012   18.9813   26.3058 C   0  0  0  0  0  0  0  0  0  0  0  0
   -5.7752   18.4912   27.6337 N   0  0  0  0  0  0  0  0  0  0  0  0
   -6.5039   20.1163   26.0869 N   0  0  0  0  0  0  0  0  0  0  0  0
   -3.9409   15.9742   29.3678 N   0  0  0  0  0  0  0  0  0  0  0  0
   -4.1886   15.2975   30.5931 C   0  0  2  0  0  0  0  0  0  0  0  0
   -3.8896   13.8420   30.6073 C   0  0  0  0  0  0  0  0  0  0  0  0
   -4.7108   13.0703   31.2277 O   0  0  0  0  0  0  0  0  0  0  0  0
   -5.5885   15.4767   31.1704 C   0  0  0  0  0  0  0  0  0  0  0  0
   -5.7720   17.0549   31.9923 S   0  0  0  0  0  0  0  0  0  0  0  0
   -2.7869   13.1973   30.0105 N   0  0  0  0  0  0  0  0  0  0  0  0
   -2.4542   13.1219   28.6155 C   0  0  2  0  0  0  0  0  0  0  0  0
   -2.9035   11.9141   27.9042 C   0  0  0  0  0  0  0  0  0  0  0  0
   -3.3608   12.1008   26.7183 O   0  0  0  0  0  0  0  0  0  0  0  0
   -0.9539   13.3330   28.4670 C   0  0  2  0  0  0  0  0  0  0  0  0
   -0.3210   12.5746   29.4366 O   0  0  0  0  0  0  0  0  0  0  0  0
   -0.6052   14.7988   28.5574 C   0  0  0  0  0  0  0  0  0  0  0  0
   -2.8932   10.5803   28.3549 N   0  0  0  0  0  0  0  0  0  0  0  0
   -3.2370   10.0504   29.6313 C   0  0  2  0  0  0  0  0  0  0  0  0
   -1.9710    9.3906   30.1611 C   0  0  0  0  0  0  0  0  0  0  0  0
   -0.8611   10.0018   29.9002 O   0  0  0  0  0  0  0  0  0  0  0  0
   -4.3970    9.1209   29.7324 C   0  0  0  0  0  0  0  0  0  0  0  0
   -5.2692    8.9348   28.5562 C   0  0  0  0  0  0  0  0  0  0  0  0
   -4.9389    9.4616   27.2288 C   0  0  0  0  0  0  0  0  0  0  0  0
   -6.0328   10.1323   26.4562 C   0  0  0  0  0  0  0  0  0  0  0  0
   -7.3737    9.7048   26.6809 N   0  0  0  0  0  4  0  0  0  0  0  0
   -1.8606    8.2199   30.8819 N   0  0  0  0  0  0  0  0  0  0  0  0
   -2.4469    7.8742   32.1847 C   0  0  2  0  0  0  0  0  0  0  0  0
   -2.7256    9.0285   33.0450 C   0  0  0  0  0  0  0  0  0  0  0  0
   -1.7988    9.9339   33.0100 O   0  0  0  0  0  0  0  0  0  0  0  0
   -1.4253    6.9287   32.8445 C   0  0  0  0  0  0  0  0  0  0  0  0
   -1.8243    6.6569   34.1630 O   0  0  0  0  0  0  0  0  0  0  0  0
   -3.8237    9.2903   33.8808 N   0  0  0  0  0  0  0  0  0  0  0  0
   -4.2934    8.4759   35.0135 C   0  0  2  0  0  0  0  0  0  0  0  0
   -3.4292    8.5701   36.1887 C   0  0  0  0  0  0  0  0  0  0  0  0
   -2.2238    8.1477   36.0780 O   0  0  0  0  0  0  0  0  0  0  0  0
   -4.8162    7.1722   34.5806 C   0  0  0  0  0  0  0  0  0  0  0  0
   -3.9181    6.0190   34.3564 C   0  0  0  0  0  0  0  0  0  0  0  0
   -2.4593    6.2865   34.3062 C   0  0  0  0  0  0  0  0  0  0  0  0
   -1.9946    6.9059   35.5264 N   0  0  0  0  0  0  0  0  0  0  0  0
   -0.6278    7.0745   35.8586 C   0  0  0  0  0  0  0  0  0  0  0  0
    0.3884    6.2559   35.2384 N   0  0  0  0  0  0  0  0  0  0  0  0
   -0.3015    7.9710   36.7177 N   0  0  0  0  0  0  0  0  0  0  0  0
   -3.7745    9.0834   37.4520 N   0  0  0  0  0  0  0  0  0  0  0  0
   -4.6499   10.2175   37.7096 C   0  0  2  0  0  0  0  0  0  0  0  0
   -4.0786   11.2366   38.6182 C   0  0  0  0  0  0  0  0  0  0  0  0
   -4.8694   11.5424   39.6089 O   0  0  0  0  0  0  0  0  0  0  0  0
   -5.7211    9.4168   38.5123 C   0  0  0  0  0  0  0  0  0  0  0  0
   -4.7846    8.7058   39.5030 C   0  0  0  0  0  0  0  0  0  0  0  0
   -3.4149    8.6604   38.7997 C   0  0  0  0  0  0  0  0  0  0  0  0
   -2.8580   11.8989   38.5771 N   0  0  0  0  0  0  0  0  0  0  0  0
   -2.3011   12.7731   37.5710 C   0  0  2  0  0  0  0  0  0  0  0  0
   -3.1231   13.2190   36.4874 C   0  0  0  0  0  0  0  0  0  0  0  0
   -3.4598   12.4465   35.5650 O   0  0  0  0  0  0  0  0  0  0  0  0
   -1.0791   11.9363   37.1923 C   0  0  0  0  0  0  0  0  0  0  0  0
   -0.5949   11.5569   38.6021 C   0  0  0  0  0  0  0  0  0  0  0  0
   -1.7427   11.9409   39.5493 C   0  0  0  0  0  0  0  0  0  0  0  0
   -3.5971   14.5637   36.4062 N   0  0  0  0  0  0  0  0  0  0  0  0
   -4.1016   15.3443   37.5073 C   0  0  2  0  0  0  0  0  0  0  0  0
   -5.5603   15.6120   37.4364 C   0  0  0  0  0  0  0  0  0  0  0  0
   -6.2960   14.9089   38.2335 O   0  0  0  0  0  0  0  0  0  0  0  0
   -3.3282   16.6324   37.7537 C   0  0  2  0  0  0  0  0  0  0  0  0
   -2.8327   17.2899   36.5043 C   0  0  0  0  0  0  0  0  0  0  0  0
   -2.1424   16.3326   38.6994 C   0  0  0  0  0  0  0  0  0  0  0  0
   -3.1585   18.7651   36.5340 C   0  0  0  0  0  0  0  0  0  0  0  0
   -6.2297   16.5318   36.6135 N   0  0  0  0  0  0  0  0  0  0  0  0
   -6.2261   16.6609   35.1838 C   0  0  2  0  0  0  0  0  0  0  0  0
   -5.5644   17.8578   34.6378 C   0  0  0  0  0  0  0  0  0  0  0  0
   -4.3064   17.6472   34.3314 O   0  0  0  0  0  0  0  0  0  0  0  0
   -7.6617   16.6317   34.6249 C   0  0  0  0  0  0  0  0  0  0  0  0
   -7.6940   17.1466   32.8908 S   0  0  0  0  0  0  0  0  0  0  0  0
   -6.0848   19.1396   34.4122 N   0  0  0  0  0  0  0  0  0  0  0  0
   -6.8582   19.9886   35.2922 C   0  0  2  0  0  0  0  0  0  0  0  0
   -7.9710   20.6981   34.6933 C   0  0  0  0  0  0  0  0  0  0  0  0
   -9.0532   19.9004   34.5932 O   0  0  0  0  0  0  0  0  0  0  0  0
   -5.9884   20.6846   36.2959 C   0  0  0  0  0  0  0  0  0  0  0  0
   -6.6289   21.2222   37.4913 C   0  0  0  0  0  0  0  0  0  0  0  0
   -7.7561   20.6339   38.0635 C   0  0  0  0  0  0  0  0  0  0  0  0
   -6.1622   22.3713   38.0788 C   0  0  0  0  0  0  0  0  0  0  0  0
   -8.3902   21.1633   39.1713 C   0  0  0  0  0  0  0  0  0  0  0  0
   -6.7815   22.9238   39.1919 C   0  0  0  0  0  0  0  0  0  0  0  0
   -7.9044   22.3163   39.7449 C   0  0  0  0  0  0  0  0  0  0  0  0
   -8.2628   21.9767   34.1847 N   0  0  0  0  0  0  0  0  0  0  0  0
   -7.7736   22.6496   33.0177 C   0  0  2  0  0  0  0  0  0  0  0  0
   -6.7446   22.0513   32.2138 C   0  0  0  0  0  0  0  0  0  0  0  0
   -5.5409   22.0674   32.6551 O   0  0  0  0  0  0  0  0  0  0  0  0
   -7.4966   24.0558   33.4569 C   0  0  0  0  0  0  0  0  0  0  0  0
   -8.4893   24.2566   34.5656 C   0  0  0  0  0  0  0  0  0  0  0  0
   -9.2617   22.9740   34.6741 C   0  0  0  0  0  0  0  0  0  0  0  0
   -7.0391   21.4561   30.9551 N   0  0  0  0  0  0  0  0  0  0  0  0
   -7.8387   22.1062   29.9394 C   0  0  2  0  0  0  0  0  0  0  0  0
   -8.4043   21.1392   28.9293 C   0  0  0  0  0  0  0  0  0  0  0  0
   -9.6609   21.2429   28.8402 O   0  0  0  0  0  0  0  0  0  0  0  0
   -6.8182   22.9308   29.1331 C   0  0  0  0  0  0  0  0  0  0  0  0
   -6.7276   24.3191   29.5806 C   0  0  0  0  0  0  0  0  0  0  0  0
   -7.3018   24.8577   30.7191 O   0  0  0  0  0  0  0  0  0  0  0  0
   -6.0646   25.1234   28.8758 O   0  0  0  0  0  0  0  0  0  0  0  0
   -6.2932   19.9016   27.6285 O   0  0  0  0  0  0  0  0  0  0  0  0
   -7.5280   20.1724   25.8611 H   0  0  0  0  0  0  0  0  0  0  0  0
   -0.9723    8.6190   37.1481 H   0  0  0  0  0  0  0  0  0  0  0  0
  1  2  1  0
  1103  1  0
  1109  1  0
  2  3  1  0
  2109  1  1
  3  4  2  0
  3  5  1  0
  5  6  1  0
  6  7  1  0
  6  9  1  6
  7  8  2  0
  7 16  1  0
  9 10  1  0
 10 11  1  0
 11 12  1  0
 12 13  1  0
 13 14  1  0
 13 15  2  0
 17 16  1  6
 17 18  1  0
 17 20  1  0
 18 19  2  0
 18 22  1  0
 20 21  1  0
 21 82  1  0
 23 22  1  1
 23 24  1  0
 23 26  1  0
 24 25  2  0
 24 29  1  0
 26 27  1  0
 26 28  1  1
 29 30  1  0
 30 31  1  0
 30 33  1  6
 31 32  2  0
 31 38  1  0
 33 34  1  0
 34 35  1  0
 35 36  1  0
 36 37  1  0
 38 39  1  0
 39 40  1  0
 39 42  1  1
 40 41  2  0
 40 44  1  0
 42 43  1  0
 44 45  1  0
 45 46  1  0
 45 48  1  6
 46 47  2  0
 46 55  1  0
 48 49  1  0
 49 50  1  0
 50 51  1  0
 51 52  1  0
 52 53  1  0
 52 54  2  0
 55 56  1  0
 55 61  1  0
 56 57  1  0
 56 59  1  1
 57 58  2  0
 57 62  1  0
 59 60  1  0
 60 61  1  0
 62 63  1  0
 62 68  1  0
 63 64  1  0
 63 66  1  6
 64 65  2  0
 64 69  1  0
 66 67  1  0
 67 68  1  0
 70 69  1  6
 70 71  1  0
 70 73  1  0
 71 72  2  0
 71 77  1  0
 73 74  1  0
 73 75  1  1
 74 76  1  0
 78 77  1  1
 78 79  1  0
 78 81  1  0
 79 80  2  0
 79 83  1  0
 81 82  1  0
 83 84  1  0
 84 85  1  0
 84 87  1  6
 85 86  2  0
 85 94  1  0
 87 88  1  0
 88 89  2  0
 88 90  1  0
 89 91  1  0
 90 92  2  0
 91 93  2  0
 92 93  1  0
 94 95  1  0
 94100  1  0
 95 96  1  0
 95 98  1  1
 96 97  2  0
 96101  1  0
 98 99  1  0
 99100  1  0
101102  1  0
102103  1  0
102105  1  6
103104  2  0
105106  1  0
106107  1  0
106108  2  0
 15110  1  0
 54111  1  0
M  CHG  1  37   1
M  END
$$$$
