
     RDKit          3D

111117  0  0  0  0  0  0  0  0999 V2000
   -3.0452    9.1306   38.7667 N   0  0  0  0  0  0  0  0  0  0  0  0
   -2.3711    9.0405   37.6005 C   0  0  2  0  0  0  0  0  0  0  0  0
   -2.2582   10.2766   36.8097 C   0  0  0  0  0  0  0  0  0  0  0  0
   -2.6271   11.3168   37.4843 O   0  0  0  0  0  0  0  0  0  0  0  0
   -1.8272   10.4841   35.4985 N   0  0  0  0  0  0  0  0  0  0  0  0
   -2.2856    9.8976   34.2725 C   0  0  2  0  0  0  0  0  0  0  0  0
   -3.7546    9.7750   34.1453 C   0  0  0  0  0  0  0  0  0  0  0  0
   -4.2366    8.7621   34.7806 O   0  0  0  0  0  0  0  0  0  0  0  0
   -1.6389    8.5926   33.8909 C   0  0  0  0  0  0  0  0  0  0  0  0
   -2.5056    7.4471   33.5884 C   0  0  0  0  0  0  0  0  0  0  0  0
   -2.0829    6.0784   33.9580 C   0  0  0  0  0  0  0  0  0  0  0  0
   -2.6636    5.6110   35.2089 N   0  0  0  0  0  0  0  0  0  0  0  0
   -2.5939    4.2613   35.6384 C   0  0  0  0  0  0  0  0  0  0  0  0
   -1.6947    3.7756   36.6259 N   0  0  0  0  0  0  0  0  0  0  0  0
   -3.4265    3.4424   35.0591 N   0  0  0  0  0  0  0  0  0  0  0  0
   -4.6650   10.5737   33.4536 N   0  0  0  0  0  0  0  0  0  0  0  0
   -4.7428   11.9732   33.2168 C   0  0  2  0  0  0  0  0  0  0  0  0
   -4.3951   12.4237   31.8442 C   0  0  0  0  0  0  0  0  0  0  0  0
   -3.7063   13.5038   31.7272 O   0  0  0  0  0  0  0  0  0  0  0  0
   -3.9610   12.8480   34.1909 C   0  0  0  0  0  0  0  0  0  0  0  0
   -4.8258   13.0515   35.7434 S   0  0  0  0  0  0  0  0  0  0  0  0
   -4.7422   11.7933   30.6317 N   0  0  0  0  0  0  0  0  0  0  0  0
   -4.3500   10.4926   30.1662 C   0  0  2  0  0  0  0  0  0  0  0  0
   -3.1820   10.4470   29.2718 C   0  0  0  0  0  0  0  0  0  0  0  0
   -2.3617    9.4787   29.4716 O   0  0  0  0  0  0  0  0  0  0  0  0
   -5.5629    9.8212   29.5373 C   0  0  2  0  0  0  0  0  0  0  0  0
   -6.3539   10.8109   28.9799 O   0  0  0  0  0  0  0  0  0  0  0  0
   -6.3053    8.9891   30.5546 C   0  0  0  0  0  0  0  0  0  0  0  0
   -2.8500   11.3257   28.2231 N   0  0  0  0  0  0  0  0  0  0  0  0
   -2.9340   12.7463   28.1678 C   0  0  2  0  0  0  0  0  0  0  0  0
   -3.9107   13.0606   27.0426 C   0  0  0  0  0  0  0  0  0  0  0  0
   -4.9252   12.2654   26.9336 O   0  0  0  0  0  0  0  0  0  0  0  0
   -1.6783   13.5327   28.0099 C   0  0  0  0  0  0  0  0  0  0  0  0
   -0.4300   13.0138   28.6026 C   0  0  0  0  0  0  0  0  0  0  0  0
   -0.0727   11.5923   28.5883 C   0  0  0  0  0  0  0  0  0  0  0  0
   -0.6168   10.7287   29.6845 C   0  0  0  0  0  0  0  0  0  0  0  0
   -0.0671    9.4240   29.8477 N   0  0  0  0  0  4  0  0  0  0  0  0
   -3.8460   14.0862   26.1227 N   0  0  0  0  0  0  0  0  0  0  0  0
   -3.8238   15.5379   26.3524 C   0  0  2  0  0  0  0  0  0  0  0  0
   -4.4577   15.9591   27.6058 C   0  0  0  0  0  0  0  0  0  0  0  0
   -5.5476   15.3117   27.8756 O   0  0  0  0  0  0  0  0  0  0  0  0
   -4.5482   16.1460   25.1365 C   0  0  0  0  0  0  0  0  0  0  0  0
   -5.9363   16.0649   25.3313 O   0  0  0  0  0  0  0  0  0  0  0  0
   -4.0657   16.9374   28.5342 N   0  0  0  0  0  0  0  0  0  0  0  0
   -3.8693   18.3744   28.2826 C   0  0  2  0  0  0  0  0  0  0  0  0
   -5.1227   19.1050   28.1042 C   0  0  0  0  0  0  0  0  0  0  0  0
   -5.8603   18.7890   27.1044 O   0  0  0  0  0  0  0  0  0  0  0  0
   -2.7287   18.6310   27.3917 C   0  0  0  0  0  0  0  0  0  0  0  0
   -1.3352   18.5054   27.8702 C   0  0  0  0  0  0  0  0  0  0  0  0
   -1.1297   18.1904   29.3058 C   0  0  0  0  0  0  0  0  0  0  0  0
   -2.3658   17.7934   29.9406 N   0  0  0  0  0  0  0  0  0  0  0  0
   -2.4451   17.2338   31.2396 C   0  0  0  0  0  0  0  0  0  0  0  0
   -1.4712   16.2646   31.6860 N   0  0  0  0  0  0  0  0  0  0  0  0
   -3.3946   17.6040   32.0204 N   0  0  0  0  0  0  0  0  0  0  0  0
   -5.6239   20.1344   28.9215 N   0  0  0  0  0  0  0  0  0  0  0  0
   -5.5044   20.2181   30.3699 C   0  0  2  0  0  0  0  0  0  0  0  0
   -6.7813   20.4681   31.0751 C   0  0  0  0  0  0  0  0  0  0  0  0
   -6.7212   21.4715   31.9058 O   0  0  0  0  0  0  0  0  0  0  0  0
   -4.6868   21.5463   30.3888 C   0  0  0  0  0  0  0  0  0  0  0  0
   -5.5874   22.3859   29.4680 C   0  0  0  0  0  0  0  0  0  0  0  0
   -6.3430   21.3611   28.6011 C   0  0  0  0  0  0  0  0  0  0  0  0
   -8.0034   19.8131   30.9874 N   0  0  0  0  0  0  0  0  0  0  0  0
   -8.3503   18.4385   31.2644 C   0  0  2  0  0  0  0  0  0  0  0  0
   -7.3912   17.5785   31.8883 C   0  0  0  0  0  0  0  0  0  0  0  0
   -6.3951   17.1539   31.2651 O   0  0  0  0  0  0  0  0  0  0  0  0
   -8.8123   18.0329   29.8648 C   0  0  0  0  0  0  0  0  0  0  0  0
   -9.6761   19.2597   29.5262 C   0  0  0  0  0  0  0  0  0  0  0  0
   -9.3442   20.3067   30.6012 C   0  0  0  0  0  0  0  0  0  0  0  0
   -7.5246   17.1637   33.2484 N   0  0  0  0  0  0  0  0  0  0  0  0
   -7.9350   18.0024   34.3457 C   0  0  2  0  0  0  0  0  0  0  0  0
   -6.8514   18.2937   35.3182 C   0  0  0  0  0  0  0  0  0  0  0  0
   -6.3380   19.4777   35.2432 O   0  0  0  0  0  0  0  0  0  0  0  0
   -9.1849   17.5101   35.0624 C   0  0  2  0  0  0  0  0  0  0  0  0
  -10.1166   16.7304   34.1890 C   0  0  0  0  0  0  0  0  0  0  0  0
   -9.9237   18.7232   35.6732 C   0  0  0  0  0  0  0  0  0  0  0  0
   -9.4748   16.4810   32.8440 C   0  0  0  0  0  0  0  0  0  0  0  0
   -6.3236   17.4427   36.3022 N   0  0  0  0  0  0  0  0  0  0  0  0
   -5.7371   16.1388   36.1738 C   0  0  2  0  0  0  0  0  0  0  0  0
   -6.5053   15.0183   36.7422 C   0  0  0  0  0  0  0  0  0  0  0  0
   -7.2830   14.4369   35.8603 O   0  0  0  0  0  0  0  0  0  0  0  0
   -4.3321   16.1025   36.8054 C   0  0  0  0  0  0  0  0  0  0  0  0
   -3.7374   14.4018   36.9689 S   0  0  0  0  0  0  0  0  0  0  0  0
   -6.5113   14.5140   38.0500 N   0  0  0  0  0  0  0  0  0  0  0  0
   -6.6364   15.2167   39.3084 C   0  0  2  0  0  0  0  0  0  0  0  0
   -5.7707   14.7763   40.3842 C   0  0  0  0  0  0  0  0  0  0  0  0
   -4.5403   15.3138   40.2632 O   0  0  0  0  0  0  0  0  0  0  0  0
   -8.0621   15.5757   39.6033 C   0  0  0  0  0  0  0  0  0  0  0  0
   -8.7746   16.3855   38.6210 C   0  0  0  0  0  0  0  0  0  0  0  0
   -8.1194   17.0548   37.5881 C   0  0  0  0  0  0  0  0  0  0  0  0
  -10.1337   16.5552   38.7073 C   0  0  0  0  0  0  0  0  0  0  0  0
   -8.7857   17.8559   36.6805 C   0  0  0  0  0  0  0  0  0  0  0  0
  -10.8265   17.3551   37.8084 C   0  0  0  0  0  0  0  0  0  0  0  0
  -10.1492   18.0114   36.7854 C   0  0  0  0  0  0  0  0  0  0  0  0
   -5.8303   13.9539   41.5238 N   0  0  0  0  0  0  0  0  0  0  0  0
   -5.9692   12.5323   41.6410 C   0  0  2  0  0  0  0  0  0  0  0  0
   -6.1838   11.7259   40.4719 C   0  0  0  0  0  0  0  0  0  0  0  0
   -7.3461   11.7354   39.9309 O   0  0  0  0  0  0  0  0  0  0  0  0
   -6.9588   12.3198   42.7468 C   0  0  0  0  0  0  0  0  0  0  0  0
   -6.7484   13.5276   43.6141 C   0  0  0  0  0  0  0  0  0  0  0  0
   -5.6608   14.3292   42.9599 C   0  0  0  0  0  0  0  0  0  0  0  0
   -5.1422   10.9284   39.9201 N   0  0  0  0  0  0  0  0  0  0  0  0
   -4.3145   10.0466   40.7144 C   0  0  2  0  0  0  0  0  0  0  0  0
   -3.0177    9.6867   40.0331 C   0  0  0  0  0  0  0  0  0  0  0  0
   -2.0201    9.9593   40.7599 O   0  0  0  0  0  0  0  0  0  0  0  0
   -5.0998    8.7222   40.7412 C   0  0  0  0  0  0  0  0  0  0  0  0
   -4.2474    7.5600   40.9842 C   0  0  0  0  0  0  0  0  0  0  0  0
   -2.8758    7.5676   41.1692 O   0  0  0  0  0  0  0  0  0  0  0  0
   -4.7949    6.4282   41.0356 O   0  0  0  0  0  0  0  0  0  0  0  0
   -3.6100    8.3422   37.6833 O   0  0  0  0  0  0  0  0  0  0  0  0
   -3.6128    2.4777   35.4299 H   0  0  0  0  0  0  0  0  0  0  0  0
   -3.5944   17.1602   32.9251 H   0  0  0  0  0  0  0  0  0  0  0  0
  1  2  1  0
  1103  1  0
  1109  1  0
  2  3  1  0
  2109  1  6
  3  4  2  0
  3  5  1  0
  5  6  1  0
  6  7  1  0
  6  9  1  1
  7  8  2  0
  7 16  1  0
  9 10  1  0
 10 11  1  0
 11 12  1  0
 12 13  1  0
 13 14  1  0
 13 15  2  0
 17 16  1  6
 17 18  1  0
 17 20  1  0
 18 19  2  0
 18 22  1  0
 20 21  1  0
 21 82  1  0
 23 22  1  6
 23 24  1  0
 23 26  1  0
 24 25  2  0
 24 29  1  0
 26 27  1  0
 26 28  1  1
 29 30  1  0
 30 31  1  0
 30 33  1  6
 31 32  2  0
 31 38  1  0
 33 34  1  0
 34 35  1  0
 35 36  1  0
 36 37  1  0
 38 39  1  0
 39 40  1  0
 39 42  1  6
 40 41  2  0
 40 44  1  0
 42 43  1  0
 44 45  1  0
 45 46  1  0
 45 48  1  6
 46 47  2  0
 46 55  1  0
 48 49  1  0
 49 50  1  0
 50 51  1  0
 51 52  1  0
 52 53  1  0
 52 54  2  0
 55 56  1  0
 55 61  1  0
 56 57  1  0
 56 59  1  6
 57 58  2  0
 57 62  1  0
 59 60  1  0
 60 61  1  0
 62 63  1  0
 62 68  1  0
 63 64  1  0
 63 66  1  6
 64 65  2  0
 64 69  1  0
 66 67  1  0
 67 68  1  0
 70 69  1  6
 70 71  1  0
 70 73  1  0
 71 72  2  0
 71 77  1  0
 73 74  1  0
 73 75  1  6
 74 76  1  0
 78 77  1  1
 78 79  1  0
 78 81  1  0
 79 80  2  0
 79 83  1  0
 81 82  1  0
 83 84  1  0
 84 85  1  0
 84 87  1  1
 85 86  2  0
 85 94  1  0
 87 88  1  0
 88 89  2  0
 88 90  1  0
 89 91  1  0
 90 92  2  0
 91 93  2  0
 92 93  1  0
 94 95  1  0
 94100  1  0
 95 96  1  0
 95 98  1  1
 96 97  2  0
 96101  1  0
 98 99  1  0
 99100  1  0
101102  1  0
102103  1  0
102105  1  6
103104  2  0
105106  1  0
106107  1  0
106108  2  0
 15110  1  0
 54111  1  0
M  CHG  1  37   1
M  END
$$$$
