
     RDKit          3D

111117  0  0  0  0  0  0  0  0999 V2000
   -5.0640    8.7418   39.0800 N   0  0  0  0  0  0  0  0  0  0  0  0
   -4.0723    8.6039   38.1743 C   0  0  2  0  0  0  0  0  0  0  0  0
   -3.6538    9.8249   37.4673 C   0  0  0  0  0  0  0  0  0  0  0  0
   -4.1515   10.8899   38.0069 O   0  0  0  0  0  0  0  0  0  0  0  0
   -2.8322    9.9966   36.3521 N   0  0  0  0  0  0  0  0  0  0  0  0
   -2.9269    9.4269   35.0394 C   0  0  2  0  0  0  0  0  0  0  0  0
   -4.2915    9.3866   34.4687 C   0  0  0  0  0  0  0  0  0  0  0  0
   -5.0009    8.4081   34.9172 O   0  0  0  0  0  0  0  0  0  0  0  0
   -2.2695    8.0842   34.8610 C   0  0  0  0  0  0  0  0  0  0  0  0
   -2.9235    6.9050   35.4413 C   0  0  0  0  0  0  0  0  0  0  0  0
   -2.1100    5.8260   36.0435 C   0  0  0  0  0  0  0  0  0  0  0  0
   -2.7919    5.1172   37.1172 N   0  0  0  0  0  0  0  0  0  0  0  0
   -2.8379    3.7026   37.2045 C   0  0  0  0  0  0  0  0  0  0  0  0
   -1.8136    2.8331   36.7414 N   0  0  0  0  0  0  0  0  0  0  0  0
   -3.9132    3.2068   37.7499 N   0  0  0  0  0  0  0  0  0  0  0  0
   -4.9007   10.2299   33.5397 N   0  0  0  0  0  0  0  0  0  0  0  0
   -4.8233   11.6296   33.3036 C   0  0  2  0  0  0  0  0  0  0  0  0
   -4.0484   12.0480   32.1068 C   0  0  0  0  0  0  0  0  0  0  0  0
   -3.2969   13.0864   32.2157 O   0  0  0  0  0  0  0  0  0  0  0  0
   -4.3279   12.4667   34.4779 C   0  0  0  0  0  0  0  0  0  0  0  0
   -5.6123   12.7319   35.6943 S   0  0  0  0  0  0  0  0  0  0  0  0
   -4.0440   11.4282   30.8404 N   0  0  0  0  0  0  0  0  0  0  0  0
   -3.6026   10.1036   30.5047 C   0  0  2  0  0  0  0  0  0  0  0  0
   -2.2219    9.9843   30.0089 C   0  0  0  0  0  0  0  0  0  0  0  0
   -1.5578    8.9728   30.4405 O   0  0  0  0  0  0  0  0  0  0  0  0
   -4.6017    9.4967   29.5294 C   0  0  2  0  0  0  0  0  0  0  0  0
   -5.2487   10.5361   28.8837 O   0  0  0  0  0  0  0  0  0  0  0  0
   -5.5575    8.5724   30.2436 C   0  0  0  0  0  0  0  0  0  0  0  0
   -1.5366   10.8340   29.1198 N   0  0  0  0  0  0  0  0  0  0  0  0
   -1.5192   12.2565   29.0548 C   0  0  2  0  0  0  0  0  0  0  0  0
   -2.0866   12.6163   27.6882 C   0  0  0  0  0  0  0  0  0  0  0  0
   -3.0627   11.8790   27.2674 O   0  0  0  0  0  0  0  0  0  0  0  0
   -0.2329   12.9692   29.2950 C   0  0  0  0  0  0  0  0  0  0  0  0
    0.7551   13.0500   28.2013 C   0  0  0  0  0  0  0  0  0  0  0  0
    0.7373   12.1506   27.0442 C   0  0  0  0  0  0  0  0  0  0  0  0
   -0.4728   11.2886   26.8534 C   0  0  0  0  0  0  0  0  0  0  0  0
   -0.5047   10.4147   25.7282 N   0  0  0  0  0  4  0  0  0  0  0  0
   -1.6862   13.6288   26.8416 N   0  0  0  0  0  0  0  0  0  0  0  0
   -1.6532   15.0788   27.0806 C   0  0  2  0  0  0  0  0  0  0  0  0
   -2.6145   15.5457   28.0847 C   0  0  0  0  0  0  0  0  0  0  0  0
   -3.7696   14.9634   28.0030 O   0  0  0  0  0  0  0  0  0  0  0  0
   -1.9364   15.7168   25.7074 C   0  0  0  0  0  0  0  0  0  0  0  0
   -2.5391   16.9716   25.8909 O   0  0  0  0  0  0  0  0  0  0  0  0
   -2.4699   16.5080   29.0975 N   0  0  0  0  0  0  0  0  0  0  0  0
   -2.1252   17.9294   28.9313 C   0  0  2  0  0  0  0  0  0  0  0  0
   -3.2209   18.7284   28.3858 C   0  0  0  0  0  0  0  0  0  0  0  0
   -3.6348   18.4463   27.2057 O   0  0  0  0  0  0  0  0  0  0  0  0
   -0.7545   18.1135   28.4334 C   0  0  0  0  0  0  0  0  0  0  0  0
   -0.4872   18.8025   27.1526 C   0  0  0  0  0  0  0  0  0  0  0  0
   -1.5937   18.8678   26.1659 C   0  0  0  0  0  0  0  0  0  0  0  0
   -2.8095   18.2964   26.6987 N   0  0  0  0  0  0  0  0  0  0  0  0
   -3.6927   17.4771   25.9534 C   0  0  0  0  0  0  0  0  0  0  0  0
   -3.4161   16.0710   25.7695 N   0  0  0  0  0  0  0  0  0  0  0  0
   -4.7491   18.0007   25.4454 N   0  0  0  0  0  0  0  0  0  0  0  0
   -3.8886   19.7913   29.0207 N   0  0  0  0  0  0  0  0  0  0  0  0
   -4.2122   19.8802   30.4372 C   0  0  2  0  0  0  0  0  0  0  0  0
   -5.6272   20.2081   30.7215 C   0  0  0  0  0  0  0  0  0  0  0  0
   -5.7669   21.2134   31.5402 O   0  0  0  0  0  0  0  0  0  0  0  0
   -3.3657   21.1600   30.7171 C   0  0  0  0  0  0  0  0  0  0  0  0
   -3.8934   22.0417   29.5734 C   0  0  0  0  0  0  0  0  0  0  0  0
   -4.4050   21.0541   28.5076 C   0  0  0  0  0  0  0  0  0  0  0  0
   -6.7992   19.6227   30.2589 N   0  0  0  0  0  0  0  0  0  0  0  0
   -7.2913   18.2724   30.4040 C   0  0  2  0  0  0  0  0  0  0  0  0
   -6.6185   17.3646   31.2827 C   0  0  0  0  0  0  0  0  0  0  0  0
   -5.5054   16.8790   30.9893 O   0  0  0  0  0  0  0  0  0  0  0  0
   -7.3262   17.8819   28.9264 C   0  0  0  0  0  0  0  0  0  0  0  0
   -7.9746   19.1528   28.3519 C   0  0  0  0  0  0  0  0  0  0  0  0
   -7.9281   20.1884   29.4866 C   0  0  0  0  0  0  0  0  0  0  0  0
   -7.1838   16.9694   32.5332 N   0  0  0  0  0  0  0  0  0  0  0  0
   -7.8615   17.8392   33.4608 C   0  0  2  0  0  0  0  0  0  0  0  0
   -7.1117   18.0768   34.7202 C   0  0  0  0  0  0  0  0  0  0  0  0
   -6.5339   19.2291   34.8165 O   0  0  0  0  0  0  0  0  0  0  0  0
   -9.2962   17.4246   33.7573 C   0  0  2  0  0  0  0  0  0  0  0  0
   -9.4866   15.9455   33.8788 C   0  0  0  0  0  0  0  0  0  0  0  0
  -10.2197   17.9876   32.6524 C   0  0  0  0  0  0  0  0  0  0  0  0
   -8.7749   15.2396   32.7482 C   0  0  0  0  0  0  0  0  0  0  0  0
   -6.9584   17.2055   35.8104 N   0  0  0  0  0  0  0  0  0  0  0  0
   -6.4354   15.8694   35.8549 C   0  0  2  0  0  0  0  0  0  0  0  0
   -7.4024   14.7991   36.1513 C   0  0  0  0  0  0  0  0  0  0  0  0
   -7.9054   14.2553   35.0687 O   0  0  0  0  0  0  0  0  0  0  0  0
   -5.2946   15.7588   36.8847 C   0  0  0  0  0  0  0  0  0  0  0  0
   -4.8752   14.0285   37.2060 S   0  0  0  0  0  0  0  0  0  0  0  0
   -7.8358   14.3069   37.3901 N   0  0  0  0  0  0  0  0  0  0  0  0
   -8.2990   15.0261   38.5569 C   0  0  2  0  0  0  0  0  0  0  0  0
   -7.8293   14.5463   39.8413 C   0  0  0  0  0  0  0  0  0  0  0  0
   -6.5923   15.0122   40.1065 O   0  0  0  0  0  0  0  0  0  0  0  0
   -9.7240   15.4677   38.4059 C   0  0  0  0  0  0  0  0  0  0  0  0
  -10.2633   15.5681   37.0541 C   0  0  0  0  0  0  0  0  0  0  0  0
   -9.4588   15.4682   35.9196 C   0  0  0  0  0  0  0  0  0  0  0  0
  -11.5981   15.8127   36.8494 C   0  0  0  0  0  0  0  0  0  0  0  0
   -9.9592   15.6038   34.6387 C   0  0  0  0  0  0  0  0  0  0  0  0
  -12.1255   15.9536   35.5727 C   0  0  0  0  0  0  0  0  0  0  0  0
  -11.3014   15.8481   34.4566 C   0  0  0  0  0  0  0  0  0  0  0  0
   -8.2802   13.7381   40.9006 N   0  0  0  0  0  0  0  0  0  0  0  0
   -8.5285   12.3278   40.9566 C   0  0  2  0  0  0  0  0  0  0  0  0
   -8.4212   11.5251   39.7703 C   0  0  0  0  0  0  0  0  0  0  0  0
   -9.3605   11.5959   38.9005 O   0  0  0  0  0  0  0  0  0  0  0  0
   -9.8186   12.1810   41.7056 C   0  0  0  0  0  0  0  0  0  0  0  0
   -9.8150   13.3821   42.6070 C   0  0  0  0  0  0  0  0  0  0  0  0
   -8.5362   14.1153   42.3234 C   0  0  0  0  0  0  0  0  0  0  0  0
   -7.3078   10.6652   39.5552 N   0  0  0  0  0  0  0  0  0  0  0  0
   -6.8132    9.7446   40.5559 C   0  0  2  0  0  0  0  0  0  0  0  0
   -5.3929    9.3061   40.2995 C   0  0  0  0  0  0  0  0  0  0  0  0
   -4.6510    9.5278   41.2986 O   0  0  0  0  0  0  0  0  0  0  0  0
   -7.6428    8.4671   40.3294 C   0  0  0  0  0  0  0  0  0  0  0  0
   -6.9335    7.2509   40.7219 C   0  0  0  0  0  0  0  0  0  0  0  0
   -6.3147    7.0128   41.9368 O   0  0  0  0  0  0  0  0  0  0  0  0
   -6.8673    6.3119   39.8868 O   0  0  0  0  0  0  0  0  0  0  0  0
   -5.3148    7.9777   37.8685 O   0  0  0  0  0  0  0  0  0  0  0  0
   -4.1364    2.1812   37.7167 H   0  0  0  0  0  0  0  0  0  0  0  0
   -5.5185   18.3886   26.0047 H   0  0  0  0  0  0  0  0  0  0  0  0
  1  2  1  0
  1103  1  0
  1109  1  0
  2  3  1  0
  2109  1  6
  3  4  2  0
  3  5  1  0
  5  6  1  0
  6  7  1  0
  6  9  1  1
  7  8  2  0
  7 16  1  0
  9 10  1  0
 10 11  1  0
 11 12  1  0
 12 13  1  0
 13 14  1  0
 13 15  2  0
 17 16  1  1
 17 18  1  0
 17 20  1  0
 18 19  2  0
 18 22  1  0
 20 21  1  0
 21 82  1  0
 23 22  1  6
 23 24  1  0
 23 26  1  0
 24 25  2  0
 24 29  1  0
 26 27  1  0
 26 28  1  1
 29 30  1  0
 30 31  1  0
 30 33  1  6
 31 32  2  0
 31 38  1  0
 33 34  1  0
 34 35  1  0
 35 36  1  0
 36 37  1  0
 38 39  1  0
 39 40  1  0
 39 42  1  6
 40 41  2  0
 40 44  1  0
 42 43  1  0
 44 45  1  0
 45 46  1  0
 45 48  1  6
 46 47  2  0
 46 55  1  0
 48 49  1  0
 49 50  1  0
 50 51  1  0
 51 52  1  0
 52 53  1  0
 52 54  2  0
 55 56  1  0
 55 61  1  0
 56 57  1  0
 56 59  1  6
 57 58  2  0
 57 62  1  0
 59 60  1  0
 60 61  1  0
 62 63  1  0
 62 68  1  0
 63 64  1  0
 63 66  1  6
 64 65  2  0
 64 69  1  0
 66 67  1  0
 67 68  1  0
 70 69  1  1
 70 71  1  0
 70 73  1  0
 71 72  2  0
 71 77  1  0
 73 74  1  0
 73 75  1  6
 74 76  1  0
 78 77  1  1
 78 79  1  0
 78 81  1  0
 79 80  2  0
 79 83  1  0
 81 82  1  0
 83 84  1  0
 84 85  1  0
 84 87  1  1
 85 86  2  0
 85 94  1  0
 87 88  1  0
 88 89  2  0
 88 90  1  0
 89 91  1  0
 90 92  2  0
 91 93  2  0
 92 93  1  0
 94 95  1  0
 94100  1  0
 95 96  1  0
 95 98  1  6
 96 97  2  0
 96101  1  0
 98 99  1  0
 99100  1  0
101102  1  0
102103  1  0
102105  1  6
103104  2  0
105106  1  0
106107  1  0
106108  2  0
 15110  1  0
 54111  1  0
M  CHG  1  37   1
M  END
$$$$
