
     RDKit          3D

111117  0  0  0  0  0  0  0  0999 V2000
   -7.7739    8.8786   38.9003 N   0  0  0  0  0  0  0  0  0  0  0  0
   -7.3127    8.2966   37.7728 C   0  0  2  0  0  0  0  0  0  0  0  0
   -6.3172    9.0573   37.0006 C   0  0  0  0  0  0  0  0  0  0  0  0
   -5.8656   10.0726   37.6627 O   0  0  0  0  0  0  0  0  0  0  0  0
   -5.8078    8.8522   35.7174 N   0  0  0  0  0  0  0  0  0  0  0  0
   -6.4908    8.7253   34.4626 C   0  0  2  0  0  0  0  0  0  0  0  0
   -7.6014    9.6801   34.2523 C   0  0  0  0  0  0  0  0  0  0  0  0
   -8.6894    9.3334   34.8507 O   0  0  0  0  0  0  0  0  0  0  0  0
   -6.9497    7.3364   34.1062 C   0  0  0  0  0  0  0  0  0  0  0  0
   -6.2541    6.1950   34.7130 C   0  0  0  0  0  0  0  0  0  0  0  0
   -6.4047    5.9167   36.1582 C   0  0  0  0  0  0  0  0  0  0  0  0
   -7.2505    4.7657   36.4412 N   0  0  0  0  0  0  0  0  0  0  0  0
   -6.8212    3.6624   37.2218 C   0  0  0  0  0  0  0  0  0  0  0  0
   -5.9238    2.6570   36.7708 N   0  0  0  0  0  0  0  0  0  0  0  0
   -7.3106    3.6022   38.4286 N   0  0  0  0  0  0  0  0  0  0  0  0
   -7.6388   10.8652   33.5178 N   0  0  0  0  0  0  0  0  0  0  0  0
   -6.6859   11.8949   33.2894 C   0  0  2  0  0  0  0  0  0  0  0  0
   -6.0590   11.9175   31.9424 C   0  0  0  0  0  0  0  0  0  0  0  0
   -4.8019   12.1819   31.8737 O   0  0  0  0  0  0  0  0  0  0  0  0
   -5.5596   11.9856   34.3134 C   0  0  0  0  0  0  0  0  0  0  0  0
   -6.0912   12.7959   35.8169 S   0  0  0  0  0  0  0  0  0  0  0  0
   -6.6959   11.6812   30.7069 N   0  0  0  0  0  0  0  0  0  0  0  0
   -7.3262   10.4735   30.2526 C   0  0  2  0  0  0  0  0  0  0  0  0
   -6.4997    9.5804   29.4245 C   0  0  0  0  0  0  0  0  0  0  0  0
   -6.6238    8.3238   29.6615 O   0  0  0  0  0  0  0  0  0  0  0  0
   -8.6254   10.8439   29.5509 C   0  0  2  0  0  0  0  0  0  0  0  0
   -8.3200   11.7329   28.5350 O   0  0  0  0  0  0  0  0  0  0  0  0
   -9.6259   11.4051   30.5320 C   0  0  0  0  0  0  0  0  0  0  0  0
   -5.5936    9.9257   28.4039 N   0  0  0  0  0  0  0  0  0  0  0  0
   -4.6382   10.9808   28.3565 C   0  0  2  0  0  0  0  0  0  0  0  0
   -5.0474   11.8584   27.1812 C   0  0  0  0  0  0  0  0  0  0  0  0
   -6.3194   12.0183   27.0087 O   0  0  0  0  0  0  0  0  0  0  0  0
   -3.1913   10.6342   28.2761 C   0  0  0  0  0  0  0  0  0  0  0  0
   -2.7979    9.2123   28.2299 C   0  0  0  0  0  0  0  0  0  0  0  0
   -3.7605    8.1261   28.0246 C   0  0  0  0  0  0  0  0  0  0  0  0
   -5.1229    8.2828   28.6269 C   0  0  0  0  0  0  0  0  0  0  0  0
   -6.1214    7.3237   28.2891 N   0  0  0  0  0  4  0  0  0  0  0  0
   -4.2297   12.5013   26.2755 N   0  0  0  0  0  0  0  0  0  0  0  0
   -3.1908   13.5123   26.5189 C   0  0  2  0  0  0  0  0  0  0  0  0
   -3.3920   14.3011   27.7385 C   0  0  0  0  0  0  0  0  0  0  0  0
   -4.6289   14.6312   27.9412 O   0  0  0  0  0  0  0  0  0  0  0  0
   -3.2098   14.4136   25.2698 C   0  0  0  0  0  0  0  0  0  0  0  0
   -4.4065   15.1475   25.2416 O   0  0  0  0  0  0  0  0  0  0  0  0
   -2.4629   14.7403   28.6959 N   0  0  0  0  0  0  0  0  0  0  0  0
   -1.2905   15.6008   28.4684 C   0  0  2  0  0  0  0  0  0  0  0  0
   -1.6401   16.9993   28.2267 C   0  0  0  0  0  0  0  0  0  0  0  0
   -2.3364   17.2685   27.1844 O   0  0  0  0  0  0  0  0  0  0  0  0
   -0.2681   14.9395   27.6451 C   0  0  0  0  0  0  0  0  0  0  0  0
    1.0267   14.5154   28.2198 C   0  0  0  0  0  0  0  0  0  0  0  0
    1.8986   15.5694   28.7954 C   0  0  0  0  0  0  0  0  0  0  0  0
    2.9922   15.8918   27.9073 N   0  0  0  0  0  0  0  0  0  0  0  0
    3.9496   16.9038   28.1645 C   0  0  0  0  0  0  0  0  0  0  0  0
    4.2561   17.3021   29.5190 N   0  0  0  0  0  0  0  0  0  0  0  0
    4.5477   17.4615   27.1749 N   0  0  0  0  0  0  0  0  0  0  0  0
   -1.2954   18.1060   29.0237 N   0  0  0  0  0  0  0  0  0  0  0  0
   -1.2180   18.1284   30.4772 C   0  0  2  0  0  0  0  0  0  0  0  0
   -1.9665   19.2361   31.1120 C   0  0  0  0  0  0  0  0  0  0  0  0
   -1.2478   19.9257   31.9536 O   0  0  0  0  0  0  0  0  0  0  0  0
    0.2998   18.4797   30.5535 C   0  0  0  0  0  0  0  0  0  0  0  0
    0.3088   19.6789   29.5913 C   0  0  0  0  0  0  0  0  0  0  0  0
   -0.9108   19.4679   28.6744 C   0  0  0  0  0  0  0  0  0  0  0  0
   -3.2852   19.6428   30.9503 N   0  0  0  0  0  0  0  0  0  0  0  0
   -4.5198   18.9340   31.1954 C   0  0  2  0  0  0  0  0  0  0  0  0
   -4.4888   17.6690   31.8643 C   0  0  0  0  0  0  0  0  0  0  0  0
   -4.0649   16.6413   31.2941 O   0  0  0  0  0  0  0  0  0  0  0  0
   -5.0685   18.9309   29.7686 C   0  0  0  0  0  0  0  0  0  0  0  0
   -4.7845   20.3951   29.3930 C   0  0  0  0  0  0  0  0  0  0  0  0
   -3.8553   20.9302   30.4941 C   0  0  0  0  0  0  0  0  0  0  0  0
   -4.9396   17.5185   33.2111 N   0  0  0  0  0  0  0  0  0  0  0  0
   -4.6798   18.4362   34.2911 C   0  0  2  0  0  0  0  0  0  0  0  0
   -3.7575   17.9025   35.3252 C   0  0  0  0  0  0  0  0  0  0  0  0
   -2.5513   18.3658   35.2895 O   0  0  0  0  0  0  0  0  0  0  0  0
   -5.9386   19.0040   34.9324 C   0  0  2  0  0  0  0  0  0  0  0  0
   -7.0863   18.0447   34.9670 C   0  0  0  0  0  0  0  0  0  0  0  0
   -6.3479   20.2913   34.1803 C   0  0  0  0  0  0  0  0  0  0  0  0
   -6.6892   16.7418   34.3129 C   0  0  0  0  0  0  0  0  0  0  0  0
   -4.0386   16.9628   36.3297 N   0  0  0  0  0  0  0  0  0  0  0  0
   -4.5505   15.6259   36.2228 C   0  0  2  0  0  0  0  0  0  0  0  0
   -5.9125   15.4050   36.7374 C   0  0  0  0  0  0  0  0  0  0  0  0
   -6.8312   15.5205   35.8083 O   0  0  0  0  0  0  0  0  0  0  0  0
   -3.6209   14.6221   36.9316 C   0  0  0  0  0  0  0  0  0  0  0  0
   -4.4229   13.0107   37.1131 S   0  0  0  0  0  0  0  0  0  0  0  0
   -6.3355   15.0994   38.0383 N   0  0  0  0  0  0  0  0  0  0  0  0
   -5.9799   15.7239   39.2939 C   0  0  2  0  0  0  0  0  0  0  0  0
   -5.7362   14.8351   40.4125 C   0  0  0  0  0  0  0  0  0  0  0  0
   -4.4859   14.3330   40.3653 O   0  0  0  0  0  0  0  0  0  0  0  0
   -6.7365   17.0001   39.5117 C   0  0  0  0  0  0  0  0  0  0  0  0
   -6.8588   17.9169   38.3835 C   0  0  0  0  0  0  0  0  0  0  0  0
   -7.5584   19.1199   38.4709 C   0  0  0  0  0  0  0  0  0  0  0  0
   -6.3172   17.6006   37.1628 C   0  0  0  0  0  0  0  0  0  0  0  0
   -7.7114   19.9713   37.3933 C   0  0  0  0  0  0  0  0  0  0  0  0
   -6.4572   18.4386   36.0646 C   0  0  0  0  0  0  0  0  0  0  0  0
   -7.1592   19.6345   36.1784 C   0  0  0  0  0  0  0  0  0  0  0  0
   -6.4155   14.3386   41.5397 N   0  0  0  0  0  0  0  0  0  0  0  0
   -7.5306   13.4435   41.6364 C   0  0  2  0  0  0  0  0  0  0  0  0
   -8.2019   12.9907   40.4501 C   0  0  0  0  0  0  0  0  0  0  0  0
   -8.9848   13.8061   39.8450 O   0  0  0  0  0  0  0  0  0  0  0  0
   -8.4255   14.0356   42.6832 C   0  0  0  0  0  0  0  0  0  0  0  0
   -7.4574   14.7629   43.5715 C   0  0  0  0  0  0  0  0  0  0  0  0
   -6.0949   14.5299   42.9863 C   0  0  0  0  0  0  0  0  0  0  0  0
   -8.0151   11.6713   39.9504 N   0  0  0  0  0  0  0  0  0  0  0  0
   -8.0994   10.4902   40.7819 C   0  0  2  0  0  0  0  0  0  0  0  0
   -7.4162    9.2921   40.1711 C   0  0  0  0  0  0  0  0  0  0  0  0
   -6.5564    8.7982   40.9549 O   0  0  0  0  0  0  0  0  0  0  0  0
   -9.5940   10.1201   40.7531 C   0  0  0  0  0  0  0  0  0  0  0  0
   -9.9419    9.0819   41.7213 C   0  0  0  0  0  0  0  0  0  0  0  0
   -9.0778    8.1637   42.2921 O   0  0  0  0  0  0  0  0  0  0  0  0
  -11.1425    8.9968   42.0881 O   0  0  0  0  0  0  0  0  0  0  0  0
   -8.6816    8.6906   37.7801 O   0  0  0  0  0  0  0  0  0  0  0  0
   -7.2924    2.7194   38.9971 H   0  0  0  0  0  0  0  0  0  0  0  0
    5.2968   18.1565   27.2799 H   0  0  0  0  0  0  0  0  0  0  0  0
  1  2  1  0
  1103  1  0
  1109  1  0
  2  3  1  0
  2109  1  6
  3  4  2  0
  3  5  1  0
  5  6  1  0
  6  7  1  0
  6  9  1  1
  7  8  2  0
  7 16  1  0
  9 10  1  0
 10 11  1  0
 11 12  1  0
 12 13  1  0
 13 14  1  0
 13 15  2  0
 17 16  1  1
 17 18  1  0
 17 20  1  0
 18 19  2  0
 18 22  1  0
 20 21  1  0
 21 82  1  0
 23 22  1  6
 23 24  1  0
 23 26  1  0
 24 25  2  0
 24 29  1  0
 26 27  1  0
 26 28  1  1
 29 30  1  0
 30 31  1  0
 30 33  1  6
 31 32  2  0
 31 38  1  0
 33 34  1  0
 34 35  1  0
 35 36  1  0
 36 37  1  0
 38 39  1  0
 39 40  1  0
 39 42  1  6
 40 41  2  0
 40 44  1  0
 42 43  1  0
 44 45  1  0
 45 46  1  0
 45 48  1  6
 46 47  2  0
 46 55  1  0
 48 49  1  0
 49 50  1  0
 50 51  1  0
 51 52  1  0
 52 53  1  0
 52 54  2  0
 55 56  1  0
 55 61  1  0
 56 57  1  0
 56 59  1  6
 57 58  2  0
 57 62  1  0
 59 60  1  0
 60 61  1  0
 62 63  1  0
 62 68  1  0
 63 64  1  0
 63 66  1  6
 64 65  2  0
 64 69  1  0
 66 67  1  0
 67 68  1  0
 70 69  1  6
 70 71  1  0
 70 73  1  0
 71 72  2  0
 71 77  1  0
 73 74  1  0
 73 75  1  6
 74 76  1  0
 78 77  1  1
 78 79  1  0
 78 81  1  0
 79 80  2  0
 79 83  1  0
 81 82  1  0
 83 84  1  0
 84 85  1  0
 84 87  1  1
 85 86  2  0
 85 94  1  0
 87 88  1  0
 88 89  2  0
 88 90  1  0
 89 91  1  0
 90 92  2  0
 91 93  2  0
 92 93  1  0
 94 95  1  0
 94100  1  0
 95 96  1  0
 95 98  1  1
 96 97  2  0
 96101  1  0
 98 99  1  0
 99100  1  0
101102  1  0
102103  1  0
102105  1  6
103104  2  0
105106  1  0
106107  1  0
106108  2  0
 15110  1  0
 54111  1  0
M  CHG  1  37   1
M  END
$$$$
