
     RDKit          3D

111117  0  0  0  0  0  0  0  0999 V2000
   -8.7988   12.2042   39.5855 N   0  0  0  0  0  0  0  0  0  0  0  0
   -7.8151   11.4397   39.0655 C   0  0  2  0  0  0  0  0  0  0  0  0
   -6.8026   12.1343   38.2541 C   0  0  0  0  0  0  0  0  0  0  0  0
   -6.8912   13.4197   38.3680 O   0  0  0  0  0  0  0  0  0  0  0  0
   -5.8023   11.6332   37.4195 N   0  0  0  0  0  0  0  0  0  0  0  0
   -5.8948   10.7395   36.3016 C   0  0  2  0  0  0  0  0  0  0  0  0
   -7.0242   10.9987   35.3815 C   0  0  0  0  0  0  0  0  0  0  0  0
   -8.1472   10.5353   35.8126 O   0  0  0  0  0  0  0  0  0  0  0  0
   -5.8453    9.2716   36.6330 C   0  0  0  0  0  0  0  0  0  0  0  0
   -4.5747    8.7050   37.1014 C   0  0  0  0  0  0  0  0  0  0  0  0
   -4.5290    7.3266   37.6366 C   0  0  0  0  0  0  0  0  0  0  0  0
   -3.2920    6.6249   37.3243 N   0  0  0  0  0  0  0  0  0  0  0  0
   -3.0522    5.2766   37.6926 C   0  0  0  0  0  0  0  0  0  0  0  0
   -3.0157    4.8015   39.0315 N   0  0  0  0  0  0  0  0  0  0  0  0
   -2.8526    4.4501   36.7045 N   0  0  0  0  0  0  0  0  0  0  0  0
   -7.0456   11.6512   34.1489 N   0  0  0  0  0  0  0  0  0  0  0  0
   -6.3444   12.7756   33.6346 C   0  0  2  0  0  0  0  0  0  0  0  0
   -5.2671   12.4810   32.6546 C   0  0  0  0  0  0  0  0  0  0  0  0
   -4.1799   13.1634   32.7399 O   0  0  0  0  0  0  0  0  0  0  0  0
   -5.7584   13.7180   34.6804 C   0  0  0  0  0  0  0  0  0  0  0  0
   -7.0037   14.7983   35.3745 S   0  0  0  0  0  0  0  0  0  0  0  0
   -5.3007   11.5236   31.6201 N   0  0  0  0  0  0  0  0  0  0  0  0
   -5.4079   10.0964   31.7379 C   0  0  2  0  0  0  0  0  0  0  0  0
   -4.1428    9.3446   31.7083 C   0  0  0  0  0  0  0  0  0  0  0  0
   -4.0556    8.3635   32.5331 O   0  0  0  0  0  0  0  0  0  0  0  0
   -6.3798    9.5981   30.6774 C   0  0  2  0  0  0  0  0  0  0  0  0
   -7.5264   10.3694   30.7572 O   0  0  0  0  0  0  0  0  0  0  0  0
   -6.6579    8.1249   30.8519 C   0  0  0  0  0  0  0  0  0  0  0  0
   -3.0176    9.5601   30.8900 N   0  0  0  0  0  0  0  0  0  0  0  0
   -2.3903   10.7815   30.5119 C   0  0  2  0  0  0  0  0  0  0  0  0
   -2.5013   10.8525   28.9948 C   0  0  0  0  0  0  0  0  0  0  0  0
   -3.6059   10.4119   28.4857 O   0  0  0  0  0  0  0  0  0  0  0  0
   -0.9884   11.0325   30.9496 C   0  0  0  0  0  0  0  0  0  0  0  0
   -0.6989   11.1452   32.3926 C   0  0  0  0  0  0  0  0  0  0  0  0
   -1.3689   10.3246   33.4055 C   0  0  0  0  0  0  0  0  0  0  0  0
   -1.2677    8.8363   33.2712 C   0  0  0  0  0  0  0  0  0  0  0  0
   -0.0175    8.2185   33.5647 N   0  0  0  0  0  4  0  0  0  0  0  0
   -1.5683   11.3250   28.0957 N   0  0  0  0  0  0  0  0  0  0  0  0
   -0.9693   12.6638   27.9984 C   0  0  2  0  0  0  0  0  0  0  0  0
   -1.8046   13.7384   28.5439 C   0  0  0  0  0  0  0  0  0  0  0  0
   -3.0629   13.6072   28.2623 O   0  0  0  0  0  0  0  0  0  0  0  0
   -0.7089   12.8768   26.4951 C   0  0  0  0  0  0  0  0  0  0  0  0
    0.3726   13.7566   26.3287 O   0  0  0  0  0  0  0  0  0  0  0  0
   -1.4491   14.8616   29.3087 N   0  0  0  0  0  0  0  0  0  0  0  0
   -0.5133   15.9338   28.9326 C   0  0  2  0  0  0  0  0  0  0  0  0
   -1.0540   16.8432   27.9240 C   0  0  0  0  0  0  0  0  0  0  0  0
   -1.3323   16.3575   26.7707 O   0  0  0  0  0  0  0  0  0  0  0  0
    0.8712   15.4511   28.8293 C   0  0  0  0  0  0  0  0  0  0  0  0
    1.4910   15.1668   27.5171 C   0  0  0  0  0  0  0  0  0  0  0  0
    2.9682   15.2709   27.4204 C   0  0  0  0  0  0  0  0  0  0  0  0
    3.3745   15.8485   26.1595 N   0  0  0  0  0  0  0  0  0  0  0  0
    4.4500   15.3631   25.3757 C   0  0  0  0  0  0  0  0  0  0  0  0
    4.5570   15.7067   23.9765 N   0  0  0  0  0  0  0  0  0  0  0  0
    5.3352   14.6148   25.9278 N   0  0  0  0  0  0  0  0  0  0  0  0
   -1.3114   18.2176   28.0773 N   0  0  0  0  0  0  0  0  0  0  0  0
   -1.8122   18.8702   29.2783 C   0  0  2  0  0  0  0  0  0  0  0  0
   -2.9822   19.7484   29.0541 C   0  0  0  0  0  0  0  0  0  0  0  0
   -2.8270   20.9461   29.5456 O   0  0  0  0  0  0  0  0  0  0  0  0
   -0.5689   19.7867   29.4956 C   0  0  0  0  0  0  0  0  0  0  0  0
   -0.4637   20.3743   28.0786 C   0  0  0  0  0  0  0  0  0  0  0  0
   -1.1469   19.3409   27.1631 C   0  0  0  0  0  0  0  0  0  0  0  0
   -4.1895   19.4965   28.4144 N   0  0  0  0  0  0  0  0  0  0  0  0
   -5.2226   18.5316   28.7117 C   0  0  2  0  0  0  0  0  0  0  0  0
   -5.1629   17.7839   29.9307 C   0  0  0  0  0  0  0  0  0  0  0  0
   -4.3262   16.8706   30.0939 O   0  0  0  0  0  0  0  0  0  0  0  0
   -5.1571   17.7207   27.4175 C   0  0  0  0  0  0  0  0  0  0  0  0
   -5.0957   18.8775   26.4057 C   0  0  0  0  0  0  0  0  0  0  0  0
   -4.8180   20.1391   27.2384 C   0  0  0  0  0  0  0  0  0  0  0  0
   -6.0536   18.0427   31.0167 N   0  0  0  0  0  0  0  0  0  0  0  0
   -6.4531   19.3462   31.4828 C   0  0  2  0  0  0  0  0  0  0  0  0
   -5.9090   19.7005   32.8181 C   0  0  0  0  0  0  0  0  0  0  0  0
   -4.9259   20.5399   32.8152 O   0  0  0  0  0  0  0  0  0  0  0  0
   -7.9563   19.5836   31.4326 C   0  0  2  0  0  0  0  0  0  0  0  0
   -8.3919   20.4736   30.3115 C   0  0  0  0  0  0  0  0  0  0  0  0
   -8.4165   20.1737   32.7855 C   0  0  0  0  0  0  0  0  0  0  0  0
   -7.2618   21.3953   29.9160 C   0  0  0  0  0  0  0  0  0  0  0  0
   -6.3332   19.2364   34.0734 N   0  0  0  0  0  0  0  0  0  0  0  0
   -6.4399   17.8940   34.5710 C   0  0  2  0  0  0  0  0  0  0  0  0
   -7.8038   17.3913   34.8063 C   0  0  0  0  0  0  0  0  0  0  0  0
   -8.2891   16.7389   33.7769 O   0  0  0  0  0  0  0  0  0  0  0  0
   -5.6544   17.7305   35.8864 C   0  0  0  0  0  0  0  0  0  0  0  0
   -6.0685   16.1687   36.7002 S   0  0  0  0  0  0  0  0  0  0  0  0
   -8.6161   17.5147   35.9420 N   0  0  0  0  0  0  0  0  0  0  0  0
   -8.9308   18.6884   36.7272 C   0  0  2  0  0  0  0  0  0  0  0  0
   -8.9428   18.5197   38.1666 C   0  0  0  0  0  0  0  0  0  0  0  0
   -7.6933   18.5796   38.6691 O   0  0  0  0  0  0  0  0  0  0  0  0
   -9.9848   19.5283   36.0699 C   0  0  0  0  0  0  0  0  0  0  0  0
   -9.7401   20.9626   35.9633 C   0  0  0  0  0  0  0  0  0  0  0  0
   -8.6222   21.5738   36.5298 C   0  0  0  0  0  0  0  0  0  0  0  0
  -10.6405   21.7809   35.3284 C   0  0  0  0  0  0  0  0  0  0  0  0
   -8.4080   22.9375   36.4665 C   0  0  0  0  0  0  0  0  0  0  0  0
  -10.4488   23.1539   35.2516 C   0  0  0  0  0  0  0  0  0  0  0  0
   -9.3238   23.7393   35.8241 C   0  0  0  0  0  0  0  0  0  0  0  0
   -9.8722   18.3135   39.2021 N   0  0  0  0  0  0  0  0  0  0  0  0
  -10.6980   17.1812   39.5016 C   0  0  2  0  0  0  0  0  0  0  0  0
  -10.7315   16.0531   38.6131 C   0  0  0  0  0  0  0  0  0  0  0  0
  -11.3830   16.1629   37.5143 O   0  0  0  0  0  0  0  0  0  0  0  0
  -12.0396   17.7499   39.8533 C   0  0  0  0  0  0  0  0  0  0  0  0
  -11.6889   19.0961   40.4192 C   0  0  0  0  0  0  0  0  0  0  0  0
  -10.1923   19.1974   40.3633 C   0  0  0  0  0  0  0  0  0  0  0  0
  -10.0664   14.8366   38.9341 N   0  0  0  0  0  0  0  0  0  0  0  0
  -10.1921   14.1800   40.2173 C   0  0  2  0  0  0  0  0  0  0  0  0
   -9.0689   13.2119   40.4941 C   0  0  0  0  0  0  0  0  0  0  0  0
   -8.4924   13.4703   41.5889 O   0  0  0  0  0  0  0  0  0  0  0  0
  -11.4288   13.2769   40.0542 C   0  0  0  0  0  0  0  0  0  0  0  0
  -11.8335   12.6351   41.3034 C   0  0  0  0  0  0  0  0  0  0  0  0
  -11.2182   11.5555   41.9129 O   0  0  0  0  0  0  0  0  0  0  0  0
  -12.8397   13.0948   41.9030 O   0  0  0  0  0  0  0  0  0  0  0  0
   -9.1301   11.2279   38.5602 O   0  0  0  0  0  0  0  0  0  0  0  0
   -2.4470    4.7612   35.7871 H   0  0  0  0  0  0  0  0  0  0  0  0
    5.1884   13.6207   26.1413 H   0  0  0  0  0  0  0  0  0  0  0  0
  1  2  1  0
  1103  1  0
  1109  1  0
  2  3  1  0
  2109  1  6
  3  4  2  0
  3  5  1  0
  5  6  1  0
  6  7  1  0
  6  9  1  1
  7  8  2  0
  7 16  1  0
  9 10  1  0
 10 11  1  0
 11 12  1  0
 12 13  1  0
 13 14  1  0
 13 15  2  0
 17 16  1  1
 17 18  1  0
 17 20  1  0
 18 19  2  0
 18 22  1  0
 20 21  1  0
 21 82  1  0
 23 22  1  6
 23 24  1  0
 23 26  1  0
 24 25  2  0
 24 29  1  0
 26 27  1  0
 26 28  1  1
 29 30  1  0
 30 31  1  0
 30 33  1  6
 31 32  2  0
 31 38  1  0
 33 34  1  0
 34 35  1  0
 35 36  1  0
 36 37  1  0
 38 39  1  0
 39 40  1  0
 39 42  1  6
 40 41  2  0
 40 44  1  0
 42 43  1  0
 44 45  1  0
 45 46  1  0
 45 48  1  6
 46 47  2  0
 46 55  1  0
 48 49  1  0
 49 50  1  0
 50 51  1  0
 51 52  1  0
 52 53  1  0
 52 54  2  0
 55 56  1  0
 55 61  1  0
 56 57  1  0
 56 59  1  6
 57 58  2  0
 57 62  1  0
 59 60  1  0
 60 61  1  0
 62 63  1  0
 62 68  1  0
 63 64  1  0
 63 66  1  6
 64 65  2  0
 64 69  1  0
 66 67  1  0
 67 68  1  0
 70 69  1  1
 70 71  1  0
 70 73  1  0
 71 72  2  0
 71 77  1  0
 73 74  1  0
 73 75  1  1
 74 76  1  0
 78 77  1  1
 78 79  1  0
 78 81  1  0
 79 80  2  0
 79 83  1  0
 81 82  1  0
 83 84  1  0
 84 85  1  0
 84 87  1  6
 85 86  2  0
 85 94  1  0
 87 88  1  0
 88 89  2  0
 88 90  1  0
 89 91  1  0
 90 92  2  0
 91 93  2  0
 92 93  1  0
 94 95  1  0
 94100  1  0
 95 96  1  0
 95 98  1  6
 96 97  2  0
 96101  1  0
 98 99  1  0
 99100  1  0
101102  1  0
102103  1  0
102105  1  6
103104  2  0
105106  1  0
106107  1  0
106108  2  0
 15110  1  0
 54111  1  0
M  CHG  1  37   1
M  END
$$$$
