
     RDKit          3D

111117  0  0  0  0  0  0  0  0999 V2000
   -6.0274    7.6200   38.5928 N   0  0  0  0  0  0  0  0  0  0  0  0
   -5.0839    7.4779   37.6377 C   0  0  2  0  0  0  0  0  0  0  0  0
   -4.5277    8.7183   37.0738 C   0  0  0  0  0  0  0  0  0  0  0  0
   -4.8702    9.7580   37.7629 O   0  0  0  0  0  0  0  0  0  0  0  0
   -3.7176    8.9292   35.9569 N   0  0  0  0  0  0  0  0  0  0  0  0
   -3.9168    8.5515   34.5877 C   0  0  2  0  0  0  0  0  0  0  0  0
   -5.2883    8.7573   34.0721 C   0  0  0  0  0  0  0  0  0  0  0  0
   -6.1076    7.8255   34.4220 O   0  0  0  0  0  0  0  0  0  0  0  0
   -3.4433    7.1717   34.2153 C   0  0  0  0  0  0  0  0  0  0  0  0
   -1.9983    6.9147   34.1861 C   0  0  0  0  0  0  0  0  0  0  0  0
   -1.4116    5.8742   35.0589 C   0  0  0  0  0  0  0  0  0  0  0  0
   -1.6444    6.1091   36.4770 N   0  0  0  0  0  0  0  0  0  0  0  0
   -1.0390    5.3356   37.4998 C   0  0  0  0  0  0  0  0  0  0  0  0
   -1.7433    4.4670   38.3767 N   0  0  0  0  0  0  0  0  0  0  0  0
    0.2535    5.4630   37.6116 N   0  0  0  0  0  0  0  0  0  0  0  0
   -5.8051    9.7840   33.2820 N   0  0  0  0  0  0  0  0  0  0  0  0
   -5.5527   11.1816   33.2212 C   0  0  2  0  0  0  0  0  0  0  0  0
   -4.7589   11.6517   32.0564 C   0  0  0  0  0  0  0  0  0  0  0  0
   -3.8769   12.5646   32.2648 O   0  0  0  0  0  0  0  0  0  0  0  0
   -4.9252   11.7900   34.4707 C   0  0  0  0  0  0  0  0  0  0  0  0
   -6.1350   12.0537   35.7616 S   0  0  0  0  0  0  0  0  0  0  0  0
   -4.8652   11.2063   30.7228 N   0  0  0  0  0  0  0  0  0  0  0  0
   -4.6073    9.8918   30.2054 C   0  0  2  0  0  0  0  0  0  0  0  0
   -3.2658    9.6658   29.6432 C   0  0  0  0  0  0  0  0  0  0  0  0
   -2.7283    8.5315   29.9168 O   0  0  0  0  0  0  0  0  0  0  0  0
   -5.6995    9.5471   29.2025 C   0  0  2  0  0  0  0  0  0  0  0  0
   -5.2548    9.9207   27.9461 O   0  0  0  0  0  0  0  0  0  0  0  0
   -7.0030   10.2095   29.5776 C   0  0  0  0  0  0  0  0  0  0  0  0
   -2.4977   10.5313   28.8413 N   0  0  0  0  0  0  0  0  0  0  0  0
   -2.2977   11.9367   28.9553 C   0  0  2  0  0  0  0  0  0  0  0  0
   -2.8462   12.5394   27.6690 C   0  0  0  0  0  0  0  0  0  0  0  0
   -3.9194   11.9914   27.1984 O   0  0  0  0  0  0  0  0  0  0  0  0
   -0.9246   12.4450   29.2313 C   0  0  0  0  0  0  0  0  0  0  0  0
    0.1918   11.4826   29.3112 C   0  0  0  0  0  0  0  0  0  0  0  0
    0.0902   10.1034   28.8256 C   0  0  0  0  0  0  0  0  0  0  0  0
   -0.3068    9.8982   27.3960 C   0  0  0  0  0  0  0  0  0  0  0  0
    0.0357    8.6624   26.7742 N   0  0  0  0  0  4  0  0  0  0  0  0
   -2.3384   13.5953   26.9412 N   0  0  0  0  0  0  0  0  0  0  0  0
   -2.1122   14.9861   27.3595 C   0  0  2  0  0  0  0  0  0  0  0  0
   -2.9806   15.4353   28.4523 C   0  0  0  0  0  0  0  0  0  0  0  0
   -4.2030   15.0180   28.3446 O   0  0  0  0  0  0  0  0  0  0  0  0
   -2.3430   15.8278   26.0902 C   0  0  0  0  0  0  0  0  0  0  0  0
   -3.5997   16.4496   26.1643 O   0  0  0  0  0  0  0  0  0  0  0  0
   -2.6884   16.2318   29.5716 N   0  0  0  0  0  0  0  0  0  0  0  0
   -2.1665   17.6082   29.5720 C   0  0  2  0  0  0  0  0  0  0  0  0
   -3.1622   18.6024   29.1762 C   0  0  0  0  0  0  0  0  0  0  0  0
   -3.6373   18.5304   27.9876 O   0  0  0  0  0  0  0  0  0  0  0  0
   -0.7958   17.6821   29.0464 C   0  0  0  0  0  0  0  0  0  0  0  0
   -0.3567   16.8307   27.9199 C   0  0  0  0  0  0  0  0  0  0  0  0
   -1.1954   15.6533   27.5838 C   0  0  0  0  0  0  0  0  0  0  0  0
   -2.2341   15.9982   26.6400 N   0  0  0  0  0  0  0  0  0  0  0  0
   -2.0362   16.0819   25.2398 C   0  0  0  0  0  0  0  0  0  0  0  0
   -3.0957   15.7297   24.3228 N   0  0  0  0  0  0  0  0  0  0  0  0
   -0.9004   16.4810   24.7938 N   0  0  0  0  0  0  0  0  0  0  0  0
   -3.6712   19.6490   29.9663 N   0  0  0  0  0  0  0  0  0  0  0  0
   -3.9466   19.5927   31.3947 C   0  0  2  0  0  0  0  0  0  0  0  0
   -5.3000   20.0557   31.7748 C   0  0  0  0  0  0  0  0  0  0  0  0
   -5.2887   20.9554   32.7186 O   0  0  0  0  0  0  0  0  0  0  0  0
   -2.9350   20.7089   31.7992 C   0  0  0  0  0  0  0  0  0  0  0  0
   -3.3712   21.7910   30.7978 C   0  0  0  0  0  0  0  0  0  0  0  0
   -4.0318   21.0225   29.6377 C   0  0  0  0  0  0  0  0  0  0  0  0
   -6.5487   19.6870   31.2898 N   0  0  0  0  0  0  0  0  0  0  0  0
   -7.2079   18.4018   31.2835 C   0  0  2  0  0  0  0  0  0  0  0  0
   -6.6376   17.3103   32.0129 C   0  0  0  0  0  0  0  0  0  0  0  0
   -5.6041   16.7313   31.6160 O   0  0  0  0  0  0  0  0  0  0  0  0
   -7.3285   18.2143   29.7711 C   0  0  0  0  0  0  0  0  0  0  0  0
   -7.8203   19.6204   29.3878 C   0  0  0  0  0  0  0  0  0  0  0  0
   -7.6129   20.4854   30.6412 C   0  0  0  0  0  0  0  0  0  0  0  0
   -7.2194   16.8298   33.2255 N   0  0  0  0  0  0  0  0  0  0  0  0
   -7.7562   17.6495   34.2819 C   0  0  2  0  0  0  0  0  0  0  0  0
   -6.9521   17.6253   35.5299 C   0  0  0  0  0  0  0  0  0  0  0  0
   -6.2277   18.6737   35.7472 O   0  0  0  0  0  0  0  0  0  0  0  0
   -9.2251   17.3831   34.5814 C   0  0  2  0  0  0  0  0  0  0  0  0
   -9.6634   17.8559   35.9316 C   0  0  0  0  0  0  0  0  0  0  0  0
   -9.5000   15.8686   34.4365 C   0  0  0  0  0  0  0  0  0  0  0  0
   -8.5603   17.6317   36.9395 C   0  0  0  0  0  0  0  0  0  0  0  0
   -6.8869   16.6074   36.4945 N   0  0  0  0  0  0  0  0  0  0  0  0
   -6.5405   15.2218   36.3493 C   0  0  2  0  0  0  0  0  0  0  0  0
   -7.6307   14.2519   36.5472 C   0  0  0  0  0  0  0  0  0  0  0  0
   -8.2257   13.9210   35.4260 O   0  0  0  0  0  0  0  0  0  0  0  0
   -5.3994   14.8360   37.3100 C   0  0  0  0  0  0  0  0  0  0  0  0
   -5.2002   13.0399   37.3936 S   0  0  0  0  0  0  0  0  0  0  0  0
   -8.0945   13.6610   37.7306 N   0  0  0  0  0  0  0  0  0  0  0  0
   -8.4326   14.2746   38.9964 C   0  0  2  0  0  0  0  0  0  0  0  0
   -7.9985   13.5767   40.1902 C   0  0  0  0  0  0  0  0  0  0  0  0
   -6.7056   13.8453   40.4619 O   0  0  0  0  0  0  0  0  0  0  0  0
   -9.7916   14.9073   38.9599 C   0  0  0  0  0  0  0  0  0  0  0  0
   -9.9760   16.1603   39.6840 C   0  0  0  0  0  0  0  0  0  0  0  0
  -11.1678   16.8824   39.6361 C   0  0  0  0  0  0  0  0  0  0  0  0
   -8.9494   16.7037   40.4151 C   0  0  0  0  0  0  0  0  0  0  0  0
  -11.3324   18.0901   40.2871 C   0  0  0  0  0  0  0  0  0  0  0  0
   -9.0891   17.9158   41.0778 C   0  0  0  0  0  0  0  0  0  0  0  0
  -10.2896   18.6163   41.0153 C   0  0  0  0  0  0  0  0  0  0  0  0
   -8.5248   12.7006   41.1566 N   0  0  0  0  0  0  0  0  0  0  0  0
   -8.9523   11.3373   41.0444 C   0  0  2  0  0  0  0  0  0  0  0  0
   -8.9783   10.6887   39.7631 C   0  0  0  0  0  0  0  0  0  0  0  0
   -9.9210   10.9893   38.9478 O   0  0  0  0  0  0  0  0  0  0  0  0
  -10.2323   11.2573   41.8205 C   0  0  0  0  0  0  0  0  0  0  0  0
  -10.0516   12.3209   42.8651 C   0  0  0  0  0  0  0  0  0  0  0  0
   -8.6957   12.9185   42.6247 C   0  0  0  0  0  0  0  0  0  0  0  0
   -7.9911    9.7313   39.3966 N   0  0  0  0  0  0  0  0  0  0  0  0
   -7.5962    8.6337   40.2526 C   0  0  2  0  0  0  0  0  0  0  0  0
   -6.2512    8.0576   39.8860 C   0  0  0  0  0  0  0  0  0  0  0  0
   -5.4631    8.0526   40.8742 O   0  0  0  0  0  0  0  0  0  0  0  0
   -8.5895    7.5107   39.9008 C   0  0  0  0  0  0  0  0  0  0  0  0
   -8.5113    6.3742   40.8165 C   0  0  0  0  0  0  0  0  0  0  0  0
   -7.5777    6.1873   41.8210 O   0  0  0  0  0  0  0  0  0  0  0  0
   -9.3703    5.4623   40.6986 O   0  0  0  0  0  0  0  0  0  0  0  0
   -6.4040    7.0576   37.3059 O   0  0  0  0  0  0  0  0  0  0  0  0
    0.7111    5.7687   38.5061 H   0  0  0  0  0  0  0  0  0  0  0  0
   -0.7715   16.9205   23.8744 H   0  0  0  0  0  0  0  0  0  0  0  0
  1  2  1  0
  1103  1  0
  1109  1  0
  2  3  1  0
  2109  1  6
  3  4  2  0
  3  5  1  0
  5  6  1  0
  6  7  1  0
  6  9  1  1
  7  8  2  0
  7 16  1  0
  9 10  1  0
 10 11  1  0
 11 12  1  0
 12 13  1  0
 13 14  1  0
 13 15  2  0
 17 16  1  1
 17 18  1  0
 17 20  1  0
 18 19  2  0
 18 22  1  0
 20 21  1  0
 21 82  1  0
 23 22  1  6
 23 24  1  0
 23 26  1  0
 24 25  2  0
 24 29  1  0
 26 27  1  0
 26 28  1  1
 29 30  1  0
 30 31  1  0
 30 33  1  6
 31 32  2  0
 31 38  1  0
 33 34  1  0
 34 35  1  0
 35 36  1  0
 36 37  1  0
 38 39  1  0
 39 40  1  0
 39 42  1  6
 40 41  2  0
 40 44  1  0
 42 43  1  0
 44 45  1  0
 45 46  1  0
 45 48  1  6
 46 47  2  0
 46 55  1  0
 48 49  1  0
 49 50  1  0
 50 51  1  0
 51 52  1  0
 52 53  1  0
 52 54  2  0
 55 56  1  0
 55 61  1  0
 56 57  1  0
 56 59  1  1
 57 58  2  0
 57 62  1  0
 59 60  1  0
 60 61  1  0
 62 63  1  0
 62 68  1  0
 63 64  1  0
 63 66  1  6
 64 65  2  0
 64 69  1  0
 66 67  1  0
 67 68  1  0
 70 69  1  6
 70 71  1  0
 70 73  1  0
 71 72  2  0
 71 77  1  0
 73 74  1  0
 73 75  1  1
 74 76  1  0
 78 77  1  1
 78 79  1  0
 78 81  1  0
 79 80  2  0
 79 83  1  0
 81 82  1  0
 83 84  1  0
 84 85  1  0
 84 87  1  1
 85 86  2  0
 85 94  1  0
 87 88  1  0
 88 89  2  0
 88 90  1  0
 89 91  1  0
 90 92  2  0
 91 93  2  0
 92 93  1  0
 94 95  1  0
 94100  1  0
 95 96  1  0
 95 98  1  6
 96 97  2  0
 96101  1  0
 98 99  1  0
 99100  1  0
101102  1  0
102103  1  0
102105  1  6
103104  2  0
105106  1  0
106107  1  0
106108  2  0
 15110  1  0
 54111  1  0
M  CHG  1  37   1
M  END
$$$$
