
     RDKit          3D

111117  0  0  0  0  0  0  0  0999 V2000
   -3.2969    9.3300   39.6284 N   0  0  0  0  0  0  0  0  0  0  0  0
   -2.6596    9.0456   38.4728 C   0  0  2  0  0  0  0  0  0  0  0  0
   -2.4442   10.1696   37.5475 C   0  0  0  0  0  0  0  0  0  0  0  0
   -2.6962   11.3092   38.1052 O   0  0  0  0  0  0  0  0  0  0  0  0
   -2.0230   10.1875   36.2169 N   0  0  0  0  0  0  0  0  0  0  0  0
   -2.5619    9.5174   35.0691 C   0  0  2  0  0  0  0  0  0  0  0  0
   -4.0383    9.5269   34.9715 C   0  0  0  0  0  0  0  0  0  0  0  0
   -4.6026    8.6430   35.7211 O   0  0  0  0  0  0  0  0  0  0  0  0
   -2.0529    8.1208   34.8293 C   0  0  0  0  0  0  0  0  0  0  0  0
   -2.2056    7.5438   33.4882 C   0  0  0  0  0  0  0  0  0  0  0  0
   -1.9194    8.3634   32.2904 C   0  0  0  0  0  0  0  0  0  0  0  0
   -0.7890    7.8766   31.5121 N   0  0  0  0  0  0  0  0  0  0  0  0
    0.1346    8.7372   30.8661 C   0  0  0  0  0  0  0  0  0  0  0  0
    0.2472   10.1316   31.1164 N   0  0  0  0  0  0  0  0  0  0  0  0
    0.9120    8.1703   29.9866 N   0  0  0  0  0  0  0  0  0  0  0  0
   -4.8814   10.3304   34.2040 N   0  0  0  0  0  0  0  0  0  0  0  0
   -4.8282   11.6960   33.8129 C   0  0  2  0  0  0  0  0  0  0  0  0
   -4.4677   11.9556   32.3950 C   0  0  0  0  0  0  0  0  0  0  0  0
   -3.6801   12.9430   32.1508 O   0  0  0  0  0  0  0  0  0  0  0  0
   -3.9449   12.5915   34.6749 C   0  0  0  0  0  0  0  0  0  0  0  0
   -4.7529   13.0495   36.2036 S   0  0  0  0  0  0  0  0  0  0  0  0
   -4.8999   11.2325   31.2643 N   0  0  0  0  0  0  0  0  0  0  0  0
   -4.6455    9.8561   30.9434 C   0  0  2  0  0  0  0  0  0  0  0  0
   -3.5066    9.5970   30.0477 C   0  0  0  0  0  0  0  0  0  0  0  0
   -2.7799    8.5805   30.3463 O   0  0  0  0  0  0  0  0  0  0  0  0
   -5.9308    9.2423   30.4060 C   0  0  2  0  0  0  0  0  0  0  0  0
   -5.5900    8.3671   29.3894 O   0  0  0  0  0  0  0  0  0  0  0  0
   -6.8903   10.3151   29.9511 C   0  0  0  0  0  0  0  0  0  0  0  0
   -3.1133   10.3175   28.9039 N   0  0  0  0  0  0  0  0  0  0  0  0
   -3.0604   11.7246   28.6908 C   0  0  2  0  0  0  0  0  0  0  0  0
   -4.0257   12.0076   27.5476 C   0  0  0  0  0  0  0  0  0  0  0  0
   -5.1146   11.3092   27.5387 O   0  0  0  0  0  0  0  0  0  0  0  0
   -1.7381   12.3610   28.4330 C   0  0  0  0  0  0  0  0  0  0  0  0
   -0.7940   11.7005   27.5103 C   0  0  0  0  0  0  0  0  0  0  0  0
   -1.1076   10.4518   26.8097 C   0  0  0  0  0  0  0  0  0  0  0  0
   -1.6771    9.3266   27.6177 C   0  0  0  0  0  0  0  0  0  0  0  0
   -1.1156    8.0275   27.4501 N   0  0  0  0  0  4  0  0  0  0  0  0
   -3.8813   12.9139   26.5180 N   0  0  0  0  0  0  0  0  0  0  0  0
   -3.7137   14.3727   26.5835 C   0  0  2  0  0  0  0  0  0  0  0  0
   -4.2771   14.9902   27.7883 C   0  0  0  0  0  0  0  0  0  0  0  0
   -5.4187   14.4873   28.1401 O   0  0  0  0  0  0  0  0  0  0  0  0
   -4.4014   14.9114   25.3147 C   0  0  0  0  0  0  0  0  0  0  0  0
   -5.7742   15.0734   25.5605 O   0  0  0  0  0  0  0  0  0  0  0  0
   -3.7727   16.0216   28.5972 N   0  0  0  0  0  0  0  0  0  0  0  0
   -3.4433   17.3956   28.1843 C   0  0  2  0  0  0  0  0  0  0  0  0
   -4.6235   18.2221   27.9382 C   0  0  0  0  0  0  0  0  0  0  0  0
   -5.4092   17.8719   26.9876 O   0  0  0  0  0  0  0  0  0  0  0  0
   -2.3023   17.4385   27.2587 C   0  0  0  0  0  0  0  0  0  0  0  0
   -2.1725   18.5086   26.2464 C   0  0  0  0  0  0  0  0  0  0  0  0
   -2.9783   19.7392   26.4434 C   0  0  0  0  0  0  0  0  0  0  0  0
   -2.1470   20.9213   26.4309 N   0  0  0  0  0  0  0  0  0  0  0  0
   -2.6488   22.2436   26.5122 C   0  0  0  0  0  0  0  0  0  0  0  0
   -4.0114   22.4914   26.9236 N   0  0  0  0  0  0  0  0  0  0  0  0
   -1.8729   23.2235   26.2191 N   0  0  0  0  0  0  0  0  0  0  0  0
   -5.0051   19.3799   28.6401 N   0  0  0  0  0  0  0  0  0  0  0  0
   -4.8474   19.6108   30.0687 C   0  0  2  0  0  0  0  0  0  0  0  0
   -6.0788   20.0619   30.7546 C   0  0  0  0  0  0  0  0  0  0  0  0
   -5.9043   21.1400   31.4671 O   0  0  0  0  0  0  0  0  0  0  0  0
   -3.9047   20.8457   29.9305 C   0  0  0  0  0  0  0  0  0  0  0  0
   -4.7390   21.6633   28.9308 C   0  0  0  0  0  0  0  0  0  0  0  0
   -5.6086   20.6287   28.1918 C   0  0  0  0  0  0  0  0  0  0  0  0
   -7.3602   19.5249   30.7533 N   0  0  0  0  0  0  0  0  0  0  0  0
   -7.8328   18.2303   31.1860 C   0  0  2  0  0  0  0  0  0  0  0  0
   -6.9485   17.3540   31.8924 C   0  0  0  0  0  0  0  0  0  0  0  0
   -6.0117   16.7671   31.3105 O   0  0  0  0  0  0  0  0  0  0  0  0
   -8.3615   17.7203   29.8455 C   0  0  0  0  0  0  0  0  0  0  0  0
   -9.1093   18.9813   29.3805 C   0  0  0  0  0  0  0  0  0  0  0  0
   -8.6548   20.1028   30.3281 C   0  0  0  0  0  0  0  0  0  0  0  0
   -7.0927   17.1072   33.2916 N   0  0  0  0  0  0  0  0  0  0  0  0
   -7.3966   18.0983   34.2924 C   0  0  2  0  0  0  0  0  0  0  0  0
   -6.2695   18.3868   35.2149 C   0  0  0  0  0  0  0  0  0  0  0  0
   -5.6455   19.4988   35.0026 O   0  0  0  0  0  0  0  0  0  0  0  0
   -8.6728   17.8139   35.0724 C   0  0  2  0  0  0  0  0  0  0  0  0
   -9.9264   18.0615   34.2940 C   0  0  0  0  0  0  0  0  0  0  0  0
   -8.6736   18.6674   36.3616 C   0  0  0  0  0  0  0  0  0  0  0  0
   -9.5874   18.3615   32.8524 C   0  0  0  0  0  0  0  0  0  0  0  0
   -5.8059   17.6018   36.2826 N   0  0  0  0  0  0  0  0  0  0  0  0
   -5.3513   16.2402   36.2950 C   0  0  2  0  0  0  0  0  0  0  0  0
   -6.2123   15.2706   36.9930 C   0  0  0  0  0  0  0  0  0  0  0  0
   -7.0612   14.6750   36.1898 O   0  0  0  0  0  0  0  0  0  0  0  0
   -3.9434   16.1354   36.9122 C   0  0  0  0  0  0  0  0  0  0  0  0
   -3.5129   14.4128   37.2590 S   0  0  0  0  0  0  0  0  0  0  0  0
   -6.2395   14.9169   38.3491 N   0  0  0  0  0  0  0  0  0  0  0  0
   -6.2691   15.7632   39.5222 C   0  0  2  0  0  0  0  0  0  0  0  0
   -5.4276   15.3609   40.6315 C   0  0  0  0  0  0  0  0  0  0  0  0
   -4.1538   15.7578   40.4385 O   0  0  0  0  0  0  0  0  0  0  0  0
   -7.6468   16.2914   39.7896 C   0  0  0  0  0  0  0  0  0  0  0  0
   -8.3407   16.9609   38.6948 C   0  0  0  0  0  0  0  0  0  0  0  0
   -9.6773   17.3479   38.7832 C   0  0  0  0  0  0  0  0  0  0  0  0
   -7.7030   17.1977   37.5028 C   0  0  0  0  0  0  0  0  0  0  0  0
  -10.3497   17.9451   37.7340 C   0  0  0  0  0  0  0  0  0  0  0  0
   -8.3562   17.7955   36.4334 C   0  0  0  0  0  0  0  0  0  0  0  0
   -9.6903   18.1738   36.5476 C   0  0  0  0  0  0  0  0  0  0  0  0
   -5.5425   14.6793   41.8566 N   0  0  0  0  0  0  0  0  0  0  0  0
   -5.8160   13.3000   42.1337 C   0  0  2  0  0  0  0  0  0  0  0  0
   -6.1324   12.3946   41.0645 C   0  0  0  0  0  0  0  0  0  0  0  0
   -7.2996   12.4589   40.5377 O   0  0  0  0  0  0  0  0  0  0  0  0
   -6.7979   13.3096   43.2664 C   0  0  0  0  0  0  0  0  0  0  0  0
   -6.4531   14.5791   43.9908 C   0  0  0  0  0  0  0  0  0  0  0  0
   -5.3071   15.1924   43.2398 C   0  0  0  0  0  0  0  0  0  0  0  0
   -5.1850   11.4422   40.5947 N   0  0  0  0  0  0  0  0  0  0  0  0
   -4.4300   10.5762   41.4742 C   0  0  2  0  0  0  0  0  0  0  0  0
   -3.1888   10.0171   40.8243 C   0  0  0  0  0  0  0  0  0  0  0  0
   -2.1544   10.2685   41.5057 O   0  0  0  0  0  0  0  0  0  0  0  0
   -5.3392    9.3468   41.6573 C   0  0  0  0  0  0  0  0  0  0  0  0
   -4.8633    8.4369   42.6974 C   0  0  0  0  0  0  0  0  0  0  0  0
   -5.2967    7.1416   42.9214 O   0  0  0  0  0  0  0  0  0  0  0  0
   -3.9685    8.8516   43.4788 O   0  0  0  0  0  0  0  0  0  0  0  0
   -3.9583    8.4864   38.6460 O   0  0  0  0  0  0  0  0  0  0  0  0
    0.8864    7.1372   29.7995 H   0  0  0  0  0  0  0  0  0  0  0  0
   -1.3311   23.2808   25.3482 H   0  0  0  0  0  0  0  0  0  0  0  0
  1  2  1  0
  1103  1  0
  1109  1  0
  2  3  1  0
  2109  1  6
  3  4  2  0
  3  5  1  0
  5  6  1  0
  6  7  1  0
  6  9  1  1
  7  8  2  0
  7 16  1  0
  9 10  1  0
 10 11  1  0
 11 12  1  0
 12 13  1  0
 13 14  1  0
 13 15  2  0
 17 16  1  1
 17 18  1  0
 17 20  1  0
 18 19  2  0
 18 22  1  0
 20 21  1  0
 21 82  1  0
 23 22  1  6
 23 24  1  0
 23 26  1  0
 24 25  2  0
 24 29  1  0
 26 27  1  0
 26 28  1  6
 29 30  1  0
 30 31  1  0
 30 33  1  6
 31 32  2  0
 31 38  1  0
 33 34  1  0
 34 35  1  0
 35 36  1  0
 36 37  1  0
 38 39  1  0
 39 40  1  0
 39 42  1  6
 40 41  2  0
 40 44  1  0
 42 43  1  0
 44 45  1  0
 45 46  1  0
 45 48  1  6
 46 47  2  0
 46 55  1  0
 48 49  1  0
 49 50  1  0
 50 51  1  0
 51 52  1  0
 52 53  1  0
 52 54  2  0
 55 56  1  0
 55 61  1  0
 56 57  1  0
 56 59  1  6
 57 58  2  0
 57 62  1  0
 59 60  1  0
 60 61  1  0
 62 63  1  0
 62 68  1  0
 63 64  1  0
 63 66  1  6
 64 65  2  0
 64 69  1  0
 66 67  1  0
 67 68  1  0
 70 69  1  1
 70 71  1  0
 70 73  1  0
 71 72  2  0
 71 77  1  0
 73 74  1  0
 73 75  1  1
 74 76  1  0
 78 77  1  1
 78 79  1  0
 78 81  1  0
 79 80  2  0
 79 83  1  0
 81 82  1  0
 83 84  1  0
 84 85  1  0
 84 87  1  1
 85 86  2  0
 85 94  1  0
 87 88  1  0
 88 89  2  0
 88 90  1  0
 89 91  1  0
 90 92  2  0
 91 93  2  0
 92 93  1  0
 94 95  1  0
 94100  1  0
 95 96  1  0
 95 98  1  1
 96 97  2  0
 96101  1  0
 98 99  1  0
 99100  1  0
101102  1  0
102103  1  0
102105  1  6
103104  2  0
105106  1  0
106107  1  0
106108  2  0
 15110  1  0
 54111  1  0
M  CHG  1  37   1
M  END
$$$$
