
     RDKit          3D

111117  0  0  0  0  0  0  0  0999 V2000
   -3.1598   12.0770   40.1347 N   0  0  0  0  0  0  0  0  0  0  0  0
   -2.4757   11.5435   39.1003 C   0  0  2  0  0  0  0  0  0  0  0  0
   -2.3661   12.3714   37.8885 C   0  0  0  0  0  0  0  0  0  0  0  0
   -2.7484   13.5890   38.0993 O   0  0  0  0  0  0  0  0  0  0  0  0
   -1.9262   12.0523   36.6028 N   0  0  0  0  0  0  0  0  0  0  0  0
   -2.3702   11.0272   35.7033 C   0  0  2  0  0  0  0  0  0  0  0  0
   -3.8372   10.8494   35.6281 C   0  0  0  0  0  0  0  0  0  0  0  0
   -4.3164   10.1620   36.6078 O   0  0  0  0  0  0  0  0  0  0  0  0
   -1.7104    9.6839   35.8670 C   0  0  0  0  0  0  0  0  0  0  0  0
   -1.7296    9.0546   37.1931 C   0  0  0  0  0  0  0  0  0  0  0  0
   -1.3637    7.6291   37.3437 C   0  0  0  0  0  0  0  0  0  0  0  0
   -0.0487    7.4282   37.9359 N   0  0  0  0  0  0  0  0  0  0  0  0
    0.1625    6.6655   39.1126 C   0  0  0  0  0  0  0  0  0  0  0  0
   -0.3829    6.9817   40.3862 N   0  0  0  0  0  0  0  0  0  0  0  0
    0.9182    5.6125   38.9730 N   0  0  0  0  0  0  0  0  0  0  0  0
   -4.7482   11.3034   34.6745 N   0  0  0  0  0  0  0  0  0  0  0  0
   -4.8350   12.4969   33.9073 C   0  0  2  0  0  0  0  0  0  0  0  0
   -4.4799   12.3763   32.4695 C   0  0  0  0  0  0  0  0  0  0  0  0
   -3.7987   13.3311   31.9411 O   0  0  0  0  0  0  0  0  0  0  0  0
   -4.0679   13.6916   34.4635 C   0  0  0  0  0  0  0  0  0  0  0  0
   -4.9467   14.4790   35.8079 S   0  0  0  0  0  0  0  0  0  0  0  0
   -4.8124   11.3173   31.6001 N   0  0  0  0  0  0  0  0  0  0  0  0
   -4.4064    9.9424   31.6840 C   0  0  2  0  0  0  0  0  0  0  0  0
   -3.2309    9.5615   30.8842 C   0  0  0  0  0  0  0  0  0  0  0  0
   -2.4047    8.7578   31.4515 O   0  0  0  0  0  0  0  0  0  0  0  0
   -5.6090    9.0656   31.3637 C   0  0  2  0  0  0  0  0  0  0  0  0
   -6.7048    9.5902   32.0268 O   0  0  0  0  0  0  0  0  0  0  0  0
   -5.3402    7.6273   31.7342 C   0  0  0  0  0  0  0  0  0  0  0  0
   -2.8974    9.9618   29.5762 N   0  0  0  0  0  0  0  0  0  0  0  0
   -2.9920   11.2459   28.9676 C   0  0  2  0  0  0  0  0  0  0  0  0
   -3.9622   11.0835   27.8052 C   0  0  0  0  0  0  0  0  0  0  0  0
   -4.9696   10.2988   28.0126 O   0  0  0  0  0  0  0  0  0  0  0  0
   -1.7413   11.9202   28.5193 C   0  0  0  0  0  0  0  0  0  0  0  0
   -0.4743   11.6100   29.2102 C   0  0  0  0  0  0  0  0  0  0  0  0
   -0.3997   10.7280   30.3785 C   0  0  0  0  0  0  0  0  0  0  0  0
   -0.8524    9.3105   30.2081 C   0  0  0  0  0  0  0  0  0  0  0  0
   -0.7823    8.4424   31.3362 N   0  0  0  0  0  4  0  0  0  0  0  0
   -3.8980   11.6666   26.5569 N   0  0  0  0  0  0  0  0  0  0  0  0
   -3.8890   13.0922   26.1987 C   0  0  2  0  0  0  0  0  0  0  0  0
   -4.5361   13.9648   27.1836 C   0  0  0  0  0  0  0  0  0  0  0  0
   -5.6231   13.4640   27.6812 O   0  0  0  0  0  0  0  0  0  0  0  0
   -4.6083   13.1671   24.8386 C   0  0  0  0  0  0  0  0  0  0  0  0
   -5.6845   12.2653   24.8293 O   0  0  0  0  0  0  0  0  0  0  0  0
   -4.1593   15.2329   27.6554 N   0  0  0  0  0  0  0  0  0  0  0  0
   -3.9720   16.4579   26.8610 C   0  0  2  0  0  0  0  0  0  0  0  0
   -5.2296   17.0470   26.4049 C   0  0  0  0  0  0  0  0  0  0  0  0
   -5.9567   16.3565   25.6061 O   0  0  0  0  0  0  0  0  0  0  0  0
   -2.8264   16.3562   25.9458 C   0  0  0  0  0  0  0  0  0  0  0  0
   -1.8689   17.4716   25.7847 C   0  0  0  0  0  0  0  0  0  0  0  0
   -2.0890   18.6874   26.6067 C   0  0  0  0  0  0  0  0  0  0  0  0
   -1.7476   18.4562   27.9918 N   0  0  0  0  0  0  0  0  0  0  0  0
   -1.5627   19.4877   28.9450 C   0  0  0  0  0  0  0  0  0  0  0  0
   -0.2651   20.0946   29.1326 N   0  0  0  0  0  0  0  0  0  0  0  0
   -2.5680   19.8817   29.6395 N   0  0  0  0  0  0  0  0  0  0  0  0
   -5.7453   18.3093   26.7506 N   0  0  0  0  0  0  0  0  0  0  0  0
   -5.6380   18.9557   28.0505 C   0  0  2  0  0  0  0  0  0  0  0  0
   -6.9224   19.4492   28.5956 C   0  0  0  0  0  0  0  0  0  0  0  0
   -6.8768   20.6985   28.9663 O   0  0  0  0  0  0  0  0  0  0  0  0
   -4.8309   20.1932   27.5503 C   0  0  0  0  0  0  0  0  0  0  0  0
   -5.7307   20.5950   26.3701 C   0  0  0  0  0  0  0  0  0  0  0  0
   -6.4714   19.3045   25.9715 C   0  0  0  0  0  0  0  0  0  0  0  0
   -8.1387   18.7997   28.7667 N   0  0  0  0  0  0  0  0  0  0  0  0
   -8.4771   17.6405   29.5593 C   0  0  2  0  0  0  0  0  0  0  0  0
   -7.5163   17.1041   30.4747 C   0  0  0  0  0  0  0  0  0  0  0  0
   -6.5120   16.4793   30.0724 O   0  0  0  0  0  0  0  0  0  0  0  0
   -8.9247   16.7136   28.4291 C   0  0  0  0  0  0  0  0  0  0  0  0
   -9.7952   17.7002   27.6326 C   0  0  0  0  0  0  0  0  0  0  0  0
   -9.4802   19.0885   28.2120 C   0  0  0  0  0  0  0  0  0  0  0  0
   -7.6573   17.2547   31.8879 N   0  0  0  0  0  0  0  0  0  0  0  0
   -8.0830   18.4524   32.5664 C   0  0  2  0  0  0  0  0  0  0  0  0
   -7.0096   19.1130   33.3513 C   0  0  0  0  0  0  0  0  0  0  0  0
   -6.5048   20.1779   32.8199 O   0  0  0  0  0  0  0  0  0  0  0  0
   -9.3348   18.2679   33.4134 C   0  0  2  0  0  0  0  0  0  0  0  0
   -9.1399   17.3710   34.5950 C   0  0  0  0  0  0  0  0  0  0  0  0
  -10.4709   17.7229   32.5176 C   0  0  0  0  0  0  0  0  0  0  0  0
  -10.4616   17.1384   35.2893 C   0  0  0  0  0  0  0  0  0  0  0  0
   -6.4830   18.7218   34.5925 N   0  0  0  0  0  0  0  0  0  0  0  0
   -5.8853   17.4781   34.9886 C   0  0  2  0  0  0  0  0  0  0  0  0
   -6.6493   16.6626   35.9476 C   0  0  0  0  0  0  0  0  0  0  0  0
   -7.4154   15.7738   35.3612 O   0  0  0  0  0  0  0  0  0  0  0  0
   -4.4852   17.7069   35.5897 C   0  0  0  0  0  0  0  0  0  0  0  0
   -3.8786   16.2129   36.4100 S   0  0  0  0  0  0  0  0  0  0  0  0
   -6.6619   16.7117   37.3484 N   0  0  0  0  0  0  0  0  0  0  0  0
   -6.8024   17.8505   38.2297 C   0  0  2  0  0  0  0  0  0  0  0  0
   -5.9420   17.8763   39.3957 C   0  0  0  0  0  0  0  0  0  0  0  0
   -4.7149   18.3359   39.0788 O   0  0  0  0  0  0  0  0  0  0  0  0
   -8.2333   18.2816   38.3539 C   0  0  0  0  0  0  0  0  0  0  0  0
   -8.8182   19.0199   37.2400 C   0  0  0  0  0  0  0  0  0  0  0  0
   -8.0446   19.5589   36.2127 C   0  0  0  0  0  0  0  0  0  0  0  0
  -10.1699   19.2516   37.1867 C   0  0  0  0  0  0  0  0  0  0  0  0
   -8.5905   20.2940   35.1777 C   0  0  0  0  0  0  0  0  0  0  0  0
  -10.7428   19.9875   36.1581 C   0  0  0  0  0  0  0  0  0  0  0  0
   -9.9488   20.5135   35.1438 C   0  0  0  0  0  0  0  0  0  0  0  0
   -6.0043   17.5663   40.7663 N   0  0  0  0  0  0  0  0  0  0  0  0
   -6.1331   16.3033   41.4313 C   0  0  2  0  0  0  0  0  0  0  0  0
   -6.3320   15.1007   40.6714 C   0  0  0  0  0  0  0  0  0  0  0  0
   -7.4900   14.8852   40.1651 O   0  0  0  0  0  0  0  0  0  0  0  0
   -7.1298   16.5315   42.5275 C   0  0  0  0  0  0  0  0  0  0  0  0
   -6.9357   17.9848   42.8523 C   0  0  0  0  0  0  0  0  0  0  0  0
   -5.8492   18.4766   41.9407 C   0  0  0  0  0  0  0  0  0  0  0  0
   -5.2799   14.1614   40.4812 N   0  0  0  0  0  0  0  0  0  0  0  0
   -4.4517   13.6705   41.5614 C   0  0  2  0  0  0  0  0  0  0  0  0
   -3.1467   13.0856   41.0815 C   0  0  0  0  0  0  0  0  0  0  0  0
   -2.1572   13.6317   41.6473 O   0  0  0  0  0  0  0  0  0  0  0  0
   -5.2269   12.4548   42.1024 C   0  0  0  0  0  0  0  0  0  0  0  0
   -5.7403   11.5896   41.0422 C   0  0  0  0  0  0  0  0  0  0  0  0
   -5.8790   11.9176   39.7047 O   0  0  0  0  0  0  0  0  0  0  0  0
   -6.0972   10.4239   41.3540 O   0  0  0  0  0  0  0  0  0  0  0  0
   -3.7098   10.9210   39.4451 O   0  0  0  0  0  0  0  0  0  0  0  0
    1.5761    5.4987   38.1624 H   0  0  0  0  0  0  0  0  0  0  0  0
   -2.7286   19.6072   30.6163 H   0  0  0  0  0  0  0  0  0  0  0  0
  1  2  1  0
  1103  1  0
  1109  1  0
  2  3  1  0
  2109  1  6
  3  4  2  0
  3  5  1  0
  5  6  1  0
  6  7  1  0
  6  9  1  1
  7  8  2  0
  7 16  1  0
  9 10  1  0
 10 11  1  0
 11 12  1  0
 12 13  1  0
 13 14  1  0
 13 15  2  0
 17 16  1  1
 17 18  1  0
 17 20  1  0
 18 19  2  0
 18 22  1  0
 20 21  1  0
 21 82  1  0
 23 22  1  6
 23 24  1  0
 23 26  1  0
 24 25  2  0
 24 29  1  0
 26 27  1  0
 26 28  1  1
 29 30  1  0
 30 31  1  0
 30 33  1  6
 31 32  2  0
 31 38  1  0
 33 34  1  0
 34 35  1  0
 35 36  1  0
 36 37  1  0
 38 39  1  0
 39 40  1  0
 39 42  1  6
 40 41  2  0
 40 44  1  0
 42 43  1  0
 44 45  1  0
 45 46  1  0
 45 48  1  6
 46 47  2  0
 46 55  1  0
 48 49  1  0
 49 50  1  0
 50 51  1  0
 51 52  1  0
 52 53  1  0
 52 54  2  0
 55 56  1  0
 55 61  1  0
 56 57  1  0
 56 59  1  6
 57 58  2  0
 57 62  1  0
 59 60  1  0
 60 61  1  0
 62 63  1  0
 62 68  1  0
 63 64  1  0
 63 66  1  6
 64 65  2  0
 64 69  1  0
 66 67  1  0
 67 68  1  0
 70 69  1  1
 70 71  1  0
 70 73  1  0
 71 72  2  0
 71 77  1  0
 73 74  1  0
 73 75  1  6
 74 76  1  0
 78 77  1  1
 78 79  1  0
 78 81  1  0
 79 80  2  0
 79 83  1  0
 81 82  1  0
 83 84  1  0
 84 85  1  0
 84 87  1  1
 85 86  2  0
 85 94  1  0
 87 88  1  0
 88 89  2  0
 88 90  1  0
 89 91  1  0
 90 92  2  0
 91 93  2  0
 92 93  1  0
 94 95  1  0
 94100  1  0
 95 96  1  0
 95 98  1  1
 96 97  2  0
 96101  1  0
 98 99  1  0
 99100  1  0
101102  1  0
102103  1  0
102105  1  6
103104  2  0
105106  1  0
106107  1  0
106108  2  0
 15110  1  0
 54111  1  0
M  CHG  1  37   1
M  END
$$$$
