
     RDKit          3D

111117  0  0  0  0  0  0  0  0999 V2000
   -5.6247    9.1028   39.5997 N   0  0  0  0  0  0  0  0  0  0  0  0
   -4.7236    8.8223   38.6343 C   0  0  2  0  0  0  0  0  0  0  0  0
   -4.2306    9.9621   37.8447 C   0  0  0  0  0  0  0  0  0  0  0  0
   -4.5700   11.0952   38.3682 O   0  0  0  0  0  0  0  0  0  0  0  0
   -3.4805    9.9999   36.6681 N   0  0  0  0  0  0  0  0  0  0  0  0
   -3.7330    9.3946   35.3927 C   0  0  2  0  0  0  0  0  0  0  0  0
   -5.1327    9.4831   34.9211 C   0  0  0  0  0  0  0  0  0  0  0  0
   -5.9074    8.6063   35.4623 O   0  0  0  0  0  0  0  0  0  0  0  0
   -3.2381    7.9820   35.2307 C   0  0  0  0  0  0  0  0  0  0  0  0
   -1.8544    7.6794   35.6164 C   0  0  0  0  0  0  0  0  0  0  0  0
   -1.5819    6.8076   36.7801 C   0  0  0  0  0  0  0  0  0  0  0  0
   -2.3425    5.5660   36.7642 N   0  0  0  0  0  0  0  0  0  0  0  0
   -1.8610    4.3703   36.1729 C   0  0  0  0  0  0  0  0  0  0  0  0
   -2.6751    3.2580   35.8271 N   0  0  0  0  0  0  0  0  0  0  0  0
   -0.5769    4.3289   35.9521 N   0  0  0  0  0  0  0  0  0  0  0  0
   -5.7155   10.3524   33.9992 N   0  0  0  0  0  0  0  0  0  0  0  0
   -5.5066   11.7251   33.6944 C   0  0  2  0  0  0  0  0  0  0  0  0
   -4.7825   12.0100   32.4285 C   0  0  0  0  0  0  0  0  0  0  0  0
   -3.9182   12.9628   32.4370 O   0  0  0  0  0  0  0  0  0  0  0  0
   -4.8386   12.5466   34.7917 C   0  0  0  0  0  0  0  0  0  0  0  0
   -5.9933   12.9975   36.0813 S   0  0  0  0  0  0  0  0  0  0  0  0
   -4.9387   11.3458   31.1946 N   0  0  0  0  0  0  0  0  0  0  0  0
   -4.6678    9.9688   30.8900 C   0  0  2  0  0  0  0  0  0  0  0  0
   -3.3484    9.6796   30.3050 C   0  0  0  0  0  0  0  0  0  0  0  0
   -2.7661    8.6184   30.7352 O   0  0  0  0  0  0  0  0  0  0  0  0
   -5.7957    9.4390   30.0156 C   0  0  2  0  0  0  0  0  0  0  0  0
   -6.9570   10.1013   30.3742 O   0  0  0  0  0  0  0  0  0  0  0  0
   -5.9186    7.9402   30.1454 C   0  0  0  0  0  0  0  0  0  0  0  0
   -2.6441   10.4144   29.3323 N   0  0  0  0  0  0  0  0  0  0  0  0
   -2.4795   11.8229   29.2011 C   0  0  2  0  0  0  0  0  0  0  0  0
   -3.1052   12.1907   27.8624 C   0  0  0  0  0  0  0  0  0  0  0  0
   -4.1832   11.5498   27.5450 O   0  0  0  0  0  0  0  0  0  0  0  0
   -1.1101   12.3983   29.3180 C   0  0  0  0  0  0  0  0  0  0  0  0
   -0.1775   12.2618   28.1821 C   0  0  0  0  0  0  0  0  0  0  0  0
   -0.4051   11.3316   27.0724 C   0  0  0  0  0  0  0  0  0  0  0  0
    0.0523    9.9162   27.2482 C   0  0  0  0  0  0  0  0  0  0  0  0
   -0.0310    9.0390   26.1281 N   0  0  0  0  0  4  0  0  0  0  0  0
   -2.6629   13.1202   26.9444 N   0  0  0  0  0  0  0  0  0  0  0  0
   -2.4573   14.5658   27.1138 C   0  0  2  0  0  0  0  0  0  0  0  0
   -3.2857   15.1734   28.1601 C   0  0  0  0  0  0  0  0  0  0  0  0
   -4.4993   14.7191   28.1860 O   0  0  0  0  0  0  0  0  0  0  0  0
   -2.7718   15.1785   25.7360 C   0  0  0  0  0  0  0  0  0  0  0  0
   -4.0051   15.8473   25.7929 O   0  0  0  0  0  0  0  0  0  0  0  0
   -2.9641   16.1517   29.1151 N   0  0  0  0  0  0  0  0  0  0  0  0
   -2.4826   17.5192   28.8603 C   0  0  2  0  0  0  0  0  0  0  0  0
   -3.5241   18.4126   28.3566 C   0  0  0  0  0  0  0  0  0  0  0  0
   -4.0524   18.1331   27.2224 O   0  0  0  0  0  0  0  0  0  0  0  0
   -1.1410   17.5323   28.2601 C   0  0  0  0  0  0  0  0  0  0  0  0
   -0.6285   18.7224   27.5475 C   0  0  0  0  0  0  0  0  0  0  0  0
   -1.3617   19.1632   26.3349 C   0  0  0  0  0  0  0  0  0  0  0  0
   -2.5691   19.8786   26.6799 N   0  0  0  0  0  0  0  0  0  0  0  0
   -2.7698   21.2590   26.4332 C   0  0  0  0  0  0  0  0  0  0  0  0
   -1.7626   22.2279   26.7997 N   0  0  0  0  0  0  0  0  0  0  0  0
   -3.8604   21.6397   25.8731 N   0  0  0  0  0  0  0  0  0  0  0  0
   -4.0252   19.5658   28.9872 N   0  0  0  0  0  0  0  0  0  0  0  0
   -4.2312   19.7436   30.4172 C   0  0  2  0  0  0  0  0  0  0  0  0
   -5.5779   20.2357   30.7842 C   0  0  0  0  0  0  0  0  0  0  0  0
   -5.5480   21.2806   31.5638 O   0  0  0  0  0  0  0  0  0  0  0  0
   -3.2341   20.9321   30.5784 C   0  0  0  0  0  0  0  0  0  0  0  0
   -3.7480   21.8224   29.4351 C   0  0  0  0  0  0  0  0  0  0  0  0
   -4.4402   20.8574   28.4541 C   0  0  0  0  0  0  0  0  0  0  0  0
   -6.8369   19.7656   30.4318 N   0  0  0  0  0  0  0  0  0  0  0  0
   -7.4585   18.4841   30.6727 C   0  0  2  0  0  0  0  0  0  0  0  0
   -6.8233   17.5419   31.5430 C   0  0  0  0  0  0  0  0  0  0  0  0
   -5.7934   16.9260   31.1952 O   0  0  0  0  0  0  0  0  0  0  0  0
   -7.6448   18.0441   29.2206 C   0  0  0  0  0  0  0  0  0  0  0  0
   -8.1944   19.3558   28.6351 C   0  0  0  0  0  0  0  0  0  0  0  0
   -7.9531   20.4223   29.7152 C   0  0  0  0  0  0  0  0  0  0  0  0
   -7.3331   17.2591   32.8467 N   0  0  0  0  0  0  0  0  0  0  0  0
   -7.8429   18.2327   33.7785 C   0  0  2  0  0  0  0  0  0  0  0  0
   -6.9805   18.4340   34.9703 C   0  0  0  0  0  0  0  0  0  0  0  0
   -6.2771   19.5186   34.9731 O   0  0  0  0  0  0  0  0  0  0  0  0
   -9.2877   17.9901   34.1930 C   0  0  2  0  0  0  0  0  0  0  0  0
  -10.2941   18.5715   33.2508 C   0  0  0  0  0  0  0  0  0  0  0  0
   -9.5041   18.5584   35.6145 C   0  0  0  0  0  0  0  0  0  0  0  0
   -9.5903   19.3105   32.1365 C   0  0  0  0  0  0  0  0  0  0  0  0
   -6.8406   17.5932   36.0859 N   0  0  0  0  0  0  0  0  0  0  0  0
   -6.4617   16.2103   36.1550 C   0  0  2  0  0  0  0  0  0  0  0  0
   -7.5129   15.2649   36.5668 C   0  0  0  0  0  0  0  0  0  0  0  0
   -8.1503   14.7391   35.5481 O   0  0  0  0  0  0  0  0  0  0  0  0
   -5.2659   16.0141   37.1066 C   0  0  0  0  0  0  0  0  0  0  0  0
   -5.0113   14.2616   37.4769 S   0  0  0  0  0  0  0  0  0  0  0  0
   -7.9032   14.8708   37.8541 N   0  0  0  0  0  0  0  0  0  0  0  0
   -8.1987   15.6804   39.0162 C   0  0  2  0  0  0  0  0  0  0  0  0
   -7.6889   15.2009   40.2854 C   0  0  0  0  0  0  0  0  0  0  0  0
   -6.3929   15.5376   40.4420 O   0  0  0  0  0  0  0  0  0  0  0  0
   -9.5756   16.2700   38.9450 C   0  0  0  0  0  0  0  0  0  0  0  0
   -9.8118   17.3244   37.9648 C   0  0  0  0  0  0  0  0  0  0  0  0
   -9.2555   17.2945   36.6866 C   0  0  0  0  0  0  0  0  0  0  0  0
  -10.5675   18.4236   38.2877 C   0  0  0  0  0  0  0  0  0  0  0  0
   -9.4432   18.3111   35.7697 C   0  0  0  0  0  0  0  0  0  0  0  0
  -10.7707   19.4587   37.3848 C   0  0  0  0  0  0  0  0  0  0  0  0
  -10.2055   19.4040   36.1145 C   0  0  0  0  0  0  0  0  0  0  0  0
   -8.1436   14.4881   41.4095 N   0  0  0  0  0  0  0  0  0  0  0  0
   -8.5365   13.1168   41.5472 C   0  0  2  0  0  0  0  0  0  0  0  0
   -8.6042   12.2627   40.3944 C   0  0  0  0  0  0  0  0  0  0  0  0
   -9.5926   12.4033   39.5899 O   0  0  0  0  0  0  0  0  0  0  0  0
   -9.7757   13.1414   42.3904 C   0  0  0  0  0  0  0  0  0  0  0  0
   -9.5765   14.3682   43.2333 C   0  0  0  0  0  0  0  0  0  0  0  0
   -8.2513   14.9449   42.8278 C   0  0  0  0  0  0  0  0  0  0  0  0
   -7.6083   11.2780   40.1417 N   0  0  0  0  0  0  0  0  0  0  0  0
   -7.1420   10.3472   41.1466 C   0  0  2  0  0  0  0  0  0  0  0  0
   -5.7998    9.7457   40.8121 C   0  0  0  0  0  0  0  0  0  0  0  0
   -4.9662    9.9222   41.7457 O   0  0  0  0  0  0  0  0  0  0  0  0
   -8.1180    9.1611   41.0374 C   0  0  0  0  0  0  0  0  0  0  0  0
   -8.0518    8.2618   42.1877 C   0  0  0  0  0  0  0  0  0  0  0  0
   -7.6790    6.9290   42.1721 O   0  0  0  0  0  0  0  0  0  0  0  0
   -8.3591    8.7253   43.3164 O   0  0  0  0  0  0  0  0  0  0  0  0
   -6.0452    8.3254   38.4451 O   0  0  0  0  0  0  0  0  0  0  0  0
   -0.1699    4.4400   34.9904 H   0  0  0  0  0  0  0  0  0  0  0  0
   -4.0101   22.5852   25.5006 H   0  0  0  0  0  0  0  0  0  0  0  0
  1  2  1  0
  1103  1  0
  1109  1  0
  2  3  1  0
  2109  1  6
  3  4  2  0
  3  5  1  0
  5  6  1  0
  6  7  1  0
  6  9  1  1
  7  8  2  0
  7 16  1  0
  9 10  1  0
 10 11  1  0
 11 12  1  0
 12 13  1  0
 13 14  1  0
 13 15  2  0
 17 16  1  1
 17 18  1  0
 17 20  1  0
 18 19  2  0
 18 22  1  0
 20 21  1  0
 21 82  1  0
 23 22  1  6
 23 24  1  0
 23 26  1  0
 24 25  2  0
 24 29  1  0
 26 27  1  0
 26 28  1  1
 29 30  1  0
 30 31  1  0
 30 33  1  6
 31 32  2  0
 31 38  1  0
 33 34  1  0
 34 35  1  0
 35 36  1  0
 36 37  1  0
 38 39  1  0
 39 40  1  0
 39 42  1  6
 40 41  2  0
 40 44  1  0
 42 43  1  0
 44 45  1  0
 45 46  1  0
 45 48  1  6
 46 47  2  0
 46 55  1  0
 48 49  1  0
 49 50  1  0
 50 51  1  0
 51 52  1  0
 52 53  1  0
 52 54  2  0
 55 56  1  0
 55 61  1  0
 56 57  1  0
 56 59  1  6
 57 58  2  0
 57 62  1  0
 59 60  1  0
 60 61  1  0
 62 63  1  0
 62 68  1  0
 63 64  1  0
 63 66  1  6
 64 65  2  0
 64 69  1  0
 66 67  1  0
 67 68  1  0
 70 69  1  1
 70 71  1  0
 70 73  1  0
 71 72  2  0
 71 77  1  0
 73 74  1  0
 73 75  1  1
 74 76  1  0
 78 77  1  1
 78 79  1  0
 78 81  1  0
 79 80  2  0
 79 83  1  0
 81 82  1  0
 83 84  1  0
 84 85  1  0
 84 87  1  1
 85 86  2  0
 85 94  1  0
 87 88  1  0
 88 89  2  0
 88 90  1  0
 89 91  1  0
 90 92  2  0
 91 93  2  0
 92 93  1  0
 94 95  1  0
 94100  1  0
 95 96  1  0
 95 98  1  6
 96 97  2  0
 96101  1  0
 98 99  1  0
 99100  1  0
101102  1  0
102103  1  0
102105  1  6
103104  2  0
105106  1  0
106107  1  0
106108  2  0
 15110  1  0
 54111  1  0
M  CHG  1  37   1
M  END
$$$$
