
     RDKit          3D

111117  0  0  0  0  0  0  0  0999 V2000
   -7.0876    7.3988   38.6391 N   0  0  0  0  0  0  0  0  0  0  0  0
   -6.2123    7.1264   37.6480 C   0  0  2  0  0  0  0  0  0  0  0  0
   -5.4249    8.2599   37.1369 C   0  0  0  0  0  0  0  0  0  0  0  0
   -5.5334    9.3034   37.8935 O   0  0  0  0  0  0  0  0  0  0  0  0
   -4.6110    8.3696   36.0083 N   0  0  0  0  0  0  0  0  0  0  0  0
   -4.9103    8.1248   34.6272 C   0  0  2  0  0  0  0  0  0  0  0  0
   -6.2204    8.6365   34.1678 C   0  0  0  0  0  0  0  0  0  0  0  0
   -7.2062    7.8712   34.4909 O   0  0  0  0  0  0  0  0  0  0  0  0
   -4.7370    6.7030   34.1634 C   0  0  0  0  0  0  0  0  0  0  0  0
   -3.4324    6.2992   33.6250 C   0  0  0  0  0  0  0  0  0  0  0  0
   -2.1879    6.8579   34.1975 C   0  0  0  0  0  0  0  0  0  0  0  0
   -1.1886    5.8458   34.5093 N   0  0  0  0  0  0  0  0  0  0  0  0
    0.0647    6.1505   35.0985 C   0  0  0  0  0  0  0  0  0  0  0  0
    0.3071    6.1964   36.4980 N   0  0  0  0  0  0  0  0  0  0  0  0
    1.0329    6.4036   34.2630 N   0  0  0  0  0  0  0  0  0  0  0  0
   -6.5313    9.7932   33.4532 N   0  0  0  0  0  0  0  0  0  0  0  0
   -5.9991   11.1113   33.4625 C   0  0  2  0  0  0  0  0  0  0  0  0
   -5.1489   11.4805   32.3011 C   0  0  0  0  0  0  0  0  0  0  0  0
   -4.0946   12.1803   32.5321 O   0  0  0  0  0  0  0  0  0  0  0  0
   -5.2357   11.5017   34.7235 C   0  0  0  0  0  0  0  0  0  0  0  0
   -6.3400   11.9264   36.0650 S   0  0  0  0  0  0  0  0  0  0  0  0
   -5.3705   11.1485   30.9489 N   0  0  0  0  0  0  0  0  0  0  0  0
   -5.3977    9.8432   30.3508 C   0  0  2  0  0  0  0  0  0  0  0  0
   -4.1424    9.3839   29.7345 C   0  0  0  0  0  0  0  0  0  0  0  0
   -3.8435    8.1494   29.9271 O   0  0  0  0  0  0  0  0  0  0  0  0
   -6.5570    9.7899   29.3655 C   0  0  2  0  0  0  0  0  0  0  0  0
   -7.6500   10.3925   29.9639 O   0  0  0  0  0  0  0  0  0  0  0  0
   -6.8377    8.3689   28.9411 C   0  0  0  0  0  0  0  0  0  0  0  0
   -3.2292   10.1224   28.9582 N   0  0  0  0  0  0  0  0  0  0  0  0
   -2.7432   11.4481   29.1442 C   0  0  2  0  0  0  0  0  0  0  0  0
   -3.1818   12.2274   27.9116 C   0  0  0  0  0  0  0  0  0  0  0  0
   -4.3536   11.9390   27.4456 O   0  0  0  0  0  0  0  0  0  0  0  0
   -1.2899   11.6486   29.4043 C   0  0  0  0  0  0  0  0  0  0  0  0
   -0.3638   11.7383   28.2583 C   0  0  0  0  0  0  0  0  0  0  0  0
   -0.7121   11.2677   26.9146 C   0  0  0  0  0  0  0  0  0  0  0  0
   -1.9451   10.4297   26.7704 C   0  0  0  0  0  0  0  0  0  0  0  0
   -2.3060    9.9841   25.4657 N   0  0  0  0  0  4  0  0  0  0  0  0
   -2.4828   13.2004   27.2282 N   0  0  0  0  0  0  0  0  0  0  0  0
   -1.9681   14.4879   27.7161 C   0  0  2  0  0  0  0  0  0  0  0  0
   -2.7043   15.0365   28.8594 C   0  0  0  0  0  0  0  0  0  0  0  0
   -3.9881   14.8841   28.7676 O   0  0  0  0  0  0  0  0  0  0  0  0
   -2.0465   15.4350   26.5038 C   0  0  0  0  0  0  0  0  0  0  0  0
   -3.3848   15.7950   26.2783 O   0  0  0  0  0  0  0  0  0  0  0  0
   -2.2331   15.6870   30.0116 N   0  0  0  0  0  0  0  0  0  0  0  0
   -1.4402   16.9257   30.0724 C   0  0  2  0  0  0  0  0  0  0  0  0
   -2.2187   18.1240   29.7646 C   0  0  0  0  0  0  0  0  0  0  0  0
   -2.7217   18.2230   28.5896 O   0  0  0  0  0  0  0  0  0  0  0  0
   -0.0942   16.7513   29.5083 C   0  0  0  0  0  0  0  0  0  0  0  0
    0.7085   17.9098   29.0607 C   0  0  0  0  0  0  0  0  0  0  0  0
    1.9344   18.2329   29.8323 C   0  0  0  0  0  0  0  0  0  0  0  0
    3.0809   17.5132   29.3262 N   0  0  0  0  0  0  0  0  0  0  0  0
    4.2160   17.1823   30.1063 C   0  0  0  0  0  0  0  0  0  0  0  0
    4.1855   16.0580   31.0132 N   0  0  0  0  0  0  0  0  0  0  0  0
    5.2785   17.8940   29.9934 N   0  0  0  0  0  0  0  0  0  0  0  0
   -2.4867   19.2019   30.6278 N   0  0  0  0  0  0  0  0  0  0  0  0
   -2.7396   19.1155   32.0588 C   0  0  2  0  0  0  0  0  0  0  0  0
   -3.9615   19.8199   32.5071 C   0  0  0  0  0  0  0  0  0  0  0  0
   -3.7475   20.6390   33.4988 O   0  0  0  0  0  0  0  0  0  0  0  0
   -1.5129   19.9756   32.4926 C   0  0  0  0  0  0  0  0  0  0  0  0
   -1.7377   21.1831   31.5677 C   0  0  0  0  0  0  0  0  0  0  0  0
   -2.5645   20.6375   30.3881 C   0  0  0  0  0  0  0  0  0  0  0  0
   -5.2686   19.7434   32.0422 N   0  0  0  0  0  0  0  0  0  0  0  0
   -6.1773   18.6220   31.9850 C   0  0  2  0  0  0  0  0  0  0  0  0
   -5.8285   17.3947   32.6338 C   0  0  0  0  0  0  0  0  0  0  0  0
   -4.9437   16.6430   32.1725 O   0  0  0  0  0  0  0  0  0  0  0  0
   -6.3635   18.5559   30.4692 C   0  0  0  0  0  0  0  0  0  0  0  0
   -6.5642   20.0534   30.1809 C   0  0  0  0  0  0  0  0  0  0  0  0
   -6.1592   20.7797   31.4734 C   0  0  0  0  0  0  0  0  0  0  0  0
   -6.4723   16.9693   33.8356 N   0  0  0  0  0  0  0  0  0  0  0  0
   -6.8089   17.8149   34.9526 C   0  0  2  0  0  0  0  0  0  0  0  0
   -6.0024   17.5513   36.1711 C   0  0  0  0  0  0  0  0  0  0  0  0
   -5.0743   18.4150   36.4235 O   0  0  0  0  0  0  0  0  0  0  0  0
   -8.2950   17.8351   35.2834 C   0  0  2  0  0  0  0  0  0  0  0  0
   -8.8373   19.2034   35.5519 C   0  0  0  0  0  0  0  0  0  0  0  0
   -8.5506   16.9167   36.5006 C   0  0  0  0  0  0  0  0  0  0  0  0
   -7.8212   20.0199   36.3162 C   0  0  0  0  0  0  0  0  0  0  0  0
   -6.1282   16.4843   37.0748 N   0  0  0  0  0  0  0  0  0  0  0  0
   -6.0760   15.0688   36.8414 C   0  0  2  0  0  0  0  0  0  0  0  0
   -7.3377   14.3306   37.0194 C   0  0  0  0  0  0  0  0  0  0  0  0
   -8.0099   14.1969   35.9009 O   0  0  0  0  0  0  0  0  0  0  0  0
   -5.0195   14.4009   37.7423 C   0  0  0  0  0  0  0  0  0  0  0  0
   -5.1910   12.6000   37.7190 S   0  0  0  0  0  0  0  0  0  0  0  0
   -7.8894   13.7751   38.1821 N   0  0  0  0  0  0  0  0  0  0  0  0
   -8.0695   14.3660   39.4903 C   0  0  2  0  0  0  0  0  0  0  0  0
   -7.7641   13.5227   40.6288 C   0  0  0  0  0  0  0  0  0  0  0  0
   -6.4385   13.5055   40.8738 O   0  0  0  0  0  0  0  0  0  0  0  0
   -9.2704   15.2630   39.5325 C   0  0  0  0  0  0  0  0  0  0  0  0
  -10.1614   15.2580   38.3773 C   0  0  0  0  0  0  0  0  0  0  0  0
  -11.4880   15.6803   38.4553 C   0  0  0  0  0  0  0  0  0  0  0  0
   -9.7297   14.7875   37.1625 C   0  0  0  0  0  0  0  0  0  0  0  0
  -12.3467   15.6384   37.3735 C   0  0  0  0  0  0  0  0  0  0  0  0
  -10.5727   14.7345   36.0605 C   0  0  0  0  0  0  0  0  0  0  0  0
  -11.8923   15.1634   36.1642 C   0  0  0  0  0  0  0  0  0  0  0  0
   -8.4397   12.7145   41.5609 N   0  0  0  0  0  0  0  0  0  0  0  0
   -9.1396   11.4761   41.3864 C   0  0  2  0  0  0  0  0  0  0  0  0
   -9.3233   10.9260   40.0723 C   0  0  0  0  0  0  0  0  0  0  0  0
  -10.2003   11.4614   39.3055 O   0  0  0  0  0  0  0  0  0  0  0  0
  -10.3933   11.6108   42.1971 C   0  0  0  0  0  0  0  0  0  0  0  0
   -9.9779   12.5494   43.2933 C   0  0  0  0  0  0  0  0  0  0  0  0
   -8.5333   12.8723   43.0436 C   0  0  0  0  0  0  0  0  0  0  0  0
   -8.5607    9.8121   39.6217 N   0  0  0  0  0  0  0  0  0  0  0  0
   -8.3823    8.6068   40.4020 C   0  0  2  0  0  0  0  0  0  0  0  0
   -7.1914    7.7927   39.9612 C   0  0  0  0  0  0  0  0  0  0  0  0
   -6.4018    7.5671   40.9220 O   0  0  0  0  0  0  0  0  0  0  0  0
   -9.5914    7.7330   40.0197 C   0  0  0  0  0  0  0  0  0  0  0  0
   -9.7221    6.5436   40.8590 C   0  0  0  0  0  0  0  0  0  0  0  0
   -8.7719    6.0413   41.7312 O   0  0  0  0  0  0  0  0  0  0  0  0
  -10.7993    5.8960   40.7997 O   0  0  0  0  0  0  0  0  0  0  0  0
   -7.5968    7.0045   37.3354 O   0  0  0  0  0  0  0  0  0  0  0  0
    0.9234    7.0796   33.4668 H   0  0  0  0  0  0  0  0  0  0  0  0
    6.2278   17.5019   29.9732 H   0  0  0  0  0  0  0  0  0  0  0  0
  1  2  1  0
  1103  1  0
  1109  1  0
  2  3  1  0
  2109  1  6
  3  4  2  0
  3  5  1  0
  5  6  1  0
  6  7  1  0
  6  9  1  1
  7  8  2  0
  7 16  1  0
  9 10  1  0
 10 11  1  0
 11 12  1  0
 12 13  1  0
 13 14  1  0
 13 15  2  0
 17 16  1  1
 17 18  1  0
 17 20  1  0
 18 19  2  0
 18 22  1  0
 20 21  1  0
 21 82  1  0
 23 22  1  6
 23 24  1  0
 23 26  1  0
 24 25  2  0
 24 29  1  0
 26 27  1  0
 26 28  1  1
 29 30  1  0
 30 31  1  0
 30 33  1  6
 31 32  2  0
 31 38  1  0
 33 34  1  0
 34 35  1  0
 35 36  1  0
 36 37  1  0
 38 39  1  0
 39 40  1  0
 39 42  1  6
 40 41  2  0
 40 44  1  0
 42 43  1  0
 44 45  1  0
 45 46  1  0
 45 48  1  6
 46 47  2  0
 46 55  1  0
 48 49  1  0
 49 50  1  0
 50 51  1  0
 51 52  1  0
 52 53  1  0
 52 54  2  0
 55 56  1  0
 55 61  1  0
 56 57  1  0
 56 59  1  1
 57 58  2  0
 57 62  1  0
 59 60  1  0
 60 61  1  0
 62 63  1  0
 62 68  1  0
 63 64  1  0
 63 66  1  6
 64 65  2  0
 64 69  1  0
 66 67  1  0
 67 68  1  0
 70 69  1  6
 70 71  1  0
 70 73  1  0
 71 72  2  0
 71 77  1  0
 73 74  1  0
 73 75  1  1
 74 76  1  0
 78 77  1  1
 78 79  1  0
 78 81  1  0
 79 80  2  0
 79 83  1  0
 81 82  1  0
 83 84  1  0
 84 85  1  0
 84 87  1  1
 85 86  2  0
 85 94  1  0
 87 88  1  0
 88 89  2  0
 88 90  1  0
 89 91  1  0
 90 92  2  0
 91 93  2  0
 92 93  1  0
 94 95  1  0
 94100  1  0
 95 96  1  0
 95 98  1  6
 96 97  2  0
 96101  1  0
 98 99  1  0
 99100  1  0
101102  1  0
102103  1  0
102105  1  6
103104  2  0
105106  1  0
106107  1  0
106108  2  0
 15110  1  0
 54111  1  0
M  CHG  1  37   1
M  END
$$$$
