
     RDKit          3D

 50 57  0  0  0  0  0  0  0  0999 V2000
  -43.5481  162.5064   85.1179 C   0  0  0  0  0  0  0  0  0  0  0  0
  -44.4016  161.5034   85.5724 C   0  0  0  0  0  0  0  0  0  0  0  0
  -45.5507  161.2676   84.8802 C   0  0  0  0  0  0  0  0  0  0  0  0
  -45.8488  162.0175   83.7522 C   0  0  0  0  0  0  0  0  0  0  0  0
  -45.0194  163.0105   83.2890 C   0  0  0  0  0  0  0  0  0  0  0  0
  -43.8411  163.2495   84.0001 C   0  0  0  0  0  0  0  0  0  0  0  0
  -43.0155  164.2386   83.5553 C   0  0  0  0  0  0  0  0  0  0  0  0
  -43.3953  164.9605   82.4152 C   0  0  0  0  0  0  0  0  0  0  0  0
  -44.5588  164.7145   81.7258 C   0  0  0  0  0  0  0  0  0  0  0  0
  -44.9033  165.4450   80.6074 C   0  0  0  0  0  0  0  0  0  0  0  0
  -44.0485  166.4480   80.1788 C   0  0  0  0  0  0  0  0  0  0  0  0
  -42.8855  166.6900   80.8741 C   0  0  0  0  0  0  0  0  0  0  0  0
  -42.5318  165.9612   81.9980 C   0  0  0  0  0  0  0  0  0  0  0  0
  -40.7183  163.5639   84.0485 C   0  0  0  0  0  0  0  0  0  0  0  0
  -40.0255  163.5958   82.7393 C   0  0  0  0  0  0  0  0  0  0  0  0
  -40.4744  160.9449   80.2675 C   0  0  0  0  0  0  0  0  0  0  0  0
  -40.0436  162.2090   80.6519 C   0  0  0  0  0  0  0  0  0  0  0  0
  -40.3782  160.3698   78.9056 C   0  0  0  0  0  0  0  0  0  0  0  0
  -40.2343  158.3937   77.5626 C   0  0  0  0  0  0  0  0  0  0  0  0
  -39.3618  157.2384   77.3103 C   0  0  0  0  0  0  0  0  0  0  0  0
  -39.9156  155.9873   77.4159 C   0  0  0  0  0  0  0  0  0  0  0  0
  -39.0721  154.9126   77.1778 C   0  0  0  0  0  0  0  0  0  0  0  0
  -37.2026  156.2928   76.7471 C   0  0  0  0  0  0  0  0  0  0  0  0
  -38.0203  157.3680   76.9776 C   0  0  0  0  0  0  0  0  0  0  0  0
  -34.8101  155.4758   76.6795 C   0  0  0  0  0  0  0  0  0  0  0  0
  -33.6422  153.8671   78.1323 C   0  0  0  0  0  0  0  0  0  0  0  0
  -33.6680  153.0972   79.2737 C   0  0  0  0  0  0  0  0  0  0  0  0
  -32.8119  152.0138   79.4018 C   0  0  0  0  0  0  0  0  0  0  0  0
  -31.9296  151.7144   78.3490 C   0  0  0  0  0  0  0  0  0  0  0  0
  -31.8892  152.4711   77.1967 C   0  0  0  0  0  0  0  0  0  0  0  0
  -32.7533  153.5463   77.1068 C   0  0  0  0  0  0  0  0  0  0  0  0
  -32.9481  151.4649   80.7432 C   0  0  0  0  0  0  0  0  0  0  0  0
  -34.5250  153.1332   80.4583 C   0  0  2  0  0  0  0  0  0  0  0  0
  -34.9150  154.4858   80.9440 C   0  0  0  0  0  0  0  0  0  0  0  0
  -35.4707  154.3745   82.3467 C   0  0  0  0  0  0  0  0  0  0  0  0
  -34.5029  153.7016   83.2753 C   0  0  0  0  0  0  0  0  0  0  0  0
  -34.2205  152.2740   82.8334 C   0  0  0  0  0  0  0  0  0  0  0  0
  -40.8575  158.2654   79.8221 C   0  0  0  0  0  0  0  0  0  0  0  0
  -45.3418  163.7210   82.2063 N   0  0  0  0  0  0  0  0  0  0  0  0
  -41.7787  164.5401   84.1530 N   0  0  0  0  0  0  0  0  0  0  0  0
  -40.3290  162.3812   81.9850 N   0  0  0  0  0  0  0  0  0  0  0  0
  -40.9046  161.2719   82.3873 N   0  0  0  0  0  0  0  0  0  0  0  0
  -40.9958  160.4140   81.3782 N   0  0  0  0  0  0  0  0  0  0  0  0
  -37.7815  155.0654   76.8598 N   0  0  0  0  0  0  0  0  0  0  0  0
  -35.8406  156.3759   76.4227 N   0  0  0  0  0  0  0  0  0  0  0  0
  -34.5297  154.9489   77.9938 N   0  0  0  0  0  0  0  0  0  0  0  0
  -33.9060  152.2713   81.4095 N   0  0  0  0  0  0  0  0  0  0  0  0
  -40.0277  158.9934   78.8661 N   0  0  2  0  0  4  0  0  0  0  0  0
  -34.0847  155.1049   75.7392 O   0  0  0  0  0  0  0  0  0  0  0  0
  -32.3193  150.4709   81.1786 O   0  0  0  0  0  0  0  0  0  0  0  0
  1  2  2  0
  6  1  1  0
  2  3  1  0
  4  3  2  0
  5  4  1  0
  6  5  2  0
  5 39  1  0
  7  6  1  0
  7  8  2  0
 40  7  1  0
  8  9  1  0
  8 13  1  0
  9 10  1  0
  9 39  2  0
 10 11  2  0
 12 11  1  0
 13 12  2  0
 15 14  1  0
 14 40  1  0
 41 15  1  0
 16 17  2  0
 18 16  1  0
 16 43  1  0
 17 41  1  0
 48 18  1  0
 20 19  1  0
 19 48  1  0
 20 21  2  0
 24 20  1  0
 22 21  1  0
 44 22  2  0
 23 24  2  0
 23 44  1  0
 45 23  1  0
 25 45  1  0
 46 25  1  0
 25 49  2  0
 26 27  2  0
 26 31  1  0
 26 46  1  0
 27 28  1  0
 27 33  1  0
 28 29  2  0
 28 32  1  0
 29 30  1  0
 30 31  2  0
 32 47  1  0
 32 50  2  0
 33 34  1  1
 33 47  1  0
 34 35  1  0
 35 36  1  0
 36 37  1  0
 37 47  1  0
 48 38  1  1
 41 42  1  0
 42 43  2  0
M  CHG  1  48   1
M  END
$$$$
