
     RDKit          3D

 50 57  0  0  0  0  0  0  0  0999 V2000
  -37.9114  166.7893   80.5828 C   0  0  0  0  0  0  0  0  0  0  0  0
  -37.8606  168.1605   80.3415 C   0  0  0  0  0  0  0  0  0  0  0  0
  -39.0314  168.8554   80.3029 C   0  0  0  0  0  0  0  0  0  0  0  0
  -40.2364  168.1981   80.5008 C   0  0  0  0  0  0  0  0  0  0  0  0
  -40.3063  166.8466   80.7401 C   0  0  0  0  0  0  0  0  0  0  0  0
  -39.1040  166.1367   80.7802 C   0  0  0  0  0  0  0  0  0  0  0  0
  -39.1619  164.7939   81.0073 C   0  0  0  0  0  0  0  0  0  0  0  0
  -40.4204  164.2020   81.1838 C   0  0  0  0  0  0  0  0  0  0  0  0
  -41.5956  164.9137   81.1408 C   0  0  0  0  0  0  0  0  0  0  0  0
  -42.8182  164.2995   81.3174 C   0  0  0  0  0  0  0  0  0  0  0  0
  -42.8494  162.9324   81.5422 C   0  0  0  0  0  0  0  0  0  0  0  0
  -41.6691  162.2254   81.5831 C   0  0  0  0  0  0  0  0  0  0  0  0
  -40.4372  162.8342   81.4069 C   0  0  0  0  0  0  0  0  0  0  0  0
  -37.2085  164.1126   82.3093 C   0  0  0  0  0  0  0  0  0  0  0  0
  -37.0711  162.8457   83.0651 C   0  0  0  0  0  0  0  0  0  0  0  0
  -34.7592  160.8539   81.0585 C   0  0  0  0  0  0  0  0  0  0  0  0
  -35.0834  161.9772   81.8100 C   0  0  0  0  0  0  0  0  0  0  0  0
  -33.4650  160.6033   80.3825 C   0  0  0  0  0  0  0  0  0  0  0  0
  -33.9167  158.3995   79.5648 C   0  0  0  0  0  0  0  0  0  0  0  0
  -33.6067  156.9683   79.6872 C   0  0  0  0  0  0  0  0  0  0  0  0
  -32.4529  156.5142   79.0994 C   0  0  0  0  0  0  0  0  0  0  0  0
  -32.1836  155.1596   79.2243 C   0  0  0  0  0  0  0  0  0  0  0  0
  -34.1450  154.7402   80.4743 C   0  0  0  0  0  0  0  0  0  0  0  0
  -34.4283  156.0763   80.3629 C   0  0  0  0  0  0  0  0  0  0  0  0
  -34.5934  152.6233   81.7835 C   0  0  0  0  0  0  0  0  0  0  0  0
  -35.0997  150.7289   83.2725 C   0  0  0  0  0  0  0  0  0  0  0  0
  -36.1377  149.8897   83.6110 C   0  0  0  0  0  0  0  0  0  0  0  0
  -35.8787  148.5831   83.9966 C   0  0  0  0  0  0  0  0  0  0  0  0
  -34.5472  148.1330   84.0276 C   0  0  0  0  0  0  0  0  0  0  0  0
  -33.4934  148.9563   83.6905 C   0  0  0  0  0  0  0  0  0  0  0  0
  -33.7894  150.2537   83.3164 C   0  0  0  0  0  0  0  0  0  0  0  0
  -37.1249  147.9658   84.4271 C   0  0  0  0  0  0  0  0  0  0  0  0
  -37.5889  150.0696   83.5845 C   0  0  2  0  0  0  0  0  0  0  0  0
  -38.0896  151.4158   83.9777 C   0  0  0  0  0  0  0  0  0  0  0  0
  -39.5748  151.3376   84.2550 C   0  0  0  0  0  0  0  0  0  0  0  0
  -39.8924  150.2964   85.2878 C   0  0  0  0  0  0  0  0  0  0  0  0
  -39.4926  148.9091   84.8097 C   0  0  0  0  0  0  0  0  0  0  0  0
  -33.0864  158.7263   81.7360 C   0  0  0  0  0  0  0  0  0  0  0  0
  -41.4837  166.2431   80.9153 N   0  0  0  0  0  0  0  0  0  0  0  0
  -38.0210  163.9796   81.1218 N   0  0  0  0  0  0  0  0  0  0  0  0
  -36.3797  161.8504   82.2481 N   0  0  0  0  0  0  0  0  0  0  0  0
  -36.8175  160.7031   81.7836 N   0  0  0  0  0  0  0  0  0  0  0  0
  -35.8660  160.1043   81.0776 N   0  0  0  0  0  0  0  0  0  0  0  0
  -32.9937  154.3207   79.8803 N   0  0  0  0  0  0  0  0  0  0  0  0
  -34.9516  153.8015   81.1342 N   0  0  0  0  0  0  0  0  0  0  0  0
  -35.3668  152.0452   82.8563 N   0  0  0  0  0  0  0  0  0  0  0  0
  -38.1290  148.9588   84.2955 N   0  0  0  0  0  0  0  0  0  0  0  0
  -33.0556  159.2428   80.3704 N   0  0  2  0  0  4  0  0  0  0  0  0
  -33.5545  152.0343   81.4348 O   0  0  0  0  0  0  0  0  0  0  0  0
  -37.2382  146.7828   84.8279 O   0  0  0  0  0  0  0  0  0  0  0  0
  1  2  2  0
  6  1  1  0
  2  3  1  0
  4  3  2  0
  5  4  1  0
  6  5  2  0
  5 39  1  0
  7  6  1  0
  7  8  2  0
 40  7  1  0
  8  9  1  0
  8 13  1  0
  9 10  1  0
  9 39  2  0
 10 11  2  0
 12 11  1  0
 13 12  2  0
 15 14  1  0
 14 40  1  0
 41 15  1  0
 16 17  2  0
 18 16  1  0
 16 43  1  0
 17 41  1  0
 48 18  1  0
 20 19  1  0
 19 48  1  0
 20 21  2  0
 24 20  1  0
 22 21  1  0
 44 22  2  0
 23 24  2  0
 23 44  1  0
 45 23  1  0
 25 45  1  0
 46 25  1  0
 25 49  2  0
 26 27  2  0
 26 31  1  0
 26 46  1  0
 27 28  1  0
 27 33  1  0
 28 29  2  0
 28 32  1  0
 29 30  1  0
 30 31  2  0
 32 47  1  0
 32 50  2  0
 33 34  1  1
 33 47  1  0
 34 35  1  0
 35 36  1  0
 36 37  1  0
 37 47  1  0
 48 38  1  1
 41 42  1  0
 42 43  2  0
M  CHG  1  48   1
M  END
$$$$
