
     RDKit          3D

 50 57  0  0  0  0  0  0  0  0999 V2000
  -44.6272  164.5249   83.3235 C   0  0  0  0  0  0  0  0  0  0  0  0
  -46.0164  164.5912   83.2422 C   0  0  0  0  0  0  0  0  0  0  0  0
  -46.5734  165.5061   82.4009 C   0  0  0  0  0  0  0  0  0  0  0  0
  -45.7623  166.3442   81.6504 C   0  0  0  0  0  0  0  0  0  0  0  0
  -44.3906  166.2935   81.7172 C   0  0  0  0  0  0  0  0  0  0  0  0
  -43.8221  165.3535   82.5800 C   0  0  0  0  0  0  0  0  0  0  0  0
  -42.4625  165.3007   82.6616 C   0  0  0  0  0  0  0  0  0  0  0  0
  -41.7135  166.1918   81.8803 C   0  0  0  0  0  0  0  0  0  0  0  0
  -42.2872  167.1123   81.0359 C   0  0  0  0  0  0  0  0  0  0  0  0
  -41.5202  167.9760   80.2815 C   0  0  0  0  0  0  0  0  0  0  0  0
  -40.1403  167.9046   80.3865 C   0  0  0  0  0  0  0  0  0  0  0  0
  -39.5722  166.9813   81.2345 C   0  0  0  0  0  0  0  0  0  0  0  0
  -40.3348  166.1102   81.9955 C   0  0  0  0  0  0  0  0  0  0  0  0
  -42.1397  162.9733   83.3354 C   0  0  0  0  0  0  0  0  0  0  0  0
  -40.9710  162.0631   83.3060 C   0  0  0  0  0  0  0  0  0  0  0  0
  -41.0424  159.3127   80.9041 C   0  0  0  0  0  0  0  0  0  0  0  0
  -40.9155  159.8188   82.1922 C   0  0  0  0  0  0  0  0  0  0  0  0
  -40.9357  157.8873   80.5148 C   0  0  0  0  0  0  0  0  0  0  0  0
  -38.7542  157.8612   79.5300 C   0  0  0  0  0  0  0  0  0  0  0  0
  -37.9268  156.7733   78.9900 C   0  0  0  0  0  0  0  0  0  0  0  0
  -38.1676  156.3701   77.7007 C   0  0  0  0  0  0  0  0  0  0  0  0
  -37.3776  155.3394   77.2143 C   0  0  0  0  0  0  0  0  0  0  0  0
  -36.1603  155.1315   79.2293 C   0  0  0  0  0  0  0  0  0  0  0  0
  -36.9299  156.1497   79.7280 C   0  0  0  0  0  0  0  0  0  0  0  0
  -34.3869  153.3617   79.5743 C   0  0  0  0  0  0  0  0  0  0  0  0
  -33.6015  152.2226   81.6110 C   0  0  0  0  0  0  0  0  0  0  0  0
  -32.5934  151.9842   82.5183 C   0  0  0  0  0  0  0  0  0  0  0  0
  -32.8823  151.3971   83.7410 C   0  0  0  0  0  0  0  0  0  0  0  0
  -34.2147  151.0597   84.0371 C   0  0  0  0  0  0  0  0  0  0  0  0
  -35.2392  151.2918   83.1436 C   0  0  0  0  0  0  0  0  0  0  0  0
  -34.9127  151.8736   81.9329 C   0  0  0  0  0  0  0  0  0  0  0  0
  -31.6335  151.1358   84.4421 C   0  0  0  0  0  0  0  0  0  0  0  0
  -31.1668  152.3060   82.5020 C   0  0  2  0  0  0  0  0  0  0  0  0
  -30.4830  152.1850   81.1847 C   0  0  0  0  0  0  0  0  0  0  0  0
  -28.9848  152.1851   81.3952 C   0  0  0  0  0  0  0  0  0  0  0  0
  -28.5585  151.1093   82.3505 C   0  0  0  0  0  0  0  0  0  0  0  0
  -29.1645  151.3271   83.7283 C   0  0  0  0  0  0  0  0  0  0  0  0
  -40.6204  158.5655   78.2925 C   0  0  0  0  0  0  0  0  0  0  0  0
  -43.6394  167.1223   80.9894 N   0  0  0  0  0  0  0  0  0  0  0  0
  -41.7715  164.3657   83.4527 N   0  0  0  0  0  0  0  0  0  0  0  0
  -41.0522  161.1851   82.1403 N   0  0  0  0  0  0  0  0  0  0  0  0
  -41.2535  161.4899   80.8793 N   0  0  0  0  0  0  0  0  0  0  0  0
  -41.2497  160.3886   80.1379 N   0  0  0  0  0  0  0  0  0  0  0  0
  -36.4237  154.7543   77.9477 N   0  0  0  0  0  0  0  0  0  0  0  0
  -35.1534  154.4640   79.9420 N   0  0  0  0  0  0  0  0  0  0  0  0
  -33.3100  152.8423   80.3829 N   0  0  0  0  0  0  0  0  0  0  0  0
  -30.5938  151.5770   83.5841 N   0  0  0  0  0  0  0  0  0  0  0  0
  -40.1754  157.6488   79.3384 N   0  0  2  0  0  4  0  0  0  0  0  0
  -34.6286  152.7918   78.4951 O   0  0  0  0  0  0  0  0  0  0  0  0
  -31.5452  150.6195   85.5817 O   0  0  0  0  0  0  0  0  0  0  0  0
  1  2  2  0
  6  1  1  0
  2  3  1  0
  4  3  2  0
  5  4  1  0
  6  5  2  0
  5 39  1  0
  7  6  1  0
  7  8  2  0
 40  7  1  0
  8  9  1  0
  8 13  1  0
  9 10  1  0
  9 39  2  0
 10 11  2  0
 12 11  1  0
 13 12  2  0
 15 14  1  0
 14 40  1  0
 41 15  1  0
 16 17  2  0
 18 16  1  0
 16 43  1  0
 17 41  1  0
 48 18  1  0
 20 19  1  0
 19 48  1  0
 20 21  2  0
 24 20  1  0
 22 21  1  0
 44 22  2  0
 23 24  2  0
 23 44  1  0
 45 23  1  0
 25 45  1  0
 46 25  1  0
 25 49  2  0
 26 27  2  0
 26 31  1  0
 26 46  1  0
 27 28  1  0
 27 33  1  0
 28 29  2  0
 28 32  1  0
 29 30  1  0
 30 31  2  0
 32 47  1  0
 32 50  2  0
 33 34  1  6
 33 47  1  0
 34 35  1  0
 35 36  1  0
 36 37  1  0
 37 47  1  0
 48 38  1  6
 41 42  1  0
 42 43  2  0
M  CHG  1  48   1
M  END
$$$$
