
     RDKit          3D

 50 57  0  0  0  0  0  0  0  0999 V2000
  -44.0065  163.0477   83.4867 C   0  0  0  0  0  0  0  0  0  0  0  0
  -45.2173  162.3842   83.6723 C   0  0  0  0  0  0  0  0  0  0  0  0
  -46.3588  162.9840   83.2337 C   0  0  0  0  0  0  0  0  0  0  0  0
  -46.2993  164.2260   82.6193 C   0  0  0  0  0  0  0  0  0  0  0  0
  -45.1145  164.8955   82.4276 C   0  0  0  0  0  0  0  0  0  0  0  0
  -43.9454  164.2775   82.8774 C   0  0  0  0  0  0  0  0  0  0  0  0
  -42.7654  164.9367   82.7011 C   0  0  0  0  0  0  0  0  0  0  0  0
  -42.7914  166.1950   82.0835 C   0  0  0  0  0  0  0  0  0  0  0  0
  -43.9503  166.7912   81.6465 C   0  0  0  0  0  0  0  0  0  0  0  0
  -43.9406  168.0319   81.0433 C   0  0  0  0  0  0  0  0  0  0  0  0
  -42.7281  168.6827   80.8803 C   0  0  0  0  0  0  0  0  0  0  0  0
  -41.5714  168.0807   81.3209 C   0  0  0  0  0  0  0  0  0  0  0  0
  -41.5721  166.8351   81.9275 C   0  0  0  0  0  0  0  0  0  0  0  0
  -40.6683  163.8865   82.0120 C   0  0  0  0  0  0  0  0  0  0  0  0
  -41.2879  162.7753   81.2528 C   0  0  0  0  0  0  0  0  0  0  0  0
  -38.9386  160.0496   81.8779 C   0  0  0  0  0  0  0  0  0  0  0  0
  -39.2362  161.3676   81.5526 C   0  0  0  0  0  0  0  0  0  0  0  0
  -37.5826  159.4588   81.9609 C   0  0  0  0  0  0  0  0  0  0  0  0
  -36.0108  157.8709   81.1022 C   0  0  0  0  0  0  0  0  0  0  0  0
  -35.8261  156.5934   80.3998 C   0  0  0  0  0  0  0  0  0  0  0  0
  -35.2407  156.6278   79.1592 C   0  0  0  0  0  0  0  0  0  0  0  0
  -35.0808  155.4108   78.5138 C   0  0  0  0  0  0  0  0  0  0  0  0
  -36.0534  154.1833   80.2838 C   0  0  0  0  0  0  0  0  0  0  0  0
  -36.2192  155.3757   80.9383 C   0  0  0  0  0  0  0  0  0  0  0  0
  -35.7415  151.7341   80.8321 C   0  0  0  0  0  0  0  0  0  0  0  0
  -34.3616  150.5062   79.2040 C   0  0  0  0  0  0  0  0  0  0  0  0
  -33.3722  149.5570   79.3316 C   0  0  0  0  0  0  0  0  0  0  0  0
  -33.2691  148.5305   78.4049 C   0  0  0  0  0  0  0  0  0  0  0  0
  -34.1915  148.4738   77.3454 C   0  0  0  0  0  0  0  0  0  0  0  0
  -35.1910  149.4129   77.2004 C   0  0  0  0  0  0  0  0  0  0  0  0
  -35.2595  150.4244   78.1402 C   0  0  0  0  0  0  0  0  0  0  0  0
  -32.0697  147.7575   78.6933 C   0  0  0  0  0  0  0  0  0  0  0  0
  -32.3575  149.3345   80.3611 C   0  0  2  0  0  0  0  0  0  0  0  0
  -31.7433  150.5563   80.9505 C   0  0  0  0  0  0  0  0  0  0  0  0
  -30.4880  150.1738   81.7034 C   0  0  0  0  0  0  0  0  0  0  0  0
  -29.5237  149.4254   80.8305 C   0  0  0  0  0  0  0  0  0  0  0  0
  -30.1249  148.1151   80.3463 C   0  0  0  0  0  0  0  0  0  0  0  0
  -37.8576  158.5446   79.8192 C   0  0  0  0  0  0  0  0  0  0  0  0
  -45.0937  166.0947   81.8424 N   0  0  0  0  0  0  0  0  0  0  0  0
  -41.5177  164.3982   83.0632 N   0  0  0  0  0  0  0  0  0  0  0  0
  -40.6018  161.5209   81.5562 N   0  0  0  0  0  0  0  0  0  0  0  0
  -41.1055  160.3499   81.8703 N   0  0  0  0  0  0  0  0  0  0  0  0
  -40.1295  159.4708   82.0631 N   0  0  0  0  0  0  0  0  0  0  0  0
  -35.4701  154.2508   79.0552 N   0  0  0  0  0  0  0  0  0  0  0  0
  -36.4474  152.9330   80.7824 N   0  0  0  0  0  0  0  0  0  0  0  0
  -34.4805  151.5307   80.1598 N   0  0  0  0  0  0  0  0  0  0  0  0
  -31.4589  148.3719   79.8163 N   0  0  0  0  0  0  0  0  0  0  0  0
  -37.3977  158.2858   81.1808 N   0  0  2  0  0  4  0  0  0  0  0  0
  -36.2137  150.7823   81.4794 O   0  0  0  0  0  0  0  0  0  0  0  0
  -31.6919  146.7516   78.0464 O   0  0  0  0  0  0  0  0  0  0  0  0
  1  2  2  0
  6  1  1  0
  2  3  1  0
  4  3  2  0
  5  4  1  0
  6  5  2  0
  5 39  1  0
  7  6  1  0
  7  8  2  0
 40  7  1  0
  8  9  1  0
  8 13  1  0
  9 10  1  0
  9 39  2  0
 10 11  2  0
 12 11  1  0
 13 12  2  0
 15 14  1  0
 14 40  1  0
 41 15  1  0
 16 17  2  0
 18 16  1  0
 16 43  1  0
 17 41  1  0
 48 18  1  0
 20 19  1  0
 19 48  1  0
 20 21  2  0
 24 20  1  0
 22 21  1  0
 44 22  2  0
 23 24  2  0
 23 44  1  0
 45 23  1  0
 25 45  1  0
 46 25  1  0
 25 49  2  0
 26 27  2  0
 26 31  1  0
 26 46  1  0
 27 28  1  0
 27 33  1  0
 28 29  2  0
 28 32  1  0
 29 30  1  0
 30 31  2  0
 32 47  1  0
 32 50  2  0
 33 34  1  6
 33 47  1  0
 34 35  1  0
 35 36  1  0
 36 37  1  0
 37 47  1  0
 48 38  1  6
 41 42  1  0
 42 43  2  0
M  CHG  1  48   1
M  END
$$$$
