
     RDKit          3D

 50 57  0  0  0  0  0  0  0  0999 V2000
  -44.9673  163.3302   83.6391 C   0  0  0  0  0  0  0  0  0  0  0  0
  -46.2984  162.9946   83.4013 C   0  0  0  0  0  0  0  0  0  0  0  0
  -46.9422  163.5947   82.3618 C   0  0  0  0  0  0  0  0  0  0  0  0
  -46.2739  164.5159   81.5692 C   0  0  0  0  0  0  0  0  0  0  0  0
  -44.9614  164.8595   81.7883 C   0  0  0  0  0  0  0  0  0  0  0  0
  -44.3033  164.2416   82.8543 C   0  0  0  0  0  0  0  0  0  0  0  0
  -43.0040  164.5819   83.0870 C   0  0  0  0  0  0  0  0  0  0  0  0
  -42.4041  165.5319   82.2486 C   0  0  0  0  0  0  0  0  0  0  0  0
  -43.0648  166.1323   81.2035 C   0  0  0  0  0  0  0  0  0  0  0  0
  -42.4447  167.0650   80.3980 C   0  0  0  0  0  0  0  0  0  0  0  0
  -41.1247  167.3964   80.6589 C   0  0  0  0  0  0  0  0  0  0  0  0
  -40.4690  166.7923   81.7076 C   0  0  0  0  0  0  0  0  0  0  0  0
  -41.0841  165.8547   82.5213 C   0  0  0  0  0  0  0  0  0  0  0  0
  -40.8085  163.8147   83.8395 C   0  0  0  0  0  0  0  0  0  0  0  0
  -40.2644  162.5678   84.4263 C   0  0  0  0  0  0  0  0  0  0  0  0
  -39.7310  160.6929   81.3378 C   0  0  0  0  0  0  0  0  0  0  0  0
  -39.9054  161.8770   82.0442 C   0  0  0  0  0  0  0  0  0  0  0  0
  -39.5597  160.5719   79.8712 C   0  0  0  0  0  0  0  0  0  0  0  0
  -39.5825  159.1745   77.9280 C   0  0  0  0  0  0  0  0  0  0  0  0
  -38.9592  157.8887   77.5849 C   0  0  0  0  0  0  0  0  0  0  0  0
  -39.3884  157.2572   76.4448 C   0  0  0  0  0  0  0  0  0  0  0  0
  -38.7891  156.0434   76.1438 C   0  0  0  0  0  0  0  0  0  0  0  0
  -37.3913  156.0998   78.0487 C   0  0  0  0  0  0  0  0  0  0  0  0
  -37.9708  157.3012   78.3627 C   0  0  0  0  0  0  0  0  0  0  0  0
  -35.9389  154.1514   78.7490 C   0  0  0  0  0  0  0  0  0  0  0  0
  -34.7630  152.1966   79.6756 C   0  0  0  0  0  0  0  0  0  0  0  0
  -34.1363  151.5576   80.7221 C   0  0  0  0  0  0  0  0  0  0  0  0
  -33.6466  150.2706   80.5585 C   0  0  0  0  0  0  0  0  0  0  0  0
  -33.8078  149.6329   79.3160 C   0  0  0  0  0  0  0  0  0  0  0  0
  -34.4342  150.2540   78.2559 C   0  0  0  0  0  0  0  0  0  0  0  0
  -34.9047  151.5386   78.4543 C   0  0  0  0  0  0  0  0  0  0  0  0
  -32.9189  149.8898   81.7605 C   0  0  0  0  0  0  0  0  0  0  0  0
  -33.9148  151.9475   82.1142 C   0  0  2  0  0  0  0  0  0  0  0  0
  -33.6055  153.3848   82.3508 C   0  0  0  0  0  0  0  0  0  0  0  0
  -33.0496  153.5552   83.7475 C   0  0  0  0  0  0  0  0  0  0  0  0
  -31.8548  152.6777   83.9802 C   0  0  0  0  0  0  0  0  0  0  0  0
  -32.2232  151.2067   83.8638 C   0  0  0  0  0  0  0  0  0  0  0  0
  -41.3363  159.0907   79.4861 C   0  0  0  0  0  0  0  0  0  0  0  0
  -44.3512  165.7582   81.0132 N   0  0  0  0  0  0  0  0  0  0  0  0
  -42.2196  163.9932   84.0949 N   0  0  0  0  0  0  0  0  0  0  0  0
  -40.0535  161.5734   83.3761 N   0  0  0  0  0  0  0  0  0  0  0  0
  -39.9712  160.2664   83.4699 N   0  0  0  0  0  0  0  0  0  0  0  0
  -39.7801  159.7345   82.2686 N   0  0  0  0  0  0  0  0  0  0  0  0
  -37.8388  155.4982   76.9119 N   0  0  0  0  0  0  0  0  0  0  0  0
  -36.4012  155.4631   78.8112 N   0  0  0  0  0  0  0  0  0  0  0  0
  -35.2823  153.4913   79.8521 N   0  0  0  0  0  0  0  0  0  0  0  0
  -32.9838  151.0034   82.6365 N   0  0  0  0  0  0  0  0  0  0  0  0
  -39.8987  159.2996   79.3373 N   0  0  2  0  0  4  0  0  0  0  0  0
  -36.0877  153.5087   77.6942 O   0  0  0  0  0  0  0  0  0  0  0  0
  -32.3605  148.7812   81.9399 O   0  0  0  0  0  0  0  0  0  0  0  0
  1  2  2  0
  6  1  1  0
  2  3  1  0
  4  3  2  0
  5  4  1  0
  6  5  2  0
  5 39  1  0
  7  6  1  0
  7  8  2  0
 40  7  1  0
  8  9  1  0
  8 13  1  0
  9 10  1  0
  9 39  2  0
 10 11  2  0
 12 11  1  0
 13 12  2  0
 15 14  1  0
 14 40  1  0
 41 15  1  0
 16 17  2  0
 18 16  1  0
 16 43  1  0
 17 41  1  0
 48 18  1  0
 20 19  1  0
 19 48  1  0
 20 21  2  0
 24 20  1  0
 22 21  1  0
 44 22  2  0
 23 24  2  0
 23 44  1  0
 45 23  1  0
 25 45  1  0
 46 25  1  0
 25 49  2  0
 26 27  2  0
 26 31  1  0
 26 46  1  0
 27 28  1  0
 27 33  1  0
 28 29  2  0
 28 32  1  0
 29 30  1  0
 30 31  2  0
 32 47  1  0
 32 50  2  0
 33 34  1  6
 33 47  1  0
 34 35  1  0
 35 36  1  0
 36 37  1  0
 37 47  1  0
 48 38  1  6
 41 42  1  0
 42 43  2  0
M  CHG  1  48   1
M  END
$$$$
