
     RDKit          3D

 50 57  0  0  0  0  0  0  0  0999 V2000
  -40.2124  163.7005   81.3622 C   0  0  0  0  0  0  0  0  0  0  0  0
  -39.7634  164.3951   80.2411 C   0  0  0  0  0  0  0  0  0  0  0  0
  -40.6849  165.0048   79.4445 C   0  0  0  0  0  0  0  0  0  0  0  0
  -42.0339  164.9258   79.7564 C   0  0  0  0  0  0  0  0  0  0  0  0
  -42.4955  164.2454   80.8577 C   0  0  0  0  0  0  0  0  0  0  0  0
  -41.5482  163.6221   81.6734 C   0  0  0  0  0  0  0  0  0  0  0  0
  -41.9954  162.9363   82.7632 C   0  0  0  0  0  0  0  0  0  0  0  0
  -43.3762  162.8921   83.0017 C   0  0  0  0  0  0  0  0  0  0  0  0
  -44.2969  163.5100   82.1894 C   0  0  0  0  0  0  0  0  0  0  0  0
  -45.6496  163.4457   82.4524 C   0  0  0  0  0  0  0  0  0  0  0  0
  -46.0780  162.7383   83.5642 C   0  0  0  0  0  0  0  0  0  0  0  0
  -45.1511  162.1210   84.3731 C   0  0  0  0  0  0  0  0  0  0  0  0
  -43.7909  162.1806   84.1164 C   0  0  0  0  0  0  0  0  0  0  0  0
  -40.4885  161.0846   83.2884 C   0  0  0  0  0  0  0  0  0  0  0  0
  -39.6852  161.2282   82.0519 C   0  0  0  0  0  0  0  0  0  0  0  0
  -36.1714  160.2323   82.0404 C   0  0  0  0  0  0  0  0  0  0  0  0
  -37.4154  160.3633   81.4348 C   0  0  0  0  0  0  0  0  0  0  0  0
  -34.9627  159.6364   81.4251 C   0  0  0  0  0  0  0  0  0  0  0  0
  -33.5393  159.0934   83.2713 C   0  0  0  0  0  0  0  0  0  0  0  0
  -33.0300  157.7538   82.9463 C   0  0  0  0  0  0  0  0  0  0  0  0
  -31.6725  157.6035   82.8138 C   0  0  0  0  0  0  0  0  0  0  0  0
  -31.2157  156.3317   82.5027 C   0  0  0  0  0  0  0  0  0  0  0  0
  -33.3901  155.4067   82.4612 C   0  0  0  0  0  0  0  0  0  0  0  0
  -33.8612  156.6560   82.7696 C   0  0  0  0  0  0  0  0  0  0  0  0
  -33.9423  153.1313   81.5051 C   0  0  0  0  0  0  0  0  0  0  0  0
  -34.6660  150.8231   81.0460 C   0  0  0  0  0  0  0  0  0  0  0  0
  -34.5669  150.2103   79.8168 C   0  0  0  0  0  0  0  0  0  0  0  0
  -34.2397  148.8652   79.7342 C   0  0  0  0  0  0  0  0  0  0  0  0
  -34.0056  148.1469   80.9199 C   0  0  0  0  0  0  0  0  0  0  0  0
  -34.0974  148.7419   82.1606 C   0  0  0  0  0  0  0  0  0  0  0  0
  -34.4309  150.0827   82.2040 C   0  0  0  0  0  0  0  0  0  0  0  0
  -34.3370  148.4438   78.3442 C   0  0  0  0  0  0  0  0  0  0  0  0
  -34.6730  150.7299   78.4537 C   0  0  2  0  0  0  0  0  0  0  0  0
  -35.7003  151.7850   78.2329 C   0  0  0  0  0  0  0  0  0  0  0  0
  -35.9412  151.9481   76.7483 C   0  0  0  0  0  0  0  0  0  0  0  0
  -36.3225  150.6486   76.1019 C   0  0  0  0  0  0  0  0  0  0  0  0
  -35.2037  149.6257   76.2243 C   0  0  0  0  0  0  0  0  0  0  0  0
  -33.7744  161.3151   82.5511 C   0  0  0  0  0  0  0  0  0  0  0  0
  -43.8018  164.1796   81.1229 N   0  0  0  0  0  0  0  0  0  0  0  0
  -41.1395  162.3114   83.6877 N   0  0  0  0  0  0  0  0  0  0  0  0
  -38.2804  160.9394   82.3338 N   0  0  0  0  0  0  0  0  0  0  0  0
  -37.5903  161.1478   83.4311 N   0  0  0  0  0  0  0  0  0  0  0  0
  -36.3397  160.7328   83.2687 N   0  0  0  0  0  0  0  0  0  0  0  0
  -32.0391  155.2903   82.3362 N   0  0  0  0  0  0  0  0  0  0  0  0
  -34.1923  154.2740   82.2601 N   0  0  0  0  0  0  0  0  0  0  0  0
  -34.9716  152.1933   81.1259 N   0  0  0  0  0  0  0  0  0  0  0  0
  -34.7470  149.5849   77.6084 N   0  0  0  0  0  0  0  0  0  0  0  0
  -33.7478  159.9256   82.1027 N   0  0  2  0  0  4  0  0  0  0  0  0
  -32.7773  152.8933   81.1389 O   0  0  0  0  0  0  0  0  0  0  0  0
  -34.0949  147.2859   77.9272 O   0  0  0  0  0  0  0  0  0  0  0  0
  1  2  2  0
  6  1  1  0
  2  3  1  0
  4  3  2  0
  5  4  1  0
  6  5  2  0
  5 39  1  0
  7  6  1  0
  7  8  2  0
 40  7  1  0
  8  9  1  0
  8 13  1  0
  9 10  1  0
  9 39  2  0
 10 11  2  0
 12 11  1  0
 13 12  2  0
 15 14  1  0
 14 40  1  0
 41 15  1  0
 16 17  2  0
 18 16  1  0
 16 43  1  0
 17 41  1  0
 48 18  1  0
 20 19  1  0
 19 48  1  0
 20 21  2  0
 24 20  1  0
 22 21  1  0
 44 22  2  0
 23 24  2  0
 23 44  1  0
 45 23  1  0
 25 45  1  0
 46 25  1  0
 25 49  2  0
 26 27  2  0
 26 31  1  0
 26 46  1  0
 27 28  1  0
 27 33  1  0
 28 29  2  0
 28 32  1  0
 29 30  1  0
 30 31  2  0
 32 47  1  0
 32 50  2  0
 33 34  1  1
 33 47  1  0
 34 35  1  0
 35 36  1  0
 36 37  1  0
 37 47  1  0
 48 38  1  1
 41 42  1  0
 42 43  2  0
M  CHG  1  48   1
M  END
$$$$
