
     RDKit          3D

 50 57  0  0  0  0  0  0  0  0999 V2000
  -44.7543  162.9190   83.8816 C   0  0  0  0  0  0  0  0  0  0  0  0
  -46.1308  162.8223   84.0737 C   0  0  0  0  0  0  0  0  0  0  0  0
  -46.9297  163.7839   83.5330 C   0  0  0  0  0  0  0  0  0  0  0  0
  -46.3697  164.8277   82.8116 C   0  0  0  0  0  0  0  0  0  0  0  0
  -45.0146  164.9397   82.6117 C   0  0  0  0  0  0  0  0  0  0  0  0
  -44.1979  163.9516   83.1664 C   0  0  0  0  0  0  0  0  0  0  0  0
  -42.8515  164.0578   82.9826 C   0  0  0  0  0  0  0  0  0  0  0  0
  -42.3631  165.1506   82.2528 C   0  0  0  0  0  0  0  0  0  0  0  0
  -43.1793  166.1160   81.7133 C   0  0  0  0  0  0  0  0  0  0  0  0
  -42.6655  167.1799   81.0010 C   0  0  0  0  0  0  0  0  0  0  0  0
  -41.2928  167.2666   80.8326 C   0  0  0  0  0  0  0  0  0  0  0  0
  -40.4809  166.2971   81.3762 C   0  0  0  0  0  0  0  0  0  0  0  0
  -40.9885  165.2255   82.0927 C   0  0  0  0  0  0  0  0  0  0  0  0
  -42.4482  161.9215   84.1003 C   0  0  0  0  0  0  0  0  0  0  0  0
  -41.6324  160.7110   83.8475 C   0  0  0  0  0  0  0  0  0  0  0  0
  -39.2755  160.5394   81.0628 C   0  0  0  0  0  0  0  0  0  0  0  0
  -40.0476  159.9546   82.0595 C   0  0  0  0  0  0  0  0  0  0  0  0
  -38.3748  159.8253   80.1282 C   0  0  0  0  0  0  0  0  0  0  0  0
  -36.2859  158.6584   80.0633 C   0  0  0  0  0  0  0  0  0  0  0  0
  -35.3496  157.8050   80.8079 C   0  0  0  0  0  0  0  0  0  0  0  0
  -34.5692  158.4011   81.7664 C   0  0  0  0  0  0  0  0  0  0  0  0
  -33.6903  157.5768   82.4528 C   0  0  0  0  0  0  0  0  0  0  0  0
  -34.3526  155.6438   81.2652 C   0  0  0  0  0  0  0  0  0  0  0  0
  -35.2285  156.4415   80.5765 C   0  0  0  0  0  0  0  0  0  0  0  0
  -33.2773  153.3842   81.6313 C   0  0  0  0  0  0  0  0  0  0  0  0
  -33.4385  150.9598   82.0295 C   0  0  0  0  0  0  0  0  0  0  0  0
  -33.3785  149.6637   81.5681 C   0  0  0  0  0  0  0  0  0  0  0  0
  -33.6880  148.6091   82.4138 C   0  0  0  0  0  0  0  0  0  0  0  0
  -34.0538  148.8860   83.7427 C   0  0  0  0  0  0  0  0  0  0  0  0
  -34.1180  150.1763   84.2253 C   0  0  0  0  0  0  0  0  0  0  0  0
  -33.8079  151.2022   83.3522 C   0  0  0  0  0  0  0  0  0  0  0  0
  -33.6785  147.3733   81.6445 C   0  0  0  0  0  0  0  0  0  0  0  0
  -32.9554  149.1006   80.2864 C   0  0  2  0  0  0  0  0  0  0  0  0
  -33.3225  149.8832   79.0738 C   0  0  0  0  0  0  0  0  0  0  0  0
  -33.1531  149.0155   77.8462 C   0  0  0  0  0  0  0  0  0  0  0  0
  -33.9407  147.7427   77.9531 C   0  0  0  0  0  0  0  0  0  0  0  0
  -33.4595  146.8961   79.1213 C   0  0  0  0  0  0  0  0  0  0  0  0
  -38.2600  157.5500   80.6834 C   0  0  0  0  0  0  0  0  0  0  0  0
  -44.5075  165.9633   81.9216 N   0  0  0  0  0  0  0  0  0  0  0  0
  -41.9304  163.1014   83.4462 N   0  0  0  0  0  0  0  0  0  0  0  0
  -40.7240  160.9471   82.7271 N   0  0  0  0  0  0  0  0  0  0  0  0
  -40.3773  162.0789   82.1590 N   0  0  0  0  0  0  0  0  0  0  0  0
  -39.5197  161.8494   81.1720 N   0  0  0  0  0  0  0  0  0  0  0  0
  -33.5925  156.2648   82.2090 N   0  0  0  0  0  0  0  0  0  0  0  0
  -34.1869  154.2670   81.0556 N   0  0  0  0  0  0  0  0  0  0  0  0
  -33.0985  152.0257   81.1778 N   0  0  0  0  0  0  0  0  0  0  0  0
  -33.3656  147.7361   80.3095 N   0  0  0  0  0  0  0  0  0  0  0  0
  -37.5601  158.8306   80.7330 N   0  0  2  0  0  4  0  0  0  0  0  0
  -32.5834  153.7721   82.5884 O   0  0  0  0  0  0  0  0  0  0  0  0
  -33.9082  146.2337   82.1152 O   0  0  0  0  0  0  0  0  0  0  0  0
  1  2  2  0
  6  1  1  0
  2  3  1  0
  4  3  2  0
  5  4  1  0
  6  5  2  0
  5 39  1  0
  7  6  1  0
  7  8  2  0
 40  7  1  0
  8  9  1  0
  8 13  1  0
  9 10  1  0
  9 39  2  0
 10 11  2  0
 12 11  1  0
 13 12  2  0
 15 14  1  0
 14 40  1  0
 41 15  1  0
 16 17  2  0
 18 16  1  0
 16 43  1  0
 17 41  1  0
 48 18  1  0
 20 19  1  0
 19 48  1  0
 20 21  2  0
 24 20  1  0
 22 21  1  0
 44 22  2  0
 23 24  2  0
 23 44  1  0
 45 23  1  0
 25 45  1  0
 46 25  1  0
 25 49  2  0
 26 27  2  0
 26 31  1  0
 26 46  1  0
 27 28  1  0
 27 33  1  0
 28 29  2  0
 28 32  1  0
 29 30  1  0
 30 31  2  0
 32 47  1  0
 32 50  2  0
 33 34  1  6
 33 47  1  0
 34 35  1  0
 35 36  1  0
 36 37  1  0
 37 47  1  0
 48 38  1  6
 41 42  1  0
 42 43  2  0
M  CHG  1  48   1
M  END
$$$$
