
     RDKit          3D

 50 57  0  0  0  0  0  0  0  0999 V2000
  -44.8123  162.5968   83.0320 C   0  0  0  0  0  0  0  0  0  0  0  0
  -45.9090  161.9370   82.4815 C   0  0  0  0  0  0  0  0  0  0  0  0
  -46.3721  162.3501   81.2691 C   0  0  0  0  0  0  0  0  0  0  0  0
  -45.7552  163.4043   80.6120 C   0  0  0  0  0  0  0  0  0  0  0  0
  -44.6727  164.0669   81.1391 C   0  0  0  0  0  0  0  0  0  0  0  0
  -44.1992  163.6404   82.3821 C   0  0  0  0  0  0  0  0  0  0  0  0
  -43.1320  164.2966   82.9190 C   0  0  0  0  0  0  0  0  0  0  0  0
  -42.5734  165.3612   82.1980 C   0  0  0  0  0  0  0  0  0  0  0  0
  -43.0508  165.7703   80.9756 C   0  0  0  0  0  0  0  0  0  0  0  0
  -42.4780  166.8234   80.2927 C   0  0  0  0  0  0  0  0  0  0  0  0
  -41.3970  167.4764   80.8629 C   0  0  0  0  0  0  0  0  0  0  0  0
  -40.9243  167.0624   82.0875 C   0  0  0  0  0  0  0  0  0  0  0  0
  -41.4934  166.0060   82.7800 C   0  0  0  0  0  0  0  0  0  0  0  0
  -41.5058  162.9125   84.1085 C   0  0  0  0  0  0  0  0  0  0  0  0
  -41.8780  161.6898   84.8579 C   0  0  0  0  0  0  0  0  0  0  0  0
  -39.4354  159.2309   83.7065 C   0  0  0  0  0  0  0  0  0  0  0  0
  -39.7785  160.4537   84.2708 C   0  0  0  0  0  0  0  0  0  0  0  0
  -38.0593  158.7504   83.4418 C   0  0  0  0  0  0  0  0  0  0  0  0
  -36.2783  158.4764   81.8661 C   0  0  0  0  0  0  0  0  0  0  0  0
  -35.9446  157.0454   81.8482 C   0  0  0  0  0  0  0  0  0  0  0  0
  -35.8055  156.4089   83.0559 C   0  0  0  0  0  0  0  0  0  0  0  0
  -35.4862  155.0600   83.0141 C   0  0  0  0  0  0  0  0  0  0  0  0
  -35.4496  154.9966   80.6518 C   0  0  0  0  0  0  0  0  0  0  0  0
  -35.7661  156.3298   80.6721 C   0  0  0  0  0  0  0  0  0  0  0  0
  -35.2150  152.8559   79.3257 C   0  0  0  0  0  0  0  0  0  0  0  0
  -35.7165  151.1444   77.6282 C   0  0  0  0  0  0  0  0  0  0  0  0
  -35.1718  149.8859   77.5033 C   0  0  0  0  0  0  0  0  0  0  0  0
  -35.9633  148.8224   77.0963 C   0  0  0  0  0  0  0  0  0  0  0  0
  -37.3234  149.0506   76.8233 C   0  0  0  0  0  0  0  0  0  0  0  0
  -37.8892  150.3024   76.9442 C   0  0  0  0  0  0  0  0  0  0  0  0
  -37.0684  151.3393   77.3470 C   0  0  0  0  0  0  0  0  0  0  0  0
  -35.1179  147.6510   76.9164 C   0  0  0  0  0  0  0  0  0  0  0  0
  -33.8377  149.3641   77.7983 C   0  0  2  0  0  0  0  0  0  0  0  0
  -32.6966  150.2681   77.4851 C   0  0  0  0  0  0  0  0  0  0  0  0
  -31.4097  149.4727   77.4921 C   0  0  0  0  0  0  0  0  0  0  0  0
  -31.4745  148.3038   76.5534 C   0  0  0  0  0  0  0  0  0  0  0  0
  -32.5618  147.3253   76.9697 C   0  0  0  0  0  0  0  0  0  0  0  0
  -37.9912  160.0346   81.4811 C   0  0  0  0  0  0  0  0  0  0  0  0
  -44.1094  165.0848   80.4853 N   0  0  0  0  0  0  0  0  0  0  0  0
  -42.5319  163.9296   84.1368 N   0  0  0  0  0  0  0  0  0  0  0  0
  -41.1488  160.5392   84.3283 N   0  0  0  0  0  0  0  0  0  0  0  0
  -41.6117  159.4193   83.8231 N   0  0  0  0  0  0  0  0  0  0  0  0
  -40.6057  158.6367   83.4515 N   0  0  0  0  0  0  0  0  0  0  0  0
  -35.3183  154.3940   81.8658 N   0  0  0  0  0  0  0  0  0  0  0  0
  -35.2465  154.2380   79.4898 N   0  0  0  0  0  0  0  0  0  0  0  0
  -34.9182  152.2157   78.0666 N   0  0  0  0  0  0  0  0  0  0  0  0
  -33.7947  148.0630   77.2184 N   0  0  0  0  0  0  0  0  0  0  0  0
  -37.6907  158.7325   82.0697 N   0  0  2  0  0  4  0  0  0  0  0  0
  -35.4591  152.1267   80.3038 O   0  0  0  0  0  0  0  0  0  0  0  0
  -35.5263  146.5193   76.5624 O   0  0  0  0  0  0  0  0  0  0  0  0
  1  2  2  0
  6  1  1  0
  2  3  1  0
  4  3  2  0
  5  4  1  0
  6  5  2  0
  5 39  1  0
  7  6  1  0
  7  8  2  0
 40  7  1  0
  8  9  1  0
  8 13  1  0
  9 10  1  0
  9 39  2  0
 10 11  2  0
 12 11  1  0
 13 12  2  0
 15 14  1  0
 14 40  1  0
 41 15  1  0
 16 17  2  0
 18 16  1  0
 16 43  1  0
 17 41  1  0
 48 18  1  0
 20 19  1  0
 19 48  1  0
 20 21  2  0
 24 20  1  0
 22 21  1  0
 44 22  2  0
 23 24  2  0
 23 44  1  0
 45 23  1  0
 25 45  1  0
 46 25  1  0
 25 49  2  0
 26 27  2  0
 26 31  1  0
 26 46  1  0
 27 28  1  0
 27 33  1  0
 28 29  2  0
 28 32  1  0
 29 30  1  0
 30 31  2  0
 32 47  1  0
 32 50  2  0
 33 34  1  6
 33 47  1  0
 34 35  1  0
 35 36  1  0
 36 37  1  0
 37 47  1  0
 48 38  1  1
 41 42  1  0
 42 43  2  0
M  CHG  1  48   1
M  END
$$$$
