
     RDKit          3D

 50 57  0  0  0  0  0  0  0  0999 V2000
  -45.6486  163.7935   83.4708 C   0  0  0  0  0  0  0  0  0  0  0  0
  -47.0077  163.9481   83.7349 C   0  0  0  0  0  0  0  0  0  0  0  0
  -47.9005  163.5780   82.7750 C   0  0  0  0  0  0  0  0  0  0  0  0
  -47.4501  163.0619   81.5691 C   0  0  0  0  0  0  0  0  0  0  0  0
  -46.1139  162.9022   81.2907 C   0  0  0  0  0  0  0  0  0  0  0  0
  -45.2006  163.2814   82.2773 C   0  0  0  0  0  0  0  0  0  0  0  0
  -43.8722  163.1364   82.0084 C   0  0  0  0  0  0  0  0  0  0  0  0
  -43.4981  162.6198   80.7600 C   0  0  0  0  0  0  0  0  0  0  0  0
  -44.4084  162.2515   79.7983 C   0  0  0  0  0  0  0  0  0  0  0  0
  -44.0060  161.7473   78.5788 C   0  0  0  0  0  0  0  0  0  0  0  0
  -42.6494  161.6143   78.3292 C   0  0  0  0  0  0  0  0  0  0  0  0
  -41.7429  161.9858   79.2960 C   0  0  0  0  0  0  0  0  0  0  0  0
  -42.1384  162.4928   80.5232 C   0  0  0  0  0  0  0  0  0  0  0  0
  -41.8154  162.4538   83.1394 C   0  0  0  0  0  0  0  0  0  0  0  0
  -40.4556  162.9989   82.9187 C   0  0  0  0  0  0  0  0  0  0  0  0
  -37.6429  160.6743   82.7653 C   0  0  0  0  0  0  0  0  0  0  0  0
  -38.3632  161.7672   82.2980 C   0  0  0  0  0  0  0  0  0  0  0  0
  -36.4041  160.1275   82.1644 C   0  0  0  0  0  0  0  0  0  0  0  0
  -36.2573  157.7409   82.0545 C   0  0  0  0  0  0  0  0  0  0  0  0
  -36.2302  156.5667   81.1714 C   0  0  0  0  0  0  0  0  0  0  0  0
  -37.2990  156.3764   80.3320 C   0  0  0  0  0  0  0  0  0  0  0  0
  -37.2532  155.2596   79.5113 C   0  0  0  0  0  0  0  0  0  0  0  0
  -35.1540  154.5599   80.3416 C   0  0  0  0  0  0  0  0  0  0  0  0
  -35.1800  155.6588   81.1599 C   0  0  0  0  0  0  0  0  0  0  0  0
  -34.1446  152.2911   79.8623 C   0  0  0  0  0  0  0  0  0  0  0  0
  -33.0363  150.1354   79.4298 C   0  0  0  0  0  0  0  0  0  0  0  0
  -32.6556  148.9742   80.0648 C   0  0  0  0  0  0  0  0  0  0  0  0
  -32.6226  147.7774   79.3651 C   0  0  0  0  0  0  0  0  0  0  0  0
  -32.9896  147.7710   78.0080 C   0  0  0  0  0  0  0  0  0  0  0  0
  -33.3759  148.9219   77.3539 C   0  0  0  0  0  0  0  0  0  0  0  0
  -33.3916  150.0970   78.0819 C   0  0  0  0  0  0  0  0  0  0  0  0
  -32.0605  146.7467   80.2260 C   0  0  0  0  0  0  0  0  0  0  0  0
  -32.3139  148.6883   81.4578 C   0  0  2  0  0  0  0  0  0  0  0  0
  -31.5434  149.7428   82.1730 C   0  0  0  0  0  0  0  0  0  0  0  0
  -30.9593  149.1635   83.4428 C   0  0  0  0  0  0  0  0  0  0  0  0
  -30.1242  147.9480   83.1653 C   0  0  0  0  0  0  0  0  0  0  0  0
  -30.9614  146.8344   82.5556 C   0  0  0  0  0  0  0  0  0  0  0  0
  -35.7355  159.0619   80.1855 C   0  0  0  0  0  0  0  0  0  0  0  0
  -45.7140  162.4126   80.1154 N   0  0  0  0  0  0  0  0  0  0  0  0
  -42.8588  163.4330   82.9373 N   0  0  0  0  0  0  0  0  0  0  0  0
  -39.4598  161.9457   83.1067 N   0  0  0  0  0  0  0  0  0  0  0  0
  -39.4036  161.0049   84.0207 N   0  0  0  0  0  0  0  0  0  0  0  0
  -38.3315  160.2460   83.8282 N   0  0  0  0  0  0  0  0  0  0  0  0
  -36.2287  154.3989   79.5211 N   0  0  0  0  0  0  0  0  0  0  0  0
  -34.1224  153.6103   80.3064 N   0  0  0  0  0  0  0  0  0  0  0  0
  -33.0946  151.3428   80.1481 N   0  0  0  0  0  0  0  0  0  0  0  0
  -31.7491  147.3800   81.4564 N   0  0  0  0  0  0  0  0  0  0  0  0
  -36.5943  158.9697   81.3630 N   0  0  2  0  0  4  0  0  0  0  0  0
  -35.1086  151.9006   79.1795 O   0  0  0  0  0  0  0  0  0  0  0  0
  -31.9025  145.5464   79.8987 O   0  0  0  0  0  0  0  0  0  0  0  0
  1  2  2  0
  6  1  1  0
  2  3  1  0
  4  3  2  0
  5  4  1  0
  6  5  2  0
  5 39  1  0
  7  6  1  0
  7  8  2  0
 40  7  1  0
  8  9  1  0
  8 13  1  0
  9 10  1  0
  9 39  2  0
 10 11  2  0
 12 11  1  0
 13 12  2  0
 15 14  1  0
 14 40  1  0
 41 15  1  0
 16 17  2  0
 18 16  1  0
 16 43  1  0
 17 41  1  0
 48 18  1  0
 20 19  1  0
 19 48  1  0
 20 21  2  0
 24 20  1  0
 22 21  1  0
 44 22  2  0
 23 24  2  0
 23 44  1  0
 45 23  1  0
 25 45  1  0
 46 25  1  0
 25 49  2  0
 26 27  2  0
 26 31  1  0
 26 46  1  0
 27 28  1  0
 27 33  1  0
 28 29  2  0
 28 32  1  0
 29 30  1  0
 30 31  2  0
 32 47  1  0
 32 50  2  0
 33 34  1  6
 33 47  1  0
 34 35  1  0
 35 36  1  0
 36 37  1  0
 37 47  1  0
 48 38  1  6
 41 42  1  0
 42 43  2  0
M  CHG  1  48   1
M  END
$$$$
