
     RDKit          3D

 50 57  0  0  0  0  0  0  0  0999 V2000
  -36.6723  150.5458   84.6965 C   0  0  0  0  0  0  0  0  0  0  0  0
  -36.3177  149.2442   85.0445 C   0  0  0  0  0  0  0  0  0  0  0  0
  -36.9671  148.6519   86.0850 C   0  0  0  0  0  0  0  0  0  0  0  0
  -37.9550  149.3425   86.7711 C   0  0  0  0  0  0  0  0  0  0  0  0
  -38.3183  150.6265   86.4423 C   0  0  0  0  0  0  0  0  0  0  0  0
  -37.6514  151.2310   85.3741 C   0  0  0  0  0  0  0  0  0  0  0  0
  -37.9968  152.5079   85.0453 C   0  0  0  0  0  0  0  0  0  0  0  0
  -38.9959  153.1420   85.7969 C   0  0  0  0  0  0  0  0  0  0  0  0
  -39.6432  152.5345   86.8464 C   0  0  0  0  0  0  0  0  0  0  0  0
  -40.6217  153.1880   87.5665 C   0  0  0  0  0  0  0  0  0  0  0  0
  -40.9507  154.4873   87.2144 C   0  0  0  0  0  0  0  0  0  0  0  0
  -40.2982  155.0903   86.1632 C   0  0  0  0  0  0  0  0  0  0  0  0
  -39.3145  154.4414   85.4347 C   0  0  0  0  0  0  0  0  0  0  0  0
  -36.4360  152.5311   83.1641 C   0  0  0  0  0  0  0  0  0  0  0  0
  -36.6591  152.6743   81.7065 C   0  0  0  0  0  0  0  0  0  0  0  0
  -34.6631  155.5806   80.7537 C   0  0  0  0  0  0  0  0  0  0  0  0
  -34.7984  154.2907   81.2528 C   0  0  0  0  0  0  0  0  0  0  0  0
  -33.3933  156.3311   80.6149 C   0  0  0  0  0  0  0  0  0  0  0  0
  -33.7271  157.8009   78.7554 C   0  0  0  0  0  0  0  0  0  0  0  0
  -34.9950  158.4452   78.3856 C   0  0  0  0  0  0  0  0  0  0  0  0
  -35.6169  158.0162   77.2401 C   0  0  0  0  0  0  0  0  0  0  0  0
  -36.8095  158.6417   76.9092 C   0  0  0  0  0  0  0  0  0  0  0  0
  -36.7520  160.0632   78.7964 C   0  0  0  0  0  0  0  0  0  0  0  0
  -35.5726  159.4565   79.1411 C   0  0  0  0  0  0  0  0  0  0  0  0
  -38.5612  161.7639   79.2764 C   0  0  0  0  0  0  0  0  0  0  0  0
  -39.8991  163.6074   80.2114 C   0  0  0  0  0  0  0  0  0  0  0  0
  -40.8621  164.0535   81.0888 C   0  0  0  0  0  0  0  0  0  0  0  0
  -41.3407  165.3517   80.9954 C   0  0  0  0  0  0  0  0  0  0  0  0
  -40.8224  166.1992   80.0006 C   0  0  0  0  0  0  0  0  0  0  0  0
  -39.8563  165.7730   79.1135 C   0  0  0  0  0  0  0  0  0  0  0  0
  -39.4071  164.4712   79.2334 C   0  0  0  0  0  0  0  0  0  0  0  0
  -42.4355  165.5167   81.9407 C   0  0  0  0  0  0  0  0  0  0  0  0
  -41.4986  163.4237   82.2451 C   0  0  2  0  0  0  0  0  0  0  0  0
  -41.7909  161.9688   82.1204 C   0  0  0  0  0  0  0  0  0  0  0  0
  -42.7567  161.5559   83.2092 C   0  0  0  0  0  0  0  0  0  0  0  0
  -44.0076  162.3844   83.1850 C   0  0  0  0  0  0  0  0  0  0  0  0
  -43.6999  163.8506   83.4466 C   0  0  0  0  0  0  0  0  0  0  0  0
  -32.3404  158.4250   80.5436 C   0  0  0  0  0  0  0  0  0  0  0  0
  -39.2657  151.2665   87.1305 N   0  0  0  0  0  0  0  0  0  0  0  0
  -37.4364  153.2049   83.9600 N   0  0  0  0  0  0  0  0  0  0  0  0
  -36.1314  153.9568   81.2450 N   0  0  0  0  0  0  0  0  0  0  0  0
  -36.7713  154.9966   80.7623 N   0  0  0  0  0  0  0  0  0  0  0  0
  -35.9115  155.9644   80.4678 N   0  0  0  0  0  0  0  0  0  0  0  0
  -37.3441  159.6156   77.6548 N   0  0  0  0  0  0  0  0  0  0  0  0
  -37.3641  161.0966   79.5207 N   0  0  0  0  0  0  0  0  0  0  0  0
  -39.3963  162.2992   80.3250 N   0  0  0  0  0  0  0  0  0  0  0  0
  -42.5969  164.2648   82.5875 N   0  0  0  0  0  0  0  0  0  0  0  0
  -33.5437  157.6780   80.1882 N   0  0  2  0  0  4  0  0  0  0  0  0
  -38.9434  161.9066   78.1010 O   0  0  0  0  0  0  0  0  0  0  0  0
  -43.0798  166.5787   82.1136 O   0  0  0  0  0  0  0  0  0  0  0  0
  1  2  2  0
  6  1  1  0
  2  3  1  0
  4  3  2  0
  5  4  1  0
  6  5  2  0
  5 39  1  0
  7  6  1  0
  7  8  2  0
 40  7  1  0
  8  9  1  0
  8 13  1  0
  9 10  1  0
  9 39  2  0
 10 11  2  0
 12 11  1  0
 13 12  2  0
 15 14  1  0
 14 40  1  0
 41 15  1  0
 16 17  2  0
 18 16  1  0
 16 43  1  0
 17 41  1  0
 48 18  1  0
 20 19  1  0
 19 48  1  0
 20 21  2  0
 24 20  1  0
 22 21  1  0
 44 22  2  0
 23 24  2  0
 23 44  1  0
 45 23  1  0
 25 45  1  0
 46 25  1  0
 25 49  2  0
 26 27  2  0
 26 31  1  0
 26 46  1  0
 27 28  1  0
 27 33  1  0
 28 29  2  0
 28 32  1  0
 29 30  1  0
 30 31  2  0
 32 47  1  0
 32 50  2  0
 33 34  1  6
 33 47  1  0
 34 35  1  0
 35 36  1  0
 36 37  1  0
 37 47  1  0
 48 38  1  6
 41 42  1  0
 42 43  2  0
M  CHG  1  48   1
M  END
$$$$
