
     RDKit          3D

 50 57  0  0  0  0  0  0  0  0999 V2000
  -40.9415  165.7839   82.2565 C   0  0  0  0  0  0  0  0  0  0  0  0
  -40.6257  167.1335   82.1160 C   0  0  0  0  0  0  0  0  0  0  0  0
  -41.6456  168.0311   82.0194 C   0  0  0  0  0  0  0  0  0  0  0  0
  -42.9614  167.5948   82.0613 C   0  0  0  0  0  0  0  0  0  0  0  0
  -43.2923  166.2681   82.1994 C   0  0  0  0  0  0  0  0  0  0  0  0
  -42.2443  165.3500   82.2994 C   0  0  0  0  0  0  0  0  0  0  0  0
  -42.5607  164.0303   82.4270 C   0  0  0  0  0  0  0  0  0  0  0  0
  -43.9151  163.6691   82.4473 C   0  0  0  0  0  0  0  0  0  0  0  0
  -44.9359  164.5841   82.3471 C   0  0  0  0  0  0  0  0  0  0  0  0
  -46.2592  164.1945   82.3693 C   0  0  0  0  0  0  0  0  0  0  0  0
  -46.5534  162.8463   82.4954 C   0  0  0  0  0  0  0  0  0  0  0  0
  -45.5266  161.9350   82.5943 C   0  0  0  0  0  0  0  0  0  0  0  0
  -44.1952  162.3176   82.5730 C   0  0  0  0  0  0  0  0  0  0  0  0
  -40.7416  163.0733   83.7501 C   0  0  0  0  0  0  0  0  0  0  0  0
  -40.4079  161.7354   84.2920 C   0  0  0  0  0  0  0  0  0  0  0  0
  -39.8791  158.8460   82.1216 C   0  0  0  0  0  0  0  0  0  0  0  0
  -39.9772  159.4444   83.3722 C   0  0  0  0  0  0  0  0  0  0  0  0
  -39.5776  157.4192   81.8610 C   0  0  0  0  0  0  0  0  0  0  0  0
  -37.2936  157.3916   82.5766 C   0  0  0  0  0  0  0  0  0  0  0  0
  -35.9525  156.8526   82.3111 C   0  0  0  0  0  0  0  0  0  0  0  0
  -34.8823  157.6936   82.4857 C   0  0  0  0  0  0  0  0  0  0  0  0
  -33.6273  157.1642   82.2250 C   0  0  0  0  0  0  0  0  0  0  0  0
  -34.4876  155.0419   81.6409 C   0  0  0  0  0  0  0  0  0  0  0  0
  -35.7363  155.5461   81.8946 C   0  0  0  0  0  0  0  0  0  0  0  0
  -33.9369  153.2659   79.9267 C   0  0  0  0  0  0  0  0  0  0  0  0
  -34.1052  150.8221   79.6779 C   0  0  0  0  0  0  0  0  0  0  0  0
  -34.1149  149.8221   78.7312 C   0  0  0  0  0  0  0  0  0  0  0  0
  -33.6294  148.5617   79.0454 C   0  0  0  0  0  0  0  0  0  0  0  0
  -33.1241  148.3285   80.3364 C   0  0  0  0  0  0  0  0  0  0  0  0
  -33.1033  149.3164   81.2985 C   0  0  0  0  0  0  0  0  0  0  0  0
  -33.6003  150.5585   80.9508 C   0  0  0  0  0  0  0  0  0  0  0  0
  -33.8813  147.6693   77.9231 C   0  0  0  0  0  0  0  0  0  0  0  0
  -34.4957  149.8161   77.3191 C   0  0  2  0  0  0  0  0  0  0  0  0
  -35.6749  150.6494   76.9549 C   0  0  0  0  0  0  0  0  0  0  0  0
  -36.1591  150.2584   75.5760 C   0  0  0  0  0  0  0  0  0  0  0  0
  -36.4596  148.7908   75.4887 C   0  0  0  0  0  0  0  0  0  0  0  0
  -35.2101  147.9592   75.7339 C   0  0  0  0  0  0  0  0  0  0  0  0
  -37.8577  158.0325   80.3899 C   0  0  0  0  0  0  0  0  0  0  0  0
  -44.5692  165.8809   82.2251 N   0  0  0  0  0  0  0  0  0  0  0  0
  -41.5988  163.0171   82.5881 N   0  0  0  0  0  0  0  0  0  0  0  0
  -40.2435  160.7810   83.1973 N   0  0  0  0  0  0  0  0  0  0  0  0
  -40.3045  160.9805   81.9011 N   0  0  0  0  0  0  0  0  0  0  0  0
  -40.0903  159.8412   81.2541 N   0  0  0  0  0  0  0  0  0  0  0  0
  -33.4468  155.9008   81.8231 N   0  0  0  0  0  0  0  0  0  0  0  0
  -34.2235  153.7350   81.2057 N   0  0  0  0  0  0  0  0  0  0  0  0
  -34.5734  152.1064   79.3487 N   0  0  0  0  0  0  0  0  0  0  0  0
  -34.5460  148.4438   76.9382 N   0  0  0  0  0  0  0  0  0  0  0  0
  -38.2302  157.1546   81.4958 N   0  0  2  0  0  4  0  0  0  0  0  0
  -33.0878  153.8634   79.2411 O   0  0  0  0  0  0  0  0  0  0  0  0
  -33.5549  146.4590   77.8819 O   0  0  0  0  0  0  0  0  0  0  0  0
  1  2  2  0
  6  1  1  0
  2  3  1  0
  4  3  2  0
  5  4  1  0
  6  5  2  0
  5 39  1  0
  7  6  1  0
  7  8  2  0
 40  7  1  0
  8  9  1  0
  8 13  1  0
  9 10  1  0
  9 39  2  0
 10 11  2  0
 12 11  1  0
 13 12  2  0
 15 14  1  0
 14 40  1  0
 41 15  1  0
 16 17  2  0
 18 16  1  0
 16 43  1  0
 17 41  1  0
 48 18  1  0
 20 19  1  0
 19 48  1  0
 20 21  2  0
 24 20  1  0
 22 21  1  0
 44 22  2  0
 23 24  2  0
 23 44  1  0
 45 23  1  0
 25 45  1  0
 46 25  1  0
 25 49  2  0
 26 27  2  0
 26 31  1  0
 26 46  1  0
 27 28  1  0
 27 33  1  0
 28 29  2  0
 28 32  1  0
 29 30  1  0
 30 31  2  0
 32 47  1  0
 32 50  2  0
 33 34  1  1
 33 47  1  0
 34 35  1  0
 35 36  1  0
 36 37  1  0
 37 47  1  0
 48 38  1  6
 41 42  1  0
 42 43  2  0
M  CHG  1  48   1
M  END
$$$$
