
     RDKit          3D

 50 57  0  0  0  0  0  0  0  0999 V2000
  -44.5181  163.3837   83.3682 C   0  0  0  0  0  0  0  0  0  0  0  0
  -45.8795  163.1908   83.1438 C   0  0  0  0  0  0  0  0  0  0  0  0
  -46.4419  163.7616   82.0424 C   0  0  0  0  0  0  0  0  0  0  0  0
  -45.6634  164.5139   81.1755 C   0  0  0  0  0  0  0  0  0  0  0  0
  -44.3194  164.7149   81.3803 C   0  0  0  0  0  0  0  0  0  0  0  0
  -43.7451  164.1275   82.5100 C   0  0  0  0  0  0  0  0  0  0  0  0
  -42.4147  164.3283   82.7284 C   0  0  0  0  0  0  0  0  0  0  0  0
  -41.7005  165.1130   81.8122 C   0  0  0  0  0  0  0  0  0  0  0  0
  -42.2795  165.6854   80.7049 C   0  0  0  0  0  0  0  0  0  0  0  0
  -41.5475  166.4537   79.8233 C   0  0  0  0  0  0  0  0  0  0  0  0
  -40.1977  166.6459   80.0709 C   0  0  0  0  0  0  0  0  0  0  0  0
  -39.6241  166.0706   81.1821 C   0  0  0  0  0  0  0  0  0  0  0  0
  -40.3517  165.2978   82.0723 C   0  0  0  0  0  0  0  0  0  0  0  0
  -41.1910  162.4118   83.6257 C   0  0  0  0  0  0  0  0  0  0  0  0
  -40.3942  161.9428   84.7833 C   0  0  0  0  0  0  0  0  0  0  0  0
  -38.9149  158.6037   84.7476 C   0  0  0  0  0  0  0  0  0  0  0  0
  -38.9049  159.9507   85.0899 C   0  0  0  0  0  0  0  0  0  0  0  0
  -37.8464  157.6221   85.0466 C   0  0  0  0  0  0  0  0  0  0  0  0
  -36.3844  155.9075   84.2390 C   0  0  0  0  0  0  0  0  0  0  0  0
  -36.0925  155.0272   83.0991 C   0  0  0  0  0  0  0  0  0  0  0  0
  -35.1362  154.0583   83.2715 C   0  0  0  0  0  0  0  0  0  0  0  0
  -34.8747  153.2426   82.1809 C   0  0  0  0  0  0  0  0  0  0  0  0
  -36.4645  154.3270   80.8089 C   0  0  0  0  0  0  0  0  0  0  0  0
  -36.7381  155.1426   81.8755 C   0  0  0  0  0  0  0  0  0  0  0  0
  -36.6050  154.0342   78.3008 C   0  0  0  0  0  0  0  0  0  0  0  0
  -35.3509  152.2326   77.1854 C   0  0  0  0  0  0  0  0  0  0  0  0
  -34.2947  151.3491   77.1845 C   0  0  0  0  0  0  0  0  0  0  0  0
  -34.2732  150.2913   76.2881 C   0  0  0  0  0  0  0  0  0  0  0  0
  -35.3456  150.1350   75.3925 C   0  0  0  0  0  0  0  0  0  0  0  0
  -36.4139  151.0071   75.3783 C   0  0  0  0  0  0  0  0  0  0  0  0
  -36.3983  152.0526   76.2825 C   0  0  0  0  0  0  0  0  0  0  0  0
  -32.9960  149.6027   76.4063 C   0  0  0  0  0  0  0  0  0  0  0  0
  -33.1180  151.2309   78.0449 C   0  0  2  0  0  0  0  0  0  0  0  0
  -32.4986  152.5108   78.4873 C   0  0  0  0  0  0  0  0  0  0  0  0
  -31.1182  152.2351   79.0416 C   0  0  0  0  0  0  0  0  0  0  0  0
  -30.2575  151.5072   78.0510 C   0  0  0  0  0  0  0  0  0  0  0  0
  -30.8418  150.1443   77.7135 C   0  0  0  0  0  0  0  0  0  0  0  0
  -36.4911  157.9945   83.1697 C   0  0  0  0  0  0  0  0  0  0  0  0
  -43.6014  165.4538   80.5320 N   0  0  0  0  0  0  0  0  0  0  0  0
  -41.7113  163.7487   83.7995 N   0  0  0  0  0  0  0  0  0  0  0  0
  -40.0577  160.5302   84.6173 N   0  0  0  0  0  0  0  0  0  0  0  0
  -40.7333  159.5770   84.0184 N   0  0  0  0  0  0  0  0  0  0  0  0
  -40.0658  158.4315   84.0894 N   0  0  0  0  0  0  0  0  0  0  0  0
  -35.5110  153.3762   81.0114 N   0  0  0  0  0  0  0  0  0  0  0  0
  -37.0807  154.4162   79.5521 N   0  0  0  0  0  0  0  0  0  0  0  0
  -35.3833  153.2888   78.1130 N   0  0  0  0  0  0  0  0  0  0  0  0
  -32.2565  150.2997   77.3958 N   0  0  0  0  0  0  0  0  0  0  0  0
  -37.2726  157.0031   83.9036 N   0  0  2  0  0  4  0  0  0  0  0  0
  -37.2529  154.3505   77.2868 O   0  0  0  0  0  0  0  0  0  0  0  0
  -32.6610  148.5936   75.7412 O   0  0  0  0  0  0  0  0  0  0  0  0
  1  2  2  0
  6  1  1  0
  2  3  1  0
  4  3  2  0
  5  4  1  0
  6  5  2  0
  5 39  1  0
  7  6  1  0
  7  8  2  0
 40  7  1  0
  8  9  1  0
  8 13  1  0
  9 10  1  0
  9 39  2  0
 10 11  2  0
 12 11  1  0
 13 12  2  0
 15 14  1  0
 14 40  1  0
 41 15  1  0
 16 17  2  0
 18 16  1  0
 16 43  1  0
 17 41  1  0
 48 18  1  0
 20 19  1  0
 19 48  1  0
 20 21  2  0
 24 20  1  0
 22 21  1  0
 44 22  2  0
 23 24  2  0
 23 44  1  0
 45 23  1  0
 25 45  1  0
 46 25  1  0
 25 49  2  0
 26 27  2  0
 26 31  1  0
 26 46  1  0
 27 28  1  0
 27 33  1  0
 28 29  2  0
 28 32  1  0
 29 30  1  0
 30 31  2  0
 32 47  1  0
 32 50  2  0
 33 34  1  6
 33 47  1  0
 34 35  1  0
 35 36  1  0
 36 37  1  0
 37 47  1  0
 48 38  1  1
 41 42  1  0
 42 43  2  0
M  CHG  1  48   1
M  END
$$$$
