
     RDKit          3D

 50 57  0  0  0  0  0  0  0  0999 V2000
  -44.9783  162.3478   83.5729 C   0  0  0  0  0  0  0  0  0  0  0  0
  -46.2876  162.4746   84.0317 C   0  0  0  0  0  0  0  0  0  0  0  0
  -46.8941  163.6902   83.9328 C   0  0  0  0  0  0  0  0  0  0  0  0
  -46.2100  164.7655   83.3859 C   0  0  0  0  0  0  0  0  0  0  0  0
  -44.9186  164.6596   82.9281 C   0  0  0  0  0  0  0  0  0  0  0  0
  -44.2995  163.4116   83.0298 C   0  0  0  0  0  0  0  0  0  0  0  0
  -43.0152  163.2973   82.5877 C   0  0  0  0  0  0  0  0  0  0  0  0
  -42.3885  164.4352   82.0606 C   0  0  0  0  0  0  0  0  0  0  0  0
  -43.0104  165.6574   81.9675 C   0  0  0  0  0  0  0  0  0  0  0  0
  -42.3640  166.7582   81.4443 C   0  0  0  0  0  0  0  0  0  0  0  0
  -41.0571  166.6159   81.0061 C   0  0  0  0  0  0  0  0  0  0  0  0
  -40.4397  165.3895   81.1030 C   0  0  0  0  0  0  0  0  0  0  0  0
  -41.0815  164.2791   81.6269 C   0  0  0  0  0  0  0  0  0  0  0  0
  -40.8876  162.1291   82.8776 C   0  0  0  0  0  0  0  0  0  0  0  0
  -40.0966  161.1810   82.0588 C   0  0  0  0  0  0  0  0  0  0  0  0
  -36.4482  161.2311   82.2180 C   0  0  0  0  0  0  0  0  0  0  0  0
  -37.6650  160.5745   82.0779 C   0  0  0  0  0  0  0  0  0  0  0  0
  -35.1106  160.5942   82.2158 C   0  0  0  0  0  0  0  0  0  0  0  0
  -33.6637  158.8899   81.3607 C   0  0  0  0  0  0  0  0  0  0  0  0
  -33.6241  157.4781   80.9548 C   0  0  0  0  0  0  0  0  0  0  0  0
  -33.0854  157.1833   79.7277 C   0  0  0  0  0  0  0  0  0  0  0  0
  -33.0627  155.8452   79.3644 C   0  0  0  0  0  0  0  0  0  0  0  0
  -34.0764  155.1350   81.3777 C   0  0  0  0  0  0  0  0  0  0  0  0
  -34.1069  156.4519   81.7554 C   0  0  0  0  0  0  0  0  0  0  0  0
  -34.9095  152.7773   81.7568 C   0  0  0  0  0  0  0  0  0  0  0  0
  -33.7941  150.7924   80.8194 C   0  0  0  0  0  0  0  0  0  0  0  0
  -33.4515  150.0332   79.7229 C   0  0  0  0  0  0  0  0  0  0  0  0
  -32.9358  148.7573   79.8937 C   0  0  0  0  0  0  0  0  0  0  0  0
  -32.7637  148.2608   81.1977 C   0  0  0  0  0  0  0  0  0  0  0  0
  -33.0983  149.0053   82.3092 C   0  0  0  0  0  0  0  0  0  0  0  0
  -33.6145  150.2705   82.1001 C   0  0  0  0  0  0  0  0  0  0  0  0
  -32.7909  148.1317   78.5872 C   0  0  0  0  0  0  0  0  0  0  0  0
  -33.4474  150.3299   78.2908 C   0  0  2  0  0  0  0  0  0  0  0  0
  -34.5711  151.1705   77.7926 C   0  0  0  0  0  0  0  0  0  0  0  0
  -34.6346  151.0804   76.2837 C   0  0  0  0  0  0  0  0  0  0  0  0
  -34.7466  149.6587   75.8168 C   0  0  0  0  0  0  0  0  0  0  0  0
  -33.5245  148.8498   76.2232 C   0  0  0  0  0  0  0  0  0  0  0  0
  -35.3740  159.7905   80.0288 C   0  0  0  0  0  0  0  0  0  0  0  0
  -44.2852  165.7175   82.4174 N   0  0  0  0  0  0  0  0  0  0  0  0
  -42.3027  162.0848   82.5884 N   0  0  0  0  0  0  0  0  0  0  0  0
  -38.6744  161.5035   82.1573 N   0  0  0  0  0  0  0  0  0  0  0  0
  -38.0939  162.6675   82.3359 N   0  0  0  0  0  0  0  0  0  0  0  0
  -36.7752  162.5181   82.3733 N   0  0  0  0  0  0  0  0  0  0  0  0
  -33.5363  154.8752   80.1551 N   0  0  0  0  0  0  0  0  0  0  0  0
  -34.5647  154.0685   82.1467 N   0  0  0  0  0  0  0  0  0  0  0  0
  -34.2918  152.0958   80.6444 N   0  0  0  0  0  0  0  0  0  0  0  0
  -33.2525  149.0785   77.6374 N   0  0  0  0  0  0  0  0  0  0  0  0
  -35.0054  159.4377   81.3971 N   0  0  2  0  0  4  0  0  0  0  0  0
  -35.7965  152.1736   82.3866 O   0  0  0  0  0  0  0  0  0  0  0  0
  -32.3402  146.9779   78.3905 O   0  0  0  0  0  0  0  0  0  0  0  0
  1  2  2  0
  6  1  1  0
  2  3  1  0
  4  3  2  0
  5  4  1  0
  6  5  2  0
  5 39  1  0
  7  6  1  0
  7  8  2  0
 40  7  1  0
  8  9  1  0
  8 13  1  0
  9 10  1  0
  9 39  2  0
 10 11  2  0
 12 11  1  0
 13 12  2  0
 15 14  1  0
 14 40  1  0
 41 15  1  0
 16 17  2  0
 18 16  1  0
 16 43  1  0
 17 41  1  0
 48 18  1  0
 20 19  1  0
 19 48  1  0
 20 21  2  0
 24 20  1  0
 22 21  1  0
 44 22  2  0
 23 24  2  0
 23 44  1  0
 45 23  1  0
 25 45  1  0
 46 25  1  0
 25 49  2  0
 26 27  2  0
 26 31  1  0
 26 46  1  0
 27 28  1  0
 27 33  1  0
 28 29  2  0
 28 32  1  0
 29 30  1  0
 30 31  2  0
 32 47  1  0
 32 50  2  0
 33 34  1  6
 33 47  1  0
 34 35  1  0
 35 36  1  0
 36 37  1  0
 37 47  1  0
 48 38  1  6
 41 42  1  0
 42 43  2  0
M  CHG  1  48   1
M  END
$$$$
