
     RDKit          3D

 50 57  0  0  0  0  0  0  0  0999 V2000
  -44.7922  163.0776   83.8885 C   0  0  0  0  0  0  0  0  0  0  0  0
  -46.0911  162.9687   84.3804 C   0  0  0  0  0  0  0  0  0  0  0  0
  -47.0448  163.8040   83.8822 C   0  0  0  0  0  0  0  0  0  0  0  0
  -46.7135  164.7349   82.9090 C   0  0  0  0  0  0  0  0  0  0  0  0
  -45.4381  164.8569   82.4118 C   0  0  0  0  0  0  0  0  0  0  0  0
  -44.4624  163.9984   82.9237 C   0  0  0  0  0  0  0  0  0  0  0  0
  -43.1918  164.1169   82.4448 C   0  0  0  0  0  0  0  0  0  0  0  0
  -42.9354  165.0926   81.4713 C   0  0  0  0  0  0  0  0  0  0  0  0
  -43.9060  165.9312   80.9774 C   0  0  0  0  0  0  0  0  0  0  0  0
  -43.6193  166.8820   80.0198 C   0  0  0  0  0  0  0  0  0  0  0  0
  -42.3185  166.9847   79.5531 C   0  0  0  0  0  0  0  0  0  0  0  0
  -41.3511  166.1426   80.0525 C   0  0  0  0  0  0  0  0  0  0  0  0
  -41.6303  165.1850   81.0140 C   0  0  0  0  0  0  0  0  0  0  0  0
  -41.6141  163.4304   84.1812 C   0  0  0  0  0  0  0  0  0  0  0  0
  -40.1353  163.5101   84.2247 C   0  0  0  0  0  0  0  0  0  0  0  0
  -38.0987  160.7666   82.9344 C   0  0  0  0  0  0  0  0  0  0  0  0
  -38.3224  162.1111   83.2065 C   0  0  0  0  0  0  0  0  0  0  0  0
  -36.8995  160.2003   82.2743 C   0  0  0  0  0  0  0  0  0  0  0  0
  -37.1513  157.8425   81.9475 C   0  0  0  0  0  0  0  0  0  0  0  0
  -37.2742  156.7542   80.9678 C   0  0  0  0  0  0  0  0  0  0  0  0
  -38.4039  156.7225   80.1896 C   0  0  0  0  0  0  0  0  0  0  0  0
  -38.4998  155.6841   79.2755 C   0  0  0  0  0  0  0  0  0  0  0  0
  -36.4185  154.7542   79.8993 C   0  0  0  0  0  0  0  0  0  0  0  0
  -36.3046  155.7735   80.8080 C   0  0  0  0  0  0  0  0  0  0  0  0
  -35.3635  152.4990   80.3435 C   0  0  0  0  0  0  0  0  0  0  0  0
  -34.4061  150.6574   79.0190 C   0  0  0  0  0  0  0  0  0  0  0  0
  -33.8167  149.4162   79.1098 C   0  0  0  0  0  0  0  0  0  0  0  0
  -33.9518  148.5044   78.0737 C   0  0  0  0  0  0  0  0  0  0  0  0
  -34.7024  148.8660   76.9413 C   0  0  0  0  0  0  0  0  0  0  0  0
  -35.3025  150.1028   76.8313 C   0  0  0  0  0  0  0  0  0  0  0  0
  -35.1417  150.9875   77.8813 C   0  0  0  0  0  0  0  0  0  0  0  0
  -33.1268  147.3404   78.3633 C   0  0  0  0  0  0  0  0  0  0  0  0
  -33.0700  148.7645   80.1853 C   0  0  2  0  0  0  0  0  0  0  0  0
  -32.1581  149.6394   80.9732 C   0  0  0  0  0  0  0  0  0  0  0  0
  -31.2066  148.7793   81.7755 C   0  0  0  0  0  0  0  0  0  0  0  0
  -30.4506  147.8230   80.9004 C   0  0  0  0  0  0  0  0  0  0  0  0
  -31.3930  146.8517   80.2066 C   0  0  0  0  0  0  0  0  0  0  0  0
  -36.1481  159.1812   80.3007 C   0  0  0  0  0  0  0  0  0  0  0  0
  -45.1508  165.7713   81.4832 N   0  0  0  0  0  0  0  0  0  0  0  0
  -42.1349  163.2784   82.8419 N   0  0  0  0  0  0  0  0  0  0  0  0
  -39.5549  162.2374   83.8009 N   0  0  0  0  0  0  0  0  0  0  0  0
  -40.0519  161.0251   83.8851 N   0  0  0  0  0  0  0  0  0  0  0  0
  -39.1979  160.1460   83.3749 N   0  0  0  0  0  0  0  0  0  0  0  0
  -37.5506  154.7504   79.1427 N   0  0  0  0  0  0  0  0  0  0  0  0
  -35.4723  153.7357   79.7136 N   0  0  0  0  0  0  0  0  0  0  0  0
  -34.2899  151.5703   80.0822 N   0  0  0  0  0  0  0  0  0  0  0  0
  -32.4875  147.6020   79.6021 N   0  0  0  0  0  0  0  0  0  0  0  0
  -37.1694  159.1607   81.3443 N   0  0  2  0  0  4  0  0  0  0  0  0
  -36.2316  152.1644   81.1695 O   0  0  0  0  0  0  0  0  0  0  0  0
  -33.0327  146.3275   77.6296 O   0  0  0  0  0  0  0  0  0  0  0  0
  1  2  2  0
  6  1  1  0
  2  3  1  0
  4  3  2  0
  5  4  1  0
  6  5  2  0
  5 39  1  0
  7  6  1  0
  7  8  2  0
 40  7  1  0
  8  9  1  0
  8 13  1  0
  9 10  1  0
  9 39  2  0
 10 11  2  0
 12 11  1  0
 13 12  2  0
 15 14  1  0
 14 40  1  0
 41 15  1  0
 16 17  2  0
 18 16  1  0
 16 43  1  0
 17 41  1  0
 48 18  1  0
 20 19  1  0
 19 48  1  0
 20 21  2  0
 24 20  1  0
 22 21  1  0
 44 22  2  0
 23 24  2  0
 23 44  1  0
 45 23  1  0
 25 45  1  0
 46 25  1  0
 25 49  2  0
 26 27  2  0
 26 31  1  0
 26 46  1  0
 27 28  1  0
 27 33  1  0
 28 29  2  0
 28 32  1  0
 29 30  1  0
 30 31  2  0
 32 47  1  0
 32 50  2  0
 33 34  1  6
 33 47  1  0
 34 35  1  0
 35 36  1  0
 36 37  1  0
 37 47  1  0
 48 38  1  6
 41 42  1  0
 42 43  2  0
M  CHG  1  48   1
M  END
$$$$
