
     RDKit          3D

 50 57  0  0  0  0  0  0  0  0999 V2000
  -43.4457  166.0601   83.8857 C   0  0  0  0  0  0  0  0  0  0  0  0
  -43.7920  167.4077   83.8148 C   0  0  0  0  0  0  0  0  0  0  0  0
  -44.9862  167.7410   83.2508 C   0  0  0  0  0  0  0  0  0  0  0  0
  -45.8252  166.7501   82.7635 C   0  0  0  0  0  0  0  0  0  0  0  0
  -45.5008  165.4160   82.8247 C   0  0  0  0  0  0  0  0  0  0  0  0
  -44.2761  165.0770   83.4046 C   0  0  0  0  0  0  0  0  0  0  0  0
  -43.9395  163.7574   83.4619 C   0  0  0  0  0  0  0  0  0  0  0  0
  -44.8365  162.8179   82.9346 C   0  0  0  0  0  0  0  0  0  0  0  0
  -46.0384  163.1666   82.3661 C   0  0  0  0  0  0  0  0  0  0  0  0
  -46.8980  162.2162   81.8552 C   0  0  0  0  0  0  0  0  0  0  0  0
  -46.5297  160.8819   81.9220 C   0  0  0  0  0  0  0  0  0  0  0  0
  -45.3245  160.5394   82.4917 C   0  0  0  0  0  0  0  0  0  0  0  0
  -44.4555  161.4873   83.0072 C   0  0  0  0  0  0  0  0  0  0  0  0
  -41.5832  163.1456   83.2403 C   0  0  0  0  0  0  0  0  0  0  0  0
  -40.7022  162.0337   83.6674 C   0  0  0  0  0  0  0  0  0  0  0  0
  -40.3836  158.9947   81.6670 C   0  0  0  0  0  0  0  0  0  0  0  0
  -39.9289  159.8873   82.6304 C   0  0  0  0  0  0  0  0  0  0  0  0
  -39.6819  157.7709   81.2146 C   0  0  0  0  0  0  0  0  0  0  0  0
  -39.0458  156.4799   79.3020 C   0  0  0  0  0  0  0  0  0  0  0  0
  -37.8187  156.3701   78.5009 C   0  0  0  0  0  0  0  0  0  0  0  0
  -37.8008  156.9879   77.2757 C   0  0  0  0  0  0  0  0  0  0  0  0
  -36.6340  156.8669   76.5361 C   0  0  0  0  0  0  0  0  0  0  0  0
  -35.5549  155.5641   78.1863 C   0  0  0  0  0  0  0  0  0  0  0  0
  -36.6987  155.6730   78.9331 C   0  0  0  0  0  0  0  0  0  0  0  0
  -33.6334  153.9533   77.8556 C   0  0  0  0  0  0  0  0  0  0  0  0
  -32.4018  151.8365   77.6011 C   0  0  0  0  0  0  0  0  0  0  0  0
  -32.4168  150.4830   77.8544 C   0  0  0  0  0  0  0  0  0  0  0  0
  -31.7013  149.6153   77.0430 C   0  0  0  0  0  0  0  0  0  0  0  0
  -30.9725  150.1391   75.9608 C   0  0  0  0  0  0  0  0  0  0  0  0
  -30.9459  151.4908   75.6885 C   0  0  0  0  0  0  0  0  0  0  0  0
  -31.6666  152.3257   76.5219 C   0  0  0  0  0  0  0  0  0  0  0  0
  -31.7768  148.2758   77.6080 C   0  0  0  0  0  0  0  0  0  0  0  0
  -33.1421  149.6803   78.8385 C   0  0  2  0  0  0  0  0  0  0  0  0
  -33.3027  150.2872   80.1889 C   0  0  0  0  0  0  0  0  0  0  0  0
  -33.7289  149.2189   81.1717 C   0  0  0  0  0  0  0  0  0  0  0  0
  -32.7716  148.0634   81.1852 C   0  0  0  0  0  0  0  0  0  0  0  0
  -32.7228  147.3753   79.8298 C   0  0  0  0  0  0  0  0  0  0  0  0
  -37.9725  158.5098   79.7897 C   0  0  0  0  0  0  0  0  0  0  0  0
  -46.3265  164.4884   82.3362 N   0  0  0  0  0  0  0  0  0  0  0  0
  -42.7605  163.2861   84.0665 N   0  0  0  0  0  0  0  0  0  0  0  0
  -40.8454  160.9040   82.7512 N   0  0  0  0  0  0  0  0  0  0  0  0
  -41.8094  160.6372   81.9008 N   0  0  0  0  0  0  0  0  0  0  0  0
  -41.5465  159.5085   81.2532 N   0  0  0  0  0  0  0  0  0  0  0  0
  -35.5685  156.1875   76.9758 N   0  0  0  0  0  0  0  0  0  0  0  0
  -34.4065  154.8595   78.5761 N   0  0  0  0  0  0  0  0  0  0  0  0
  -33.1494  152.7112   78.4092 N   0  0  0  0  0  0  0  0  0  0  0  0
  -32.5515  148.3842   78.7911 N   0  0  0  0  0  0  0  0  0  0  0  0
  -39.2475  157.8017   79.8621 N   0  0  2  0  0  4  0  0  0  0  0  0
  -33.3333  154.2191   76.6777 O   0  0  0  0  0  0  0  0  0  0  0  0
  -31.2441  147.2559   77.1090 O   0  0  0  0  0  0  0  0  0  0  0  0
  1  2  2  0
  6  1  1  0
  2  3  1  0
  4  3  2  0
  5  4  1  0
  6  5  2  0
  5 39  1  0
  7  6  1  0
  7  8  2  0
 40  7  1  0
  8  9  1  0
  8 13  1  0
  9 10  1  0
  9 39  2  0
 10 11  2  0
 12 11  1  0
 13 12  2  0
 15 14  1  0
 14 40  1  0
 41 15  1  0
 16 17  2  0
 18 16  1  0
 16 43  1  0
 17 41  1  0
 48 18  1  0
 20 19  1  0
 19 48  1  0
 20 21  2  0
 24 20  1  0
 22 21  1  0
 44 22  2  0
 23 24  2  0
 23 44  1  0
 45 23  1  0
 25 45  1  0
 46 25  1  0
 25 49  2  0
 26 27  2  0
 26 31  1  0
 26 46  1  0
 27 28  1  0
 27 33  1  0
 28 29  2  0
 28 32  1  0
 29 30  1  0
 30 31  2  0
 32 47  1  0
 32 50  2  0
 33 34  1  1
 33 47  1  0
 34 35  1  0
 35 36  1  0
 36 37  1  0
 37 47  1  0
 48 38  1  1
 41 42  1  0
 42 43  2  0
M  CHG  1  48   1
M  END
$$$$
