
     RDKit          3D

 50 57  0  0  0  0  0  0  0  0999 V2000
  -43.6642  160.1669   82.6770 C   0  0  0  0  0  0  0  0  0  0  0  0
  -44.6045  159.1778   82.3965 C   0  0  0  0  0  0  0  0  0  0  0  0
  -45.8774  159.5597   82.0984 C   0  0  0  0  0  0  0  0  0  0  0  0
  -46.2127  160.9053   82.0793 C   0  0  0  0  0  0  0  0  0  0  0  0
  -45.2992  161.8948   82.3533 C   0  0  0  0  0  0  0  0  0  0  0  0
  -43.9942  161.5003   82.6575 C   0  0  0  0  0  0  0  0  0  0  0  0
  -43.0820  162.4728   82.9404 C   0  0  0  0  0  0  0  0  0  0  0  0
  -43.5036  163.8095   82.9135 C   0  0  0  0  0  0  0  0  0  0  0  0
  -44.7919  164.1827   82.6130 C   0  0  0  0  0  0  0  0  0  0  0  0
  -45.1743  165.5082   82.5965 C   0  0  0  0  0  0  0  0  0  0  0  0
  -44.2284  166.4768   82.8922 C   0  0  0  0  0  0  0  0  0  0  0  0
  -42.9403  166.0964   83.1932 C   0  0  0  0  0  0  0  0  0  0  0  0
  -42.5479  164.7679   83.2119 C   0  0  0  0  0  0  0  0  0  0  0  0
  -41.0157  161.3287   82.3104 C   0  0  0  0  0  0  0  0  0  0  0  0
  -39.8990  161.9997   81.6049 C   0  0  0  0  0  0  0  0  0  0  0  0
  -38.7502  160.1876   78.6494 C   0  0  0  0  0  0  0  0  0  0  0  0
  -38.6212  160.5908   79.9732 C   0  0  0  0  0  0  0  0  0  0  0  0
  -37.7928  159.3406   77.9007 C   0  0  0  0  0  0  0  0  0  0  0  0
  -36.6225  157.2588   77.7393 C   0  0  0  0  0  0  0  0  0  0  0  0
  -35.8546  156.4493   78.6957 C   0  0  0  0  0  0  0  0  0  0  0  0
  -34.5000  156.3490   78.5014 C   0  0  0  0  0  0  0  0  0  0  0  0
  -33.7971  155.5765   79.4137 C   0  0  0  0  0  0  0  0  0  0  0  0
  -35.7312  155.0326   80.6582 C   0  0  0  0  0  0  0  0  0  0  0  0
  -36.4435  155.7926   79.7677 C   0  0  0  0  0  0  0  0  0  0  0  0
  -35.7358  153.3284   82.5268 C   0  0  0  0  0  0  0  0  0  0  0  0
  -33.8786  151.8892   83.2630 C   0  0  0  0  0  0  0  0  0  0  0  0
  -33.2276  150.8294   82.6719 C   0  0  0  0  0  0  0  0  0  0  0  0
  -32.7467  149.7869   83.4497 C   0  0  0  0  0  0  0  0  0  0  0  0
  -32.9283  149.8362   84.8430 C   0  0  0  0  0  0  0  0  0  0  0  0
  -33.5753  150.8891   85.4551 C   0  0  0  0  0  0  0  0  0  0  0  0
  -34.0459  151.9074   84.6473 C   0  0  0  0  0  0  0  0  0  0  0  0
  -32.2313  148.7463   82.5718 C   0  0  0  0  0  0  0  0  0  0  0  0
  -32.8364  150.5720   81.2864 C   0  0  2  0  0  0  0  0  0  0  0  0
  -33.8002  151.0133   80.2406 C   0  0  0  0  0  0  0  0  0  0  0  0
  -33.4428  150.3630   78.9222 C   0  0  0  0  0  0  0  0  0  0  0  0
  -33.3854  148.8680   79.0383 C   0  0  0  0  0  0  0  0  0  0  0  0
  -32.3026  148.4346   80.0144 C   0  0  0  0  0  0  0  0  0  0  0  0
  -38.9515  157.3061   78.0292 C   0  0  0  0  0  0  0  0  0  0  0  0
  -45.6578  163.1802   82.3371 N   0  0  0  0  0  0  0  0  0  0  0  0
  -41.7276  162.2070   83.2103 N   0  0  0  0  0  0  0  0  0  0  0  0
  -39.6957  161.3847   80.2947 N   0  0  0  0  0  0  0  0  0  0  0  0
  -40.4398  161.4566   79.2155 N   0  0  0  0  0  0  0  0  0  0  0  0
  -39.8894  160.7512   78.2346 N   0  0  0  0  0  0  0  0  0  0  0  0
  -34.3898  154.9526   80.4382 N   0  0  0  0  0  0  0  0  0  0  0  0
  -36.2851  154.3413   81.7456 N   0  0  0  0  0  0  0  0  0  0  0  0
  -34.3418  152.9577   82.4750 N   0  0  0  0  0  0  0  0  0  0  0  0
  -32.4370  149.2046   81.2453 N   0  0  0  0  0  0  0  0  0  0  0  0
  -37.7072  157.9973   78.3556 N   0  0  2  0  0  4  0  0  0  0  0  0
  -36.4742  152.7007   83.3071 O   0  0  0  0  0  0  0  0  0  0  0  0
  -31.7146  147.6714   82.9599 O   0  0  0  0  0  0  0  0  0  0  0  0
  1  2  2  0
  6  1  1  0
  2  3  1  0
  4  3  2  0
  5  4  1  0
  6  5  2  0
  5 39  1  0
  7  6  1  0
  7  8  2  0
 40  7  1  0
  8  9  1  0
  8 13  1  0
  9 10  1  0
  9 39  2  0
 10 11  2  0
 12 11  1  0
 13 12  2  0
 15 14  1  0
 14 40  1  0
 41 15  1  0
 16 17  2  0
 18 16  1  0
 16 43  1  0
 17 41  1  0
 48 18  1  0
 20 19  1  0
 19 48  1  0
 20 21  2  0
 24 20  1  0
 22 21  1  0
 44 22  2  0
 23 24  2  0
 23 44  1  0
 45 23  1  0
 25 45  1  0
 46 25  1  0
 25 49  2  0
 26 27  2  0
 26 31  1  0
 26 46  1  0
 27 28  1  0
 27 33  1  0
 28 29  2  0
 28 32  1  0
 29 30  1  0
 30 31  2  0
 32 47  1  0
 32 50  2  0
 33 34  1  6
 33 47  1  0
 34 35  1  0
 35 36  1  0
 36 37  1  0
 37 47  1  0
 48 38  1  6
 41 42  1  0
 42 43  2  0
M  CHG  1  48   1
M  END
$$$$
