
     RDKit          3D

 45 44  0  0  0  0  0  0  0  0999 V2000
  -13.3049    9.6141   35.4476 C   0  0  0  0  0  0  0  0  0  0  0  0
  -13.6332    9.1612   34.3331 O   0  0  0  0  0  0  0  0  0  0  0  0
  -13.3448    8.6617   36.6099 C   0  0  0  0  0  0  0  0  0  0  0  0
  -12.8977   10.9535   35.7025 N   0  0  0  0  0  0  0  0  0  0  0  0
  -12.9341   11.9189   34.6175 C   0  0  2  0  0  0  0  0  0  0  0  0
  -11.6431   11.8156   33.8897 C   0  0  0  0  0  0  0  0  0  0  0  0
  -11.6212   11.9839   32.6424 O   0  0  0  0  0  0  0  0  0  0  0  0
  -13.2909   13.2569   35.1211 C   0  0  2  0  0  0  0  0  0  0  0  0
  -13.3118   14.3741   34.1272 C   0  0  0  0  0  0  0  0  0  0  0  0
  -12.4712   13.7575   36.2971 C   0  0  0  0  0  0  0  0  0  0  0  0
  -12.5442   15.5755   34.5352 C   0  0  0  0  0  0  0  0  0  0  0  0
  -10.4151   11.5388   34.5328 N   0  0  0  0  0  0  0  0  0  0  0  0
   -9.1938   12.0907   33.9185 C   0  0  2  0  0  0  0  0  0  0  0  0
   -8.0546   11.1872   34.1870 C   0  0  0  0  0  0  0  0  0  0  0  0
   -7.7515   10.9518   35.3866 O   0  0  0  0  0  0  0  0  0  0  0  0
   -8.9376   13.4872   34.4395 C   0  0  0  0  0  0  0  0  0  0  0  0
   -7.7035   14.1301   33.8911 C   0  0  0  0  0  0  0  0  0  0  0  0
   -7.3889   15.4567   34.4306 C   0  0  0  0  0  0  0  0  0  0  0  0
   -7.4892   15.7649   35.6413 O   0  0  0  0  0  0  0  0  0  0  0  0
   -6.9445   16.4870   33.5924 O   0  0  0  0  0  0  0  0  0  0  0  0
   -7.3073   10.5895   33.1108 N   0  0  0  0  0  0  0  0  0  0  0  0
   -6.1381    9.8531   33.4513 C   0  0  2  0  0  0  0  0  0  0  0  0
   -5.2168   10.6593   34.3321 C   0  0  0  0  0  0  0  0  0  0  0  0
   -5.6421   11.4811   35.1374 O   0  0  0  0  0  0  0  0  0  0  0  0
   -5.3845    9.3473   32.2683 C   0  0  0  0  0  0  0  0  0  0  0  0
   -4.9231   10.3576   31.2779 C   0  0  0  0  0  0  0  0  0  0  0  0
   -4.3951    9.8217   30.0246 C   0  0  0  0  0  0  0  0  0  0  0  0
   -3.9147   10.6003   29.1712 O   0  0  0  0  0  0  0  0  0  0  0  0
   -4.4343    8.4539   29.7978 O   0  0  0  0  0  0  0  0  0  0  0  0
   -3.8467   10.4389   34.2033 N   0  0  0  0  0  0  0  0  0  0  0  0
   -2.7362   10.8086   35.0014 C   0  0  2  0  0  0  0  0  0  0  0  0
   -1.4515   10.7457   34.3090 C   0  0  0  0  0  0  0  0  0  0  0  0
   -0.3099   10.8343   34.8499 O   0  0  0  0  0  0  0  0  0  0  0  0
   -2.6684   10.2344   36.3998 C   0  0  1  0  0  0  0  0  0  0  0  0
   -4.0953   10.3352   36.9784 C   0  0  0  0  0  0  0  0  0  0  0  0
   -2.4614    8.7159   36.3428 C   0  0  0  0  0  0  0  0  0  0  0  0
   -1.3763   10.5649   32.8777 N   0  0  0  0  0  0  0  0  0  0  0  0
   -0.2884   11.2043   32.1126 C   0  0  2  0  0  0  0  0  0  0  0  0
   -0.4964   10.8428   30.6724 C   0  0  0  0  0  0  0  0  0  0  0  0
    0.3129   11.3825   29.6537 O   0  0  0  0  0  0  0  0  0  0  0  0
    0.9682   10.5702   32.6148 C   0  0  0  0  0  0  0  0  0  0  0  0
    1.5906   11.2203   33.7736 C   0  0  0  0  0  0  0  0  0  0  0  0
    2.0461   12.5174   33.6332 O   0  0  0  0  0  0  0  0  0  0  0  0
    1.7205   10.6399   34.8761 O   0  0  0  0  0  0  0  0  0  0  0  0
   -1.3855   10.0515   30.2770 O   0  0  0  0  0  0  0  0  0  0  0  0
  1  2  2  0
  1  3  1  0
  1  4  1  0
  5  4  1  1
  5  6  1  0
  5  8  1  0
  6  7  2  0
  6 12  1  0
  8  9  1  0
  8 10  1  1
  9 11  1  0
 12 13  1  0
 13 14  1  0
 13 16  1  1
 14 15  2  0
 14 21  1  0
 16 17  1  0
 17 18  1  0
 18 19  2  0
 18 20  1  0
 21 22  1  0
 22 23  1  0
 22 25  1  6
 23 24  2  0
 23 30  1  0
 25 26  1  0
 26 27  1  0
 27 28  2  0
 27 29  1  0
 31 30  1  6
 31 32  1  0
 31 34  1  0
 32 33  2  0
 32 37  1  0
 34 35  1  6
 34 36  1  0
 37 38  1  0
 38 39  1  0
 38 41  1  1
 39 40  1  0
 39 45  2  0
 41 42  1  0
 42 43  1  0
 42 44  2  0
M  END
$$$$
