
     RDKit          3D

 45 44  0  0  0  0  0  0  0  0999 V2000
   -7.8884    6.5655   27.6864 C   0  0  0  0  0  0  0  0  0  0  0  0
   -6.7799    6.0442   27.9197 O   0  0  0  0  0  0  0  0  0  0  0  0
   -8.8809    5.7418   26.9143 C   0  0  0  0  0  0  0  0  0  0  0  0
   -8.2841    7.8708   28.0921 N   0  0  0  0  0  0  0  0  0  0  0  0
   -8.2737    8.2018   29.5066 C   0  0  2  0  0  0  0  0  0  0  0  0
   -6.8811    8.0240   29.9924 C   0  0  0  0  0  0  0  0  0  0  0  0
   -6.1746    7.0960   29.5190 O   0  0  0  0  0  0  0  0  0  0  0  0
   -9.3144    7.4473   30.2269 C   0  0  2  0  0  0  0  0  0  0  0  0
   -8.8705    6.2495   31.0045 C   0  0  0  0  0  0  0  0  0  0  0  0
  -10.4942    6.9888   29.3881 C   0  0  0  0  0  0  0  0  0  0  0  0
   -9.8161    5.8170   32.0619 C   0  0  0  0  0  0  0  0  0  0  0  0
   -6.2933    8.8578   30.9710 N   0  0  0  0  0  0  0  0  0  0  0  0
   -4.9452    9.3827   30.6869 C   0  0  2  0  0  0  0  0  0  0  0  0
   -4.7128   10.6049   31.4858 C   0  0  0  0  0  0  0  0  0  0  0  0
   -3.5656   11.1239   31.4597 O   0  0  0  0  0  0  0  0  0  0  0  0
   -4.7927    9.6433   29.2049 C   0  0  0  0  0  0  0  0  0  0  0  0
   -4.0587    8.5702   28.4654 C   0  0  0  0  0  0  0  0  0  0  0  0
   -2.7446    8.9513   27.9384 C   0  0  0  0  0  0  0  0  0  0  0  0
   -2.5277    9.9945   27.2782 O   0  0  0  0  0  0  0  0  0  0  0  0
   -1.6219    8.1415   28.1513 O   0  0  0  0  0  0  0  0  0  0  0  0
   -5.7652   11.1910   32.2750 N   0  0  0  0  0  0  0  0  0  0  0  0
   -5.3846   12.0160   33.3705 C   0  0  2  0  0  0  0  0  0  0  0  0
   -4.5769   11.2458   34.3849 C   0  0  0  0  0  0  0  0  0  0  0  0
   -4.3184   10.0554   34.2414 O   0  0  0  0  0  0  0  0  0  0  0  0
   -6.5354   12.6806   34.0464 C   0  0  0  0  0  0  0  0  0  0  0  0
   -7.3361   13.6369   33.2347 C   0  0  0  0  0  0  0  0  0  0  0  0
   -8.4601   14.2676   33.9243 C   0  0  0  0  0  0  0  0  0  0  0  0
   -8.2424   15.1292   34.8050 O   0  0  0  0  0  0  0  0  0  0  0  0
   -9.7560   13.9010   33.5925 O   0  0  0  0  0  0  0  0  0  0  0  0
   -4.1247   11.9374   35.5072 N   0  0  0  0  0  0  0  0  0  0  0  0
   -3.2874   11.5685   36.5887 C   0  0  2  0  0  0  0  0  0  0  0  0
   -3.1526   12.5935   37.6207 C   0  0  0  0  0  0  0  0  0  0  0  0
   -2.2069   13.4299   37.7192 O   0  0  0  0  0  0  0  0  0  0  0  0
   -1.9666   10.9134   36.2479 C   0  0  1  0  0  0  0  0  0  0  0  0
   -1.4178   10.3339   37.5686 C   0  0  0  0  0  0  0  0  0  0  0  0
   -2.1997    9.6421   35.4224 C   0  0  0  0  0  0  0  0  0  0  0  0
   -4.1401   12.7449   38.6641 N   0  0  0  0  0  0  0  0  0  0  0  0
   -3.9880   13.8139   39.6701 C   0  0  2  0  0  0  0  0  0  0  0  0
   -2.9976   13.3226   40.6830 C   0  0  0  0  0  0  0  0  0  0  0  0
   -2.3751   12.0656   40.5545 O   0  0  0  0  0  0  0  0  0  0  0  0
   -5.3341   13.9479   40.3053 C   0  0  0  0  0  0  0  0  0  0  0  0
   -6.4290   14.3240   39.4040 C   0  0  0  0  0  0  0  0  0  0  0  0
   -7.2617   13.3280   38.9303 O   0  0  0  0  0  0  0  0  0  0  0  0
   -6.6296   15.5100   39.0540 O   0  0  0  0  0  0  0  0  0  0  0  0
   -2.6578   13.9789   41.6962 O   0  0  0  0  0  0  0  0  0  0  0  0
  1  2  2  0
  1  3  1  0
  1  4  1  0
  5  4  1  6
  5  6  1  0
  5  8  1  0
  6  7  2  0
  6 12  1  0
  8  9  1  0
  8 10  1  6
  9 11  1  0
 12 13  1  0
 13 14  1  0
 13 16  1  6
 14 15  2  0
 14 21  1  0
 16 17  1  0
 17 18  1  0
 18 19  2  0
 18 20  1  0
 21 22  1  0
 22 23  1  0
 22 25  1  1
 23 24  2  0
 23 30  1  0
 25 26  1  0
 26 27  1  0
 27 28  2  0
 27 29  1  0
 31 30  1  6
 31 32  1  0
 31 34  1  0
 32 33  2  0
 32 37  1  0
 34 35  1  1
 34 36  1  0
 37 38  1  0
 38 39  1  0
 38 41  1  1
 39 40  1  0
 39 45  2  0
 41 42  1  0
 42 43  1  0
 42 44  2  0
M  END
$$$$
