
     RDKit          3D

 45 44  0  0  0  0  0  0  0  0999 V2000
  -11.9000   13.1977   31.9971 C   0  0  0  0  0  0  0  0  0  0  0  0
  -12.0085   13.6264   30.8312 O   0  0  0  0  0  0  0  0  0  0  0  0
  -13.1474   13.1781   32.8359 C   0  0  0  0  0  0  0  0  0  0  0  0
  -10.6950   12.7285   32.5911 N   0  0  0  0  0  0  0  0  0  0  0  0
   -9.5108   12.5852   31.7619 C   0  0  2  0  0  0  0  0  0  0  0  0
   -9.0812   11.1656   31.8454 C   0  0  0  0  0  0  0  0  0  0  0  0
   -9.5768   10.4205   32.7307 O   0  0  0  0  0  0  0  0  0  0  0  0
   -8.4974   13.5930   32.1204 C   0  0  2  0  0  0  0  0  0  0  0  0
   -7.2942   13.1115   32.8668 C   0  0  0  0  0  0  0  0  0  0  0  0
   -9.0111   14.7990   32.8867 C   0  0  0  0  0  0  0  0  0  0  0  0
   -6.3142   14.1720   33.2044 C   0  0  0  0  0  0  0  0  0  0  0  0
   -8.1332   10.5936   30.9665 N   0  0  0  0  0  0  0  0  0  0  0  0
   -7.8370    9.1594   31.1361 C   0  0  2  0  0  0  0  0  0  0  0  0
   -6.5194    9.0011   31.7881 C   0  0  0  0  0  0  0  0  0  0  0  0
   -6.4082    8.1451   32.7052 O   0  0  0  0  0  0  0  0  0  0  0  0
   -7.8887    8.4580   29.7972 C   0  0  0  0  0  0  0  0  0  0  0  0
   -7.6712    6.9800   29.8698 C   0  0  0  0  0  0  0  0  0  0  0  0
   -7.6022    6.2873   28.5793 C   0  0  0  0  0  0  0  0  0  0  0  0
   -7.7059    5.0457   28.4416 O   0  0  0  0  0  0  0  0  0  0  0  0
   -7.4092    7.0006   27.3896 O   0  0  0  0  0  0  0  0  0  0  0  0
   -5.3900    9.8012   31.3906 N   0  0  0  0  0  0  0  0  0  0  0  0
   -4.1897    9.6649   32.1430 C   0  0  2  0  0  0  0  0  0  0  0  0
   -4.2909   10.3688   33.4730 C   0  0  0  0  0  0  0  0  0  0  0  0
   -4.8555   11.4510   33.5942 O   0  0  0  0  0  0  0  0  0  0  0  0
   -2.9737   10.1343   31.4190 C   0  0  0  0  0  0  0  0  0  0  0  0
   -2.9597    9.9657   29.9405 C   0  0  0  0  0  0  0  0  0  0  0  0
   -2.0048   10.8024   29.2161 C   0  0  0  0  0  0  0  0  0  0  0  0
   -2.3333   11.3127   28.1220 O   0  0  0  0  0  0  0  0  0  0  0  0
   -0.7443   11.0194   29.7526 O   0  0  0  0  0  0  0  0  0  0  0  0
   -3.7163    9.7433   34.5780 N   0  0  0  0  0  0  0  0  0  0  0  0
   -3.3793   10.2047   35.8742 C   0  0  2  0  0  0  0  0  0  0  0  0
   -3.0315   11.6221   35.9357 C   0  0  0  0  0  0  0  0  0  0  0  0
   -2.0729   12.1799   35.3245 O   0  0  0  0  0  0  0  0  0  0  0  0
   -2.4426    9.3432   36.6927 C   0  0  1  0  0  0  0  0  0  0  0  0
   -3.2986    8.7179   37.8140 C   0  0  0  0  0  0  0  0  0  0  0  0
   -2.0229    8.1038   35.8927 C   0  0  0  0  0  0  0  0  0  0  0  0
   -3.7947   12.5499   36.7380 N   0  0  0  0  0  0  0  0  0  0  0  0
   -3.3354   13.9446   36.8848 C   0  0  2  0  0  0  0  0  0  0  0  0
   -3.6971   14.3797   38.2734 C   0  0  0  0  0  0  0  0  0  0  0  0
   -4.1419   13.4580   39.2412 O   0  0  0  0  0  0  0  0  0  0  0  0
   -4.1306   14.7254   35.8890 C   0  0  0  0  0  0  0  0  0  0  0  0
   -3.9113   14.3729   34.4817 C   0  0  0  0  0  0  0  0  0  0  0  0
   -2.6846   14.6625   33.9152 O   0  0  0  0  0  0  0  0  0  0  0  0
   -4.7950   13.8227   33.7847 O   0  0  0  0  0  0  0  0  0  0  0  0
   -3.6319   15.5686   38.6672 O   0  0  0  0  0  0  0  0  0  0  0  0
  1  2  2  0
  1  3  1  0
  1  4  1  0
  5  4  1  1
  5  6  1  0
  5  8  1  0
  6  7  2  0
  6 12  1  0
  8  9  1  0
  8 10  1  1
  9 11  1  0
 12 13  1  0
 13 14  1  0
 13 16  1  6
 14 15  2  0
 14 21  1  0
 16 17  1  0
 17 18  1  0
 18 19  2  0
 18 20  1  0
 21 22  1  0
 22 23  1  0
 22 25  1  6
 23 24  2  0
 23 30  1  0
 25 26  1  0
 26 27  1  0
 27 28  2  0
 27 29  1  0
 31 30  1  6
 31 32  1  0
 31 34  1  0
 32 33  2  0
 32 37  1  0
 34 35  1  1
 34 36  1  0
 37 38  1  0
 38 39  1  0
 38 41  1  6
 39 40  1  0
 39 45  2  0
 41 42  1  0
 42 43  1  0
 42 44  2  0
M  END
$$$$
