
     RDKit          3D

 45 44  0  0  0  0  0  0  0  0999 V2000
   -4.9922    8.8190   27.8748 C   0  0  0  0  0  0  0  0  0  0  0  0
   -5.1555   10.0514   27.9724 O   0  0  0  0  0  0  0  0  0  0  0  0
   -3.5765    8.3243   27.7711 C   0  0  0  0  0  0  0  0  0  0  0  0
   -6.0352    7.8512   27.8545 N   0  0  0  0  0  0  0  0  0  0  0  0
   -7.4101    8.2947   28.0064 C   0  0  2  0  0  0  0  0  0  0  0  0
   -7.6427    8.5270   29.4552 C   0  0  0  0  0  0  0  0  0  0  0  0
   -8.2031    9.5903   29.8289 O   0  0  0  0  0  0  0  0  0  0  0  0
   -8.3363    7.3616   27.3410 C   0  0  2  0  0  0  0  0  0  0  0  0
   -8.1900    7.1976   25.8618 C   0  0  0  0  0  0  0  0  0  0  0  0
   -9.8132    7.6101   27.5912 C   0  0  0  0  0  0  0  0  0  0  0  0
   -9.0693    6.1619   25.2674 C   0  0  0  0  0  0  0  0  0  0  0  0
   -7.2671    7.6007   30.4549 N   0  0  0  0  0  0  0  0  0  0  0  0
   -7.6444    7.9193   31.8440 C   0  0  2  0  0  0  0  0  0  0  0  0
   -6.5249    8.6169   32.5120 C   0  0  0  0  0  0  0  0  0  0  0  0
   -6.7152    9.0751   33.6696 O   0  0  0  0  0  0  0  0  0  0  0  0
   -8.0358    6.6556   32.5770 C   0  0  0  0  0  0  0  0  0  0  0  0
   -8.9709    6.8757   33.7235 C   0  0  0  0  0  0  0  0  0  0  0  0
  -10.1234    7.7375   33.4425 C   0  0  0  0  0  0  0  0  0  0  0  0
  -11.0282    7.9935   34.2713 O   0  0  0  0  0  0  0  0  0  0  0  0
  -10.2811    8.3414   32.1888 O   0  0  0  0  0  0  0  0  0  0  0  0
   -5.2492    8.7720   31.8623 N   0  0  0  0  0  0  0  0  0  0  0  0
   -4.2315    9.4720   32.5692 C   0  0  2  0  0  0  0  0  0  0  0  0
   -4.7872   10.1717   33.7843 C   0  0  0  0  0  0  0  0  0  0  0  0
   -5.9700   10.4849   33.8695 O   0  0  0  0  0  0  0  0  0  0  0  0
   -3.4825   10.4486   31.7275 C   0  0  0  0  0  0  0  0  0  0  0  0
   -2.2506   11.0422   32.3145 C   0  0  0  0  0  0  0  0  0  0  0  0
   -2.3037   12.4786   32.5804 C   0  0  0  0  0  0  0  0  0  0  0  0
   -1.2714   13.0780   32.9553 O   0  0  0  0  0  0  0  0  0  0  0  0
   -3.5007   13.1591   32.4136 O   0  0  0  0  0  0  0  0  0  0  0  0
   -3.9038   10.4552   34.8242 N   0  0  0  0  0  0  0  0  0  0  0  0
   -4.0863   11.0153   36.1125 C   0  0  2  0  0  0  0  0  0  0  0  0
   -3.1508   12.0886   36.4390 C   0  0  0  0  0  0  0  0  0  0  0  0
   -2.1113   12.3942   35.7835 O   0  0  0  0  0  0  0  0  0  0  0  0
   -4.2864   10.0525   37.2627 C   0  0  1  0  0  0  0  0  0  0  0  0
   -3.2544    8.9223   37.0652 C   0  0  0  0  0  0  0  0  0  0  0  0
   -3.8092   10.6848   38.5759 C   0  0  0  0  0  0  0  0  0  0  0  0
   -3.3484   12.9332   37.5942 N   0  0  0  0  0  0  0  0  0  0  0  0
   -3.0162   14.3691   37.5198 C   0  0  2  0  0  0  0  0  0  0  0  0
   -3.1756   14.9265   38.9026 C   0  0  0  0  0  0  0  0  0  0  0  0
   -4.0852   14.3675   39.8213 O   0  0  0  0  0  0  0  0  0  0  0  0
   -4.0471   14.9630   36.6153 C   0  0  0  0  0  0  0  0  0  0  0  0
   -3.5354   15.5896   35.3913 C   0  0  0  0  0  0  0  0  0  0  0  0
   -2.8785   14.7949   34.4713 O   0  0  0  0  0  0  0  0  0  0  0  0
   -3.6747   16.8125   35.1576 O   0  0  0  0  0  0  0  0  0  0  0  0
   -2.5260   15.9087   39.3340 O   0  0  0  0  0  0  0  0  0  0  0  0
  1  2  2  0
  1  3  1  0
  1  4  1  0
  5  4  1  1
  5  6  1  0
  5  8  1  0
  6  7  2  0
  6 12  1  0
  8  9  1  0
  8 10  1  6
  9 11  1  0
 12 13  1  0
 13 14  1  0
 13 16  1  1
 14 15  2  0
 14 21  1  0
 16 17  1  0
 17 18  1  0
 18 19  2  0
 18 20  1  0
 21 22  1  0
 22 23  1  0
 22 25  1  6
 23 24  2  0
 23 30  1  0
 25 26  1  0
 26 27  1  0
 27 28  2  0
 27 29  1  0
 31 30  1  6
 31 32  1  0
 31 34  1  0
 32 33  2  0
 32 37  1  0
 34 35  1  6
 34 36  1  0
 37 38  1  0
 38 39  1  0
 38 41  1  6
 39 40  1  0
 39 45  2  0
 41 42  1  0
 42 43  1  0
 42 44  2  0
M  END
$$$$
