
     RDKit          3D

 45 44  0  0  0  0  0  0  0  0999 V2000
  -10.4004    9.6571   28.6181 C   0  0  0  0  0  0  0  0  0  0  0  0
   -9.8327   10.7668   28.6530 O   0  0  0  0  0  0  0  0  0  0  0  0
  -11.6716    9.5657   27.8209 C   0  0  0  0  0  0  0  0  0  0  0  0
   -9.9411    8.4784   29.2698 N   0  0  0  0  0  0  0  0  0  0  0  0
   -8.8714    8.5856   30.2468 C   0  0  2  0  0  0  0  0  0  0  0  0
   -7.5861    8.4856   29.5085 C   0  0  0  0  0  0  0  0  0  0  0  0
   -7.5577    8.7482   28.2778 O   0  0  0  0  0  0  0  0  0  0  0  0
   -9.0675    7.6214   31.3436 C   0  0  2  0  0  0  0  0  0  0  0  0
   -8.4274    6.2785   31.1908 C   0  0  0  0  0  0  0  0  0  0  0  0
  -10.5101    7.3558   31.7361 C   0  0  0  0  0  0  0  0  0  0  0  0
   -9.0588    5.4081   30.1696 C   0  0  0  0  0  0  0  0  0  0  0  0
   -6.3703    8.1098   30.1241 N   0  0  0  0  0  0  0  0  0  0  0  0
   -5.1247    8.6177   29.5205 C   0  0  2  0  0  0  0  0  0  0  0  0
   -4.7120    9.8586   30.2106 C   0  0  0  0  0  0  0  0  0  0  0  0
   -3.7473   10.5124   29.7331 O   0  0  0  0  0  0  0  0  0  0  0  0
   -5.3206    8.8387   28.0373 C   0  0  0  0  0  0  0  0  0  0  0  0
   -4.6321   10.0538   27.5016 C   0  0  0  0  0  0  0  0  0  0  0  0
   -4.4140   10.0689   26.0518 C   0  0  0  0  0  0  0  0  0  0  0  0
   -5.0892   10.7521   25.2465 O   0  0  0  0  0  0  0  0  0  0  0  0
   -3.4045    9.2931   25.4682 O   0  0  0  0  0  0  0  0  0  0  0  0
   -5.3901   10.3127   31.3970 N   0  0  0  0  0  0  0  0  0  0  0  0
   -4.6656   11.1534   32.2879 C   0  0  2  0  0  0  0  0  0  0  0  0
   -4.3719   10.4518   33.5903 C   0  0  0  0  0  0  0  0  0  0  0  0
   -5.2166    9.7768   34.1697 O   0  0  0  0  0  0  0  0  0  0  0  0
   -5.3382   12.4557   32.5610 C   0  0  0  0  0  0  0  0  0  0  0  0
   -6.6672   12.4036   33.2286 C   0  0  0  0  0  0  0  0  0  0  0  0
   -7.3187   13.6940   33.4455 C   0  0  0  0  0  0  0  0  0  0  0  0
   -6.8689   14.7176   32.8839 O   0  0  0  0  0  0  0  0  0  0  0  0
   -8.4291   13.7665   34.2735 O   0  0  0  0  0  0  0  0  0  0  0  0
   -3.0924   10.5939   34.1240 N   0  0  0  0  0  0  0  0  0  0  0  0
   -2.6096   10.6614   35.4541 C   0  0  2  0  0  0  0  0  0  0  0  0
   -2.8072   11.9567   36.0998 C   0  0  0  0  0  0  0  0  0  0  0  0
   -3.3553   12.9720   35.5780 O   0  0  0  0  0  0  0  0  0  0  0  0
   -1.2358   10.0858   35.7207 C   0  0  1  0  0  0  0  0  0  0  0  0
   -0.7116    9.5711   34.3637 C   0  0  0  0  0  0  0  0  0  0  0  0
   -0.2393   11.2086   36.0345 C   0  0  0  0  0  0  0  0  0  0  0  0
   -2.3733   12.1947   37.4570 N   0  0  0  0  0  0  0  0  0  0  0  0
   -3.1315   13.1223   38.3187 C   0  0  2  0  0  0  0  0  0  0  0  0
   -2.4253   13.1664   39.6407 C   0  0  0  0  0  0  0  0  0  0  0  0
   -2.3953   14.3389   40.4205 O   0  0  0  0  0  0  0  0  0  0  0  0
   -4.4755   12.4908   38.4862 C   0  0  0  0  0  0  0  0  0  0  0  0
   -5.4399   13.2494   39.2908 C   0  0  0  0  0  0  0  0  0  0  0  0
   -6.0011   14.3874   38.7434 O   0  0  0  0  0  0  0  0  0  0  0  0
   -5.7664   12.8997   40.4485 O   0  0  0  0  0  0  0  0  0  0  0  0
   -1.8230   12.1854   40.1387 O   0  0  0  0  0  0  0  0  0  0  0  0
  1  2  2  0
  1  3  1  0
  1  4  1  0
  5  4  1  6
  5  6  1  0
  5  8  1  0
  6  7  2  0
  6 12  1  0
  8  9  1  0
  8 10  1  6
  9 11  1  0
 12 13  1  0
 13 14  1  0
 13 16  1  6
 14 15  2  0
 14 21  1  0
 16 17  1  0
 17 18  1  0
 18 19  2  0
 18 20  1  0
 21 22  1  0
 22 23  1  0
 22 25  1  1
 23 24  2  0
 23 30  1  0
 25 26  1  0
 26 27  1  0
 27 28  2  0
 27 29  1  0
 31 30  1  6
 31 32  1  0
 31 34  1  0
 32 33  2  0
 32 37  1  0
 34 35  1  6
 34 36  1  0
 37 38  1  0
 38 39  1  0
 38 41  1  1
 39 40  1  0
 39 45  2  0
 41 42  1  0
 42 43  1  0
 42 44  2  0
M  END
$$$$
