
     RDKit          3D

 45 44  0  0  0  0  0  0  0  0999 V2000
   -8.8314   11.0902   31.4184 C   0  0  0  0  0  0  0  0  0  0  0  0
   -7.8891   11.2537   32.2185 O   0  0  0  0  0  0  0  0  0  0  0  0
   -9.3749   12.3188   30.7439 C   0  0  0  0  0  0  0  0  0  0  0  0
   -9.4278    9.8390   31.0961 N   0  0  0  0  0  0  0  0  0  0  0  0
   -8.9965    8.6491   31.8092 C   0  0  2  0  0  0  0  0  0  0  0  0
   -7.8598    8.0663   31.0507 C   0  0  0  0  0  0  0  0  0  0  0  0
   -7.4064    6.9403   31.3841 O   0  0  0  0  0  0  0  0  0  0  0  0
  -10.1365    7.7509   32.0636 C   0  0  2  0  0  0  0  0  0  0  0  0
  -10.0501    6.3671   31.5033 C   0  0  0  0  0  0  0  0  0  0  0  0
  -11.4983    8.2842   31.6550 C   0  0  0  0  0  0  0  0  0  0  0  0
   -8.7027    5.9827   31.0177 C   0  0  0  0  0  0  0  0  0  0  0  0
   -7.2516    8.7158   29.9523 N   0  0  0  0  0  0  0  0  0  0  0  0
   -5.9695    8.1689   29.4721 C   0  0  2  0  0  0  0  0  0  0  0  0
   -4.8532    8.8446   30.1673 C   0  0  0  0  0  0  0  0  0  0  0  0
   -3.7217    8.8465   29.6143 O   0  0  0  0  0  0  0  0  0  0  0  0
   -5.8710    8.3222   27.9708 C   0  0  0  0  0  0  0  0  0  0  0  0
   -5.0507    9.4911   27.5257 C   0  0  0  0  0  0  0  0  0  0  0  0
   -5.0446    9.7457   26.0818 C   0  0  0  0  0  0  0  0  0  0  0  0
   -6.0794    9.8729   25.3861 O   0  0  0  0  0  0  0  0  0  0  0  0
   -3.8398    9.8638   25.3775 O   0  0  0  0  0  0  0  0  0  0  0  0
   -5.0474    9.4849   31.4425 N   0  0  0  0  0  0  0  0  0  0  0  0
   -3.9394   10.1772   32.0067 C   0  0  2  0  0  0  0  0  0  0  0  0
   -4.2490   10.6702   33.3981 C   0  0  0  0  0  0  0  0  0  0  0  0
   -5.2141   11.3900   33.6326 O   0  0  0  0  0  0  0  0  0  0  0  0
   -3.4541   11.3116   31.1697 C   0  0  0  0  0  0  0  0  0  0  0  0
   -2.2453   11.0686   30.3366 C   0  0  0  0  0  0  0  0  0  0  0  0
   -1.8023   12.1958   29.5180 C   0  0  0  0  0  0  0  0  0  0  0  0
   -2.2120   13.3490   29.7778 O   0  0  0  0  0  0  0  0  0  0  0  0
   -0.9322   11.9708   28.4616 O   0  0  0  0  0  0  0  0  0  0  0  0
   -3.3938   10.2767   34.4258 N   0  0  0  0  0  0  0  0  0  0  0  0
   -3.4096   10.4981   35.8248 C   0  0  2  0  0  0  0  0  0  0  0  0
   -3.3133   11.9034   36.2118 C   0  0  0  0  0  0  0  0  0  0  0  0
   -2.5845   12.7788   35.6586 O   0  0  0  0  0  0  0  0  0  0  0  0
   -2.5360    9.6025   36.6762 C   0  0  1  0  0  0  0  0  0  0  0  0
   -1.2020   10.3543   36.8670 C   0  0  0  0  0  0  0  0  0  0  0  0
   -3.0707    9.5462   38.1125 C   0  0  0  0  0  0  0  0  0  0  0  0
   -4.0841   12.4353   37.3117 N   0  0  0  0  0  0  0  0  0  0  0  0
   -3.9893   13.8686   37.6498 C   0  0  2  0  0  0  0  0  0  0  0  0
   -3.7973   13.9553   39.1344 C   0  0  0  0  0  0  0  0  0  0  0  0
   -3.7967   12.8035   39.9451 O   0  0  0  0  0  0  0  0  0  0  0  0
   -5.3164   14.4469   37.2787 C   0  0  0  0  0  0  0  0  0  0  0  0
   -6.4897   13.7041   37.7524 C   0  0  0  0  0  0  0  0  0  0  0  0
   -7.1329   14.1487   38.8918 O   0  0  0  0  0  0  0  0  0  0  0  0
   -6.9217   12.6881   37.1604 O   0  0  0  0  0  0  0  0  0  0  0  0
   -3.6269   15.0345   39.7502 O   0  0  0  0  0  0  0  0  0  0  0  0
  1  2  2  0
  1  3  1  0
  1  4  1  0
  5  4  1  6
  5  6  1  0
  5  8  1  0
  6  7  2  0
  6 12  1  0
  8  9  1  0
  8 10  1  6
  9 11  1  0
 12 13  1  0
 13 14  1  0
 13 16  1  6
 14 15  2  0
 14 21  1  0
 16 17  1  0
 17 18  1  0
 18 19  2  0
 18 20  1  0
 21 22  1  0
 22 23  1  0
 22 25  1  6
 23 24  2  0
 23 30  1  0
 25 26  1  0
 26 27  1  0
 27 28  2  0
 27 29  1  0
 31 30  1  6
 31 32  1  0
 31 34  1  0
 32 33  2  0
 32 37  1  0
 34 35  1  1
 34 36  1  0
 37 38  1  0
 38 39  1  0
 38 41  1  1
 39 40  1  0
 39 45  2  0
 41 42  1  0
 42 43  1  0
 42 44  2  0
M  END
$$$$
