
     RDKit          3D

 45 44  0  0  0  0  0  0  0  0999 V2000
   -8.4941   11.8543   30.5122 C   0  0  0  0  0  0  0  0  0  0  0  0
   -7.8368   12.3580   31.4445 O   0  0  0  0  0  0  0  0  0  0  0  0
   -8.8846   12.7658   29.3824 C   0  0  0  0  0  0  0  0  0  0  0  0
   -8.9002   10.4927   30.4353 N   0  0  0  0  0  0  0  0  0  0  0  0
   -8.7279    9.6400   31.5988 C   0  0  2  0  0  0  0  0  0  0  0  0
   -7.3459    9.0974   31.5492 C   0  0  0  0  0  0  0  0  0  0  0  0
   -6.6488    9.0837   32.5972 O   0  0  0  0  0  0  0  0  0  0  0  0
   -9.8132    8.6469   31.6836 C   0  0  2  0  0  0  0  0  0  0  0  0
   -9.6828    7.5847   32.7282 C   0  0  0  0  0  0  0  0  0  0  0  0
  -10.1462    7.9242   30.3903 C   0  0  0  0  0  0  0  0  0  0  0  0
  -10.7426    7.6077   33.7651 C   0  0  0  0  0  0  0  0  0  0  0  0
   -6.7616    8.5818   30.3697 N   0  0  0  0  0  0  0  0  0  0  0  0
   -5.4266    7.9682   30.4921 C   0  0  2  0  0  0  0  0  0  0  0  0
   -4.3887    8.9877   30.2286 C   0  0  0  0  0  0  0  0  0  0  0  0
   -3.1889    8.6924   30.4726 O   0  0  0  0  0  0  0  0  0  0  0  0
   -5.3094    6.7911   29.5499 C   0  0  0  0  0  0  0  0  0  0  0  0
   -6.2571    5.6721   29.8447 C   0  0  0  0  0  0  0  0  0  0  0  0
   -5.9782    4.9136   31.0681 C   0  0  0  0  0  0  0  0  0  0  0  0
   -6.6937    3.9759   31.4922 O   0  0  0  0  0  0  0  0  0  0  0  0
   -4.8584    5.2068   31.8566 O   0  0  0  0  0  0  0  0  0  0  0  0
   -4.7334   10.2852   29.7076 N   0  0  0  0  0  0  0  0  0  0  0  0
   -3.6778   11.2218   29.5230 C   0  0  2  0  0  0  0  0  0  0  0  0
   -3.5157   12.1131   30.7288 C   0  0  0  0  0  0  0  0  0  0  0  0
   -2.9712   13.2100   30.6575 O   0  0  0  0  0  0  0  0  0  0  0  0
   -3.8283   12.0584   28.2981 C   0  0  0  0  0  0  0  0  0  0  0  0
   -4.1672   11.3511   27.0334 C   0  0  0  0  0  0  0  0  0  0  0  0
   -5.5367   11.5297   26.5545 C   0  0  0  0  0  0  0  0  0  0  0  0
   -6.0670   12.6619   26.6015 O   0  0  0  0  0  0  0  0  0  0  0  0
   -6.2314   10.4386   26.0537 O   0  0  0  0  0  0  0  0  0  0  0  0
   -4.0116   11.6474   31.9451 N   0  0  0  0  0  0  0  0  0  0  0  0
   -3.8625   12.1007   33.2789 C   0  0  2  0  0  0  0  0  0  0  0  0
   -3.6076   11.0390   34.2493 C   0  0  0  0  0  0  0  0  0  0  0  0
   -3.1705    9.8800   33.9860 O   0  0  0  0  0  0  0  0  0  0  0  0
   -4.8679   13.1141   33.7809 C   0  0  1  0  0  0  0  0  0  0  0  0
   -5.0935   14.1095   32.6236 C   0  0  0  0  0  0  0  0  0  0  0  0
   -6.2534   12.4697   33.9128 C   0  0  0  0  0  0  0  0  0  0  0  0
   -3.8432   11.2374   35.6607 N   0  0  0  0  0  0  0  0  0  0  0  0
   -3.4748   10.1807   36.6226 C   0  0  2  0  0  0  0  0  0  0  0  0
   -4.5104    9.1027   36.5050 C   0  0  0  0  0  0  0  0  0  0  0  0
   -5.8538    9.4020   36.2056 O   0  0  0  0  0  0  0  0  0  0  0  0
   -3.5692   10.8255   37.9675 C   0  0  0  0  0  0  0  0  0  0  0  0
   -2.3734   11.5505   38.4115 C   0  0  0  0  0  0  0  0  0  0  0  0
   -1.4537   10.8823   39.1972 O   0  0  0  0  0  0  0  0  0  0  0  0
   -2.1633   12.7464   38.1028 O   0  0  0  0  0  0  0  0  0  0  0  0
   -4.2632    7.8830   36.6607 O   0  0  0  0  0  0  0  0  0  0  0  0
  1  2  2  0
  1  3  1  0
  1  4  1  0
  5  4  1  6
  5  6  1  0
  5  8  1  0
  6  7  2  0
  6 12  1  0
  8  9  1  0
  8 10  1  6
  9 11  1  0
 12 13  1  0
 13 14  1  0
 13 16  1  6
 14 15  2  0
 14 21  1  0
 16 17  1  0
 17 18  1  0
 18 19  2  0
 18 20  1  0
 21 22  1  0
 22 23  1  0
 22 25  1  6
 23 24  2  0
 23 30  1  0
 25 26  1  0
 26 27  1  0
 27 28  2  0
 27 29  1  0
 31 30  1  6
 31 32  1  0
 31 34  1  0
 32 33  2  0
 32 37  1  0
 34 35  1  6
 34 36  1  0
 37 38  1  0
 38 39  1  0
 38 41  1  1
 39 40  1  0
 39 45  2  0
 41 42  1  0
 42 43  1  0
 42 44  2  0
M  END
$$$$
