
     RDKit          3D

 45 44  0  0  0  0  0  0  0  0999 V2000
   -8.3653    9.8455   27.9617 C   0  0  0  0  0  0  0  0  0  0  0  0
   -7.5382   10.7775   27.9136 O   0  0  0  0  0  0  0  0  0  0  0  0
   -7.9975    8.5696   27.2571 C   0  0  0  0  0  0  0  0  0  0  0  0
   -9.6219    9.8958   28.6277 N   0  0  0  0  0  0  0  0  0  0  0  0
   -9.6859    9.5492   30.0370 C   0  0  2  0  0  0  0  0  0  0  0  0
   -8.9576   10.6055   30.7861 C   0  0  0  0  0  0  0  0  0  0  0  0
   -8.8781   10.5312   32.0401 O   0  0  0  0  0  0  0  0  0  0  0  0
   -9.2292    8.1655   30.2557 C   0  0  2  0  0  0  0  0  0  0  0  0
   -8.1342    7.6629   29.3698 C   0  0  0  0  0  0  0  0  0  0  0  0
  -10.3131    7.1025   30.2263 C   0  0  0  0  0  0  0  0  0  0  0  0
   -7.0496    8.6419   29.1160 C   0  0  0  0  0  0  0  0  0  0  0  0
   -8.3335   11.7065   30.1564 N   0  0  0  0  0  0  0  0  0  0  0  0
   -7.9225   12.8305   31.0173 C   0  0  2  0  0  0  0  0  0  0  0  0
   -7.1342   12.3164   32.1576 C   0  0  0  0  0  0  0  0  0  0  0  0
   -6.6926   13.1446   32.9974 O   0  0  0  0  0  0  0  0  0  0  0  0
   -9.1391   13.6017   31.4781 C   0  0  0  0  0  0  0  0  0  0  0  0
   -8.8308   14.7481   32.3881 C   0  0  0  0  0  0  0  0  0  0  0  0
   -9.7767   15.8672   32.3373 C   0  0  0  0  0  0  0  0  0  0  0  0
  -10.6865   15.9804   31.4826 O   0  0  0  0  0  0  0  0  0  0  0  0
   -9.7117   16.9068   33.2737 O   0  0  0  0  0  0  0  0  0  0  0  0
   -6.8742   10.9082   32.3097 N   0  0  0  0  0  0  0  0  0  0  0  0
   -5.9901   10.5111   33.3518 C   0  0  2  0  0  0  0  0  0  0  0  0
   -4.7209   11.3256   33.3371 C   0  0  0  0  0  0  0  0  0  0  0  0
   -4.0983   11.5400   32.3022 O   0  0  0  0  0  0  0  0  0  0  0  0
   -5.6536    9.0587   33.3293 C   0  0  0  0  0  0  0  0  0  0  0  0
   -6.7509    8.1156   32.9812 C   0  0  0  0  0  0  0  0  0  0  0  0
   -6.5408    7.3157   31.7758 C   0  0  0  0  0  0  0  0  0  0  0  0
   -7.0677    7.6695   30.6977 O   0  0  0  0  0  0  0  0  0  0  0  0
   -5.7586    6.1724   31.8442 O   0  0  0  0  0  0  0  0  0  0  0  0
   -4.2697   11.8367   34.5526 N   0  0  0  0  0  0  0  0  0  0  0  0
   -2.9743   12.0091   35.0995 C   0  0  2  0  0  0  0  0  0  0  0  0
   -2.2249   10.7671   35.2719 C   0  0  0  0  0  0  0  0  0  0  0  0
   -2.7226    9.6094   35.3973 O   0  0  0  0  0  0  0  0  0  0  0  0
   -2.8443   12.9332   36.2907 C   0  0  1  0  0  0  0  0  0  0  0  0
   -2.4789   14.3210   35.7236 C   0  0  0  0  0  0  0  0  0  0  0  0
   -4.2217   13.2018   36.9094 C   0  0  0  0  0  0  0  0  0  0  0  0
   -0.7809   10.7592   35.3122 N   0  0  0  0  0  0  0  0  0  0  0  0
   -0.0588    9.4899   35.5248 C   0  0  2  0  0  0  0  0  0  0  0  0
    0.2804    9.4194   36.9836 C   0  0  0  0  0  0  0  0  0  0  0  0
    0.8187    8.2517   37.5586 O   0  0  0  0  0  0  0  0  0  0  0  0
    1.1951    9.6137   34.7213 C   0  0  0  0  0  0  0  0  0  0  0  0
    1.0106    9.8140   33.2796 C   0  0  0  0  0  0  0  0  0  0  0  0
    0.9913    8.7024   32.4588 O   0  0  0  0  0  0  0  0  0  0  0  0
    0.8718   10.9522   32.7750 O   0  0  0  0  0  0  0  0  0  0  0  0
    0.1141   10.3726   37.7816 O   0  0  0  0  0  0  0  0  0  0  0  0
  1  2  2  0
  1  3  1  0
  1  4  1  0
  5  4  1  6
  5  6  1  0
  5  8  1  0
  6  7  2  0
  6 12  1  0
  8  9  1  0
  8 10  1  6
  9 11  1  0
 12 13  1  0
 13 14  1  0
 13 16  1  1
 14 15  2  0
 14 21  1  0
 16 17  1  0
 17 18  1  0
 18 19  2  0
 18 20  1  0
 21 22  1  0
 22 23  1  0
 22 25  1  6
 23 24  2  0
 23 30  1  0
 25 26  1  0
 26 27  1  0
 27 28  2  0
 27 29  1  0
 31 30  1  1
 31 32  1  0
 31 34  1  0
 32 33  2  0
 32 37  1  0
 34 35  1  6
 34 36  1  0
 37 38  1  0
 38 39  1  0
 38 41  1  6
 39 40  1  0
 39 45  2  0
 41 42  1  0
 42 43  1  0
 42 44  2  0
M  END
$$$$
