
     RDKit          3D

 45 44  0  0  0  0  0  0  0  0999 V2000
   -9.9749    7.5475   32.7751 C   0  0  0  0  0  0  0  0  0  0  0  0
   -8.8491    7.0195   32.8694 O   0  0  0  0  0  0  0  0  0  0  0  0
  -11.0678    6.9836   33.6395 C   0  0  0  0  0  0  0  0  0  0  0  0
  -10.3027    8.6356   31.9186 N   0  0  0  0  0  0  0  0  0  0  0  0
   -9.3378    9.0601   30.9190 C   0  0  2  0  0  0  0  0  0  0  0  0
   -8.5641   10.1868   31.5012 C   0  0  0  0  0  0  0  0  0  0  0  0
   -7.6554   10.7301   30.8203 O   0  0  0  0  0  0  0  0  0  0  0  0
  -10.0027    9.3254   29.6311 C   0  0  2  0  0  0  0  0  0  0  0  0
  -11.1219   10.3172   29.6354 C   0  0  0  0  0  0  0  0  0  0  0  0
  -10.5279    8.1039   28.8979 C   0  0  0  0  0  0  0  0  0  0  0  0
  -10.6923   11.7308   29.5070 C   0  0  0  0  0  0  0  0  0  0  0  0
   -8.7997   10.6949   32.7991 N   0  0  0  0  0  0  0  0  0  0  0  0
   -8.6905   12.1538   32.9813 C   0  0  2  0  0  0  0  0  0  0  0  0
   -7.2687   12.5262   33.1422 C   0  0  0  0  0  0  0  0  0  0  0  0
   -6.8930   13.6451   32.7028 O   0  0  0  0  0  0  0  0  0  0  0  0
   -9.5230   12.5916   34.1656 C   0  0  0  0  0  0  0  0  0  0  0  0
   -9.8116   14.0587   34.2042 C   0  0  0  0  0  0  0  0  0  0  0  0
   -8.6398   14.9358   34.1184 C   0  0  0  0  0  0  0  0  0  0  0  0
   -7.6212   14.6828   33.4333 O   0  0  0  0  0  0  0  0  0  0  0  0
   -8.5939   16.1456   34.8226 O   0  0  0  0  0  0  0  0  0  0  0  0
   -6.3333   11.6381   33.7827 N   0  0  0  0  0  0  0  0  0  0  0  0
   -4.9470   11.9233   33.6331 C   0  0  2  0  0  0  0  0  0  0  0  0
   -4.1542   10.6707   33.3557 C   0  0  0  0  0  0  0  0  0  0  0  0
   -3.7221    9.9619   34.2587 O   0  0  0  0  0  0  0  0  0  0  0  0
   -4.3557   12.6429   34.7974 C   0  0  0  0  0  0  0  0  0  0  0  0
   -4.4979   12.0010   36.1324 C   0  0  0  0  0  0  0  0  0  0  0  0
   -3.8822   12.7164   37.2487 C   0  0  0  0  0  0  0  0  0  0  0  0
   -4.5858   13.0731   38.2197 O   0  0  0  0  0  0  0  0  0  0  0  0
   -2.5231   12.9910   37.2157 O   0  0  0  0  0  0  0  0  0  0  0  0
   -3.9244   10.3362   32.0225 N   0  0  0  0  0  0  0  0  0  0  0  0
   -2.9436    9.5333   31.3899 C   0  0  2  0  0  0  0  0  0  0  0  0
   -1.5900   10.0792   31.4508 C   0  0  0  0  0  0  0  0  0  0  0  0
   -1.2778   11.3040   31.3738 O   0  0  0  0  0  0  0  0  0  0  0  0
   -3.2819    8.9765   30.0242 C   0  0  1  0  0  0  0  0  0  0  0  0
   -2.3042    7.8080   29.7792 C   0  0  0  0  0  0  0  0  0  0  0  0
   -4.6322    8.2504   30.0644 C   0  0  0  0  0  0  0  0  0  0  0  0
   -0.4395    9.2212   31.6153 N   0  0  0  0  0  0  0  0  0  0  0  0
    0.9159    9.8047   31.6312 C   0  0  2  0  0  0  0  0  0  0  0  0
    1.6078    9.3358   30.3864 C   0  0  0  0  0  0  0  0  0  0  0  0
    1.0154    9.4788   29.1165 O   0  0  0  0  0  0  0  0  0  0  0  0
    1.5823    9.2137   32.8312 C   0  0  0  0  0  0  0  0  0  0  0  0
    1.8411    7.7708   32.7700 C   0  0  0  0  0  0  0  0  0  0  0  0
    2.6246    7.2013   33.7556 O   0  0  0  0  0  0  0  0  0  0  0  0
    1.3777    7.0463   31.8591 O   0  0  0  0  0  0  0  0  0  0  0  0
    2.7391    8.7944   30.3833 O   0  0  0  0  0  0  0  0  0  0  0  0
  1  2  2  0
  1  3  1  0
  1  4  1  0
  5  4  1  1
  5  6  1  0
  5  8  1  0
  6  7  2  0
  6 12  1  0
  8  9  1  0
  8 10  1  1
  9 11  1  0
 12 13  1  0
 13 14  1  0
 13 16  1  1
 14 15  2  0
 14 21  1  0
 16 17  1  0
 17 18  1  0
 18 19  2  0
 18 20  1  0
 21 22  1  0
 22 23  1  0
 22 25  1  1
 23 24  2  0
 23 30  1  0
 25 26  1  0
 26 27  1  0
 27 28  2  0
 27 29  1  0
 31 30  1  6
 31 32  1  0
 31 34  1  0
 32 33  2  0
 32 37  1  0
 34 35  1  1
 34 36  1  0
 37 38  1  0
 38 39  1  0
 38 41  1  1
 39 40  1  0
 39 45  2  0
 41 42  1  0
 42 43  1  0
 42 44  2  0
M  END
$$$$
