
     RDKit          3D

 45 44  0  0  0  0  0  0  0  0999 V2000
  -12.7947   12.6360   31.7163 C   0  0  0  0  0  0  0  0  0  0  0  0
  -12.5079   13.8468   31.6351 O   0  0  0  0  0  0  0  0  0  0  0  0
  -14.2053   12.2444   31.3746 C   0  0  0  0  0  0  0  0  0  0  0  0
  -11.8961   11.6030   32.1043 N   0  0  0  0  0  0  0  0  0  0  0  0
  -10.5204   11.9482   32.4185 C   0  0  2  0  0  0  0  0  0  0  0  0
   -9.6635   11.3634   31.3551 C   0  0  0  0  0  0  0  0  0  0  0  0
   -9.8163   10.1566   31.0316 O   0  0  0  0  0  0  0  0  0  0  0  0
  -10.1895   11.5665   33.8027 C   0  0  2  0  0  0  0  0  0  0  0  0
  -11.3180   11.1058   34.6692 C   0  0  0  0  0  0  0  0  0  0  0  0
   -9.4391   12.6098   34.6114 C   0  0  0  0  0  0  0  0  0  0  0  0
  -11.4828    9.6335   34.7342 C   0  0  0  0  0  0  0  0  0  0  0  0
   -8.6715   12.1023   30.6707 N   0  0  0  0  0  0  0  0  0  0  0  0
   -7.8514   11.3758   29.6841 C   0  0  2  0  0  0  0  0  0  0  0  0
   -6.7425   10.6853   30.3766 C   0  0  0  0  0  0  0  0  0  0  0  0
   -5.8953   11.3867   30.9901 O   0  0  0  0  0  0  0  0  0  0  0  0
   -7.3448   12.3319   28.6275 C   0  0  0  0  0  0  0  0  0  0  0  0
   -8.4214   13.0939   27.9223 C   0  0  0  0  0  0  0  0  0  0  0  0
   -7.9655   13.9938   26.8582 C   0  0  0  0  0  0  0  0  0  0  0  0
   -8.3035   15.1970   26.7625 O   0  0  0  0  0  0  0  0  0  0  0  0
   -7.0980   13.5413   25.8562 O   0  0  0  0  0  0  0  0  0  0  0  0
   -6.6280    9.2500   30.3539 N   0  0  0  0  0  0  0  0  0  0  0  0
   -5.3787    8.6834   30.7329 C   0  0  2  0  0  0  0  0  0  0  0  0
   -4.4784    9.7123   31.3696 C   0  0  0  0  0  0  0  0  0  0  0  0
   -3.8663   10.5411   30.7040 O   0  0  0  0  0  0  0  0  0  0  0  0
   -4.6603    8.0150   29.6104 C   0  0  0  0  0  0  0  0  0  0  0  0
   -5.4744    7.1728   28.6925 C   0  0  0  0  0  0  0  0  0  0  0  0
   -4.7807    6.0334   28.0948 C   0  0  0  0  0  0  0  0  0  0  0  0
   -5.4381    5.1488   27.5027 O   0  0  0  0  0  0  0  0  0  0  0  0
   -3.3998    5.9480   28.1930 O   0  0  0  0  0  0  0  0  0  0  0  0
   -4.3612    9.6943   32.7582 N   0  0  0  0  0  0  0  0  0  0  0  0
   -3.7967   10.6045   33.6854 C   0  0  2  0  0  0  0  0  0  0  0  0
   -3.7883   10.1276   35.0661 C   0  0  0  0  0  0  0  0  0  0  0  0
   -4.7484    9.5552   35.6612 O   0  0  0  0  0  0  0  0  0  0  0  0
   -4.2192   12.0534   33.5765 C   0  0  1  0  0  0  0  0  0  0  0  0
   -4.0462   12.4441   32.0937 C   0  0  0  0  0  0  0  0  0  0  0  0
   -5.7368   12.1809   33.7577 C   0  0  0  0  0  0  0  0  0  0  0  0
   -2.6223   10.2756   35.9061 N   0  0  0  0  0  0  0  0  0  0  0  0
   -2.6333    9.7369   37.2799 C   0  0  2  0  0  0  0  0  0  0  0  0
   -3.3507   10.7375   38.1356 C   0  0  0  0  0  0  0  0  0  0  0  0
   -3.6889   10.4541   39.4733 O   0  0  0  0  0  0  0  0  0  0  0  0
   -1.1963    9.6664   37.6841 C   0  0  0  0  0  0  0  0  0  0  0  0
   -0.2839    9.0838   36.6937 C   0  0  0  0  0  0  0  0  0  0  0  0
    0.1849    9.8928   35.6762 O   0  0  0  0  0  0  0  0  0  0  0  0
    0.0793    7.8858   36.7424 O   0  0  0  0  0  0  0  0  0  0  0  0
   -3.6948   11.8745   37.7335 O   0  0  0  0  0  0  0  0  0  0  0  0
  1  2  2  0
  1  3  1  0
  1  4  1  0
  5  4  1  6
  5  6  1  0
  5  8  1  0
  6  7  2  0
  6 12  1  0
  8  9  1  0
  8 10  1  1
  9 11  1  0
 12 13  1  0
 13 14  1  0
 13 16  1  6
 14 15  2  0
 14 21  1  0
 16 17  1  0
 17 18  1  0
 18 19  2  0
 18 20  1  0
 21 22  1  0
 22 23  1  0
 22 25  1  6
 23 24  2  0
 23 30  1  0
 25 26  1  0
 26 27  1  0
 27 28  2  0
 27 29  1  0
 31 30  1  6
 31 32  1  0
 31 34  1  0
 32 33  2  0
 32 37  1  0
 34 35  1  6
 34 36  1  0
 37 38  1  0
 38 39  1  0
 38 41  1  1
 39 40  1  0
 39 45  2  0
 41 42  1  0
 42 43  1  0
 42 44  2  0
M  END
$$$$
