
     RDKit          3D

 45 44  0  0  0  0  0  0  0  0999 V2000
   -9.2503   10.3813   28.4808 C   0  0  0  0  0  0  0  0  0  0  0  0
   -9.2009   11.5049   29.0193 O   0  0  0  0  0  0  0  0  0  0  0  0
   -9.2485   10.3441   26.9780 C   0  0  0  0  0  0  0  0  0  0  0  0
   -9.3075    9.1398   29.1740 N   0  0  0  0  0  0  0  0  0  0  0  0
   -9.2603    9.1415   30.6260 C   0  0  2  0  0  0  0  0  0  0  0  0
   -7.9281    8.6201   31.0261 C   0  0  0  0  0  0  0  0  0  0  0  0
   -7.7119    7.3806   30.9872 O   0  0  0  0  0  0  0  0  0  0  0  0
  -10.4281    8.4397   31.1871 C   0  0  2  0  0  0  0  0  0  0  0  0
  -10.2275    7.0210   31.6153 C   0  0  0  0  0  0  0  0  0  0  0  0
  -11.6764    8.4440   30.3224 C   0  0  0  0  0  0  0  0  0  0  0  0
   -9.7064    6.8621   32.9946 C   0  0  0  0  0  0  0  0  0  0  0  0
   -6.8690    9.4544   31.4509 N   0  0  0  0  0  0  0  0  0  0  0  0
   -5.6934    8.7976   32.0511 C   0  0  2  0  0  0  0  0  0  0  0  0
   -5.3961    9.4179   33.3599 C   0  0  0  0  0  0  0  0  0  0  0  0
   -4.3903    9.0083   33.9978 O   0  0  0  0  0  0  0  0  0  0  0  0
   -4.5143    8.8839   31.1081 C   0  0  0  0  0  0  0  0  0  0  0  0
   -4.2567   10.2561   30.5714 C   0  0  0  0  0  0  0  0  0  0  0  0
   -3.1744   10.9978   31.2258 C   0  0  0  0  0  0  0  0  0  0  0  0
   -2.2978   11.6501   30.6116 O   0  0  0  0  0  0  0  0  0  0  0  0
   -3.0573   11.0173   32.6213 O   0  0  0  0  0  0  0  0  0  0  0  0
   -6.2299   10.4621   33.8968 N   0  0  0  0  0  0  0  0  0  0  0  0
   -5.8659   11.0117   35.1580 C   0  0  2  0  0  0  0  0  0  0  0  0
   -4.4094   10.7684   35.4647 C   0  0  0  0  0  0  0  0  0  0  0  0
   -4.0142    9.7111   35.9448 O   0  0  0  0  0  0  0  0  0  0  0  0
   -6.7047   10.5208   36.2887 C   0  0  0  0  0  0  0  0  0  0  0  0
   -6.4010   11.0625   37.6410 C   0  0  0  0  0  0  0  0  0  0  0  0
   -7.4757   10.9491   38.6254 C   0  0  0  0  0  0  0  0  0  0  0  0
   -7.9637    9.8264   38.8836 O   0  0  0  0  0  0  0  0  0  0  0  0
   -7.9413   12.0906   39.2610 O   0  0  0  0  0  0  0  0  0  0  0  0
   -3.5113   11.7957   35.1811 N   0  0  0  0  0  0  0  0  0  0  0  0
   -2.1220   11.9470   35.4131 C   0  0  2  0  0  0  0  0  0  0  0  0
   -1.5845   13.2457   35.0151 C   0  0  0  0  0  0  0  0  0  0  0  0
   -1.6269   13.7432   33.8514 O   0  0  0  0  0  0  0  0  0  0  0  0
   -1.2241   10.7996   35.0046 C   0  0  1  0  0  0  0  0  0  0  0  0
   -1.8087    9.5353   35.6687 C   0  0  0  0  0  0  0  0  0  0  0  0
   -1.4081   10.4831   33.5153 C   0  0  0  0  0  0  0  0  0  0  0  0
   -0.9303   14.1129   35.9674 N   0  0  0  0  0  0  0  0  0  0  0  0
   -1.2344   15.5569   35.9759 C   0  0  2  0  0  0  0  0  0  0  0  0
   -0.4012   16.1723   37.0600 C   0  0  0  0  0  0  0  0  0  0  0  0
    0.2866   17.3853   36.8610 O   0  0  0  0  0  0  0  0  0  0  0  0
   -2.6813   15.6500   36.3382 C   0  0  0  0  0  0  0  0  0  0  0  0
   -3.6283   15.4360   35.2381 C   0  0  0  0  0  0  0  0  0  0  0  0
   -3.9608   16.5129   34.4385 O   0  0  0  0  0  0  0  0  0  0  0  0
   -4.1400   14.3167   35.0045 O   0  0  0  0  0  0  0  0  0  0  0  0
   -0.2582   15.6648   38.1980 O   0  0  0  0  0  0  0  0  0  0  0  0
  1  2  2  0
  1  3  1  0
  1  4  1  0
  5  4  1  6
  5  6  1  0
  5  8  1  0
  6  7  2  0
  6 12  1  0
  8  9  1  0
  8 10  1  6
  9 11  1  0
 12 13  1  0
 13 14  1  0
 13 16  1  6
 14 15  2  0
 14 21  1  0
 16 17  1  0
 17 18  1  0
 18 19  2  0
 18 20  1  0
 21 22  1  0
 22 23  1  0
 22 25  1  1
 23 24  2  0
 23 30  1  0
 25 26  1  0
 26 27  1  0
 27 28  2  0
 27 29  1  0
 31 30  1  6
 31 32  1  0
 31 34  1  0
 32 33  2  0
 32 37  1  0
 34 35  1  1
 34 36  1  0
 37 38  1  0
 38 39  1  0
 38 41  1  1
 39 40  1  0
 39 45  2  0
 41 42  1  0
 42 43  1  0
 42 44  2  0
M  END
$$$$
