
     RDKit          3D

 45 44  0  0  0  0  0  0  0  0999 V2000
   -9.6133   11.4293   28.9870 C   0  0  0  0  0  0  0  0  0  0  0  0
   -9.0532   12.4564   29.4186 O   0  0  0  0  0  0  0  0  0  0  0  0
  -10.1787   11.4937   27.5956 C   0  0  0  0  0  0  0  0  0  0  0  0
   -9.7575   10.2089   29.7046 N   0  0  0  0  0  0  0  0  0  0  0  0
   -9.2539   10.1285   31.0649 C   0  0  2  0  0  0  0  0  0  0  0  0
   -7.7771    9.9897   30.9826 C   0  0  0  0  0  0  0  0  0  0  0  0
   -7.2790    8.9019   30.5915 O   0  0  0  0  0  0  0  0  0  0  0  0
   -9.9635    9.0834   31.8234 C   0  0  2  0  0  0  0  0  0  0  0  0
   -9.8537    7.6813   31.3150 C   0  0  0  0  0  0  0  0  0  0  0  0
  -11.4436    9.3299   32.0566 C   0  0  0  0  0  0  0  0  0  0  0  0
  -10.2052    6.6373   32.3077 C   0  0  0  0  0  0  0  0  0  0  0  0
   -6.8843   11.0323   31.3207 N   0  0  0  0  0  0  0  0  0  0  0  0
   -5.4426   10.7300   31.2617 C   0  0  2  0  0  0  0  0  0  0  0  0
   -5.0242   10.0725   32.5182 C   0  0  0  0  0  0  0  0  0  0  0  0
   -5.7824   10.1654   33.5196 O   0  0  0  0  0  0  0  0  0  0  0  0
   -4.6581   11.9967   31.0026 C   0  0  0  0  0  0  0  0  0  0  0  0
   -5.0639   13.1555   31.8569 C   0  0  0  0  0  0  0  0  0  0  0  0
   -4.3604   14.4141   31.5904 C   0  0  0  0  0  0  0  0  0  0  0  0
   -3.5933   14.9770   32.4063 O   0  0  0  0  0  0  0  0  0  0  0  0
   -4.5138   15.0786   30.3670 O   0  0  0  0  0  0  0  0  0  0  0  0
   -3.7845    9.3446   32.6018 N   0  0  0  0  0  0  0  0  0  0  0  0
   -3.4866    8.6915   33.8307 C   0  0  2  0  0  0  0  0  0  0  0  0
   -2.4065    9.4180   34.5924 C   0  0  0  0  0  0  0  0  0  0  0  0
   -1.4023    8.8448   35.0018 O   0  0  0  0  0  0  0  0  0  0  0  0
   -3.1084    7.2583   33.6696 C   0  0  0  0  0  0  0  0  0  0  0  0
   -2.8388    6.4861   34.9129 C   0  0  0  0  0  0  0  0  0  0  0  0
   -1.5791    6.7920   35.5885 C   0  0  0  0  0  0  0  0  0  0  0  0
   -0.5093    6.7806   34.9398 O   0  0  0  0  0  0  0  0  0  0  0  0
   -1.5870    7.0908   36.9429 O   0  0  0  0  0  0  0  0  0  0  0  0
   -2.5849   10.7814   34.8199 N   0  0  0  0  0  0  0  0  0  0  0  0
   -1.9872   11.6888   35.7287 C   0  0  2  0  0  0  0  0  0  0  0  0
   -2.9147   12.2669   36.6979 C   0  0  0  0  0  0  0  0  0  0  0  0
   -2.6723   13.2409   37.4699 O   0  0  0  0  0  0  0  0  0  0  0  0
   -1.0359   12.7161   35.1546 C   0  0  1  0  0  0  0  0  0  0  0  0
   -1.8094   13.4441   34.0353 C   0  0  0  0  0  0  0  0  0  0  0  0
   -0.8042   13.8492   36.1618 C   0  0  0  0  0  0  0  0  0  0  0  0
   -4.2535   11.7487   36.8595 N   0  0  0  0  0  0  0  0  0  0  0  0
   -5.1849   12.4004   37.8005 C   0  0  2  0  0  0  0  0  0  0  0  0
   -6.0436   11.3189   38.3845 C   0  0  0  0  0  0  0  0  0  0  0  0
   -6.9469   11.5817   39.4329 O   0  0  0  0  0  0  0  0  0  0  0  0
   -6.0212   13.3080   36.9577 C   0  0  0  0  0  0  0  0  0  0  0  0
   -5.3271   14.4693   36.3901 C   0  0  0  0  0  0  0  0  0  0  0  0
   -5.0825   14.4886   35.0301 O   0  0  0  0  0  0  0  0  0  0  0  0
   -4.9527   15.4349   37.0950 O   0  0  0  0  0  0  0  0  0  0  0  0
   -6.0221   10.1279   37.9921 O   0  0  0  0  0  0  0  0  0  0  0  0
  1  2  2  0
  1  3  1  0
  1  4  1  0
  5  4  1  6
  5  6  1  0
  5  8  1  0
  6  7  2  0
  6 12  1  0
  8  9  1  0
  8 10  1  6
  9 11  1  0
 12 13  1  0
 13 14  1  0
 13 16  1  1
 14 15  2  0
 14 21  1  0
 16 17  1  0
 17 18  1  0
 18 19  2  0
 18 20  1  0
 21 22  1  0
 22 23  1  0
 22 25  1  6
 23 24  2  0
 23 30  1  0
 25 26  1  0
 26 27  1  0
 27 28  2  0
 27 29  1  0
 31 30  1  6
 31 32  1  0
 31 34  1  0
 32 33  2  0
 32 37  1  0
 34 35  1  6
 34 36  1  0
 37 38  1  0
 38 39  1  0
 38 41  1  6
 39 40  1  0
 39 45  2  0
 41 42  1  0
 42 43  1  0
 42 44  2  0
M  END
$$$$
