
     RDKit          3D

 45 44  0  0  0  0  0  0  0  0999 V2000
   -6.9407   15.2467   30.2808 C   0  0  0  0  0  0  0  0  0  0  0  0
   -6.7363   15.8286   31.3646 O   0  0  0  0  0  0  0  0  0  0  0  0
   -8.2782   15.4654   29.6304 C   0  0  0  0  0  0  0  0  0  0  0  0
   -6.0121   14.3976   29.6162 N   0  0  0  0  0  0  0  0  0  0  0  0
   -5.0383   13.6644   30.4065 C   0  0  2  0  0  0  0  0  0  0  0  0
   -5.7691   13.0348   31.5364 C   0  0  0  0  0  0  0  0  0  0  0  0
   -5.1567   12.7880   32.6081 O   0  0  0  0  0  0  0  0  0  0  0  0
   -3.9023   14.5299   30.7693 C   0  0  2  0  0  0  0  0  0  0  0  0
   -3.1854   15.2155   29.6502 C   0  0  0  0  0  0  0  0  0  0  0  0
   -2.8259   13.8803   31.6208 C   0  0  0  0  0  0  0  0  0  0  0  0
   -3.0075   14.3864   28.4336 C   0  0  0  0  0  0  0  0  0  0  0  0
   -7.1401   12.6960   31.4750 N   0  0  0  0  0  0  0  0  0  0  0  0
   -7.6980   11.9379   32.6097 C   0  0  2  0  0  0  0  0  0  0  0  0
   -7.0644   10.6034   32.6710 C   0  0  0  0  0  0  0  0  0  0  0  0
   -7.7235    9.6541   33.1718 O   0  0  0  0  0  0  0  0  0  0  0  0
   -9.2014   11.8401   32.4780 C   0  0  0  0  0  0  0  0  0  0  0  0
   -9.8025   12.8440   31.5463 C   0  0  0  0  0  0  0  0  0  0  0  0
  -10.6561   13.8574   32.1744 C   0  0  0  0  0  0  0  0  0  0  0  0
  -11.6308   13.5933   32.9167 O   0  0  0  0  0  0  0  0  0  0  0  0
  -10.4202   15.2229   31.9707 O   0  0  0  0  0  0  0  0  0  0  0  0
   -5.7302   10.3879   32.1738 N   0  0  0  0  0  0  0  0  0  0  0  0
   -5.1784    9.0836   32.3140 C   0  0  2  0  0  0  0  0  0  0  0  0
   -4.0842    9.0576   33.3516 C   0  0  0  0  0  0  0  0  0  0  0  0
   -3.5207    8.0174   33.6759 O   0  0  0  0  0  0  0  0  0  0  0  0
   -4.6703    8.5088   31.0356 C   0  0  0  0  0  0  0  0  0  0  0  0
   -4.1762    7.1056   31.0741 C   0  0  0  0  0  0  0  0  0  0  0  0
   -3.0228    6.8161   30.2241 C   0  0  0  0  0  0  0  0  0  0  0  0
   -1.9363    6.4816   30.7465 O   0  0  0  0  0  0  0  0  0  0  0  0
   -3.1488    6.9169   28.8465 O   0  0  0  0  0  0  0  0  0  0  0  0
   -3.7253   10.2692   33.9395 N   0  0  0  0  0  0  0  0  0  0  0  0
   -2.8322   10.5996   34.9882 C   0  0  2  0  0  0  0  0  0  0  0  0
   -3.3322   11.6226   35.9032 C   0  0  0  0  0  0  0  0  0  0  0  0
   -2.8104   12.7584   36.1059 O   0  0  0  0  0  0  0  0  0  0  0  0
   -1.3807   10.8142   34.6181 C   0  0  1  0  0  0  0  0  0  0  0  0
   -0.6297   11.0679   35.9420 C   0  0  0  0  0  0  0  0  0  0  0  0
   -0.7501    9.4971   34.1491 C   0  0  0  0  0  0  0  0  0  0  0  0
   -4.5259   11.4106   36.6888 N   0  0  0  0  0  0  0  0  0  0  0  0
   -5.0773   12.5135   37.4995 C   0  0  2  0  0  0  0  0  0  0  0  0
   -4.3028   12.5415   38.7831 C   0  0  0  0  0  0  0  0  0  0  0  0
   -3.7793   11.3645   39.3529 O   0  0  0  0  0  0  0  0  0  0  0  0
   -6.4944   12.1266   37.7744 C   0  0  0  0  0  0  0  0  0  0  0  0
   -7.3776   12.0700   36.6042 C   0  0  0  0  0  0  0  0  0  0  0  0
   -8.2309   10.9905   36.4765 O   0  0  0  0  0  0  0  0  0  0  0  0
   -7.3811   12.9627   35.7253 O   0  0  0  0  0  0  0  0  0  0  0  0
   -4.0689   13.5904   39.4296 O   0  0  0  0  0  0  0  0  0  0  0  0
  1  2  2  0
  1  3  1  0
  1  4  1  0
  5  4  1  1
  5  6  1  0
  5  8  1  0
  6  7  2  0
  6 12  1  0
  8  9  1  0
  8 10  1  6
  9 11  1  0
 12 13  1  0
 13 14  1  0
 13 16  1  6
 14 15  2  0
 14 21  1  0
 16 17  1  0
 17 18  1  0
 18 19  2  0
 18 20  1  0
 21 22  1  0
 22 23  1  0
 22 25  1  6
 23 24  2  0
 23 30  1  0
 25 26  1  0
 26 27  1  0
 27 28  2  0
 27 29  1  0
 31 30  1  6
 31 32  1  0
 31 34  1  0
 32 33  2  0
 32 37  1  0
 34 35  1  1
 34 36  1  0
 37 38  1  0
 38 39  1  0
 38 41  1  1
 39 40  1  0
 39 45  2  0
 41 42  1  0
 42 43  1  0
 42 44  2  0
M  END
$$$$
