
     RDKit          3D

 45 44  0  0  0  0  0  0  0  0999 V2000
  -10.2455   12.2009   30.3534 C   0  0  0  0  0  0  0  0  0  0  0  0
  -10.6330   13.1341   31.0842 O   0  0  0  0  0  0  0  0  0  0  0  0
  -10.2843   12.4353   28.8691 C   0  0  0  0  0  0  0  0  0  0  0  0
   -9.7723   10.9399   30.8127 N   0  0  0  0  0  0  0  0  0  0  0  0
  -10.2244   10.4454   32.1017 C   0  0  2  0  0  0  0  0  0  0  0  0
   -9.0191   10.0259   32.8623 C   0  0  0  0  0  0  0  0  0  0  0  0
   -9.1204    9.7729   34.0912 O   0  0  0  0  0  0  0  0  0  0  0  0
  -11.2727    9.4241   31.9305 C   0  0  2  0  0  0  0  0  0  0  0  0
  -11.3751    8.3711   32.9875 C   0  0  0  0  0  0  0  0  0  0  0  0
  -11.2621    8.6863   30.6034 C   0  0  0  0  0  0  0  0  0  0  0  0
  -12.0949    7.1447   32.5669 C   0  0  0  0  0  0  0  0  0  0  0  0
   -7.7429    9.8880   32.2704 N   0  0  0  0  0  0  0  0  0  0  0  0
   -6.6184    9.5554   33.1640 C   0  0  2  0  0  0  0  0  0  0  0  0
   -6.1431   10.7830   33.8372 C   0  0  0  0  0  0  0  0  0  0  0  0
   -5.9557   11.8120   33.1356 O   0  0  0  0  0  0  0  0  0  0  0  0
   -5.5147    8.8823   32.3791 C   0  0  0  0  0  0  0  0  0  0  0  0
   -5.4823    9.2475   30.9290 C   0  0  0  0  0  0  0  0  0  0  0  0
   -4.4291    8.6028   30.1384 C   0  0  0  0  0  0  0  0  0  0  0  0
   -4.6427    7.7444   29.2504 O   0  0  0  0  0  0  0  0  0  0  0  0
   -3.0805    8.9223   30.3406 O   0  0  0  0  0  0  0  0  0  0  0  0
   -5.8988   10.8083   35.2562 N   0  0  0  0  0  0  0  0  0  0  0  0
   -5.4238   12.0254   35.8205 C   0  0  2  0  0  0  0  0  0  0  0  0
   -3.9166   12.0814   35.8190 C   0  0  0  0  0  0  0  0  0  0  0  0
   -3.2979   12.9469   36.4296 O   0  0  0  0  0  0  0  0  0  0  0  0
   -5.9334   12.2848   37.1974 C   0  0  0  0  0  0  0  0  0  0  0  0
   -5.4251   11.4040   38.2839 C   0  0  0  0  0  0  0  0  0  0  0  0
   -5.8873   11.7290   39.6320 C   0  0  0  0  0  0  0  0  0  0  0  0
   -5.2337   12.5318   40.3345 O   0  0  0  0  0  0  0  0  0  0  0  0
   -7.0468   11.1411   40.1154 O   0  0  0  0  0  0  0  0  0  0  0  0
   -3.2367   11.1049   35.0934 N   0  0  0  0  0  0  0  0  0  0  0  0
   -1.8601   10.8718   34.8541 C   0  0  2  0  0  0  0  0  0  0  0  0
   -1.5903    9.8825   33.8138 C   0  0  0  0  0  0  0  0  0  0  0  0
   -1.0916    8.7323   33.9925 O   0  0  0  0  0  0  0  0  0  0  0  0
   -0.9682   10.6969   36.0640 C   0  0  1  0  0  0  0  0  0  0  0  0
   -1.2904   11.8708   37.0123 C   0  0  0  0  0  0  0  0  0  0  0  0
   -1.4261    9.4909   36.8935 C   0  0  0  0  0  0  0  0  0  0  0  0
   -1.8893   10.1496   32.4259 N   0  0  0  0  0  0  0  0  0  0  0  0
   -1.0782    9.5208   31.3655 C   0  0  2  0  0  0  0  0  0  0  0  0
   -0.5136   10.6313   30.5311 C   0  0  0  0  0  0  0  0  0  0  0  0
    0.2922   10.3699   29.4057 O   0  0  0  0  0  0  0  0  0  0  0  0
   -2.0464    8.7228   30.5536 C   0  0  0  0  0  0  0  0  0  0  0  0
   -3.4464    9.1562   30.6246 C   0  0  0  0  0  0  0  0  0  0  0  0
   -3.8009   10.0771   31.5921 O   0  0  0  0  0  0  0  0  0  0  0  0
   -4.3219    8.7202   29.8419 O   0  0  0  0  0  0  0  0  0  0  0  0
   -0.7121   11.8468   30.7675 O   0  0  0  0  0  0  0  0  0  0  0  0
  1  2  2  0
  1  3  1  0
  1  4  1  0
  5  4  1  6
  5  6  1  0
  5  8  1  0
  6  7  2  0
  6 12  1  0
  8  9  1  0
  8 10  1  6
  9 11  1  0
 12 13  1  0
 13 14  1  0
 13 16  1  6
 14 15  2  0
 14 21  1  0
 16 17  1  0
 17 18  1  0
 18 19  2  0
 18 20  1  0
 21 22  1  0
 22 23  1  0
 22 25  1  1
 23 24  2  0
 23 30  1  0
 25 26  1  0
 26 27  1  0
 27 28  2  0
 27 29  1  0
 31 30  1  1
 31 32  1  0
 31 34  1  0
 32 33  2  0
 32 37  1  0
 34 35  1  1
 34 36  1  0
 37 38  1  0
 38 39  1  0
 38 41  1  6
 39 40  1  0
 39 45  2  0
 41 42  1  0
 42 43  1  0
 42 44  2  0
M  END
$$$$
