
     RDKit          3D

 41 46  0  0  0  0  0  0  0  0999 V2000
   -5.8715    2.1845  -16.3808 C   0  0  0  0  0  0  0  0  0  0  0  0
   -7.0798    2.8346  -16.4485 C   0  0  0  0  0  0  0  0  0  0  0  0
   -7.9685    2.6909  -15.4149 C   0  0  0  0  0  0  0  0  0  0  0  0
   -7.6543    1.9095  -14.3295 C   0  0  0  0  0  0  0  0  0  0  0  0
   -6.4464    1.2742  -14.2873 C   0  0  0  0  0  0  0  0  0  0  0  0
   -5.5307    1.3965  -15.3078 C   0  0  0  0  0  0  0  0  0  0  0  0
   -4.2378    0.7430  -15.3097 C   0  0  0  0  0  0  0  0  0  0  0  0
   -3.9218   -0.0745  -16.3686 C   0  0  0  0  0  0  0  0  0  0  0  0
   -2.6930   -0.7151  -16.4060 C   0  0  0  0  0  0  0  0  0  0  0  0
   -2.3538   -1.5840  -17.5261 C   0  0  0  0  0  0  0  0  0  0  0  0
   -3.1992   -1.7356  -18.4517 O   0  0  0  0  0  0  0  0  0  0  0  0
   -1.0934   -2.2199  -17.5279 N   0  0  0  0  0  0  0  0  0  0  0  0
   -0.2652   -2.0322  -16.5605 C   0  0  0  0  0  0  0  0  0  0  0  0
   -0.4597   -1.1944  -15.3776 C   0  0  0  0  0  0  0  0  0  0  0  0
   -1.7945   -0.5333  -15.3881 C   0  0  0  0  0  0  0  0  0  0  0  0
   -2.1454    0.2784  -14.3667 N   0  0  0  0  0  0  0  0  0  0  0  0
   -3.3222    0.9118  -14.2985 C   0  0  0  0  0  0  0  0  0  0  0  0
   -3.6496    1.7878  -13.1501 C   0  0  0  0  0  0  0  0  0  0  0  0
   -3.8646    3.1404  -13.3026 C   0  0  0  0  0  0  0  0  0  0  0  0
   -4.1659    3.9218  -12.1912 C   0  0  0  0  0  0  0  0  0  0  0  0
   -3.7448    1.2618  -11.8811 C   0  0  0  0  0  0  0  0  0  0  0  0
   -4.0448    2.0431  -10.7782 C   0  0  0  0  0  0  0  0  0  0  0  0
   -4.2616    3.3975  -10.9196 C   0  0  0  0  0  0  0  0  0  0  0  0
   -4.5861    4.2902   -9.7710 C   0  0  0  0  0  0  0  0  0  0  0  0
   -3.6422    4.2495   -8.7107 N   0  0  2  0  0  4  0  0  0  0  0  0
   -3.7579    3.0309   -7.9325 C   0  0  0  0  0  0  0  0  0  0  0  0
   -2.5868    2.9258   -6.9708 C   0  0  0  0  0  0  0  0  0  0  0  0
   -3.7955    5.4427   -7.9070 C   0  0  0  0  0  0  0  0  0  0  0  0
   -2.9081    5.3222   -6.6646 C   0  0  0  0  0  0  0  0  0  0  0  0
   -1.9904    4.2472   -6.9340 N   0  0  0  0  0  0  0  0  0  0  0  0
   -0.6296    4.4907   -7.1313 C   0  0  0  0  0  0  0  0  0  0  0  0
    0.1226    3.7498   -8.0083 C   0  0  0  0  0  0  0  0  0  0  0  0
    1.4804    4.0051   -8.2058 C   0  0  0  0  0  0  0  0  0  0  0  0
    0.0366    5.5137   -6.4472 C   0  0  0  0  0  0  0  0  0  0  0  0
    1.3851    5.7810   -6.6318 C   0  0  0  0  0  0  0  0  0  0  0  0
    2.1077    5.0082   -7.5272 C   0  0  0  0  0  0  0  0  0  0  0  0
    3.4901    5.2403   -7.7454 N   0  0  0  0  0  0  0  0  0  0  0  0
    4.3662    5.8382   -6.8041 C   0  0  0  0  0  0  0  0  0  0  0  0
    3.8743    6.2404   -5.7245 O   0  0  0  0  0  0  0  0  0  0  0  0
    5.8163    6.0063   -7.0373 C   0  0  0  0  0  0  0  0  0  0  0  0
    6.5549    5.5859   -5.7889 C   0  0  0  0  0  0  0  0  0  0  0  0
  1  2  2  0
  1  6  1  0
  2  3  1  0
  3  4  2  0
  4  5  1  0
  5  6  2  0
  6  7  1  0
  7  8  2  0
  7 17  1  0
  8  9  1  0
  9 10  1  0
  9 15  2  0
 10 11  2  0
 10 12  1  0
 12 13  2  0
 13 14  1  0
 14 15  1  0
 15 16  1  0
 16 17  2  0
 17 18  1  0
 18 19  2  0
 18 21  1  0
 19 20  1  0
 20 23  2  0
 21 22  2  0
 22 23  1  0
 23 24  1  0
 25 24  1  6
 25 26  1  0
 25 28  1  0
 26 27  1  0
 27 30  1  0
 28 29  1  0
 29 30  1  0
 30 31  1  0
 31 32  2  0
 31 34  1  0
 32 33  1  0
 33 36  2  0
 34 35  2  0
 35 36  1  0
 36 37  1  0
 37 38  1  0
 38 39  2  0
 38 40  1  0
 40 41  1  0
M  CHG  1  25   1
M  END
$$$$
