
     RDKit          3D

 41 46  0  0  0  0  0  0  0  0999 V2000
   -7.5742    1.7884  -12.9136 C   0  0  0  0  0  0  0  0  0  0  0  0
   -8.3394    1.2317  -11.9177 C   0  0  0  0  0  0  0  0  0  0  0  0
   -7.7694    0.3060  -11.0830 C   0  0  0  0  0  0  0  0  0  0  0  0
   -6.4541   -0.0579  -11.2408 C   0  0  0  0  0  0  0  0  0  0  0  0
   -5.7157    0.5106  -12.2387 C   0  0  0  0  0  0  0  0  0  0  0  0
   -6.2565    1.4432  -13.0948 C   0  0  0  0  0  0  0  0  0  0  0  0
   -5.5151    2.0739  -14.1679 C   0  0  0  0  0  0  0  0  0  0  0  0
   -5.9446    1.8797  -15.4592 C   0  0  0  0  0  0  0  0  0  0  0  0
   -5.2617    2.4690  -16.5118 C   0  0  0  0  0  0  0  0  0  0  0  0
   -5.7124    2.2650  -17.8829 C   0  0  0  0  0  0  0  0  0  0  0  0
   -6.7305    1.5458  -18.0843 O   0  0  0  0  0  0  0  0  0  0  0  0
   -4.9902    2.8805  -18.9281 N   0  0  0  0  0  0  0  0  0  0  0  0
   -3.9583    3.6060  -18.6709 C   0  0  0  0  0  0  0  0  0  0  0  0
   -3.3896    3.9031  -17.3567 C   0  0  0  0  0  0  0  0  0  0  0  0
   -4.1596    3.2443  -16.2649 C   0  0  0  0  0  0  0  0  0  0  0  0
   -3.7719    3.4090  -14.9812 N   0  0  0  0  0  0  0  0  0  0  0  0
   -4.4071    2.8552  -13.9418 C   0  0  0  0  0  0  0  0  0  0  0  0
   -3.9314    3.0715  -12.5560 C   0  0  0  0  0  0  0  0  0  0  0  0
   -4.7037    3.7121  -11.6115 C   0  0  0  0  0  0  0  0  0  0  0  0
   -4.2100    3.8943  -10.3233 C   0  0  0  0  0  0  0  0  0  0  0  0
   -2.6833    2.6328  -12.1744 C   0  0  0  0  0  0  0  0  0  0  0  0
   -2.1961    2.8164  -10.8915 C   0  0  0  0  0  0  0  0  0  0  0  0
   -2.9605    3.4562   -9.9388 C   0  0  0  0  0  0  0  0  0  0  0  0
   -2.4907    3.6847   -8.5428 C   0  0  0  0  0  0  0  0  0  0  0  0
   -2.8074    4.9663   -8.0193 N   0  0  2  0  0  4  0  0  0  0  0  0
   -3.9615    4.9201   -7.1419 C   0  0  0  0  0  0  0  0  0  0  0  0
   -4.1144    6.2523   -6.4284 C   0  0  0  0  0  0  0  0  0  0  0  0
   -2.9795    5.8880   -9.1211 C   0  0  0  0  0  0  0  0  0  0  0  0
   -3.4946    7.2234   -8.5760 C   0  0  0  0  0  0  0  0  0  0  0  0
   -3.2738    7.1844   -7.1547 N   0  0  0  0  0  0  0  0  0  0  0  0
   -2.3194    8.0041   -6.5487 C   0  0  0  0  0  0  0  0  0  0  0  0
   -1.7233    7.6697   -5.3584 C   0  0  0  0  0  0  0  0  0  0  0  0
   -0.7641    8.4905   -4.7636 C   0  0  0  0  0  0  0  0  0  0  0  0
   -1.9145    9.2097   -7.1326 C   0  0  0  0  0  0  0  0  0  0  0  0
   -0.9626   10.0369   -6.5551 C   0  0  0  0  0  0  0  0  0  0  0  0
   -0.3856    9.6612   -5.3522 C   0  0  0  0  0  0  0  0  0  0  0  0
    0.5882   10.4770   -4.7207 N   0  0  0  0  0  0  0  0  0  0  0  0
    0.7283   11.8729   -4.9278 C   0  0  0  0  0  0  0  0  0  0  0  0
   -0.0397   12.4192   -5.7530 O   0  0  0  0  0  0  0  0  0  0  0  0
    1.7283   12.7020   -4.2221 C   0  0  0  0  0  0  0  0  0  0  0  0
    1.5650   14.1352   -4.6695 C   0  0  0  0  0  0  0  0  0  0  0  0
  1  2  2  0
  1  6  1  0
  2  3  1  0
  3  4  2  0
  4  5  1  0
  5  6  2  0
  6  7  1  0
  7  8  2  0
  7 17  1  0
  8  9  1  0
  9 10  1  0
  9 15  2  0
 10 11  2  0
 10 12  1  0
 12 13  2  0
 13 14  1  0
 14 15  1  0
 15 16  1  0
 16 17  2  0
 17 18  1  0
 18 19  2  0
 18 21  1  0
 19 20  1  0
 20 23  2  0
 21 22  2  0
 22 23  1  0
 23 24  1  0
 25 24  1  6
 25 26  1  0
 25 28  1  0
 26 27  1  0
 27 30  1  0
 28 29  1  0
 29 30  1  0
 30 31  1  0
 31 32  2  0
 31 34  1  0
 32 33  1  0
 33 36  2  0
 34 35  2  0
 35 36  1  0
 36 37  1  0
 37 38  1  0
 38 39  2  0
 38 40  1  0
 40 41  1  0
M  CHG  1  25   1
M  END
$$$$
