
     RDKit          3D

 41 46  0  0  0  0  0  0  0  0999 V2000
   -6.7176    0.6091  -13.1702 C   0  0  0  0  0  0  0  0  0  0  0  0
   -7.5728    0.6010  -12.0950 C   0  0  0  0  0  0  0  0  0  0  0  0
   -7.8375    1.7810  -11.4498 C   0  0  0  0  0  0  0  0  0  0  0  0
   -7.2565    2.9519  -11.8729 C   0  0  0  0  0  0  0  0  0  0  0  0
   -6.4102    2.9322  -12.9442 C   0  0  0  0  0  0  0  0  0  0  0  0
   -6.1223    1.7650  -13.6149 C   0  0  0  0  0  0  0  0  0  0  0  0
   -5.2317    1.6925  -14.7553 C   0  0  0  0  0  0  0  0  0  0  0  0
   -5.7399    1.2472  -15.9523 C   0  0  0  0  0  0  0  0  0  0  0  0
   -4.9183    1.1662  -17.0660 C   0  0  0  0  0  0  0  0  0  0  0  0
   -5.4522    0.6934  -18.3372 C   0  0  0  0  0  0  0  0  0  0  0  0
   -6.6696    0.3637  -18.3968 O   0  0  0  0  0  0  0  0  0  0  0  0
   -4.5842    0.6238  -19.4483 N   0  0  0  0  0  0  0  0  0  0  0  0
   -3.3500    0.9726  -19.3366 C   0  0  0  0  0  0  0  0  0  0  0  0
   -2.6737    1.4654  -18.1372 C   0  0  0  0  0  0  0  0  0  0  0  0
   -3.6008    1.5299  -16.9731 C   0  0  0  0  0  0  0  0  0  0  0  0
   -3.1425    1.9620  -15.7778 N   0  0  0  0  0  0  0  0  0  0  0  0
   -3.9071    2.0524  -14.6834 C   0  0  0  0  0  0  0  0  0  0  0  0
   -3.3450    2.5319  -13.3998 C   0  0  0  0  0  0  0  0  0  0  0  0
   -2.9621    1.6629  -12.4013 C   0  0  0  0  0  0  0  0  0  0  0  0
   -2.4427    2.1634  -11.2113 C   0  0  0  0  0  0  0  0  0  0  0  0
   -3.1930    3.8810  -13.1697 C   0  0  0  0  0  0  0  0  0  0  0  0
   -2.6757    4.3745  -11.9841 C   0  0  0  0  0  0  0  0  0  0  0  0
   -2.2896    3.5137  -10.9784 C   0  0  0  0  0  0  0  0  0  0  0  0
   -1.7281    3.9843   -9.6804 C   0  0  0  0  0  0  0  0  0  0  0  0
   -0.6241    3.2255   -9.2088 N   0  0  2  0  0  4  0  0  0  0  0  0
   -1.0097    1.8709   -8.8623 C   0  0  0  0  0  0  0  0  0  0  0  0
    0.2325    1.0391   -8.5932 C   0  0  0  0  0  0  0  0  0  0  0  0
   -0.0132    3.9326   -8.1042 C   0  0  0  0  0  0  0  0  0  0  0  0
    1.0622    3.0405   -7.4772 C   0  0  0  0  0  0  0  0  0  0  0  0
    1.3137    1.9916   -8.4294 N   0  0  0  0  0  0  0  0  0  0  0  0
    2.5243    1.9186   -9.1216 C   0  0  0  0  0  0  0  0  0  0  0  0
    3.6686    2.5128   -8.6510 C   0  0  0  0  0  0  0  0  0  0  0  0
    4.8766    2.4279   -9.3448 C   0  0  0  0  0  0  0  0  0  0  0  0
    2.6337    1.2244  -10.3318 C   0  0  0  0  0  0  0  0  0  0  0  0
    3.8263    1.1301  -11.0338 C   0  0  0  0  0  0  0  0  0  0  0  0
    4.9582    1.7454  -10.5228 C   0  0  0  0  0  0  0  0  0  0  0  0
    6.1990    1.6812  -11.2076 N   0  0  0  0  0  0  0  0  0  0  0  0
    6.4925    0.7799  -12.2625 C   0  0  0  0  0  0  0  0  0  0  0  0
    5.5444    0.1167  -12.7425 O   0  0  0  0  0  0  0  0  0  0  0  0
    7.8509    0.5902  -12.8139 C   0  0  0  0  0  0  0  0  0  0  0  0
    7.8229    0.9282  -14.2855 C   0  0  0  0  0  0  0  0  0  0  0  0
  1  2  2  0
  1  6  1  0
  2  3  1  0
  3  4  2  0
  4  5  1  0
  5  6  2  0
  6  7  1  0
  7  8  2  0
  7 17  1  0
  8  9  1  0
  9 10  1  0
  9 15  2  0
 10 11  2  0
 10 12  1  0
 12 13  2  0
 13 14  1  0
 14 15  1  0
 15 16  1  0
 16 17  2  0
 17 18  1  0
 18 19  2  0
 18 21  1  0
 19 20  1  0
 20 23  2  0
 21 22  2  0
 22 23  1  0
 23 24  1  0
 25 24  1  1
 25 26  1  0
 25 28  1  0
 26 27  1  0
 27 30  1  0
 28 29  1  0
 29 30  1  0
 30 31  1  0
 31 32  2  0
 31 34  1  0
 32 33  1  0
 33 36  2  0
 34 35  2  0
 35 36  1  0
 36 37  1  0
 37 38  1  0
 38 39  2  0
 38 40  1  0
 40 41  1  0
M  CHG  1  25   1
M  END
$$$$
