
     RDKit          3D

 41 46  0  0  0  0  0  0  0  0999 V2000
   -1.2495    3.4844  -13.3706 C   0  0  0  0  0  0  0  0  0  0  0  0
   -0.3726    3.7729  -12.3532 C   0  0  0  0  0  0  0  0  0  0  0  0
   -0.0371    2.7828  -11.4666 C   0  0  0  0  0  0  0  0  0  0  0  0
   -0.5698    1.5229  -11.5950 C   0  0  0  0  0  0  0  0  0  0  0  0
   -1.4392    1.2628  -12.6152 C   0  0  0  0  0  0  0  0  0  0  0  0
   -1.7977    2.2335  -13.5230 C   0  0  0  0  0  0  0  0  0  0  0  0
   -2.7154    2.0072  -14.6210 C   0  0  0  0  0  0  0  0  0  0  0  0
   -2.2052    1.5548  -15.8145 C   0  0  0  0  0  0  0  0  0  0  0  0
   -3.0529    1.3248  -16.8870 C   0  0  0  0  0  0  0  0  0  0  0  0
   -2.5166    0.8464  -18.1550 C   0  0  0  0  0  0  0  0  0  0  0  0
   -1.2731    0.6483  -18.2497 O   0  0  0  0  0  0  0  0  0  0  0  0
   -3.4112    0.6250  -19.2244 N   0  0  0  0  0  0  0  0  0  0  0  0
   -4.6718    0.8411  -19.0774 C   0  0  0  0  0  0  0  0  0  0  0  0
   -5.3549    1.3163  -17.8748 C   0  0  0  0  0  0  0  0  0  0  0  0
   -4.3982    1.5485  -16.7569 C   0  0  0  0  0  0  0  0  0  0  0  0
   -4.8574    1.9930  -15.5666 N   0  0  0  0  0  0  0  0  0  0  0  0
   -4.0680    2.2254  -14.5115 C   0  0  0  0  0  0  0  0  0  0  0  0
   -4.6317    2.7149  -13.2324 C   0  0  0  0  0  0  0  0  0  0  0  0
   -4.7849    1.8895  -12.1396 C   0  0  0  0  0  0  0  0  0  0  0  0
   -5.3233    2.3966  -10.9608 C   0  0  0  0  0  0  0  0  0  0  0  0
   -5.0257    4.0281  -13.1051 C   0  0  0  0  0  0  0  0  0  0  0  0
   -5.5610    4.5282  -11.9303 C   0  0  0  0  0  0  0  0  0  0  0  0
   -5.7187    3.7110  -10.8309 C   0  0  0  0  0  0  0  0  0  0  0  0
   -6.2899    4.1905   -9.5404 C   0  0  0  0  0  0  0  0  0  0  0  0
   -5.3915    4.9536   -8.7483 N   0  0  2  0  0  4  0  0  0  0  0  0
   -4.0109    4.7313   -9.1333 C   0  0  0  0  0  0  0  0  0  0  0  0
   -3.1157    5.7352   -8.4276 C   0  0  0  0  0  0  0  0  0  0  0  0
   -5.6373    4.6584   -7.3534 C   0  0  0  0  0  0  0  0  0  0  0  0
   -4.5588    5.3377   -6.5043 C   0  0  0  0  0  0  0  0  0  0  0  0
   -3.9235    6.3006   -7.3642 N   0  0  0  0  0  0  0  0  0  0  0  0
   -4.0851    7.6722   -7.1573 C   0  0  0  0  0  0  0  0  0  0  0  0
   -4.8306    8.1684   -6.1172 C   0  0  0  0  0  0  0  0  0  0  0  0
   -4.9801    9.5408   -5.9126 C   0  0  0  0  0  0  0  0  0  0  0  0
   -3.4842    8.6143   -7.9998 C   0  0  0  0  0  0  0  0  0  0  0  0
   -3.6223    9.9814   -7.8106 C   0  0  0  0  0  0  0  0  0  0  0  0
   -4.3844   10.4398   -6.7475 C   0  0  0  0  0  0  0  0  0  0  0  0
   -4.5591   11.8286   -6.5169 N   0  0  0  0  0  0  0  0  0  0  0  0
   -3.7586   12.8487   -7.0909 C   0  0  0  0  0  0  0  0  0  0  0  0
   -2.8396   12.5001   -7.8676 O   0  0  0  0  0  0  0  0  0  0  0  0
   -3.9574   14.2877   -6.8168 C   0  0  0  0  0  0  0  0  0  0  0  0
   -3.8278   15.0461   -8.1163 C   0  0  0  0  0  0  0  0  0  0  0  0
  1  2  2  0
  1  6  1  0
  2  3  1  0
  3  4  2  0
  4  5  1  0
  5  6  2  0
  6  7  1  0
  7  8  2  0
  7 17  1  0
  8  9  1  0
  9 10  1  0
  9 15  2  0
 10 11  2  0
 10 12  1  0
 12 13  2  0
 13 14  1  0
 14 15  1  0
 15 16  1  0
 16 17  2  0
 17 18  1  0
 18 19  2  0
 18 21  1  0
 19 20  1  0
 20 23  2  0
 21 22  2  0
 22 23  1  0
 23 24  1  0
 25 24  1  6
 25 26  1  0
 25 28  1  0
 26 27  1  0
 27 30  1  0
 28 29  1  0
 29 30  1  0
 30 31  1  0
 31 32  2  0
 31 34  1  0
 32 33  1  0
 33 36  2  0
 34 35  2  0
 35 36  1  0
 36 37  1  0
 37 38  1  0
 38 39  2  0
 38 40  1  0
 40 41  1  0
M  CHG  1  25   1
M  END
$$$$
