
     RDKit          3D

 41 46  0  0  0  0  0  0  0  0999 V2000
   -4.1273    3.3182  -14.8596 C   0  0  0  0  0  0  0  0  0  0  0  0
   -3.8092    4.1891  -13.8459 C   0  0  0  0  0  0  0  0  0  0  0  0
   -3.4061    3.6817  -12.6382 C   0  0  0  0  0  0  0  0  0  0  0  0
   -3.3217    2.3239  -12.4462 C   0  0  0  0  0  0  0  0  0  0  0  0
   -3.6437    1.4802  -13.4703 C   0  0  0  0  0  0  0  0  0  0  0  0
   -4.0523    1.9558  -14.6957 C   0  0  0  0  0  0  0  0  0  0  0  0
   -4.4048    1.1023  -15.8120 C   0  0  0  0  0  0  0  0  0  0  0  0
   -5.6476    1.2513  -16.3799 C   0  0  0  0  0  0  0  0  0  0  0  0
   -6.0195    0.4537  -17.4511 C   0  0  0  0  0  0  0  0  0  0  0  0
   -7.3368    0.6071  -18.0559 C   0  0  0  0  0  0  0  0  0  0  0  0
   -8.1215    1.4766  -17.5840 O   0  0  0  0  0  0  0  0  0  0  0  0
   -7.6794   -0.2243  -19.1441 N   0  0  0  0  0  0  0  0  0  0  0  0
   -6.8431   -1.0957  -19.5897 C   0  0  0  0  0  0  0  0  0  0  0  0
   -5.4942   -1.3641  -19.0926 C   0  0  0  0  0  0  0  0  0  0  0  0
   -5.1485   -0.4823  -17.9429 C   0  0  0  0  0  0  0  0  0  0  0  0
   -3.9372   -0.5956  -17.3553 N   0  0  0  0  0  0  0  0  0  0  0  0
   -3.5460    0.1572  -16.3204 C   0  0  0  0  0  0  0  0  0  0  0  0
   -2.2045   -0.0163  -15.7173 C   0  0  0  0  0  0  0  0  0  0  0  0
   -1.2032    0.9154  -15.8856 C   0  0  0  0  0  0  0  0  0  0  0  0
    0.0421    0.7047  -15.3013 C   0  0  0  0  0  0  0  0  0  0  0  0
   -1.9213   -1.1340  -14.9646 C   0  0  0  0  0  0  0  0  0  0  0  0
   -0.6808   -1.3395  -14.3852 C   0  0  0  0  0  0  0  0  0  0  0  0
    0.3281   -0.4137  -14.5473 C   0  0  0  0  0  0  0  0  0  0  0  0
    1.6836   -0.5797  -13.9502 C   0  0  0  0  0  0  0  0  0  0  0  0
    2.0314    0.4146  -12.9977 N   0  0  2  0  0  4  0  0  0  0  0  0
    2.5827    1.5978  -13.6303 C   0  0  0  0  0  0  0  0  0  0  0  0
    2.7157    2.7104  -12.6048 C   0  0  0  0  0  0  0  0  0  0  0  0
    2.9293   -0.1688  -12.0248 C   0  0  0  0  0  0  0  0  0  0  0  0
    3.4484    0.9375  -11.1016 C   0  0  0  0  0  0  0  0  0  0  0  0
    2.5839    2.0685  -11.3111 N   0  0  0  0  0  0  0  0  0  0  0  0
    1.7010    2.4974  -10.3179 C   0  0  0  0  0  0  0  0  0  0  0  0
    1.9826    2.3532   -8.9822 C   0  0  0  0  0  0  0  0  0  0  0  0
    1.0984    2.7922   -7.9958 C   0  0  0  0  0  0  0  0  0  0  0  0
    0.4823    3.1069  -10.6366 C   0  0  0  0  0  0  0  0  0  0  0  0
   -0.4076    3.5491   -9.6689 C   0  0  0  0  0  0  0  0  0  0  0  0
   -0.0839    3.3837   -8.3314 C   0  0  0  0  0  0  0  0  0  0  0  0
   -0.9645    3.8148   -7.3061 N   0  0  0  0  0  0  0  0  0  0  0  0
   -0.5589    4.4812   -6.1218 C   0  0  0  0  0  0  0  0  0  0  0  0
    0.6598    4.4647   -5.8325 O   0  0  0  0  0  0  0  0  0  0  0  0
   -1.4988    5.1856   -5.2242 C   0  0  0  0  0  0  0  0  0  0  0  0
   -1.0908    4.9161   -3.7953 C   0  0  0  0  0  0  0  0  0  0  0  0
  1  2  2  0
  1  6  1  0
  2  3  1  0
  3  4  2  0
  4  5  1  0
  5  6  2  0
  6  7  1  0
  7  8  2  0
  7 17  1  0
  8  9  1  0
  9 10  1  0
  9 15  2  0
 10 11  2  0
 10 12  1  0
 12 13  2  0
 13 14  1  0
 14 15  1  0
 15 16  1  0
 16 17  2  0
 17 18  1  0
 18 19  2  0
 18 21  1  0
 19 20  1  0
 20 23  2  0
 21 22  2  0
 22 23  1  0
 23 24  1  0
 25 24  1  6
 25 26  1  0
 25 28  1  0
 26 27  1  0
 27 30  1  0
 28 29  1  0
 29 30  1  0
 30 31  1  0
 31 32  2  0
 31 34  1  0
 32 33  1  0
 33 36  2  0
 34 35  2  0
 35 36  1  0
 36 37  1  0
 37 38  1  0
 38 39  2  0
 38 40  1  0
 40 41  1  0
M  CHG  1  25   1
M  END
$$$$
