
     RDKit          3D

 41 46  0  0  0  0  0  0  0  0999 V2000
   -4.3399    3.3139  -15.3075 C   0  0  0  0  0  0  0  0  0  0  0  0
   -4.7916    4.6032  -15.1633 C   0  0  0  0  0  0  0  0  0  0  0  0
   -6.1400    4.8251  -15.0571 C   0  0  0  0  0  0  0  0  0  0  0  0
   -7.0240    3.7741  -15.0943 C   0  0  0  0  0  0  0  0  0  0  0  0
   -6.5487    2.5023  -15.2385 C   0  0  0  0  0  0  0  0  0  0  0  0
   -5.2010    2.2437  -15.3481 C   0  0  0  0  0  0  0  0  0  0  0  0
   -4.6481    0.9136  -15.5029 C   0  0  0  0  0  0  0  0  0  0  0  0
   -4.5552    0.3895  -16.7703 C   0  0  0  0  0  0  0  0  0  0  0  0
   -4.0296   -0.8795  -16.9578 C   0  0  0  0  0  0  0  0  0  0  0  0
   -3.9302   -1.4401  -18.2996 C   0  0  0  0  0  0  0  0  0  0  0  0
   -4.3304   -0.7468  -19.2761 O   0  0  0  0  0  0  0  0  0  0  0  0
   -3.3905   -2.7359  -18.4500 N   0  0  0  0  0  0  0  0  0  0  0  0
   -2.9951   -3.4027  -17.4223 C   0  0  0  0  0  0  0  0  0  0  0  0
   -3.0284   -2.9771  -16.0236 C   0  0  0  0  0  0  0  0  0  0  0  0
   -3.6032   -1.6103  -15.8804 C   0  0  0  0  0  0  0  0  0  0  0  0
   -3.7126   -1.0573  -14.6526 N   0  0  0  0  0  0  0  0  0  0  0  0
   -4.2148    0.1639  -14.4355 C   0  0  0  0  0  0  0  0  0  0  0  0
   -4.3108    0.7146  -13.0641 C   0  0  0  0  0  0  0  0  0  0  0  0
   -5.5006    0.7386  -12.3694 C   0  0  0  0  0  0  0  0  0  0  0  0
   -5.5397    1.2703  -11.0840 C   0  0  0  0  0  0  0  0  0  0  0  0
   -3.1942    1.2274  -12.4425 C   0  0  0  0  0  0  0  0  0  0  0  0
   -3.2378    1.7555  -11.1634 C   0  0  0  0  0  0  0  0  0  0  0  0
   -4.4231    1.7845  -10.4596 C   0  0  0  0  0  0  0  0  0  0  0  0
   -4.5335    2.3412   -9.0813 C   0  0  0  0  0  0  0  0  0  0  0  0
   -3.6515    3.4211   -8.8120 N   0  0  2  0  0  4  0  0  0  0  0  0
   -3.9941    4.1021   -7.5780 C   0  0  0  0  0  0  0  0  0  0  0  0
   -2.8946    5.0852   -7.2148 C   0  0  0  0  0  0  0  0  0  0  0  0
   -3.6408    4.3076   -9.9553 C   0  0  0  0  0  0  0  0  0  0  0  0
   -2.8347    5.5616   -9.6042 C   0  0  0  0  0  0  0  0  0  0  0  0
   -2.0937    5.2377   -8.4141 N   0  0  0  0  0  0  0  0  0  0  0  0
   -0.7047    5.0971   -8.4432 C   0  0  0  0  0  0  0  0  0  0  0  0
   -0.0035    4.5770   -7.3841 C   0  0  0  0  0  0  0  0  0  0  0  0
    1.3840    4.4321   -7.4246 C   0  0  0  0  0  0  0  0  0  0  0  0
    0.0448    5.4734   -9.5635 C   0  0  0  0  0  0  0  0  0  0  0  0
    1.4239    5.3359   -9.6204 C   0  0  0  0  0  0  0  0  0  0  0  0
    2.0927    4.8062   -8.5282 C   0  0  0  0  0  0  0  0  0  0  0  0
    3.5029    4.6515   -8.5375 N   0  0  0  0  0  0  0  0  0  0  0  0
    4.3575    4.9784   -7.4541 C   0  0  0  0  0  0  0  0  0  0  0  0
    3.8295    5.1794   -6.3361 O   0  0  0  0  0  0  0  0  0  0  0  0
    5.8258    5.0915   -7.5837 C   0  0  0  0  0  0  0  0  0  0  0  0
    6.4453    4.8789   -6.2229 C   0  0  0  0  0  0  0  0  0  0  0  0
  1  2  2  0
  1  6  1  0
  2  3  1  0
  3  4  2  0
  4  5  1  0
  5  6  2  0
  6  7  1  0
  7  8  2  0
  7 17  1  0
  8  9  1  0
  9 10  1  0
  9 15  2  0
 10 11  2  0
 10 12  1  0
 12 13  2  0
 13 14  1  0
 14 15  1  0
 15 16  1  0
 16 17  2  0
 17 18  1  0
 18 19  2  0
 18 21  1  0
 19 20  1  0
 20 23  2  0
 21 22  2  0
 22 23  1  0
 23 24  1  0
 25 24  1  6
 25 26  1  0
 25 28  1  0
 26 27  1  0
 27 30  1  0
 28 29  1  0
 29 30  1  0
 30 31  1  0
 31 32  2  0
 31 34  1  0
 32 33  1  0
 33 36  2  0
 34 35  2  0
 35 36  1  0
 36 37  1  0
 37 38  1  0
 38 39  2  0
 38 40  1  0
 40 41  1  0
M  CHG  1  25   1
M  END
$$$$
