
     RDKit          3D

 41 46  0  0  0  0  0  0  0  0999 V2000
   -6.8741    2.2942  -14.8933 C   0  0  0  0  0  0  0  0  0  0  0  0
   -8.0946    2.5634  -14.3231 C   0  0  0  0  0  0  0  0  0  0  0  0
   -8.4154    1.9670  -13.1315 C   0  0  0  0  0  0  0  0  0  0  0  0
   -7.5296    1.1143  -12.5184 C   0  0  0  0  0  0  0  0  0  0  0  0
   -6.3231    0.8638  -13.1065 C   0  0  0  0  0  0  0  0  0  0  0  0
   -5.9688    1.4455  -14.3028 C   0  0  0  0  0  0  0  0  0  0  0  0
   -4.7023    1.2114  -14.9661 C   0  0  0  0  0  0  0  0  0  0  0  0
   -4.7197    0.7523  -16.2616 C   0  0  0  0  0  0  0  0  0  0  0  0
   -3.5275    0.5187  -16.9293 C   0  0  0  0  0  0  0  0  0  0  0  0
   -3.5407    0.0307  -18.3027 C   0  0  0  0  0  0  0  0  0  0  0  0
   -4.6545   -0.1709  -18.8624 O   0  0  0  0  0  0  0  0  0  0  0  0
   -2.3063   -0.1965  -18.9489 N   0  0  0  0  0  0  0  0  0  0  0  0
   -1.1966    0.0254  -18.3352 C   0  0  0  0  0  0  0  0  0  0  0  0
   -1.0227    0.5138  -16.9677 C   0  0  0  0  0  0  0  0  0  0  0  0
   -2.3330    0.7454  -16.2980 C   0  0  0  0  0  0  0  0  0  0  0  0
   -2.3615    1.1964  -15.0248 N   0  0  0  0  0  0  0  0  0  0  0  0
   -3.4932    1.4322  -14.3508 C   0  0  0  0  0  0  0  0  0  0  0  0
   -3.4588    1.9246  -12.9545 C   0  0  0  0  0  0  0  0  0  0  0  0
   -2.7458    1.2760  -11.9697 C   0  0  0  0  0  0  0  0  0  0  0  0
   -2.7482    1.7766  -10.6713 C   0  0  0  0  0  0  0  0  0  0  0  0
   -4.1537    3.0599  -12.6017 C   0  0  0  0  0  0  0  0  0  0  0  0
   -4.1532    3.5543  -11.3085 C   0  0  0  0  0  0  0  0  0  0  0  0
   -3.4433    2.9129  -10.3155 C   0  0  0  0  0  0  0  0  0  0  0  0
   -3.4056    3.3955   -8.9058 C   0  0  0  0  0  0  0  0  0  0  0  0
   -2.2341    4.1223   -8.5652 N   0  0  2  0  0  4  0  0  0  0  0  0
   -2.3093    4.6681   -7.2235 C   0  0  0  0  0  0  0  0  0  0  0  0
   -0.9549    5.2266   -6.8225 C   0  0  0  0  0  0  0  0  0  0  0  0
   -2.0100    5.1386   -9.5703 C   0  0  0  0  0  0  0  0  0  0  0  0
   -0.8562    6.0386   -9.1182 C   0  0  0  0  0  0  0  0  0  0  0  0
   -0.1950    5.3326   -8.0530 N   0  0  0  0  0  0  0  0  0  0  0  0
    1.0884    4.8084   -8.2207 C   0  0  0  0  0  0  0  0  0  0  0  0
    1.8937    4.4997   -7.1529 C   0  0  0  0  0  0  0  0  0  0  0  0
    3.1721    3.9683   -7.3291 C   0  0  0  0  0  0  0  0  0  0  0  0
    1.6170    4.5621   -9.4929 C   0  0  0  0  0  0  0  0  0  0  0  0
    2.8851    4.0342   -9.6857 C   0  0  0  0  0  0  0  0  0  0  0  0
    3.6654    3.7369   -8.5795 C   0  0  0  0  0  0  0  0  0  0  0  0
    4.9706    3.2008   -8.7266 N   0  0  0  0  0  0  0  0  0  0  0  0
    5.5274    2.1940   -7.8975 C   0  0  0  0  0  0  0  0  0  0  0  0
    5.0080    2.0134   -6.7720 O   0  0  0  0  0  0  0  0  0  0  0  0
    6.6796    1.3586   -8.2972 C   0  0  0  0  0  0  0  0  0  0  0  0
    7.7491    1.4777   -7.2375 C   0  0  0  0  0  0  0  0  0  0  0  0
  1  2  2  0
  1  6  1  0
  2  3  1  0
  3  4  2  0
  4  5  1  0
  5  6  2  0
  6  7  1  0
  7  8  2  0
  7 17  1  0
  8  9  1  0
  9 10  1  0
  9 15  2  0
 10 11  2  0
 10 12  1  0
 12 13  2  0
 13 14  1  0
 14 15  1  0
 15 16  1  0
 16 17  2  0
 17 18  1  0
 18 19  2  0
 18 21  1  0
 19 20  1  0
 20 23  2  0
 21 22  2  0
 22 23  1  0
 23 24  1  0
 25 24  1  6
 25 26  1  0
 25 28  1  0
 26 27  1  0
 27 30  1  0
 28 29  1  0
 29 30  1  0
 30 31  1  0
 31 32  2  0
 31 34  1  0
 32 33  1  0
 33 36  2  0
 34 35  2  0
 35 36  1  0
 36 37  1  0
 37 38  1  0
 38 39  2  0
 38 40  1  0
 40 41  1  0
M  CHG  1  25   1
M  END
$$$$
