
     RDKit          3D

 41 46  0  0  0  0  0  0  0  0999 V2000
   -5.2853    4.3939  -12.1041 C   0  0  0  0  0  0  0  0  0  0  0  0
   -5.1329    5.4696  -11.2633 C   0  0  0  0  0  0  0  0  0  0  0  0
   -4.2842    6.4818  -11.6292 C   0  0  0  0  0  0  0  0  0  0  0  0
   -3.5981    6.4202  -12.8179 C   0  0  0  0  0  0  0  0  0  0  0  0
   -3.7677    5.3398  -13.6353 C   0  0  0  0  0  0  0  0  0  0  0  0
   -4.6117    4.3057  -13.2987 C   0  0  0  0  0  0  0  0  0  0  0  0
   -4.8248    3.1392  -14.1310 C   0  0  0  0  0  0  0  0  0  0  0  0
   -5.5564    3.2865  -15.2853 C   0  0  0  0  0  0  0  0  0  0  0  0
   -5.7794    2.1932  -16.1079 C   0  0  0  0  0  0  0  0  0  0  0  0
   -6.5556    2.3441  -17.3323 C   0  0  0  0  0  0  0  0  0  0  0  0
   -7.0142    3.4846  -17.6212 O   0  0  0  0  0  0  0  0  0  0  0  0
   -6.7622    1.2073  -18.1435 N   0  0  0  0  0  0  0  0  0  0  0  0
   -6.2728    0.0656  -17.8058 C   0  0  0  0  0  0  0  0  0  0  0  0
   -5.4772   -0.2408  -16.6175 C   0  0  0  0  0  0  0  0  0  0  0  0
   -5.2707    0.9669  -15.7702 C   0  0  0  0  0  0  0  0  0  0  0  0
   -4.5575    0.8665  -14.6272 N   0  0  0  0  0  0  0  0  0  0  0  0
   -4.3234    1.9002  -13.8103 C   0  0  0  0  0  0  0  0  0  0  0  0
   -3.5352    1.7258  -12.5687 C   0  0  0  0  0  0  0  0  0  0  0  0
   -4.1366    1.5807  -11.3374 C   0  0  0  0  0  0  0  0  0  0  0  0
   -3.3516    1.4234  -10.1992 C   0  0  0  0  0  0  0  0  0  0  0  0
   -2.1592    1.7080  -12.6170 C   0  0  0  0  0  0  0  0  0  0  0  0
   -1.3821    1.5513  -11.4819 C   0  0  0  0  0  0  0  0  0  0  0  0
   -1.9737    1.4054  -10.2449 C   0  0  0  0  0  0  0  0  0  0  0  0
   -1.1913    1.2349   -8.9878 C   0  0  0  0  0  0  0  0  0  0  0  0
   -0.1030    2.1363   -8.8468 N   0  0  2  0  0  4  0  0  0  0  0  0
    0.1850    2.4202   -7.4539 C   0  0  0  0  0  0  0  0  0  0  0  0
    1.4900    3.1903   -7.3486 C   0  0  0  0  0  0  0  0  0  0  0  0
   -0.3870    3.3300   -9.6134 C   0  0  0  0  0  0  0  0  0  0  0  0
    0.6944    4.3753   -9.3241 C   0  0  0  0  0  0  0  0  0  0  0  0
    1.7732    3.6660   -8.6890 N   0  0  0  0  0  0  0  0  0  0  0  0
    2.9944    3.4752   -9.3388 C   0  0  0  0  0  0  0  0  0  0  0  0
    3.5421    4.4333  -10.1549 C   0  0  0  0  0  0  0  0  0  0  0  0
    4.7672    4.2379  -10.7940 C   0  0  0  0  0  0  0  0  0  0  0  0
    3.7290    2.2944   -9.1823 C   0  0  0  0  0  0  0  0  0  0  0  0
    4.9480    2.0842   -9.8098 C   0  0  0  0  0  0  0  0  0  0  0  0
    5.4649    3.0781  -10.6258 C   0  0  0  0  0  0  0  0  0  0  0  0
    6.7051    2.9067  -11.2929 N   0  0  0  0  0  0  0  0  0  0  0  0
    7.0169    3.4453  -12.5671 C   0  0  0  0  0  0  0  0  0  0  0  0
    6.1992    4.2456  -13.0771 O   0  0  0  0  0  0  0  0  0  0  0  0
    8.2488    3.1084  -13.3117 C   0  0  0  0  0  0  0  0  0  0  0  0
    8.2443    3.8693  -14.6162 C   0  0  0  0  0  0  0  0  0  0  0  0
  1  2  2  0
  1  6  1  0
  2  3  1  0
  3  4  2  0
  4  5  1  0
  5  6  2  0
  6  7  1  0
  7  8  2  0
  7 17  1  0
  8  9  1  0
  9 10  1  0
  9 15  2  0
 10 11  2  0
 10 12  1  0
 12 13  2  0
 13 14  1  0
 14 15  1  0
 15 16  1  0
 16 17  2  0
 17 18  1  0
 18 19  2  0
 18 21  1  0
 19 20  1  0
 20 23  2  0
 21 22  2  0
 22 23  1  0
 23 24  1  0
 25 24  1  1
 25 26  1  0
 25 28  1  0
 26 27  1  0
 27 30  1  0
 28 29  1  0
 29 30  1  0
 30 31  1  0
 31 32  2  0
 31 34  1  0
 32 33  1  0
 33 36  2  0
 34 35  2  0
 35 36  1  0
 36 37  1  0
 37 38  1  0
 38 39  2  0
 38 40  1  0
 40 41  1  0
M  CHG  1  25   1
M  END
$$$$
