
     RDKit          3D

 41 46  0  0  0  0  0  0  0  0999 V2000
   -4.0249    4.3659  -14.0900 C   0  0  0  0  0  0  0  0  0  0  0  0
   -3.3439    5.5190  -13.7836 C   0  0  0  0  0  0  0  0  0  0  0  0
   -2.2528    5.8646  -14.5378 C   0  0  0  0  0  0  0  0  0  0  0  0
   -1.8484    5.0699  -15.5830 C   0  0  0  0  0  0  0  0  0  0  0  0
   -2.5430    3.9290  -15.8662 C   0  0  0  0  0  0  0  0  0  0  0  0
   -3.6428    3.5520  -15.1293 C   0  0  0  0  0  0  0  0  0  0  0  0
   -4.4117    2.3521  -15.3899 C   0  0  0  0  0  0  0  0  0  0  0  0
   -4.8903    2.1478  -16.6621 C   0  0  0  0  0  0  0  0  0  0  0  0
   -5.6283    1.0101  -16.9497 C   0  0  0  0  0  0  0  0  0  0  0  0
   -6.1391    0.7895  -18.2969 C   0  0  0  0  0  0  0  0  0  0  0  0
   -5.8937    1.6522  -19.1857 O   0  0  0  0  0  0  0  0  0  0  0  0
   -6.8875   -0.3803  -18.5506 N   0  0  0  0  0  0  0  0  0  0  0  0
   -7.1099   -1.2308  -17.6101 C   0  0  0  0  0  0  0  0  0  0  0  0
   -6.6652   -1.1502  -16.2193 C   0  0  0  0  0  0  0  0  0  0  0  0
   -5.8803    0.0904  -15.9662 C   0  0  0  0  0  0  0  0  0  0  0  0
   -5.3914    0.3304  -14.7298 N   0  0  0  0  0  0  0  0  0  0  0  0
   -4.6759    1.4172  -14.4176 C   0  0  0  0  0  0  0  0  0  0  0  0
   -4.1686    1.6250  -13.0417 C   0  0  0  0  0  0  0  0  0  0  0  0
   -5.0064    1.9491  -11.9967 C   0  0  0  0  0  0  0  0  0  0  0  0
   -4.4803    2.1379  -10.7223 C   0  0  0  0  0  0  0  0  0  0  0  0
   -2.8241    1.5005  -12.7716 C   0  0  0  0  0  0  0  0  0  0  0  0
   -2.3052    1.6893  -11.5021 C   0  0  0  0  0  0  0  0  0  0  0  0
   -3.1345    2.0139  -10.4494 C   0  0  0  0  0  0  0  0  0  0  0  0
   -2.6353    2.2311   -9.0619 C   0  0  0  0  0  0  0  0  0  0  0  0
   -1.4076    2.9405   -8.9840 N   0  0  2  0  0  4  0  0  0  0  0  0
   -1.1059    3.3485   -7.6252 C   0  0  0  0  0  0  0  0  0  0  0  0
    0.3125    3.8876   -7.5566 C   0  0  0  0  0  0  0  0  0  0  0  0
   -1.4569    4.0557   -9.9045 C   0  0  0  0  0  0  0  0  0  0  0  0
   -0.2138    4.9260   -9.6976 C   0  0  0  0  0  0  0  0  0  0  0  0
    0.7067    4.1289   -8.9311 N   0  0  0  0  0  0  0  0  0  0  0  0
    1.8892    3.6464   -9.4959 C   0  0  0  0  0  0  0  0  0  0  0  0
    2.1975    3.8442  -10.8187 C   0  0  0  0  0  0  0  0  0  0  0  0
    3.3854    3.3659  -11.3733 C   0  0  0  0  0  0  0  0  0  0  0  0
    2.8279    2.9408   -8.7349 C   0  0  0  0  0  0  0  0  0  0  0  0
    4.0133    2.4588   -9.2702 C   0  0  0  0  0  0  0  0  0  0  0  0
    4.2853    2.6807  -10.6110 C   0  0  0  0  0  0  0  0  0  0  0  0
    5.4817    2.2023  -11.2045 N   0  0  0  0  0  0  0  0  0  0  0  0
    6.7401    2.1487  -10.5529 C   0  0  0  0  0  0  0  0  0  0  0  0
    6.7838    2.4720   -9.3435 O   0  0  0  0  0  0  0  0  0  0  0  0
    7.9875    1.7339  -11.2291 C   0  0  0  0  0  0  0  0  0  0  0  0
    8.9804    2.8685  -11.1423 C   0  0  0  0  0  0  0  0  0  0  0  0
  1  2  2  0
  1  6  1  0
  2  3  1  0
  3  4  2  0
  4  5  1  0
  5  6  2  0
  6  7  1  0
  7  8  2  0
  7 17  1  0
  8  9  1  0
  9 10  1  0
  9 15  2  0
 10 11  2  0
 10 12  1  0
 12 13  2  0
 13 14  1  0
 14 15  1  0
 15 16  1  0
 16 17  2  0
 17 18  1  0
 18 19  2  0
 18 21  1  0
 19 20  1  0
 20 23  2  0
 21 22  2  0
 22 23  1  0
 23 24  1  0
 25 24  1  1
 25 26  1  0
 25 28  1  0
 26 27  1  0
 27 30  1  0
 28 29  1  0
 29 30  1  0
 30 31  1  0
 31 32  2  0
 31 34  1  0
 32 33  1  0
 33 36  2  0
 34 35  2  0
 35 36  1  0
 36 37  1  0
 37 38  1  0
 38 39  2  0
 38 40  1  0
 40 41  1  0
M  CHG  1  25   1
M  END
$$$$
