
     RDKit          3D

 41 46  0  0  0  0  0  0  0  0999 V2000
   -6.0470    1.9932  -15.6422 C   0  0  0  0  0  0  0  0  0  0  0  0
   -7.3892    2.2700  -15.5464 C   0  0  0  0  0  0  0  0  0  0  0  0
   -8.0548    1.9339  -14.3963 C   0  0  0  0  0  0  0  0  0  0  0  0
   -7.3889    1.3304  -13.3570 C   0  0  0  0  0  0  0  0  0  0  0  0
   -6.0548    1.0664  -13.4781 C   0  0  0  0  0  0  0  0  0  0  0  0
   -5.3557    1.3903  -14.6189 C   0  0  0  0  0  0  0  0  0  0  0  0
   -3.9414    1.1306  -14.7954 C   0  0  0  0  0  0  0  0  0  0  0  0
   -3.5151    0.6368  -16.0054 C   0  0  0  0  0  0  0  0  0  0  0  0
   -2.1690    0.3780  -16.2119 C   0  0  0  0  0  0  0  0  0  0  0  0
   -1.7122   -0.1469  -17.4927 C   0  0  0  0  0  0  0  0  0  0  0  0
   -2.5655   -0.3567  -18.3995 O   0  0  0  0  0  0  0  0  0  0  0  0
   -0.3339   -0.3989  -17.6646 N   0  0  0  0  0  0  0  0  0  0  0  0
    0.4972   -0.1674  -16.7090 C   0  0  0  0  0  0  0  0  0  0  0  0
    0.1931    0.3567  -15.3780 C   0  0  0  0  0  0  0  0  0  0  0  0
   -1.2645    0.6143  -15.2105 C   0  0  0  0  0  0  0  0  0  0  0  0
   -1.7262    1.0997  -14.0373 N   0  0  0  0  0  0  0  0  0  0  0  0
   -3.0177    1.3605  -13.8038 C   0  0  0  0  0  0  0  0  0  0  0  0
   -3.4626    1.8903  -12.4943 C   0  0  0  0  0  0  0  0  0  0  0  0
   -4.1556    3.0763  -12.3847 C   0  0  0  0  0  0  0  0  0  0  0  0
   -4.5486    3.5336  -11.1305 C   0  0  0  0  0  0  0  0  0  0  0  0
   -3.1859    1.1992  -11.3359 C   0  0  0  0  0  0  0  0  0  0  0  0
   -3.5788    1.6581  -10.0902 C   0  0  0  0  0  0  0  0  0  0  0  0
   -4.2725    2.8436   -9.9692 C   0  0  0  0  0  0  0  0  0  0  0  0
   -4.7206    3.3897   -8.6568 C   0  0  0  0  0  0  0  0  0  0  0  0
   -3.7872    4.2598   -8.0335 N   0  0  2  0  0  4  0  0  0  0  0  0
   -2.4195    3.9139   -8.3703 C   0  0  0  0  0  0  0  0  0  0  0  0
   -1.4813    5.0029   -7.8794 C   0  0  0  0  0  0  0  0  0  0  0  0
   -4.0298    4.2556   -6.6072 C   0  0  0  0  0  0  0  0  0  0  0  0
   -2.9188    5.0480   -5.9119 C   0  0  0  0  0  0  0  0  0  0  0  0
   -2.2574    5.7974   -6.9469 N   0  0  0  0  0  0  0  0  0  0  0  0
   -2.3667    7.1879   -7.0150 C   0  0  0  0  0  0  0  0  0  0  0  0
   -2.7356    7.8333   -8.1688 C   0  0  0  0  0  0  0  0  0  0  0  0
   -2.8506    9.2229   -8.2261 C   0  0  0  0  0  0  0  0  0  0  0  0
   -2.1126    7.9965   -5.9014 C   0  0  0  0  0  0  0  0  0  0  0  0
   -2.2225    9.3786   -5.9411 C   0  0  0  0  0  0  0  0  0  0  0  0
   -2.5977    9.9899   -7.1270 C   0  0  0  0  0  0  0  0  0  0  0  0
   -2.7180   11.4006   -7.2177 N   0  0  0  0  0  0  0  0  0  0  0  0
   -3.6144   12.0799   -8.0815 C   0  0  0  0  0  0  0  0  0  0  0  0
   -4.1949   11.4070   -8.9644 O   0  0  0  0  0  0  0  0  0  0  0  0
   -3.8907   13.5291   -7.9879 C   0  0  0  0  0  0  0  0  0  0  0  0
   -4.8306   13.9115   -9.1064 C   0  0  0  0  0  0  0  0  0  0  0  0
  1  2  2  0
  1  6  1  0
  2  3  1  0
  3  4  2  0
  4  5  1  0
  5  6  2  0
  6  7  1  0
  7  8  2  0
  7 17  1  0
  8  9  1  0
  9 10  1  0
  9 15  2  0
 10 11  2  0
 10 12  1  0
 12 13  2  0
 13 14  1  0
 14 15  1  0
 15 16  1  0
 16 17  2  0
 17 18  1  0
 18 19  2  0
 18 21  1  0
 19 20  1  0
 20 23  2  0
 21 22  2  0
 22 23  1  0
 23 24  1  0
 25 24  1  6
 25 26  1  0
 25 28  1  0
 26 27  1  0
 27 30  1  0
 28 29  1  0
 29 30  1  0
 30 31  1  0
 31 32  2  0
 31 34  1  0
 32 33  1  0
 33 36  2  0
 34 35  2  0
 35 36  1  0
 36 37  1  0
 37 38  1  0
 38 39  2  0
 38 40  1  0
 40 41  1  0
M  CHG  1  25   1
M  END
$$$$
