
     RDKit          3D

 41 46  0  0  0  0  0  0  0  0999 V2000
   -2.8618    0.6624  -13.0620 C   0  0  0  0  0  0  0  0  0  0  0  0
   -1.8391    0.6341  -12.1451 C   0  0  0  0  0  0  0  0  0  0  0  0
   -1.4012    1.8148  -11.6040 C   0  0  0  0  0  0  0  0  0  0  0  0
   -1.9770    3.0063  -11.9734 C   0  0  0  0  0  0  0  0  0  0  0  0
   -2.9918    3.0064  -12.8868 C   0  0  0  0  0  0  0  0  0  0  0  0
   -3.4559    1.8392  -13.4500 C   0  0  0  0  0  0  0  0  0  0  0  0
   -4.5285    1.7873  -14.4224 C   0  0  0  0  0  0  0  0  0  0  0  0
   -5.7363    2.3544  -14.0919 C   0  0  0  0  0  0  0  0  0  0  0  0
   -6.7854    2.3259  -14.9977 C   0  0  0  0  0  0  0  0  0  0  0  0
   -8.0684    2.9247  -14.6514 C   0  0  0  0  0  0  0  0  0  0  0  0
   -8.1975    3.4648  -13.5174 O   0  0  0  0  0  0  0  0  0  0  0  0
   -9.1130    2.8747  -15.5997 N   0  0  0  0  0  0  0  0  0  0  0  0
   -8.9311    2.3131  -16.7437 C   0  0  0  0  0  0  0  0  0  0  0  0
   -7.7095    1.6754  -17.2333 C   0  0  0  0  0  0  0  0  0  0  0  0
   -6.6181    1.7328  -16.2212 C   0  0  0  0  0  0  0  0  0  0  0  0
   -5.4149    1.1877  -16.5051 N   0  0  0  0  0  0  0  0  0  0  0  0
   -4.3815    1.1972  -15.6551 C   0  0  0  0  0  0  0  0  0  0  0  0
   -3.0868    0.5802  -16.0242 C   0  0  0  0  0  0  0  0  0  0  0  0
   -1.9139    1.3033  -16.0450 C   0  0  0  0  0  0  0  0  0  0  0  0
   -0.7231    0.6783  -16.4025 C   0  0  0  0  0  0  0  0  0  0  0  0
   -3.0251   -0.7527  -16.3642 C   0  0  0  0  0  0  0  0  0  0  0  0
   -1.8380   -1.3703  -16.7193 C   0  0  0  0  0  0  0  0  0  0  0  0
   -0.6588   -0.6560  -16.7436 C   0  0  0  0  0  0  0  0  0  0  0  0
    0.6492   -1.2643  -17.1187 C   0  0  0  0  0  0  0  0  0  0  0  0
    1.5061   -1.5380  -16.0197 N   0  0  2  0  0  4  0  0  0  0  0  0
    2.0773   -2.8688  -16.0999 C   0  0  0  0  0  0  0  0  0  0  0  0
    3.1576   -3.0256  -15.0437 C   0  0  0  0  0  0  0  0  0  0  0  0
    0.7716   -1.3181  -14.7928 C   0  0  0  0  0  0  0  0  0  0  0  0
    1.6285   -1.7812  -13.6109 C   0  0  0  0  0  0  0  0  0  0  0  0
    2.9663   -1.9231  -14.1212 N   0  0  0  0  0  0  0  0  0  0  0  0
    3.9856   -1.0526  -13.7295 C   0  0  0  0  0  0  0  0  0  0  0  0
    5.1336   -0.8980  -14.4659 C   0  0  0  0  0  0  0  0  0  0  0  0
    6.1438   -0.0195  -14.0717 C   0  0  0  0  0  0  0  0  0  0  0  0
    3.8828   -0.2838  -12.5648 C   0  0  0  0  0  0  0  0  0  0  0  0
    4.8771    0.5940  -12.1588 C   0  0  0  0  0  0  0  0  0  0  0  0
    6.0205    0.7195  -12.9321 C   0  0  0  0  0  0  0  0  0  0  0  0
    7.0668    1.6001  -12.5547 N   0  0  0  0  0  0  0  0  0  0  0  0
    7.6389    2.5830  -13.4018 C   0  0  0  0  0  0  0  0  0  0  0  0
    7.5515    2.4077  -14.6390 O   0  0  0  0  0  0  0  0  0  0  0  0
    8.3258    3.7904  -12.8960 C   0  0  0  0  0  0  0  0  0  0  0  0
    9.5613    4.0252  -13.7321 C   0  0  0  0  0  0  0  0  0  0  0  0
  1  2  2  0
  1  6  1  0
  2  3  1  0
  3  4  2  0
  4  5  1  0
  5  6  2  0
  6  7  1  0
  7  8  2  0
  7 17  1  0
  8  9  1  0
  9 10  1  0
  9 15  2  0
 10 11  2  0
 10 12  1  0
 12 13  2  0
 13 14  1  0
 14 15  1  0
 15 16  1  0
 16 17  2  0
 17 18  1  0
 18 19  2  0
 18 21  1  0
 19 20  1  0
 20 23  2  0
 21 22  2  0
 22 23  1  0
 23 24  1  0
 25 24  1  6
 25 26  1  0
 25 28  1  0
 26 27  1  0
 27 30  1  0
 28 29  1  0
 29 30  1  0
 30 31  1  0
 31 32  2  0
 31 34  1  0
 32 33  1  0
 33 36  2  0
 34 35  2  0
 35 36  1  0
 36 37  1  0
 37 38  1  0
 38 39  2  0
 38 40  1  0
 40 41  1  0
M  CHG  1  25   1
M  END
$$$$
