
     RDKit          3D

 41 46  0  0  0  0  0  0  0  0999 V2000
   -5.4513   -0.6279  -14.7575 C   0  0  0  0  0  0  0  0  0  0  0  0
   -6.4880   -1.3780  -14.2577 C   0  0  0  0  0  0  0  0  0  0  0  0
   -7.6160   -0.7376  -13.8147 C   0  0  0  0  0  0  0  0  0  0  0  0
   -7.7069    0.6321  -13.8706 C   0  0  0  0  0  0  0  0  0  0  0  0
   -6.6620    1.3539  -14.3720 C   0  0  0  0  0  0  0  0  0  0  0  0
   -5.5146    0.7432  -14.8253 C   0  0  0  0  0  0  0  0  0  0  0  0
   -4.3799    1.4644  -15.3649 C   0  0  0  0  0  0  0  0  0  0  0  0
   -3.9815    1.1854  -16.6506 C   0  0  0  0  0  0  0  0  0  0  0  0
   -2.9011    1.8569  -17.2016 C   0  0  0  0  0  0  0  0  0  0  0  0
   -2.4740    1.5637  -18.5640 C   0  0  0  0  0  0  0  0  0  0  0  0
   -3.1074    0.6919  -19.2222 O   0  0  0  0  0  0  0  0  0  0  0  0
   -1.3689    2.2674  -19.0898 N   0  0  0  0  0  0  0  0  0  0  0  0
   -0.7563    3.1483  -18.3785 C   0  0  0  0  0  0  0  0  0  0  0  0
   -1.0660    3.5509  -17.0071 C   0  0  0  0  0  0  0  0  0  0  0  0
   -2.2314    2.7978  -16.4650 C   0  0  0  0  0  0  0  0  0  0  0  0
   -2.6561    3.0411  -15.2057 N   0  0  0  0  0  0  0  0  0  0  0  0
   -3.6943    2.4118  -14.6428 C   0  0  0  0  0  0  0  0  0  0  0  0
   -4.1107    2.7213  -13.2557 C   0  0  0  0  0  0  0  0  0  0  0  0
   -4.7949    3.8751  -12.9399 C   0  0  0  0  0  0  0  0  0  0  0  0
   -5.1610    4.1221  -11.6202 C   0  0  0  0  0  0  0  0  0  0  0  0
   -3.8153    1.8496  -12.2316 C   0  0  0  0  0  0  0  0  0  0  0  0
   -4.1815    2.0995  -10.9200 C   0  0  0  0  0  0  0  0  0  0  0  0
   -4.8662    3.2508  -10.5930 C   0  0  0  0  0  0  0  0  0  0  0  0
   -5.2857    3.5761   -9.2002 C   0  0  0  0  0  0  0  0  0  0  0  0
   -4.3138    4.2840   -8.4446 N   0  0  2  0  0  4  0  0  0  0  0  0
   -2.9730    3.7895   -8.6925 C   0  0  0  0  0  0  0  0  0  0  0  0
   -1.9583    4.7214   -8.0528 C   0  0  0  0  0  0  0  0  0  0  0  0
   -4.6811    4.2265   -7.0464 C   0  0  0  0  0  0  0  0  0  0  0  0
   -3.5494    4.8311   -6.2101 C   0  0  0  0  0  0  0  0  0  0  0  0
   -2.7133    5.5509   -7.1336 N   0  0  0  0  0  0  0  0  0  0  0  0
   -2.6484    6.9457   -7.1140 C   0  0  0  0  0  0  0  0  0  0  0  0
   -2.4389    7.6807   -8.2541 C   0  0  0  0  0  0  0  0  0  0  0  0
   -2.3837    9.0749   -8.2270 C   0  0  0  0  0  0  0  0  0  0  0  0
   -2.8033    7.6680   -5.9254 C   0  0  0  0  0  0  0  0  0  0  0  0
   -2.7515    9.0534   -5.8809 C   0  0  0  0  0  0  0  0  0  0  0  0
   -2.5378    9.7567   -7.0558 C   0  0  0  0  0  0  0  0  0  0  0  0
   -2.4714   11.1738   -7.0593 N   0  0  0  0  0  0  0  0  0  0  0  0
   -3.2041   12.0135   -7.9363 C   0  0  0  0  0  0  0  0  0  0  0  0
   -3.5507   11.5392   -9.0426 O   0  0  0  0  0  0  0  0  0  0  0  0
   -3.5723   13.4069   -7.6073 C   0  0  0  0  0  0  0  0  0  0  0  0
   -3.2256   14.2858   -8.7855 C   0  0  0  0  0  0  0  0  0  0  0  0
  1  2  2  0
  1  6  1  0
  2  3  1  0
  3  4  2  0
  4  5  1  0
  5  6  2  0
  6  7  1  0
  7  8  2  0
  7 17  1  0
  8  9  1  0
  9 10  1  0
  9 15  2  0
 10 11  2  0
 10 12  1  0
 12 13  2  0
 13 14  1  0
 14 15  1  0
 15 16  1  0
 16 17  2  0
 17 18  1  0
 18 19  2  0
 18 21  1  0
 19 20  1  0
 20 23  2  0
 21 22  2  0
 22 23  1  0
 23 24  1  0
 25 24  1  6
 25 26  1  0
 25 28  1  0
 26 27  1  0
 27 30  1  0
 28 29  1  0
 29 30  1  0
 30 31  1  0
 31 32  2  0
 31 34  1  0
 32 33  1  0
 33 36  2  0
 34 35  2  0
 35 36  1  0
 36 37  1  0
 37 38  1  0
 38 39  2  0
 38 40  1  0
 40 41  1  0
M  CHG  1  25   1
M  END
$$$$
