
     RDKit          3D

 41 46  0  0  0  0  0  0  0  0999 V2000
   -6.3093    3.0707  -12.8787 C   0  0  0  0  0  0  0  0  0  0  0  0
   -7.0290    3.2623  -11.7243 C   0  0  0  0  0  0  0  0  0  0  0  0
   -7.7838    2.2283  -11.2345 C   0  0  0  0  0  0  0  0  0  0  0  0
   -7.8186    1.0205  -11.8884 C   0  0  0  0  0  0  0  0  0  0  0  0
   -7.0940    0.8566  -13.0340 C   0  0  0  0  0  0  0  0  0  0  0  0
   -6.3257    1.8737  -13.5536 C   0  0  0  0  0  0  0  0  0  0  0  0
   -5.5404    1.7492  -14.7647 C   0  0  0  0  0  0  0  0  0  0  0  0
   -6.1617    1.2857  -15.8999 C   0  0  0  0  0  0  0  0  0  0  0  0
   -5.4430    1.1552  -17.0781 C   0  0  0  0  0  0  0  0  0  0  0  0
   -6.0969    0.6629  -18.2842 C   0  0  0  0  0  0  0  0  0  0  0  0
   -7.3220    0.3623  -18.2283 O   0  0  0  0  0  0  0  0  0  0  0  0
   -5.3315    0.5426  -19.4643 N   0  0  0  0  0  0  0  0  0  0  0  0
   -4.0847    0.8631  -19.4704 C   0  0  0  0  0  0  0  0  0  0  0  0
   -3.2948    1.3699  -18.3488 C   0  0  0  0  0  0  0  0  0  0  0  0
   -4.1145    1.4880  -17.1105 C   0  0  0  0  0  0  0  0  0  0  0  0
   -3.5434    1.9395  -15.9724 N   0  0  0  0  0  0  0  0  0  0  0  0
   -4.2068    2.0775  -14.8185 C   0  0  0  0  0  0  0  0  0  0  0  0
   -3.5236    2.5762  -13.6028 C   0  0  0  0  0  0  0  0  0  0  0  0
   -3.0761    3.8753  -13.4987 C   0  0  0  0  0  0  0  0  0  0  0  0
   -2.4363    4.2947  -12.3362 C   0  0  0  0  0  0  0  0  0  0  0  0
   -3.3132    1.7370  -12.5315 C   0  0  0  0  0  0  0  0  0  0  0  0
   -2.6761    2.1587  -11.3769 C   0  0  0  0  0  0  0  0  0  0  0  0
   -2.2243    3.4564  -11.2623 C   0  0  0  0  0  0  0  0  0  0  0  0
   -1.5305    3.9683  -10.0465 C   0  0  0  0  0  0  0  0  0  0  0  0
   -0.3882    3.2171   -9.6624 N   0  0  2  0  0  4  0  0  0  0  0  0
   -0.7527    1.9291   -9.1037 C   0  0  0  0  0  0  0  0  0  0  0  0
    0.4923    1.0764   -8.9308 C   0  0  0  0  0  0  0  0  0  0  0  0
    0.4080    4.0147   -8.7551 C   0  0  0  0  0  0  0  0  0  0  0  0
    1.5428    3.1499   -8.1984 C   0  0  0  0  0  0  0  0  0  0  0  0
    1.6122    1.9902   -9.0473 N   0  0  0  0  0  0  0  0  0  0  0  0
    2.6969    1.7841   -9.9023 C   0  0  0  0  0  0  0  0  0  0  0  0
    2.8538    0.6192  -10.6110 C   0  0  0  0  0  0  0  0  0  0  0  0
    3.9365    0.4245  -11.4699 C   0  0  0  0  0  0  0  0  0  0  0  0
    3.6787    2.7641  -10.0869 C   0  0  0  0  0  0  0  0  0  0  0  0
    4.7606    2.5870  -10.9366 C   0  0  0  0  0  0  0  0  0  0  0  0
    4.8808    1.3949  -11.6333 C   0  0  0  0  0  0  0  0  0  0  0  0
    5.9728    1.1656  -12.5094 N   0  0  0  0  0  0  0  0  0  0  0  0
    6.5155    2.1334  -13.3925 C   0  0  0  0  0  0  0  0  0  0  0  0
    5.8798    3.2016  -13.5477 O   0  0  0  0  0  0  0  0  0  0  0  0
    7.7823    1.9402  -14.1295 C   0  0  0  0  0  0  0  0  0  0  0  0
    7.6821    2.6604  -15.4531 C   0  0  0  0  0  0  0  0  0  0  0  0
  1  2  2  0
  1  6  1  0
  2  3  1  0
  3  4  2  0
  4  5  1  0
  5  6  2  0
  6  7  1  0
  7  8  2  0
  7 17  1  0
  8  9  1  0
  9 10  1  0
  9 15  2  0
 10 11  2  0
 10 12  1  0
 12 13  2  0
 13 14  1  0
 14 15  1  0
 15 16  1  0
 16 17  2  0
 17 18  1  0
 18 19  2  0
 18 21  1  0
 19 20  1  0
 20 23  2  0
 21 22  2  0
 22 23  1  0
 23 24  1  0
 25 24  1  1
 25 26  1  0
 25 28  1  0
 26 27  1  0
 27 30  1  0
 28 29  1  0
 29 30  1  0
 30 31  1  0
 31 32  2  0
 31 34  1  0
 32 33  1  0
 33 36  2  0
 34 35  2  0
 35 36  1  0
 36 37  1  0
 37 38  1  0
 38 39  2  0
 38 40  1  0
 40 41  1  0
M  CHG  1  25   1
M  END
$$$$
