
     RDKit          3D

 41 46  0  0  0  0  0  0  0  0999 V2000
   -6.2009    0.6578  -13.9627 C   0  0  0  0  0  0  0  0  0  0  0  0
   -7.5312    0.9246  -13.7474 C   0  0  0  0  0  0  0  0  0  0  0  0
   -8.1846    1.7711  -14.6049 C   0  0  0  0  0  0  0  0  0  0  0  0
   -7.5186    2.3424  -15.6620 C   0  0  0  0  0  0  0  0  0  0  0  0
   -6.1964    2.0605  -15.8534 C   0  0  0  0  0  0  0  0  0  0  0  0
   -5.5097    1.2151  -15.0115 C   0  0  0  0  0  0  0  0  0  0  0  0
   -4.1081    0.8854  -15.1721 C   0  0  0  0  0  0  0  0  0  0  0  0
   -3.7082    0.2918  -16.3456 C   0  0  0  0  0  0  0  0  0  0  0  0
   -2.3748   -0.0363  -16.5361 C   0  0  0  0  0  0  0  0  0  0  0  0
   -1.9460   -0.6672  -17.7782 C   0  0  0  0  0  0  0  0  0  0  0  0
   -2.8115   -0.9038  -18.6667 O   0  0  0  0  0  0  0  0  0  0  0  0
   -0.5800   -0.9874  -17.9346 N   0  0  0  0  0  0  0  0  0  0  0  0
    0.2643   -0.7248  -16.9989 C   0  0  0  0  0  0  0  0  0  0  0  0
   -0.0118   -0.0975  -15.7070 C   0  0  0  0  0  0  0  0  0  0  0  0
   -1.4567    0.2312  -15.5552 C   0  0  0  0  0  0  0  0  0  0  0  0
   -1.8925    0.8155  -14.4177 N   0  0  0  0  0  0  0  0  0  0  0  0
   -3.1711    1.1452  -14.2006 C   0  0  0  0  0  0  0  0  0  0  0  0
   -3.5877    1.7824  -12.9303 C   0  0  0  0  0  0  0  0  0  0  0  0
   -3.2882    1.2291  -11.7043 C   0  0  0  0  0  0  0  0  0  0  0  0
   -3.7054    1.8647  -10.5388 C   0  0  0  0  0  0  0  0  0  0  0  0
   -4.2993    2.9611  -12.9459 C   0  0  0  0  0  0  0  0  0  0  0  0
   -4.7124    3.5900  -11.7837 C   0  0  0  0  0  0  0  0  0  0  0  0
   -4.4182    3.0449  -10.5518 C   0  0  0  0  0  0  0  0  0  0  0  0
   -4.8367    3.6736   -9.2668 C   0  0  0  0  0  0  0  0  0  0  0  0
   -3.9086    4.6121   -8.7428 N   0  0  2  0  0  4  0  0  0  0  0  0
   -4.5742    5.7688   -8.1744 C   0  0  0  0  0  0  0  0  0  0  0  0
   -3.5655    6.6208   -7.4234 C   0  0  0  0  0  0  0  0  0  0  0  0
   -2.9672    4.9643   -9.7835 C   0  0  0  0  0  0  0  0  0  0  0  0
   -2.0764    6.1049   -9.2824 C   0  0  0  0  0  0  0  0  0  0  0  0
   -2.2615    6.1570   -7.8564 N   0  0  0  0  0  0  0  0  0  0  0  0
   -1.2375    5.7906   -6.9806 C   0  0  0  0  0  0  0  0  0  0  0  0
   -1.0701    6.3987   -5.7615 C   0  0  0  0  0  0  0  0  0  0  0  0
   -0.0491    6.0206   -4.8885 C   0  0  0  0  0  0  0  0  0  0  0  0
   -0.3313    4.7733   -7.3004 C   0  0  0  0  0  0  0  0  0  0  0  0
    0.6888    4.3851   -6.4444 C   0  0  0  0  0  0  0  0  0  0  0  0
    0.8221    5.0259   -5.2227 C   0  0  0  0  0  0  0  0  0  0  0  0
    1.8531    4.6674   -4.3164 N   0  0  0  0  0  0  0  0  0  0  0  0
    2.6654    5.5921   -3.6120 C   0  0  0  0  0  0  0  0  0  0  0  0
    2.2712    6.7791   -3.5431 O   0  0  0  0  0  0  0  0  0  0  0  0
    3.9413    5.2222   -2.9634 C   0  0  0  0  0  0  0  0  0  0  0  0
    3.7249    5.1775   -1.4695 C   0  0  0  0  0  0  0  0  0  0  0  0
  1  2  2  0
  1  6  1  0
  2  3  1  0
  3  4  2  0
  4  5  1  0
  5  6  2  0
  6  7  1  0
  7  8  2  0
  7 17  1  0
  8  9  1  0
  9 10  1  0
  9 15  2  0
 10 11  2  0
 10 12  1  0
 12 13  2  0
 13 14  1  0
 14 15  1  0
 15 16  1  0
 16 17  2  0
 17 18  1  0
 18 19  2  0
 18 21  1  0
 19 20  1  0
 20 23  2  0
 21 22  2  0
 22 23  1  0
 23 24  1  0
 25 24  1  6
 25 26  1  0
 25 28  1  0
 26 27  1  0
 27 30  1  0
 28 29  1  0
 29 30  1  0
 30 31  1  0
 31 32  2  0
 31 34  1  0
 32 33  1  0
 33 36  2  0
 34 35  2  0
 35 36  1  0
 36 37  1  0
 37 38  1  0
 38 39  2  0
 38 40  1  0
 40 41  1  0
M  CHG  1  25   1
M  END
$$$$
