
     RDKit          3D

 41 46  0  0  0  0  0  0  0  0999 V2000
   -6.4058    0.8205  -13.5114 C   0  0  0  0  0  0  0  0  0  0  0  0
   -7.5040    0.8382  -12.6863 C   0  0  0  0  0  0  0  0  0  0  0  0
   -8.5727    1.6280  -13.0223 C   0  0  0  0  0  0  0  0  0  0  0  0
   -8.5444    2.3888  -14.1659 C   0  0  0  0  0  0  0  0  0  0  0  0
   -7.4404    2.3529  -14.9685 C   0  0  0  0  0  0  0  0  0  0  0  0
   -6.3499    1.5711  -14.6611 C   0  0  0  0  0  0  0  0  0  0  0  0
   -5.1565    1.4994  -15.4793 C   0  0  0  0  0  0  0  0  0  0  0  0
   -5.3018    1.2582  -16.8248 C   0  0  0  0  0  0  0  0  0  0  0  0
   -4.1828    1.1848  -17.6397 C   0  0  0  0  0  0  0  0  0  0  0  0
   -4.3316    0.9279  -19.0668 C   0  0  0  0  0  0  0  0  0  0  0  0
   -5.4941    0.7764  -19.5362 O   0  0  0  0  0  0  0  0  0  0  0  0
   -3.1685    0.8590  -19.8639 N   0  0  0  0  0  0  0  0  0  0  0  0
   -2.0049    1.0215  -19.3377 C   0  0  0  0  0  0  0  0  0  0  0  0
   -1.6970    1.2861  -17.9327 C   0  0  0  0  0  0  0  0  0  0  0  0
   -2.9332    1.3525  -17.1041 C   0  0  0  0  0  0  0  0  0  0  0  0
   -2.8356    1.5876  -15.7773 N   0  0  0  0  0  0  0  0  0  0  0  0
   -3.8938    1.6646  -14.9619 C   0  0  0  0  0  0  0  0  0  0  0  0
   -3.7217    1.9228  -13.5138 C   0  0  0  0  0  0  0  0  0  0  0  0
   -4.3400    2.9805  -12.8830 C   0  0  0  0  0  0  0  0  0  0  0  0
   -4.1435    3.1830  -11.5203 C   0  0  0  0  0  0  0  0  0  0  0  0
   -2.9228    1.0994  -12.7523 C   0  0  0  0  0  0  0  0  0  0  0  0
   -2.7301    1.3048  -11.3967 C   0  0  0  0  0  0  0  0  0  0  0  0
   -3.3440    2.3601  -10.7557 C   0  0  0  0  0  0  0  0  0  0  0  0
   -3.1740    2.6335   -9.3004 C   0  0  0  0  0  0  0  0  0  0  0  0
   -2.1112    3.5229   -8.9904 N   0  0  2  0  0  4  0  0  0  0  0  0
   -2.2747    4.8072   -9.6445 C   0  0  0  0  0  0  0  0  0  0  0  0
   -1.2535    5.7913   -9.1005 C   0  0  0  0  0  0  0  0  0  0  0  0
   -0.8576    2.8818   -9.3233 C   0  0  0  0  0  0  0  0  0  0  0  0
    0.2780    3.8965   -9.1608 C   0  0  0  0  0  0  0  0  0  0  0  0
   -0.2699    4.9881   -8.4002 N   0  0  0  0  0  0  0  0  0  0  0  0
    0.1435    5.2351   -7.0895 C   0  0  0  0  0  0  0  0  0  0  0  0
   -0.4469    6.1979   -6.3094 C   0  0  0  0  0  0  0  0  0  0  0  0
   -0.0332    6.4328   -4.9974 C   0  0  0  0  0  0  0  0  0  0  0  0
    1.1802    4.5032   -6.4997 C   0  0  0  0  0  0  0  0  0  0  0  0
    1.6034    4.7236   -5.1973 C   0  0  0  0  0  0  0  0  0  0  0  0
    0.9798    5.7060   -4.4445 C   0  0  0  0  0  0  0  0  0  0  0  0
    1.3816    5.9716   -3.1100 N   0  0  0  0  0  0  0  0  0  0  0  0
    1.6974    4.9771   -2.1496 C   0  0  0  0  0  0  0  0  0  0  0  0
    1.8091    3.7954   -2.5500 O   0  0  0  0  0  0  0  0  0  0  0  0
    1.8980    5.2691   -0.7144 C   0  0  0  0  0  0  0  0  0  0  0  0
    2.8801    4.2682   -0.1538 C   0  0  0  0  0  0  0  0  0  0  0  0
  1  2  2  0
  1  6  1  0
  2  3  1  0
  3  4  2  0
  4  5  1  0
  5  6  2  0
  6  7  1  0
  7  8  2  0
  7 17  1  0
  8  9  1  0
  9 10  1  0
  9 15  2  0
 10 11  2  0
 10 12  1  0
 12 13  2  0
 13 14  1  0
 14 15  1  0
 15 16  1  0
 16 17  2  0
 17 18  1  0
 18 19  2  0
 18 21  1  0
 19 20  1  0
 20 23  2  0
 21 22  2  0
 22 23  1  0
 23 24  1  0
 25 24  1  6
 25 26  1  0
 25 28  1  0
 26 27  1  0
 27 30  1  0
 28 29  1  0
 29 30  1  0
 30 31  1  0
 31 32  2  0
 31 34  1  0
 32 33  1  0
 33 36  2  0
 34 35  2  0
 35 36  1  0
 36 37  1  0
 37 38  1  0
 38 39  2  0
 38 40  1  0
 40 41  1  0
M  CHG  1  25   1
M  END
$$$$
