
     RDKit          3D

 41 46  0  0  0  0  0  0  0  0999 V2000
   -6.9410    2.5368  -13.4722 C   0  0  0  0  0  0  0  0  0  0  0  0
   -6.9587    3.5453  -12.5396 C   0  0  0  0  0  0  0  0  0  0  0  0
   -6.0726    3.4977  -11.4950 C   0  0  0  0  0  0  0  0  0  0  0  0
   -5.1818    2.4577  -11.3840 C   0  0  0  0  0  0  0  0  0  0  0  0
   -5.1852    1.4680  -12.3247 C   0  0  0  0  0  0  0  0  0  0  0  0
   -6.0613    1.4845  -13.3863 C   0  0  0  0  0  0  0  0  0  0  0  0
   -6.1042    0.4590  -14.4086 C   0  0  0  0  0  0  0  0  0  0  0  0
   -7.2915   -0.2000  -14.6219 C   0  0  0  0  0  0  0  0  0  0  0  0
   -7.3712   -1.1860  -15.5931 C   0  0  0  0  0  0  0  0  0  0  0  0
   -8.6276   -1.8885  -15.8222 C   0  0  0  0  0  0  0  0  0  0  0  0
   -9.6308   -1.5782  -15.1208 O   0  0  0  0  0  0  0  0  0  0  0  0
   -8.6692   -2.8871  -16.8191 N   0  0  0  0  0  0  0  0  0  0  0  0
   -7.6186   -3.1664  -17.5088 C   0  0  0  0  0  0  0  0  0  0  0  0
   -6.2963   -2.5516  -17.3972 C   0  0  0  0  0  0  0  0  0  0  0  0
   -6.2672   -1.5031  -16.3395 C   0  0  0  0  0  0  0  0  0  0  0  0
   -5.1205   -0.8309  -16.0973 N   0  0  0  0  0  0  0  0  0  0  0  0
   -5.0082    0.1256  -15.1683 C   0  0  0  0  0  0  0  0  0  0  0  0
   -3.7217    0.8255  -14.9482 C   0  0  0  0  0  0  0  0  0  0  0  0
   -2.7120    0.2742  -14.1896 C   0  0  0  0  0  0  0  0  0  0  0  0
   -1.5225    0.9736  -14.0093 C   0  0  0  0  0  0  0  0  0  0  0  0
   -3.5030    2.0664  -15.5034 C   0  0  0  0  0  0  0  0  0  0  0  0
   -2.3179    2.7587  -15.3213 C   0  0  0  0  0  0  0  0  0  0  0  0
   -1.3012    2.2163  -14.5641 C   0  0  0  0  0  0  0  0  0  0  0  0
   -0.0045    2.9132  -14.3307 C   0  0  0  0  0  0  0  0  0  0  0  0
    1.0622    2.4588  -15.1508 N   0  0  2  0  0  4  0  0  0  0  0  0
    1.1655    3.2278  -16.3762 C   0  0  0  0  0  0  0  0  0  0  0  0
    2.4507    2.8652  -17.1000 C   0  0  0  0  0  0  0  0  0  0  0  0
    0.8907    1.0426  -15.3924 C   0  0  0  0  0  0  0  0  0  0  0  0
    1.9319    0.5839  -16.4176 C   0  0  0  0  0  0  0  0  0  0  0  0
    2.9121    1.6349  -16.4864 N   0  0  0  0  0  0  0  0  0  0  0  0
    4.2071    1.4489  -15.9981 C   0  0  0  0  0  0  0  0  0  0  0  0
    5.1773    2.4117  -16.1231 C   0  0  0  0  0  0  0  0  0  0  0  0
    6.4669    2.2210  -15.6248 C   0  0  0  0  0  0  0  0  0  0  0  0
    4.5797    0.2683  -15.3456 C   0  0  0  0  0  0  0  0  0  0  0  0
    5.8565    0.0627  -14.8443 C   0  0  0  0  0  0  0  0  0  0  0  0
    6.8062    1.0613  -14.9922 C   0  0  0  0  0  0  0  0  0  0  0  0
    8.1266    0.8947  -14.5010 N   0  0  0  0  0  0  0  0  0  0  0  0
    8.4513    0.4896  -13.1814 C   0  0  0  0  0  0  0  0  0  0  0  0
    7.5051    0.2522  -12.3956 O   0  0  0  0  0  0  0  0  0  0  0  0
    9.8398    0.3373  -12.6973 C   0  0  0  0  0  0  0  0  0  0  0  0
   10.0966    1.3839  -11.6393 C   0  0  0  0  0  0  0  0  0  0  0  0
  1  2  2  0
  1  6  1  0
  2  3  1  0
  3  4  2  0
  4  5  1  0
  5  6  2  0
  6  7  1  0
  7  8  2  0
  7 17  1  0
  8  9  1  0
  9 10  1  0
  9 15  2  0
 10 11  2  0
 10 12  1  0
 12 13  2  0
 13 14  1  0
 14 15  1  0
 15 16  1  0
 16 17  2  0
 17 18  1  0
 18 19  2  0
 18 21  1  0
 19 20  1  0
 20 23  2  0
 21 22  2  0
 22 23  1  0
 23 24  1  0
 25 24  1  6
 25 26  1  0
 25 28  1  0
 26 27  1  0
 27 30  1  0
 28 29  1  0
 29 30  1  0
 30 31  1  0
 31 32  2  0
 31 34  1  0
 32 33  1  0
 33 36  2  0
 34 35  2  0
 35 36  1  0
 36 37  1  0
 37 38  1  0
 38 39  2  0
 38 40  1  0
 40 41  1  0
M  CHG  1  25   1
M  END
$$$$
