
     RDKit          3D

 41 46  0  0  0  0  0  0  0  0999 V2000
   -4.0024   -1.0803  -14.0313 C   0  0  0  0  0  0  0  0  0  0  0  0
   -3.2482   -2.0678  -13.4452 C   0  0  0  0  0  0  0  0  0  0  0  0
   -2.7918   -1.8821  -12.1662 C   0  0  0  0  0  0  0  0  0  0  0  0
   -3.0850   -0.7270  -11.4827 C   0  0  0  0  0  0  0  0  0  0  0  0
   -3.8366    0.2387  -12.0884 C   0  0  0  0  0  0  0  0  0  0  0  0
   -4.3107    0.0851  -13.3716 C   0  0  0  0  0  0  0  0  0  0  0  0
   -5.1107    1.0796  -14.0569 C   0  0  0  0  0  0  0  0  0  0  0  0
   -6.0926    0.6475  -14.9164 C   0  0  0  0  0  0  0  0  0  0  0  0
   -6.8795    1.5699  -15.5885 C   0  0  0  0  0  0  0  0  0  0  0  0
   -7.9210    1.1167  -16.5019 C   0  0  0  0  0  0  0  0  0  0  0  0
   -8.0863   -0.1248  -16.6627 O   0  0  0  0  0  0  0  0  0  0  0  0
   -8.7009    2.0861  -17.1688 N   0  0  0  0  0  0  0  0  0  0  0  0
   -8.4939    3.3411  -16.9702 C   0  0  0  0  0  0  0  0  0  0  0  0
   -7.4953    3.9458  -16.0894 C   0  0  0  0  0  0  0  0  0  0  0  0
   -6.6783    2.9112  -15.3958 C   0  0  0  0  0  0  0  0  0  0  0  0
   -5.7028    3.2925  -14.5424 N   0  0  0  0  0  0  0  0  0  0  0  0
   -4.9252    2.4297  -13.8779 C   0  0  0  0  0  0  0  0  0  0  0  0
   -3.8697    2.9101  -12.9567 C   0  0  0  0  0  0  0  0  0  0  0  0
   -4.1469    3.2758  -11.6573 C   0  0  0  0  0  0  0  0  0  0  0  0
   -3.1203    3.7246  -10.8319 C   0  0  0  0  0  0  0  0  0  0  0  0
   -2.5651    3.0073  -13.3865 C   0  0  0  0  0  0  0  0  0  0  0  0
   -1.5470    3.4544  -12.5616 C   0  0  0  0  0  0  0  0  0  0  0  0
   -1.8134    3.8229  -11.2599 C   0  0  0  0  0  0  0  0  0  0  0  0
   -0.7610    4.3132  -10.3252 C   0  0  0  0  0  0  0  0  0  0  0  0
    0.3269    3.4184  -10.1447 N   0  0  2  0  0  4  0  0  0  0  0  0
   -0.1160    2.1181   -9.6789 C   0  0  0  0  0  0  0  0  0  0  0  0
    1.0417    1.1361   -9.7285 C   0  0  0  0  0  0  0  0  0  0  0  0
    1.2899    4.0321   -9.2561 C   0  0  0  0  0  0  0  0  0  0  0  0
    2.3753    3.0068   -8.9153 C   0  0  0  0  0  0  0  0  0  0  0  0
    2.2358    1.9455   -9.8768 N   0  0  0  0  0  0  0  0  0  0  0  0
    3.2021    1.7308  -10.8618 C   0  0  0  0  0  0  0  0  0  0  0  0
    3.3685    0.5086  -11.4639 C   0  0  0  0  0  0  0  0  0  0  0  0
    4.3311    0.3047  -12.4536 C   0  0  0  0  0  0  0  0  0  0  0  0
    4.0476    2.7592  -11.2928 C   0  0  0  0  0  0  0  0  0  0  0  0
    5.0091    2.5737  -12.2751 C   0  0  0  0  0  0  0  0  0  0  0  0
    5.1437    1.3230  -12.8571 C   0  0  0  0  0  0  0  0  0  0  0  0
    6.1164    1.0836  -13.8617 N   0  0  0  0  0  0  0  0  0  0  0  0
    7.4935    1.4005  -13.7431 C   0  0  0  0  0  0  0  0  0  0  0  0
    7.8778    1.9384  -12.6790 O   0  0  0  0  0  0  0  0  0  0  0  0
    8.4838    1.1282  -14.8063 C   0  0  0  0  0  0  0  0  0  0  0  0
    9.8556    1.4897  -14.2884 C   0  0  0  0  0  0  0  0  0  0  0  0
  1  2  2  0
  1  6  1  0
  2  3  1  0
  3  4  2  0
  4  5  1  0
  5  6  2  0
  6  7  1  0
  7  8  2  0
  7 17  1  0
  8  9  1  0
  9 10  1  0
  9 15  2  0
 10 11  2  0
 10 12  1  0
 12 13  2  0
 13 14  1  0
 14 15  1  0
 15 16  1  0
 16 17  2  0
 17 18  1  0
 18 19  2  0
 18 21  1  0
 19 20  1  0
 20 23  2  0
 21 22  2  0
 22 23  1  0
 23 24  1  0
 25 24  1  1
 25 26  1  0
 25 28  1  0
 26 27  1  0
 27 30  1  0
 28 29  1  0
 29 30  1  0
 30 31  1  0
 31 32  2  0
 31 34  1  0
 32 33  1  0
 33 36  2  0
 34 35  2  0
 35 36  1  0
 36 37  1  0
 37 38  1  0
 38 39  2  0
 38 40  1  0
 40 41  1  0
M  CHG  1  25   1
M  END
$$$$
