
     RDKit          3D

 23 25  0  0  0  0  0  0  0  0999 V2000
    8.8466    1.7005   -5.8832 C   0  0  0  0  0  0  0  0  0  0  0  0
   12.2651    8.1986  -13.4274 O   0  0  0  0  0  0  0  0  0  0  0  0
    8.6563    4.8287  -14.0022 C   0  0  0  0  0  0  0  0  0  0  0  0
   10.6621    5.7531  -13.0497 C   0  0  0  0  0  0  0  0  0  0  0  0
   10.5295    4.6483   -8.8930 C   0  0  0  0  0  0  0  0  0  0  0  0
    9.3744    2.4836   -6.9106 C   0  0  0  0  0  0  0  0  0  0  0  0
    9.5126    5.7097   -5.5504 N   0  0  0  0  0  0  0  0  0  0  0  0
   10.0680    4.8531   -7.5329 C   0  0  0  0  0  0  0  0  0  0  0  0
   10.7286    3.4367   -9.2240 O   0  0  0  0  0  0  0  0  0  0  0  0
   10.0162    5.9973   -6.7715 C   0  0  0  0  0  0  0  0  0  0  0  0
    8.7173    3.6179   -4.5003 C   0  0  0  0  0  0  0  0  0  0  0  0
   12.3838    7.3499  -12.5186 C   0  0  0  0  0  0  0  0  0  0  0  0
   10.7275    4.5245  -15.0885 C   0  0  0  0  0  0  0  0  0  0  0  0
    8.5146    2.2508   -4.6776 C   0  0  0  0  0  0  0  0  0  0  0  0
   11.2987    6.5497  -11.9554 C   0  0  2  0  0  0  0  0  0  0  0  0
    9.3055    5.5490  -13.0019 C   0  0  0  0  0  0  0  0  0  0  0  0
    9.3531    4.3071  -15.0597 C   0  0  0  0  0  0  0  0  0  0  0  0
   11.3634    5.2361  -14.0973 C   0  0  0  0  0  0  0  0  0  0  0  0
    9.5719    3.8228   -6.7339 C   0  0  0  0  0  0  0  0  0  0  0  0
    9.2427    4.3967   -5.5222 C   0  0  0  0  0  0  0  0  0  0  0  0
   10.7408    5.7257   -9.7762 N   0  0  0  0  0  0  0  0  0  0  0  0
   11.5943    5.7203  -10.8355 N   0  0  0  0  0  4  0  0  0  0  0  0
   13.7359    7.1897  -12.0292 N   0  0  0  0  0  0  0  0  0  0  0  0
  6  1  2  0
  1 14  1  0
 12  2  2  0
 16  3  2  0
  3 17  1  0
 15  4  1  0
  4 16  1  0
  4 18  2  0
  5  8  1  0
  5  9  2  0
 21  5  1  0
 19  6  1  0
 10  7  1  0
 20  7  1  0
  8 10  2  0
  8 19  1  0
 11 14  2  0
 20 11  1  0
 15 12  1  0
 12 23  1  0
 13 17  2  0
 18 13  1  0
 15 22  1  1
 19 20  2  0
 21 22  1  0
M  CHG  1  22   1
M  END
$$$$
