
     RDKit          3D

 23 25  0  0  0  0  0  0  0  0999 V2000
    7.9443    7.9792  -11.9811 C   0  0  0  0  0  0  0  0  0  0  0  0
    7.4085    5.6648   -7.5623 O   0  0  0  0  0  0  0  0  0  0  0  0
   10.2315    2.2050   -5.4618 C   0  0  0  0  0  0  0  0  0  0  0  0
   10.0046    4.2838   -6.6501 C   0  0  0  0  0  0  0  0  0  0  0  0
   11.2944    5.0036  -11.2719 C   0  0  0  0  0  0  0  0  0  0  0  0
    8.9111    7.0408  -11.6177 C   0  0  0  0  0  0  0  0  0  0  0  0
   10.9680    6.7849  -14.4427 N   0  0  0  0  0  0  0  0  0  0  0  0
   10.9815    5.8069  -12.4387 C   0  0  0  0  0  0  0  0  0  0  0  0
   11.9637    3.9471  -11.5016 O   0  0  0  0  0  0  0  0  0  0  0  0
   11.6156    5.8966  -13.6559 C   0  0  0  0  0  0  0  0  0  0  0  0
    8.9674    8.1971  -14.1052 C   0  0  0  0  0  0  0  0  0  0  0  0
    8.2495    4.9561   -8.1546 C   0  0  0  0  0  0  0  0  0  0  0  0
   10.6605    4.2464   -4.3612 C   0  0  0  0  0  0  0  0  0  0  0  0
    7.9592    8.5637  -13.2159 C   0  0  0  0  0  0  0  0  0  0  0  0
    9.6935    4.9860   -7.9336 C   0  0  2  0  0  0  0  0  0  0  0  0
    9.9365    2.9130   -6.6248 C   0  0  0  0  0  0  0  0  0  0  0  0
   10.5986    2.8567   -4.3144 C   0  0  0  0  0  0  0  0  0  0  0  0
   10.3673    4.9403   -5.5126 C   0  0  0  0  0  0  0  0  0  0  0  0
    9.8977    6.6837  -12.4912 C   0  0  0  0  0  0  0  0  0  0  0  0
    9.9291    7.2638  -13.7434 C   0  0  0  0  0  0  0  0  0  0  0  0
   10.8780    5.3776   -9.9788 N   0  0  0  0  0  0  0  0  0  0  0  0
   10.5378    4.5177   -8.9811 N   0  0  0  0  0  4  0  0  0  0  0  0
    7.6806    4.0464   -9.1252 N   0  0  0  0  0  0  0  0  0  0  0  0
  6  1  2  0
  1 14  1  0
 12  2  2  0
 16  3  2  0
  3 17  1  0
 15  4  1  0
  4 16  1  0
  4 18  2  0
  5  8  1  0
  5  9  2  0
 21  5  1  0
 19  6  1  0
 10  7  1  0
 20  7  1  0
  8 10  2  0
  8 19  1  0
 11 14  2  0
 20 11  1  0
 15 12  1  0
 12 23  1  0
 13 17  2  0
 18 13  1  0
 15 22  1  6
 19 20  2  0
 21 22  1  0
M  CHG  1  22   1
M  END
$$$$
