
     RDKit          3D

 23 25  0  0  0  0  0  0  0  0999 V2000
    9.2028    4.4030   -5.0969 C   0  0  0  0  0  0  0  0  0  0  0  0
   14.5781    1.8184  -10.5199 O   0  0  0  0  0  0  0  0  0  0  0  0
   13.3264    3.4343  -15.3738 C   0  0  0  0  0  0  0  0  0  0  0  0
   13.0402    3.7148  -13.0022 C   0  0  0  0  0  0  0  0  0  0  0  0
   11.7962    4.6046   -8.8136 C   0  0  0  0  0  0  0  0  0  0  0  0
    9.9689    4.6221   -6.2426 C   0  0  0  0  0  0  0  0  0  0  0  0
   11.2613    1.4625   -7.0320 N   0  0  0  0  0  0  0  0  0  0  0  0
   11.4574    3.4791   -7.9633 C   0  0  0  0  0  0  0  0  0  0  0  0
   10.9230    5.5273   -8.8698 O   0  0  0  0  0  0  0  0  0  0  0  0
   11.8224    2.1558   -8.0479 C   0  0  0  0  0  0  0  0  0  0  0  0
    9.7807    2.1078   -5.1605 C   0  0  0  0  0  0  0  0  0  0  0  0
   13.6208    2.4048  -11.0676 C   0  0  0  0  0  0  0  0  0  0  0  0
   11.1780    3.8241  -14.4823 C   0  0  0  0  0  0  0  0  0  0  0  0
    9.0994    3.1568   -4.5466 C   0  0  0  0  0  0  0  0  0  0  0  0
   13.6627    3.7474  -11.6425 C   0  0  2  0  0  0  0  0  0  0  0  0
   13.8533    3.4914  -14.0854 C   0  0  0  0  0  0  0  0  0  0  0  0
   11.9845    3.5977  -15.5938 C   0  0  0  0  0  0  0  0  0  0  0  0
   11.7042    3.8802  -13.2122 C   0  0  0  0  0  0  0  0  0  0  0  0
   10.6352    3.5924   -6.8420 C   0  0  0  0  0  0  0  0  0  0  0  0
   10.5424    2.3260   -6.3004 C   0  0  0  0  0  0  0  0  0  0  0  0
   13.0114    4.6592   -9.5250 N   0  0  0  0  0  0  0  0  0  0  0  0
   13.1300    4.8198  -10.8706 N   0  0  0  0  0  4  0  0  0  0  0  0
   12.3974    1.6336  -11.1084 N   0  0  0  0  0  0  0  0  0  0  0  0
  6  1  2  0
  1 14  1  0
 12  2  2  0
 16  3  2  0
  3 17  1  0
 15  4  1  0
  4 16  1  0
  4 18  2  0
  5  8  1  0
  5  9  2  0
 21  5  1  0
 19  6  1  0
 10  7  1  0
 20  7  1  0
  8 10  2  0
  8 19  1  0
 11 14  2  0
 20 11  1  0
 15 12  1  0
 12 23  1  0
 13 17  2  0
 18 13  1  0
 15 22  1  1
 19 20  2  0
 21 22  1  0
M  CHG  1  22   1
M  END
$$$$
