
     RDKit          3D

 23 25  0  0  0  0  0  0  0  0999 V2000
    9.9491    4.9379   -4.5374 C   0  0  0  0  0  0  0  0  0  0  0  0
   12.5091    8.0888  -12.5515 O   0  0  0  0  0  0  0  0  0  0  0  0
   11.5097    3.0102  -14.4633 C   0  0  0  0  0  0  0  0  0  0  0  0
   11.7924    5.1040  -13.3137 C   0  0  0  0  0  0  0  0  0  0  0  0
   11.2109    4.9149   -8.8949 C   0  0  0  0  0  0  0  0  0  0  0  0
   10.3891    5.0806   -5.8540 C   0  0  0  0  0  0  0  0  0  0  0  0
    9.6674    1.9920   -7.3430 N   0  0  0  0  0  0  0  0  0  0  0  0
   10.5924    3.8788   -8.0894 C   0  0  0  0  0  0  0  0  0  0  0  0
   11.1726    6.0854   -8.3997 O   0  0  0  0  0  0  0  0  0  0  0  0
   10.2095    2.6003   -8.4218 C   0  0  0  0  0  0  0  0  0  0  0  0
    9.2614    2.7236   -5.0168 C   0  0  0  0  0  0  0  0  0  0  0  0
   11.4998    7.3541  -12.5093 C   0  0  0  0  0  0  0  0  0  0  0  0
   12.7825    4.7346  -15.4477 C   0  0  0  0  0  0  0  0  0  0  0  0
    9.3856    3.7705   -4.1058 C   0  0  0  0  0  0  0  0  0  0  0  0
   11.4882    5.9469  -12.1162 C   0  0  2  0  0  0  0  0  0  0  0  0
   11.2731    3.8343  -13.3652 C   0  0  0  0  0  0  0  0  0  0  0  0
   12.2646    3.4448  -15.5203 C   0  0  0  0  0  0  0  0  0  0  0  0
   12.5460    5.5437  -14.3603 C   0  0  0  0  0  0  0  0  0  0  0  0
   10.2660    4.0531   -6.7444 C   0  0  0  0  0  0  0  0  0  0  0  0
    9.6988    2.8659   -6.3266 C   0  0  0  0  0  0  0  0  0  0  0  0
   11.8077    4.6315  -10.1395 N   0  0  0  0  0  0  0  0  0  0  0  0
   12.2952    5.5577  -11.0085 N   0  0  0  0  0  4  0  0  0  0  0  0
   10.2692    8.0139  -12.8884 N   0  0  0  0  0  0  0  0  0  0  0  0
  6  1  2  0
  1 14  1  0
 12  2  2  0
 16  3  2  0
  3 17  1  0
 15  4  1  0
  4 16  1  0
  4 18  2  0
  5  8  1  0
  5  9  2  0
 21  5  1  0
 19  6  1  0
 10  7  1  0
 20  7  1  0
  8 10  2  0
  8 19  1  0
 11 14  2  0
 20 11  1  0
 15 12  1  0
 12 23  1  0
 13 17  2  0
 18 13  1  0
 15 22  1  1
 19 20  2  0
 21 22  1  0
M  CHG  1  22   1
M  END
$$$$
