
     RDKit          3D

 23 25  0  0  0  0  0  0  0  0999 V2000
    9.0065    4.2428   -5.0854 C   0  0  0  0  0  0  0  0  0  0  0  0
   15.6265    5.3300  -12.0649 O   0  0  0  0  0  0  0  0  0  0  0  0
   11.8234    3.4363  -15.1668 C   0  0  0  0  0  0  0  0  0  0  0  0
   13.1456    3.4153  -13.1577 C   0  0  0  0  0  0  0  0  0  0  0  0
   11.4501    4.1276   -8.9059 C   0  0  0  0  0  0  0  0  0  0  0  0
    9.6861    4.3450   -6.3000 C   0  0  0  0  0  0  0  0  0  0  0  0
   11.7670    1.5267   -6.3626 N   0  0  0  0  0  0  0  0  0  0  0  0
   11.4218    3.2135   -7.7797 C   0  0  0  0  0  0  0  0  0  0  0  0
   10.3711    4.7669   -9.1158 O   0  0  0  0  0  0  0  0  0  0  0  0
   12.1236    2.0520   -7.5561 C   0  0  0  0  0  0  0  0  0  0  0  0
   10.1707    2.2358   -4.6134 C   0  0  0  0  0  0  0  0  0  0  0  0
   15.0052    4.2615  -11.8842 C   0  0  0  0  0  0  0  0  0  0  0  0
   13.2625    1.6219  -14.7200 C   0  0  0  0  0  0  0  0  0  0  0  0
    9.2369    3.1985   -4.2352 C   0  0  0  0  0  0  0  0  0  0  0  0
   13.5520    4.1101  -11.8970 C   0  0  2  0  0  0  0  0  0  0  0  0
   12.2269    4.0290  -13.9723 C   0  0  0  0  0  0  0  0  0  0  0  0
   12.3332    2.2276  -15.5607 C   0  0  0  0  0  0  0  0  0  0  0  0
   13.6566    2.2118  -13.5410 C   0  0  0  0  0  0  0  0  0  0  0  0
   10.6003    3.4002   -6.6679 C   0  0  0  0  0  0  0  0  0  0  0  0
   10.8463    2.3375   -5.8218 C   0  0  0  0  0  0  0  0  0  0  0  0
   12.5992    4.2858   -9.7060 N   0  0  0  0  0  0  0  0  0  0  0  0
   12.9354    3.5020  -10.7658 N   0  0  0  0  0  4  0  0  0  0  0  0
   15.8545    3.1131  -11.6532 N   0  0  0  0  0  0  0  0  0  0  0  0
  6  1  2  0
  1 14  1  0
 12  2  2  0
 16  3  2  0
  3 17  1  0
 15  4  1  0
  4 16  1  0
  4 18  2  0
  5  8  1  0
  5  9  2  0
 21  5  1  0
 19  6  1  0
 10  7  1  0
 20  7  1  0
  8 10  2  0
  8 19  1  0
 11 14  2  0
 20 11  1  0
 15 12  1  0
 12 23  1  0
 13 17  2  0
 18 13  1  0
 15 22  1  1
 19 20  2  0
 21 22  1  0
M  CHG  1  22   1
M  END
$$$$
