
     RDKit          3D

 23 25  0  0  0  0  0  0  0  0999 V2000
   10.2109    4.2548   -4.6986 C   0  0  0  0  0  0  0  0  0  0  0  0
   12.8900    6.8452  -13.1032 O   0  0  0  0  0  0  0  0  0  0  0  0
   14.2308    2.2739  -14.7010 C   0  0  0  0  0  0  0  0  0  0  0  0
   12.8263    3.7380  -13.4091 C   0  0  0  0  0  0  0  0  0  0  0  0
   11.7185    3.6336   -8.9320 C   0  0  0  0  0  0  0  0  0  0  0  0
   10.7914    4.1674   -5.9646 C   0  0  0  0  0  0  0  0  0  0  0  0
    8.7819    1.8634   -7.6765 N   0  0  0  0  0  0  0  0  0  0  0  0
   10.5908    3.0400   -8.2387 C   0  0  0  0  0  0  0  0  0  0  0  0
   12.4382    4.4146   -8.2326 O   0  0  0  0  0  0  0  0  0  0  0  0
    9.6583    2.1265   -8.6716 C   0  0  0  0  0  0  0  0  0  0  0  0
    8.5652    2.6841   -5.3547 C   0  0  0  0  0  0  0  0  0  0  0  0
   13.3533    5.8840  -12.4537 C   0  0  0  0  0  0  0  0  0  0  0  0
   12.0107    2.6848  -15.3830 C   0  0  0  0  0  0  0  0  0  0  0  0
    9.1023    3.5226   -4.3800 C   0  0  0  0  0  0  0  0  0  0  0  0
   12.6705    4.6158  -12.2081 C   0  0  2  0  0  0  0  0  0  0  0  0
   14.0335    3.1158  -13.6086 C   0  0  0  0  0  0  0  0  0  0  0  0
   13.2262    2.0435  -15.6031 C   0  0  0  0  0  0  0  0  0  0  0  0
   11.8220    3.5157  -14.3026 C   0  0  0  0  0  0  0  0  0  0  0  0
   10.2629    3.3450   -6.9175 C   0  0  0  0  0  0  0  0  0  0  0  0
    9.1426    2.5976   -6.6141 C   0  0  0  0  0  0  0  0  0  0  0  0
   11.9864    3.3576  -10.2876 N   0  0  0  0  0  0  0  0  0  0  0  0
   12.9959    3.9033  -11.0181 N   0  0  0  0  0  4  0  0  0  0  0  0
   14.6842    6.1070  -11.9318 N   0  0  0  0  0  0  0  0  0  0  0  0
  6  1  2  0
  1 14  1  0
 12  2  2  0
 16  3  2  0
  3 17  1  0
 15  4  1  0
  4 16  1  0
  4 18  2  0
  5  8  1  0
  5  9  2  0
 21  5  1  0
 19  6  1  0
 10  7  1  0
 20  7  1  0
  8 10  2  0
  8 19  1  0
 11 14  2  0
 20 11  1  0
 15 12  1  0
 12 23  1  0
 13 17  2  0
 18 13  1  0
 15 22  1  1
 19 20  2  0
 21 22  1  0
M  CHG  1  22   1
M  END
$$$$
