
     RDKit          3D

 23 25  0  0  0  0  0  0  0  0999 V2000
    9.4760    1.4790   -5.5038 C   0  0  0  0  0  0  0  0  0  0  0  0
   13.8052    6.6461  -13.1685 O   0  0  0  0  0  0  0  0  0  0  0  0
   12.7685    1.9395  -13.4849 C   0  0  0  0  0  0  0  0  0  0  0  0
   12.4672    4.0089  -12.2966 C   0  0  0  0  0  0  0  0  0  0  0  0
   11.9359    3.9681   -8.3906 C   0  0  0  0  0  0  0  0  0  0  0  0
   10.2661    2.1073   -6.4673 C   0  0  0  0  0  0  0  0  0  0  0  0
   10.1143    5.5048   -5.6241 N   0  0  0  0  0  0  0  0  0  0  0  0
   11.1441    4.3680   -7.2427 C   0  0  0  0  0  0  0  0  0  0  0  0
   11.8688    2.7355   -8.6959 O   0  0  0  0  0  0  0  0  0  0  0  0
   10.9211    5.6134   -6.7034 C   0  0  0  0  0  0  0  0  0  0  0  0
    9.0336    3.5814   -4.5088 C   0  0  0  0  0  0  0  0  0  0  0  0
   14.0607    5.8134  -12.2732 C   0  0  0  0  0  0  0  0  0  0  0  0
   10.6351    2.9395  -13.3785 C   0  0  0  0  0  0  0  0  0  0  0  0
    8.8560    2.1994   -4.5224 C   0  0  0  0  0  0  0  0  0  0  0  0
   13.0719    5.0985  -11.4694 C   0  0  2  0  0  0  0  0  0  0  0  0
   13.2802    2.9894  -12.7254 C   0  0  0  0  0  0  0  0  0  0  0  0
   11.4417    1.8957  -13.8223 C   0  0  0  0  0  0  0  0  0  0  0  0
   11.1463    3.9741  -12.6292 C   0  0  0  0  0  0  0  0  0  0  0  0
   10.4384    3.4614   -6.4514 C   0  0  0  0  0  0  0  0  0  0  0  0
    9.8199    4.2061   -5.4671 C   0  0  0  0  0  0  0  0  0  0  0  0
   12.7228    4.8907   -9.1084 N   0  0  0  0  0  0  0  0  0  0  0  0
   13.4808    4.5985  -10.1996 N   0  0  0  0  0  4  0  0  0  0  0  0
   15.4734    5.5779  -12.0675 N   0  0  0  0  0  0  0  0  0  0  0  0
  6  1  2  0
  1 14  1  0
 12  2  2  0
 16  3  2  0
  3 17  1  0
 15  4  1  0
  4 16  1  0
  4 18  2  0
  5  8  1  0
  5  9  2  0
 21  5  1  0
 19  6  1  0
 10  7  1  0
 20  7  1  0
  8 10  2  0
  8 19  1  0
 11 14  2  0
 20 11  1  0
 15 12  1  0
 12 23  1  0
 13 17  2  0
 18 13  1  0
 15 22  1  1
 19 20  2  0
 21 22  1  0
M  CHG  1  22   1
M  END
$$$$
