
     RDKit          3D

 23 25  0  0  0  0  0  0  0  0999 V2000
   10.0885    5.0443   -4.6581 C   0  0  0  0  0  0  0  0  0  0  0  0
   14.1382    6.2599  -13.8557 O   0  0  0  0  0  0  0  0  0  0  0  0
   14.4761    1.8373  -13.7389 C   0  0  0  0  0  0  0  0  0  0  0  0
   13.1005    3.6527  -12.9662 C   0  0  0  0  0  0  0  0  0  0  0  0
   11.2252    4.6579   -9.0329 C   0  0  0  0  0  0  0  0  0  0  0  0
   10.5108    5.0675   -5.9880 C   0  0  0  0  0  0  0  0  0  0  0  0
    9.3317    2.0483   -7.3189 N   0  0  0  0  0  0  0  0  0  0  0  0
   10.4898    3.7538   -8.1690 C   0  0  0  0  0  0  0  0  0  0  0  0
   11.3376    5.8500   -8.6046 O   0  0  0  0  0  0  0  0  0  0  0  0
    9.9255    2.5280   -8.4346 C   0  0  0  0  0  0  0  0  0  0  0  0
    9.0894    2.9288   -5.0217 C   0  0  0  0  0  0  0  0  0  0  0  0
   14.0179    5.8598  -12.6785 C   0  0  0  0  0  0  0  0  0  0  0  0
   12.1755    1.8780  -14.2567 C   0  0  0  0  0  0  0  0  0  0  0  0
    9.3799    3.9866   -4.1625 C   0  0  0  0  0  0  0  0  0  0  0  0
   12.9986    4.9308  -12.1961 C   0  0  2  0  0  0  0  0  0  0  0  0
   14.3251    3.0380  -13.0487 C   0  0  0  0  0  0  0  0  0  0  0  0
   13.4078    1.2378  -14.3515 C   0  0  0  0  0  0  0  0  0  0  0  0
   12.0326    3.0641  -13.5743 C   0  0  0  0  0  0  0  0  0  0  0  0
   10.2245    4.0297   -6.8275 C   0  0  0  0  0  0  0  0  0  0  0  0
    9.5092    2.9522   -6.3447 C   0  0  0  0  0  0  0  0  0  0  0  0
   11.7708    4.2333  -10.2608 N   0  0  0  0  0  0  0  0  0  0  0  0
   12.9419    4.6719  -10.7963 N   0  0  0  0  0  4  0  0  0  0  0  0
   15.0055    6.3945  -11.7663 N   0  0  0  0  0  0  0  0  0  0  0  0
  6  1  2  0
  1 14  1  0
 12  2  2  0
 16  3  2  0
  3 17  1  0
 15  4  1  0
  4 16  1  0
  4 18  2  0
  5  8  1  0
  5  9  2  0
 21  5  1  0
 19  6  1  0
 10  7  1  0
 20  7  1  0
  8 10  2  0
  8 19  1  0
 11 14  2  0
 20 11  1  0
 15 12  1  0
 12 23  1  0
 13 17  2  0
 18 13  1  0
 15 22  1  1
 19 20  2  0
 21 22  1  0
M  CHG  1  22   1
M  END
$$$$
