
     RDKit          3D

 23 25  0  0  0  0  0  0  0  0999 V2000
    8.2692    4.7692   -5.1574 C   0  0  0  0  0  0  0  0  0  0  0  0
   10.7952    4.9177  -13.6956 O   0  0  0  0  0  0  0  0  0  0  0  0
   13.3804    8.4190  -14.2239 C   0  0  0  0  0  0  0  0  0  0  0  0
   13.1484    6.4682  -12.8363 C   0  0  0  0  0  0  0  0  0  0  0  0
   11.0294    5.1998   -8.7319 C   0  0  0  0  0  0  0  0  0  0  0  0
    9.0584    5.0494   -6.2737 C   0  0  0  0  0  0  0  0  0  0  0  0
   10.9617    2.1438   -6.7344 N   0  0  0  0  0  0  0  0  0  0  0  0
   10.8462    4.0921   -7.8132 C   0  0  0  0  0  0  0  0  0  0  0  0
   10.1057    6.0738   -8.7224 O   0  0  0  0  0  0  0  0  0  0  0  0
   11.4537    2.8588   -7.7709 C   0  0  0  0  0  0  0  0  0  0  0  0
    9.2630    2.6256   -5.0043 C   0  0  0  0  0  0  0  0  0  0  0  0
   10.9830    5.4478  -12.5803 C   0  0  0  0  0  0  0  0  0  0  0  0
   15.2067    6.9560  -13.9299 C   0  0  0  0  0  0  0  0  0  0  0  0
    8.3597    3.5669   -4.5148 C   0  0  0  0  0  0  0  0  0  0  0  0
   12.2813    5.6431  -11.9393 C   0  0  2  0  0  0  0  0  0  0  0  0
   12.6146    7.6034  -13.3938 C   0  0  0  0  0  0  0  0  0  0  0  0
   14.6853    8.1115  -14.5043 C   0  0  0  0  0  0  0  0  0  0  0  0
   14.4453    6.1538  -13.1113 C   0  0  0  0  0  0  0  0  0  0  0  0
    9.9425    4.1251   -6.7510 C   0  0  0  0  0  0  0  0  0  0  0  0
   10.0477    2.9045   -6.1149 C   0  0  0  0  0  0  0  0  0  0  0  0
   12.1563    5.2890   -9.5732 N   0  0  0  0  0  0  0  0  0  0  0  0
   12.2980    6.1573  -10.6107 N   0  0  0  0  0  4  0  0  0  0  0  0
    9.7725    5.8885  -11.9215 N   0  0  0  0  0  0  0  0  0  0  0  0
  6  1  2  0
  1 14  1  0
 12  2  2  0
 16  3  2  0
  3 17  1  0
 15  4  1  0
  4 16  1  0
  4 18  2  0
  5  8  1  0
  5  9  2  0
 21  5  1  0
 19  6  1  0
 10  7  1  0
 20  7  1  0
  8 10  2  0
  8 19  1  0
 11 14  2  0
 20 11  1  0
 15 12  1  0
 12 23  1  0
 13 17  2  0
 18 13  1  0
 15 22  1  1
 19 20  2  0
 21 22  1  0
M  CHG  1  22   1
M  END
$$$$
