
     RDKit          3D

 23 25  0  0  0  0  0  0  0  0999 V2000
    8.8280    2.1178   -5.9833 C   0  0  0  0  0  0  0  0  0  0  0  0
   14.4706    7.6492   -9.5768 O   0  0  0  0  0  0  0  0  0  0  0  0
   18.0437    3.5953  -10.1348 C   0  0  0  0  0  0  0  0  0  0  0  0
   16.1088    4.9693   -9.7430 C   0  0  0  0  0  0  0  0  0  0  0  0
   11.4826    3.9320   -9.1835 C   0  0  0  0  0  0  0  0  0  0  0  0
    9.6213    2.5406   -7.0506 C   0  0  0  0  0  0  0  0  0  0  0  0
   10.6752    5.7506   -6.1218 N   0  0  0  0  0  0  0  0  0  0  0  0
   11.0391    4.4721   -7.9122 C   0  0  0  0  0  0  0  0  0  0  0  0
   10.5592    3.5020   -9.9447 O   0  0  0  0  0  0  0  0  0  0  0  0
   11.3032    5.6835   -7.3171 C   0  0  0  0  0  0  0  0  0  0  0  0
    9.2247    4.1771   -4.8843 C   0  0  0  0  0  0  0  0  0  0  0  0
   14.6090    6.7300  -10.4112 C   0  0  0  0  0  0  0  0  0  0  0  0
   18.1214    5.3090   -8.5164 C   0  0  0  0  0  0  0  0  0  0  0  0
    8.6213    2.9212   -4.8977 C   0  0  0  0  0  0  0  0  0  0  0  0
   14.6957    5.3050  -10.1002 C   0  0  2  0  0  0  0  0  0  0  0  0
   16.7234    3.9415  -10.4141 C   0  0  0  0  0  0  0  0  0  0  0  0
   18.7634    4.2713   -9.1857 C   0  0  0  0  0  0  0  0  0  0  0  0
   16.8170    5.6460   -8.7959 C   0  0  0  0  0  0  0  0  0  0  0  0
   10.2114    3.7716   -7.0345 C   0  0  0  0  0  0  0  0  0  0  0  0
   10.0142    4.5974   -5.9459 C   0  0  0  0  0  0  0  0  0  0  0  0
   12.8457    3.8903   -9.5383 N   0  0  0  0  0  0  0  0  0  0  0  0
   13.7930    4.7781   -9.1320 N   0  0  0  0  0  4  0  0  0  0  0  0
   14.6775    7.1805  -11.7845 N   0  0  0  0  0  0  0  0  0  0  0  0
  6  1  2  0
  1 14  1  0
 12  2  2  0
 16  3  2  0
  3 17  1  0
 15  4  1  0
  4 16  1  0
  4 18  2  0
  5  8  1  0
  5  9  2  0
 21  5  1  0
 19  6  1  0
 10  7  1  0
 20  7  1  0
  8 10  2  0
  8 19  1  0
 11 14  2  0
 20 11  1  0
 15 12  1  0
 12 23  1  0
 13 17  2  0
 18 13  1  0
 15 22  1  1
 19 20  2  0
 21 22  1  0
M  CHG  1  22   1
M  END
$$$$
