
     RDKit          3D

 23 25  0  0  0  0  0  0  0  0999 V2000
   10.1037    1.4845   -5.7984 C   0  0  0  0  0  0  0  0  0  0  0  0
   15.1829    4.0654  -12.6523 O   0  0  0  0  0  0  0  0  0  0  0  0
   11.2304    2.0545  -11.3987 C   0  0  0  0  0  0  0  0  0  0  0  0
   12.2558    4.2301  -11.3839 C   0  0  0  0  0  0  0  0  0  0  0  0
   12.3397    4.6960   -8.0933 C   0  0  0  0  0  0  0  0  0  0  0  0
   10.8653    2.3528   -6.5815 C   0  0  0  0  0  0  0  0  0  0  0  0
    9.8399    5.5474   -5.5715 N   0  0  0  0  0  0  0  0  0  0  0  0
   11.3207    4.8104   -7.0670 C   0  0  0  0  0  0  0  0  0  0  0  0
   13.1490    3.7255   -7.9516 O   0  0  0  0  0  0  0  0  0  0  0  0
   10.7500    5.9246   -6.4972 C   0  0  0  0  0  0  0  0  0  0  0  0
    9.0645    3.3434   -4.7638 C   0  0  0  0  0  0  0  0  0  0  0  0
   14.6589    4.2099  -11.5276 C   0  0  0  0  0  0  0  0  0  0  0  0
    9.9113    3.9831  -11.7196 C   0  0  0  0  0  0  0  0  0  0  0  0
    9.2031    1.9626   -4.8891 C   0  0  0  0  0  0  0  0  0  0  0  0
   13.4991    5.0476  -11.2311 C   0  0  2  0  0  0  0  0  0  0  0  0
   12.3574    2.8650  -11.2812 C   0  0  0  0  0  0  0  0  0  0  0  0
    9.9921    2.5974  -11.6177 C   0  0  0  0  0  0  0  0  0  0  0  0
   11.0280    4.7785  -11.6035 C   0  0  0  0  0  0  0  0  0  0  0  0
   10.7275    3.7053   -6.4565 C   0  0  0  0  0  0  0  0  0  0  0  0
    9.8226    4.2071   -5.5427 C   0  0  0  0  0  0  0  0  0  0  0  0
   12.4184    5.6052   -9.1670 N   0  0  0  0  0  0  0  0  0  0  0  0
   13.4871    5.7559   -9.9951 N   0  0  0  0  0  4  0  0  0  0  0  0
   15.2985    3.4529  -10.4734 N   0  0  0  0  0  0  0  0  0  0  0  0
  6  1  2  0
  1 14  1  0
 12  2  2  0
 16  3  2  0
  3 17  1  0
 15  4  1  0
  4 16  1  0
  4 18  2  0
  5  8  1  0
  5  9  2  0
 21  5  1  0
 19  6  1  0
 10  7  1  0
 20  7  1  0
  8 10  2  0
  8 19  1  0
 11 14  2  0
 20 11  1  0
 15 12  1  0
 12 23  1  0
 13 17  2  0
 18 13  1  0
 15 22  1  1
 19 20  2  0
 21 22  1  0
M  CHG  1  22   1
M  END
$$$$
