
     RDKit          3D

 23 25  0  0  0  0  0  0  0  0999 V2000
    9.3959    4.9117   -4.7861 C   0  0  0  0  0  0  0  0  0  0  0  0
   14.5684    5.9183  -12.7632 O   0  0  0  0  0  0  0  0  0  0  0  0
   14.0144    0.9594  -13.0311 C   0  0  0  0  0  0  0  0  0  0  0  0
   13.1445    3.2000  -12.9403 C   0  0  0  0  0  0  0  0  0  0  0  0
   10.8750    5.0659   -9.0720 C   0  0  0  0  0  0  0  0  0  0  0  0
    9.8589    5.1182   -6.0862 C   0  0  0  0  0  0  0  0  0  0  0  0
   10.0861    1.8951   -7.4418 N   0  0  0  0  0  0  0  0  0  0  0  0
   10.5115    3.9323   -8.2428 C   0  0  0  0  0  0  0  0  0  0  0  0
   10.9010    6.1896   -8.4775 O   0  0  0  0  0  0  0  0  0  0  0  0
   10.5077    2.5861   -8.5245 C   0  0  0  0  0  0  0  0  0  0  0  0
    9.3600    2.5772   -5.1794 C   0  0  0  0  0  0  0  0  0  0  0  0
   14.0219    5.1900  -11.9080 C   0  0  0  0  0  0  0  0  0  0  0  0
   13.2212    1.9978  -14.9945 C   0  0  0  0  0  0  0  0  0  0  0  0
    9.1429    3.6525   -4.3202 C   0  0  0  0  0  0  0  0  0  0  0  0
   12.8098    4.4003  -12.1130 C   0  0  2  0  0  0  0  0  0  0  0  0
   13.6975    2.1109  -12.3138 C   0  0  0  0  0  0  0  0  0  0  0  0
   13.7814    0.8825  -14.3786 C   0  0  0  0  0  0  0  0  0  0  0  0
   12.9110    3.1327  -14.2810 C   0  0  0  0  0  0  0  0  0  0  0  0
   10.0706    4.0626   -6.9257 C   0  0  0  0  0  0  0  0  0  0  0  0
    9.8202    2.7828   -6.4728 C   0  0  0  0  0  0  0  0  0  0  0  0
   11.1743    4.9194  -10.4412 N   0  0  0  0  0  0  0  0  0  0  0  0
   12.0565    4.0252  -10.9635 N   0  0  0  0  0  4  0  0  0  0  0  0
   14.6984    5.1661  -10.6293 N   0  0  0  0  0  0  0  0  0  0  0  0
  6  1  2  0
  1 14  1  0
 12  2  2  0
 16  3  2  0
  3 17  1  0
 15  4  1  0
  4 16  1  0
  4 18  2  0
  5  8  1  0
  5  9  2  0
 21  5  1  0
 19  6  1  0
 10  7  1  0
 20  7  1  0
  8 10  2  0
  8 19  1  0
 11 14  2  0
 20 11  1  0
 15 12  1  0
 12 23  1  0
 13 17  2  0
 18 13  1  0
 15 22  1  1
 19 20  2  0
 21 22  1  0
M  CHG  1  22   1
M  END
$$$$
