
     RDKit          3D

 23 25  0  0  0  0  0  0  0  0999 V2000
    9.5908    1.6470   -5.3796 C   0  0  0  0  0  0  0  0  0  0  0  0
   15.1464    5.2658  -12.1465 O   0  0  0  0  0  0  0  0  0  0  0  0
   11.9388    5.0069  -15.7169 C   0  0  0  0  0  0  0  0  0  0  0  0
   12.4099    4.6209  -13.3900 C   0  0  0  0  0  0  0  0  0  0  0  0
   11.3132    3.8999   -8.9206 C   0  0  0  0  0  0  0  0  0  0  0  0
   10.1418    2.1968   -6.5378 C   0  0  0  0  0  0  0  0  0  0  0  0
   10.0636    5.6538   -5.9717 N   0  0  0  0  0  0  0  0  0  0  0  0
   10.7670    4.3904   -7.6693 C   0  0  0  0  0  0  0  0  0  0  0  0
   11.1258    2.6631   -9.1491 O   0  0  0  0  0  0  0  0  0  0  0  0
   10.6229    5.6760   -7.2022 C   0  0  0  0  0  0  0  0  0  0  0  0
    9.3009    3.8239   -4.4949 C   0  0  0  0  0  0  0  0  0  0  0  0
   14.0912    4.7914  -11.6755 C   0  0  0  0  0  0  0  0  0  0  0  0
   12.0133    2.8040  -14.8775 C   0  0  0  0  0  0  0  0  0  0  0  0
    9.1677    2.4441   -4.3539 C   0  0  0  0  0  0  0  0  0  0  0  0
   12.7371    5.1944  -12.0480 C   0  0  2  0  0  0  0  0  0  0  0  0
   12.2292    5.4852  -14.4411 C   0  0  0  0  0  0  0  0  0  0  0  0
   11.8276    3.6630  -15.9568 C   0  0  0  0  0  0  0  0  0  0  0  0
   12.2992    3.2823  -13.6195 C   0  0  0  0  0  0  0  0  0  0  0  0
   10.2712    3.5491   -6.6731 C   0  0  0  0  0  0  0  0  0  0  0  0
    9.8494    4.3707   -5.6469 C   0  0  0  0  0  0  0  0  0  0  0  0
   12.0037    4.7449   -9.8120 N   0  0  0  0  0  0  0  0  0  0  0  0
   11.6864    4.9372  -11.1208 N   0  0  0  0  0  4  0  0  0  0  0  0
   14.2960    3.7559  -10.6859 N   0  0  0  0  0  0  0  0  0  0  0  0
  6  1  2  0
  1 14  1  0
 12  2  2  0
 16  3  2  0
  3 17  1  0
 15  4  1  0
  4 16  1  0
  4 18  2  0
  5  8  1  0
  5  9  2  0
 21  5  1  0
 19  6  1  0
 10  7  1  0
 20  7  1  0
  8 10  2  0
  8 19  1  0
 11 14  2  0
 20 11  1  0
 15 12  1  0
 12 23  1  0
 13 17  2  0
 18 13  1  0
 15 22  1  1
 19 20  2  0
 21 22  1  0
M  CHG  1  22   1
M  END
$$$$
