
     RDKit          3D

 23 25  0  0  0  0  0  0  0  0999 V2000
    9.4305    4.5022   -4.9146 C   0  0  0  0  0  0  0  0  0  0  0  0
   14.4916    5.3005  -13.3930 O   0  0  0  0  0  0  0  0  0  0  0  0
   12.8868    0.9439  -14.2437 C   0  0  0  0  0  0  0  0  0  0  0  0
   13.4473    2.8042  -12.8258 C   0  0  0  0  0  0  0  0  0  0  0  0
   11.8751    3.6204   -8.6330 C   0  0  0  0  0  0  0  0  0  0  0  0
   10.1978    4.3897   -6.0748 C   0  0  0  0  0  0  0  0  0  0  0  0
   10.4966    0.9351   -6.5782 N   0  0  0  0  0  0  0  0  0  0  0  0
   11.2459    2.7196   -7.6857 C   0  0  0  0  0  0  0  0  0  0  0  0
   11.9627    4.8320   -8.2570 O   0  0  0  0  0  0  0  0  0  0  0  0
   11.2087    1.3452   -7.6516 C   0  0  0  0  0  0  0  0  0  0  0  0
    9.3154    2.1416   -4.7726 C   0  0  0  0  0  0  0  0  0  0  0  0
   13.4613    5.2079  -12.6928 C   0  0  0  0  0  0  0  0  0  0  0  0
   15.1378    1.3573  -13.6739 C   0  0  0  0  0  0  0  0  0  0  0  0
    8.9839    3.3922   -4.2552 C   0  0  0  0  0  0  0  0  0  0  0  0
   12.9814    3.9905  -12.0430 C   0  0  2  0  0  0  0  0  0  0  0  0
   12.5091    2.0503  -13.4859 C   0  0  0  0  0  0  0  0  0  0  0  0
   14.2029    0.5803  -14.3517 C   0  0  0  0  0  0  0  0  0  0  0  0
   14.7588    2.4484  -12.9264 C   0  0  0  0  0  0  0  0  0  0  0  0
   10.5209    3.1631   -6.5795 C   0  0  0  0  0  0  0  0  0  0  0  0
   10.0783    2.0299   -5.9270 C   0  0  0  0  0  0  0  0  0  0  0  0
   12.3504    3.1722   -9.8816 N   0  0  0  0  0  0  0  0  0  0  0  0
   13.2615    3.8203  -10.6565 N   0  0  0  0  0  4  0  0  0  0  0  0
   12.7290    6.4473  -12.5478 N   0  0  0  0  0  0  0  0  0  0  0  0
  6  1  2  0
  1 14  1  0
 12  2  2  0
 16  3  2  0
  3 17  1  0
 15  4  1  0
  4 16  1  0
  4 18  2  0
  5  8  1  0
  5  9  2  0
 21  5  1  0
 19  6  1  0
 10  7  1  0
 20  7  1  0
  8 10  2  0
  8 19  1  0
 11 14  2  0
 20 11  1  0
 15 12  1  0
 12 23  1  0
 13 17  2  0
 18 13  1  0
 15 22  1  1
 19 20  2  0
 21 22  1  0
M  CHG  1  22   1
M  END
$$$$
