
     RDKit          3D

 25 28  0  0  0  0  0  0  0  0999 V2000
  -12.3127    7.9210  -27.7746 C   0  0  0  0  0  0  0  0  0  0  0  0
  -12.9603    9.1201  -24.2958 C   0  0  0  0  0  0  0  0  0  0  0  0
  -12.1206   11.4931  -24.0177 C   0  0  0  0  0  0  0  0  0  0  0  0
  -12.7573    9.8663  -22.2269 C   0  0  0  0  0  0  0  0  0  0  0  0
  -13.5047   10.1005  -26.4577 C   0  0  0  0  0  0  0  0  0  0  0  0
  -13.4633   10.0179  -27.8380 C   0  0  0  0  0  0  0  0  0  0  0  0
  -12.7289    8.6746  -29.8199 C   0  0  0  0  0  0  0  0  0  0  0  0
  -11.6448    1.0750  -27.3273 C   0  0  0  0  0  0  0  0  0  0  0  0
  -12.2572    2.2942  -27.7582 N   0  0  1  0  0  4  0  0  0  0  0  0
  -11.2700    3.3544  -28.0003 C   0  0  0  0  0  0  0  0  0  0  0  0
  -12.9629    2.1380  -29.0388 C   0  0  0  0  0  0  0  0  0  0  0  0
  -13.8348    3.3352  -29.2087 C   0  0  0  0  0  0  0  0  0  0  0  0
  -13.1191    4.6462  -29.0872 C   0  0  0  0  0  0  0  0  0  0  0  0
  -12.0581    4.6424  -28.0091 C   0  0  2  0  0  0  0  0  0  0  0  0
  -11.1633    5.8153  -28.2502 C   0  0  0  0  0  0  0  0  0  0  0  0
  -11.8184    7.0204  -28.6566 N   0  0  0  0  0  0  0  0  0  0  0  0
  -12.3540    8.0039  -26.3998 C   0  0  0  0  0  0  0  0  0  0  0  0
  -12.9349    9.0660  -25.7489 C   0  0  0  0  0  0  0  0  0  0  0  0
  -12.5900   10.2198  -23.5559 C   0  0  0  0  0  0  0  0  0  0  0  0
  -11.7538   12.5369  -24.4063 N   0  0  0  0  0  0  0  0  0  0  0  0
  -12.4995   10.6852  -21.0931 N   0  0  0  0  0  0  0  0  0  0  0  0
  -13.2090    8.6038  -22.2149 N   0  0  0  0  0  0  0  0  0  0  0  0
  -13.3279    8.1653  -23.4438 N   0  0  0  0  0  0  0  0  0  0  0  0
  -12.8811    8.9533  -28.4931 C   0  0  0  0  0  0  0  0  0  0  0  0
  -12.0725    7.4808  -29.9017 C   0  0  0  0  0  0  0  0  0  0  0  0
 16  1  1  0
  1 17  1  0
  1 24  2  0
 18  2  1  0
  2 19  1  0
  2 23  2  0
 19  3  1  0
  3 20  3  0
 19  4  2  0
  4 21  1  0
  4 22  1  0
  6  5  2  0
  5 18  1  0
 24  6  1  0
 24  7  1  0
  7 25  2  0
  9  8  1  6
 10  9  1  0
  9 11  1  0
 14 10  1  0
 12 11  1  0
 13 12  1  0
 14 13  1  0
 14 15  1  6
 15 16  1  0
 16 25  1  0
 17 18  2  0
 22 23  1  0
M  CHG  1   9   1
M  END
$$$$
