
     RDKit          3D

 25 28  0  0  0  0  0  0  0  0999 V2000
  -12.8333    8.0911  -27.9931 C   0  0  0  0  0  0  0  0  0  0  0  0
  -13.2730    9.1587  -24.4397 C   0  0  0  0  0  0  0  0  0  0  0  0
  -11.9965   11.2534  -23.8099 C   0  0  0  0  0  0  0  0  0  0  0  0
  -13.1977    9.6685  -22.2920 C   0  0  0  0  0  0  0  0  0  0  0  0
  -12.9020   10.4529  -26.4692 C   0  0  0  0  0  0  0  0  0  0  0  0
  -12.7052   10.4754  -27.8382 C   0  0  0  0  0  0  0  0  0  0  0  0
  -12.4894    9.1165  -29.9308 C   0  0  0  0  0  0  0  0  0  0  0  0
  -10.7826    1.3723  -28.7707 C   0  0  0  0  0  0  0  0  0  0  0  0
  -10.6292    2.7930  -28.8435 N   0  0  1  0  0  4  0  0  0  0  0  0
  -11.8584    3.5028  -28.4661 C   0  0  0  0  0  0  0  0  0  0  0  0
   -9.6070    3.2889  -27.9099 C   0  0  0  0  0  0  0  0  0  0  0  0
   -9.2877    4.6886  -28.3113 C   0  0  0  0  0  0  0  0  0  0  0  0
  -10.4791    5.5919  -28.4136 C   0  0  0  0  0  0  0  0  0  0  0  0
  -11.6923    4.9052  -29.0007 C   0  0  2  0  0  0  0  0  0  0  0  0
  -12.8869    5.7448  -28.6804 C   0  0  0  0  0  0  0  0  0  0  0  0
  -12.7532    7.1422  -28.9556 N   0  0  0  0  0  0  0  0  0  0  0  0
  -13.0291    8.0695  -26.6293 C   0  0  0  0  0  0  0  0  0  0  0  0
  -13.0640    9.2196  -25.8777 C   0  0  0  0  0  0  0  0  0  0  0  0
  -12.7820   10.0835  -23.5466 C   0  0  0  0  0  0  0  0  0  0  0  0
  -11.3437   12.1999  -24.0396 N   0  0  0  0  0  0  0  0  0  0  0  0
  -12.9281   10.3134  -21.0534 N   0  0  0  0  0  0  0  0  0  0  0  0
  -13.9032    8.5420  -22.4696 N   0  0  0  0  0  0  0  0  0  0  0  0
  -13.9453    8.2435  -23.7447 N   0  0  0  0  0  0  0  0  0  0  0  0
  -12.6699    9.3227  -28.5943 C   0  0  0  0  0  0  0  0  0  0  0  0
  -12.5436    7.7682  -30.1350 C   0  0  0  0  0  0  0  0  0  0  0  0
 16  1  1  0
  1 17  1  0
  1 24  2  0
 18  2  1  0
  2 19  1  0
  2 23  2  0
 19  3  1  0
  3 20  3  0
 19  4  2  0
  4 21  1  0
  4 22  1  0
  6  5  2  0
  5 18  1  0
 24  6  1  0
 24  7  1  0
  7 25  2  0
  9  8  1  1
 10  9  1  0
  9 11  1  0
 14 10  1  0
 12 11  1  0
 13 12  1  0
 14 13  1  0
 14 15  1  1
 15 16  1  0
 16 25  1  0
 17 18  2  0
 22 23  1  0
M  CHG  1   9   1
M  END
$$$$
