
     RDKit          3D

 25 28  0  0  0  0  0  0  0  0999 V2000
  -12.2541    8.6892  -27.7750 C   0  0  0  0  0  0  0  0  0  0  0  0
  -12.4851   10.0740  -24.3125 C   0  0  0  0  0  0  0  0  0  0  0  0
  -14.6745    9.4042  -23.2301 C   0  0  0  0  0  0  0  0  0  0  0  0
  -12.6343   10.3396  -22.1250 C   0  0  0  0  0  0  0  0  0  0  0  0
  -14.0422   10.1635  -26.1831 C   0  0  0  0  0  0  0  0  0  0  0  0
  -14.3380    9.8306  -27.4927 C   0  0  0  0  0  0  0  0  0  0  0  0
  -13.5533    8.6799  -29.5740 C   0  0  0  0  0  0  0  0  0  0  0  0
  -11.8733    2.9913  -27.3676 C   0  0  0  0  0  0  0  0  0  0  0  0
  -10.8771    3.7939  -28.0083 N   0  0  1  0  0  4  0  0  0  0  0  0
  -11.0373    5.2220  -27.7052 C   0  0  0  0  0  0  0  0  0  0  0  0
   -9.5194    3.4625  -27.5509 C   0  0  0  0  0  0  0  0  0  0  0  0
   -8.5671    4.0882  -28.5121 C   0  0  0  0  0  0  0  0  0  0  0  0
   -8.7747    5.5572  -28.7237 C   0  0  0  0  0  0  0  0  0  0  0  0
  -10.2354    5.9484  -28.7584 C   0  0  2  0  0  0  0  0  0  0  0  0
  -10.3125    7.4285  -28.5633 C   0  0  0  0  0  0  0  0  0  0  0  0
  -11.6055    8.0111  -28.7511 N   0  0  0  0  0  0  0  0  0  0  0  0
  -11.9601    9.0212  -26.4704 C   0  0  0  0  0  0  0  0  0  0  0  0
  -12.8289    9.7415  -25.6860 C   0  0  0  0  0  0  0  0  0  0  0  0
  -13.3334    9.9105  -23.2413 C   0  0  0  0  0  0  0  0  0  0  0  0
  -15.7722    8.9929  -23.2008 N   0  0  0  0  0  0  0  0  0  0  0  0
  -13.1073   10.3579  -20.7839 N   0  0  0  0  0  0  0  0  0  0  0  0
  -11.4259   10.7344  -22.5517 N   0  0  0  0  0  0  0  0  0  0  0  0
  -11.3418   10.5751  -23.8495 N   0  0  0  0  0  0  0  0  0  0  0  0
  -13.4678    9.1080  -28.2815 C   0  0  0  0  0  0  0  0  0  0  0  0
  -12.3978    8.0065  -29.8460 C   0  0  0  0  0  0  0  0  0  0  0  0
 16  1  1  0
  1 17  1  0
  1 24  2  0
 18  2  1  0
  2 19  1  0
  2 23  2  0
 19  3  1  0
  3 20  3  0
 19  4  2  0
  4 21  1  0
  4 22  1  0
  6  5  2  0
  5 18  1  0
 24  6  1  0
 24  7  1  0
  7 25  2  0
  9  8  1  1
 10  9  1  0
  9 11  1  0
 14 10  1  0
 12 11  1  0
 13 12  1  0
 14 13  1  0
 14 15  1  1
 15 16  1  0
 16 25  1  0
 17 18  2  0
 22 23  1  0
M  CHG  1   9   1
M  END
$$$$
