
     RDKit          3D

 25 28  0  0  0  0  0  0  0  0999 V2000
  -12.0649    7.3711  -27.2523 C   0  0  0  0  0  0  0  0  0  0  0  0
  -12.5641    9.4777  -24.2072 C   0  0  0  0  0  0  0  0  0  0  0  0
  -14.4735   11.1281  -24.4171 C   0  0  0  0  0  0  0  0  0  0  0  0
  -13.2023   10.4996  -22.3561 C   0  0  0  0  0  0  0  0  0  0  0  0
  -12.7847   10.0033  -26.5751 C   0  0  0  0  0  0  0  0  0  0  0  0
  -12.7074    9.5856  -27.8915 C   0  0  0  0  0  0  0  0  0  0  0  0
  -12.2167    7.6828  -29.4442 C   0  0  0  0  0  0  0  0  0  0  0  0
  -11.9586    0.2019  -26.9447 C   0  0  0  0  0  0  0  0  0  0  0  0
  -11.7039    1.3621  -27.7422 N   0  0  1  0  0  4  0  0  0  0  0  0
  -11.4494    2.5533  -26.9215 C   0  0  0  0  0  0  0  0  0  0  0  0
  -10.4983    1.2118  -28.5707 C   0  0  0  0  0  0  0  0  0  0  0  0
  -10.5281    2.2985  -29.5908 C   0  0  0  0  0  0  0  0  0  0  0  0
  -10.6848    3.6770  -29.0243 C   0  0  0  0  0  0  0  0  0  0  0  0
  -11.6375    3.7286  -27.8506 C   0  0  2  0  0  0  0  0  0  0  0  0
  -11.4038    5.0196  -27.1341 C   0  0  0  0  0  0  0  0  0  0  0  0
  -11.7521    6.2022  -27.8598 N   0  0  0  0  0  0  0  0  0  0  0  0
  -12.1419    7.7879  -25.9413 C   0  0  0  0  0  0  0  0  0  0  0  0
  -12.4930    9.0728  -25.6023 C   0  0  0  0  0  0  0  0  0  0  0  0
  -13.4606   10.3977  -23.7133 C   0  0  0  0  0  0  0  0  0  0  0  0
  -15.2944   11.7188  -25.0106 N   0  0  0  0  0  0  0  0  0  0  0  0
  -13.8810   11.3326  -21.4244 N   0  0  0  0  0  0  0  0  0  0  0  0
  -12.1895    9.6622  -22.0896 N   0  0  0  0  0  0  0  0  0  0  0  0
  -11.8142    9.0583  -23.1902 N   0  0  0  0  0  0  0  0  0  0  0  0
  -12.3553    8.2970  -28.2339 C   0  0  0  0  0  0  0  0  0  0  0  0
  -11.8449    6.3937  -29.1945 C   0  0  0  0  0  0  0  0  0  0  0  0
 16  1  1  0
  1 17  1  0
  1 24  2  0
 18  2  1  0
  2 19  1  0
  2 23  2  0
 19  3  1  0
  3 20  3  0
 19  4  2  0
  4 21  1  0
  4 22  1  0
  6  5  2  0
  5 18  1  0
 24  6  1  0
 24  7  1  0
  7 25  2  0
  9  8  1  1
 10  9  1  0
  9 11  1  0
 14 10  1  0
 12 11  1  0
 13 12  1  0
 14 13  1  0
 14 15  1  1
 15 16  1  0
 16 25  1  0
 17 18  2  0
 22 23  1  0
M  CHG  1   9   1
M  END
$$$$
