
     RDKit          3D

 25 28  0  0  0  0  0  0  0  0999 V2000
  -12.0873    7.1878  -27.3510 C   0  0  0  0  0  0  0  0  0  0  0  0
  -13.1306    9.0033  -24.2566 C   0  0  0  0  0  0  0  0  0  0  0  0
  -12.4526   11.4424  -24.3240 C   0  0  0  0  0  0  0  0  0  0  0  0
  -13.2413   10.1184  -22.3533 C   0  0  0  0  0  0  0  0  0  0  0  0
  -13.3121    9.6074  -26.6090 C   0  0  0  0  0  0  0  0  0  0  0  0
  -13.0872    9.2818  -27.9345 C   0  0  0  0  0  0  0  0  0  0  0  0
  -12.1721    7.5847  -29.5327 C   0  0  0  0  0  0  0  0  0  0  0  0
  -10.7075    0.1474  -27.3496 C   0  0  0  0  0  0  0  0  0  0  0  0
  -10.6121    1.3767  -28.0754 N   0  0  1  0  0  4  0  0  0  0  0  0
  -10.6315    2.5468  -27.1879 C   0  0  0  0  0  0  0  0  0  0  0  0
   -9.3461    1.4869  -28.8153 C   0  0  0  0  0  0  0  0  0  0  0  0
   -9.5017    2.6062  -29.7876 C   0  0  0  0  0  0  0  0  0  0  0  0
   -9.9412    3.9021  -29.1768 C   0  0  0  0  0  0  0  0  0  0  0  0
  -10.9646    3.7202  -28.0779 C   0  0  2  0  0  0  0  0  0  0  0  0
  -11.0154    4.9905  -27.2916 C   0  0  0  0  0  0  0  0  0  0  0  0
  -11.5331    6.1286  -27.9867 N   0  0  0  0  0  0  0  0  0  0  0  0
  -12.3115    7.5128  -26.0309 C   0  0  0  0  0  0  0  0  0  0  0  0
  -12.9097    8.6935  -25.6603 C   0  0  0  0  0  0  0  0  0  0  0  0
  -12.9163   10.2410  -23.6944 C   0  0  0  0  0  0  0  0  0  0  0  0
  -12.0546   12.4169  -24.8407 N   0  0  0  0  0  0  0  0  0  0  0  0
  -13.1769   11.1424  -21.3685 N   0  0  0  0  0  0  0  0  0  0  0  0
  -13.6282    8.8488  -22.1621 N   0  0  0  0  0  0  0  0  0  0  0  0
  -13.5611    8.1913  -23.2933 N   0  0  0  0  0  0  0  0  0  0  0  0
  -12.4872    8.0979  -28.3085 C   0  0  0  0  0  0  0  0  0  0  0  0
  -11.5854    6.3718  -29.3152 C   0  0  0  0  0  0  0  0  0  0  0  0
 16  1  1  0
  1 17  1  0
  1 24  2  0
 18  2  1  0
  2 19  1  0
  2 23  2  0
 19  3  1  0
  3 20  3  0
 19  4  2  0
  4 21  1  0
  4 22  1  0
  6  5  2  0
  5 18  1  0
 24  6  1  0
 24  7  1  0
  7 25  2  0
  9  8  1  1
 10  9  1  0
  9 11  1  0
 14 10  1  0
 12 11  1  0
 13 12  1  0
 14 13  1  0
 14 15  1  1
 15 16  1  0
 16 25  1  0
 17 18  2  0
 22 23  1  0
M  CHG  1   9   1
M  END
$$$$
