
     RDKit          3D

 25 28  0  0  0  0  0  0  0  0999 V2000
  -12.6216    8.4968  -27.4333 C   0  0  0  0  0  0  0  0  0  0  0  0
  -13.5839    9.4427  -23.9492 C   0  0  0  0  0  0  0  0  0  0  0  0
  -11.4179   10.7125  -23.6184 C   0  0  0  0  0  0  0  0  0  0  0  0
  -12.9978    9.8818  -21.8655 C   0  0  0  0  0  0  0  0  0  0  0  0
  -14.4619   10.1568  -26.1057 C   0  0  0  0  0  0  0  0  0  0  0  0
  -14.4164   10.0782  -27.4860 C   0  0  0  0  0  0  0  0  0  0  0  0
  -13.3004    9.0424  -29.4743 C   0  0  0  0  0  0  0  0  0  0  0  0
   -9.5841    2.2741  -27.1535 C   0  0  0  0  0  0  0  0  0  0  0  0
  -10.4419    3.2030  -27.8232 N   0  0  1  0  0  4  0  0  0  0  0  0
   -9.9807    4.5895  -27.6740 C   0  0  0  0  0  0  0  0  0  0  0  0
  -10.4811    2.9740  -29.2752 C   0  0  0  0  0  0  0  0  0  0  0  0
  -11.6417    3.7419  -29.8098 C   0  0  0  0  0  0  0  0  0  0  0  0
  -11.6463    5.1949  -29.4428 C   0  0  0  0  0  0  0  0  0  0  0  0
  -11.1703    5.4487  -28.0296 C   0  0  2  0  0  0  0  0  0  0  0  0
  -10.8334    6.9009  -27.9193 C   0  0  0  0  0  0  0  0  0  0  0  0
  -11.8647    7.8078  -28.3197 N   0  0  0  0  0  0  0  0  0  0  0  0
  -12.6674    8.5756  -26.0584 C   0  0  0  0  0  0  0  0  0  0  0  0
  -13.5641    9.3846  -25.4023 C   0  0  0  0  0  0  0  0  0  0  0  0
  -12.6094   10.0434  -23.1854 C   0  0  0  0  0  0  0  0  0  0  0  0
  -10.4325   11.2429  -23.9685 N   0  0  0  0  0  0  0  0  0  0  0  0
  -12.3001   10.3408  -20.7144 N   0  0  0  0  0  0  0  0  0  0  0  0
  -14.1579    9.2094  -21.8816 N   0  0  0  0  0  0  0  0  0  0  0  0
  -14.5017    8.9511  -23.1193 N   0  0  0  0  0  0  0  0  0  0  0  0
  -13.5176    9.2673  -28.1463 C   0  0  0  0  0  0  0  0  0  0  0  0
  -12.2792    8.1413  -29.5622 C   0  0  0  0  0  0  0  0  0  0  0  0
 16  1  1  0
  1 17  1  0
  1 24  2  0
 18  2  1  0
  2 19  1  0
  2 23  2  0
 19  3  1  0
  3 20  3  0
 19  4  2  0
  4 21  1  0
  4 22  1  0
  6  5  2  0
  5 18  1  0
 24  6  1  0
 24  7  1  0
  7 25  2  0
  9  8  1  1
 10  9  1  0
  9 11  1  0
 14 10  1  0
 12 11  1  0
 13 12  1  0
 14 13  1  0
 14 15  1  6
 15 16  1  0
 16 25  1  0
 17 18  2  0
 22 23  1  0
M  CHG  1   9   1
M  END
$$$$
