
     RDKit          3D

 25 28  0  0  0  0  0  0  0  0999 V2000
  -22.2125   20.4088  -10.3075 C   0  0  0  0  0  0  0  0  0  0  0  0
  -20.2053   17.5588  -11.6521 C   0  0  0  0  0  0  0  0  0  0  0  0
  -20.2360   17.6940  -14.1808 C   0  0  0  0  0  0  0  0  0  0  0  0
  -18.6793   16.3798  -12.7288 C   0  0  0  0  0  0  0  0  0  0  0  0
  -22.5428   18.1649  -11.9690 C   0  0  0  0  0  0  0  0  0  0  0  0
  -23.5875   19.0301  -11.6980 C   0  0  0  0  0  0  0  0  0  0  0  0
  -24.3139   21.0989  -10.4878 C   0  0  0  0  0  0  0  0  0  0  0  0
  -21.0364   26.3305   -6.4448 C   0  0  0  0  0  0  0  0  0  0  0  0
  -21.2658   25.6480   -7.6812 N   0  0  1  0  0  4  0  0  0  0  0  0
  -21.3745   24.1946   -7.4996 C   0  0  0  0  0  0  0  0  0  0  0  0
  -22.5362   26.0450   -8.3064 C   0  0  0  0  0  0  0  0  0  0  0  0
  -22.5039   25.5572   -9.7147 C   0  0  0  0  0  0  0  0  0  0  0  0
  -22.2090   24.0950   -9.8583 C   0  0  0  0  0  0  0  0  0  0  0  0
  -21.1718   23.6021   -8.8736 C   0  0  2  0  0  0  0  0  0  0  0  0
  -21.2605   22.1105   -8.8313 C   0  0  0  0  0  0  0  0  0  0  0  0
  -22.3444   21.5337   -9.5654 N   0  0  0  0  0  0  0  0  0  0  0  0
  -21.1723   19.5465  -10.5777 C   0  0  0  0  0  0  0  0  0  0  0  0
  -21.3259   18.4476  -11.3888 C   0  0  0  0  0  0  0  0  0  0  0  0
  -19.7460   17.2448  -12.9108 C   0  0  0  0  0  0  0  0  0  0  0  0
  -20.6557   18.0560  -15.2142 N   0  0  0  0  0  0  0  0  0  0  0  0
  -17.8855   15.7866  -13.7489 N   0  0  0  0  0  0  0  0  0  0  0  0
  -18.5389   16.2092  -11.4062 N   0  0  0  0  0  0  0  0  0  0  0  0
  -19.4459   16.9102  -10.7716 N   0  0  0  0  0  0  0  0  0  0  0  0
  -23.4356   20.1332  -10.8845 C   0  0  0  0  0  0  0  0  0  0  0  0
  -23.6247   21.9526   -9.6762 C   0  0  0  0  0  0  0  0  0  0  0  0
 16  1  1  0
  1 17  1  0
  1 24  2  0
 18  2  1  0
  2 19  1  0
  2 23  2  0
 19  3  1  0
  3 20  3  0
 19  4  2  0
  4 21  1  0
  4 22  1  0
  6  5  2  0
  5 18  1  0
 24  6  1  0
 24  7  1  0
  7 25  2  0
  9  8  1  1
 10  9  1  0
  9 11  1  0
 14 10  1  0
 12 11  1  0
 13 12  1  0
 14 13  1  0
 14 15  1  1
 15 16  1  0
 16 25  1  0
 17 18  2  0
 22 23  1  0
M  CHG  1   9   1
M  END
$$$$
