
     RDKit          3D

 25 28  0  0  0  0  0  0  0  0999 V2000
  -12.6309    7.2155  -27.5350 C   0  0  0  0  0  0  0  0  0  0  0  0
  -13.5143    8.8935  -24.3157 C   0  0  0  0  0  0  0  0  0  0  0  0
  -12.5568   11.2341  -24.1809 C   0  0  0  0  0  0  0  0  0  0  0  0
  -13.5317    9.8613  -22.3305 C   0  0  0  0  0  0  0  0  0  0  0  0
  -13.5770    9.6977  -26.6137 C   0  0  0  0  0  0  0  0  0  0  0  0
  -13.3658    9.4528  -27.9587 C   0  0  0  0  0  0  0  0  0  0  0  0
  -12.6253    7.7897  -29.6785 C   0  0  0  0  0  0  0  0  0  0  0  0
  -10.8038    0.2412  -28.4926 C   0  0  0  0  0  0  0  0  0  0  0  0
  -10.6391    1.6084  -28.8809 N   0  0  1  0  0  4  0  0  0  0  0  0
  -11.1470    2.5381  -27.8635 C   0  0  0  0  0  0  0  0  0  0  0  0
   -9.2239    1.9707  -29.0483 C   0  0  0  0  0  0  0  0  0  0  0  0
   -9.1865    3.2712  -29.7761 C   0  0  0  0  0  0  0  0  0  0  0  0
  -10.0018    4.3589  -29.1451 C   0  0  0  0  0  0  0  0  0  0  0  0
  -11.3107    3.8603  -28.5740 C   0  0  2  0  0  0  0  0  0  0  0  0
  -11.8262    4.9086  -27.6412 C   0  0  0  0  0  0  0  0  0  0  0  0
  -12.1927    6.1511  -28.2480 N   0  0  0  0  0  0  0  0  0  0  0  0
  -12.8413    7.4602  -26.1954 C   0  0  0  0  0  0  0  0  0  0  0  0
  -13.3036    8.6707  -25.7374 C   0  0  0  0  0  0  0  0  0  0  0  0
  -13.1688   10.0497  -23.6541 C   0  0  0  0  0  0  0  0  0  0  0  0
  -12.0664   12.2142  -24.5980 N   0  0  0  0  0  0  0  0  0  0  0  0
  -13.3681   10.7905  -21.2663 N   0  0  0  0  0  0  0  0  0  0  0  0
  -14.0669    8.6348  -22.2454 N   0  0  0  0  0  0  0  0  0  0  0  0
  -14.0545    8.0645  -23.4249 N   0  0  0  0  0  0  0  0  0  0  0  0
  -12.9020    8.2390  -28.4204 C   0  0  0  0  0  0  0  0  0  0  0  0
  -12.1897    6.5024  -29.5531 C   0  0  0  0  0  0  0  0  0  0  0  0
 16  1  1  0
  1 17  1  0
  1 24  2  0
 18  2  1  0
  2 19  1  0
  2 23  2  0
 19  3  1  0
  3 20  3  0
 19  4  2  0
  4 21  1  0
  4 22  1  0
  6  5  2  0
  5 18  1  0
 24  6  1  0
 24  7  1  0
  7 25  2  0
  9  8  1  1
 10  9  1  0
  9 11  1  0
 14 10  1  0
 12 11  1  0
 13 12  1  0
 14 13  1  0
 14 15  1  1
 15 16  1  0
 16 25  1  0
 17 18  2  0
 22 23  1  0
M  CHG  1   9   1
M  END
$$$$
