
     RDKit          3D

 25 28  0  0  0  0  0  0  0  0999 V2000
  -22.8439   19.9135  -11.5674 C   0  0  0  0  0  0  0  0  0  0  0  0
  -19.6952   18.1292  -12.4957 C   0  0  0  0  0  0  0  0  0  0  0  0
  -19.9022   15.6803  -13.1066 C   0  0  0  0  0  0  0  0  0  0  0  0
  -17.8408   17.0978  -13.1084 C   0  0  0  0  0  0  0  0  0  0  0  0
  -21.9672   17.3124  -12.1764 C   0  0  0  0  0  0  0  0  0  0  0  0
  -23.2883   17.5816  -11.8667 C   0  0  0  0  0  0  0  0  0  0  0  0
  -24.9607   19.3358  -11.2363 C   0  0  0  0  0  0  0  0  0  0  0  0
  -22.5601   26.4508   -8.6282 C   0  0  0  0  0  0  0  0  0  0  0  0
  -22.7942   25.0394   -8.6169 N   0  0  1  0  0  4  0  0  0  0  0  0
  -22.4760   24.4148   -9.9075 C   0  0  0  0  0  0  0  0  0  0  0  0
  -21.9411   24.3436   -7.6420 C   0  0  0  0  0  0  0  0  0  0  0  0
  -22.5025   22.9739   -7.4659 C   0  0  0  0  0  0  0  0  0  0  0  0
  -22.6831   22.2086   -8.7417 C   0  0  0  0  0  0  0  0  0  0  0  0
  -23.1671   23.0725   -9.8852 C   0  0  2  0  0  0  0  0  0  0  0  0
  -22.9207   22.3228  -11.1548 C   0  0  0  0  0  0  0  0  0  0  0  0
  -23.5325   21.0325  -11.2404 N   0  0  0  0  0  0  0  0  0  0  0  0
  -21.5281   19.6447  -11.8758 C   0  0  0  0  0  0  0  0  0  0  0  0
  -21.0920   18.3760  -12.1746 C   0  0  0  0  0  0  0  0  0  0  0  0
  -19.1992   16.9137  -12.9085 C   0  0  0  0  0  0  0  0  0  0  0  0
  -20.4875   14.6798  -13.2841 N   0  0  0  0  0  0  0  0  0  0  0  0
  -16.9068   16.1158  -13.5396 N   0  0  0  0  0  0  0  0  0  0  0  0
  -17.5756   18.3796  -12.8174 N   0  0  0  0  0  0  0  0  0  0  0  0
  -18.6781   18.9875  -12.4545 N   0  0  0  0  0  0  0  0  0  0  0  0
  -23.7280   18.8536  -11.5666 C   0  0  0  0  0  0  0  0  0  0  0  0
  -24.8214   20.6790  -11.0390 C   0  0  0  0  0  0  0  0  0  0  0  0
 16  1  1  0
  1 17  1  0
  1 24  2  0
 18  2  1  0
  2 19  1  0
  2 23  2  0
 19  3  1  0
  3 20  3  0
 19  4  2  0
  4 21  1  0
  4 22  1  0
  6  5  2  0
  5 18  1  0
 24  6  1  0
 24  7  1  0
  7 25  2  0
  9  8  1  6
 10  9  1  0
  9 11  1  0
 14 10  1  0
 12 11  1  0
 13 12  1  0
 14 13  1  0
 14 15  1  6
 15 16  1  0
 16 25  1  0
 17 18  2  0
 22 23  1  0
M  CHG  1   9   1
M  END
$$$$
