
     RDKit          3D

 25 28  0  0  0  0  0  0  0  0999 V2000
  -12.8118    7.9030  -27.8479 C   0  0  0  0  0  0  0  0  0  0  0  0
  -13.1575    9.3498  -24.4206 C   0  0  0  0  0  0  0  0  0  0  0  0
  -11.8598   11.4925  -24.0483 C   0  0  0  0  0  0  0  0  0  0  0  0
  -13.0332   10.0880  -22.3427 C   0  0  0  0  0  0  0  0  0  0  0  0
  -12.8146   10.4145  -26.5840 C   0  0  0  0  0  0  0  0  0  0  0  0
  -12.6482   10.2878  -27.9514 C   0  0  0  0  0  0  0  0  0  0  0  0
  -12.4975    8.7106  -29.8908 C   0  0  0  0  0  0  0  0  0  0  0  0
  -11.5113    0.9044  -28.9795 C   0  0  0  0  0  0  0  0  0  0  0  0
  -11.1621    2.2919  -28.9823 N   0  0  1  0  0  4  0  0  0  0  0  0
  -12.2059    3.1269  -28.3737 C   0  0  0  0  0  0  0  0  0  0  0  0
   -9.9543    2.5613  -28.1879 C   0  0  0  0  0  0  0  0  0  0  0  0
   -9.4932    3.9340  -28.5417 C   0  0  0  0  0  0  0  0  0  0  0  0
  -10.5405    4.9964  -28.3991 C   0  0  0  0  0  0  0  0  0  0  0  0
  -11.9134    4.5346  -28.8349 C   0  0  2  0  0  0  0  0  0  0  0  0
  -12.9125    5.4979  -28.2794 C   0  0  0  0  0  0  0  0  0  0  0  0
  -12.7662    6.8558  -28.7051 N   0  0  0  0  0  0  0  0  0  0  0  0
  -12.9774    8.0298  -26.4859 C   0  0  0  0  0  0  0  0  0  0  0  0
  -12.9799    9.2539  -25.8609 C   0  0  0  0  0  0  0  0  0  0  0  0
  -12.6436   10.3626  -23.6434 C   0  0  0  0  0  0  0  0  0  0  0  0
  -11.2085   12.4047  -24.3928 N   0  0  0  0  0  0  0  0  0  0  0  0
  -12.7340   10.8611  -21.1871 N   0  0  0  0  0  0  0  0  0  0  0  0
  -13.7466    8.9532  -22.3824 N   0  0  0  0  0  0  0  0  0  0  0  0
  -13.8177    8.5190  -23.6165 N   0  0  0  0  0  0  0  0  0  0  0  0
  -12.6453    9.0608  -28.5806 C   0  0  0  0  0  0  0  0  0  0  0  0
  -12.5745    7.3492  -29.9487 C   0  0  0  0  0  0  0  0  0  0  0  0
 16  1  1  0
  1 17  1  0
  1 24  2  0
 18  2  1  0
  2 19  1  0
  2 23  2  0
 19  3  1  0
  3 20  3  0
 19  4  2  0
  4 21  1  0
  4 22  1  0
  6  5  2  0
  5 18  1  0
 24  6  1  0
 24  7  1  0
  7 25  2  0
  9  8  1  1
 10  9  1  0
  9 11  1  0
 14 10  1  0
 12 11  1  0
 13 12  1  0
 14 13  1  0
 14 15  1  1
 15 16  1  0
 16 25  1  0
 17 18  2  0
 22 23  1  0
M  CHG  1   9   1
M  END
$$$$
