
     RDKit          3D

 25 28  0  0  0  0  0  0  0  0999 V2000
  -12.8492    8.2138  -27.8699 C   0  0  0  0  0  0  0  0  0  0  0  0
  -13.3774    9.4662  -24.3897 C   0  0  0  0  0  0  0  0  0  0  0  0
  -12.1162   11.6016  -23.8770 C   0  0  0  0  0  0  0  0  0  0  0  0
  -13.2994   10.0902  -22.2725 C   0  0  0  0  0  0  0  0  0  0  0  0
  -13.1143   10.6543  -26.4994 C   0  0  0  0  0  0  0  0  0  0  0  0
  -12.9194   10.6054  -27.8680 C   0  0  0  0  0  0  0  0  0  0  0  0
  -12.5907    9.1381  -29.8707 C   0  0  0  0  0  0  0  0  0  0  0  0
  -10.3449    1.5935  -28.4932 C   0  0  0  0  0  0  0  0  0  0  0  0
  -10.2740    3.0218  -28.5382 N   0  0  1  0  0  4  0  0  0  0  0  0
  -11.5552    3.6511  -28.1921 C   0  0  0  0  0  0  0  0  0  0  0  0
   -9.3148    3.5604  -27.5624 C   0  0  0  0  0  0  0  0  0  0  0  0
   -9.0662    4.9835  -27.9304 C   0  0  0  0  0  0  0  0  0  0  0  0
  -10.3053    5.8166  -28.0592 C   0  0  0  0  0  0  0  0  0  0  0  0
  -11.4552    5.0701  -28.6984 C   0  0  2  0  0  0  0  0  0  0  0  0
  -12.7077    5.8319  -28.4061 C   0  0  0  0  0  0  0  0  0  0  0  0
  -12.6903    7.2151  -28.7704 N   0  0  0  0  0  0  0  0  0  0  0  0
  -13.0431    8.2632  -26.5066 C   0  0  0  0  0  0  0  0  0  0  0  0
  -13.1736    9.4521  -25.8297 C   0  0  0  0  0  0  0  0  0  0  0  0
  -12.8912   10.4412  -23.5489 C   0  0  0  0  0  0  0  0  0  0  0  0
  -11.4656   12.5391  -24.1469 N   0  0  0  0  0  0  0  0  0  0  0  0
  -13.0311   10.8023  -21.0710 N   0  0  0  0  0  0  0  0  0  0  0  0
  -13.9962    8.9503  -22.3873 N   0  0  0  0  0  0  0  0  0  0  0  0
  -14.0399    8.5839  -23.6445 N   0  0  0  0  0  0  0  0  0  0  0  0
  -12.7883    9.4136  -28.5492 C   0  0  0  0  0  0  0  0  0  0  0  0
  -12.5328    7.7797  -29.9883 C   0  0  0  0  0  0  0  0  0  0  0  0
 16  1  1  0
  1 17  1  0
  1 24  2  0
 18  2  1  0
  2 19  1  0
  2 23  2  0
 19  3  1  0
  3 20  3  0
 19  4  2  0
  4 21  1  0
  4 22  1  0
  6  5  2  0
  5 18  1  0
 24  6  1  0
 24  7  1  0
  7 25  2  0
  9  8  1  1
 10  9  1  0
  9 11  1  0
 14 10  1  0
 12 11  1  0
 13 12  1  0
 14 13  1  0
 14 15  1  1
 15 16  1  0
 16 25  1  0
 17 18  2  0
 22 23  1  0
M  CHG  1   9   1
M  END
$$$$
