
     RDKit          3D

 25 28  0  0  0  0  0  0  0  0999 V2000
  -12.2339    7.2738  -27.7777 C   0  0  0  0  0  0  0  0  0  0  0  0
  -12.9894    8.8410  -24.4712 C   0  0  0  0  0  0  0  0  0  0  0  0
  -12.5487   11.3333  -24.5581 C   0  0  0  0  0  0  0  0  0  0  0  0
  -12.8685    9.8967  -22.5350 C   0  0  0  0  0  0  0  0  0  0  0  0
  -13.7281    9.4085  -26.7215 C   0  0  0  0  0  0  0  0  0  0  0  0
  -13.7035    9.1379  -28.0779 C   0  0  0  0  0  0  0  0  0  0  0  0
  -12.8077    7.6559  -29.8870 C   0  0  0  0  0  0  0  0  0  0  0  0
  -13.3772    1.2529  -28.4676 C   0  0  0  0  0  0  0  0  0  0  0  0
  -12.1253    1.9191  -28.6576 N   0  0  1  0  0  4  0  0  0  0  0  0
  -12.0830    3.2219  -27.9808 C   0  0  0  0  0  0  0  0  0  0  0  0
  -11.0018    1.1618  -28.0861 C   0  0  0  0  0  0  0  0  0  0  0  0
   -9.7488    1.7524  -28.6369 C   0  0  0  0  0  0  0  0  0  0  0  0
   -9.6216    3.2325  -28.4399 C   0  0  0  0  0  0  0  0  0  0  0  0
  -10.9326    3.9665  -28.6149 C   0  0  2  0  0  0  0  0  0  0  0  0
  -10.7756    5.3243  -28.0096 C   0  0  0  0  0  0  0  0  0  0  0  0
  -11.6219    6.3439  -28.5486 N   0  0  0  0  0  0  0  0  0  0  0  0
  -12.2587    7.5439  -26.4267 C   0  0  0  0  0  0  0  0  0  0  0  0
  -12.9866    8.5854  -25.9029 C   0  0  0  0  0  0  0  0  0  0  0  0
  -12.7906   10.0799  -23.9059 C   0  0  0  0  0  0  0  0  0  0  0  0
  -12.3554   12.3499  -25.1095 N   0  0  0  0  0  0  0  0  0  0  0  0
  -12.7257   10.8993  -21.5365 N   0  0  0  0  0  0  0  0  0  0  0  0
  -13.1044    8.5927  -22.3302 N   0  0  0  0  0  0  0  0  0  0  0  0
  -13.1754    7.9705  -23.4811 N   0  0  0  0  0  0  0  0  0  0  0  0
  -12.9739    8.0935  -28.6055 C   0  0  0  0  0  0  0  0  0  0  0  0
  -11.9722    6.5781  -29.8328 C   0  0  0  0  0  0  0  0  0  0  0  0
 16  1  1  0
  1 17  1  0
  1 24  2  0
 18  2  1  0
  2 19  1  0
  2 23  2  0
 19  3  1  0
  3 20  3  0
 19  4  2  0
  4 21  1  0
  4 22  1  0
  6  5  2  0
  5 18  1  0
 24  6  1  0
 24  7  1  0
  7 25  2  0
  9  8  1  1
 10  9  1  0
  9 11  1  0
 14 10  1  0
 12 11  1  0
 13 12  1  0
 14 13  1  0
 14 15  1  1
 15 16  1  0
 16 25  1  0
 17 18  2  0
 22 23  1  0
M  CHG  1   9   1
M  END
$$$$
