
     RDKit          3D

 25 28  0  0  0  0  0  0  0  0999 V2000
  -13.1047    7.7322  -28.0132 C   0  0  0  0  0  0  0  0  0  0  0  0
  -13.4114    9.2320  -24.6050 C   0  0  0  0  0  0  0  0  0  0  0  0
  -12.1440   11.4015  -24.2879 C   0  0  0  0  0  0  0  0  0  0  0  0
  -13.2707   10.0083  -22.5420 C   0  0  0  0  0  0  0  0  0  0  0  0
  -13.1004   10.2634  -26.7893 C   0  0  0  0  0  0  0  0  0  0  0  0
  -12.9512   10.1157  -28.1565 C   0  0  0  0  0  0  0  0  0  0  0  0
  -12.8197    8.5083  -30.0725 C   0  0  0  0  0  0  0  0  0  0  0  0
  -11.6814    0.7457  -28.9676 C   0  0  0  0  0  0  0  0  0  0  0  0
  -11.3570    2.1393  -28.9661 N   0  0  1  0  0  4  0  0  0  0  0  0
  -12.4495    2.9616  -28.4299 C   0  0  0  0  0  0  0  0  0  0  0  0
  -10.2033    2.4391  -28.1051 C   0  0  0  0  0  0  0  0  0  0  0  0
   -9.7462    3.8162  -28.4471 C   0  0  0  0  0  0  0  0  0  0  0  0
  -10.8186    4.8608  -28.3790 C   0  0  0  0  0  0  0  0  0  0  0  0
  -12.1550    4.3694  -28.8895 C   0  0  2  0  0  0  0  0  0  0  0  0
  -13.2020    5.3202  -28.4052 C   0  0  0  0  0  0  0  0  0  0  0  0
  -13.0662    6.6717  -28.8542 N   0  0  0  0  0  0  0  0  0  0  0  0
  -13.2531    7.8800  -26.6513 C   0  0  0  0  0  0  0  0  0  0  0  0
  -13.2521    9.1138  -26.0458 C   0  0  0  0  0  0  0  0  0  0  0  0
  -12.9036   10.2664  -23.8526 C   0  0  0  0  0  0  0  0  0  0  0  0
  -11.5382   12.3355  -24.6562 N   0  0  0  0  0  0  0  0  0  0  0  0
  -12.9684   10.8062  -21.4043 N   0  0  0  0  0  0  0  0  0  0  0  0
  -13.9659    8.8616  -22.5522 N   0  0  0  0  0  0  0  0  0  0  0  0
  -14.0469    8.4049  -23.7775 N   0  0  0  0  0  0  0  0  0  0  0  0
  -12.9519    8.8788  -28.7662 C   0  0  0  0  0  0  0  0  0  0  0  0
  -12.8924    7.1460  -30.1078 C   0  0  0  0  0  0  0  0  0  0  0  0
 16  1  1  0
  1 17  1  0
  1 24  2  0
 18  2  1  0
  2 19  1  0
  2 23  2  0
 19  3  1  0
  3 20  3  0
 19  4  2  0
  4 21  1  0
  4 22  1  0
  6  5  2  0
  5 18  1  0
 24  6  1  0
 24  7  1  0
  7 25  2  0
  9  8  1  1
 10  9  1  0
  9 11  1  0
 14 10  1  0
 12 11  1  0
 13 12  1  0
 14 13  1  0
 14 15  1  1
 15 16  1  0
 16 25  1  0
 17 18  2  0
 22 23  1  0
M  CHG  1   9   1
M  END
$$$$
