
     RDKit          3D

 25 28  0  0  0  0  0  0  0  0999 V2000
  -12.7394    8.2972  -27.8465 C   0  0  0  0  0  0  0  0  0  0  0  0
  -13.1389    9.2523  -24.2565 C   0  0  0  0  0  0  0  0  0  0  0  0
  -12.3225   11.5624  -23.6158 C   0  0  0  0  0  0  0  0  0  0  0  0
  -13.1854    9.7622  -22.1081 C   0  0  0  0  0  0  0  0  0  0  0  0
  -12.7520   10.6069  -26.2433 C   0  0  0  0  0  0  0  0  0  0  0  0
  -12.5618   10.6717  -27.6119 C   0  0  0  0  0  0  0  0  0  0  0  0
  -12.3846    9.3805  -29.7504 C   0  0  0  0  0  0  0  0  0  0  0  0
  -10.8599    1.5600  -28.9359 C   0  0  0  0  0  0  0  0  0  0  0  0
  -10.6688    2.9779  -28.9415 N   0  0  1  0  0  4  0  0  0  0  0  0
  -11.8750    3.7009  -28.5175 C   0  0  0  0  0  0  0  0  0  0  0  0
   -9.6252    3.4006  -27.9957 C   0  0  0  0  0  0  0  0  0  0  0  0
   -9.2719    4.8092  -28.3322 C   0  0  0  0  0  0  0  0  0  0  0  0
  -10.4395    5.7477  -28.3783 C   0  0  0  0  0  0  0  0  0  0  0  0
  -11.6760    5.1227  -28.9853 C   0  0  2  0  0  0  0  0  0  0  0  0
  -12.8447    5.9770  -28.6124 C   0  0  0  0  0  0  0  0  0  0  0  0
  -12.6838    7.3800  -28.8410 N   0  0  0  0  0  0  0  0  0  0  0  0
  -12.9286    8.2332  -26.4831 C   0  0  0  0  0  0  0  0  0  0  0  0
  -12.9361    9.3577  -25.6929 C   0  0  0  0  0  0  0  0  0  0  0  0
  -12.8540   10.2561  -23.3592 C   0  0  0  0  0  0  0  0  0  0  0  0
  -11.8857   12.6340  -23.8056 N   0  0  0  0  0  0  0  0  0  0  0  0
  -13.0625   10.4460  -20.8671 N   0  0  0  0  0  0  0  0  0  0  0  0
  -13.6443    8.5157  -22.2917 N   0  0  0  0  0  0  0  0  0  0  0  0
  -13.6149    8.2175  -23.5672 N   0  0  0  0  0  0  0  0  0  0  0  0
  -12.5539    9.5448  -28.4067 C   0  0  0  0  0  0  0  0  0  0  0  0
  -12.4675    8.0413  -29.9997 C   0  0  0  0  0  0  0  0  0  0  0  0
 16  1  1  0
  1 17  1  0
  1 24  2  0
 18  2  1  0
  2 19  1  0
  2 23  2  0
 19  3  1  0
  3 20  3  0
 19  4  2  0
  4 21  1  0
  4 22  1  0
  6  5  2  0
  5 18  1  0
 24  6  1  0
 24  7  1  0
  7 25  2  0
  9  8  1  1
 10  9  1  0
  9 11  1  0
 14 10  1  0
 12 11  1  0
 13 12  1  0
 14 13  1  0
 14 15  1  1
 15 16  1  0
 16 25  1  0
 17 18  2  0
 22 23  1  0
M  CHG  1   9   1
M  END
$$$$
