
     RDKit          3D

 25 28  0  0  0  0  0  0  0  0999 V2000
  -12.3467    8.9446  -27.1676 C   0  0  0  0  0  0  0  0  0  0  0  0
  -12.7314    9.4263  -23.4826 C   0  0  0  0  0  0  0  0  0  0  0  0
  -14.5417   11.0635  -22.8075 C   0  0  0  0  0  0  0  0  0  0  0  0
  -13.2306    9.5252  -21.3334 C   0  0  0  0  0  0  0  0  0  0  0  0
  -13.1513   10.9327  -25.3496 C   0  0  0  0  0  0  0  0  0  0  0  0
  -13.1487   11.1530  -26.7153 C   0  0  0  0  0  0  0  0  0  0  0  0
  -12.6742   10.1873  -28.9767 C   0  0  0  0  0  0  0  0  0  0  0  0
  -15.5117    4.6795  -29.9404 C   0  0  0  0  0  0  0  0  0  0  0  0
  -14.0854    4.6998  -29.8304 N   0  0  1  0  0  4  0  0  0  0  0  0
  -13.6218    5.6559  -28.8164 C   0  0  0  0  0  0  0  0  0  0  0  0
  -13.5439    3.4024  -29.3994 C   0  0  0  0  0  0  0  0  0  0  0  0
  -12.0756    3.4324  -29.6554 C   0  0  0  0  0  0  0  0  0  0  0  0
  -11.3628    4.6001  -29.0438 C   0  0  0  0  0  0  0  0  0  0  0  0
  -12.1598    5.8835  -29.1180 C   0  0  2  0  0  0  0  0  0  0  0  0
  -11.5572    6.8475  -28.1473 C   0  0  0  0  0  0  0  0  0  0  0  0
  -12.0187    8.1978  -28.2484 N   0  0  0  0  0  0  0  0  0  0  0  0
  -12.3494    8.7258  -25.8072 C   0  0  0  0  0  0  0  0  0  0  0  0
  -12.7413    9.6926  -24.9123 C   0  0  0  0  0  0  0  0  0  0  0  0
  -13.5487   10.0568  -22.5724 C   0  0  0  0  0  0  0  0  0  0  0  0
  -15.3534   11.8921  -22.9800 N   0  0  0  0  0  0  0  0  0  0  0  0
  -13.8186    9.8723  -20.0858 N   0  0  0  0  0  0  0  0  0  0  0  0
  -12.2618    8.6205  -21.5361 N   0  0  0  0  0  0  0  0  0  0  0  0
  -11.9689    8.5651  -22.8120 N   0  0  0  0  0  0  0  0  0  0  0  0
  -12.7559   10.1845  -27.6149 C   0  0  0  0  0  0  0  0  0  0  0  0
  -12.2185    8.9560  -29.3492 C   0  0  0  0  0  0  0  0  0  0  0  0
 16  1  1  0
  1 17  1  0
  1 24  2  0
 18  2  1  0
  2 19  1  0
  2 23  2  0
 19  3  1  0
  3 20  3  0
 19  4  2  0
  4 21  1  0
  4 22  1  0
  6  5  2  0
  5 18  1  0
 24  6  1  0
 24  7  1  0
  7 25  2  0
  9  8  1  1
 10  9  1  0
  9 11  1  0
 14 10  1  0
 12 11  1  0
 13 12  1  0
 14 13  1  0
 14 15  1  1
 15 16  1  0
 16 25  1  0
 17 18  2  0
 22 23  1  0
M  CHG  1   9   1
M  END
$$$$
