
     RDKit          3D

 25 28  0  0  0  0  0  0  0  0999 V2000
  -22.9167   19.9645  -10.8871 C   0  0  0  0  0  0  0  0  0  0  0  0
  -19.8094   18.4196  -12.2720 C   0  0  0  0  0  0  0  0  0  0  0  0
  -19.9721   15.8950  -12.3870 C   0  0  0  0  0  0  0  0  0  0  0  0
  -17.9289   17.3179  -12.6302 C   0  0  0  0  0  0  0  0  0  0  0  0
  -22.1607   17.9779  -12.7277 C   0  0  0  0  0  0  0  0  0  0  0  0
  -23.4893   18.2715  -12.4780 C   0  0  0  0  0  0  0  0  0  0  0  0
  -25.0985   19.6870  -11.1824 C   0  0  0  0  0  0  0  0  0  0  0  0
  -21.0954   26.2368   -8.6612 C   0  0  0  0  0  0  0  0  0  0  0  0
  -21.9884   25.3655   -9.3614 N   0  0  1  0  0  4  0  0  0  0  0  0
  -22.1046   24.0533   -8.7118 C   0  0  0  0  0  0  0  0  0  0  0  0
  -23.3615   25.8905   -9.3966 C   0  0  0  0  0  0  0  0  0  0  0  0
  -24.1056   25.1057  -10.4227 C   0  0  0  0  0  0  0  0  0  0  0  0
  -24.0481   23.6207  -10.2300 C   0  0  0  0  0  0  0  0  0  0  0  0
  -22.6944   23.1382   -9.7581 C   0  0  2  0  0  0  0  0  0  0  0  0
  -22.8690   21.7541   -9.2211 C   0  0  0  0  0  0  0  0  0  0  0  0
  -23.5590   20.8400  -10.0783 N   0  0  0  0  0  0  0  0  0  0  0  0
  -21.5935   19.6715  -11.1362 C   0  0  0  0  0  0  0  0  0  0  0  0
  -21.2161   18.7020  -12.0343 C   0  0  0  0  0  0  0  0  0  0  0  0
  -19.2891   17.1547  -12.4246 C   0  0  0  0  0  0  0  0  0  0  0  0
  -20.5463   14.8727  -12.3669 N   0  0  0  0  0  0  0  0  0  0  0  0
  -16.9733   16.2855  -12.8385 N   0  0  0  0  0  0  0  0  0  0  0  0
  -17.6863   18.6363  -12.5951 N   0  0  0  0  0  0  0  0  0  0  0  0
  -18.8042   19.2857  -12.3825 N   0  0  0  0  0  0  0  0  0  0  0  0
  -23.8701   19.2437  -11.5773 C   0  0  0  0  0  0  0  0  0  0  0  0
  -24.8875   20.6697  -10.2591 C   0  0  0  0  0  0  0  0  0  0  0  0
 16  1  1  0
  1 17  1  0
  1 24  2  0
 18  2  1  0
  2 19  1  0
  2 23  2  0
 19  3  1  0
  3 20  3  0
 19  4  2  0
  4 21  1  0
  4 22  1  0
  6  5  2  0
  5 18  1  0
 24  6  1  0
 24  7  1  0
  7 25  2  0
  9  8  1  1
 10  9  1  0
  9 11  1  0
 14 10  1  0
 12 11  1  0
 13 12  1  0
 14 13  1  0
 14 15  1  1
 15 16  1  0
 16 25  1  0
 17 18  2  0
 22 23  1  0
M  CHG  1   9   1
M  END
$$$$
