
     RDKit          3D

 25 28  0  0  0  0  0  0  0  0999 V2000
  -22.7311   20.1507  -10.9315 C   0  0  0  0  0  0  0  0  0  0  0  0
  -20.2247   17.5864  -11.9811 C   0  0  0  0  0  0  0  0  0  0  0  0
  -18.5562   18.7320  -13.5033 C   0  0  0  0  0  0  0  0  0  0  0  0
  -18.3093   16.5408  -12.3216 C   0  0  0  0  0  0  0  0  0  0  0  0
  -21.8081   18.9065  -13.2778 C   0  0  0  0  0  0  0  0  0  0  0  0
  -22.8085   19.8616  -13.3054 C   0  0  0  0  0  0  0  0  0  0  0  0
  -24.2285   21.4253  -11.9600 C   0  0  0  0  0  0  0  0  0  0  0  0
  -20.4769   22.6418   -4.9063 C   0  0  0  0  0  0  0  0  0  0  0  0
  -20.9526   22.7978   -6.2466 N   0  0  1  0  0  4  0  0  0  0  0  0
  -21.9649   21.7924   -6.5955 C   0  0  0  0  0  0  0  0  0  0  0  0
  -21.6215   24.0913   -6.4506 C   0  0  0  0  0  0  0  0  0  0  0  0
  -21.7552   24.2894   -7.9221 C   0  0  0  0  0  0  0  0  0  0  0  0
  -22.4270   23.1595   -8.6417 C   0  0  0  0  0  0  0  0  0  0  0  0
  -22.0359   21.8009   -8.1038 C   0  0  2  0  0  0  0  0  0  0  0  0
  -23.0421   20.8116   -8.5975 C   0  0  0  0  0  0  0  0  0  0  0  0
  -23.3594   20.8939   -9.9900 N   0  0  0  0  0  0  0  0  0  0  0  0
  -21.7348   19.1993  -10.9047 C   0  0  0  0  0  0  0  0  0  0  0  0
  -21.2784   18.5867  -12.0472 C   0  0  0  0  0  0  0  0  0  0  0  0
  -19.0226   17.6838  -12.6439 C   0  0  0  0  0  0  0  0  0  0  0  0
  -18.1554   19.5850  -14.2010 N   0  0  0  0  0  0  0  0  0  0  0  0
  -17.0049   16.1998  -12.7745 N   0  0  0  0  0  0  0  0  0  0  0  0
  -19.0846   15.8178  -11.5005 N   0  0  0  0  0  0  0  0  0  0  0  0
  -20.2195   16.4416  -11.3014 N   0  0  0  0  0  0  0  0  0  0  0  0
  -23.2680   20.4774  -12.1603 C   0  0  0  0  0  0  0  0  0  0  0  0
  -24.2710   21.6694  -10.6179 C   0  0  0  0  0  0  0  0  0  0  0  0
 16  1  1  0
  1 17  1  0
  1 24  2  0
 18  2  1  0
  2 19  1  0
  2 23  2  0
 19  3  1  0
  3 20  3  0
 19  4  2  0
  4 21  1  0
  4 22  1  0
  6  5  2  0
  5 18  1  0
 24  6  1  0
 24  7  1  0
  7 25  2  0
  9  8  1  1
 10  9  1  0
  9 11  1  0
 14 10  1  0
 12 11  1  0
 13 12  1  0
 14 13  1  0
 14 15  1  1
 15 16  1  0
 16 25  1  0
 17 18  2  0
 22 23  1  0
M  CHG  1   9   1
M  END
$$$$
