
     RDKit          3D

 25 28  0  0  0  0  0  0  0  0999 V2000
  -12.5082    9.4693  -27.8942 C   0  0  0  0  0  0  0  0  0  0  0  0
  -12.4802   10.3862  -24.2723 C   0  0  0  0  0  0  0  0  0  0  0  0
  -14.4783    9.3771  -23.0878 C   0  0  0  0  0  0  0  0  0  0  0  0
  -12.4169   10.3582  -22.0647 C   0  0  0  0  0  0  0  0  0  0  0  0
  -14.2269   10.5687  -25.9596 C   0  0  0  0  0  0  0  0  0  0  0  0
  -14.6320   10.3765  -27.2682 C   0  0  0  0  0  0  0  0  0  0  0  0
  -13.9841    9.5683  -29.5484 C   0  0  0  0  0  0  0  0  0  0  0  0
   -6.2563    8.5721  -31.2457 C   0  0  0  0  0  0  0  0  0  0  0  0
   -7.5144    9.2144  -31.0183 N   0  0  1  0  0  4  0  0  0  0  0  0
   -8.2643    8.5905  -29.9203 C   0  0  0  0  0  0  0  0  0  0  0  0
   -7.3547   10.6192  -30.6140 C   0  0  0  0  0  0  0  0  0  0  0  0
   -8.6898   11.2690  -30.7470 C   0  0  0  0  0  0  0  0  0  0  0  0
   -9.7961   10.5688  -30.0178 C   0  0  0  0  0  0  0  0  0  0  0  0
   -9.6890    9.0616  -30.0886 C   0  0  2  0  0  0  0  0  0  0  0  0
  -10.5694    8.4945  -29.0219 C   0  0  0  0  0  0  0  0  0  0  0  0
  -11.9156    8.9785  -29.0083 N   0  0  0  0  0  0  0  0  0  0  0  0
  -12.1053    9.6613  -26.5906 C   0  0  0  0  0  0  0  0  0  0  0  0
  -12.9396   10.1980  -25.6393 C   0  0  0  0  0  0  0  0  0  0  0  0
  -13.1929   10.0078  -23.1574 C   0  0  0  0  0  0  0  0  0  0  0  0
  -15.5367    8.8769  -23.0197 N   0  0  0  0  0  0  0  0  0  0  0  0
  -12.7441   10.1615  -20.6947 N   0  0  0  0  0  0  0  0  0  0  0  0
  -11.2979   10.9184  -22.5467 N   0  0  0  0  0  0  0  0  0  0  0  0
  -11.3398   10.9329  -23.8561 N   0  0  0  0  0  0  0  0  0  0  0  0
  -13.7966    9.8381  -28.2242 C   0  0  0  0  0  0  0  0  0  0  0  0
  -12.8156    9.0396  -30.0147 C   0  0  0  0  0  0  0  0  0  0  0  0
 16  1  1  0
  1 17  1  0
  1 24  2  0
 18  2  1  0
  2 19  1  0
  2 23  2  0
 19  3  1  0
  3 20  3  0
 19  4  2  0
  4 21  1  0
  4 22  1  0
  6  5  2  0
  5 18  1  0
 24  6  1  0
 24  7  1  0
  7 25  2  0
  9  8  1  1
 10  9  1  0
  9 11  1  0
 14 10  1  0
 12 11  1  0
 13 12  1  0
 14 13  1  0
 14 15  1  1
 15 16  1  0
 16 25  1  0
 17 18  2  0
 22 23  1  0
M  CHG  1   9   1
M  END
$$$$
