
     RDKit          3D

 21 22  0  0  0  0  0  0  0  0999 V2000
  -12.8917   10.8873  -23.7846 C   0  0  0  0  0  0  0  0  0  0  0  0
  -13.4471    9.6841  -23.4006 C   0  0  0  0  0  0  0  0  0  0  0  0
  -11.8656   12.3761  -25.2978 O   0  0  0  0  0  0  0  0  0  0  0  0
  -12.5324   11.3317  -25.1256 C   0  0  0  0  0  0  0  0  0  0  0  0
  -12.9163   10.6178  -26.2117 O   0  0  0  0  0  0  0  0  0  0  0  0
  -12.6679   10.8484  -27.5547 C   0  0  0  0  0  0  0  0  0  0  0  0
  -12.4750    9.6640  -28.3967 C   0  0  0  0  0  0  0  0  0  0  0  0
  -13.3303    9.3908  -29.4311 C   0  0  0  0  0  0  0  0  0  0  0  0
  -13.1246    8.2808  -30.2183 C   0  0  0  0  0  0  0  0  0  0  0  0
  -12.0639    7.4128  -29.9989 C   0  0  0  0  0  0  0  0  0  0  0  0
  -11.2028    7.6884  -28.9574 C   0  0  0  0  0  0  0  0  0  0  0  0
  -10.1543    6.8220  -28.7480 O   0  0  0  0  0  0  0  0  0  0  0  0
  -10.2287    5.4326  -28.9731 C   0  0  0  0  0  0  0  0  0  0  0  0
   -8.8985    4.8064  -28.7687 C   0  0  0  0  0  0  0  0  0  0  0  0
   -8.7874    3.4431  -28.9927 O   0  0  0  0  0  0  0  0  0  0  0  0
   -7.5641    2.7955  -28.7183 C   0  0  0  0  0  0  0  0  0  0  0  0
   -7.8663    5.4233  -28.4074 O   0  0  0  0  0  0  0  0  0  0  0  0
  -11.4207    8.8180  -28.1645 C   0  0  0  0  0  0  0  0  0  0  0  0
  -12.7441   11.6033  -22.5915 C   0  0  0  0  0  0  0  0  0  0  0  0
  -13.1996   10.8246  -21.5964 N   0  0  0  0  0  0  0  0  0  0  0  0
  -13.6248    9.6694  -22.0681 N   0  0  0  0  0  0  0  0  0  0  0  0
  1  2  2  0
  1  4  1  0
  1 19  1  0
  2 21  1  0
  4  3  2  0
  4  5  1  0
  5  6  1  0
  6  7  1  0
  7  8  2  0
  7 18  1  0
  8  9  1  0
  9 10  2  0
 10 11  1  0
 11 12  1  0
 11 18  2  0
 12 13  1  0
 13 14  1  0
 14 15  1  0
 14 17  2  0
 15 16  1  0
 19 20  2  0
 20 21  1  0
M  END
$$$$
