
     RDKit          3D

 21 22  0  0  0  0  0  0  0  0999 V2000
  -19.3207   17.4299  -13.3270 C   0  0  0  0  0  0  0  0  0  0  0  0
  -18.6506   17.8469  -12.1953 C   0  0  0  0  0  0  0  0  0  0  0  0
  -21.0883   17.4401  -14.8875 O   0  0  0  0  0  0  0  0  0  0  0  0
  -20.6752   17.7620  -13.7513 C   0  0  0  0  0  0  0  0  0  0  0  0
  -21.5121   18.4273  -12.9185 O   0  0  0  0  0  0  0  0  0  0  0  0
  -22.8165   18.8454  -13.1242 C   0  0  0  0  0  0  0  0  0  0  0  0
  -23.4793   19.5001  -11.9924 C   0  0  0  0  0  0  0  0  0  0  0  0
  -24.7708   19.1884  -11.6588 C   0  0  0  0  0  0  0  0  0  0  0  0
  -25.3711   19.8047  -10.5845 C   0  0  0  0  0  0  0  0  0  0  0  0
  -24.7047   20.7468   -9.8133 C   0  0  0  0  0  0  0  0  0  0  0  0
  -23.4043   21.0601  -10.1495 C   0  0  0  0  0  0  0  0  0  0  0  0
  -22.7520   21.9953   -9.3789 O   0  0  0  0  0  0  0  0  0  0  0  0
  -21.4198   21.8575   -8.9396 C   0  0  0  0  0  0  0  0  0  0  0  0
  -21.0821   22.9343   -7.9753 C   0  0  0  0  0  0  0  0  0  0  0  0
  -19.8289   22.8997   -7.3844 O   0  0  0  0  0  0  0  0  0  0  0  0
  -19.4808   23.8928   -6.4442 C   0  0  0  0  0  0  0  0  0  0  0  0
  -21.8506   23.8748   -7.6564 O   0  0  0  0  0  0  0  0  0  0  0  0
  -22.8043   20.4285  -11.2418 C   0  0  0  0  0  0  0  0  0  0  0  0
  -18.4070   16.6055  -13.9930 C   0  0  0  0  0  0  0  0  0  0  0  0
  -17.2842   16.5728  -13.2567 N   0  0  0  0  0  0  0  0  0  0  0  0
  -17.4167   17.3138  -12.1745 N   0  0  0  0  0  0  0  0  0  0  0  0
  1  2  2  0
  1  4  1  0
  1 19  1  0
  2 21  1  0
  4  3  2  0
  4  5  1  0
  5  6  1  0
  6  7  1  0
  7  8  2  0
  7 18  1  0
  8  9  1  0
  9 10  2  0
 10 11  1  0
 11 12  1  0
 11 18  2  0
 12 13  1  0
 13 14  1  0
 14 15  1  0
 14 17  2  0
 15 16  1  0
 19 20  2  0
 20 21  1  0
M  END
$$$$
