
     RDKit          3D

 21 22  0  0  0  0  0  0  0  0999 V2000
  -19.3330   17.6111  -13.6455 C   0  0  0  0  0  0  0  0  0  0  0  0
  -19.8289   16.3981  -13.2137 C   0  0  0  0  0  0  0  0  0  0  0  0
  -19.4036   19.9326  -14.0515 O   0  0  0  0  0  0  0  0  0  0  0  0
  -19.9405   18.9310  -13.5284 C   0  0  0  0  0  0  0  0  0  0  0  0
  -21.1012   19.0950  -12.8484 O   0  0  0  0  0  0  0  0  0  0  0  0
  -21.7015   20.2564  -12.3907 C   0  0  0  0  0  0  0  0  0  0  0  0
  -22.8607   20.0895  -11.5091 C   0  0  0  0  0  0  0  0  0  0  0  0
  -23.9150   19.2965  -11.8777 C   0  0  0  0  0  0  0  0  0  0  0  0
  -24.9884   19.1422  -11.0301 C   0  0  0  0  0  0  0  0  0  0  0  0
  -25.0430   19.7714   -9.7942 C   0  0  0  0  0  0  0  0  0  0  0  0
  -23.9810   20.5696   -9.4234 C   0  0  0  0  0  0  0  0  0  0  0  0
  -24.0445   21.1891   -8.1962 O   0  0  0  0  0  0  0  0  0  0  0  0
  -23.3833   22.3963   -7.8925 C   0  0  0  0  0  0  0  0  0  0  0  0
  -23.3731   22.6223   -6.4254 C   0  0  0  0  0  0  0  0  0  0  0  0
  -22.8092   23.7994   -5.9592 O   0  0  0  0  0  0  0  0  0  0  0  0
  -22.6740   23.9971   -4.5686 C   0  0  0  0  0  0  0  0  0  0  0  0
  -23.8388   21.8232   -5.5761 O   0  0  0  0  0  0  0  0  0  0  0  0
  -22.8964   20.7192  -10.2912 C   0  0  0  0  0  0  0  0  0  0  0  0
  -18.1006   17.2992  -14.2301 C   0  0  0  0  0  0  0  0  0  0  0  0
  -17.9294   15.9713  -14.1228 N   0  0  0  0  0  0  0  0  0  0  0  0
  -18.9596   15.4178  -13.5145 N   0  0  0  0  0  0  0  0  0  0  0  0
  1  2  2  0
  1  4  1  0
  1 19  1  0
  2 21  1  0
  4  3  2  0
  4  5  1  0
  5  6  1  0
  6  7  1  0
  7  8  2  0
  7 18  1  0
  8  9  1  0
  9 10  2  0
 10 11  1  0
 11 12  1  0
 11 18  2  0
 12 13  1  0
 13 14  1  0
 14 15  1  0
 14 17  2  0
 15 16  1  0
 19 20  2  0
 20 21  1  0
M  END
$$$$
