
     RDKit          3D

 21 22  0  0  0  0  0  0  0  0999 V2000
  -13.2844   10.9642  -23.0676 C   0  0  0  0  0  0  0  0  0  0  0  0
  -12.5251   12.0548  -23.4388 C   0  0  0  0  0  0  0  0  0  0  0  0
  -14.4410    8.9384  -23.4111 O   0  0  0  0  0  0  0  0  0  0  0  0
  -13.7788    9.8780  -23.9048 C   0  0  0  0  0  0  0  0  0  0  0  0
  -13.5283    9.8686  -25.2366 O   0  0  0  0  0  0  0  0  0  0  0  0
  -13.6313    8.8312  -26.1486 C   0  0  0  0  0  0  0  0  0  0  0  0
  -13.1617    9.1080  -27.5094 C   0  0  0  0  0  0  0  0  0  0  0  0
  -12.8192   10.3787  -27.8893 C   0  0  0  0  0  0  0  0  0  0  0  0
  -12.3681   10.6159  -29.1678 C   0  0  0  0  0  0  0  0  0  0  0  0
  -12.2453    9.5973  -30.1026 C   0  0  0  0  0  0  0  0  0  0  0  0
  -12.5902    8.3180  -29.7196 C   0  0  0  0  0  0  0  0  0  0  0  0
  -12.4650    7.3151  -30.6535 O   0  0  0  0  0  0  0  0  0  0  0  0
  -12.6625    5.9490  -30.3679 C   0  0  0  0  0  0  0  0  0  0  0  0
  -12.4397    5.1312  -31.5865 C   0  0  0  0  0  0  0  0  0  0  0  0
  -12.5802    3.7569  -31.4742 O   0  0  0  0  0  0  0  0  0  0  0  0
  -12.0536    2.9240  -32.4842 C   0  0  0  0  0  0  0  0  0  0  0  0
  -12.1329    5.5952  -32.7122 O   0  0  0  0  0  0  0  0  0  0  0  0
  -13.0468    8.0882  -28.4193 C   0  0  0  0  0  0  0  0  0  0  0  0
  -13.4825   11.1253  -21.6919 C   0  0  0  0  0  0  0  0  0  0  0  0
  -12.8579   12.2565  -21.3256 N   0  0  0  0  0  0  0  0  0  0  0  0
  -12.2789   12.8247  -22.3647 N   0  0  0  0  0  0  0  0  0  0  0  0
  1  2  2  0
  1  4  1  0
  1 19  1  0
  2 21  1  0
  4  3  2  0
  4  5  1  0
  5  6  1  0
  6  7  1  0
  7  8  2  0
  7 18  1  0
  8  9  1  0
  9 10  2  0
 10 11  1  0
 11 12  1  0
 11 18  2  0
 12 13  1  0
 13 14  1  0
 14 15  1  0
 14 17  2  0
 15 16  1  0
 19 20  2  0
 20 21  1  0
M  END
$$$$
