
     RDKit          3D

 21 22  0  0  0  0  0  0  0  0999 V2000
  -19.1188   17.1139  -13.2890 C   0  0  0  0  0  0  0  0  0  0  0  0
  -18.3731   18.2716  -13.2025 C   0  0  0  0  0  0  0  0  0  0  0  0
  -21.0662   15.7974  -13.1042 O   0  0  0  0  0  0  0  0  0  0  0  0
  -20.5327   16.9233  -12.9896 C   0  0  0  0  0  0  0  0  0  0  0  0
  -21.2950   17.9664  -12.5808 O   0  0  0  0  0  0  0  0  0  0  0  0
  -22.6718   18.0638  -12.4647 C   0  0  0  0  0  0  0  0  0  0  0  0
  -23.1868   19.2413  -11.7596 C   0  0  0  0  0  0  0  0  0  0  0  0
  -24.1723   20.0156  -12.3124 C   0  0  0  0  0  0  0  0  0  0  0  0
  -24.6517   21.1097  -11.6287 C   0  0  0  0  0  0  0  0  0  0  0  0
  -24.1649   21.4635  -10.3779 C   0  0  0  0  0  0  0  0  0  0  0  0
  -23.1728   20.6834   -9.8217 C   0  0  0  0  0  0  0  0  0  0  0  0
  -22.6968   21.0424   -8.5814 O   0  0  0  0  0  0  0  0  0  0  0  0
  -21.4063   21.5635   -8.3578 C   0  0  0  0  0  0  0  0  0  0  0  0
  -21.2193   21.8740   -6.9183 C   0  0  0  0  0  0  0  0  0  0  0  0
  -19.9947   22.3904   -6.5249 O   0  0  0  0  0  0  0  0  0  0  0  0
  -19.7881   22.7211   -5.1688 C   0  0  0  0  0  0  0  0  0  0  0  0
  -22.0911   21.7025   -6.0312 O   0  0  0  0  0  0  0  0  0  0  0  0
  -22.6935   19.5749  -10.5241 C   0  0  0  0  0  0  0  0  0  0  0  0
  -18.2130   16.1444  -13.7332 C   0  0  0  0  0  0  0  0  0  0  0  0
  -17.0217   16.7462  -13.8835 N   0  0  0  0  0  0  0  0  0  0  0  0
  -17.1035   18.0236  -13.5683 N   0  0  0  0  0  0  0  0  0  0  0  0
  1  2  2  0
  1  4  1  0
  1 19  1  0
  2 21  1  0
  4  3  2  0
  4  5  1  0
  5  6  1  0
  6  7  1  0
  7  8  2  0
  7 18  1  0
  8  9  1  0
  9 10  2  0
 10 11  1  0
 11 12  1  0
 11 18  2  0
 12 13  1  0
 13 14  1  0
 14 15  1  0
 14 17  2  0
 15 16  1  0
 19 20  2  0
 20 21  1  0
M  END
$$$$
