
     RDKit          3D

 21 22  0  0  0  0  0  0  0  0999 V2000
  -13.3049   10.5081  -23.3353 C   0  0  0  0  0  0  0  0  0  0  0  0
  -12.5288   11.6377  -23.4944 C   0  0  0  0  0  0  0  0  0  0  0  0
  -14.5555    8.6456  -24.0611 O   0  0  0  0  0  0  0  0  0  0  0  0
  -13.8167    9.6092  -24.3625 C   0  0  0  0  0  0  0  0  0  0  0  0
  -13.4991    9.8035  -25.6655 O   0  0  0  0  0  0  0  0  0  0  0  0
  -13.8974    9.0961  -26.7879 C   0  0  0  0  0  0  0  0  0  0  0  0
  -13.2430    9.4512  -28.0507 C   0  0  0  0  0  0  0  0  0  0  0  0
  -13.1602   10.7570  -28.4559 C   0  0  0  0  0  0  0  0  0  0  0  0
  -12.5302   11.0711  -29.6386 C   0  0  0  0  0  0  0  0  0  0  0  0
  -11.9659   10.0965  -30.4500 C   0  0  0  0  0  0  0  0  0  0  0  0
  -12.0494    8.7819  -30.0414 C   0  0  0  0  0  0  0  0  0  0  0  0
  -11.4870    7.8230  -30.8526 O   0  0  0  0  0  0  0  0  0  0  0  0
  -10.8661    6.6535  -30.3694 C   0  0  0  0  0  0  0  0  0  0  0  0
  -11.7987    5.5020  -30.4577 C   0  0  0  0  0  0  0  0  0  0  0  0
  -11.3565    4.2775  -29.9824 O   0  0  0  0  0  0  0  0  0  0  0  0
  -12.2199    3.1626  -30.0370 C   0  0  0  0  0  0  0  0  0  0  0  0
  -12.9599    5.5577  -30.9322 O   0  0  0  0  0  0  0  0  0  0  0  0
  -12.6909    8.4740  -28.8390 C   0  0  0  0  0  0  0  0  0  0  0  0
  -13.4999   10.4070  -21.9534 C   0  0  0  0  0  0  0  0  0  0  0  0
  -12.8574   11.4380  -21.3804 N   0  0  0  0  0  0  0  0  0  0  0  0
  -12.2701   12.1849  -22.2941 N   0  0  0  0  0  0  0  0  0  0  0  0
  1  2  2  0
  1  4  1  0
  1 19  1  0
  2 21  1  0
  4  3  2  0
  4  5  1  0
  5  6  1  0
  6  7  1  0
  7  8  2  0
  7 18  1  0
  8  9  1  0
  9 10  2  0
 10 11  1  0
 11 12  1  0
 11 18  2  0
 12 13  1  0
 13 14  1  0
 14 15  1  0
 14 17  2  0
 15 16  1  0
 19 20  2  0
 20 21  1  0
M  END
$$$$
