
     RDKit          3D

 21 22  0  0  0  0  0  0  0  0999 V2000
  -12.9257   11.1486  -24.1549 C   0  0  0  0  0  0  0  0  0  0  0  0
  -12.4746   10.0239  -23.4952 C   0  0  0  0  0  0  0  0  0  0  0  0
  -13.8445   12.3292  -25.9774 O   0  0  0  0  0  0  0  0  0  0  0  0
  -13.2851   11.2907  -25.5605 C   0  0  0  0  0  0  0  0  0  0  0  0
  -13.0182   10.2963  -26.4416 O   0  0  0  0  0  0  0  0  0  0  0  0
  -13.3566   10.1863  -27.7803 C   0  0  0  0  0  0  0  0  0  0  0  0
  -12.8342    9.0166  -28.4927 C   0  0  0  0  0  0  0  0  0  0  0  0
  -11.4869    8.7779  -28.5581 C   0  0  0  0  0  0  0  0  0  0  0  0
  -11.0169    7.6669  -29.2207 C   0  0  0  0  0  0  0  0  0  0  0  0
  -11.8726    6.7637  -29.8359 C   0  0  0  0  0  0  0  0  0  0  0  0
  -13.2291    7.0043  -29.7696 C   0  0  0  0  0  0  0  0  0  0  0  0
  -14.0692    6.1030  -30.3826 O   0  0  0  0  0  0  0  0  0  0  0  0
  -13.6207    5.0255  -31.1729 C   0  0  0  0  0  0  0  0  0  0  0  0
  -13.8233    3.7420  -30.4553 C   0  0  0  0  0  0  0  0  0  0  0  0
  -13.3893    2.5816  -31.0767 O   0  0  0  0  0  0  0  0  0  0  0  0
  -14.1617    1.4062  -30.9617 C   0  0  0  0  0  0  0  0  0  0  0  0
  -14.3598    3.6320  -29.3254 O   0  0  0  0  0  0  0  0  0  0  0  0
  -13.6955    8.1349  -29.0943 C   0  0  0  0  0  0  0  0  0  0  0  0
  -12.9654   12.1418  -23.1701 C   0  0  0  0  0  0  0  0  0  0  0  0
  -12.5535   11.5840  -22.0198 N   0  0  0  0  0  0  0  0  0  0  0  0
  -12.2556   10.3126  -22.2007 N   0  0  0  0  0  0  0  0  0  0  0  0
  1  2  2  0
  1  4  1  0
  1 19  1  0
  2 21  1  0
  4  3  2  0
  4  5  1  0
  5  6  1  0
  6  7  1  0
  7  8  2  0
  7 18  1  0
  8  9  1  0
  9 10  2  0
 10 11  1  0
 11 12  1  0
 11 18  2  0
 12 13  1  0
 13 14  1  0
 14 15  1  0
 14 17  2  0
 15 16  1  0
 19 20  2  0
 20 21  1  0
M  END
$$$$
