
     RDKit          3D

 21 22  0  0  0  0  0  0  0  0999 V2000
  -19.3909   17.6135  -13.4132 C   0  0  0  0  0  0  0  0  0  0  0  0
  -18.9737   17.3598  -12.1228 C   0  0  0  0  0  0  0  0  0  0  0  0
  -20.9343   18.2648  -15.0725 O   0  0  0  0  0  0  0  0  0  0  0  0
  -20.6366   18.2264  -13.8580 C   0  0  0  0  0  0  0  0  0  0  0  0
  -21.4954   18.7666  -12.9596 O   0  0  0  0  0  0  0  0  0  0  0  0
  -22.7289   19.3629  -13.1633 C   0  0  0  0  0  0  0  0  0  0  0  0
  -23.3774   19.9430  -11.9835 C   0  0  0  0  0  0  0  0  0  0  0  0
  -24.5563   19.4328  -11.5079 C   0  0  0  0  0  0  0  0  0  0  0  0
  -25.1427   19.9832  -10.3910 C   0  0  0  0  0  0  0  0  0  0  0  0
  -24.5737   21.0549   -9.7171 C   0  0  0  0  0  0  0  0  0  0  0  0
  -23.3866   21.5682  -10.1963 C   0  0  0  0  0  0  0  0  0  0  0  0
  -22.8303   22.6307   -9.5212 O   0  0  0  0  0  0  0  0  0  0  0  0
  -22.9455   22.8220   -8.1295 C   0  0  0  0  0  0  0  0  0  0  0  0
  -21.6503   23.2752   -7.5636 C   0  0  0  0  0  0  0  0  0  0  0  0
  -21.5371   23.3375   -6.1837 O   0  0  0  0  0  0  0  0  0  0  0  0
  -20.4007   23.9471   -5.6106 C   0  0  0  0  0  0  0  0  0  0  0  0
  -20.6493   23.6064   -8.2456 O   0  0  0  0  0  0  0  0  0  0  0  0
  -22.7997   21.0019  -11.3306 C   0  0  0  0  0  0  0  0  0  0  0  0
  -18.3454   17.1490  -14.2187 C   0  0  0  0  0  0  0  0  0  0  0  0
  -17.3958   16.6616  -13.4033 N   0  0  0  0  0  0  0  0  0  0  0  0
  -17.7601   16.7819  -12.1421 N   0  0  0  0  0  0  0  0  0  0  0  0
  1  2  2  0
  1  4  1  0
  1 19  1  0
  2 21  1  0
  4  3  2  0
  4  5  1  0
  5  6  1  0
  6  7  1  0
  7  8  2  0
  7 18  1  0
  8  9  1  0
  9 10  2  0
 10 11  1  0
 11 12  1  0
 11 18  2  0
 12 13  1  0
 13 14  1  0
 14 15  1  0
 14 17  2  0
 15 16  1  0
 19 20  2  0
 20 21  1  0
M  END
$$$$
