
     RDKit          3D

 21 22  0  0  0  0  0  0  0  0999 V2000
  -16.4822   16.0226  -15.4487 C   0  0  0  0  0  0  0  0  0  0  0  0
  -15.2265   16.1116  -16.0134 C   0  0  0  0  0  0  0  0  0  0  0  0
  -18.6025   15.0209  -15.2032 O   0  0  0  0  0  0  0  0  0  0  0  0
  -17.6596   15.3343  -15.9634 C   0  0  0  0  0  0  0  0  0  0  0  0
  -17.7522   15.0215  -17.2787 O   0  0  0  0  0  0  0  0  0  0  0  0
  -18.7523   14.3466  -17.9591 C   0  0  0  0  0  0  0  0  0  0  0  0
  -18.5653   14.1842  -19.4039 C   0  0  0  0  0  0  0  0  0  0  0  0
  -19.4295   14.7652  -20.2937 C   0  0  0  0  0  0  0  0  0  0  0  0
  -19.2292   14.6118  -21.6467 C   0  0  0  0  0  0  0  0  0  0  0  0
  -18.1653   13.8772  -22.1516 C   0  0  0  0  0  0  0  0  0  0  0  0
  -17.2953   13.2925  -21.2553 C   0  0  0  0  0  0  0  0  0  0  0  0
  -16.2436   12.5662  -21.7657 O   0  0  0  0  0  0  0  0  0  0  0  0
  -14.8897   12.9114  -21.5805 C   0  0  0  0  0  0  0  0  0  0  0  0
  -14.0109   11.9390  -22.2773 C   0  0  0  0  0  0  0  0  0  0  0  0
  -12.6407   12.1175  -22.1700 O   0  0  0  0  0  0  0  0  0  0  0  0
  -11.7740   11.2435  -22.8601 C   0  0  0  0  0  0  0  0  0  0  0  0
  -14.4199   10.9660  -22.9574 O   0  0  0  0  0  0  0  0  0  0  0  0
  -17.5077   13.4547  -19.8840 C   0  0  0  0  0  0  0  0  0  0  0  0
  -16.3835   16.7466  -14.2555 C   0  0  0  0  0  0  0  0  0  0  0  0
  -15.1265   17.2123  -14.1707 N   0  0  0  0  0  0  0  0  0  0  0  0
  -14.4210   16.8384  -15.2196 N   0  0  0  0  0  0  0  0  0  0  0  0
  1  2  2  0
  1  4  1  0
  1 19  1  0
  2 21  1  0
  4  3  2  0
  4  5  1  0
  5  6  1  0
  6  7  1  0
  7  8  2  0
  7 18  1  0
  8  9  1  0
  9 10  2  0
 10 11  1  0
 11 12  1  0
 11 18  2  0
 12 13  1  0
 13 14  1  0
 14 15  1  0
 14 17  2  0
 15 16  1  0
 19 20  2  0
 20 21  1  0
M  END
$$$$
