
     RDKit          3D

 21 22  0  0  0  0  0  0  0  0999 V2000
  -19.9310   17.3898  -13.2613 C   0  0  0  0  0  0  0  0  0  0  0  0
  -18.9401   18.3487  -13.2152 C   0  0  0  0  0  0  0  0  0  0  0  0
  -22.1469   16.5958  -13.1231 O   0  0  0  0  0  0  0  0  0  0  0  0
  -21.3366   17.5221  -12.8982 C   0  0  0  0  0  0  0  0  0  0  0  0
  -21.7901   18.6551  -12.3089 O   0  0  0  0  0  0  0  0  0  0  0  0
  -23.0318   18.9307  -11.7605 C   0  0  0  0  0  0  0  0  0  0  0  0
  -23.2083   20.2650  -11.1797 C   0  0  0  0  0  0  0  0  0  0  0  0
  -24.2143   21.0901  -11.6083 C   0  0  0  0  0  0  0  0  0  0  0  0
  -24.3715   22.3342  -11.0412 C   0  0  0  0  0  0  0  0  0  0  0  0
  -23.5338   22.7918  -10.0335 C   0  0  0  0  0  0  0  0  0  0  0  0
  -22.5212   21.9606   -9.6022 C   0  0  0  0  0  0  0  0  0  0  0  0
  -21.6959   22.4232   -8.6028 O   0  0  0  0  0  0  0  0  0  0  0  0
  -21.9966   22.3239   -7.2293 C   0  0  0  0  0  0  0  0  0  0  0  0
  -20.9495   23.0001   -6.4233 C   0  0  0  0  0  0  0  0  0  0  0  0
  -21.1220   23.0422   -5.0487 O   0  0  0  0  0  0  0  0  0  0  0  0
  -20.1522   23.6850   -4.2502 C   0  0  0  0  0  0  0  0  0  0  0  0
  -19.9182   23.5370   -6.8975 O   0  0  0  0  0  0  0  0  0  0  0  0
  -22.3705   20.6996  -10.1845 C   0  0  0  0  0  0  0  0  0  0  0  0
  -19.2883   16.2425  -13.7394 C   0  0  0  0  0  0  0  0  0  0  0  0
  -17.9998   16.5603  -13.9462 N   0  0  0  0  0  0  0  0  0  0  0  0
  -17.7769   17.8219  -13.6356 N   0  0  0  0  0  0  0  0  0  0  0  0
  1  2  2  0
  1  4  1  0
  1 19  1  0
  2 21  1  0
  4  3  2  0
  4  5  1  0
  5  6  1  0
  6  7  1  0
  7  8  2  0
  7 18  1  0
  8  9  1  0
  9 10  2  0
 10 11  1  0
 11 12  1  0
 11 18  2  0
 12 13  1  0
 13 14  1  0
 14 15  1  0
 14 17  2  0
 15 16  1  0
 19 20  2  0
 20 21  1  0
M  END
$$$$
