
     RDKit          3D

 21 22  0  0  0  0  0  0  0  0999 V2000
  -13.6742   10.8653  -23.7005 C   0  0  0  0  0  0  0  0  0  0  0  0
  -12.5002   11.5900  -23.6942 C   0  0  0  0  0  0  0  0  0  0  0  0
  -15.4412    9.6817  -24.7186 O   0  0  0  0  0  0  0  0  0  0  0  0
  -14.2725   10.1202  -24.8015 C   0  0  0  0  0  0  0  0  0  0  0  0
  -13.5695    9.8897  -25.9369 O   0  0  0  0  0  0  0  0  0  0  0  0
  -13.9423    9.2113  -27.0855 C   0  0  0  0  0  0  0  0  0  0  0  0
  -12.9950    9.2490  -28.2036 C   0  0  0  0  0  0  0  0  0  0  0  0
  -12.7087   10.4265  -28.8422 C   0  0  0  0  0  0  0  0  0  0  0  0
  -11.8065   10.4432  -29.8814 C   0  0  0  0  0  0  0  0  0  0  0  0
  -11.1649    9.2909  -30.3139 C   0  0  0  0  0  0  0  0  0  0  0  0
  -11.4533    8.1056  -29.6705 C   0  0  0  0  0  0  0  0  0  0  0  0
  -10.8121    6.9686  -30.1065 O   0  0  0  0  0  0  0  0  0  0  0  0
   -9.4142    6.7928  -30.0660 C   0  0  0  0  0  0  0  0  0  0  0  0
   -9.0780    5.3472  -30.0431 C   0  0  0  0  0  0  0  0  0  0  0  0
   -7.7397    4.9960  -30.1234 O   0  0  0  0  0  0  0  0  0  0  0  0
   -7.3821    3.6310  -30.1164 C   0  0  0  0  0  0  0  0  0  0  0  0
   -9.9194    4.4192  -29.9560 O   0  0  0  0  0  0  0  0  0  0  0  0
  -12.3705    8.0997  -28.6166 C   0  0  0  0  0  0  0  0  0  0  0  0
  -14.1777   10.9999  -22.4020 C   0  0  0  0  0  0  0  0  0  0  0  0
  -13.3153   11.7661  -21.7140 N   0  0  0  0  0  0  0  0  0  0  0  0
  -12.3035   12.1273  -22.4778 N   0  0  0  0  0  0  0  0  0  0  0  0
  1  2  2  0
  1  4  1  0
  1 19  1  0
  2 21  1  0
  4  3  2  0
  4  5  1  0
  5  6  1  0
  6  7  1  0
  7  8  2  0
  7 18  1  0
  8  9  1  0
  9 10  2  0
 10 11  1  0
 11 12  1  0
 11 18  2  0
 12 13  1  0
 13 14  1  0
 14 15  1  0
 14 17  2  0
 15 16  1  0
 19 20  2  0
 20 21  1  0
M  END
$$$$
