
     RDKit          3D

 58 64  0  0  0  0  0  0  0  0999 V2000
  -20.8644   67.4649  -37.3116 C   0  0  0  0  0  0  0  0  0  0  0  0
  -21.8085   67.0787  -38.0853 O   0  0  0  0  0  0  0  0  0  0  0  0
  -21.0556   67.3001  -35.9185 N   0  0  0  0  0  0  0  0  0  0  0  0
  -21.9127   66.2839  -35.4078 C   0  0  0  0  0  0  0  0  0  0  0  0
  -22.1250   66.0897  -34.0639 C   0  0  0  0  0  0  0  0  0  0  0  0
  -22.9457   65.1015  -33.5840 C   0  0  0  0  0  0  0  0  0  0  0  0
  -23.6201   64.2268  -34.4519 C   0  0  0  0  0  0  0  0  0  0  0  0
  -24.5100   63.1531  -33.9345 C   0  0  0  0  0  0  0  0  0  0  0  0
  -23.4020   64.4271  -35.7945 C   0  0  0  0  0  0  0  0  0  0  0  0
  -22.5810   65.4152  -36.2808 C   0  0  0  0  0  0  0  0  0  0  0  0
  -17.4145   68.0955  -38.6114 C   0  0  0  0  0  0  0  0  0  0  0  0
  -19.7243   68.0167  -37.9057 N   0  0  0  0  0  0  0  0  0  0  0  0
  -16.2739   67.7180  -38.0890 O   0  0  0  0  0  0  0  0  0  0  0  0
  -16.0385   65.5640  -42.9915 F   0  0  0  0  0  0  0  0  0  0  0  0
  -15.4342   62.6347  -39.3567 F   0  0  0  0  0  0  0  0  0  0  0  0
  -18.5323   67.2428  -38.3224 C   0  0  1  0  0  0  0  0  0  0  0  0
  -18.9208   66.0875  -39.1294 C   0  0  0  0  0  0  0  0  0  0  0  0
  -17.8529   65.3317  -39.7999 C   0  0  0  0  0  0  0  0  0  0  0  0
  -15.7212   64.0955  -41.1988 C   0  0  0  0  0  0  0  0  0  0  0  0
  -17.4448   65.7445  -41.0811 C   0  0  0  0  0  0  0  0  0  0  0  0
  -17.1428   64.2833  -39.2716 C   0  0  0  0  0  0  0  0  0  0  0  0
  -16.4097   65.1423  -41.7577 C   0  0  0  0  0  0  0  0  0  0  0  0
  -16.0915   63.6620  -39.9429 C   0  0  0  0  0  0  0  0  0  0  0  0
  -17.3061   69.2801  -39.3639 N   0  0  0  0  0  0  0  0  0  0  0  0
  -18.4458   70.1505  -39.6405 C   0  0  2  0  0  0  0  0  0  0  0  0
  -18.2638   71.0937  -40.7414 C   0  0  0  0  0  0  0  0  0  0  0  0
  -18.5597   72.3302  -40.4818 O   0  0  0  0  0  0  0  0  0  0  0  0
  -18.8651   70.7946  -38.3698 C   0  0  2  0  0  0  0  0  0  0  0  0
  -18.7716   72.1840  -38.3381 O   0  0  0  0  0  0  0  0  0  0  0  0
  -17.8150   70.8582  -42.0520 N   0  0  0  0  0  0  0  0  0  0  0  0
  -16.5684   70.2897  -42.4756 C   0  0  2  0  0  0  0  0  0  0  0  0
  -15.7333   71.1698  -43.3331 C   0  0  0  0  0  0  0  0  0  0  0  0
  -14.8691   70.5026  -44.0242 O   0  0  0  0  0  0  0  0  0  0  0  0
  -17.1420   69.2722  -43.5041 C   0  0  0  0  0  0  0  0  0  0  0  0
  -18.0854   70.1872  -44.2014 C   0  0  0  0  0  0  0  0  0  0  0  0
  -18.4737   71.1172  -43.3301 C   0  0  0  0  0  0  0  0  0  0  0  0
  -15.2132   72.8748  -41.1012 C   0  0  0  0  0  0  0  0  0  0  0  0
  -15.7801   72.5678  -43.4672 N   0  0  0  0  0  0  0  0  0  0  0  0
  -14.3864   71.9001  -41.2949 O   0  0  0  0  0  0  0  0  0  0  0  0
  -15.6030   73.5245  -42.3571 C   0  0  1  0  0  0  0  0  0  0  0  0
  -16.8263   74.3565  -42.3485 C   0  0  0  0  0  0  0  0  0  0  0  0
  -15.7502   74.7021  -44.5771 C   0  0  0  0  0  0  0  0  0  0  0  0
  -16.0166   73.2283  -44.7511 C   0  0  0  0  0  0  0  0  0  0  0  0
  -16.6569   75.3431  -43.5233 C   0  0  0  0  0  0  0  0  0  0  0  0
  -15.6057   73.1658  -39.7905 N   0  0  0  0  0  0  0  0  0  0  0  0
  -15.3563   74.3746  -39.0348 C   0  0  2  0  0  0  0  0  0  0  0  0
  -16.5931   74.9029  -38.4400 C   0  0  0  0  0  0  0  0  0  0  0  0
  -17.0247   75.9859  -38.9590 O   0  0  0  0  0  0  0  0  0  0  0  0
  -14.5649   75.4127  -39.7729 C   0  0  0  0  0  0  0  0  0  0  0  0
  -18.2208   72.0741  -37.0540 C   0  0  0  0  0  0  0  0  0  0  0  0
  -17.3264   74.3438  -37.3818 N   0  0  0  0  0  0  0  0  0  0  0  0
  -19.1568   71.9953  -36.0233 O   0  0  0  0  0  0  0  0  0  0  0  0
  -17.1240   73.0482  -36.7716 C   0  0  1  0  0  0  0  0  0  0  0  0
  -17.1871   73.4159  -35.2653 C   0  0  0  0  0  0  0  0  0  0  0  0
  -18.4570   74.8942  -36.6078 C   0  0  0  0  0  0  0  0  0  0  0  0
  -16.8195   75.8338  -35.0906 C   0  0  0  0  0  0  0  0  0  0  0  0
  -17.8745   74.7523  -35.2034 C   0  0  2  0  0  0  0  0  0  0  0  0
  -17.8086   70.8077  -37.4172 O   0  0  0  0  0  0  0  0  0  0  0  0
  1  2  2  0
  1  3  1  0
 12  1  1  0
  3  4  1  0
  4  5  2  0
  4 10  1  0
  5  6  1  0
  6  7  2  0
  7  8  1  0
  9  7  1  0
 10  9  2  0
 11 13  2  0
 11 16  1  0
 24 11  1  0
 16 12  1  0
 22 14  1  0
 23 15  1  0
 16 17  1  6
 17 18  1  0
 18 20  2  0
 18 21  1  0
 22 19  2  0
 23 19  1  0
 20 22  1  0
 21 23  2  0
 25 24  1  1
 26 25  1  0
 25 28  1  0
 26 27  2  0
 30 26  1  0
 28 29  1  6
 28 58  1  0
 29 50  1  0
 31 30  1  0
 30 36  1  0
 32 31  1  0
 31 34  1  6
 32 33  2  0
 38 32  1  0
 34 35  1  0
 35 36  2  0
 37 39  2  0
 40 37  1  0
 37 45  1  0
 38 40  1  0
 38 43  1  0
 40 41  1  1
 41 44  1  0
 43 42  1  0
 42 44  1  0
 45 46  1  0
 46 47  1  0
 46 49  1  6
 47 48  2  0
 47 51  1  0
 50 52  1  0
 50 53  1  0
 50 58  1  0
 51 53  1  0
 51 55  1  0
 53 54  1  1
 54 57  1  0
 55 57  1  0
 57 56  1  6
M  END
$$$$
