
     RDKit          3D

 58 64  0  0  0  0  0  0  0  0999 V2000
  -18.6536   64.5237  -39.0864 C   0  0  0  0  0  0  0  0  0  0  0  0
  -18.0289   64.0955  -38.0541 O   0  0  0  0  0  0  0  0  0  0  0  0
  -18.9838   63.5778  -40.0865 N   0  0  0  0  0  0  0  0  0  0  0  0
  -18.5780   62.2172  -39.9763 C   0  0  0  0  0  0  0  0  0  0  0  0
  -17.4074   61.8324  -39.3676 C   0  0  0  0  0  0  0  0  0  0  0  0
  -17.0229   60.5194  -39.2758 C   0  0  0  0  0  0  0  0  0  0  0  0
  -17.8158   59.4877  -39.8051 C   0  0  0  0  0  0  0  0  0  0  0  0
  -17.4011   58.0625  -39.7083 C   0  0  0  0  0  0  0  0  0  0  0  0
  -18.9847   59.8807  -40.4129 C   0  0  0  0  0  0  0  0  0  0  0  0
  -19.3748   61.1944  -40.5078 C   0  0  0  0  0  0  0  0  0  0  0  0
  -17.4767   67.7194  -38.5987 C   0  0  0  0  0  0  0  0  0  0  0  0
  -18.9576   65.8883  -39.1401 N   0  0  0  0  0  0  0  0  0  0  0  0
  -16.3603   67.0937  -38.8787 O   0  0  0  0  0  0  0  0  0  0  0  0
  -21.6174   62.6940  -35.6123 F   0  0  0  0  0  0  0  0  0  0  0  0
  -23.0598   67.1092  -34.8488 F   0  0  0  0  0  0  0  0  0  0  0  0
  -18.5443   66.8848  -38.1256 C   0  0  1  0  0  0  0  0  0  0  0  0
  -18.6141   66.3150  -36.7811 C   0  0  0  0  0  0  0  0  0  0  0  0
  -19.9323   65.8941  -36.2847 C   0  0  0  0  0  0  0  0  0  0  0  0
  -22.3569   64.8792  -35.2261 C   0  0  0  0  0  0  0  0  0  0  0  0
  -20.2056   64.5171  -36.1982 C   0  0  0  0  0  0  0  0  0  0  0  0
  -20.9266   66.7162  -35.8180 C   0  0  0  0  0  0  0  0  0  0  0  0
  -21.3836   64.0274  -35.6839 C   0  0  0  0  0  0  0  0  0  0  0  0
  -22.1257   66.2373  -35.2936 C   0  0  0  0  0  0  0  0  0  0  0  0
  -17.3982   69.1063  -38.8256 N   0  0  0  0  0  0  0  0  0  0  0  0
  -18.5248   69.8939  -39.3191 C   0  0  2  0  0  0  0  0  0  0  0  0
  -18.1733   71.0336  -40.1631 C   0  0  0  0  0  0  0  0  0  0  0  0
  -18.7146   72.1670  -39.8373 O   0  0  0  0  0  0  0  0  0  0  0  0
  -19.3886   70.2530  -38.1658 C   0  0  2  0  0  0  0  0  0  0  0  0
  -19.5186   71.6162  -37.9107 O   0  0  0  0  0  0  0  0  0  0  0  0
  -17.3315   71.0844  -41.2870 N   0  0  0  0  0  0  0  0  0  0  0  0
  -15.9448   70.7292  -41.3752 C   0  0  2  0  0  0  0  0  0  0  0  0
  -15.0381   71.8287  -41.7952 C   0  0  0  0  0  0  0  0  0  0  0  0
  -13.9197   71.3870  -42.2683 O   0  0  0  0  0  0  0  0  0  0  0  0
  -16.0333   69.8616  -42.6642 C   0  0  0  0  0  0  0  0  0  0  0  0
  -16.8585   70.7884  -43.4851 C   0  0  0  0  0  0  0  0  0  0  0  0
  -17.6195   71.5023  -42.6570 C   0  0  0  0  0  0  0  0  0  0  0  0
  -15.4548   73.1465  -39.2956 C   0  0  0  0  0  0  0  0  0  0  0  0
  -15.2534   73.2161  -41.7385 N   0  0  0  0  0  0  0  0  0  0  0  0
  -14.4707   72.3105  -39.3564 O   0  0  0  0  0  0  0  0  0  0  0  0
  -15.5541   73.9697  -40.5054 C   0  0  1  0  0  0  0  0  0  0  0  0
  -16.8372   74.6599  -40.7625 C   0  0  0  0  0  0  0  0  0  0  0  0
  -15.2222   75.5077  -42.4705 C   0  0  0  0  0  0  0  0  0  0  0  0
  -15.2013   74.0703  -42.9252 C   0  0  0  0  0  0  0  0  0  0  0  0
  -16.4826   75.8540  -41.6739 C   0  0  0  0  0  0  0  0  0  0  0  0
  -16.2519   73.1556  -38.1461 N   0  0  0  0  0  0  0  0  0  0  0  0
  -16.4188   74.2272  -37.1877 C   0  0  2  0  0  0  0  0  0  0  0  0
  -17.8401   74.5130  -36.9413 C   0  0  0  0  0  0  0  0  0  0  0  0
  -18.2592   75.6231  -37.4109 O   0  0  0  0  0  0  0  0  0  0  0  0
  -15.6120   75.4552  -37.4870 C   0  0  0  0  0  0  0  0  0  0  0  0
  -19.3567   71.3322  -36.5478 C   0  0  0  0  0  0  0  0  0  0  0  0
  -18.7576   73.7018  -36.2556 N   0  0  0  0  0  0  0  0  0  0  0  0
  -20.5298   70.9755  -35.8836 O   0  0  0  0  0  0  0  0  0  0  0  0
  -18.5497   72.3442  -35.8020 C   0  0  1  0  0  0  0  0  0  0  0  0
  -19.1043   72.4260  -34.3550 C   0  0  0  0  0  0  0  0  0  0  0  0
  -20.1342   73.9876  -35.8045 C   0  0  0  0  0  0  0  0  0  0  0  0
  -19.1718   74.7972  -33.7348 C   0  0  0  0  0  0  0  0  0  0  0  0
  -19.9727   73.6537  -34.3233 C   0  0  2  0  0  0  0  0  0  0  0  0
  -18.6709   70.1998  -36.9387 O   0  0  0  0  0  0  0  0  0  0  0  0
  1  2  2  0
  1  3  1  0
 12  1  1  0
  3  4  1  0
  4  5  2  0
  4 10  1  0
  5  6  1  0
  6  7  2  0
  7  8  1  0
  9  7  1  0
 10  9  2  0
 11 13  2  0
 11 16  1  0
 24 11  1  0
 16 12  1  0
 22 14  1  0
 23 15  1  0
 16 17  1  1
 17 18  1  0
 18 20  2  0
 18 21  1  0
 22 19  2  0
 23 19  1  0
 20 22  1  0
 21 23  2  0
 25 24  1  1
 26 25  1  0
 25 28  1  0
 26 27  2  0
 30 26  1  0
 28 29  1  6
 28 58  1  0
 29 50  1  0
 31 30  1  0
 30 36  1  0
 32 31  1  0
 31 34  1  6
 32 33  2  0
 38 32  1  0
 34 35  1  0
 35 36  2  0
 37 39  2  0
 40 37  1  0
 37 45  1  0
 38 40  1  0
 38 43  1  0
 40 41  1  6
 41 44  1  0
 43 42  1  0
 42 44  1  0
 45 46  1  0
 46 47  1  0
 46 49  1  6
 47 48  2  0
 47 51  1  0
 50 52  1  0
 50 53  1  0
 50 58  1  0
 51 53  1  0
 51 55  1  0
 53 54  1  1
 54 57  1  0
 55 57  1  0
 57 56  1  1
M  END
$$$$
