
     RDKit          3D

 58 64  0  0  0  0  0  0  0  0999 V2000
  -19.2231   67.4099  -38.8732 C   0  0  0  0  0  0  0  0  0  0  0  0
  -18.6678   67.5329  -37.7262 O   0  0  0  0  0  0  0  0  0  0  0  0
  -19.1730   66.1355  -39.4876 N   0  0  0  0  0  0  0  0  0  0  0  0
  -18.3929   65.0807  -38.9335 C   0  0  0  0  0  0  0  0  0  0  0  0
  -18.3889   63.8049  -39.4445 C   0  0  0  0  0  0  0  0  0  0  0  0
  -17.6404   62.7952  -38.8964 C   0  0  0  0  0  0  0  0  0  0  0  0
  -16.8290   63.0159  -37.7711 C   0  0  0  0  0  0  0  0  0  0  0  0
  -16.0168   61.9225  -37.1733 C   0  0  0  0  0  0  0  0  0  0  0  0
  -16.8390   64.2944  -37.2655 C   0  0  0  0  0  0  0  0  0  0  0  0
  -17.5868   65.3096  -37.8105 C   0  0  0  0  0  0  0  0  0  0  0  0
  -20.3094   70.7952  -38.6887 C   0  0  0  0  0  0  0  0  0  0  0  0
  -19.8326   68.5429  -39.4230 N   0  0  0  0  0  0  0  0  0  0  0  0
  -20.6588   71.5081  -39.7309 O   0  0  0  0  0  0  0  0  0  0  0  0
  -23.1313   64.7055  -35.5549 F   0  0  0  0  0  0  0  0  0  0  0  0
  -22.2023   64.6893  -40.1696 F   0  0  0  0  0  0  0  0  0  0  0  0
  -20.7659   69.4344  -38.6968 C   0  0  1  0  0  0  0  0  0  0  0  0
  -21.3433   68.7495  -37.5416 C   0  0  0  0  0  0  0  0  0  0  0  0
  -21.7373   67.3429  -37.7074 C   0  0  0  0  0  0  0  0  0  0  0  0
  -22.6752   64.6728  -37.8489 C   0  0  0  0  0  0  0  0  0  0  0  0
  -22.2179   66.6464  -36.5839 C   0  0  0  0  0  0  0  0  0  0  0  0
  -21.7547   66.6358  -38.8831 C   0  0  0  0  0  0  0  0  0  0  0  0
  -22.6724   65.3502  -36.6557 C   0  0  0  0  0  0  0  0  0  0  0  0
  -22.2120   65.3226  -38.9738 C   0  0  0  0  0  0  0  0  0  0  0  0
  -19.5461   71.5247  -37.7580 N   0  0  0  0  0  0  0  0  0  0  0  0
  -18.5669   70.8999  -36.8726 C   0  0  2  0  0  0  0  0  0  0  0  0
  -18.1442   71.7094  -35.7319 C   0  0  0  0  0  0  0  0  0  0  0  0
  -16.8628   71.8164  -35.5582 O   0  0  0  0  0  0  0  0  0  0  0  0
  -17.4376   70.4008  -37.6977 C   0  0  2  0  0  0  0  0  0  0  0  0
  -16.1962   70.9734  -37.4308 O   0  0  0  0  0  0  0  0  0  0  0  0
  -18.9261   72.3924  -34.7851 N   0  0  0  0  0  0  0  0  0  0  0  0
  -19.9031   73.4173  -35.0126 C   0  0  2  0  0  0  0  0  0  0  0  0
  -19.6187   74.7172  -34.3517 C   0  0  0  0  0  0  0  0  0  0  0  0
  -20.6806   75.4413  -34.2188 O   0  0  0  0  0  0  0  0  0  0  0  0
  -21.0332   72.8305  -34.1177 C   0  0  0  0  0  0  0  0  0  0  0  0
  -20.2098   72.5146  -32.9195 C   0  0  0  0  0  0  0  0  0  0  0  0
  -18.9690   72.2577  -33.3309 C   0  0  0  0  0  0  0  0  0  0  0  0
  -17.4365   75.1649  -36.1395 C   0  0  0  0  0  0  0  0  0  0  0  0
  -18.3915   75.2144  -33.8814 N   0  0  0  0  0  0  0  0  0  0  0  0
  -18.5936   75.6058  -36.5107 O   0  0  0  0  0  0  0  0  0  0  0  0
  -17.1873   75.4035  -34.7140 C   0  0  1  0  0  0  0  0  0  0  0  0
  -16.1225   74.6104  -34.0612 C   0  0  0  0  0  0  0  0  0  0  0  0
  -16.8581   76.3181  -32.3919 C   0  0  0  0  0  0  0  0  0  0  0  0
  -18.1812   75.6013  -32.4862 C   0  0  0  0  0  0  0  0  0  0  0  0
  -15.6832   75.4449  -32.8394 C   0  0  0  0  0  0  0  0  0  0  0  0
  -16.6188   74.5518  -37.0946 N   0  0  0  0  0  0  0  0  0  0  0  0
  -15.3284   74.9951  -37.5774 C   0  0  2  0  0  0  0  0  0  0  0  0
  -14.3308   73.9165  -37.5163 C   0  0  0  0  0  0  0  0  0  0  0  0
  -13.4238   74.0663  -36.6311 O   0  0  0  0  0  0  0  0  0  0  0  0
  -14.8489   76.2792  -36.9692 C   0  0  0  0  0  0  0  0  0  0  0  0
  -15.9892   71.0638  -38.8140 C   0  0  0  0  0  0  0  0  0  0  0  0
  -14.2815   72.7660  -38.3188 N   0  0  0  0  0  0  0  0  0  0  0  0
  -15.4645   69.9128  -39.4010 O   0  0  0  0  0  0  0  0  0  0  0  0
  -15.2905   72.3102  -39.2496 C   0  0  1  0  0  0  0  0  0  0  0  0
  -14.4193   71.9629  -40.4859 C   0  0  0  0  0  0  0  0  0  0  0  0
  -13.2286   71.7396  -38.4530 C   0  0  0  0  0  0  0  0  0  0  0  0
  -12.2695   73.1082  -40.2058 C   0  0  0  0  0  0  0  0  0  0  0  0
  -13.0168   71.8129  -39.9634 C   0  0  2  0  0  0  0  0  0  0  0  0
  -17.3632   71.0786  -38.9463 O   0  0  0  0  0  0  0  0  0  0  0  0
  1  2  2  0
  1  3  1  0
 12  1  1  0
  3  4  1  0
  4  5  2  0
  4 10  1  0
  5  6  1  0
  6  7  2  0
  7  8  1  0
  9  7  1  0
 10  9  2  0
 11 13  2  0
 11 16  1  0
 24 11  1  0
 16 12  1  0
 22 14  1  0
 23 15  1  0
 16 17  1  1
 17 18  1  0
 18 20  2  0
 18 21  1  0
 22 19  2  0
 23 19  1  0
 20 22  1  0
 21 23  2  0
 25 24  1  6
 26 25  1  0
 25 28  1  0
 26 27  2  0
 30 26  1  0
 28 29  1  1
 28 58  1  0
 29 50  1  0
 31 30  1  0
 30 36  1  0
 32 31  1  0
 31 34  1  1
 32 33  2  0
 38 32  1  0
 34 35  1  0
 35 36  2  0
 37 39  2  0
 40 37  1  0
 37 45  1  0
 38 40  1  0
 38 43  1  0
 40 41  1  1
 41 44  1  0
 43 42  1  0
 42 44  1  0
 45 46  1  0
 46 47  1  0
 46 49  1  1
 47 48  2  0
 47 51  1  0
 50 52  1  0
 50 53  1  0
 50 58  1  0
 51 53  1  0
 51 55  1  0
 53 54  1  6
 54 57  1  0
 55 57  1  0
 57 56  1  1
M  END
$$$$
