
     RDKit          3D

 58 64  0  0  0  0  0  0  0  0999 V2000
  -17.4642   66.7129  -40.1124 C   0  0  0  0  0  0  0  0  0  0  0  0
  -18.1296   67.7163  -40.5476 O   0  0  0  0  0  0  0  0  0  0  0  0
  -17.1244   65.7030  -41.0446 N   0  0  0  0  0  0  0  0  0  0  0  0
  -17.4080   65.8556  -42.4318 C   0  0  0  0  0  0  0  0  0  0  0  0
  -17.9797   66.9890  -42.9585 C   0  0  0  0  0  0  0  0  0  0  0  0
  -18.2565   67.1205  -44.2950 C   0  0  0  0  0  0  0  0  0  0  0  0
  -17.9658   66.0911  -45.2056 C   0  0  0  0  0  0  0  0  0  0  0  0
  -18.2659   66.2300  -46.6558 C   0  0  0  0  0  0  0  0  0  0  0  0
  -17.3948   64.9605  -44.6710 C   0  0  0  0  0  0  0  0  0  0  0  0
  -17.1154   64.8234  -43.3330 C   0  0  0  0  0  0  0  0  0  0  0  0
  -16.5071   68.8196  -37.7791 C   0  0  0  0  0  0  0  0  0  0  0  0
  -17.1283   66.6977  -38.7543 N   0  0  0  0  0  0  0  0  0  0  0  0
  -15.3234   68.4869  -37.3270 O   0  0  0  0  0  0  0  0  0  0  0  0
  -22.7730   66.0127  -37.0029 F   0  0  0  0  0  0  0  0  0  0  0  0
  -19.5709   62.5959  -37.4821 F   0  0  0  0  0  0  0  0  0  0  0  0
  -17.4787   67.7631  -37.7871 C   0  0  1  0  0  0  0  0  0  0  0  0
  -18.0899   67.1934  -36.5876 C   0  0  0  0  0  0  0  0  0  0  0  0
  -19.1042   66.1448  -36.7695 C   0  0  0  0  0  0  0  0  0  0  0  0
  -21.2004   64.2979  -37.2424 C   0  0  0  0  0  0  0  0  0  0  0  0
  -20.4599   66.5196  -36.7738 C   0  0  0  0  0  0  0  0  0  0  0  0
  -18.8661   64.8155  -37.0118 C   0  0  0  0  0  0  0  0  0  0  0  0
  -21.4753   65.6207  -37.0036 C   0  0  0  0  0  0  0  0  0  0  0  0
  -19.8824   63.8915  -37.2469 C   0  0  0  0  0  0  0  0  0  0  0  0
  -16.5829   70.1688  -38.1728 N   0  0  0  0  0  0  0  0  0  0  0  0
  -17.8061   70.7759  -38.6910 C   0  0  2  0  0  0  0  0  0  0  0  0
  -17.6964   72.1813  -39.0753 C   0  0  0  0  0  0  0  0  0  0  0  0
  -18.6050   72.9722  -38.5930 O   0  0  0  0  0  0  0  0  0  0  0  0
  -18.9076   70.5067  -37.7320 C   0  0  2  0  0  0  0  0  0  0  0  0
  -19.4902   71.6306  -37.1513 O   0  0  0  0  0  0  0  0  0  0  0  0
  -16.7467   72.8085  -39.8992 N   0  0  0  0  0  0  0  0  0  0  0  0
  -15.3222   72.8530  -39.7388 C   0  0  2  0  0  0  0  0  0  0  0  0
  -14.7453   74.2155  -39.6038 C   0  0  0  0  0  0  0  0  0  0  0  0
  -13.4858   74.2443  -39.8907 O   0  0  0  0  0  0  0  0  0  0  0  0
  -14.9360   72.4725  -41.1976 C   0  0  0  0  0  0  0  0  0  0  0  0
  -15.8682   73.3892  -41.9078 C   0  0  0  0  0  0  0  0  0  0  0  0
  -16.9320   73.5767  -41.1281 C   0  0  0  0  0  0  0  0  0  0  0  0
  -15.9336   74.4781  -37.0197 C   0  0  0  0  0  0  0  0  0  0  0  0
  -15.3846   75.4071  -39.2217 N   0  0  0  0  0  0  0  0  0  0  0  0
  -14.7427   73.9774  -37.0651 O   0  0  0  0  0  0  0  0  0  0  0  0
  -16.0920   75.6076  -37.9417 C   0  0  1  0  0  0  0  0  0  0  0  0
  -17.4688   76.0089  -38.3054 C   0  0  0  0  0  0  0  0  0  0  0  0
  -15.9485   77.7455  -39.2630 C   0  0  0  0  0  0  0  0  0  0  0  0
  -15.4141   76.5941  -40.0766 C   0  0  0  0  0  0  0  0  0  0  0  0
  -17.3625   77.4871  -38.7365 C   0  0  0  0  0  0  0  0  0  0  0  0
  -16.8638   73.9077  -36.1444 N   0  0  0  0  0  0  0  0  0  0  0  0
  -17.5009   74.5221  -34.9993 C   0  0  2  0  0  0  0  0  0  0  0  0
  -18.9612   74.3533  -35.0403 C   0  0  0  0  0  0  0  0  0  0  0  0
  -19.6238   75.4186  -35.2738 O   0  0  0  0  0  0  0  0  0  0  0  0
  -17.0763   75.9369  -34.7412 C   0  0  0  0  0  0  0  0  0  0  0  0
  -19.4635   70.9561  -35.9230 C   0  0  0  0  0  0  0  0  0  0  0  0
  -19.6786   73.1617  -34.8516 N   0  0  0  0  0  0  0  0  0  0  0  0
  -20.5578   70.1232  -35.6919 O   0  0  0  0  0  0  0  0  0  0  0  0
  -19.1352   71.8249  -34.7531 C   0  0  1  0  0  0  0  0  0  0  0  0
  -19.9069   71.2805  -33.5217 C   0  0  0  0  0  0  0  0  0  0  0  0
  -21.1289   72.9353  -34.6914 C   0  0  0  0  0  0  0  0  0  0  0  0
  -20.7991   73.2154  -32.3085 C   0  0  0  0  0  0  0  0  0  0  0  0
  -21.1056   72.1757  -33.3671 C   0  0  2  0  0  0  0  0  0  0  0  0
  -18.4093   70.2231  -36.4301 O   0  0  0  0  0  0  0  0  0  0  0  0
  1  2  2  0
  1  3  1  0
 12  1  1  0
  3  4  1  0
  4  5  2  0
  4 10  1  0
  5  6  1  0
  6  7  2  0
  7  8  1  0
  9  7  1  0
 10  9  2  0
 11 13  2  0
 11 16  1  0
 24 11  1  0
 16 12  1  0
 22 14  1  0
 23 15  1  0
 16 17  1  1
 17 18  1  0
 18 20  2  0
 18 21  1  0
 22 19  2  0
 23 19  1  0
 20 22  1  0
 21 23  2  0
 25 24  1  1
 26 25  1  0
 25 28  1  0
 26 27  2  0
 30 26  1  0
 28 29  1  1
 28 58  1  0
 29 50  1  0
 31 30  1  0
 30 36  1  0
 32 31  1  0
 31 34  1  6
 32 33  2  0
 38 32  1  0
 34 35  1  0
 35 36  2  0
 37 39  2  0
 40 37  1  0
 37 45  1  0
 38 40  1  0
 38 43  1  0
 40 41  1  6
 41 44  1  0
 43 42  1  0
 42 44  1  0
 45 46  1  0
 46 47  1  0
 46 49  1  6
 47 48  2  0
 47 51  1  0
 50 52  1  0
 50 53  1  0
 50 58  1  0
 51 53  1  0
 51 55  1  0
 53 54  1  1
 54 57  1  0
 55 57  1  0
 57 56  1  1
M  END
$$$$
