
     RDKit          3D

 58 64  0  0  0  0  0  0  0  0999 V2000
  -18.1066   66.0636  -40.4533 C   0  0  0  0  0  0  0  0  0  0  0  0
  -18.6793   65.4810  -41.4391 O   0  0  0  0  0  0  0  0  0  0  0  0
  -17.8707   65.2930  -39.2893 N   0  0  0  0  0  0  0  0  0  0  0  0
  -18.2336   63.9172  -39.2306 C   0  0  0  0  0  0  0  0  0  0  0  0
  -18.9713   63.2955  -40.2095 C   0  0  0  0  0  0  0  0  0  0  0  0
  -19.3225   61.9720  -40.1372 C   0  0  0  0  0  0  0  0  0  0  0  0
  -18.9412   61.1739  -39.0459 C   0  0  0  0  0  0  0  0  0  0  0  0
  -19.3215   59.7382  -38.9638 C   0  0  0  0  0  0  0  0  0  0  0  0
  -18.2041   61.8032  -38.0708 C   0  0  0  0  0  0  0  0  0  0  0  0
  -17.8495   63.1286  -38.1379 C   0  0  0  0  0  0  0  0  0  0  0  0
  -17.9008   69.8070  -40.3292 C   0  0  0  0  0  0  0  0  0  0  0  0
  -17.7620   67.4107  -40.6079 N   0  0  0  0  0  0  0  0  0  0  0  0
  -17.2079   69.8415  -41.4405 O   0  0  0  0  0  0  0  0  0  0  0  0
  -23.3582   67.8367  -40.9811 F   0  0  0  0  0  0  0  0  0  0  0  0
  -22.9361   65.9185  -36.7032 F   0  0  0  0  0  0  0  0  0  0  0  0
  -18.5183   68.5460  -40.0315 C   0  0  1  0  0  0  0  0  0  0  0  0
  -19.0794   68.1873  -38.7301 C   0  0  0  0  0  0  0  0  0  0  0  0
  -20.4837   67.7543  -38.6870 C   0  0  0  0  0  0  0  0  0  0  0  0
  -23.1731   66.8782  -38.8555 C   0  0  0  0  0  0  0  0  0  0  0  0
  -21.2956   68.0062  -39.8076 C   0  0  0  0  0  0  0  0  0  0  0  0
  -21.0877   67.0508  -37.6758 C   0  0  0  0  0  0  0  0  0  0  0  0
  -22.6009   67.5797  -39.8865 C   0  0  0  0  0  0  0  0  0  0  0  0
  -22.4085   66.6108  -37.7392 C   0  0  0  0  0  0  0  0  0  0  0  0
  -17.8983   71.0369  -39.6446 N   0  0  0  0  0  0  0  0  0  0  0  0
  -18.8415   71.3504  -38.5745 C   0  0  2  0  0  0  0  0  0  0  0  0
  -18.9887   72.7702  -38.2623 C   0  0  0  0  0  0  0  0  0  0  0  0
  -18.8832   73.0874  -37.0084 O   0  0  0  0  0  0  0  0  0  0  0  0
  -18.5082   70.5140  -37.3936 C   0  0  2  0  0  0  0  0  0  0  0  0
  -18.1353   71.2107  -36.2466 O   0  0  0  0  0  0  0  0  0  0  0  0
  -19.2326   73.8520  -39.1251 N   0  0  0  0  0  0  0  0  0  0  0  0
  -18.4501   74.2899  -40.2443 C   0  0  2  0  0  0  0  0  0  0  0  0
  -17.9316   75.6788  -40.1460 C   0  0  0  0  0  0  0  0  0  0  0  0
  -17.6220   76.1684  -41.3010 O   0  0  0  0  0  0  0  0  0  0  0  0
  -19.6142   74.4420  -41.2659 C   0  0  0  0  0  0  0  0  0  0  0  0
  -20.5663   75.1787  -40.3917 C   0  0  0  0  0  0  0  0  0  0  0  0
  -20.3282   74.8186  -39.1314 C   0  0  0  0  0  0  0  0  0  0  0  0
  -16.1371   74.8775  -38.0733 C   0  0  0  0  0  0  0  0  0  0  0  0
  -17.7537   76.4718  -38.9997 N   0  0  0  0  0  0  0  0  0  0  0  0
  -15.6982   74.7985  -39.2867 O   0  0  0  0  0  0  0  0  0  0  0  0
  -16.9104   76.1028  -37.8457 C   0  0  1  0  0  0  0  0  0  0  0  0
  -17.8063   76.1403  -36.6689 C   0  0  0  0  0  0  0  0  0  0  0  0
  -17.7996   78.4477  -37.6280 C   0  0  0  0  0  0  0  0  0  0  0  0
  -18.4038   77.7718  -38.8328 C   0  0  0  0  0  0  0  0  0  0  0  0
  -17.9889   77.6378  -36.3429 C   0  0  0  0  0  0  0  0  0  0  0  0
  -15.8329   73.8402  -37.1854 N   0  0  0  0  0  0  0  0  0  0  0  0
  -15.0354   73.9067  -35.9795 C   0  0  2  0  0  0  0  0  0  0  0  0
  -15.7406   73.3127  -34.8338 C   0  0  0  0  0  0  0  0  0  0  0  0
  -16.1334   74.1440  -33.9487 O   0  0  0  0  0  0  0  0  0  0  0  0
  -14.4700   75.2643  -35.6865 C   0  0  0  0  0  0  0  0  0  0  0  0
  -17.1013   70.2811  -36.0707 C   0  0  0  0  0  0  0  0  0  0  0  0
  -16.0163   71.9524  -34.6255 N   0  0  0  0  0  0  0  0  0  0  0  0
  -17.4702   69.1214  -35.3897 O   0  0  0  0  0  0  0  0  0  0  0  0
  -15.8248   70.8713  -35.5672 C   0  0  1  0  0  0  0  0  0  0  0  0
  -15.1307   69.8137  -34.6685 C   0  0  0  0  0  0  0  0  0  0  0  0
  -16.5442   71.2563  -33.4351 C   0  0  0  0  0  0  0  0  0  0  0  0
  -14.2496   70.9915  -32.7068 C   0  0  0  0  0  0  0  0  0  0  0  0
  -15.4351   70.2226  -33.2534 C   0  0  2  0  0  0  0  0  0  0  0  0
  -17.1579   70.0681  -37.4334 O   0  0  0  0  0  0  0  0  0  0  0  0
  1  2  2  0
  1  3  1  0
 12  1  1  0
  3  4  1  0
  4  5  2  0
  4 10  1  0
  5  6  1  0
  6  7  2  0
  7  8  1  0
  9  7  1  0
 10  9  2  0
 11 13  2  0
 11 16  1  0
 24 11  1  0
 16 12  1  0
 22 14  1  0
 23 15  1  0
 16 17  1  1
 17 18  1  0
 18 20  2  0
 18 21  1  0
 22 19  2  0
 23 19  1  0
 20 22  1  0
 21 23  2  0
 25 24  1  6
 26 25  1  0
 25 28  1  0
 26 27  2  0
 30 26  1  0
 28 29  1  1
 28 58  1  0
 29 50  1  0
 31 30  1  0
 30 36  1  0
 32 31  1  0
 31 34  1  6
 32 33  2  0
 38 32  1  0
 34 35  1  0
 35 36  2  0
 37 39  2  0
 40 37  1  0
 37 45  1  0
 38 40  1  0
 38 43  1  0
 40 41  1  1
 41 44  1  0
 43 42  1  0
 42 44  1  0
 45 46  1  0
 46 47  1  0
 46 49  1  1
 47 48  2  0
 47 51  1  0
 50 52  1  0
 50 53  1  0
 50 58  1  0
 51 53  1  0
 51 55  1  0
 53 54  1  1
 54 57  1  0
 55 57  1  0
 57 56  1  6
M  END
$$$$
