
     RDKit          3D

 58 64  0  0  0  0  0  0  0  0999 V2000
  -18.1354   66.1238  -38.6058 C   0  0  0  0  0  0  0  0  0  0  0  0
  -17.3674   66.6520  -39.4833 O   0  0  0  0  0  0  0  0  0  0  0  0
  -18.9249   65.0207  -39.0107 N   0  0  0  0  0  0  0  0  0  0  0  0
  -18.5135   64.1730  -40.0785 C   0  0  0  0  0  0  0  0  0  0  0  0
  -19.1560   62.9992  -40.3922 C   0  0  0  0  0  0  0  0  0  0  0  0
  -18.7447   62.1865  -41.4172 C   0  0  0  0  0  0  0  0  0  0  0  0
  -17.6324   62.5164  -42.2092 C   0  0  0  0  0  0  0  0  0  0  0  0
  -17.1828   61.6364  -43.3210 C   0  0  0  0  0  0  0  0  0  0  0  0
  -16.9948   63.6915  -41.8887 C   0  0  0  0  0  0  0  0  0  0  0  0
  -17.4024   64.5094  -40.8631 C   0  0  0  0  0  0  0  0  0  0  0  0
  -17.5385   68.9870  -36.9175 C   0  0  0  0  0  0  0  0  0  0  0  0
  -18.1307   66.6794  -37.3217 N   0  0  0  0  0  0  0  0  0  0  0  0
  -16.4141   68.5205  -36.4333 O   0  0  0  0  0  0  0  0  0  0  0  0
  -20.5178   63.3528  -34.8236 F   0  0  0  0  0  0  0  0  0  0  0  0
  -23.9085   65.6493  -37.1448 F   0  0  0  0  0  0  0  0  0  0  0  0
  -18.6140   68.0394  -36.9897 C   0  0  1  0  0  0  0  0  0  0  0  0
  -19.7257   67.9771  -36.0424 C   0  0  0  0  0  0  0  0  0  0  0  0
  -20.6072   66.8020  -36.0992 C   0  0  0  0  0  0  0  0  0  0  0  0
  -22.2159   64.4725  -35.9786 C   0  0  0  0  0  0  0  0  0  0  0  0
  -20.1769   65.6131  -35.4830 C   0  0  0  0  0  0  0  0  0  0  0  0
  -21.8671   66.7552  -36.6404 C   0  0  0  0  0  0  0  0  0  0  0  0
  -20.9601   64.4838  -35.4261 C   0  0  0  0  0  0  0  0  0  0  0  0
  -22.6740   65.6200  -36.5915 C   0  0  0  0  0  0  0  0  0  0  0  0
  -17.4579   70.3459  -37.2754 N   0  0  0  0  0  0  0  0  0  0  0  0
  -17.7162   70.8254  -38.6306 C   0  0  2  0  0  0  0  0  0  0  0  0
  -16.9065   71.9634  -39.0598 C   0  0  0  0  0  0  0  0  0  0  0  0
  -17.5593   72.9607  -39.5725 O   0  0  0  0  0  0  0  0  0  0  0  0
  -19.1770   71.0455  -38.7812 C   0  0  2  0  0  0  0  0  0  0  0  0
  -19.5652   72.3557  -39.0510 O   0  0  0  0  0  0  0  0  0  0  0  0
  -15.5135   72.1385  -39.0022 N   0  0  0  0  0  0  0  0  0  0  0  0
  -14.6605   72.1043  -37.8497 C   0  0  2  0  0  0  0  0  0  0  0  0
  -13.9015   73.3548  -37.5900 C   0  0  0  0  0  0  0  0  0  0  0  0
  -12.8655   73.1526  -36.8448 O   0  0  0  0  0  0  0  0  0  0  0  0
  -13.5637   71.1649  -38.4299 C   0  0  0  0  0  0  0  0  0  0  0  0
  -13.3951   71.8291  -39.7505 C   0  0  0  0  0  0  0  0  0  0  0  0
  -14.5553   72.3983  -40.0741 C   0  0  0  0  0  0  0  0  0  0  0  0
  -16.3197   74.6879  -36.8596 C   0  0  0  0  0  0  0  0  0  0  0  0
  -14.1718   74.6574  -38.0424 N   0  0  0  0  0  0  0  0  0  0  0  0
  -15.6712   74.0962  -35.9107 O   0  0  0  0  0  0  0  0  0  0  0  0
  -15.4242   75.3940  -37.7819 C   0  0  1  0  0  0  0  0  0  0  0  0
  -15.9577   75.7570  -39.1133 C   0  0  0  0  0  0  0  0  0  0  0  0
  -13.7176   76.8485  -38.9260 C   0  0  0  0  0  0  0  0  0  0  0  0
  -13.2159   75.4295  -38.8365 C   0  0  0  0  0  0  0  0  0  0  0  0
  -15.0942   76.9447  -39.5887 C   0  0  0  0  0  0  0  0  0  0  0  0
  -17.7145   74.5827  -36.8804 N   0  0  0  0  0  0  0  0  0  0  0  0
  -18.6888   75.6426  -36.7322 C   0  0  2  0  0  0  0  0  0  0  0  0
  -19.6876   75.6109  -37.8111 C   0  0  0  0  0  0  0  0  0  0  0  0
  -19.6068   76.5665  -38.6529 O   0  0  0  0  0  0  0  0  0  0  0  0
  -18.0947   77.0024  -36.5162 C   0  0  0  0  0  0  0  0  0  0  0  0
  -20.5960   72.1970  -38.1148 C   0  0  0  0  0  0  0  0  0  0  0  0
  -20.6968   74.6537  -37.9990 N   0  0  0  0  0  0  0  0  0  0  0  0
  -21.7606   71.6220  -38.6224 O   0  0  0  0  0  0  0  0  0  0  0  0
  -20.8597   73.4084  -37.2815 C   0  0  1  0  0  0  0  0  0  0  0  0
  -22.3775   73.4468  -36.9605 C   0  0  0  0  0  0  0  0  0  0  0  0
  -21.8426   74.6442  -38.9303 C   0  0  0  0  0  0  0  0  0  0  0  0
  -23.1144   75.7725  -37.2054 C   0  0  0  0  0  0  0  0  0  0  0  0
  -22.9688   74.4439  -37.9189 C   0  0  2  0  0  0  0  0  0  0  0  0
  -19.8104   71.2297  -37.5208 O   0  0  0  0  0  0  0  0  0  0  0  0
  1  2  2  0
  1  3  1  0
 12  1  1  0
  3  4  1  0
  4  5  2  0
  4 10  1  0
  5  6  1  0
  6  7  2  0
  7  8  1  0
  9  7  1  0
 10  9  2  0
 11 13  2  0
 11 16  1  0
 24 11  1  0
 16 12  1  0
 22 14  1  0
 23 15  1  0
 16 17  1  1
 17 18  1  0
 18 20  2  0
 18 21  1  0
 22 19  2  0
 23 19  1  0
 20 22  1  0
 21 23  2  0
 25 24  1  1
 26 25  1  0
 25 28  1  0
 26 27  2  0
 30 26  1  0
 28 29  1  6
 28 58  1  0
 29 50  1  0
 31 30  1  0
 30 36  1  0
 32 31  1  0
 31 34  1  6
 32 33  2  0
 38 32  1  0
 34 35  1  0
 35 36  2  0
 37 39  2  0
 40 37  1  0
 37 45  1  0
 38 40  1  0
 38 43  1  0
 40 41  1  6
 41 44  1  0
 43 42  1  0
 42 44  1  0
 45 46  1  0
 46 47  1  0
 46 49  1  6
 47 48  2  0
 47 51  1  0
 50 52  1  0
 50 53  1  0
 50 58  1  0
 51 53  1  0
 51 55  1  0
 53 54  1  6
 54 57  1  0
 55 57  1  0
 57 56  1  1
M  END
$$$$
