
     RDKit          3D

 58 64  0  0  0  0  0  0  0  0999 V2000
  -19.2262   64.9109  -40.5287 C   0  0  0  0  0  0  0  0  0  0  0  0
  -18.8421   64.9910  -41.7474 O   0  0  0  0  0  0  0  0  0  0  0  0
  -18.4553   64.1072  -39.6546 N   0  0  0  0  0  0  0  0  0  0  0  0
  -17.8069   62.9271  -40.1184 C   0  0  0  0  0  0  0  0  0  0  0  0
  -17.4664   61.8853  -39.2893 C   0  0  0  0  0  0  0  0  0  0  0  0
  -16.8338   60.7578  -39.7463 C   0  0  0  0  0  0  0  0  0  0  0  0
  -16.4977   60.6078  -41.1020 C   0  0  0  0  0  0  0  0  0  0  0  0
  -15.8103   59.3866  -41.6007 C   0  0  0  0  0  0  0  0  0  0  0  0
  -16.8410   61.6545  -41.9247 C   0  0  0  0  0  0  0  0  0  0  0  0
  -17.4746   62.7862  -41.4724 C   0  0  0  0  0  0  0  0  0  0  0  0
  -19.5595   67.8757  -39.8437 C   0  0  0  0  0  0  0  0  0  0  0  0
  -20.3735   65.6230  -40.1626 N   0  0  0  0  0  0  0  0  0  0  0  0
  -19.4609   67.8899  -41.1500 O   0  0  0  0  0  0  0  0  0  0  0  0
  -24.1116   68.3745  -35.4028 F   0  0  0  0  0  0  0  0  0  0  0  0
  -19.7931   70.0829  -34.6350 F   0  0  0  0  0  0  0  0  0  0  0  0
  -20.3788   66.8288  -39.3028 C   0  0  1  0  0  0  0  0  0  0  0  0
  -20.4187   66.4571  -37.8895 C   0  0  0  0  0  0  0  0  0  0  0  0
  -20.8907   67.4663  -36.9303 C   0  0  0  0  0  0  0  0  0  0  0  0
  -21.9755   69.2412  -35.0063 C   0  0  0  0  0  0  0  0  0  0  0  0
  -22.2616   67.5020  -36.6179 C   0  0  0  0  0  0  0  0  0  0  0  0
  -20.1109   68.3553  -36.2346 C   0  0  0  0  0  0  0  0  0  0  0  0
  -22.7853   68.3648  -35.6834 C   0  0  0  0  0  0  0  0  0  0  0  0
  -20.6247   69.2360  -35.2846 C   0  0  0  0  0  0  0  0  0  0  0  0
  -18.8297   68.9104  -39.2288 N   0  0  0  0  0  0  0  0  0  0  0  0
  -17.4668   68.7337  -38.7345 C   0  0  2  0  0  0  0  0  0  0  0  0
  -17.1349   69.4825  -37.5245 C   0  0  0  0  0  0  0  0  0  0  0  0
  -16.0423   70.1808  -37.5732 O   0  0  0  0  0  0  0  0  0  0  0  0
  -16.5246   68.9720  -39.8574 C   0  0  2  0  0  0  0  0  0  0  0  0
  -15.6442   70.0383  -39.6905 O   0  0  0  0  0  0  0  0  0  0  0  0
  -17.8275   69.5567  -36.3042 N   0  0  0  0  0  0  0  0  0  0  0  0
  -19.1752   69.9890  -36.0722 C   0  0  2  0  0  0  0  0  0  0  0  0
  -19.3151   71.1569  -35.1646 C   0  0  0  0  0  0  0  0  0  0  0  0
  -20.4985   71.2398  -34.6525 O   0  0  0  0  0  0  0  0  0  0  0  0
  -19.6197   68.8070  -35.1626 C   0  0  0  0  0  0  0  0  0  0  0  0
  -18.4350   68.7769  -34.2631 C   0  0  0  0  0  0  0  0  0  0  0  0
  -17.3855   69.2219  -34.9525 C   0  0  0  0  0  0  0  0  0  0  0  0
  -18.1721   72.8581  -37.1541 C   0  0  0  0  0  0  0  0  0  0  0  0
  -18.3550   72.1239  -34.8216 N   0  0  0  0  0  0  0  0  0  0  0  0
  -19.4571   72.7192  -37.1748 O   0  0  0  0  0  0  0  0  0  0  0  0
  -17.6543   72.9918  -35.7884 C   0  0  1  0  0  0  0  0  0  0  0  0
  -16.2115   72.7441  -35.5741 C   0  0  0  0  0  0  0  0  0  0  0  0
  -17.1076   73.6241  -33.4139 C   0  0  0  0  0  0  0  0  0  0  0  0
  -17.9443   72.3701  -33.4390 C   0  0  0  0  0  0  0  0  0  0  0  0
  -15.8531   73.5115  -34.2838 C   0  0  0  0  0  0  0  0  0  0  0  0
  -17.4822   72.8627  -38.3710 N   0  0  0  0  0  0  0  0  0  0  0  0
  -16.7193   73.9441  -38.9571 C   0  0  2  0  0  0  0  0  0  0  0  0
  -15.3785   73.4984  -39.3645 C   0  0  0  0  0  0  0  0  0  0  0  0
  -14.4181   73.9525  -38.6574 O   0  0  0  0  0  0  0  0  0  0  0  0
  -16.7016   75.2014  -38.1401 C   0  0  0  0  0  0  0  0  0  0  0  0
  -15.9068   70.4061  -41.0171 C   0  0  0  0  0  0  0  0  0  0  0  0
  -15.0614   72.6423  -40.4306 N   0  0  0  0  0  0  0  0  0  0  0  0
  -15.1231   69.7539  -41.9685 O   0  0  0  0  0  0  0  0  0  0  0  0
  -15.9870   71.8810  -41.2404 C   0  0  1  0  0  0  0  0  0  0  0  0
  -15.4497   72.1788  -42.6654 C   0  0  0  0  0  0  0  0  0  0  0  0
  -13.7528   72.2952  -41.0200 C   0  0  0  0  0  0  0  0  0  0  0  0
  -14.0452   74.1825  -42.5093 C   0  0  0  0  0  0  0  0  0  0  0  0
  -14.0405   72.6680  -42.4725 C   0  0  2  0  0  0  0  0  0  0  0  0
  -17.1197   69.7614  -40.8803 O   0  0  0  0  0  0  0  0  0  0  0  0
  1  2  2  0
  1  3  1  0
 12  1  1  0
  3  4  1  0
  4  5  2  0
  4 10  1  0
  5  6  1  0
  6  7  2  0
  7  8  1  0
  9  7  1  0
 10  9  2  0
 11 13  2  0
 11 16  1  0
 24 11  1  0
 16 12  1  0
 22 14  1  0
 23 15  1  0
 16 17  1  1
 17 18  1  0
 18 20  2  0
 18 21  1  0
 22 19  2  0
 23 19  1  0
 20 22  1  0
 21 23  2  0
 25 24  1  6
 26 25  1  0
 25 28  1  0
 26 27  2  0
 30 26  1  0
 28 29  1  1
 28 58  1  0
 29 50  1  0
 31 30  1  0
 30 36  1  0
 32 31  1  0
 31 34  1  1
 32 33  2  0
 38 32  1  0
 34 35  1  0
 35 36  2  0
 37 39  2  0
 40 37  1  0
 37 45  1  0
 38 40  1  0
 38 43  1  0
 40 41  1  6
 41 44  1  0
 43 42  1  0
 42 44  1  0
 45 46  1  0
 46 47  1  0
 46 49  1  1
 47 48  2  0
 47 51  1  0
 50 52  1  0
 50 53  1  0
 50 58  1  0
 51 53  1  0
 51 55  1  0
 53 54  1  6
 54 57  1  0
 55 57  1  0
 57 56  1  1
M  END
$$$$
