
     RDKit          3D

 58 64  0  0  0  0  0  0  0  0999 V2000
  -24.0502   46.4434  -31.4801 C   0  0  0  0  0  0  0  0  0  0  0  0
  -24.3074   45.4764  -32.2787 O   0  0  0  0  0  0  0  0  0  0  0  0
  -23.0241   47.3433  -31.8563 N   0  0  0  0  0  0  0  0  0  0  0  0
  -22.4261   47.2805  -33.1472 C   0  0  0  0  0  0  0  0  0  0  0  0
  -21.5698   48.2445  -33.6229 C   0  0  0  0  0  0  0  0  0  0  0  0
  -21.0074   48.1776  -34.8717 C   0  0  0  0  0  0  0  0  0  0  0  0
  -21.2806   47.1070  -35.7392 C   0  0  0  0  0  0  0  0  0  0  0  0
  -20.6731   47.0320  -37.0949 C   0  0  0  0  0  0  0  0  0  0  0  0
  -22.1385   46.1473  -35.2563 C   0  0  0  0  0  0  0  0  0  0  0  0
  -22.7048   46.2093  -34.0064 C   0  0  0  0  0  0  0  0  0  0  0  0
  -23.5484   45.0293  -28.8862 C   0  0  0  0  0  0  0  0  0  0  0  0
  -24.8033   46.5306  -30.3041 N   0  0  0  0  0  0  0  0  0  0  0  0
  -22.5770   45.8788  -29.1125 O   0  0  0  0  0  0  0  0  0  0  0  0
  -28.4860   47.0447  -26.0841 F   0  0  0  0  0  0  0  0  0  0  0  0
  -30.8832   45.1812  -29.6812 F   0  0  0  0  0  0  0  0  0  0  0  0
  -24.8581   45.4834  -29.2584 C   0  0  1  0  0  0  0  0  0  0  0  0
  -26.0096   44.6064  -29.4634 C   0  0  0  0  0  0  0  0  0  0  0  0
  -27.3106   45.0542  -28.9457 C   0  0  0  0  0  0  0  0  0  0  0  0
  -29.6988   46.1257  -27.8606 C   0  0  0  0  0  0  0  0  0  0  0  0
  -27.3344   45.8048  -27.7564 C   0  0  0  0  0  0  0  0  0  0  0  0
  -28.5308   44.8762  -29.5473 C   0  0  0  0  0  0  0  0  0  0  0  0
  -28.4954   46.3236  -27.2321 C   0  0  0  0  0  0  0  0  0  0  0  0
  -29.7164   45.3949  -29.0302 C   0  0  0  0  0  0  0  0  0  0  0  0
  -23.0992   43.8251  -28.3123 N   0  0  0  0  0  0  0  0  0  0  0  0
  -22.6656   42.6805  -29.1092 C   0  0  2  0  0  0  0  0  0  0  0  0
  -22.3201   41.4808  -28.3501 C   0  0  0  0  0  0  0  0  0  0  0  0
  -21.1751   40.9411  -28.6355 O   0  0  0  0  0  0  0  0  0  0  0  0
  -21.5919   43.1293  -30.0317 C   0  0  2  0  0  0  0  0  0  0  0  0
  -20.3515   42.5207  -29.8554 O   0  0  0  0  0  0  0  0  0  0  0  0
  -23.0513   40.8171  -27.3506 N   0  0  0  0  0  0  0  0  0  0  0  0
  -23.5262   41.3393  -26.1021 C   0  0  2  0  0  0  0  0  0  0  0  0
  -23.0107   40.6475  -24.8926 C   0  0  0  0  0  0  0  0  0  0  0  0
  -23.7607   40.8446  -23.8591 O   0  0  0  0  0  0  0  0  0  0  0  0
  -24.9849   40.8045  -26.1937 C   0  0  0  0  0  0  0  0  0  0  0  0
  -24.6723   39.4121  -26.6145 C   0  0  0  0  0  0  0  0  0  0  0  0
  -23.5284   39.4372  -27.2968 C   0  0  0  0  0  0  0  0  0  0  0  0
  -20.4085   41.7249  -25.3678 C   0  0  0  0  0  0  0  0  0  0  0  0
  -21.8635   39.8471  -24.7593 N   0  0  0  0  0  0  0  0  0  0  0  0
  -21.2035   42.4268  -24.6286 O   0  0  0  0  0  0  0  0  0  0  0  0
  -20.4886   40.2935  -25.0585 C   0  0  1  0  0  0  0  0  0  0  0  0
  -19.9715   39.3432  -26.0677 C   0  0  0  0  0  0  0  0  0  0  0  0
  -20.5113   37.9936  -24.0351 C   0  0  0  0  0  0  0  0  0  0  0  0
  -21.9206   38.4587  -24.3015 C   0  0  0  0  0  0  0  0  0  0  0  0
  -19.6245   38.0614  -25.2810 C   0  0  0  0  0  0  0  0  0  0  0  0
  -19.6191   42.3873  -26.3139 N   0  0  0  0  0  0  0  0  0  0  0  0
  -18.1755   42.4786  -26.3608 C   0  0  2  0  0  0  0  0  0  0  0  0
  -17.6551   42.1084  -27.6855 C   0  0  0  0  0  0  0  0  0  0  0  0
  -17.0258   40.9992  -27.7302 O   0  0  0  0  0  0  0  0  0  0  0  0
  -17.4751   41.7796  -25.2341 C   0  0  0  0  0  0  0  0  0  0  0  0
  -19.7605   43.7839  -29.9947 C   0  0  0  0  0  0  0  0  0  0  0  0
  -17.7810   42.8405  -28.8764 N   0  0  0  0  0  0  0  0  0  0  0  0
  -19.5161   44.1706  -31.3120 O   0  0  0  0  0  0  0  0  0  0  0  0
  -18.5931   44.0178  -29.0926 C   0  0  1  0  0  0  0  0  0  0  0  0
  -17.5900   44.9381  -29.8377 C   0  0  0  0  0  0  0  0  0  0  0  0
  -17.1405   42.6418  -30.1919 C   0  0  0  0  0  0  0  0  0  0  0  0
  -15.3409   44.0608  -29.4085 C   0  0  0  0  0  0  0  0  0  0  0  0
  -16.5166   44.0249  -30.3634 C   0  0  2  0  0  0  0  0  0  0  0  0
  -20.9592   44.3132  -29.5606 O   0  0  0  0  0  0  0  0  0  0  0  0
  1  2  2  0
  1  3  1  0
 12  1  1  0
  3  4  1  0
  4  5  2  0
  4 10  1  0
  5  6  1  0
  6  7  2  0
  7  8  1  0
  9  7  1  0
 10  9  2  0
 11 13  2  0
 11 16  1  0
 24 11  1  0
 16 12  1  0
 22 14  1  0
 23 15  1  0
 16 17  1  6
 17 18  1  0
 18 20  2  0
 18 21  1  0
 22 19  2  0
 23 19  1  0
 20 22  1  0
 21 23  2  0
 25 24  1  1
 26 25  1  0
 25 28  1  0
 26 27  2  0
 30 26  1  0
 28 29  1  1
 28 58  1  0
 29 50  1  0
 31 30  1  0
 30 36  1  0
 32 31  1  0
 31 34  1  6
 32 33  2  0
 38 32  1  0
 34 35  1  0
 35 36  2  0
 37 39  2  0
 40 37  1  0
 37 45  1  0
 38 40  1  0
 38 43  1  0
 40 41  1  6
 41 44  1  0
 43 42  1  0
 42 44  1  0
 45 46  1  0
 46 47  1  0
 46 49  1  1
 47 48  2  0
 47 51  1  0
 50 52  1  0
 50 53  1  0
 50 58  1  0
 51 53  1  0
 51 55  1  0
 53 54  1  6
 54 57  1  0
 55 57  1  0
 57 56  1  1
M  END
$$$$
