
     RDKit          3D

 58 64  0  0  0  0  0  0  0  0999 V2000
  -36.0338   49.1561  -53.3086 C   0  0  0  0  0  0  0  0  0  0  0  0
  -35.2826   48.4317  -52.5669 O   0  0  0  0  0  0  0  0  0  0  0  0
  -36.0945   48.8339  -54.6858 N   0  0  0  0  0  0  0  0  0  0  0  0
  -35.3476   47.7461  -55.2215 C   0  0  0  0  0  0  0  0  0  0  0  0
  -35.4714   46.4561  -54.7639 C   0  0  0  0  0  0  0  0  0  0  0  0
  -34.7397   45.4184  -55.2815 C   0  0  0  0  0  0  0  0  0  0  0  0
  -33.8152   45.6231  -56.3192 C   0  0  0  0  0  0  0  0  0  0  0  0
  -33.0190   44.4998  -56.8822 C   0  0  0  0  0  0  0  0  0  0  0  0
  -33.6967   46.9162  -56.7709 C   0  0  0  0  0  0  0  0  0  0  0  0
  -34.4270   47.9595  -56.2560 C   0  0  0  0  0  0  0  0  0  0  0  0
  -36.8296   52.6001  -52.9932 C   0  0  0  0  0  0  0  0  0  0  0  0
  -36.7312   50.2038  -52.6976 N   0  0  0  0  0  0  0  0  0  0  0  0
  -36.0942   53.6529  -53.2521 O   0  0  0  0  0  0  0  0  0  0  0  0
  -35.5462   48.5859  -48.3831 F   0  0  0  0  0  0  0  0  0  0  0  0
  -31.0686   49.4568  -49.5452 F   0  0  0  0  0  0  0  0  0  0  0  0
  -36.1431   51.5173  -52.3480 C   0  0  1  0  0  0  0  0  0  0  0  0
  -34.6900   51.4176  -52.2231 C   0  0  0  0  0  0  0  0  0  0  0  0
  -34.1524   50.6484  -51.0914 C   0  0  0  0  0  0  0  0  0  0  0  0
  -33.3137   49.0064  -48.9398 C   0  0  0  0  0  0  0  0  0  0  0  0
  -35.0585   49.9977  -50.2347 C   0  0  0  0  0  0  0  0  0  0  0  0
  -32.8269   50.4313  -50.8115 C   0  0  0  0  0  0  0  0  0  0  0  0
  -34.6483   49.2013  -49.1910 C   0  0  0  0  0  0  0  0  0  0  0  0
  -32.3939   49.6275  -49.7587 C   0  0  0  0  0  0  0  0  0  0  0  0
  -38.1655   52.7499  -53.4107 N   0  0  0  0  0  0  0  0  0  0  0  0
  -38.7816   51.8924  -54.4197 C   0  0  2  0  0  0  0  0  0  0  0  0
  -40.1897   52.1633  -54.7000 C   0  0  0  0  0  0  0  0  0  0  0  0
  -40.9800   51.1344  -54.6728 O   0  0  0  0  0  0  0  0  0  0  0  0
  -38.5084   50.4767  -54.0643 C   0  0  2  0  0  0  0  0  0  0  0  0
  -39.6296   49.6941  -53.7989 O   0  0  0  0  0  0  0  0  0  0  0  0
  -40.8203   53.3825  -55.0003 N   0  0  0  0  0  0  0  0  0  0  0  0
  -40.8580   54.5809  -54.2133 C   0  0  2  0  0  0  0  0  0  0  0  0
  -42.2171   55.0340  -53.8197 C   0  0  0  0  0  0  0  0  0  0  0  0
  -42.2435   56.2873  -53.5065 O   0  0  0  0  0  0  0  0  0  0  0  0
  -40.4884   55.5846  -55.3439 C   0  0  0  0  0  0  0  0  0  0  0  0
  -41.4146   55.0733  -56.3900 C   0  0  0  0  0  0  0  0  0  0  0  0
  -41.5996   53.7720  -56.1732 C   0  0  0  0  0  0  0  0  0  0  0  0
  -42.4623   52.8065  -52.0486 C   0  0  0  0  0  0  0  0  0  0  0  0
  -43.4078   54.2906  -53.7565 N   0  0  0  0  0  0  0  0  0  0  0  0
  -41.9575   53.8898  -51.5558 O   0  0  0  0  0  0  0  0  0  0  0  0
  -43.6002   53.0812  -52.9322 C   0  0  1  0  0  0  0  0  0  0  0  0
  -44.0098   52.0170  -53.8749 C   0  0  0  0  0  0  0  0  0  0  0  0
  -45.7487   53.8051  -54.0264 C   0  0  0  0  0  0  0  0  0  0  0  0
  -44.6021   54.6499  -54.5214 C   0  0  0  0  0  0  0  0  0  0  0  0
  -45.4912   52.3059  -54.1977 C   0  0  0  0  0  0  0  0  0  0  0  0
  -41.8880   51.5815  -51.6932 N   0  0  0  0  0  0  0  0  0  0  0  0
  -42.4952   50.4956  -50.9537 C   0  0  2  0  0  0  0  0  0  0  0  0
  -42.3323   49.2114  -51.6514 C   0  0  0  0  0  0  0  0  0  0  0  0
  -43.4021   48.7253  -52.1491 O   0  0  0  0  0  0  0  0  0  0  0  0
  -43.9061   50.7572  -50.5185 C   0  0  0  0  0  0  0  0  0  0  0  0
  -38.9446   49.1634  -52.6973 C   0  0  0  0  0  0  0  0  0  0  0  0
  -41.1419   48.4866  -51.8182 N   0  0  0  0  0  0  0  0  0  0  0  0
  -38.1140   48.0831  -52.9931 O   0  0  0  0  0  0  0  0  0  0  0  0
  -39.8022   48.9274  -51.4972 C   0  0  1  0  0  0  0  0  0  0  0  0
  -39.2503   47.6830  -50.7523 C   0  0  0  0  0  0  0  0  0  0  0  0
  -40.9197   47.1204  -52.3325 C   0  0  0  0  0  0  0  0  0  0  0  0
  -41.1782   46.3381  -50.0550 C   0  0  0  0  0  0  0  0  0  0  0  0
  -40.1488   46.5433  -51.1475 C   0  0  2  0  0  0  0  0  0  0  0  0
  -38.2119   50.3333  -52.6804 O   0  0  0  0  0  0  0  0  0  0  0  0
  1  2  2  0
  1  3  1  0
 12  1  1  0
  3  4  1  0
  4  5  2  0
  4 10  1  0
  5  6  1  0
  6  7  2  0
  7  8  1  0
  9  7  1  0
 10  9  2  0
 11 13  2  0
 11 16  1  0
 24 11  1  0
 16 12  1  0
 22 14  1  0
 23 15  1  0
 16 17  1  6
 17 18  1  0
 18 20  2  0
 18 21  1  0
 22 19  2  0
 23 19  1  0
 20 22  1  0
 21 23  2  0
 25 24  1  1
 26 25  1  0
 25 28  1  0
 26 27  2  0
 30 26  1  0
 28 29  1  1
 28 58  1  0
 29 50  1  0
 31 30  1  0
 30 36  1  0
 32 31  1  0
 31 34  1  6
 32 33  2  0
 38 32  1  0
 34 35  1  0
 35 36  2  0
 37 39  2  0
 40 37  1  0
 37 45  1  0
 38 40  1  0
 38 43  1  0
 40 41  1  6
 41 44  1  0
 43 42  1  0
 42 44  1  0
 45 46  1  0
 46 47  1  0
 46 49  1  6
 47 48  2  0
 47 51  1  0
 50 52  1  0
 50 53  1  0
 50 58  1  0
 51 53  1  0
 51 55  1  0
 53 54  1  1
 54 57  1  0
 55 57  1  0
 57 56  1  1
M  END
$$$$
