
     RDKit          3D

 58 64  0  0  0  0  0  0  0  0999 V2000
  -34.4210   50.8271  -51.8682 C   0  0  0  0  0  0  0  0  0  0  0  0
  -34.9590   49.7549  -51.4209 O   0  0  0  0  0  0  0  0  0  0  0  0
  -33.3097   51.3430  -51.1589 N   0  0  0  0  0  0  0  0  0  0  0  0
  -32.5652   50.5260  -50.2609 C   0  0  0  0  0  0  0  0  0  0  0  0
  -31.2015   50.6203  -50.1190 C   0  0  0  0  0  0  0  0  0  0  0  0
  -30.4944   49.8215  -49.2575 C   0  0  0  0  0  0  0  0  0  0  0  0
  -31.1357   48.8543  -48.4658 C   0  0  0  0  0  0  0  0  0  0  0  0
  -30.3715   47.9853  -47.5312 C   0  0  0  0  0  0  0  0  0  0  0  0
  -32.4996   48.7657  -48.6140 C   0  0  0  0  0  0  0  0  0  0  0  0
  -33.2129   49.5632  -49.4755 C   0  0  0  0  0  0  0  0  0  0  0  0
  -35.8783   49.7706  -54.5588 C   0  0  0  0  0  0  0  0  0  0  0  0
  -34.9749   51.3989  -53.0187 N   0  0  0  0  0  0  0  0  0  0  0  0
  -34.7776   49.8787  -55.2611 O   0  0  0  0  0  0  0  0  0  0  0  0
  -36.1785   56.0482  -51.5836 F   0  0  0  0  0  0  0  0  0  0  0  0
  -40.1821   53.7291  -50.7166 F   0  0  0  0  0  0  0  0  0  0  0  0
  -36.1794   50.8925  -53.7158 C   0  0  1  0  0  0  0  0  0  0  0  0
  -37.0624   51.9953  -54.0917 C   0  0  0  0  0  0  0  0  0  0  0  0
  -37.4792   52.9281  -53.0346 C   0  0  0  0  0  0  0  0  0  0  0  0
  -38.1729   54.9118  -51.1338 C   0  0  0  0  0  0  0  0  0  0  0  0
  -36.6546   54.0325  -52.7542 C   0  0  0  0  0  0  0  0  0  0  0  0
  -38.6494   52.8780  -52.3200 C   0  0  0  0  0  0  0  0  0  0  0  0
  -36.9940   54.9939  -51.8309 C   0  0  0  0  0  0  0  0  0  0  0  0
  -39.0090   53.8432  -51.3813 C   0  0  0  0  0  0  0  0  0  0  0  0
  -36.5500   48.5533  -54.7785 N   0  0  0  0  0  0  0  0  0  0  0  0
  -36.2345   47.3303  -54.0452 C   0  0  2  0  0  0  0  0  0  0  0  0
  -36.6734   46.0879  -54.6765 C   0  0  0  0  0  0  0  0  0  0  0  0
  -37.3408   45.2733  -53.9183 O   0  0  0  0  0  0  0  0  0  0  0  0
  -36.7080   47.4853  -52.6462 C   0  0  2  0  0  0  0  0  0  0  0  0
  -37.6874   46.5832  -52.2373 O   0  0  0  0  0  0  0  0  0  0  0  0
  -36.4757   45.6388  -55.9931 N   0  0  0  0  0  0  0  0  0  0  0  0
  -36.8702   46.2736  -57.2171 C   0  0  2  0  0  0  0  0  0  0  0  0
  -37.7970   45.4826  -58.0672 C   0  0  0  0  0  0  0  0  0  0  0  0
  -37.7830   45.8711  -59.2994 O   0  0  0  0  0  0  0  0  0  0  0  0
  -35.5183   46.1256  -57.9739 C   0  0  0  0  0  0  0  0  0  0  0  0
  -35.2545   44.6964  -57.6556 C   0  0  0  0  0  0  0  0  0  0  0  0
  -35.8258   44.4254  -56.4830 C   0  0  0  0  0  0  0  0  0  0  0  0
  -39.8907   45.8612  -56.1615 C   0  0  0  0  0  0  0  0  0  0  0  0
  -38.6370   44.4184  -57.6978 N   0  0  0  0  0  0  0  0  0  0  0  0
  -39.7874   46.7472  -57.0971 O   0  0  0  0  0  0  0  0  0  0  0  0
  -39.6915   44.4992  -56.6679 C   0  0  1  0  0  0  0  0  0  0  0  0
  -39.3705   43.4414  -55.6846 C   0  0  0  0  0  0  0  0  0  0  0  0
  -39.7414   42.2880  -57.8700 C   0  0  0  0  0  0  0  0  0  0  0  0
  -38.5455   43.0933  -58.3113 C   0  0  0  0  0  0  0  0  0  0  0  0
  -39.8084   42.1194  -56.3501 C   0  0  0  0  0  0  0  0  0  0  0  0
  -40.1644   46.2946  -54.8599 N   0  0  0  0  0  0  0  0  0  0  0  0
  -41.3363   46.0164  -54.0576 C   0  0  2  0  0  0  0  0  0  0  0  0
  -40.9698   45.5166  -52.7240 C   0  0  0  0  0  0  0  0  0  0  0  0
  -41.2265   44.2836  -52.5177 O   0  0  0  0  0  0  0  0  0  0  0  0
  -42.3680   45.1710  -54.7429 C   0  0  0  0  0  0  0  0  0  0  0  0
  -38.3597   47.6541  -51.6329 C   0  0  0  0  0  0  0  0  0  0  0  0
  -40.3794   46.2478  -51.6815 N   0  0  0  0  0  0  0  0  0  0  0  0
  -37.9310   47.9564  -50.3408 O   0  0  0  0  0  0  0  0  0  0  0  0
  -39.8474   47.5909  -51.7532 C   0  0  1  0  0  0  0  0  0  0  0  0
  -40.4578   48.2211  -50.4732 C   0  0  0  0  0  0  0  0  0  0  0  0
  -40.1519   45.8834  -50.2689 C   0  0  0  0  0  0  0  0  0  0  0  0
  -42.3401   46.8053  -49.7918 C   0  0  0  0  0  0  0  0  0  0  0  0
  -40.8589   47.0617  -49.6030 C   0  0  2  0  0  0  0  0  0  0  0  0
  -37.7265   48.4734  -52.5457 O   0  0  0  0  0  0  0  0  0  0  0  0
  1  2  2  0
  1  3  1  0
 12  1  1  0
  3  4  1  0
  4  5  2  0
  4 10  1  0
  5  6  1  0
  6  7  2  0
  7  8  1  0
  9  7  1  0
 10  9  2  0
 11 13  2  0
 11 16  1  0
 24 11  1  0
 16 12  1  0
 22 14  1  0
 23 15  1  0
 16 17  1  6
 17 18  1  0
 18 20  2  0
 18 21  1  0
 22 19  2  0
 23 19  1  0
 20 22  1  0
 21 23  2  0
 25 24  1  6
 26 25  1  0
 25 28  1  0
 26 27  2  0
 30 26  1  0
 28 29  1  6
 28 58  1  0
 29 50  1  0
 31 30  1  0
 30 36  1  0
 32 31  1  0
 31 34  1  6
 32 33  2  0
 38 32  1  0
 34 35  1  0
 35 36  2  0
 37 39  2  0
 40 37  1  0
 37 45  1  0
 38 40  1  0
 38 43  1  0
 40 41  1  1
 41 44  1  0
 43 42  1  0
 42 44  1  0
 45 46  1  0
 46 47  1  0
 46 49  1  6
 47 48  2  0
 47 51  1  0
 50 52  1  0
 50 53  1  0
 50 58  1  0
 51 53  1  0
 51 55  1  0
 53 54  1  1
 54 57  1  0
 55 57  1  0
 57 56  1  6
M  END
$$$$
