
     RDKit          3D

 58 64  0  0  0  0  0  0  0  0999 V2000
  -19.0358   66.8426  -37.9153 C   0  0  0  0  0  0  0  0  0  0  0  0
  -19.8107   66.5307  -38.8855 O   0  0  0  0  0  0  0  0  0  0  0  0
  -19.2617   66.2060  -36.6711 N   0  0  0  0  0  0  0  0  0  0  0  0
  -20.2634   65.2040  -36.5274 C   0  0  0  0  0  0  0  0  0  0  0  0
  -21.1996   64.9373  -37.4977 C   0  0  0  0  0  0  0  0  0  0  0  0
  -22.1653   63.9760  -37.3439 C   0  0  0  0  0  0  0  0  0  0  0  0
  -22.2478   63.2048  -36.1727 C   0  0  0  0  0  0  0  0  0  0  0  0
  -23.2948   62.1621  -36.0022 C   0  0  0  0  0  0  0  0  0  0  0  0
  -21.3083   63.4780  -35.2068 C   0  0  0  0  0  0  0  0  0  0  0  0
  -20.3389   64.4397  -35.3555 C   0  0  0  0  0  0  0  0  0  0  0  0
  -19.0724   69.9579  -38.3479 C   0  0  0  0  0  0  0  0  0  0  0  0
  -18.0320   67.7847  -38.1646 N   0  0  0  0  0  0  0  0  0  0  0  0
  -20.3529   69.6963  -38.4383 O   0  0  0  0  0  0  0  0  0  0  0  0
  -18.2038   64.4547  -42.7927 F   0  0  0  0  0  0  0  0  0  0  0  0
  -14.1395   66.0544  -41.0378 F   0  0  0  0  0  0  0  0  0  0  0  0
  -18.2066   69.0061  -38.9837 C   0  0  1  0  0  0  0  0  0  0  0  0
  -18.2467   68.6741  -40.4068 C   0  0  0  0  0  0  0  0  0  0  0  0
  -17.4862   67.4990  -40.8563 C   0  0  0  0  0  0  0  0  0  0  0  0
  -16.1729   65.2281  -41.9277 C   0  0  0  0  0  0  0  0  0  0  0  0
  -18.1637   66.5008  -41.5796 C   0  0  0  0  0  0  0  0  0  0  0  0
  -16.1378   67.2956  -40.7051 C   0  0  0  0  0  0  0  0  0  0  0  0
  -17.5234   65.3995  -42.0984 C   0  0  0  0  0  0  0  0  0  0  0  0
  -15.4732   66.1861  -41.2242 C   0  0  0  0  0  0  0  0  0  0  0  0
  -18.8048   71.1393  -37.6309 N   0  0  0  0  0  0  0  0  0  0  0  0
  -17.8265   71.2052  -36.5485 C   0  0  2  0  0  0  0  0  0  0  0  0
  -17.7468   72.4863  -35.8503 C   0  0  0  0  0  0  0  0  0  0  0  0
  -16.5562   72.9848  -35.7173 O   0  0  0  0  0  0  0  0  0  0  0  0
  -16.5188   70.7289  -37.0666 C   0  0  2  0  0  0  0  0  0  0  0  0
  -15.4855   71.6626  -37.0467 O   0  0  0  0  0  0  0  0  0  0  0  0
  -18.7765   73.2638  -35.2940 N   0  0  0  0  0  0  0  0  0  0  0  0
  -19.9268   73.8152  -35.9494 C   0  0  2  0  0  0  0  0  0  0  0  0
  -20.0334   75.2961  -35.8956 C   0  0  0  0  0  0  0  0  0  0  0  0
  -21.2414   75.7074  -36.0987 O   0  0  0  0  0  0  0  0  0  0  0  0
  -20.9941   73.3678  -34.9090 C   0  0  0  0  0  0  0  0  0  0  0  0
  -20.2761   73.7903  -33.6763 C   0  0  0  0  0  0  0  0  0  0  0  0
  -18.9682   73.7225  -33.9202 C   0  0  0  0  0  0  0  0  0  0  0  0
  -17.8073   75.5352  -37.6692 C   0  0  0  0  0  0  0  0  0  0  0  0
  -19.0219   76.2424  -35.6597 N   0  0  0  0  0  0  0  0  0  0  0  0
  -18.9792   75.4696  -38.2108 O   0  0  0  0  0  0  0  0  0  0  0  0
  -17.7993   76.3858  -36.4744 C   0  0  1  0  0  0  0  0  0  0  0  0
  -16.6706   76.2325  -35.5302 C   0  0  0  0  0  0  0  0  0  0  0  0
  -17.9813   78.2124  -34.7517 C   0  0  0  0  0  0  0  0  0  0  0  0
  -19.0818   77.2007  -34.5557 C   0  0  0  0  0  0  0  0  0  0  0  0
  -16.5907   77.5727  -34.7688 C   0  0  0  0  0  0  0  0  0  0  0  0
  -16.7580   74.8250  -38.2620 N   0  0  0  0  0  0  0  0  0  0  0  0
  -15.5543   75.3552  -38.8658 C   0  0  2  0  0  0  0  0  0  0  0  0
  -14.3510   74.6948  -38.3381 C   0  0  0  0  0  0  0  0  0  0  0  0
  -13.6204   75.4208  -37.5846 O   0  0  0  0  0  0  0  0  0  0  0  0
  -15.4624   76.8518  -38.8498 C   0  0  0  0  0  0  0  0  0  0  0  0
  -15.1341   71.2366  -38.3348 C   0  0  0  0  0  0  0  0  0  0  0  0
  -13.9389   73.3747  -38.5780 N   0  0  0  0  0  0  0  0  0  0  0  0
  -14.2899   70.1272  -38.3714 O   0  0  0  0  0  0  0  0  0  0  0  0
  -14.6920   72.3354  -39.2450 C   0  0  1  0  0  0  0  0  0  0  0  0
  -13.6171   71.7585  -40.2042 C   0  0  0  0  0  0  0  0  0  0  0  0
  -12.6699   72.6954  -38.2484 C   0  0  0  0  0  0  0  0  0  0  0  0
  -11.8403   73.4368  -40.3996 C   0  0  0  0  0  0  0  0  0  0  0  0
  -12.2941   72.2042  -39.6444 C   0  0  2  0  0  0  0  0  0  0  0  0
  -16.4472   70.8374  -38.4833 O   0  0  0  0  0  0  0  0  0  0  0  0
  1  2  2  0
  1  3  1  0
 12  1  1  0
  3  4  1  0
  4  5  2  0
  4 10  1  0
  5  6  1  0
  6  7  2  0
  7  8  1  0
  9  7  1  0
 10  9  2  0
 11 13  2  0
 11 16  1  0
 24 11  1  0
 16 12  1  0
 22 14  1  0
 23 15  1  0
 16 17  1  6
 17 18  1  0
 18 20  2  0
 18 21  1  0
 22 19  2  0
 23 19  1  0
 20 22  1  0
 21 23  2  0
 25 24  1  6
 26 25  1  0
 25 28  1  0
 26 27  2  0
 30 26  1  0
 28 29  1  1
 28 58  1  0
 29 50  1  0
 31 30  1  0
 30 36  1  0
 32 31  1  0
 31 34  1  1
 32 33  2  0
 38 32  1  0
 34 35  1  0
 35 36  2  0
 37 39  2  0
 40 37  1  0
 37 45  1  0
 38 40  1  0
 38 43  1  0
 40 41  1  1
 41 44  1  0
 43 42  1  0
 42 44  1  0
 45 46  1  0
 46 47  1  0
 46 49  1  1
 47 48  2  0
 47 51  1  0
 50 52  1  0
 50 53  1  0
 50 58  1  0
 51 53  1  0
 51 55  1  0
 53 54  1  6
 54 57  1  0
 55 57  1  0
 57 56  1  6
M  END
$$$$
