
     RDKit          3D

 58 64  0  0  0  0  0  0  0  0999 V2000
  -18.1934   64.2282  -40.0183 C   0  0  0  0  0  0  0  0  0  0  0  0
  -19.4403   64.4468  -39.8272 O   0  0  0  0  0  0  0  0  0  0  0  0
  -17.7478   62.8868  -39.9395 N   0  0  0  0  0  0  0  0  0  0  0  0
  -18.6688   61.8012  -39.9793 C   0  0  0  0  0  0  0  0  0  0  0  0
  -20.0268   61.9668  -39.8482 C   0  0  0  0  0  0  0  0  0  0  0  0
  -20.9029   60.9124  -39.8790 C   0  0  0  0  0  0  0  0  0  0  0  0
  -20.4518   59.5929  -40.0487 C   0  0  0  0  0  0  0  0  0  0  0  0
  -21.3994   58.4468  -40.0814 C   0  0  0  0  0  0  0  0  0  0  0  0
  -19.0922   59.4356  -40.1785 C   0  0  0  0  0  0  0  0  0  0  0  0
  -18.2100   60.4881  -40.1484 C   0  0  0  0  0  0  0  0  0  0  0  0
  -16.7334   67.6565  -40.1518 C   0  0  0  0  0  0  0  0  0  0  0  0
  -17.3761   65.3311  -40.2889 N   0  0  0  0  0  0  0  0  0  0  0  0
  -15.6080   67.4221  -40.7803 O   0  0  0  0  0  0  0  0  0  0  0  0
  -18.3048   68.2542  -33.9112 F   0  0  0  0  0  0  0  0  0  0  0  0
  -21.3743   65.4565  -36.1268 F   0  0  0  0  0  0  0  0  0  0  0  0
  -17.2797   66.5384  -39.4366 C   0  0  1  0  0  0  0  0  0  0  0  0
  -16.9193   66.1778  -38.0665 C   0  0  0  0  0  0  0  0  0  0  0  0
  -17.9471   66.3309  -37.0265 C   0  0  0  0  0  0  0  0  0  0  0  0
  -19.8460   66.8664  -34.9927 C   0  0  0  0  0  0  0  0  0  0  0  0
  -17.6737   67.1758  -35.9357 C   0  0  0  0  0  0  0  0  0  0  0  0
  -19.2042   65.7814  -37.0375 C   0  0  0  0  0  0  0  0  0  0  0  0
  -18.5976   67.4338  -34.9499 C   0  0  0  0  0  0  0  0  0  0  0  0
  -20.1523   66.0321  -36.0474 C   0  0  0  0  0  0  0  0  0  0  0  0
  -17.1840   68.9802  -40.3122 N   0  0  0  0  0  0  0  0  0  0  0  0
  -18.5382   69.4040  -39.9663 C   0  0  2  0  0  0  0  0  0  0  0  0
  -18.9247   70.7284  -40.4475 C   0  0  0  0  0  0  0  0  0  0  0  0
  -19.4401   71.5240  -39.5614 O   0  0  0  0  0  0  0  0  0  0  0  0
  -18.7283   69.2245  -38.5045 C   0  0  2  0  0  0  0  0  0  0  0  0
  -18.9881   70.3870  -37.7825 O   0  0  0  0  0  0  0  0  0  0  0  0
  -18.8231   71.2721  -41.7391 N   0  0  0  0  0  0  0  0  0  0  0  0
  -17.6466   71.4425  -42.5415 C   0  0  2  0  0  0  0  0  0  0  0  0
  -17.3442   72.8451  -42.9270 C   0  0  0  0  0  0  0  0  0  0  0  0
  -16.5722   72.9129  -43.9608 O   0  0  0  0  0  0  0  0  0  0  0  0
  -18.2094   70.8487  -43.8655 C   0  0  0  0  0  0  0  0  0  0  0  0
  -19.5135   71.5648  -43.8794 C   0  0  0  0  0  0  0  0  0  0  0  0
  -19.8618   71.8067  -42.6165 C   0  0  0  0  0  0  0  0  0  0  0  0
  -16.6639   73.4571  -40.2212 C   0  0  0  0  0  0  0  0  0  0  0  0
  -17.7830   74.0365  -42.3249 N   0  0  0  0  0  0  0  0  0  0  0  0
  -15.7060   73.0404  -40.9828 O   0  0  0  0  0  0  0  0  0  0  0  0
  -17.5477   74.4007  -40.9138 C   0  0  1  0  0  0  0  0  0  0  0  0
  -18.8881   74.6374  -40.3341 C   0  0  0  0  0  0  0  0  0  0  0  0
  -18.6169   76.2891  -42.1895 C   0  0  0  0  0  0  0  0  0  0  0  0
  -18.5359   75.0569  -43.0546 C   0  0  0  0  0  0  0  0  0  0  0  0
  -19.3184   76.0253  -40.8547 C   0  0  0  0  0  0  0  0  0  0  0  0
  -16.7276   72.9793  -38.9080 N   0  0  0  0  0  0  0  0  0  0  0  0
  -16.5909   73.7325  -37.6797 C   0  0  2  0  0  0  0  0  0  0  0  0
  -17.6992   73.4575  -36.7531 C   0  0  0  0  0  0  0  0  0  0  0  0
  -18.5226   74.4191  -36.5922 O   0  0  0  0  0  0  0  0  0  0  0  0
  -16.3353   75.1967  -37.8778 C   0  0  0  0  0  0  0  0  0  0  0  0
  -18.0854   69.9334  -36.8110 C   0  0  0  0  0  0  0  0  0  0  0  0
  -17.9325   72.2679  -36.0458 N   0  0  0  0  0  0  0  0  0  0  0  0
  -18.6366   69.0771  -35.8583 O   0  0  0  0  0  0  0  0  0  0  0  0
  -17.2406   71.0082  -36.2090 C   0  0  1  0  0  0  0  0  0  0  0  0
  -16.9639   70.6272  -34.7304 C   0  0  0  0  0  0  0  0  0  0  0  0
  -18.8973   71.9711  -34.9681 C   0  0  0  0  0  0  0  0  0  0  0  0
  -17.1926   72.6722  -33.3971 C   0  0  0  0  0  0  0  0  0  0  0  0
  -17.9230   71.4498  -33.9143 C   0  0  2  0  0  0  0  0  0  0  0  0
  -17.4844   69.2006  -37.8147 O   0  0  0  0  0  0  0  0  0  0  0  0
  1  2  2  0
  1  3  1  0
 12  1  1  0
  3  4  1  0
  4  5  2  0
  4 10  1  0
  5  6  1  0
  6  7  2  0
  7  8  1  0
  9  7  1  0
 10  9  2  0
 11 13  2  0
 11 16  1  0
 24 11  1  0
 16 12  1  0
 22 14  1  0
 23 15  1  0
 16 17  1  1
 17 18  1  0
 18 20  2  0
 18 21  1  0
 22 19  2  0
 23 19  1  0
 20 22  1  0
 21 23  2  0
 25 24  1  1
 26 25  1  0
 25 28  1  0
 26 27  2  0
 30 26  1  0
 28 29  1  1
 28 58  1  0
 29 50  1  0
 31 30  1  0
 30 36  1  0
 32 31  1  0
 31 34  1  6
 32 33  2  0
 38 32  1  0
 34 35  1  0
 35 36  2  0
 37 39  2  0
 40 37  1  0
 37 45  1  0
 38 40  1  0
 38 43  1  0
 40 41  1  1
 41 44  1  0
 43 42  1  0
 42 44  1  0
 45 46  1  0
 46 47  1  0
 46 49  1  6
 47 48  2  0
 47 51  1  0
 50 52  1  0
 50 53  1  0
 50 58  1  0
 51 53  1  0
 51 55  1  0
 53 54  1  1
 54 57  1  0
 55 57  1  0
 57 56  1  6
M  END
$$$$
