
     RDKit          3D

 58 64  0  0  0  0  0  0  0  0999 V2000
  -18.7694   66.1047  -37.4372 C   0  0  0  0  0  0  0  0  0  0  0  0
  -19.0276   67.1520  -36.7476 O   0  0  0  0  0  0  0  0  0  0  0  0
  -19.4207   64.9038  -37.0661 N   0  0  0  0  0  0  0  0  0  0  0  0
  -20.4110   64.8888  -36.0428 C   0  0  0  0  0  0  0  0  0  0  0  0
  -20.7332   65.9973  -35.2969 C   0  0  0  0  0  0  0  0  0  0  0  0
  -21.6823   65.9681  -34.3077 C   0  0  0  0  0  0  0  0  0  0  0  0
  -22.3829   64.7894  -34.0026 C   0  0  0  0  0  0  0  0  0  0  0  0
  -23.4122   64.7539  -32.9293 C   0  0  0  0  0  0  0  0  0  0  0  0
  -22.0545   63.6849  -34.7525 C   0  0  0  0  0  0  0  0  0  0  0  0
  -21.1046   63.7084  -35.7445 C   0  0  0  0  0  0  0  0  0  0  0  0
  -18.3294   68.5028  -39.1890 C   0  0  0  0  0  0  0  0  0  0  0  0
  -17.8669   66.2338  -38.4985 N   0  0  0  0  0  0  0  0  0  0  0  0
  -19.3386   68.1107  -39.9267 O   0  0  0  0  0  0  0  0  0  0  0  0
  -16.9447   68.3077  -44.5592 F   0  0  0  0  0  0  0  0  0  0  0  0
  -16.8856   63.7854  -43.2540 F   0  0  0  0  0  0  0  0  0  0  0  0
  -17.3066   67.5183  -38.9774 C   0  0  1  0  0  0  0  0  0  0  0  0
  -16.1817   67.2876  -39.8821 C   0  0  0  0  0  0  0  0  0  0  0  0
  -16.4823   66.7995  -41.2360 C   0  0  0  0  0  0  0  0  0  0  0  0
  -16.9221   66.0538  -43.9340 C   0  0  0  0  0  0  0  0  0  0  0  0
  -16.6119   67.7413  -42.2726 C   0  0  0  0  0  0  0  0  0  0  0  0
  -16.5839   65.4875  -41.6242 C   0  0  0  0  0  0  0  0  0  0  0  0
  -16.8254   67.3763  -43.5814 C   0  0  0  0  0  0  0  0  0  0  0  0
  -16.7997   65.1001  -42.9453 C   0  0  0  0  0  0  0  0  0  0  0  0
  -18.4595   69.8326  -38.7463 N   0  0  0  0  0  0  0  0  0  0  0  0
  -18.3302   70.9814  -39.6388 C   0  0  2  0  0  0  0  0  0  0  0  0
  -17.2700   71.9269  -39.2968 C   0  0  0  0  0  0  0  0  0  0  0  0
  -17.6206   73.1752  -39.2441 O   0  0  0  0  0  0  0  0  0  0  0  0
  -19.6653   71.6144  -39.7871 C   0  0  2  0  0  0  0  0  0  0  0  0
  -19.7636   72.9285  -39.3357 O   0  0  0  0  0  0  0  0  0  0  0  0
  -15.9147   71.6835  -39.0172 N   0  0  0  0  0  0  0  0  0  0  0  0
  -15.3543   70.8508  -37.9928 C   0  0  2  0  0  0  0  0  0  0  0  0
  -14.4762   71.5519  -37.0208 C   0  0  0  0  0  0  0  0  0  0  0  0
  -13.6777   70.7409  -36.4092 O   0  0  0  0  0  0  0  0  0  0  0  0
  -14.3263   70.0912  -38.8805 C   0  0  0  0  0  0  0  0  0  0  0  0
  -13.7639   71.2646  -39.6019 C   0  0  0  0  0  0  0  0  0  0  0  0
  -14.7144   72.1952  -39.6746 C   0  0  0  0  0  0  0  0  0  0  0  0
  -16.7430   72.8987  -35.9225 C   0  0  0  0  0  0  0  0  0  0  0  0
  -14.4222   72.9221  -36.7140 N   0  0  0  0  0  0  0  0  0  0  0  0
  -16.4260   71.7636  -35.3914 O   0  0  0  0  0  0  0  0  0  0  0  0
  -15.5626   73.7175  -36.2182 C   0  0  1  0  0  0  0  0  0  0  0  0
  -15.7223   74.8292  -37.1812 C   0  0  0  0  0  0  0  0  0  0  0  0
  -13.4305   75.0557  -36.2114 C   0  0  0  0  0  0  0  0  0  0  0  0
  -13.2011   73.7146  -36.8611 C   0  0  0  0  0  0  0  0  0  0  0  0
  -14.5920   75.8252  -36.8454 C   0  0  0  0  0  0  0  0  0  0  0  0
  -18.0967   73.1814  -36.1335 N   0  0  0  0  0  0  0  0  0  0  0  0
  -18.8919   74.2280  -35.5278 C   0  0  2  0  0  0  0  0  0  0  0  0
  -19.6195   75.0066  -36.5411 C   0  0  0  0  0  0  0  0  0  0  0  0
  -19.1990   76.1991  -36.7135 O   0  0  0  0  0  0  0  0  0  0  0  0
  -18.1448   75.0836  -34.5488 C   0  0  0  0  0  0  0  0  0  0  0  0
  -20.9872   72.5875  -38.7433 C   0  0  0  0  0  0  0  0  0  0  0  0
  -20.7057   74.5745  -37.3179 N   0  0  0  0  0  0  0  0  0  0  0  0
  -22.0895   72.6720  -39.5933 O   0  0  0  0  0  0  0  0  0  0  0  0
  -21.2253   73.2281  -37.4150 C   0  0  1  0  0  0  0  0  0  0  0  0
  -22.7490   73.4868  -37.2752 C   0  0  0  0  0  0  0  0  0  0  0  0
  -21.6035   75.3342  -38.2107 C   0  0  0  0  0  0  0  0  0  0  0  0
  -23.0211   75.7128  -36.2838 C   0  0  0  0  0  0  0  0  0  0  0  0
  -22.9423   74.9453  -37.5877 C   0  0  2  0  0  0  0  0  0  0  0  0
  -20.5219   71.2886  -38.6990 O   0  0  0  0  0  0  0  0  0  0  0  0
  1  2  2  0
  1  3  1  0
 12  1  1  0
  3  4  1  0
  4  5  2  0
  4 10  1  0
  5  6  1  0
  6  7  2  0
  7  8  1  0
  9  7  1  0
 10  9  2  0
 11 13  2  0
 11 16  1  0
 24 11  1  0
 16 12  1  0
 22 14  1  0
 23 15  1  0
 16 17  1  6
 17 18  1  0
 18 20  2  0
 18 21  1  0
 22 19  2  0
 23 19  1  0
 20 22  1  0
 21 23  2  0
 25 24  1  1
 26 25  1  0
 25 28  1  0
 26 27  2  0
 30 26  1  0
 28 29  1  1
 28 58  1  0
 29 50  1  0
 31 30  1  0
 30 36  1  0
 32 31  1  0
 31 34  1  6
 32 33  2  0
 38 32  1  0
 34 35  1  0
 35 36  2  0
 37 39  2  0
 40 37  1  0
 37 45  1  0
 38 40  1  0
 38 43  1  0
 40 41  1  6
 41 44  1  0
 43 42  1  0
 42 44  1  0
 45 46  1  0
 46 47  1  0
 46 49  1  6
 47 48  2  0
 47 51  1  0
 50 52  1  0
 50 53  1  0
 50 58  1  0
 51 53  1  0
 51 55  1  0
 53 54  1  6
 54 57  1  0
 55 57  1  0
 57 56  1  1
M  END
$$$$
