
     RDKit          3D

 58 64  0  0  0  0  0  0  0  0999 V2000
  -17.9262   67.3289  -41.3582 C   0  0  0  0  0  0  0  0  0  0  0  0
  -19.0692   67.3858  -41.9321 O   0  0  0  0  0  0  0  0  0  0  0  0
  -16.8218   67.8819  -42.0502 N   0  0  0  0  0  0  0  0  0  0  0  0
  -16.9552   68.3665  -43.3827 C   0  0  0  0  0  0  0  0  0  0  0  0
  -17.8941   69.3010  -43.7486 C   0  0  0  0  0  0  0  0  0  0  0  0
  -18.0189   69.7531  -45.0371 C   0  0  0  0  0  0  0  0  0  0  0  0
  -17.1829   69.2788  -46.0616 C   0  0  0  0  0  0  0  0  0  0  0  0
  -17.3165   69.7662  -47.4606 C   0  0  0  0  0  0  0  0  0  0  0  0
  -16.2469   68.3438  -45.6877 C   0  0  0  0  0  0  0  0  0  0  0  0
  -16.1175   67.8873  -44.3986 C   0  0  0  0  0  0  0  0  0  0  0  0
  -19.4810   67.9161  -38.7529 C   0  0  0  0  0  0  0  0  0  0  0  0
  -17.8634   66.7263  -40.0971 N   0  0  0  0  0  0  0  0  0  0  0  0
  -20.7799   68.0095  -38.6095 O   0  0  0  0  0  0  0  0  0  0  0  0
  -20.8182   66.5541  -33.9601 F   0  0  0  0  0  0  0  0  0  0  0  0
  -22.9784   63.3862  -36.6908 F   0  0  0  0  0  0  0  0  0  0  0  0
  -19.0006   66.6245  -39.1538 C   0  0  1  0  0  0  0  0  0  0  0  0
  -18.8220   65.4913  -38.2477 C   0  0  0  0  0  0  0  0  0  0  0  0
  -19.8813   65.2307  -37.2621 C   0  0  0  0  0  0  0  0  0  0  0  0
  -21.9082   64.9754  -35.2985 C   0  0  0  0  0  0  0  0  0  0  0  0
  -19.8704   65.9611  -36.0601 C   0  0  0  0  0  0  0  0  0  0  0  0
  -20.9476   64.3817  -37.4186 C   0  0  0  0  0  0  0  0  0  0  0  0
  -20.8557   65.8349  -35.1087 C   0  0  0  0  0  0  0  0  0  0  0  0
  -21.9546   64.2418  -36.4654 C   0  0  0  0  0  0  0  0  0  0  0  0
  -18.8120   69.1235  -38.4771 N   0  0  0  0  0  0  0  0  0  0  0  0
  -17.5897   69.1884  -37.6804 C   0  0  2  0  0  0  0  0  0  0  0  0
  -17.5104   70.3043  -36.7406 C   0  0  0  0  0  0  0  0  0  0  0  0
  -16.4200   71.0063  -36.7867 O   0  0  0  0  0  0  0  0  0  0  0  0
  -16.4252   69.1005  -38.5977 C   0  0  2  0  0  0  0  0  0  0  0  0
  -15.5813   70.2086  -38.6094 O   0  0  0  0  0  0  0  0  0  0  0  0
  -18.4462   70.7321  -35.7838 N   0  0  0  0  0  0  0  0  0  0  0  0
  -19.8042   71.1442  -35.9913 C   0  0  2  0  0  0  0  0  0  0  0  0
  -20.1133   72.5335  -35.5654 C   0  0  0  0  0  0  0  0  0  0  0  0
  -21.3771   72.7146  -35.3663 O   0  0  0  0  0  0  0  0  0  0  0  0
  -20.4544   70.2977  -34.8588 C   0  0  0  0  0  0  0  0  0  0  0  0
  -19.4900   70.6225  -33.7734 C   0  0  0  0  0  0  0  0  0  0  0  0
  -18.3094   70.8758  -34.3363 C   0  0  0  0  0  0  0  0  0  0  0  0
  -18.5406   73.5587  -37.7182 C   0  0  0  0  0  0  0  0  0  0  0  0
  -19.2311   73.6088  -35.3657 N   0  0  0  0  0  0  0  0  0  0  0  0
  -19.7939   73.3527  -37.9589 O   0  0  0  0  0  0  0  0  0  0  0  0
  -18.3242   74.1536  -36.3951 C   0  0  1  0  0  0  0  0  0  0  0  0
  -16.9653   74.0652  -35.8168 C   0  0  0  0  0  0  0  0  0  0  0  0
  -18.2860   75.5472  -34.2991 C   0  0  0  0  0  0  0  0  0  0  0  0
  -19.1209   74.3099  -34.0862 C   0  0  0  0  0  0  0  0  0  0  0  0
  -16.8769   75.2262  -34.8036 C   0  0  0  0  0  0  0  0  0  0  0  0
  -17.6067   73.2064  -38.6982 N   0  0  0  0  0  0  0  0  0  0  0  0
  -16.7166   74.0792  -39.4334 C   0  0  2  0  0  0  0  0  0  0  0  0
  -15.3280   73.5974  -39.3847 C   0  0  0  0  0  0  0  0  0  0  0  0
  -14.5327   74.3058  -38.6817 O   0  0  0  0  0  0  0  0  0  0  0  0
  -16.8507   75.5322  -39.0876 C   0  0  0  0  0  0  0  0  0  0  0  0
  -15.5476   70.1137  -40.0073 C   0  0  0  0  0  0  0  0  0  0  0  0
  -14.8062   72.4608  -40.0218 N   0  0  0  0  0  0  0  0  0  0  0  0
  -14.5908   69.2315  -40.5084 O   0  0  0  0  0  0  0  0  0  0  0  0
  -15.5512   71.4309  -40.7119 C   0  0  1  0  0  0  0  0  0  0  0  0
  -14.7165   71.2803  -42.0114 C   0  0  0  0  0  0  0  0  0  0  0  0
  -13.4085   72.0117  -40.1798 C   0  0  0  0  0  0  0  0  0  0  0  0
  -13.3413   73.2984  -42.2306 C   0  0  0  0  0  0  0  0  0  0  0  0
  -13.3723   71.8794  -41.7006 C   0  0  2  0  0  0  0  0  0  0  0  0
  -16.7733   69.4845  -39.9225 O   0  0  0  0  0  0  0  0  0  0  0  0
  1  2  2  0
  1  3  1  0
 12  1  1  0
  3  4  1  0
  4  5  2  0
  4 10  1  0
  5  6  1  0
  6  7  2  0
  7  8  1  0
  9  7  1  0
 10  9  2  0
 11 13  2  0
 11 16  1  0
 24 11  1  0
 16 12  1  0
 22 14  1  0
 23 15  1  0
 16 17  1  1
 17 18  1  0
 18 20  2  0
 18 21  1  0
 22 19  2  0
 23 19  1  0
 20 22  1  0
 21 23  2  0
 25 24  1  6
 26 25  1  0
 25 28  1  0
 26 27  2  0
 30 26  1  0
 28 29  1  1
 28 58  1  0
 29 50  1  0
 31 30  1  0
 30 36  1  0
 32 31  1  0
 31 34  1  1
 32 33  2  0
 38 32  1  0
 34 35  1  0
 35 36  2  0
 37 39  2  0
 40 37  1  0
 37 45  1  0
 38 40  1  0
 38 43  1  0
 40 41  1  1
 41 44  1  0
 43 42  1  0
 42 44  1  0
 45 46  1  0
 46 47  1  0
 46 49  1  1
 47 48  2  0
 47 51  1  0
 50 52  1  0
 50 53  1  0
 50 58  1  0
 51 53  1  0
 51 55  1  0
 53 54  1  6
 54 57  1  0
 55 57  1  0
 57 56  1  6
M  END
$$$$
