
     RDKit          3D

 35 38  0  0  0  0  0  0  0  0999 V2000
   21.0162   -3.9966  -18.3102 C   0  0  0  0  0  0  0  0  0  0  0  0
   21.6379   -5.4129  -18.5647 C   0  0  1  0  0  0  0  0  0  0  0  0
   23.9056   -4.6142  -17.9413 C   0  0  0  0  0  0  0  0  0  0  0  0
   22.4910   -4.0513  -20.4059 C   0  0  0  0  0  0  0  0  0  0  0  0
   21.9517   -5.4389  -20.0085 C   0  0  2  0  0  0  0  0  0  0  0  0
   20.7154   -5.6426  -20.8494 C   0  0  0  0  0  0  0  0  0  0  0  0
   20.8308   -6.7256  -21.8692 C   0  0  0  0  0  0  0  0  0  0  0  0
   22.7696   -5.4011  -17.6680 N   0  0  0  0  0  0  0  0  0  0  0  0
   24.8660   -4.4444  -17.1107 N   0  0  0  0  0  0  0  0  0  0  0  0
   22.0832   -5.3149  -23.8230 O   0  0  0  0  0  0  0  0  0  0  0  0
   23.6292   -6.1486  -21.7451 C   0  0  0  0  0  0  0  0  0  0  0  0
   22.5603   -7.7351  -23.5897 O   0  0  0  0  0  0  0  0  0  0  0  0
   20.4546   -9.4047  -15.8682 N   0  0  0  0  0  0  0  0  0  0  0  0
   23.0357   -6.4134  -20.3575 C   0  0  0  0  0  0  0  0  0  0  0  0
   20.6270   -6.3908  -18.0840 C   0  0  0  0  0  0  0  0  0  0  0  0
   20.9669   -7.4294  -17.2395 C   0  0  0  0  0  0  0  0  0  0  0  0
   20.0585   -8.3507  -16.7353 C   0  0  0  0  0  0  0  0  0  0  0  0
   20.6550  -10.7367  -16.3101 C   0  0  0  0  0  0  0  0  0  0  0  0
   21.7401  -11.5150  -15.6978 C   0  0  0  0  0  0  0  0  0  0  0  0
   23.5917  -11.6390  -14.2541 C   0  0  0  0  0  0  0  0  0  0  0  0
   18.8230   -5.3419  -19.2751 F   0  0  0  0  0  0  0  0  0  0  0  0
   19.2980   -6.2851  -18.4331 C   0  0  0  0  0  0  0  0  0  0  0  0
   22.2763   -6.4389  -22.8691 S   0  0  1  0  0  6  0  0  0  0  0  0
   24.0451   -3.7860  -19.5420 S   0  0  0  0  0  0  0  0  0  0  0  0
   18.3668   -7.1965  -17.9401 C   0  0  0  0  0  0  0  0  0  0  0  0
   18.7360   -8.2221  -17.0988 C   0  0  0  0  0  0  0  0  0  0  0  0
   19.9201  -11.2356  -17.2041 O   0  0  0  0  0  0  0  0  0  0  0  0
   21.9161  -12.8469  -15.9979 C   0  0  0  0  0  0  0  0  0  0  0  0
   22.9189  -13.5307  -15.4203 N   0  0  0  0  0  0  0  0  0  0  0  0
   23.7752  -12.9744  -14.5494 C   0  0  0  0  0  0  0  0  0  0  0  0
   22.5944  -10.9542  -14.8269 N   0  0  0  0  0  0  0  0  0  0  0  0
   24.8093  -13.7093  -13.9636 O   0  0  0  0  0  0  0  0  0  0  0  0
   25.5872  -14.5450  -14.8045 C   0  0  0  0  0  0  0  0  0  0  0  0
   25.5295  -13.9875  -16.0808 F   0  0  0  0  0  0  0  0  0  0  0  0
   25.3377   -5.2355  -16.6393 H   0  0  0  0  0  0  0  0  0  0  0  0
  2  1  1  6
  2  5  1  0
  2  8  1  0
 15  2  1  0
  8  3  1  0
  3  9  2  0
  3 24  1  0
  5  4  1  6
  4 24  1  0
  5  6  1  0
  5 14  1  0
  6  7  1  0
 23  7  1  1
 23 10  2  0
 14 11  1  0
 11 23  1  0
 23 12  2  0
 13 17  1  0
 18 13  1  0
 16 15  2  0
 15 22  1  0
 17 16  1  0
 17 26  2  0
 19 18  1  0
 18 27  2  0
 19 28  1  0
 31 19  2  0
 20 30  2  0
 20 31  1  0
 22 21  1  0
 22 25  2  0
 25 26  1  0
 28 29  2  0
 29 30  1  0
 30 32  1  0
 32 33  1  0
 33 34  1  0
  9 35  1  0
M  END
$$$$
