
     RDKit          3D

 35 38  0  0  0  0  0  0  0  0999 V2000
   21.1446   -4.1763  -18.5199 C   0  0  0  0  0  0  0  0  0  0  0  0
   21.7623   -5.5880  -18.8079 C   0  0  1  0  0  0  0  0  0  0  0  0
   24.0392   -4.7996  -18.2051 C   0  0  0  0  0  0  0  0  0  0  0  0
   22.5878   -4.1949  -20.6382 C   0  0  0  0  0  0  0  0  0  0  0  0
   22.0544   -5.5892  -20.2565 C   0  0  2  0  0  0  0  0  0  0  0  0
   20.8056   -5.7787  -21.0821 C   0  0  0  0  0  0  0  0  0  0  0  0
   20.9056   -6.8440  -22.1220 C   0  0  0  0  0  0  0  0  0  0  0  0
   22.9074   -5.5914  -17.9282 N   0  0  0  0  0  0  0  0  0  0  0  0
   25.0119   -4.6440  -17.3862 N   0  0  0  0  0  0  0  0  0  0  0  0
   22.1287   -5.3998  -24.0698 O   0  0  0  0  0  0  0  0  0  0  0  0
   23.7056   -6.2688  -22.0300 C   0  0  0  0  0  0  0  0  0  0  0  0
   22.6091   -7.8236  -23.8853 O   0  0  0  0  0  0  0  0  0  0  0  0
   20.5845   -9.5266  -16.0321 N   0  0  0  0  0  0  0  0  0  0  0  0
   23.1330   -6.5574  -20.6384 C   0  0  0  0  0  0  0  0  0  0  0  0
   20.7587   -6.5742  -18.3290 C   0  0  0  0  0  0  0  0  0  0  0  0
   21.0952   -7.5803  -17.4448 C   0  0  0  0  0  0  0  0  0  0  0  0
   20.1921   -8.5069  -16.9409 C   0  0  0  0  0  0  0  0  0  0  0  0
   20.7497  -10.8820  -16.4135 C   0  0  0  0  0  0  0  0  0  0  0  0
   21.7964  -11.6679  -15.7466 C   0  0  0  0  0  0  0  0  0  0  0  0
   23.6033  -11.7930  -14.2474 C   0  0  0  0  0  0  0  0  0  0  0  0
   18.9693   -5.6003  -19.6029 F   0  0  0  0  0  0  0  0  0  0  0  0
   19.4389   -6.5082  -18.7201 C   0  0  0  0  0  0  0  0  0  0  0  0
   22.3360   -6.5400  -23.1383 S   0  0  1  0  0  6  0  0  0  0  0  0
   24.1548   -3.9442  -19.7933 S   0  0  0  0  0  0  0  0  0  0  0  0
   18.5130   -7.4258  -18.2284 C   0  0  0  0  0  0  0  0  0  0  0  0
   18.8787   -8.4185  -17.3470 C   0  0  0  0  0  0  0  0  0  0  0  0
   20.0165  -11.3946  -17.3011 O   0  0  0  0  0  0  0  0  0  0  0  0
   21.9453  -13.0127  -15.9998 C   0  0  0  0  0  0  0  0  0  0  0  0
   22.9133  -13.7031  -15.3728 N   0  0  0  0  0  0  0  0  0  0  0  0
   23.7594  -13.1414  -14.4955 C   0  0  0  0  0  0  0  0  0  0  0  0
   22.6408  -11.1015  -14.8695 N   0  0  0  0  0  0  0  0  0  0  0  0
   24.7571  -13.8834  -13.8578 O   0  0  0  0  0  0  0  0  0  0  0  0
   25.7679  -14.4655  -14.6643 C   0  0  0  0  0  0  0  0  0  0  0  0
   25.1410  -14.9081  -15.8279 F   0  0  0  0  0  0  0  0  0  0  0  0
   24.8655   -4.4055  -16.3902 H   0  0  0  0  0  0  0  0  0  0  0  0
  2  1  1  6
  2  5  1  0
  2  8  1  0
 15  2  1  0
  8  3  1  0
  3  9  2  0
  3 24  1  0
  5  4  1  6
  4 24  1  0
  5  6  1  0
  5 14  1  0
  6  7  1  0
 23  7  1  1
 23 10  2  0
 14 11  1  0
 11 23  1  0
 23 12  2  0
 13 17  1  0
 18 13  1  0
 16 15  2  0
 15 22  1  0
 17 16  1  0
 17 26  2  0
 19 18  1  0
 18 27  2  0
 19 28  1  0
 31 19  2  0
 20 30  2  0
 20 31  1  0
 22 21  1  0
 22 25  2  0
 25 26  1  0
 28 29  2  0
 29 30  1  0
 30 32  1  0
 32 33  1  0
 33 34  1  0
  9 35  1  0
M  END
$$$$
