
     RDKit          3D

 35 38  0  0  0  0  0  0  0  0999 V2000
   20.8938   -4.2616  -18.2989 C   0  0  0  0  0  0  0  0  0  0  0  0
   21.6486   -5.4996  -18.8946 C   0  0  1  0  0  0  0  0  0  0  0  0
   23.8513   -4.5905  -18.1943 C   0  0  0  0  0  0  0  0  0  0  0  0
   22.2251   -3.6692  -20.4076 C   0  0  0  0  0  0  0  0  0  0  0  0
   21.8680   -5.1654  -20.3172 C   0  0  2  0  0  0  0  0  0  0  0  0
   20.6089   -5.3254  -21.1334 C   0  0  0  0  0  0  0  0  0  0  0  0
   20.7748   -6.1321  -22.3775 C   0  0  0  0  0  0  0  0  0  0  0  0
   22.8286   -5.5504  -18.0639 N   0  0  0  0  0  0  0  0  0  0  0  0
   24.8398   -4.4946  -17.3851 N   0  0  0  0  0  0  0  0  0  0  0  0
   21.7347   -4.1807  -24.0044 O   0  0  0  0  0  0  0  0  0  0  0  0
   23.4955   -5.2620  -22.2344 C   0  0  0  0  0  0  0  0  0  0  0  0
   22.4878   -6.5159  -24.3496 O   0  0  0  0  0  0  0  0  0  0  0  0
   21.1535  -10.3135  -17.8052 N   0  0  0  0  0  0  0  0  0  0  0  0
   23.0268   -5.8989  -20.9219 C   0  0  0  0  0  0  0  0  0  0  0  0
   20.7843   -6.6752  -18.6111 C   0  0  0  0  0  0  0  0  0  0  0  0
   21.3182   -7.9238  -18.3591 C   0  0  0  0  0  0  0  0  0  0  0  0
   20.5598   -9.0471  -18.0573 C   0  0  0  0  0  0  0  0  0  0  0  0
   20.8296  -11.1097  -16.6779 C   0  0  0  0  0  0  0  0  0  0  0  0
   21.8821  -11.9568  -16.1012 C   0  0  0  0  0  0  0  0  0  0  0  0
   24.1581  -12.3737  -15.6834 C   0  0  0  0  0  0  0  0  0  0  0  0
   18.7470   -5.4168  -18.8085 F   0  0  0  0  0  0  0  0  0  0  0  0
   19.4118   -6.5645  -18.5539 C   0  0  0  0  0  0  0  0  0  0  0  0
   22.1116   -5.4569  -23.3411 S   0  0  1  0  0  6  0  0  0  0  0  0
   23.7942   -3.4163  -19.5675 S   0  0  0  0  0  0  0  0  0  0  0  0
   18.6287   -7.6766  -18.2524 C   0  0  0  0  0  0  0  0  0  0  0  0
   19.1902   -8.9094  -18.0054 C   0  0  0  0  0  0  0  0  0  0  0  0
   19.6691  -11.0883  -16.1870 O   0  0  0  0  0  0  0  0  0  0  0  0
   21.5725  -13.1242  -15.4407 C   0  0  0  0  0  0  0  0  0  0  0  0
   22.5593  -13.8768  -14.9245 N   0  0  0  0  0  0  0  0  0  0  0  0
   23.8563  -13.5453  -15.0198 C   0  0  0  0  0  0  0  0  0  0  0  0
   23.1786  -11.6212  -16.1991 N   0  0  0  0  0  0  0  0  0  0  0  0
   24.8622  -14.3468  -14.4735 O   0  0  0  0  0  0  0  0  0  0  0  0
   24.7365  -15.7527  -14.6096 C   0  0  0  0  0  0  0  0  0  0  0  0
   23.6760  -16.1372  -13.7907 F   0  0  0  0  0  0  0  0  0  0  0  0
   25.4415   -5.3017  -17.1467 H   0  0  0  0  0  0  0  0  0  0  0  0
  2  1  1  1
  2  5  1  0
  2  8  1  0
 15  2  1  0
  8  3  1  0
  3  9  2  0
  3 24  1  0
  5  4  1  1
  4 24  1  0
  5  6  1  0
  5 14  1  0
  6  7  1  0
 23  7  1  1
 23 10  2  0
 14 11  1  0
 11 23  1  0
 23 12  2  0
 13 17  1  0
 18 13  1  0
 16 15  2  0
 15 22  1  0
 17 16  1  0
 17 26  2  0
 19 18  1  0
 18 27  2  0
 19 28  1  0
 31 19  2  0
 20 30  2  0
 20 31  1  0
 22 21  1  0
 22 25  2  0
 25 26  1  0
 28 29  2  0
 29 30  1  0
 30 32  1  0
 32 33  1  0
 33 34  1  0
  9 35  1  0
M  END
$$$$
