
     RDKit          3D

 35 38  0  0  0  0  0  0  0  0999 V2000
   21.0197   -4.3263  -17.9244 C   0  0  0  0  0  0  0  0  0  0  0  0
   21.7350   -5.5460  -18.6010 C   0  0  1  0  0  0  0  0  0  0  0  0
   23.9711   -4.7199  -17.9036 C   0  0  0  0  0  0  0  0  0  0  0  0
   22.3181   -3.6500  -20.0284 C   0  0  0  0  0  0  0  0  0  0  0  0
   21.9311   -5.1414  -20.0087 C   0  0  2  0  0  0  0  0  0  0  0  0
   20.6517   -5.2325  -20.8037 C   0  0  0  0  0  0  0  0  0  0  0  0
   20.7738   -5.9753  -22.0919 C   0  0  0  0  0  0  0  0  0  0  0  0
   22.9311   -5.6646  -17.8009 N   0  0  0  0  0  0  0  0  0  0  0  0
   24.9785   -4.6870  -17.1129 N   0  0  0  0  0  0  0  0  0  0  0  0
   21.7401   -3.9602  -23.6352 O   0  0  0  0  0  0  0  0  0  0  0  0
   23.5148   -5.1691  -21.9644 C   0  0  0  0  0  0  0  0  0  0  0  0
   22.4357   -6.2886  -24.1194 O   0  0  0  0  0  0  0  0  0  0  0  0
   21.1637  -10.3843  -17.6683 N   0  0  0  0  0  0  0  0  0  0  0  0
   23.0608   -5.8651  -20.6770 C   0  0  0  0  0  0  0  0  0  0  0  0
   20.8521   -6.7173  -18.3603 C   0  0  0  0  0  0  0  0  0  0  0  0
   21.3663   -7.9809  -18.1449 C   0  0  0  0  0  0  0  0  0  0  0  0
   20.5899   -9.1021  -17.8837 C   0  0  0  0  0  0  0  0  0  0  0  0
   20.9939  -11.1164  -16.4663 C   0  0  0  0  0  0  0  0  0  0  0  0
   22.1440  -11.8640  -15.9408 C   0  0  0  0  0  0  0  0  0  0  0  0
   24.4352  -11.9751  -15.4245 C   0  0  0  0  0  0  0  0  0  0  0  0
   18.8345   -5.4237  -18.5302 F   0  0  0  0  0  0  0  0  0  0  0  0
   19.4810   -6.5885  -18.3081 C   0  0  0  0  0  0  0  0  0  0  0  0
   22.1038   -5.2771  -23.0485 S   0  0  1  0  0  6  0  0  0  0  0  0
   23.9098   -3.4737  -19.2116 S   0  0  0  0  0  0  0  0  0  0  0  0
   18.6800   -7.6981  -18.0470 C   0  0  0  0  0  0  0  0  0  0  0  0
   19.2221   -8.9461  -17.8358 C   0  0  0  0  0  0  0  0  0  0  0  0
   19.8847  -11.1229  -15.8680 O   0  0  0  0  0  0  0  0  0  0  0  0
   22.0019  -13.1515  -15.4748 C   0  0  0  0  0  0  0  0  0  0  0  0
   23.0745  -13.8081  -15.0004 N   0  0  0  0  0  0  0  0  0  0  0  0
   24.3014  -13.2659  -14.9554 C   0  0  0  0  0  0  0  0  0  0  0  0
   23.3698  -11.3174  -15.8978 N   0  0  0  0  0  0  0  0  0  0  0  0
   25.3995  -13.9717  -14.4568 O   0  0  0  0  0  0  0  0  0  0  0  0
   25.3371  -15.3884  -14.4678 C   0  0  0  0  0  0  0  0  0  0  0  0
   24.7716  -15.7700  -13.2523 F   0  0  0  0  0  0  0  0  0  0  0  0
   25.8989   -5.0830  -17.3707 H   0  0  0  0  0  0  0  0  0  0  0  0
  2  1  1  1
  2  5  1  0
  2  8  1  0
 15  2  1  0
  8  3  1  0
  3  9  2  0
  3 24  1  0
  5  4  1  1
  4 24  1  0
  5  6  1  0
  5 14  1  0
  6  7  1  0
 23  7  1  1
 23 10  2  0
 14 11  1  0
 11 23  1  0
 23 12  2  0
 13 17  1  0
 18 13  1  0
 16 15  2  0
 15 22  1  0
 17 16  1  0
 17 26  2  0
 19 18  1  0
 18 27  2  0
 19 28  1  0
 31 19  2  0
 20 30  2  0
 20 31  1  0
 22 21  1  0
 22 25  2  0
 25 26  1  0
 28 29  2  0
 29 30  1  0
 30 32  1  0
 32 33  1  0
 33 34  1  0
  9 35  1  0
M  END
$$$$
