
     RDKit          3D

 35 38  0  0  0  0  0  0  0  0999 V2000
   21.2071   -4.1479  -18.4221 C   0  0  0  0  0  0  0  0  0  0  0  0
   21.8555   -5.5340  -18.7619 C   0  0  1  0  0  0  0  0  0  0  0  0
   24.1326   -4.6782  -18.2604 C   0  0  0  0  0  0  0  0  0  0  0  0
   22.5424   -4.0891  -20.6091 C   0  0  0  0  0  0  0  0  0  0  0  0
   22.0747   -5.5056  -20.2230 C   0  0  2  0  0  0  0  0  0  0  0  0
   20.7931   -5.7255  -20.9886 C   0  0  0  0  0  0  0  0  0  0  0  0
   20.8759   -6.7725  -22.0483 C   0  0  0  0  0  0  0  0  0  0  0  0
   23.0425   -5.5111  -17.9401 N   0  0  0  0  0  0  0  0  0  0  0  0
   25.1394   -4.5013  -17.4884 N   0  0  0  0  0  0  0  0  0  0  0  0
   21.9522   -5.2616  -24.0320 O   0  0  0  0  0  0  0  0  0  0  0  0
   23.6566   -6.1052  -22.0862 C   0  0  0  0  0  0  0  0  0  0  0  0
   22.5203   -7.6702  -23.9086 O   0  0  0  0  0  0  0  0  0  0  0  0
   20.9515   -9.5589  -16.0072 N   0  0  0  0  0  0  0  0  0  0  0  0
   23.1640   -6.4318  -20.6726 C   0  0  0  0  0  0  0  0  0  0  0  0
   20.9098   -6.5597  -18.2490 C   0  0  0  0  0  0  0  0  0  0  0  0
   21.3248   -7.5714  -17.4054 C   0  0  0  0  0  0  0  0  0  0  0  0
   20.4791   -8.5349  -16.8721 C   0  0  0  0  0  0  0  0  0  0  0  0
   20.9569  -10.9312  -16.3628 C   0  0  0  0  0  0  0  0  0  0  0  0
   21.9951  -11.7940  -15.7835 C   0  0  0  0  0  0  0  0  0  0  0  0
   23.9180  -12.0535  -14.4557 C   0  0  0  0  0  0  0  0  0  0  0  0
   19.0244   -5.6180  -19.4029 F   0  0  0  0  0  0  0  0  0  0  0  0
   19.5690   -6.5273  -18.5659 C   0  0  0  0  0  0  0  0  0  0  0  0
   22.2429   -6.4068  -23.1295 S   0  0  1  0  0  6  0  0  0  0  0  0
   24.1406   -3.7977  -19.8391 S   0  0  0  0  0  0  0  0  0  0  0  0
   18.6997   -7.4823  -18.0431 C   0  0  0  0  0  0  0  0  0  0  0  0
   19.1432   -8.4796  -17.2036 C   0  0  0  0  0  0  0  0  0  0  0  0
   20.0927  -11.3941  -17.1547 O   0  0  0  0  0  0  0  0  0  0  0  0
   22.0122  -13.1484  -16.0293 C   0  0  0  0  0  0  0  0  0  0  0  0
   22.9761  -13.9100  -15.4840 N   0  0  0  0  0  0  0  0  0  0  0  0
   23.9424  -13.4119  -14.6970 C   0  0  0  0  0  0  0  0  0  0  0  0
   22.9600  -11.2912  -14.9967 N   0  0  0  0  0  0  0  0  0  0  0  0
   24.9328  -14.2273  -14.1429 O   0  0  0  0  0  0  0  0  0  0  0  0
   24.8168  -15.6286  -14.3265 C   0  0  0  0  0  0  0  0  0  0  0  0
   25.5752  -15.9454  -15.4523 F   0  0  0  0  0  0  0  0  0  0  0  0
   25.2302   -4.9818  -16.5766 H   0  0  0  0  0  0  0  0  0  0  0  0
  2  1  1  1
  2  5  1  0
  2  8  1  0
 15  2  1  0
  8  3  1  0
  3  9  2  0
  3 24  1  0
  5  4  1  6
  4 24  1  0
  5  6  1  0
  5 14  1  0
  6  7  1  0
 23  7  1  1
 23 10  2  0
 14 11  1  0
 11 23  1  0
 23 12  2  0
 13 17  1  0
 18 13  1  0
 16 15  2  0
 15 22  1  0
 17 16  1  0
 17 26  2  0
 19 18  1  0
 18 27  2  0
 19 28  1  0
 31 19  2  0
 20 30  2  0
 20 31  1  0
 22 21  1  0
 22 25  2  0
 25 26  1  0
 28 29  2  0
 29 30  1  0
 30 32  1  0
 32 33  1  0
 33 34  1  0
  9 35  1  0
M  END
$$$$
