
     RDKit          3D

 35 38  0  0  0  0  0  0  0  0999 V2000
   20.9308   -3.7849  -18.3370 C   0  0  0  0  0  0  0  0  0  0  0  0
   21.6181   -5.1631  -18.6295 C   0  0  1  0  0  0  0  0  0  0  0  0
   23.8566   -4.2571  -18.0489 C   0  0  0  0  0  0  0  0  0  0  0  0
   22.3532   -3.7318  -20.4687 C   0  0  0  0  0  0  0  0  0  0  0  0
   21.8962   -5.1513  -20.0808 C   0  0  2  0  0  0  0  0  0  0  0  0
   20.6512   -5.4064  -20.8944 C   0  0  0  0  0  0  0  0  0  0  0  0
   20.7965   -6.4665  -21.9341 C   0  0  0  0  0  0  0  0  0  0  0  0
   22.7699   -5.1059  -17.7606 N   0  0  0  0  0  0  0  0  0  0  0  0
   24.8276   -4.0502  -17.2394 N   0  0  0  0  0  0  0  0  0  0  0  0
   21.9249   -4.9638  -23.8948 O   0  0  0  0  0  0  0  0  0  0  0  0
   23.5637   -5.7471  -21.8691 C   0  0  0  0  0  0  0  0  0  0  0  0
   22.5318   -7.3592  -23.7124 O   0  0  0  0  0  0  0  0  0  0  0  0
   20.6910   -9.2001  -15.9002 N   0  0  0  0  0  0  0  0  0  0  0  0
   23.0198   -6.0629  -20.4718 C   0  0  0  0  0  0  0  0  0  0  0  0
   20.6713   -6.1992  -18.1401 C   0  0  0  0  0  0  0  0  0  0  0  0
   21.0766   -7.2073  -17.2876 C   0  0  0  0  0  0  0  0  0  0  0  0
   20.2287   -8.1802  -16.7753 C   0  0  0  0  0  0  0  0  0  0  0  0
   20.5845  -10.5821  -16.1974 C   0  0  0  0  0  0  0  0  0  0  0  0
   21.5994  -11.4905  -15.6469 C   0  0  0  0  0  0  0  0  0  0  0  0
   23.5289  -11.8397  -14.3496 C   0  0  0  0  0  0  0  0  0  0  0  0
   18.8041   -5.2762  -19.3379 F   0  0  0  0  0  0  0  0  0  0  0  0
   19.3382   -6.1806  -18.4889 C   0  0  0  0  0  0  0  0  0  0  0  0
   22.1996   -6.0904  -22.9642 S   0  0  1  0  0  6  0  0  0  0  0  0
   23.9129   -3.3991  -19.6389 S   0  0  0  0  0  0  0  0  0  0  0  0
   18.4667   -7.1452  -17.9878 C   0  0  0  0  0  0  0  0  0  0  0  0
   18.9005   -8.1386  -17.1387 C   0  0  0  0  0  0  0  0  0  0  0  0
   19.6433  -11.0154  -16.9147 O   0  0  0  0  0  0  0  0  0  0  0  0
   21.5660  -12.8400  -15.9160 C   0  0  0  0  0  0  0  0  0  0  0  0
   22.5098  -13.6441  -15.3967 N   0  0  0  0  0  0  0  0  0  0  0  0
   23.5028  -13.1937  -14.6144 C   0  0  0  0  0  0  0  0  0  0  0  0
   22.5912  -11.0352  -14.8645 N   0  0  0  0  0  0  0  0  0  0  0  0
   24.4712  -14.0524  -14.0876 O   0  0  0  0  0  0  0  0  0  0  0  0
   25.7218  -14.1278  -14.7518 C   0  0  0  0  0  0  0  0  0  0  0  0
   26.6637  -13.5705  -13.8885 F   0  0  0  0  0  0  0  0  0  0  0  0
   24.9535   -4.6004  -16.3723 H   0  0  0  0  0  0  0  0  0  0  0  0
  2  1  1  6
  2  5  1  0
  2  8  1  0
 15  2  1  0
  8  3  1  0
  3  9  2  0
  3 24  1  0
  5  4  1  6
  4 24  1  0
  5  6  1  0
  5 14  1  0
  6  7  1  0
 23  7  1  1
 23 10  2  0
 14 11  1  0
 11 23  1  0
 23 12  2  0
 13 17  1  0
 18 13  1  0
 16 15  2  0
 15 22  1  0
 17 16  1  0
 17 26  2  0
 19 18  1  0
 18 27  2  0
 19 28  1  0
 31 19  2  0
 20 30  2  0
 20 31  1  0
 22 21  1  0
 22 25  2  0
 25 26  1  0
 28 29  2  0
 29 30  1  0
 30 32  1  0
 32 33  1  0
 33 34  1  0
  9 35  1  0
M  END
$$$$
