
     RDKit          3D

 35 38  0  0  0  0  0  0  0  0999 V2000
   20.7927   -4.3301  -18.3065 C   0  0  0  0  0  0  0  0  0  0  0  0
   21.4935   -5.5885  -18.9248 C   0  0  1  0  0  0  0  0  0  0  0  0
   23.7375   -4.7670  -18.2476 C   0  0  0  0  0  0  0  0  0  0  0  0
   22.1150   -3.7651  -20.4284 C   0  0  0  0  0  0  0  0  0  0  0  0
   21.7049   -5.2483  -20.3472 C   0  0  2  0  0  0  0  0  0  0  0  0
   20.4295   -5.3543  -21.1466 C   0  0  0  0  0  0  0  0  0  0  0  0
   20.5486   -6.1538  -22.4007 C   0  0  0  0  0  0  0  0  0  0  0  0
   22.6824   -5.6905  -18.1117 N   0  0  0  0  0  0  0  0  0  0  0  0
   24.7401   -4.7151  -17.4519 N   0  0  0  0  0  0  0  0  0  0  0  0
   21.5559   -4.2223  -24.0225 O   0  0  0  0  0  0  0  0  0  0  0  0
   23.3008   -5.3844  -22.2884 C   0  0  0  0  0  0  0  0  0  0  0  0
   22.2186   -6.5796  -24.4008 O   0  0  0  0  0  0  0  0  0  0  0  0
   20.8420  -10.3552  -17.7161 N   0  0  0  0  0  0  0  0  0  0  0  0
   22.8277   -6.0171  -20.9754 C   0  0  0  0  0  0  0  0  0  0  0  0
   20.5912   -6.7349  -18.6401 C   0  0  0  0  0  0  0  0  0  0  0  0
   21.0849   -7.9874  -18.3322 C   0  0  0  0  0  0  0  0  0  0  0  0
   20.2889   -9.0834  -18.0269 C   0  0  0  0  0  0  0  0  0  0  0  0
   20.6244  -11.0126  -16.4791 C   0  0  0  0  0  0  0  0  0  0  0  0
   21.7497  -11.7335  -15.8692 C   0  0  0  0  0  0  0  0  0  0  0  0
   24.0258  -12.3234  -15.8641 C   0  0  0  0  0  0  0  0  0  0  0  0
   18.5937   -5.4361  -18.9503 F   0  0  0  0  0  0  0  0  0  0  0  0
   19.2206   -6.5908  -18.6378 C   0  0  0  0  0  0  0  0  0  0  0  0
   21.8954   -5.5178  -23.3769 S   0  0  1  0  0  6  0  0  0  0  0  0
   23.7039   -3.5777  -19.6085 S   0  0  0  0  0  0  0  0  0  0  0  0
   18.4001   -7.6750  -18.3340 C   0  0  0  0  0  0  0  0  0  0  0  0
   18.9220   -8.9125  -18.0305 C   0  0  0  0  0  0  0  0  0  0  0  0
   19.4949  -10.9770  -15.9213 O   0  0  0  0  0  0  0  0  0  0  0  0
   21.5761  -12.4915  -14.7333 C   0  0  0  0  0  0  0  0  0  0  0  0
   22.6266  -13.1389  -14.2002 N   0  0  0  0  0  0  0  0  0  0  0  0
   23.8604  -13.0854  -14.7256 C   0  0  0  0  0  0  0  0  0  0  0  0
   22.9825  -11.6770  -16.3984 N   0  0  0  0  0  0  0  0  0  0  0  0
   24.9349  -13.7688  -14.1503 O   0  0  0  0  0  0  0  0  0  0  0  0
   24.8273  -15.1759  -14.0115 C   0  0  0  0  0  0  0  0  0  0  0  0
   25.3383  -15.7304  -15.1838 F   0  0  0  0  0  0  0  0  0  0  0  0
   24.9087   -5.4319  -16.7250 H   0  0  0  0  0  0  0  0  0  0  0  0
  2  1  1  1
  2  5  1  0
  2  8  1  0
 15  2  1  0
  8  3  1  0
  3  9  2  0
  3 24  1  0
  5  4  1  1
  4 24  1  0
  5  6  1  0
  5 14  1  0
  6  7  1  0
 23  7  1  1
 23 10  2  0
 14 11  1  0
 11 23  1  0
 23 12  2  0
 13 17  1  0
 18 13  1  0
 16 15  2  0
 15 22  1  0
 17 16  1  0
 17 26  2  0
 19 18  1  0
 18 27  2  0
 19 28  1  0
 31 19  2  0
 20 30  2  0
 20 31  1  0
 22 21  1  0
 22 25  2  0
 25 26  1  0
 28 29  2  0
 29 30  1  0
 30 32  1  0
 32 33  1  0
 33 34  1  0
  9 35  1  0
M  END
$$$$
