
     RDKit          3D

 35 38  0  0  0  0  0  0  0  0999 V2000
   21.1183   -4.0866  -18.0797 C   0  0  0  0  0  0  0  0  0  0  0  0
   21.7473   -5.4522  -18.5234 C   0  0  1  0  0  0  0  0  0  0  0  0
   24.0480   -4.6186  -18.0980 C   0  0  0  0  0  0  0  0  0  0  0  0
   22.3380   -3.9133  -20.3275 C   0  0  0  0  0  0  0  0  0  0  0  0
   21.8901   -5.3487  -19.9906 C   0  0  2  0  0  0  0  0  0  0  0  0
   20.5702   -5.5316  -20.6987 C   0  0  0  0  0  0  0  0  0  0  0  0
   20.5969   -6.5229  -21.8135 C   0  0  0  0  0  0  0  0  0  0  0  0
   22.9755   -5.4690  -17.7644 N   0  0  0  0  0  0  0  0  0  0  0  0
   25.0938   -4.4795  -17.3714 N   0  0  0  0  0  0  0  0  0  0  0  0
   21.5693   -4.9103  -23.7705 O   0  0  0  0  0  0  0  0  0  0  0  0
   23.3723   -5.8489  -21.9619 C   0  0  0  0  0  0  0  0  0  0  0  0
   22.1415   -7.3209  -23.8004 O   0  0  0  0  0  0  0  0  0  0  0  0
   20.9979   -9.6581  -16.0026 N   0  0  0  0  0  0  0  0  0  0  0  0
   22.9538   -6.2484  -20.5431 C   0  0  0  0  0  0  0  0  0  0  0  0
   20.8289   -6.5047  -18.0152 C   0  0  0  0  0  0  0  0  0  0  0  0
   21.2922   -7.5779  -17.2796 C   0  0  0  0  0  0  0  0  0  0  0  0
   20.4759   -8.5707  -16.7541 C   0  0  0  0  0  0  0  0  0  0  0  0
   21.0308  -10.9896  -16.4882 C   0  0  0  0  0  0  0  0  0  0  0  0
   22.0230  -11.9114  -15.9191 C   0  0  0  0  0  0  0  0  0  0  0  0
   23.8904  -12.2950  -14.5429 C   0  0  0  0  0  0  0  0  0  0  0  0
   18.8753   -5.4673  -18.9534 F   0  0  0  0  0  0  0  0  0  0  0  0
   19.4688   -6.4390  -18.2269 C   0  0  0  0  0  0  0  0  0  0  0  0
   21.9060   -6.0996  -22.9442 S   0  0  1  0  0  6  0  0  0  0  0  0
   23.9743   -3.6584  -19.6278 S   0  0  0  0  0  0  0  0  0  0  0  0
   18.6283   -7.4223  -17.7096 C   0  0  0  0  0  0  0  0  0  0  0  0
   19.1199   -8.4810  -16.9792 C   0  0  0  0  0  0  0  0  0  0  0  0
   20.2289  -11.3680  -17.3838 O   0  0  0  0  0  0  0  0  0  0  0  0
   22.0094  -13.2518  -16.2323 C   0  0  0  0  0  0  0  0  0  0  0  0
   22.9315  -14.0687  -15.6944 N   0  0  0  0  0  0  0  0  0  0  0  0
   23.8839  -13.6399  -14.8516 C   0  0  0  0  0  0  0  0  0  0  0  0
   22.9741  -11.4779  -15.0762 N   0  0  0  0  0  0  0  0  0  0  0  0
   24.8305  -14.5116  -14.3069 O   0  0  0  0  0  0  0  0  0  0  0  0
   24.4338  -15.3202  -13.2116 C   0  0  0  0  0  0  0  0  0  0  0  0
   23.5571  -16.2764  -13.7216 F   0  0  0  0  0  0  0  0  0  0  0  0
   25.0684   -4.5659  -16.3407 H   0  0  0  0  0  0  0  0  0  0  0  0
  2  1  1  1
  2  5  1  0
  2  8  1  0
 15  2  1  0
  8  3  1  0
  3  9  2  0
  3 24  1  0
  5  4  1  1
  4 24  1  0
  5  6  1  0
  5 14  1  0
  6  7  1  0
 23  7  1  1
 23 10  2  0
 14 11  1  0
 11 23  1  0
 23 12  2  0
 13 17  1  0
 18 13  1  0
 16 15  2  0
 15 22  1  0
 17 16  1  0
 17 26  2  0
 19 18  1  0
 18 27  2  0
 19 28  1  0
 31 19  2  0
 20 30  2  0
 20 31  1  0
 22 21  1  0
 22 25  2  0
 25 26  1  0
 28 29  2  0
 29 30  1  0
 30 32  1  0
 32 33  1  0
 33 34  1  0
  9 35  1  0
M  END
$$$$
