
     RDKit          3D

 35 38  0  0  0  0  0  0  0  0999 V2000
   21.0313   -4.3299  -18.2345 C   0  0  0  0  0  0  0  0  0  0  0  0
   21.5455   -5.7395  -18.6884 C   0  0  1  0  0  0  0  0  0  0  0  0
   23.9036   -5.1148  -18.2215 C   0  0  0  0  0  0  0  0  0  0  0  0
   22.2935   -4.2356  -20.4635 C   0  0  0  0  0  0  0  0  0  0  0  0
   21.7177   -5.6306  -20.1520 C   0  0  2  0  0  0  0  0  0  0  0  0
   20.3972   -5.6891  -20.8799 C   0  0  0  0  0  0  0  0  0  0  0  0
   20.3536   -6.6650  -22.0076 C   0  0  0  0  0  0  0  0  0  0  0  0
   22.7567   -5.8726  -17.9136 N   0  0  0  0  0  0  0  0  0  0  0  0
   24.9471   -5.0762  -17.4793 N   0  0  0  0  0  0  0  0  0  0  0  0
   21.4904   -5.1192  -23.9295 O   0  0  0  0  0  0  0  0  0  0  0  0
   23.1790   -6.2335  -22.1103 C   0  0  0  0  0  0  0  0  0  0  0  0
   21.8513   -7.5699  -23.9847 O   0  0  0  0  0  0  0  0  0  0  0  0
   20.3845   -9.8379  -16.1466 N   0  0  0  0  0  0  0  0  0  0  0  0
   22.7071   -6.6127  -20.7027 C   0  0  0  0  0  0  0  0  0  0  0  0
   20.5320   -6.7143  -18.2067 C   0  0  0  0  0  0  0  0  0  0  0  0
   20.8840   -7.8058  -17.4373 C   0  0  0  0  0  0  0  0  0  0  0  0
   19.9758   -8.7281  -16.9347 C   0  0  0  0  0  0  0  0  0  0  0  0
   20.6439  -11.1206  -16.6916 C   0  0  0  0  0  0  0  0  0  0  0  0
   21.8138  -11.8601  -16.1989 C   0  0  0  0  0  0  0  0  0  0  0  0
   23.8485  -11.8996  -15.0215 C   0  0  0  0  0  0  0  0  0  0  0  0
   18.7010   -5.5538  -19.2430 F   0  0  0  0  0  0  0  0  0  0  0  0
   19.1905   -6.5537  -18.4784 C   0  0  0  0  0  0  0  0  0  0  0  0
   21.7106   -6.3434  -23.1151 S   0  0  1  0  0  6  0  0  0  0  0  0
   23.9355   -4.1329  -19.7389 S   0  0  0  0  0  0  0  0  0  0  0  0
   18.2592   -7.4649  -17.9851 C   0  0  0  0  0  0  0  0  0  0  0  0
   18.6407   -8.5442  -17.2199 C   0  0  0  0  0  0  0  0  0  0  0  0
   19.8890  -11.6095  -17.5744 O   0  0  0  0  0  0  0  0  0  0  0  0
   21.9650  -13.2039  -16.4563 C   0  0  0  0  0  0  0  0  0  0  0  0
   23.0473  -13.8513  -15.9911 N   0  0  0  0  0  0  0  0  0  0  0  0
   24.0079  -13.2466  -15.2749 C   0  0  0  0  0  0  0  0  0  0  0  0
   22.7724  -11.2509  -15.4827 N   0  0  0  0  0  0  0  0  0  0  0  0
   25.1230  -13.9444  -14.8035 O   0  0  0  0  0  0  0  0  0  0  0  0
   24.9979  -14.6412  -13.5748 C   0  0  0  0  0  0  0  0  0  0  0  0
   24.3811  -15.8561  -13.8689 F   0  0  0  0  0  0  0  0  0  0  0  0
   24.9028   -4.8440  -16.4721 H   0  0  0  0  0  0  0  0  0  0  0  0
  2  1  1  1
  2  5  1  0
  2  8  1  0
 15  2  1  0
  8  3  1  0
  3  9  2  0
  3 24  1  0
  5  4  1  1
  4 24  1  0
  5  6  1  0
  5 14  1  0
  6  7  1  0
 23  7  1  1
 23 10  2  0
 14 11  1  0
 11 23  1  0
 23 12  2  0
 13 17  1  0
 18 13  1  0
 16 15  2  0
 15 22  1  0
 17 16  1  0
 17 26  2  0
 19 18  1  0
 18 27  2  0
 19 28  1  0
 31 19  2  0
 20 30  2  0
 20 31  1  0
 22 21  1  0
 22 25  2  0
 25 26  1  0
 28 29  2  0
 29 30  1  0
 30 32  1  0
 32 33  1  0
 33 34  1  0
  9 35  1  0
M  END
$$$$
