
     RDKit          3D

 35 38  0  0  0  0  0  0  0  0999 V2000
   21.3804   -4.0152  -18.2020 C   0  0  0  0  0  0  0  0  0  0  0  0
   21.9926   -5.4001  -18.6074 C   0  0  1  0  0  0  0  0  0  0  0  0
   24.2960   -4.6133  -18.1132 C   0  0  0  0  0  0  0  0  0  0  0  0
   22.6796   -3.8981  -20.4084 C   0  0  0  0  0  0  0  0  0  0  0  0
   22.1877   -5.3186  -20.0699 C   0  0  2  0  0  0  0  0  0  0  0  0
   20.8888   -5.4809  -20.8207 C   0  0  0  0  0  0  0  0  0  0  0  0
   20.9307   -6.4866  -21.9219 C   0  0  0  0  0  0  0  0  0  0  0  0
   23.1936   -5.4349  -17.8065 N   0  0  0  0  0  0  0  0  0  0  0  0
   25.3193   -4.4884  -17.3528 N   0  0  0  0  0  0  0  0  0  0  0  0
   22.0061   -4.9216  -23.8636 O   0  0  0  0  0  0  0  0  0  0  0  0
   23.7244   -5.8773  -21.9830 C   0  0  0  0  0  0  0  0  0  0  0  0
   22.5235   -7.3447  -23.8448 O   0  0  0  0  0  0  0  0  0  0  0  0
   21.0753   -9.6080  -16.1459 N   0  0  0  0  0  0  0  0  0  0  0  0
   23.2487   -6.2492  -20.5747 C   0  0  0  0  0  0  0  0  0  0  0  0
   21.0335   -6.4251  -18.1184 C   0  0  0  0  0  0  0  0  0  0  0  0
   21.4529   -7.5237  -17.3941 C   0  0  0  0  0  0  0  0  0  0  0  0
   20.5979   -8.4928  -16.8864 C   0  0  0  0  0  0  0  0  0  0  0  0
   20.7855  -10.9509  -16.4958 C   0  0  0  0  0  0  0  0  0  0  0  0
   21.7710  -11.9852  -16.1535 C   0  0  0  0  0  0  0  0  0  0  0  0
   23.9023  -12.5826  -15.3604 C   0  0  0  0  0  0  0  0  0  0  0  0
   19.1248   -5.3057  -19.0548 F   0  0  0  0  0  0  0  0  0  0  0  0
   19.6780   -6.3074  -18.3374 C   0  0  0  0  0  0  0  0  0  0  0  0
   22.2870   -6.1075  -23.0120 S   0  0  1  0  0  6  0  0  0  0  0  0
   24.2966   -3.6713  -19.6561 S   0  0  0  0  0  0  0  0  0  0  0  0
   18.7992   -7.2661  -17.8380 C   0  0  0  0  0  0  0  0  0  0  0  0
   19.2475   -8.3512  -17.1185 C   0  0  0  0  0  0  0  0  0  0  0  0
   19.7106  -11.2450  -17.0842 O   0  0  0  0  0  0  0  0  0  0  0  0
   21.4806  -13.3220  -16.3071 C   0  0  0  0  0  0  0  0  0  0  0  0
   22.4046  -14.2434  -15.9847 N   0  0  0  0  0  0  0  0  0  0  0  0
   23.6193  -13.9246  -15.5115 C   0  0  0  0  0  0  0  0  0  0  0  0
   22.9852  -11.6615  -15.6803 N   0  0  0  0  0  0  0  0  0  0  0  0
   24.5611  -14.9037  -15.1840 O   0  0  0  0  0  0  0  0  0  0  0  0
   24.1628  -15.9360  -14.2971 C   0  0  0  0  0  0  0  0  0  0  0  0
   24.4713  -15.4952  -13.0113 F   0  0  0  0  0  0  0  0  0  0  0  0
   25.2456   -4.4795  -16.3209 H   0  0  0  0  0  0  0  0  0  0  0  0
  2  1  1  1
  2  5  1  0
  2  8  1  0
 15  2  1  0
  8  3  1  0
  3  9  2  0
  3 24  1  0
  5  4  1  1
  4 24  1  0
  5  6  1  0
  5 14  1  0
  6  7  1  0
 23  7  1  1
 23 10  2  0
 14 11  1  0
 11 23  1  0
 23 12  2  0
 13 17  1  0
 18 13  1  0
 16 15  2  0
 15 22  1  0
 17 16  1  0
 17 26  2  0
 19 18  1  0
 18 27  2  0
 19 28  1  0
 31 19  2  0
 20 30  2  0
 20 31  1  0
 22 21  1  0
 22 25  2  0
 25 26  1  0
 28 29  2  0
 29 30  1  0
 30 32  1  0
 32 33  1  0
 33 34  1  0
  9 35  1  0
M  END
$$$$
