
     RDKit          3D

 35 38  0  0  0  0  0  0  0  0999 V2000
   21.0281   -4.0274  -18.4345 C   0  0  0  0  0  0  0  0  0  0  0  0
   21.6581   -5.4321  -18.7294 C   0  0  1  0  0  0  0  0  0  0  0  0
   23.9430   -4.5984  -18.2263 C   0  0  0  0  0  0  0  0  0  0  0  0
   22.3873   -4.0492  -20.6075 C   0  0  0  0  0  0  0  0  0  0  0  0
   21.8932   -5.4472  -20.1882 C   0  0  2  0  0  0  0  0  0  0  0  0
   20.6165   -5.6681  -20.9616 C   0  0  0  0  0  0  0  0  0  0  0  0
   20.6939   -6.7448  -21.9915 C   0  0  0  0  0  0  0  0  0  0  0  0
   22.8366   -5.4052  -17.8954 N   0  0  0  0  0  0  0  0  0  0  0  0
   24.9442   -4.4160  -17.4483 N   0  0  0  0  0  0  0  0  0  0  0  0
   21.8150   -5.3057  -24.0035 O   0  0  0  0  0  0  0  0  0  0  0  0
   23.4851   -6.1220  -22.0169 C   0  0  0  0  0  0  0  0  0  0  0  0
   22.3436   -7.7186  -23.8084 O   0  0  0  0  0  0  0  0  0  0  0  0
   20.6970   -9.4843  -16.0346 N   0  0  0  0  0  0  0  0  0  0  0  0
   22.9724   -6.4021  -20.6003 C   0  0  0  0  0  0  0  0  0  0  0  0
   20.6910   -6.4287  -18.1992 C   0  0  0  0  0  0  0  0  0  0  0  0
   21.0970   -7.4792  -17.3999 C   0  0  0  0  0  0  0  0  0  0  0  0
   20.2333   -8.4185  -16.8523 C   0  0  0  0  0  0  0  0  0  0  0  0
   20.6701  -10.8416  -16.4431 C   0  0  0  0  0  0  0  0  0  0  0  0
   21.7404  -11.7298  -15.9702 C   0  0  0  0  0  0  0  0  0  0  0  0
   23.7883  -12.0348  -14.8560 C   0  0  0  0  0  0  0  0  0  0  0  0
   18.8006   -5.3758  -19.2437 F   0  0  0  0  0  0  0  0  0  0  0  0
   19.3403   -6.3296  -18.4544 C   0  0  0  0  0  0  0  0  0  0  0  0
   22.0780   -6.4302  -23.0670 S   0  0  1  0  0  6  0  0  0  0  0  0
   23.9816   -3.7616  -19.8281 S   0  0  0  0  0  0  0  0  0  0  0  0
   18.4530   -7.2590  -17.9161 C   0  0  0  0  0  0  0  0  0  0  0  0
   18.8879   -8.2962  -17.1218 C   0  0  0  0  0  0  0  0  0  0  0  0
   19.7513  -11.2703  -17.1915 O   0  0  0  0  0  0  0  0  0  0  0  0
   21.6923  -13.0860  -16.2012 C   0  0  0  0  0  0  0  0  0  0  0  0
   22.6880  -13.8712  -15.7552 N   0  0  0  0  0  0  0  0  0  0  0  0
   23.7478  -13.3953  -15.0833 C   0  0  0  0  0  0  0  0  0  0  0  0
   22.7990  -11.2491  -15.2984 N   0  0  0  0  0  0  0  0  0  0  0  0
   24.7692  -14.2348  -14.6309 O   0  0  0  0  0  0  0  0  0  0  0  0
   25.4913  -13.8375  -13.4770 C   0  0  0  0  0  0  0  0  0  0  0  0
   24.8831  -14.4670  -12.3922 F   0  0  0  0  0  0  0  0  0  0  0  0
   24.8340   -4.1245  -16.4617 H   0  0  0  0  0  0  0  0  0  0  0  0
  2  1  1  6
  2  5  1  0
  2  8  1  0
 15  2  1  0
  8  3  1  0
  3  9  2  0
  3 24  1  0
  5  4  1  6
  4 24  1  0
  5  6  1  0
  5 14  1  0
  6  7  1  0
 23  7  1  1
 23 10  2  0
 14 11  1  0
 11 23  1  0
 23 12  2  0
 13 17  1  0
 18 13  1  0
 16 15  2  0
 15 22  1  0
 17 16  1  0
 17 26  2  0
 19 18  1  0
 18 27  2  0
 19 28  1  0
 31 19  2  0
 20 30  2  0
 20 31  1  0
 22 21  1  0
 22 25  2  0
 25 26  1  0
 28 29  2  0
 29 30  1  0
 30 32  1  0
 32 33  1  0
 33 34  1  0
  9 35  1  0
M  END
$$$$
