
     RDKit          3D

 35 38  0  0  0  0  0  0  0  0999 V2000
   20.7410   -4.0685  -18.5681 C   0  0  0  0  0  0  0  0  0  0  0  0
   21.5024   -5.4208  -18.7889 C   0  0  1  0  0  0  0  0  0  0  0  0
   23.6738   -4.3890  -18.1649 C   0  0  0  0  0  0  0  0  0  0  0  0
   22.2339   -4.0175  -20.6510 C   0  0  0  0  0  0  0  0  0  0  0  0
   21.8309   -5.4438  -20.2295 C   0  0  2  0  0  0  0  0  0  0  0  0
   20.6290   -5.7856  -21.0754 C   0  0  0  0  0  0  0  0  0  0  0  0
   20.8608   -6.8714  -22.0720 C   0  0  0  0  0  0  0  0  0  0  0  0
   22.6187   -5.2793  -17.8841 N   0  0  0  0  0  0  0  0  0  0  0  0
   24.6046   -4.1086  -17.3307 N   0  0  0  0  0  0  0  0  0  0  0  0
   21.9859   -5.3818  -24.0446 O   0  0  0  0  0  0  0  0  0  0  0  0
   23.5870   -6.0173  -21.9386 C   0  0  0  0  0  0  0  0  0  0  0  0
   22.6981   -7.7377  -23.7585 O   0  0  0  0  0  0  0  0  0  0  0  0
   20.6958   -9.4593  -16.0238 N   0  0  0  0  0  0  0  0  0  0  0  0
   23.0094   -6.3125  -20.5504 C   0  0  0  0  0  0  0  0  0  0  0  0
   20.5888   -6.4847  -18.2961 C   0  0  0  0  0  0  0  0  0  0  0  0
   21.0223   -7.4688  -17.4295 C   0  0  0  0  0  0  0  0  0  0  0  0
   20.2050   -8.4658  -16.9136 C   0  0  0  0  0  0  0  0  0  0  0  0
   20.5653  -10.8497  -16.2680 C   0  0  0  0  0  0  0  0  0  0  0  0
   21.5902  -11.7493  -15.7219 C   0  0  0  0  0  0  0  0  0  0  0  0
   23.6259  -12.0652  -14.5885 C   0  0  0  0  0  0  0  0  0  0  0  0
   18.7002   -5.6411  -19.5187 F   0  0  0  0  0  0  0  0  0  0  0  0
   19.2588   -6.5171  -18.6557 C   0  0  0  0  0  0  0  0  0  0  0  0
   22.2802   -6.4623  -23.0666 S   0  0  1  0  0  6  0  0  0  0  0  0
   23.7458   -3.5825  -19.7810 S   0  0  0  0  0  0  0  0  0  0  0  0
   18.4178   -7.5067  -18.1512 C   0  0  0  0  0  0  0  0  0  0  0  0
   18.8794   -8.4751  -17.2880 C   0  0  0  0  0  0  0  0  0  0  0  0
   19.5948  -11.2975  -16.9358 O   0  0  0  0  0  0  0  0  0  0  0  0
   21.4696  -13.1159  -15.8351 C   0  0  0  0  0  0  0  0  0  0  0  0
   22.4253  -13.9113  -15.3245 N   0  0  0  0  0  0  0  0  0  0  0  0
   23.5127  -13.4361  -14.6977 C   0  0  0  0  0  0  0  0  0  0  0  0
   22.6766  -11.2693  -15.0955 N   0  0  0  0  0  0  0  0  0  0  0  0
   24.4912  -14.2865  -14.1761 O   0  0  0  0  0  0  0  0  0  0  0  0
   25.7678  -14.2850  -14.7934 C   0  0  0  0  0  0  0  0  0  0  0  0
   26.5444  -15.2124  -14.1008 F   0  0  0  0  0  0  0  0  0  0  0  0
   25.0654   -4.8309  -16.7507 H   0  0  0  0  0  0  0  0  0  0  0  0
  2  1  1  6
  2  5  1  0
  2  8  1  0
 15  2  1  0
  8  3  1  0
  3  9  2  0
  3 24  1  0
  5  4  1  6
  4 24  1  0
  5  6  1  0
  5 14  1  0
  6  7  1  0
 23  7  1  1
 23 10  2  0
 14 11  1  0
 11 23  1  0
 23 12  2  0
 13 17  1  0
 18 13  1  0
 16 15  2  0
 15 22  1  0
 17 16  1  0
 17 26  2  0
 19 18  1  0
 18 27  2  0
 19 28  1  0
 31 19  2  0
 20 30  2  0
 20 31  1  0
 22 21  1  0
 22 25  2  0
 25 26  1  0
 28 29  2  0
 29 30  1  0
 30 32  1  0
 32 33  1  0
 33 34  1  0
  9 35  1  0
M  END
$$$$
