
     RDKit          3D

 35 38  0  0  0  0  0  0  0  0999 V2000
   21.0235   -3.7982  -18.1170 C   0  0  0  0  0  0  0  0  0  0  0  0
   21.5310   -5.2073  -18.5798 C   0  0  1  0  0  0  0  0  0  0  0  0
   23.8868   -4.6136  -18.0632 C   0  0  0  0  0  0  0  0  0  0  0  0
   22.3261   -3.6891  -20.3219 C   0  0  0  0  0  0  0  0  0  0  0  0
   21.7304   -5.0818  -20.0386 C   0  0  2  0  0  0  0  0  0  0  0  0
   20.4225   -5.1171  -20.7904 C   0  0  0  0  0  0  0  0  0  0  0  0
   20.3889   -6.0781  -21.9311 C   0  0  0  0  0  0  0  0  0  0  0  0
   22.7268   -5.3630  -17.7855 N   0  0  0  0  0  0  0  0  0  0  0  0
   24.9172   -4.5955  -17.3023 N   0  0  0  0  0  0  0  0  0  0  0  0
   21.5758   -4.5202  -23.8127 O   0  0  0  0  0  0  0  0  0  0  0  0
   23.2200   -5.6754  -21.9783 C   0  0  0  0  0  0  0  0  0  0  0  0
   21.9121   -6.9738  -23.8928 O   0  0  0  0  0  0  0  0  0  0  0  0
   20.2837   -9.3297  -16.1190 N   0  0  0  0  0  0  0  0  0  0  0  0
   22.7192   -6.0672  -20.5842 C   0  0  0  0  0  0  0  0  0  0  0  0
   20.4991   -6.1773  -18.1286 C   0  0  0  0  0  0  0  0  0  0  0  0
   20.8265   -7.2844  -17.3707 C   0  0  0  0  0  0  0  0  0  0  0  0
   19.9001   -8.2034  -16.8962 C   0  0  0  0  0  0  0  0  0  0  0  0
   20.5037  -10.6152  -16.6748 C   0  0  0  0  0  0  0  0  0  0  0  0
   21.5728  -11.4447  -16.1030 C   0  0  0  0  0  0  0  0  0  0  0  0
   23.4785  -11.6543  -14.7419 C   0  0  0  0  0  0  0  0  0  0  0  0
   18.6978   -4.9800  -19.1751 F   0  0  0  0  0  0  0  0  0  0  0  0
   19.1639   -5.9970  -18.4184 C   0  0  0  0  0  0  0  0  0  0  0  0
   21.7687   -5.7570  -23.0103 S   0  0  1  0  0  6  0  0  0  0  0  0
   23.9560   -3.6130  -19.5671 S   0  0  0  0  0  0  0  0  0  0  0  0
   18.2146   -6.9045  -17.9534 C   0  0  0  0  0  0  0  0  0  0  0  0
   18.5717   -7.9997  -17.1990 C   0  0  0  0  0  0  0  0  0  0  0  0
   19.7990  -11.0310  -17.6333 O   0  0  0  0  0  0  0  0  0  0  0  0
   21.6649  -12.7865  -16.3961 C   0  0  0  0  0  0  0  0  0  0  0  0
   22.6553  -13.5175  -15.8563 N   0  0  0  0  0  0  0  0  0  0  0  0
   23.5780  -13.0000  -15.0305 C   0  0  0  0  0  0  0  0  0  0  0  0
   22.4939  -10.9224  -15.2772 N   0  0  0  0  0  0  0  0  0  0  0  0
   24.5974  -13.7836  -14.4833 O   0  0  0  0  0  0  0  0  0  0  0  0
   24.3063  -15.1405  -14.1918 C   0  0  0  0  0  0  0  0  0  0  0  0
   24.2661  -15.8090  -15.4142 F   0  0  0  0  0  0  0  0  0  0  0  0
   25.0419   -3.8915  -16.5545 H   0  0  0  0  0  0  0  0  0  0  0  0
  2  1  1  1
  2  5  1  0
  2  8  1  0
 15  2  1  0
  8  3  1  0
  3  9  2  0
  3 24  1  0
  5  4  1  1
  4 24  1  0
  5  6  1  0
  5 14  1  0
  6  7  1  0
 23  7  1  1
 23 10  2  0
 14 11  1  0
 11 23  1  0
 23 12  2  0
 13 17  1  0
 18 13  1  0
 16 15  2  0
 15 22  1  0
 17 16  1  0
 17 26  2  0
 19 18  1  0
 18 27  2  0
 19 28  1  0
 31 19  2  0
 20 30  2  0
 20 31  1  0
 22 21  1  0
 22 25  2  0
 25 26  1  0
 28 29  2  0
 29 30  1  0
 30 32  1  0
 32 33  1  0
 33 34  1  0
  9 35  1  0
M  END
$$$$
