
     RDKit          3D

 35 38  0  0  0  0  0  0  0  0999 V2000
   21.0159   -3.6937  -18.2786 C   0  0  0  0  0  0  0  0  0  0  0  0
   21.5101   -5.1328  -18.6551 C   0  0  1  0  0  0  0  0  0  0  0  0
   23.8519   -4.5709  -18.0473 C   0  0  0  0  0  0  0  0  0  0  0  0
   22.4270   -3.7107  -20.4183 C   0  0  0  0  0  0  0  0  0  0  0  0
   21.7837   -5.0757  -20.1062 C   0  0  2  0  0  0  0  0  0  0  0  0
   20.5136   -5.1141  -20.9201 C   0  0  0  0  0  0  0  0  0  0  0  0
   20.5119   -6.1230  -22.0192 C   0  0  0  0  0  0  0  0  0  0  0  0
   22.6613   -5.2809  -17.7962 N   0  0  0  0  0  0  0  0  0  0  0  0
   24.8440   -4.5431  -17.2374 N   0  0  0  0  0  0  0  0  0  0  0  0
   21.8278   -4.6763  -23.9037 O   0  0  0  0  0  0  0  0  0  0  0  0
   23.3510   -5.7873  -21.9421 C   0  0  0  0  0  0  0  0  0  0  0  0
   22.1064   -7.1380  -23.8626 O   0  0  0  0  0  0  0  0  0  0  0  0
   20.0698   -9.2231  -16.2466 N   0  0  0  0  0  0  0  0  0  0  0  0
   22.7730   -6.1064  -20.5593 C   0  0  0  0  0  0  0  0  0  0  0  0
   20.4335   -6.0584  -18.2151 C   0  0  0  0  0  0  0  0  0  0  0  0
   20.7084   -7.1897  -17.4723 C   0  0  0  0  0  0  0  0  0  0  0  0
   19.7396   -8.0697  -17.0085 C   0  0  0  0  0  0  0  0  0  0  0  0
   20.1154  -10.5283  -16.7983 C   0  0  0  0  0  0  0  0  0  0  0  0
   21.1355  -11.4585  -16.2961 C   0  0  0  0  0  0  0  0  0  0  0  0
   23.0903  -11.8571  -15.0520 C   0  0  0  0  0  0  0  0  0  0  0  0
   18.6905   -4.7630  -19.2432 F   0  0  0  0  0  0  0  0  0  0  0  0
   19.1081   -5.8109  -18.5006 C   0  0  0  0  0  0  0  0  0  0  0  0
   21.9503   -5.8808  -23.0408 S   0  0  1  0  0  6  0  0  0  0  0  0
   24.0194   -3.6389  -19.5871 S   0  0  0  0  0  0  0  0  0  0  0  0
   18.1171   -6.6782  -18.0462 C   0  0  0  0  0  0  0  0  0  0  0  0
   18.4223   -7.7990  -17.3067 C   0  0  0  0  0  0  0  0  0  0  0  0
   19.3012  -10.8768  -17.6948 O   0  0  0  0  0  0  0  0  0  0  0  0
   21.0866  -12.7997  -16.6025 C   0  0  0  0  0  0  0  0  0  0  0  0
   22.0357  -13.6243  -16.1271 N   0  0  0  0  0  0  0  0  0  0  0  0
   23.0488  -13.2028  -15.3543 C   0  0  0  0  0  0  0  0  0  0  0  0
   22.1474  -11.0322  -15.5232 N   0  0  0  0  0  0  0  0  0  0  0  0
   24.0222  -14.0826  -14.8736 O   0  0  0  0  0  0  0  0  0  0  0  0
   23.5957  -15.1612  -14.0578 C   0  0  0  0  0  0  0  0  0  0  0  0
   22.5084  -14.6952  -13.3206 F   0  0  0  0  0  0  0  0  0  0  0  0
   24.7606   -4.8349  -16.2482 H   0  0  0  0  0  0  0  0  0  0  0  0
  2  1  1  1
  2  5  1  0
  2  8  1  0
 15  2  1  0
  8  3  1  0
  3  9  2  0
  3 24  1  0
  5  4  1  1
  4 24  1  0
  5  6  1  0
  5 14  1  0
  6  7  1  0
 23  7  1  1
 23 10  2  0
 14 11  1  0
 11 23  1  0
 23 12  2  0
 13 17  1  0
 18 13  1  0
 16 15  2  0
 15 22  1  0
 17 16  1  0
 17 26  2  0
 19 18  1  0
 18 27  2  0
 19 28  1  0
 31 19  2  0
 20 30  2  0
 20 31  1  0
 22 21  1  0
 22 25  2  0
 25 26  1  0
 28 29  2  0
 29 30  1  0
 30 32  1  0
 32 33  1  0
 33 34  1  0
  9 35  1  0
M  END
$$$$
