
     RDKit          3D

 35 38  0  0  0  0  0  0  0  0999 V2000
   20.8756   -4.1377  -18.4237 C   0  0  0  0  0  0  0  0  0  0  0  0
   21.5993   -5.4225  -18.9556 C   0  0  1  0  0  0  0  0  0  0  0  0
   23.8218   -4.5442  -18.2789 C   0  0  0  0  0  0  0  0  0  0  0  0
   22.2385   -3.6807  -20.5460 C   0  0  0  0  0  0  0  0  0  0  0  0
   21.8383   -5.1606  -20.3901 C   0  0  2  0  0  0  0  0  0  0  0  0
   20.5812   -5.3226  -21.2088 C   0  0  0  0  0  0  0  0  0  0  0  0
   20.7332   -6.1901  -22.4132 C   0  0  0  0  0  0  0  0  0  0  0  0
   22.7713   -5.4680  -18.1134 N   0  0  0  0  0  0  0  0  0  0  0  0
   24.8067   -4.4388  -17.4666 N   0  0  0  0  0  0  0  0  0  0  0  0
   21.7598   -4.3435  -24.1196 O   0  0  0  0  0  0  0  0  0  0  0  0
   23.4763   -5.3910  -22.2868 C   0  0  0  0  0  0  0  0  0  0  0  0
   22.4488   -6.7123  -24.3508 O   0  0  0  0  0  0  0  0  0  0  0  0
   20.9539  -10.1987  -17.7822 N   0  0  0  0  0  0  0  0  0  0  0  0
   22.9802   -5.9533  -20.9506 C   0  0  0  0  0  0  0  0  0  0  0  0
   20.7000   -6.5591  -18.6258 C   0  0  0  0  0  0  0  0  0  0  0  0
   21.1928   -7.8246  -18.3750 C   0  0  0  0  0  0  0  0  0  0  0  0
   20.4019   -8.9130  -18.0314 C   0  0  0  0  0  0  0  0  0  0  0  0
   20.9397  -10.8129  -16.5046 C   0  0  0  0  0  0  0  0  0  0  0  0
   22.0393  -11.7243  -16.1606 C   0  0  0  0  0  0  0  0  0  0  0  0
   23.9520  -12.9360  -16.7942 C   0  0  0  0  0  0  0  0  0  0  0  0
   18.7081   -5.2232  -18.7702 F   0  0  0  0  0  0  0  0  0  0  0  0
   19.3357   -6.3932  -18.5227 C   0  0  0  0  0  0  0  0  0  0  0  0
   22.0955   -5.5977  -23.3952 S   0  0  1  0  0  6  0  0  0  0  0  0
   23.8080   -3.4333  -19.7049 S   0  0  0  0  0  0  0  0  0  0  0  0
   18.5205   -7.4693  -18.1787 C   0  0  0  0  0  0  0  0  0  0  0  0
   19.0414   -8.7202  -17.9340 C   0  0  0  0  0  0  0  0  0  0  0  0
   20.0073  -10.5806  -15.6892 O   0  0  0  0  0  0  0  0  0  0  0  0
   22.1812  -12.2161  -14.8828 C   0  0  0  0  0  0  0  0  0  0  0  0
   23.1985  -13.0483  -14.6009 N   0  0  0  0  0  0  0  0  0  0  0  0
   24.1015  -13.4335  -15.5159 C   0  0  0  0  0  0  0  0  0  0  0  0
   22.9405  -12.1071  -17.0795 N   0  0  0  0  0  0  0  0  0  0  0  0
   25.1497  -14.3002  -15.1951 O   0  0  0  0  0  0  0  0  0  0  0  0
   24.8177  -15.5895  -14.7069 C   0  0  0  0  0  0  0  0  0  0  0  0
   24.8586  -15.5096  -13.3159 F   0  0  0  0  0  0  0  0  0  0  0  0
   25.2592   -5.2625  -17.0340 H   0  0  0  0  0  0  0  0  0  0  0  0
  2  1  1  1
  2  5  1  0
  2  8  1  0
 15  2  1  0
  8  3  1  0
  3  9  2  0
  3 24  1  0
  5  4  1  1
  4 24  1  0
  5  6  1  0
  5 14  1  0
  6  7  1  0
 23  7  1  1
 23 10  2  0
 14 11  1  0
 11 23  1  0
 23 12  2  0
 13 17  1  0
 18 13  1  0
 16 15  2  0
 15 22  1  0
 17 16  1  0
 17 26  2  0
 19 18  1  0
 18 27  2  0
 19 28  1  0
 31 19  2  0
 20 30  2  0
 20 31  1  0
 22 21  1  0
 22 25  2  0
 25 26  1  0
 28 29  2  0
 29 30  1  0
 30 32  1  0
 32 33  1  0
 33 34  1  0
  9 35  1  0
M  END
$$$$
