
     RDKit          3D

 35 38  0  0  0  0  0  0  0  0999 V2000
   21.1393   -4.0088  -18.0742 C   0  0  0  0  0  0  0  0  0  0  0  0
   21.7092   -5.4066  -18.4966 C   0  0  1  0  0  0  0  0  0  0  0  0
   24.0319   -4.7066  -17.9634 C   0  0  0  0  0  0  0  0  0  0  0  0
   22.4674   -3.8986  -20.2637 C   0  0  0  0  0  0  0  0  0  0  0  0
   21.9240   -5.3071  -19.9552 C   0  0  2  0  0  0  0  0  0  0  0  0
   20.6293   -5.4126  -20.7231 C   0  0  0  0  0  0  0  0  0  0  0  0
   20.6502   -6.4005  -21.8410 C   0  0  0  0  0  0  0  0  0  0  0  0
   22.8989   -5.4955  -17.6831 N   0  0  0  0  0  0  0  0  0  0  0  0
   25.0498   -4.6293  -17.1896 N   0  0  0  0  0  0  0  0  0  0  0  0
   21.8003   -4.8403  -23.7433 O   0  0  0  0  0  0  0  0  0  0  0  0
   23.4633   -5.8852  -21.8605 C   0  0  0  0  0  0  0  0  0  0  0  0
   22.2356   -7.2795  -23.7606 O   0  0  0  0  0  0  0  0  0  0  0  0
   20.5894   -9.5063  -15.9382 N   0  0  0  0  0  0  0  0  0  0  0  0
   22.9589   -6.2644  -20.4641 C   0  0  0  0  0  0  0  0  0  0  0  0
   20.7106   -6.4067  -18.0360 C   0  0  0  0  0  0  0  0  0  0  0  0
   21.0696   -7.4764  -17.2398 C   0  0  0  0  0  0  0  0  0  0  0  0
   20.1738   -8.4203  -16.7554 C   0  0  0  0  0  0  0  0  0  0  0  0
   20.9109  -10.7861  -16.4562 C   0  0  0  0  0  0  0  0  0  0  0  0
   22.0494  -11.5060  -15.8701 C   0  0  0  0  0  0  0  0  0  0  0  0
   23.9246  -11.5384  -14.4520 C   0  0  0  0  0  0  0  0  0  0  0  0
   18.8812   -5.3184  -19.1507 F   0  0  0  0  0  0  0  0  0  0  0  0
   19.3749   -6.2923  -18.3557 C   0  0  0  0  0  0  0  0  0  0  0  0
   22.0312   -6.0492  -22.9092 S   0  0  1  0  0  6  0  0  0  0  0  0
   24.0821   -3.7393  -19.4896 S   0  0  0  0  0  0  0  0  0  0  0  0
   18.4560   -7.2260  -17.8817 C   0  0  0  0  0  0  0  0  0  0  0  0
   18.8443   -8.2826  -17.0887 C   0  0  0  0  0  0  0  0  0  0  0  0
   20.2357  -11.2890  -17.3940 O   0  0  0  0  0  0  0  0  0  0  0  0
   22.3020  -12.8200  -16.1933 C   0  0  0  0  0  0  0  0  0  0  0  0
   23.3522  -13.4499  -15.6393 N   0  0  0  0  0  0  0  0  0  0  0  0
   24.1848  -12.8556  -14.7706 C   0  0  0  0  0  0  0  0  0  0  0  0
   22.8799  -10.9071  -15.0013 N   0  0  0  0  0  0  0  0  0  0  0  0
   25.2696  -13.5347  -14.2095 O   0  0  0  0  0  0  0  0  0  0  0  0
   25.4274  -14.9078  -14.5264 C   0  0  0  0  0  0  0  0  0  0  0  0
   24.1970  -15.5154  -14.2817 F   0  0  0  0  0  0  0  0  0  0  0  0
   24.9979   -4.2099  -16.2452 H   0  0  0  0  0  0  0  0  0  0  0  0
  2  1  1  1
  2  5  1  0
  2  8  1  0
 15  2  1  0
  8  3  1  0
  3  9  2  0
  3 24  1  0
  5  4  1  1
  4 24  1  0
  5  6  1  0
  5 14  1  0
  6  7  1  0
 23  7  1  1
 23 10  2  0
 14 11  1  0
 11 23  1  0
 23 12  2  0
 13 17  1  0
 18 13  1  0
 16 15  2  0
 15 22  1  0
 17 16  1  0
 17 26  2  0
 19 18  1  0
 18 27  2  0
 19 28  1  0
 31 19  2  0
 20 30  2  0
 20 31  1  0
 22 21  1  0
 22 25  2  0
 25 26  1  0
 28 29  2  0
 29 30  1  0
 30 32  1  0
 32 33  1  0
 33 34  1  0
  9 35  1  0
M  END
$$$$
