
     RDKit          3D

 29 33  0  0  0  0  0  0  0  0999 V2000
   28.6181   56.1505   87.4512 C   0  0  0  0  0  0  0  0  0  0  0  0
   22.0121   56.1280   85.1712 C   0  0  0  0  0  0  0  0  0  0  0  0
   16.1960   53.0240   89.0258 C   0  0  0  0  0  0  0  0  0  0  0  0
   22.4157   55.0782   89.6673 C   0  0  0  0  0  0  0  0  0  0  0  0
   18.1078   54.8787   88.4005 C   0  0  0  0  0  0  0  0  0  0  0  0
   16.4030   54.1089   89.8545 C   0  0  0  0  0  0  0  0  0  0  0  0
   16.9754   52.9095   87.8883 C   0  0  0  0  0  0  0  0  0  0  0  0
   19.3946   57.0774   88.7824 C   0  0  0  0  0  0  0  0  0  0  0  0
   20.0285   55.7895   86.9713 C   0  0  0  0  0  0  0  0  0  0  0  0
   21.6040   57.8618   89.5974 C   0  0  0  0  0  0  0  0  0  0  0  0
   22.2556   56.6370   86.5577 C   0  0  2  0  0  0  0  0  0  0  0  0
   20.8545   57.3953   88.4332 C   0  0  1  0  0  0  0  0  0  0  0  0
   23.2231   55.7217   85.9643 C   0  0  2  0  0  0  0  0  0  0  0  0
   28.4247   54.8073   88.0528 C   0  0  2  0  0  0  0  0  0  0  0  0
   27.2838   55.8064   87.9887 C   0  0  2  0  0  0  0  0  0  0  0  0
   21.3288   56.2192   87.6831 C   0  0  1  0  0  0  0  0  0  0  0  0
   28.9337   54.4976   89.4406 C   0  0  0  0  0  0  0  0  0  0  0  0
   25.0855   55.2803   84.4218 C   0  0  0  0  0  0  0  0  0  0  0  0
   24.3625   57.5464   84.8366 C   0  0  0  0  0  0  0  0  0  0  0  0
   26.1615   55.3817   87.0709 C   0  0  0  0  0  0  0  0  0  0  0  0
   24.6001   56.1846   85.5291 C   0  0  1  0  0  0  0  0  0  0  0  0
   17.9118   53.8338   87.5981 N   0  0  0  0  0  0  0  0  0  0  0  0
   17.3640   54.9965   89.4949 N   0  0  0  0  0  0  0  0  0  0  0  0
   21.7763   55.0857   88.3991 N   0  0  0  0  0  0  0  0  0  0  0  0
   19.1002   55.8487   88.0831 N   0  0  0  0  0  0  0  0  0  0  0  0
   22.8726   54.0147   90.1904 N   0  0  0  0  0  0  0  0  0  0  0  0
   25.4782   56.4298   86.5304 O   0  0  0  0  0  0  0  0  0  0  0  0
   22.5503   56.6294   90.4962 S   0  0  0  0  0  0  0  0  0  0  0  0
   23.2384   54.0088   91.1562 H   0  0  0  0  0  0  0  0  0  0  0  0
 14  1  1  0
 15  1  1  0
 11  2  1  6
 13  2  1  6
  6  3  2  0
  7  3  1  0
 24  4  1  0
  4 26  2  0
  4 28  1  0
  5 22  1  0
  5 23  2  0
 25  5  1  0
 23  6  1  0
 22  7  2  0
 12  8  1  1
  8 25  1  0
 16  9  1  6
  9 25  1  0
 12 10  1  0
 10 28  1  0
 13 11  1  0
 11 16  1  0
 16 12  1  0
 21 13  1  0
 15 14  1  0
 14 17  1  1
 15 20  1  6
 16 24  1  0
 21 18  1  6
 21 19  1  0
 27 20  1  0
 21 27  1  0
 26 29  1  0
M  END
$$$$
