
     RDKit          3D

 29 33  0  0  0  0  0  0  0  0999 V2000
   29.2369   56.7202   84.5442 C   0  0  0  0  0  0  0  0  0  0  0  0
   23.1402   57.1806   86.6427 C   0  0  0  0  0  0  0  0  0  0  0  0
   16.1751   53.3902   87.2098 C   0  0  0  0  0  0  0  0  0  0  0  0
   21.5725   54.8594   90.6765 C   0  0  0  0  0  0  0  0  0  0  0  0
   18.3212   55.0468   87.5787 C   0  0  0  0  0  0  0  0  0  0  0  0
   17.4020   53.0624   86.6675 C   0  0  0  0  0  0  0  0  0  0  0  0
   16.0708   54.5648   87.9335 C   0  0  0  0  0  0  0  0  0  0  0  0
   19.5114   57.1183   88.5420 C   0  0  0  0  0  0  0  0  0  0  0  0
   20.7647   55.7154   87.1998 C   0  0  0  0  0  0  0  0  0  0  0  0
   21.1739   57.7060   90.2890 C   0  0  0  0  0  0  0  0  0  0  0  0
   23.0095   56.3238   87.8631 C   0  0  2  0  0  0  0  0  0  0  0  0
   20.9940   57.2783   88.9035 C   0  0  1  0  0  0  0  0  0  0  0  0
   23.4816   55.7164   86.6245 C   0  0  2  0  0  0  0  0  0  0  0  0
   28.7708   57.6968   85.5603 C   0  0  2  0  0  0  0  0  0  0  0  0
   27.7821   56.8552   84.7740 C   0  0  2  0  0  0  0  0  0  0  0  0
   21.6339   56.0371   88.4339 C   0  0  1  0  0  0  0  0  0  0  0  0
   28.7413   59.1764   85.2590 C   0  0  0  0  0  0  0  0  0  0  0  0
   25.4783   54.8863   87.7935 C   0  0  0  0  0  0  0  0  0  0  0  0
   24.8424   53.9507   85.6603 C   0  0  0  0  0  0  0  0  0  0  0  0
   27.0328   55.8552   85.6230 C   0  0  0  0  0  0  0  0  0  0  0  0
   24.9229   55.2800   86.4459 C   0  0  1  0  0  0  0  0  0  0  0  0
   17.1397   55.3671   88.1038 N   0  0  0  0  0  0  0  0  0  0  0  0
   18.4304   53.9208   86.8824 N   0  0  0  0  0  0  0  0  0  0  0  0
   21.5862   54.8887   89.2567 N   0  0  0  0  0  0  0  0  0  0  0  0
   19.4433   55.9027   87.7656 N   0  0  0  0  0  0  0  0  0  0  0  0
   21.6282   53.7735   91.3332 N   0  0  0  0  0  0  0  0  0  0  0  0
   25.6947   56.1031   85.6973 O   0  0  0  0  0  0  0  0  0  0  0  0
   21.4735   56.4159   91.5006 S   0  0  0  0  0  0  0  0  0  0  0  0
   22.0837   53.7319   92.2592 H   0  0  0  0  0  0  0  0  0  0  0  0
 14  1  1  0
 15  1  1  0
 11  2  1  6
 13  2  1  6
  6  3  2  0
  7  3  1  0
 24  4  1  0
  4 26  2  0
  4 28  1  0
  5 22  1  0
  5 23  2  0
 25  5  1  0
 23  6  1  0
 22  7  2  0
 12  8  1  1
  8 25  1  0
 16  9  1  6
  9 25  1  0
 12 10  1  0
 10 28  1  0
 13 11  1  0
 11 16  1  0
 16 12  1  0
 21 13  1  0
 15 14  1  0
 14 17  1  6
 15 20  1  1
 16 24  1  0
 21 18  1  1
 21 19  1  0
 27 20  1  0
 21 27  1  0
 26 29  1  0
M  END
$$$$
