
     RDKit          3D

 29 33  0  0  0  0  0  0  0  0999 V2000
   28.9619   54.4514   85.7828 C   0  0  0  0  0  0  0  0  0  0  0  0
   23.4157   54.2903   86.6661 C   0  0  0  0  0  0  0  0  0  0  0  0
   15.4187   54.2247   88.9951 C   0  0  0  0  0  0  0  0  0  0  0  0
   21.9170   54.7460   89.9029 C   0  0  0  0  0  0  0  0  0  0  0  0
   17.8002   55.3021   88.1868 C   0  0  0  0  0  0  0  0  0  0  0  0
   16.1780   53.5820   88.0375 C   0  0  0  0  0  0  0  0  0  0  0  0
   15.8958   55.4117   89.5223 C   0  0  0  0  0  0  0  0  0  0  0  0
   19.6307   57.1142   88.1503 C   0  0  0  0  0  0  0  0  0  0  0  0
   19.9725   55.2482   86.8305 C   0  0  0  0  0  0  0  0  0  0  0  0
   21.9250   57.5063   89.0126 C   0  0  0  0  0  0  0  0  0  0  0  0
   22.3667   55.3456   86.5024 C   0  0  2  0  0  0  0  0  0  0  0  0
   21.1376   56.9363   87.9218 C   0  0  1  0  0  0  0  0  0  0  0  0
   23.7504   55.7555   86.7109 C   0  0  2  0  0  0  0  0  0  0  0  0
   28.6851   54.3726   87.2390 C   0  0  2  0  0  0  0  0  0  0  0  0
   28.0375   55.4412   86.3772 C   0  0  2  0  0  0  0  0  0  0  0  0
   21.3014   55.5153   87.5686 C   0  0  1  0  0  0  0  0  0  0  0  0
   29.6882   54.8784   88.2485 C   0  0  0  0  0  0  0  0  0  0  0  0
   24.1355   55.7845   84.2833 C   0  0  0  0  0  0  0  0  0  0  0  0
   24.1164   57.8491   85.5352 C   0  0  0  0  0  0  0  0  0  0  0  0
   26.5407   55.2842   86.2457 C   0  0  0  0  0  0  0  0  0  0  0  0
   24.5774   56.3747   85.6008 C   0  0  1  0  0  0  0  0  0  0  0  0
   17.0712   55.9258   89.1108 N   0  0  0  0  0  0  0  0  0  0  0  0
   17.3497   54.1619   87.6752 N   0  0  0  0  0  0  0  0  0  0  0  0
   21.3738   54.5564   88.6045 N   0  0  0  0  0  0  0  0  0  0  0  0
   19.0406   55.8553   87.7602 N   0  0  0  0  0  0  0  0  0  0  0  0
   22.0283   53.7948   90.7373 N   0  0  0  0  0  0  0  0  0  0  0  0
   25.9129   56.4167   85.8203 O   0  0  0  0  0  0  0  0  0  0  0  0
   22.4378   56.3807   90.3133 S   0  0  0  0  0  0  0  0  0  0  0  0
   21.5075   53.8028   91.6292 H   0  0  0  0  0  0  0  0  0  0  0  0
 14  1  1  0
 15  1  1  0
 11  2  1  1
 13  2  1  6
  6  3  2  0
  7  3  1  0
 24  4  1  0
  4 26  2  0
  4 28  1  0
  5 22  1  0
  5 23  2  0
 25  5  1  0
 23  6  1  0
 22  7  2  0
 12  8  1  1
  8 25  1  0
 16  9  1  6
  9 25  1  0
 12 10  1  0
 10 28  1  0
 13 11  1  0
 11 16  1  0
 16 12  1  0
 21 13  1  0
 15 14  1  0
 14 17  1  1
 15 20  1  6
 16 24  1  0
 21 18  1  6
 21 19  1  0
 27 20  1  0
 21 27  1  0
 26 29  1  0
M  END
$$$$
