
     RDKit          3D

 29 33  0  0  0  0  0  0  0  0999 V2000
   27.1220   55.8170   85.5406 C   0  0  0  0  0  0  0  0  0  0  0  0
   22.9430   55.1639   88.8015 C   0  0  0  0  0  0  0  0  0  0  0  0
   22.5305   58.5365   95.6395 C   0  0  0  0  0  0  0  0  0  0  0  0
   19.9874   58.6749   89.5669 C   0  0  0  0  0  0  0  0  0  0  0  0
   21.6606   57.1472   93.4488 C   0  0  0  0  0  0  0  0  0  0  0  0
   21.3508   57.8214   95.6988 C   0  0  0  0  0  0  0  0  0  0  0  0
   23.2447   58.5262   94.4545 C   0  0  0  0  0  0  0  0  0  0  0  0
   19.8724   55.9105   92.0673 C   0  0  0  0  0  0  0  0  0  0  0  0
   21.9936   56.0462   91.1601 C   0  0  0  0  0  0  0  0  0  0  0  0
   18.4739   56.2473   90.0445 C   0  0  0  0  0  0  0  0  0  0  0  0
   21.5240   55.6401   88.8226 C   0  0  2  0  0  0  0  0  0  0  0  0
   19.7690   55.7883   90.5413 C   0  0  1  0  0  0  0  0  0  0  0  0
   22.4506   56.2326   87.8654 C   0  0  2  0  0  0  0  0  0  0  0  0
   26.5296   57.0020   86.2103 C   0  0  2  0  0  0  0  0  0  0  0  0
   25.7702   56.2541   85.1295 C   0  0  2  0  0  0  0  0  0  0  0  0
   21.0065   56.4014   90.0280 C   0  0  1  0  0  0  0  0  0  0  0  0
   26.9654   58.4004   85.8425 C   0  0  0  0  0  0  0  0  0  0  0  0
   21.8930   54.5239   86.1886 C   0  0  0  0  0  0  0  0  0  0  0  0
   21.1698   56.8073   85.8834 C   0  0  0  0  0  0  0  0  0  0  0  0
   24.5359   55.5476   85.6390 C   0  0  0  0  0  0  0  0  0  0  0  0
   22.3560   55.9483   86.3788 C   0  0  1  0  0  0  0  0  0  0  0  0
   22.7993   57.8356   93.3869 N   0  0  0  0  0  0  0  0  0  0  0  0
   20.9684   57.1516   94.5827 N   0  0  0  0  0  0  0  0  0  0  0  0
   21.0655   57.8061   89.8833 N   0  0  0  0  0  0  0  0  0  0  0  0
   21.2003   56.4214   92.3140 N   0  0  0  0  0  0  0  0  0  0  0  0
   20.1552   59.9169   89.3603 N   0  0  0  0  0  0  0  0  0  0  0  0
   23.4233   56.3348   85.6404 O   0  0  0  0  0  0  0  0  0  0  0  0
   18.3839   57.9461   89.4717 S   0  0  0  0  0  0  0  0  0  0  0  0
   19.3587   60.5326   89.1297 H   0  0  0  0  0  0  0  0  0  0  0  0
 14  1  1  0
 15  1  1  0
 11  2  1  1
 13  2  1  1
  6  3  2  0
  7  3  1  0
 24  4  1  0
  4 26  2  0
  4 28  1  0
  5 22  1  0
  5 23  2  0
 25  5  1  0
 23  6  1  0
 22  7  2  0
 12  8  1  1
  8 25  1  0
 16  9  1  1
  9 25  1  0
 12 10  1  0
 10 28  1  0
 13 11  1  0
 11 16  1  0
 16 12  1  0
 21 13  1  0
 15 14  1  0
 14 17  1  6
 15 20  1  1
 16 24  1  0
 21 18  1  1
 21 19  1  0
 27 20  1  0
 21 27  1  0
 26 29  1  0
M  END
$$$$
