
     RDKit          3D

 29 33  0  0  0  0  0  0  0  0999 V2000
   21.4043   59.4930   84.2057 C   0  0  0  0  0  0  0  0  0  0  0  0
   23.9229   55.2564   87.8752 C   0  0  0  0  0  0  0  0  0  0  0  0
   15.2596   54.6269   88.7475 C   0  0  0  0  0  0  0  0  0  0  0  0
   21.5810   54.8437   90.5814 C   0  0  0  0  0  0  0  0  0  0  0  0
   17.7935   55.5384   88.2631 C   0  0  0  0  0  0  0  0  0  0  0  0
   15.5429   55.9735   88.8616 C   0  0  0  0  0  0  0  0  0  0  0  0
   16.2838   53.7697   88.3860 C   0  0  0  0  0  0  0  0  0  0  0  0
   19.6971   57.2628   88.4587 C   0  0  0  0  0  0  0  0  0  0  0  0
   20.1360   55.3459   87.2448 C   0  0  0  0  0  0  0  0  0  0  0  0
   21.8566   57.5740   89.6424 C   0  0  0  0  0  0  0  0  0  0  0  0
   22.5543   55.3239   87.2728 C   0  0  2  0  0  0  0  0  0  0  0  0
   21.2105   57.0095   88.4598 C   0  0  1  0  0  0  0  0  0  0  0  0
   23.5169   56.3708   86.9510 C   0  0  2  0  0  0  0  0  0  0  0  0
   20.2552   58.5579   84.1119 C   0  0  2  0  0  0  0  0  0  0  0  0
   21.6167   58.1810   83.5568 C   0  0  2  0  0  0  0  0  0  0  0  0
   21.3537   55.5730   88.1655 C   0  0  1  0  0  0  0  0  0  0  0  0
   19.1714   58.7608   83.0799 C   0  0  0  0  0  0  0  0  0  0  0  0
   25.6407   56.6552   85.7465 C   0  0  0  0  0  0  0  0  0  0  0  0
   23.9967   55.0742   84.9540 C   0  0  0  0  0  0  0  0  0  0  0  0
   22.2769   57.0435   84.3001 C   0  0  0  0  0  0  0  0  0  0  0  0
   24.1505   56.4806   85.5777 C   0  0  1  0  0  0  0  0  0  0  0  0
   17.5250   54.2385   88.1518 N   0  0  0  0  0  0  0  0  0  0  0  0
   16.8161   56.3686   88.6097 N   0  0  0  0  0  0  0  0  0  0  0  0
   21.2256   54.6419   89.2212 N   0  0  0  0  0  0  0  0  0  0  0  0
   19.1090   56.0216   88.0129 N   0  0  0  0  0  0  0  0  0  0  0  0
   21.5212   53.9128   91.4435 N   0  0  0  0  0  0  0  0  0  0  0  0
   23.5413   57.3321   84.7189 O   0  0  0  0  0  0  0  0  0  0  0  0
   22.1163   56.4638   91.0288 S   0  0  0  0  0  0  0  0  0  0  0  0
   21.9689   54.0120   92.3689 H   0  0  0  0  0  0  0  0  0  0  0  0
 14  1  1  0
 15  1  1  0
 11  2  1  1
 13  2  1  1
  6  3  2  0
  7  3  1  0
 24  4  1  0
  4 26  2  0
  4 28  1  0
  5 22  1  0
  5 23  2  0
 25  5  1  0
 23  6  1  0
 22  7  2  0
 12  8  1  1
  8 25  1  0
 16  9  1  6
  9 25  1  0
 12 10  1  0
 10 28  1  0
 13 11  1  0
 11 16  1  0
 16 12  1  0
 21 13  1  0
 15 14  1  0
 14 17  1  6
 15 20  1  1
 16 24  1  0
 21 18  1  1
 21 19  1  0
 27 20  1  0
 21 27  1  0
 26 29  1  0
M  END
$$$$
