
     RDKit          3D

 29 33  0  0  0  0  0  0  0  0999 V2000
   18.0989   59.0376   94.1683 C   0  0  0  0  0  0  0  0  0  0  0  0
   20.9485   58.4661   89.2275 C   0  0  0  0  0  0  0  0  0  0  0  0
   27.9431   56.6966   86.5838 C   0  0  0  0  0  0  0  0  0  0  0  0
   22.5296   54.3325   89.4874 C   0  0  0  0  0  0  0  0  0  0  0  0
   25.2104   56.6016   86.6825 C   0  0  0  0  0  0  0  0  0  0  0  0
   27.2571   55.7590   85.8374 C   0  0  0  0  0  0  0  0  0  0  0  0
   27.2131   57.5709   87.3695 C   0  0  0  0  0  0  0  0  0  0  0  0
   22.9146   55.6416   86.0168 C   0  0  0  0  0  0  0  0  0  0  0  0
   22.9237   57.4021   87.5138 C   0  0  0  0  0  0  0  0  0  0  0  0
   21.1055   54.2297   86.9629 C   0  0  0  0  0  0  0  0  0  0  0  0
   20.7402   57.1605   88.5255 C   0  0  2  0  0  0  0  0  0  0  0  0
   21.6292   55.5893   86.8532 C   0  0  1  0  0  0  0  0  0  0  0  0
   20.3588   57.2736   89.9283 C   0  0  2  0  0  0  0  0  0  0  0  0
   17.3363   60.1810   93.6074 C   0  0  2  0  0  0  0  0  0  0  0  0
   18.6823   59.7813   93.0307 C   0  0  2  0  0  0  0  0  0  0  0  0
   21.9415   56.3519   88.0745 C   0  0  1  0  0  0  0  0  0  0  0  0
   17.3075   61.5160   94.3129 C   0  0  0  0  0  0  0  0  0  0  0  0
   18.0631   57.7724   89.2049 C   0  0  0  0  0  0  0  0  0  0  0  0
   18.5184   55.8094   90.5352 C   0  0  0  0  0  0  0  0  0  0  0  0
   18.5981   59.2401   91.6227 C   0  0  0  0  0  0  0  0  0  0  0  0
   18.9062   57.2962   90.3633 C   0  0  1  0  0  0  0  0  0  0  0  0
   25.8678   57.5078   87.4043 N   0  0  0  0  0  0  0  0  0  0  0  0
   25.9033   55.7581   85.9253 N   0  0  0  0  0  0  0  0  0  0  0  0
   22.6217   55.7042   89.1308 N   0  0  0  0  0  0  0  0  0  0  0  0
   23.7887   56.5448   86.7276 N   0  0  0  0  0  0  0  0  0  0  0  0
   23.1046   53.8591   90.5163 N   0  0  0  0  0  0  0  0  0  0  0  0
   18.6634   57.8802   91.5606 O   0  0  0  0  0  0  0  0  0  0  0  0
   21.5700   53.3004   88.4266 S   0  0  0  0  0  0  0  0  0  0  0  0
   23.1749   52.8398   90.6676 H   0  0  0  0  0  0  0  0  0  0  0  0
 14  1  1  0
 15  1  1  0
 11  2  1  1
 13  2  1  6
  6  3  2  0
  7  3  1  0
 24  4  1  0
  4 26  2  0
  4 28  1  0
  5 22  1  0
  5 23  2  0
 25  5  1  0
 23  6  1  0
 22  7  2  0
 12  8  1  6
  8 25  1  0
 16  9  1  6
  9 25  1  0
 12 10  1  0
 10 28  1  0
 13 11  1  0
 11 16  1  0
 16 12  1  0
 21 13  1  0
 15 14  1  0
 14 17  1  1
 15 20  1  6
 16 24  1  0
 21 18  1  6
 21 19  1  0
 27 20  1  0
 21 27  1  0
 26 29  1  0
M  END
$$$$
