
     RDKit          3D

 29 33  0  0  0  0  0  0  0  0999 V2000
   18.2629   53.2562   84.5809 C   0  0  0  0  0  0  0  0  0  0  0  0
   23.0599   55.2401   88.3978 C   0  0  0  0  0  0  0  0  0  0  0  0
   15.3454   56.7673   92.3073 C   0  0  0  0  0  0  0  0  0  0  0  0
   21.8172   55.6181   91.9148 C   0  0  0  0  0  0  0  0  0  0  0  0
   17.6396   56.8634   90.8196 C   0  0  0  0  0  0  0  0  0  0  0  0
   15.9547   57.9804   92.0549 C   0  0  0  0  0  0  0  0  0  0  0  0
   15.9254   55.6222   91.7907 C   0  0  0  0  0  0  0  0  0  0  0  0
   19.7642   58.0216   89.9360 C   0  0  0  0  0  0  0  0  0  0  0  0
   19.3580   55.8685   89.2014 C   0  0  0  0  0  0  0  0  0  0  0  0
   22.2259   57.9554   90.2467 C   0  0  0  0  0  0  0  0  0  0  0  0
   21.5649   55.2062   88.4663 C   0  0  2  0  0  0  0  0  0  0  0  0
   21.0948   57.3775   89.5248 C   0  0  1  0  0  0  0  0  0  0  0  0
   22.2026   55.9197   87.3662 C   0  0  2  0  0  0  0  0  0  0  0  0
   17.4781   54.3390   85.2252 C   0  0  2  0  0  0  0  0  0  0  0  0
   18.8394   53.9352   85.7616 C   0  0  2  0  0  0  0  0  0  0  0  0
   20.8497   55.9263   89.5933 C   0  0  1  0  0  0  0  0  0  0  0  0
   16.3090   54.0198   86.1264 C   0  0  0  0  0  0  0  0  0  0  0  0
   22.3396   56.5532   84.9950 C   0  0  0  0  0  0  0  0  0  0  0  0
   23.4772   54.5784   85.7928 C   0  0  0  0  0  0  0  0  0  0  0  0
   19.8914   55.0081   85.6051 C   0  0  0  0  0  0  0  0  0  0  0  0
   22.1711   55.3918   85.9450 C   0  0  1  0  0  0  0  0  0  0  0  0
   17.0555   55.6908   91.0604 N   0  0  0  0  0  0  0  0  0  0  0  0
   17.0896   57.9680   91.3117 N   0  0  0  0  0  0  0  0  0  0  0  0
   20.9520   55.2732   90.8427 N   0  0  0  0  0  0  0  0  0  0  0  0
   18.8335   56.9230   90.0465 N   0  0  0  0  0  0  0  0  0  0  0  0
   21.9099   54.9113   92.9660 N   0  0  0  0  0  0  0  0  0  0  0  0
   21.1660   54.5290   85.6637 O   0  0  0  0  0  0  0  0  0  0  0  0
   22.7706   57.0897   91.7218 S   0  0  0  0  0  0  0  0  0  0  0  0
   22.7334   54.9806   93.5855 H   0  0  0  0  0  0  0  0  0  0  0  0
 14  1  1  0
 15  1  1  0
 11  2  1  1
 13  2  1  1
  6  3  2  0
  7  3  1  0
 24  4  1  0
  4 26  2  0
  4 28  1  0
  5 22  1  0
  5 23  2  0
 25  5  1  0
 23  6  1  0
 22  7  2  0
 12  8  1  1
  8 25  1  0
 16  9  1  6
  9 25  1  0
 12 10  1  0
 10 28  1  0
 13 11  1  0
 11 16  1  0
 16 12  1  0
 21 13  1  0
 15 14  1  0
 14 17  1  1
 15 20  1  6
 16 24  1  0
 21 18  1  6
 21 19  1  0
 27 20  1  0
 21 27  1  0
 26 29  1  0
M  END
$$$$
