
     RDKit          3D

 29 33  0  0  0  0  0  0  0  0999 V2000
   27.5276   53.3819   87.1978 C   0  0  0  0  0  0  0  0  0  0  0  0
   22.1221   56.8877   85.1375 C   0  0  0  0  0  0  0  0  0  0  0  0
   16.9818   52.4471   88.6444 C   0  0  0  0  0  0  0  0  0  0  0  0
   22.7193   55.5080   89.6412 C   0  0  0  0  0  0  0  0  0  0  0  0
   18.5643   54.6281   88.1700 C   0  0  0  0  0  0  0  0  0  0  0  0
   17.2153   53.3631   89.6509 C   0  0  0  0  0  0  0  0  0  0  0  0
   17.5657   52.6668   87.4094 C   0  0  0  0  0  0  0  0  0  0  0  0
   19.4361   56.9965   88.6859 C   0  0  0  0  0  0  0  0  0  0  0  0
   20.3544   55.9123   86.8633 C   0  0  0  0  0  0  0  0  0  0  0  0
   21.4429   58.1124   89.6288 C   0  0  0  0  0  0  0  0  0  0  0  0
   22.4166   57.1444   86.5825 C   0  0  2  0  0  0  0  0  0  0  0  0
   20.8320   57.5735   88.4158 C   0  0  1  0  0  0  0  0  0  0  0  0
   23.3614   56.3549   85.8016 C   0  0  2  0  0  0  0  0  0  0  0  0
   26.7434   53.7079   88.4153 C   0  0  2  0  0  0  0  0  0  0  0  0
   26.9816   54.7494   87.3371 C   0  0  2  0  0  0  0  0  0  0  0  0
   21.5316   56.5280   87.6489 C   0  0  1  0  0  0  0  0  0  0  0  0
   27.4308   53.9749   89.7332 C   0  0  0  0  0  0  0  0  0  0  0  0
   24.8604   56.8020   83.9054 C   0  0  0  0  0  0  0  0  0  0  0  0
   24.6445   58.4142   85.6899 C   0  0  0  0  0  0  0  0  0  0  0  0
   25.7236   55.1623   86.6095 C   0  0  0  0  0  0  0  0  0  0  0  0
   24.7216   56.8963   85.4059 C   0  0  1  0  0  0  0  0  0  0  0  0
   18.3419   53.7471   87.1960 N   0  0  0  0  0  0  0  0  0  0  0  0
   18.0076   54.4250   89.3590 N   0  0  0  0  0  0  0  0  0  0  0  0
   22.1392   55.4588   88.3458 N   0  0  0  0  0  0  0  0  0  0  0  0
   19.3863   55.7658   87.9322 N   0  0  0  0  0  0  0  0  0  0  0  0
   23.3316   54.5175   90.1484 N   0  0  0  0  0  0  0  0  0  0  0  0
   25.7676   56.4388   86.1340 O   0  0  0  0  0  0  0  0  0  0  0  0
   22.5510   57.0236   90.5280 S   0  0  0  0  0  0  0  0  0  0  0  0
   22.9512   53.5600   90.0757 H   0  0  0  0  0  0  0  0  0  0  0  0
 14  1  1  0
 15  1  1  0
 11  2  1  6
 13  2  1  6
  6  3  2  0
  7  3  1  0
 24  4  1  0
  4 26  2  0
  4 28  1  0
  5 22  1  0
  5 23  2  0
 25  5  1  0
 23  6  1  0
 22  7  2  0
 12  8  1  1
  8 25  1  0
 16  9  1  6
  9 25  1  0
 12 10  1  0
 10 28  1  0
 13 11  1  0
 11 16  1  0
 16 12  1  0
 21 13  1  0
 15 14  1  0
 14 17  1  1
 15 20  1  6
 16 24  1  0
 21 18  1  6
 21 19  1  0
 27 20  1  0
 21 27  1  0
 26 29  1  0
M  END
$$$$
