
     RDKit          3D

 29 33  0  0  0  0  0  0  0  0999 V2000
   18.4363   53.6770   83.6493 C   0  0  0  0  0  0  0  0  0  0  0  0
   23.0876   56.6236   87.7196 C   0  0  0  0  0  0  0  0  0  0  0  0
   15.0222   55.0471   90.3203 C   0  0  0  0  0  0  0  0  0  0  0  0
   21.5038   55.0718   91.5060 C   0  0  0  0  0  0  0  0  0  0  0  0
   17.5198   55.8979   89.5961 C   0  0  0  0  0  0  0  0  0  0  0  0
   15.3834   55.0742   88.9878 C   0  0  0  0  0  0  0  0  0  0  0  0
   15.9512   55.4579   91.2599 C   0  0  0  0  0  0  0  0  0  0  0  0
   19.4889   57.5588   89.5925 C   0  0  0  0  0  0  0  0  0  0  0  0
   19.7357   55.6332   88.3388 C   0  0  0  0  0  0  0  0  0  0  0  0
   21.7691   57.7951   90.5443 C   0  0  0  0  0  0  0  0  0  0  0  0
   22.1417   55.5325   88.1140 C   0  0  2  0  0  0  0  0  0  0  0  0
   20.9850   57.2564   89.4354 C   0  0  1  0  0  0  0  0  0  0  0  0
   22.0931   56.0468   86.7505 C   0  0  2  0  0  0  0  0  0  0  0  0
   18.0305   53.6468   85.0769 C   0  0  2  0  0  0  0  0  0  0  0  0
   19.4843   53.4788   84.6740 C   0  0  2  0  0  0  0  0  0  0  0  0
   21.0496   55.8171   89.1273 C   0  0  1  0  0  0  0  0  0  0  0  0
   17.3807   52.4211   85.6736 C   0  0  0  0  0  0  0  0  0  0  0  0
   23.1988   56.1630   84.5582 C   0  0  0  0  0  0  0  0  0  0  0  0
   23.7686   54.4074   86.1148 C   0  0  0  0  0  0  0  0  0  0  0  0
   20.3679   54.6224   85.1141 C   0  0  0  0  0  0  0  0  0  0  0  0
   22.5780   55.2291   85.5691 C   0  0  1  0  0  0  0  0  0  0  0  0
   17.1760   55.8735   90.8828 N   0  0  0  0  0  0  0  0  0  0  0  0
   16.6342   55.5052   88.6872 N   0  0  0  0  0  0  0  0  0  0  0  0
   21.0020   54.8867   90.1904 N   0  0  0  0  0  0  0  0  0  0  0  0
   18.8171   56.3390   89.2101 N   0  0  0  0  0  0  0  0  0  0  0  0
   21.5039   54.1400   92.3693 N   0  0  0  0  0  0  0  0  0  0  0  0
   21.6969   54.3221   85.0845 O   0  0  0  0  0  0  0  0  0  0  0  0
   22.1356   56.6720   91.8956 S   0  0  0  0  0  0  0  0  0  0  0  0
   20.8438   54.1476   93.1637 H   0  0  0  0  0  0  0  0  0  0  0  0
 14  1  1  0
 15  1  1  0
 11  2  1  1
 13  2  1  1
  6  3  2  0
  7  3  1  0
 24  4  1  0
  4 26  2  0
  4 28  1  0
  5 22  1  0
  5 23  2  0
 25  5  1  0
 23  6  1  0
 22  7  2  0
 12  8  1  1
  8 25  1  0
 16  9  1  6
  9 25  1  0
 12 10  1  0
 10 28  1  0
 13 11  1  0
 11 16  1  0
 16 12  1  0
 21 13  1  0
 15 14  1  0
 14 17  1  6
 15 20  1  1
 16 24  1  0
 21 18  1  6
 21 19  1  0
 27 20  1  0
 21 27  1  0
 26 29  1  0
M  END
$$$$
