
     RDKit          3D

 29 33  0  0  0  0  0  0  0  0999 V2000
   27.5857   54.4895   87.2701 C   0  0  0  0  0  0  0  0  0  0  0  0
   21.4302   57.2144   85.3711 C   0  0  0  0  0  0  0  0  0  0  0  0
   16.1731   52.9849   89.0384 C   0  0  0  0  0  0  0  0  0  0  0  0
   22.3615   55.1522   89.6339 C   0  0  0  0  0  0  0  0  0  0  0  0
   18.0022   54.9616   88.5555 C   0  0  0  0  0  0  0  0  0  0  0  0
   16.1911   54.1173   89.8283 C   0  0  0  0  0  0  0  0  0  0  0  0
   17.0961   52.8865   88.0123 C   0  0  0  0  0  0  0  0  0  0  0  0
   19.2456   57.1407   89.1396 C   0  0  0  0  0  0  0  0  0  0  0  0
   19.8224   56.1001   87.1585 C   0  0  0  0  0  0  0  0  0  0  0  0
   21.4709   57.8956   89.9391 C   0  0  0  0  0  0  0  0  0  0  0  0
   22.0017   57.0648   86.7465 C   0  0  2  0  0  0  0  0  0  0  0  0
   20.6767   57.5467   88.7634 C   0  0  1  0  0  0  0  0  0  0  0  0
   22.5405   56.2448   85.6680 C   0  0  2  0  0  0  0  0  0  0  0  0
   26.6086   53.8501   88.1866 C   0  0  2  0  0  0  0  0  0  0  0  0
   26.3212   55.2010   87.5570 C   0  0  2  0  0  0  0  0  0  0  0  0
   21.1447   56.4850   87.8553 C   0  0  1  0  0  0  0  0  0  0  0  0
   26.8203   53.8673   89.6819 C   0  0  0  0  0  0  0  0  0  0  0  0
   24.0605   55.6934   83.8165 C   0  0  0  0  0  0  0  0  0  0  0  0
   23.9155   57.9602   84.6354 C   0  0  0  0  0  0  0  0  0  0  0  0
   25.1745   55.1760   86.5737 C   0  0  0  0  0  0  0  0  0  0  0  0
   23.9242   56.4841   85.0955 C   0  0  1  0  0  0  0  0  0  0  0  0
   17.9887   53.8710   87.7908 N   0  0  0  0  0  0  0  0  0  0  0  0
   17.1196   55.0645   89.5430 N   0  0  0  0  0  0  0  0  0  0  0  0
   21.6589   55.2897   88.4073 N   0  0  0  0  0  0  0  0  0  0  0  0
   18.9503   55.9952   88.3115 N   0  0  0  0  0  0  0  0  0  0  0  0
   22.8733   54.0498   90.0027 N   0  0  0  0  0  0  0  0  0  0  0  0
   24.9476   56.3797   85.9761 O   0  0  0  0  0  0  0  0  0  0  0  0
   22.4949   56.5970   90.6371 S   0  0  0  0  0  0  0  0  0  0  0  0
   23.5056   54.0004   90.8179 H   0  0  0  0  0  0  0  0  0  0  0  0
 14  1  1  0
 15  1  1  0
 11  2  1  6
 13  2  1  6
  6  3  2  0
  7  3  1  0
 24  4  1  0
  4 26  2  0
  4 28  1  0
  5 22  1  0
  5 23  2  0
 25  5  1  0
 23  6  1  0
 22  7  2  0
 12  8  1  1
  8 25  1  0
 16  9  1  6
  9 25  1  0
 12 10  1  0
 10 28  1  0
 13 11  1  0
 11 16  1  0
 16 12  1  0
 21 13  1  0
 15 14  1  0
 14 17  1  1
 15 20  1  6
 16 24  1  0
 21 18  1  6
 21 19  1  0
 27 20  1  0
 21 27  1  0
 26 29  1  0
M  END
$$$$
