
     RDKit          3D

 29 33  0  0  0  0  0  0  0  0999 V2000
   29.0030   55.3871   86.7894 C   0  0  0  0  0  0  0  0  0  0  0  0
   23.3200   57.4949   86.9707 C   0  0  0  0  0  0  0  0  0  0  0  0
   16.3216   53.1848   87.6176 C   0  0  0  0  0  0  0  0  0  0  0  0
   21.9860   54.6935   90.6157 C   0  0  0  0  0  0  0  0  0  0  0  0
   18.4736   54.8629   87.8163 C   0  0  0  0  0  0  0  0  0  0  0  0
   17.3469   53.1054   86.6961 C   0  0  0  0  0  0  0  0  0  0  0  0
   16.4188   54.1260   88.6271 C   0  0  0  0  0  0  0  0  0  0  0  0
   19.7180   56.9421   88.6903 C   0  0  0  0  0  0  0  0  0  0  0  0
   20.8659   55.5663   87.2309 C   0  0  0  0  0  0  0  0  0  0  0  0
   21.5199   57.5376   90.2902 C   0  0  0  0  0  0  0  0  0  0  0  0
   23.1526   56.1988   87.7005 C   0  0  2  0  0  0  0  0  0  0  0  0
   21.2245   57.1186   88.9220 C   0  0  1  0  0  0  0  0  0  0  0  0
   23.2998   56.1754   86.2501 C   0  0  2  0  0  0  0  0  0  0  0  0
   28.6742   54.3523   87.8016 C   0  0  2  0  0  0  0  0  0  0  0  0
   27.6951   55.4655   87.4756 C   0  0  2  0  0  0  0  0  0  0  0  0
   21.8360   55.8896   88.3870 C   0  0  1  0  0  0  0  0  0  0  0  0
   29.2720   54.4042   89.1875 C   0  0  0  0  0  0  0  0  0  0  0  0
   24.3628   54.2055   85.2341 C   0  0  0  0  0  0  0  0  0  0  0  0
   24.6078   56.3802   84.2138 C   0  0  0  0  0  0  0  0  0  0  0  0
   26.4331   54.9801   86.8019 C   0  0  0  0  0  0  0  0  0  0  0  0
   24.5604   55.6614   85.5819 C   0  0  1  0  0  0  0  0  0  0  0  0
   17.4869   54.9432   88.7076 N   0  0  0  0  0  0  0  0  0  0  0  0
   18.3885   53.9620   86.8437 N   0  0  0  0  0  0  0  0  0  0  0  0
   21.8748   54.7342   89.2004 N   0  0  0  0  0  0  0  0  0  0  0  0
   19.5971   55.7319   87.9119 N   0  0  0  0  0  0  0  0  0  0  0  0
   22.1125   53.6033   91.2551 N   0  0  0  0  0  0  0  0  0  0  0  0
   25.7217   55.9764   86.2030 O   0  0  0  0  0  0  0  0  0  0  0  0
   21.9405   56.2420   91.4592 S   0  0  0  0  0  0  0  0  0  0  0  0
   22.1778   53.5929   92.2858 H   0  0  0  0  0  0  0  0  0  0  0  0
 14  1  1  0
 15  1  1  0
 11  2  1  6
 13  2  1  1
  6  3  2  0
  7  3  1  0
 24  4  1  0
  4 26  2  0
  4 28  1  0
  5 22  1  0
  5 23  2  0
 25  5  1  0
 23  6  1  0
 22  7  2  0
 12  8  1  1
  8 25  1  0
 16  9  1  6
  9 25  1  0
 12 10  1  0
 10 28  1  0
 13 11  1  0
 11 16  1  0
 16 12  1  0
 21 13  1  0
 15 14  1  0
 14 17  1  1
 15 20  1  6
 16 24  1  0
 21 18  1  6
 21 19  1  0
 27 20  1  0
 21 27  1  0
 26 29  1  0
M  END
$$$$
