
     RDKit          3D

 29 33  0  0  0  0  0  0  0  0999 V2000
   29.1048   55.4116   87.7790 C   0  0  0  0  0  0  0  0  0  0  0  0
   23.0356   57.5885   86.4667 C   0  0  0  0  0  0  0  0  0  0  0  0
   16.4724   53.1173   87.2976 C   0  0  0  0  0  0  0  0  0  0  0  0
   22.0271   54.8237   90.3894 C   0  0  0  0  0  0  0  0  0  0  0  0
   18.5033   54.9254   87.6011 C   0  0  0  0  0  0  0  0  0  0  0  0
   17.6023   53.0257   86.5092 C   0  0  0  0  0  0  0  0  0  0  0  0
   16.4044   54.1374   88.2299 C   0  0  0  0  0  0  0  0  0  0  0  0
   19.6050   57.0267   88.6042 C   0  0  0  0  0  0  0  0  0  0  0  0
   20.8403   55.8260   87.0638 C   0  0  0  0  0  0  0  0  0  0  0  0
   21.3665   57.6439   90.2406 C   0  0  0  0  0  0  0  0  0  0  0  0
   23.0796   56.5833   87.5750 C   0  0  2  0  0  0  0  0  0  0  0  0
   21.0966   57.2913   88.8486 C   0  0  1  0  0  0  0  0  0  0  0  0
   23.4467   56.1619   86.2283 C   0  0  2  0  0  0  0  0  0  0  0  0
   28.6704   54.1218   88.3716 C   0  0  2  0  0  0  0  0  0  0  0  0
   27.6805   55.2497   88.1435 C   0  0  2  0  0  0  0  0  0  0  0  0
   21.7893   56.1426   88.2391 C   0  0  1  0  0  0  0  0  0  0  0  0
   28.9560   53.7968   89.8185 C   0  0  0  0  0  0  0  0  0  0  0  0
   24.9018   54.5374   85.0943 C   0  0  0  0  0  0  0  0  0  0  0  0
   25.2625   56.9063   84.7973 C   0  0  0  0  0  0  0  0  0  0  0  0
   26.6401   54.9356   87.0942 C   0  0  0  0  0  0  0  0  0  0  0  0
   24.8808   55.8428   85.8526 C   0  0  1  0  0  0  0  0  0  0  0  0
   17.4153   55.0178   88.3639 N   0  0  0  0  0  0  0  0  0  0  0  0
   18.5772   53.9490   86.7032 N   0  0  0  0  0  0  0  0  0  0  0  0
   21.9094   54.9445   88.9792 N   0  0  0  0  0  0  0  0  0  0  0  0
   19.5650   55.8617   87.7520 N   0  0  0  0  0  0  0  0  0  0  0  0
   22.2297   53.7071   90.9601 N   0  0  0  0  0  0  0  0  0  0  0  0
   25.7888   55.9713   86.8489 O   0  0  0  0  0  0  0  0  0  0  0  0
   21.8781   56.3101   91.3274 S   0  0  0  0  0  0  0  0  0  0  0  0
   22.9804   53.5934   91.6603 H   0  0  0  0  0  0  0  0  0  0  0  0
 14  1  1  0
 15  1  1  0
 11  2  1  6
 13  2  1  6
  6  3  2  0
  7  3  1  0
 24  4  1  0
  4 26  2  0
  4 28  1  0
  5 22  1  0
  5 23  2  0
 25  5  1  0
 23  6  1  0
 22  7  2  0
 12  8  1  1
  8 25  1  0
 16  9  1  6
  9 25  1  0
 12 10  1  0
 10 28  1  0
 13 11  1  0
 11 16  1  0
 16 12  1  0
 21 13  1  0
 15 14  1  0
 14 17  1  1
 15 20  1  6
 16 24  1  0
 21 18  1  6
 21 19  1  0
 27 20  1  0
 21 27  1  0
 26 29  1  0
M  END
$$$$
