
     RDKit          3D

 20 21  0  0  0  0  0  0  0  0999 V2000
  -23.8464   20.7076   18.3205 O   0  0  0  0  0  0  0  0  0  0  0  0
  -23.8561   19.6923   19.0696 C   0  0  0  0  0  0  0  0  0  0  0  0
  -24.5703   19.7339   20.2572 O   0  0  0  0  0  0  0  0  0  0  0  0
  -23.1297   18.4902   18.6984 C   0  0  0  0  0  0  0  0  0  0  0  0
  -22.4796   18.4021   17.4839 C   0  0  0  0  0  0  0  0  0  0  0  0
  -23.0856   17.4235   19.5635 C   0  0  0  0  0  0  0  0  0  0  0  0
  -22.4154   16.2842   19.2480 C   0  0  0  0  0  0  0  0  0  0  0  0
  -21.7687   16.2282   18.0117 C   0  0  0  0  0  0  0  0  0  0  0  0
  -21.7851   17.2672   17.1164 C   0  0  0  0  0  0  0  0  0  0  0  0
  -21.1053   17.2051   15.8196 C   0  0  0  0  0  0  0  0  0  0  0  0
  -21.6503   17.6841   14.6522 C   0  0  0  0  0  0  0  0  0  0  0  0
  -19.8628   16.6490   15.7257 N   0  0  0  0  0  0  0  0  0  0  0  0
  -19.1886   16.5613   14.5741 C   0  0  0  0  0  0  0  0  0  0  0  0
  -17.8673   15.9598   14.5261 C   0  0  0  0  0  0  0  0  0  0  0  0
  -17.1819   15.8961   13.4737 O   0  0  0  0  0  0  0  0  0  0  0  0
  -17.2703   15.4072   15.6668 O   0  0  0  0  0  0  0  0  0  0  0  0
  -19.7531   17.0480   13.4137 C   0  0  0  0  0  0  0  0  0  0  0  0
  -19.0204   16.9365   12.2452 O   0  0  0  0  0  0  0  0  0  0  0  0
  -21.0237   17.6317   13.4323 C   0  0  0  0  0  0  0  0  0  0  0  0
  -21.5422   18.1026   12.2437 O   0  0  0  0  0  0  0  0  0  0  0  0
  1  2  2  0
  2  3  1  0
  2  4  1  0
  4  5  2  0
  4  6  1  0
  5  9  1  0
  6  7  2  0
  7  8  1  0
  8  9  2  0
  9 10  1  0
 10 11  2  0
 10 12  1  0
 11 19  1  0
 12 13  2  0
 13 14  1  0
 13 17  1  0
 14 15  2  0
 14 16  1  0
 17 18  1  0
 17 19  2  0
 19 20  1  0
M  END
$$$$
