
     RDKit          3D

 20 21  0  0  0  0  0  0  0  0999 V2000
  -20.0768   20.6670   21.3615 O   0  0  0  0  0  0  0  0  0  0  0  0
  -20.5842   20.2716   20.2760 C   0  0  0  0  0  0  0  0  0  0  0  0
  -21.4968   21.0833   19.6199 O   0  0  0  0  0  0  0  0  0  0  0  0
  -20.2210   18.9820   19.7143 C   0  0  0  0  0  0  0  0  0  0  0  0
  -20.0753   18.8189   18.3514 C   0  0  0  0  0  0  0  0  0  0  0  0
  -20.0186   17.9068   20.5455 C   0  0  0  0  0  0  0  0  0  0  0  0
  -19.6781   16.6866   20.0535 C   0  0  0  0  0  0  0  0  0  0  0  0
  -19.5389   16.5560   18.6703 C   0  0  0  0  0  0  0  0  0  0  0  0
  -19.7307   17.6004   17.8019 C   0  0  0  0  0  0  0  0  0  0  0  0
  -19.5838   17.4598   16.3506 C   0  0  0  0  0  0  0  0  0  0  0  0
  -18.6012   16.7048   15.7560 C   0  0  0  0  0  0  0  0  0  0  0  0
  -20.4501   18.0978   15.5114 N   0  0  0  0  0  0  0  0  0  0  0  0
  -20.3714   18.0112   14.1792 C   0  0  0  0  0  0  0  0  0  0  0  0
  -21.3186   18.7100   13.3281 C   0  0  0  0  0  0  0  0  0  0  0  0
  -21.3377   18.5835   12.0770 O   0  0  0  0  0  0  0  0  0  0  0  0
  -22.2808   19.5790   13.8593 O   0  0  0  0  0  0  0  0  0  0  0  0
  -19.3779   17.2484   13.6021 C   0  0  0  0  0  0  0  0  0  0  0  0
  -19.3338   17.1869   12.2204 O   0  0  0  0  0  0  0  0  0  0  0  0
  -18.4534   16.5656   14.3987 C   0  0  0  0  0  0  0  0  0  0  0  0
  -17.4796   15.8165   13.7708 O   0  0  0  0  0  0  0  0  0  0  0  0
  1  2  2  0
  2  3  1  0
  2  4  1  0
  4  5  2  0
  4  6  1  0
  5  9  1  0
  6  7  2  0
  7  8  1  0
  8  9  2  0
  9 10  1  0
 10 11  2  0
 10 12  1  0
 11 19  1  0
 12 13  2  0
 13 14  1  0
 13 17  1  0
 14 15  2  0
 14 16  1  0
 17 18  1  0
 17 19  2  0
 19 20  1  0
M  END
$$$$
