
     RDKit          3D

 20 21  0  0  0  0  0  0  0  0999 V2000
  -24.0071   20.4370   20.1082 O   0  0  0  0  0  0  0  0  0  0  0  0
  -23.0032   20.2608   19.3645 C   0  0  0  0  0  0  0  0  0  0  0  0
  -22.1690   21.3332   19.0877 O   0  0  0  0  0  0  0  0  0  0  0  0
  -22.7184   18.9524   18.8012 C   0  0  0  0  0  0  0  0  0  0  0  0
  -22.0460   18.8287   17.6020 C   0  0  0  0  0  0  0  0  0  0  0  0
  -23.1210   17.8194   19.4662 C   0  0  0  0  0  0  0  0  0  0  0  0
  -22.8709   16.5801   18.9677 C   0  0  0  0  0  0  0  0  0  0  0  0
  -22.1888   16.4905   17.7527 C   0  0  0  0  0  0  0  0  0  0  0  0
  -21.7677   17.5929   17.0535 C   0  0  0  0  0  0  0  0  0  0  0  0
  -21.0520   17.4953   15.7784 C   0  0  0  0  0  0  0  0  0  0  0  0
  -21.5597   17.9513   14.5852 C   0  0  0  0  0  0  0  0  0  0  0  0
  -19.8121   16.9275   15.7327 N   0  0  0  0  0  0  0  0  0  0  0  0
  -19.1064   16.8077   14.6032 C   0  0  0  0  0  0  0  0  0  0  0  0
  -17.7894   16.1949   14.6067 C   0  0  0  0  0  0  0  0  0  0  0  0
  -17.0791   16.0927   13.5740 O   0  0  0  0  0  0  0  0  0  0  0  0
  -17.2251   15.6741   15.7786 O   0  0  0  0  0  0  0  0  0  0  0  0
  -19.6336   17.2716   13.4162 C   0  0  0  0  0  0  0  0  0  0  0  0
  -18.8691   17.1273   12.2719 O   0  0  0  0  0  0  0  0  0  0  0  0
  -20.8992   17.8656   13.3852 C   0  0  0  0  0  0  0  0  0  0  0  0
  -21.3799   18.3128   12.1717 O   0  0  0  0  0  0  0  0  0  0  0  0
  1  2  2  0
  2  3  1  0
  2  4  1  0
  4  5  2  0
  4  6  1  0
  5  9  1  0
  6  7  2  0
  7  8  1  0
  8  9  2  0
  9 10  1  0
 10 11  2  0
 10 12  1  0
 11 19  1  0
 12 13  2  0
 13 14  1  0
 13 17  1  0
 14 15  2  0
 14 16  1  0
 17 18  1  0
 17 19  2  0
 19 20  1  0
M  END
$$$$
