
     RDKit          3D

 20 21  0  0  0  0  0  0  0  0999 V2000
  -24.0466   16.7008   20.5510 O   0  0  0  0  0  0  0  0  0  0  0  0
  -23.5486   17.5744   19.7890 C   0  0  0  0  0  0  0  0  0  0  0  0
  -22.6971   18.5308   20.3207 O   0  0  0  0  0  0  0  0  0  0  0  0
  -23.8593   17.5844   18.3699 C   0  0  0  0  0  0  0  0  0  0  0  0
  -22.8568   17.5005   17.4247 C   0  0  0  0  0  0  0  0  0  0  0  0
  -25.1664   17.6785   17.9569 C   0  0  0  0  0  0  0  0  0  0  0  0
  -25.4922   17.6906   16.6375 C   0  0  0  0  0  0  0  0  0  0  0  0
  -24.4541   17.6041   15.7078 C   0  0  0  0  0  0  0  0  0  0  0  0
  -23.1353   17.5087   16.0728 C   0  0  0  0  0  0  0  0  0  0  0  0
  -22.0481   17.4181   15.0943 C   0  0  0  0  0  0  0  0  0  0  0  0
  -22.1517   17.8675   13.7995 C   0  0  0  0  0  0  0  0  0  0  0  0
  -20.8531   16.8640   15.4504 N   0  0  0  0  0  0  0  0  0  0  0  0
  -19.8217   16.7513   14.6067 C   0  0  0  0  0  0  0  0  0  0  0  0
  -18.5689   16.1532   15.0342 C   0  0  0  0  0  0  0  0  0  0  0  0
  -17.5810   16.0125   14.2688 O   0  0  0  0  0  0  0  0  0  0  0  0
  -18.3852   15.6911   16.3441 O   0  0  0  0  0  0  0  0  0  0  0  0
  -19.9459   17.2084   13.3115 C   0  0  0  0  0  0  0  0  0  0  0  0
  -18.8539   17.0718   12.4727 O   0  0  0  0  0  0  0  0  0  0  0  0
  -21.1410   17.7883   12.8744 C   0  0  0  0  0  0  0  0  0  0  0  0
  -21.2125   18.2292   11.5690 O   0  0  0  0  0  0  0  0  0  0  0  0
  1  2  2  0
  2  3  1  0
  2  4  1  0
  4  5  2  0
  4  6  1  0
  5  9  1  0
  6  7  2  0
  7  8  1  0
  8  9  2  0
  9 10  1  0
 10 11  2  0
 10 12  1  0
 11 19  1  0
 12 13  2  0
 13 14  1  0
 13 17  1  0
 14 15  2  0
 14 16  1  0
 17 18  1  0
 17 19  2  0
 19 20  1  0
M  END
$$$$
