
     RDKit          3D

 20 21  0  0  0  0  0  0  0  0999 V2000
  -20.5119   16.8821   21.0404 O   0  0  0  0  0  0  0  0  0  0  0  0
  -21.4210   17.7344   20.8432 C   0  0  0  0  0  0  0  0  0  0  0  0
  -22.4609   17.8384   21.7543 O   0  0  0  0  0  0  0  0  0  0  0  0
  -21.3852   18.6002   19.6772 C   0  0  0  0  0  0  0  0  0  0  0  0
  -21.0189   18.1081   18.4406 C   0  0  0  0  0  0  0  0  0  0  0  0
  -21.7193   19.9273   19.8005 C   0  0  0  0  0  0  0  0  0  0  0  0
  -21.6965   20.7649   18.7306 C   0  0  0  0  0  0  0  0  0  0  0  0
  -21.3214   20.2349   17.4944 C   0  0  0  0  0  0  0  0  0  0  0  0
  -20.9798   18.9175   17.3231 C   0  0  0  0  0  0  0  0  0  0  0  0
  -20.5866   18.3645   16.0242 C   0  0  0  0  0  0  0  0  0  0  0  0
  -21.2582   18.6237   14.8533 C   0  0  0  0  0  0  0  0  0  0  0  0
  -19.5005   17.5438   15.9318 N   0  0  0  0  0  0  0  0  0  0  0  0
  -19.0889   17.0066   14.7783 C   0  0  0  0  0  0  0  0  0  0  0  0
  -17.9254   16.1381   14.7320 C   0  0  0  0  0  0  0  0  0  0  0  0
  -17.4678   15.6632   13.6613 O   0  0  0  0  0  0  0  0  0  0  0  0
  -17.2348   15.7734   15.8952 O   0  0  0  0  0  0  0  0  0  0  0  0
  -19.7766   17.2791   13.6144 C   0  0  0  0  0  0  0  0  0  0  0  0
  -19.3158   16.7022   12.4440 O   0  0  0  0  0  0  0  0  0  0  0  0
  -20.8998   18.1119   13.6313 C   0  0  0  0  0  0  0  0  0  0  0  0
  -21.5514   18.3520   12.4391 O   0  0  0  0  0  0  0  0  0  0  0  0
  1  2  2  0
  2  3  1  0
  2  4  1  0
  4  5  2  0
  4  6  1  0
  5  9  1  0
  6  7  2  0
  7  8  1  0
  8  9  2  0
  9 10  1  0
 10 11  2  0
 10 12  1  0
 11 19  1  0
 12 13  2  0
 13 14  1  0
 13 17  1  0
 14 15  2  0
 14 16  1  0
 17 18  1  0
 17 19  2  0
 19 20  1  0
M  END
$$$$
