
     RDKit          3D

 20 21  0  0  0  0  0  0  0  0999 V2000
  -22.7095   18.6061   19.9187 O   0  0  0  0  0  0  0  0  0  0  0  0
  -23.7393   17.9673   19.5673 C   0  0  0  0  0  0  0  0  0  0  0  0
  -24.6715   17.6045   20.5274 O   0  0  0  0  0  0  0  0  0  0  0  0
  -23.9524   17.6125   18.1748 C   0  0  0  0  0  0  0  0  0  0  0  0
  -22.8953   17.5532   17.2893 C   0  0  0  0  0  0  0  0  0  0  0  0
  -25.2208   17.3314   17.7273 C   0  0  0  0  0  0  0  0  0  0  0  0
  -25.4556   16.9962   16.4314 C   0  0  0  0  0  0  0  0  0  0  0  0
  -24.3641   16.9454   15.5621 C   0  0  0  0  0  0  0  0  0  0  0  0
  -23.0810   17.2178   15.9632 C   0  0  0  0  0  0  0  0  0  0  0  0
  -21.9376   17.1635   15.0481 C   0  0  0  0  0  0  0  0  0  0  0  0
  -21.9688   17.6510   13.7634 C   0  0  0  0  0  0  0  0  0  0  0  0
  -20.7611   16.6065   15.4573 N   0  0  0  0  0  0  0  0  0  0  0  0
  -19.6811   16.5258   14.6727 C   0  0  0  0  0  0  0  0  0  0  0  0
  -18.4508   15.9230   15.1553 C   0  0  0  0  0  0  0  0  0  0  0  0
  -17.4104   15.8355   14.4543 O   0  0  0  0  0  0  0  0  0  0  0  0
  -18.3498   15.3959   16.4495 O   0  0  0  0  0  0  0  0  0  0  0  0
  -19.7330   17.0209   13.3866 C   0  0  0  0  0  0  0  0  0  0  0  0
  -18.5926   16.9164   12.6098 O   0  0  0  0  0  0  0  0  0  0  0  0
  -20.9050   17.6060   12.8974 C   0  0  0  0  0  0  0  0  0  0  0  0
  -20.9034   18.0855   11.6037 O   0  0  0  0  0  0  0  0  0  0  0  0
  1  2  2  0
  2  3  1  0
  2  4  1  0
  4  5  2  0
  4  6  1  0
  5  9  1  0
  6  7  2  0
  7  8  1  0
  8  9  2  0
  9 10  1  0
 10 11  2  0
 10 12  1  0
 11 19  1  0
 12 13  2  0
 13 14  1  0
 13 17  1  0
 14 15  2  0
 14 16  1  0
 17 18  1  0
 17 19  2  0
 19 20  1  0
M  END
$$$$
