
     RDKit          3D

 20 21  0  0  0  0  0  0  0  0999 V2000
  -23.2998   18.9820   19.6998 O   0  0  0  0  0  0  0  0  0  0  0  0
  -22.4176   18.4402   20.4210 C   0  0  0  0  0  0  0  0  0  0  0  0
  -22.7037   18.1661   21.7496 O   0  0  0  0  0  0  0  0  0  0  0  0
  -21.1150   18.1048   19.8724 C   0  0  0  0  0  0  0  0  0  0  0  0
  -20.9468   17.9077   18.5166 C   0  0  0  0  0  0  0  0  0  0  0  0
  -20.0321   17.9805   20.7091 C   0  0  0  0  0  0  0  0  0  0  0  0
  -18.7997   17.6678   20.2294 C   0  0  0  0  0  0  0  0  0  0  0  0
  -18.6644   17.4751   18.8531 C   0  0  0  0  0  0  0  0  0  0  0  0
  -19.7159   17.5885   17.9796 C   0  0  0  0  0  0  0  0  0  0  0  0
  -19.5704   17.3856   16.5356 C   0  0  0  0  0  0  0  0  0  0  0  0
  -18.6566   16.5236   15.9776 C   0  0  0  0  0  0  0  0  0  0  0  0
  -20.3672   18.0714   15.6657 N   0  0  0  0  0  0  0  0  0  0  0  0
  -20.2856   17.9325   14.3381 C   0  0  0  0  0  0  0  0  0  0  0  0
  -21.1572   18.6859   13.4534 C   0  0  0  0  0  0  0  0  0  0  0  0
  -21.1682   18.5281   12.2058 O   0  0  0  0  0  0  0  0  0  0  0  0
  -22.0500   19.6469   13.9458 O   0  0  0  0  0  0  0  0  0  0  0  0
  -19.3619   17.0624   13.7981 C   0  0  0  0  0  0  0  0  0  0  0  0
  -19.3121   16.9500   12.4198 O   0  0  0  0  0  0  0  0  0  0  0  0
  -18.5110   16.3251   14.6275 C   0  0  0  0  0  0  0  0  0  0  0  0
  -17.6052   15.4688   14.0360 O   0  0  0  0  0  0  0  0  0  0  0  0
  1  2  2  0
  2  3  1  0
  2  4  1  0
  4  5  2  0
  4  6  1  0
  5  9  1  0
  6  7  2  0
  7  8  1  0
  8  9  2  0
  9 10  1  0
 10 11  2  0
 10 12  1  0
 11 19  1  0
 12 13  2  0
 13 14  1  0
 13 17  1  0
 14 15  2  0
 14 16  1  0
 17 18  1  0
 17 19  2  0
 19 20  1  0
M  END
$$$$
