
     RDKit          3D

 20 21  0  0  0  0  0  0  0  0999 V2000
  -22.6619   19.0767   19.9942 O   0  0  0  0  0  0  0  0  0  0  0  0
  -21.7184   18.5342   20.6325 C   0  0  0  0  0  0  0  0  0  0  0  0
  -21.8658   18.3022   21.9915 O   0  0  0  0  0  0  0  0  0  0  0  0
  -20.4891   18.1544   19.9581 C   0  0  0  0  0  0  0  0  0  0  0  0
  -20.4626   17.9564   18.5923 C   0  0  0  0  0  0  0  0  0  0  0  0
  -19.3342   17.9886   20.6839 C   0  0  0  0  0  0  0  0  0  0  0  0
  -18.1670   17.6339   20.0849 C   0  0  0  0  0  0  0  0  0  0  0  0
  -18.1751   17.4415   18.7020 C   0  0  0  0  0  0  0  0  0  0  0  0
  -19.3029   17.5954   17.9365 C   0  0  0  0  0  0  0  0  0  0  0  0
  -19.3078   17.3927   16.4851 C   0  0  0  0  0  0  0  0  0  0  0  0
  -18.4605   16.5266   15.8360 C   0  0  0  0  0  0  0  0  0  0  0  0
  -20.1865   18.0828   15.7020 N   0  0  0  0  0  0  0  0  0  0  0  0
  -20.2428   17.9443   14.3731 C   0  0  0  0  0  0  0  0  0  0  0  0
  -21.1972   18.7024   13.5829 C   0  0  0  0  0  0  0  0  0  0  0  0
  -21.3120   18.5715   12.3374 O   0  0  0  0  0  0  0  0  0  0  0  0
  -22.0585   19.6379   14.1710 O   0  0  0  0  0  0  0  0  0  0  0  0
  -19.3839   17.0700   13.7407 C   0  0  0  0  0  0  0  0  0  0  0  0
  -19.4767   16.9582   12.3646 O   0  0  0  0  0  0  0  0  0  0  0  0
  -18.4556   16.3282   14.4780 C   0  0  0  0  0  0  0  0  0  0  0  0
  -17.6197   15.4679   13.7964 O   0  0  0  0  0  0  0  0  0  0  0  0
  1  2  2  0
  2  3  1  0
  2  4  1  0
  4  5  2  0
  4  6  1  0
  5  9  1  0
  6  7  2  0
  7  8  1  0
  8  9  2  0
  9 10  1  0
 10 11  2  0
 10 12  1  0
 11 19  1  0
 12 13  2  0
 13 14  1  0
 13 17  1  0
 14 15  2  0
 14 16  1  0
 17 18  1  0
 17 19  2  0
 19 20  1  0
M  END
$$$$
