
     RDKit          3D

 20 21  0  0  0  0  0  0  0  0999 V2000
  -21.1436   18.3007   21.4631 O   0  0  0  0  0  0  0  0  0  0  0  0
  -21.4982   17.5966   20.4779 C   0  0  0  0  0  0  0  0  0  0  0  0
  -21.5457   16.2176   20.6133 O   0  0  0  0  0  0  0  0  0  0  0  0
  -21.8540   18.2168   19.2134 C   0  0  0  0  0  0  0  0  0  0  0  0
  -21.2288   17.8435   18.0407 C   0  0  0  0  0  0  0  0  0  0  0  0
  -22.8249   19.1885   19.1777 C   0  0  0  0  0  0  0  0  0  0  0  0
  -23.1821   19.7892   18.0122 C   0  0  0  0  0  0  0  0  0  0  0  0
  -22.5300   19.3881   16.8444 C   0  0  0  0  0  0  0  0  0  0  0  0
  -21.5553   18.4230   16.8312 C   0  0  0  0  0  0  0  0  0  0  0  0
  -20.8729   18.0044   15.6037 C   0  0  0  0  0  0  0  0  0  0  0  0
  -21.3441   18.2770   14.3416 C   0  0  0  0  0  0  0  0  0  0  0  0
  -19.7040   17.3044   15.6768 N   0  0  0  0  0  0  0  0  0  0  0  0
  -19.0319   16.8932   14.5963 C   0  0  0  0  0  0  0  0  0  0  0  0
  -17.7905   16.1502   14.7268 C   0  0  0  0  0  0  0  0  0  0  0  0
  -17.1395   15.7257   13.7381 O   0  0  0  0  0  0  0  0  0  0  0  0
  -17.2377   15.8587   15.9807 O   0  0  0  0  0  0  0  0  0  0  0  0
  -19.5216   17.1769   13.3386 C   0  0  0  0  0  0  0  0  0  0  0  0
  -18.7940   16.7324   12.2488 O   0  0  0  0  0  0  0  0  0  0  0  0
  -20.7143   17.8906   13.1851 C   0  0  0  0  0  0  0  0  0  0  0  0
  -21.1600   18.1477   11.9049 O   0  0  0  0  0  0  0  0  0  0  0  0
  1  2  2  0
  2  3  1  0
  2  4  1  0
  4  5  2  0
  4  6  1  0
  5  9  1  0
  6  7  2  0
  7  8  1  0
  8  9  2  0
  9 10  1  0
 10 11  2  0
 10 12  1  0
 11 19  1  0
 12 13  2  0
 13 14  1  0
 13 17  1  0
 14 15  2  0
 14 16  1  0
 17 18  1  0
 17 19  2  0
 19 20  1  0
M  END
$$$$
