
     RDKit          3D

 20 21  0  0  0  0  0  0  0  0999 V2000
  -21.8496   18.4696   21.8530 O   0  0  0  0  0  0  0  0  0  0  0  0
  -21.2503   18.0424   20.8282 C   0  0  0  0  0  0  0  0  0  0  0  0
  -20.4997   16.8801   20.9179 O   0  0  0  0  0  0  0  0  0  0  0  0
  -21.3412   18.7548   19.5654 C   0  0  0  0  0  0  0  0  0  0  0  0
  -20.8925   18.1794   18.3937 C   0  0  0  0  0  0  0  0  0  0  0  0
  -21.8799   20.0184   19.5305 C   0  0  0  0  0  0  0  0  0  0  0  0
  -21.9799   20.7128   18.3666 C   0  0  0  0  0  0  0  0  0  0  0  0
  -21.5166   20.1016   17.1998 C   0  0  0  0  0  0  0  0  0  0  0  0
  -20.9717   18.8429   17.1859 C   0  0  0  0  0  0  0  0  0  0  0  0
  -20.4863   18.2044   15.9594 C   0  0  0  0  0  0  0  0  0  0  0  0
  -21.0917   18.3534   14.7344 C   0  0  0  0  0  0  0  0  0  0  0  0
  -19.3763   17.4117   15.9951 N   0  0  0  0  0  0  0  0  0  0  0  0
  -18.8819   16.8007   14.9132 C   0  0  0  0  0  0  0  0  0  0  0  0
  -17.6963   15.9662   15.0032 C   0  0  0  0  0  0  0  0  0  0  0  0
  -17.1949   15.3797   14.0101 O   0  0  0  0  0  0  0  0  0  0  0  0
  -17.0321   15.7629   16.2200 O   0  0  0  0  0  0  0  0  0  0  0  0
  -19.5040   16.9630   13.6932 C   0  0  0  0  0  0  0  0  0  0  0  0
  -18.9585   16.3125   12.6004 O   0  0  0  0  0  0  0  0  0  0  0  0
  -20.6468   17.7609   13.5792 C   0  0  0  0  0  0  0  0  0  0  0  0
  -21.2304   17.8899   12.3356 O   0  0  0  0  0  0  0  0  0  0  0  0
  1  2  2  0
  2  3  1  0
  2  4  1  0
  4  5  2  0
  4  6  1  0
  5  9  1  0
  6  7  2  0
  7  8  1  0
  8  9  2  0
  9 10  1  0
 10 11  2  0
 10 12  1  0
 11 19  1  0
 12 13  2  0
 13 14  1  0
 13 17  1  0
 14 15  2  0
 14 16  1  0
 17 18  1  0
 17 19  2  0
 19 20  1  0
M  END
$$$$
