
     RDKit          3D

 20 21  0  0  0  0  0  0  0  0999 V2000
  -22.6768   17.4965   20.4464 O   0  0  0  0  0  0  0  0  0  0  0  0
  -21.4754   17.7701   20.7180 C   0  0  0  0  0  0  0  0  0  0  0  0
  -21.1945   18.5709   21.8144 O   0  0  0  0  0  0  0  0  0  0  0  0
  -20.3938   17.2556   19.8960 C   0  0  0  0  0  0  0  0  0  0  0  0
  -20.4517   17.3338   18.5191 C   0  0  0  0  0  0  0  0  0  0  0  0
  -19.2959   16.6824   20.4911 C   0  0  0  0  0  0  0  0  0  0  0  0
  -18.2665   16.1911   19.7522 C   0  0  0  0  0  0  0  0  0  0  0  0
  -18.3570   16.2862   18.3621 C   0  0  0  0  0  0  0  0  0  0  0  0
  -19.4325   16.8497   17.7239 C   0  0  0  0  0  0  0  0  0  0  0  0
  -19.5243   16.9478   16.2646 C   0  0  0  0  0  0  0  0  0  0  0  0
  -18.8819   16.0905   15.4035 C   0  0  0  0  0  0  0  0  0  0  0  0
  -20.2787   17.9301   15.6922 N   0  0  0  0  0  0  0  0  0  0  0  0
  -20.4044   18.0748   14.3687 C   0  0  0  0  0  0  0  0  0  0  0  0
  -21.2201   19.1378   13.8077 C   0  0  0  0  0  0  0  0  0  0  0  0
  -21.4368   19.2562   12.5746 O   0  0  0  0  0  0  0  0  0  0  0  0
  -21.8220   20.1079   14.6199 O   0  0  0  0  0  0  0  0  0  0  0  0
  -19.7516   17.2040   13.5216 C   0  0  0  0  0  0  0  0  0  0  0  0
  -19.9096   17.3906   12.1596 O   0  0  0  0  0  0  0  0  0  0  0  0
  -18.9602   16.1722   14.0358 C   0  0  0  0  0  0  0  0  0  0  0  0
  -18.3289   15.3289   13.1447 O   0  0  0  0  0  0  0  0  0  0  0  0
  1  2  2  0
  2  3  1  0
  2  4  1  0
  4  5  2  0
  4  6  1  0
  5  9  1  0
  6  7  2  0
  7  8  1  0
  8  9  2  0
  9 10  1  0
 10 11  2  0
 10 12  1  0
 11 19  1  0
 12 13  2  0
 13 14  1  0
 13 17  1  0
 14 15  2  0
 14 16  1  0
 17 18  1  0
 17 19  2  0
 19 20  1  0
M  END
$$$$
