
     RDKit          3D

 20 21  0  0  0  0  0  0  0  0999 V2000
  -26.8028   18.8653   18.6590 O   0  0  0  0  0  0  0  0  0  0  0  0
  -25.9228   18.8978   17.7554 C   0  0  0  0  0  0  0  0  0  0  0  0
  -25.8811   19.9798   16.8895 O   0  0  0  0  0  0  0  0  0  0  0  0
  -24.9612   17.8177   17.6179 C   0  0  0  0  0  0  0  0  0  0  0  0
  -24.0002   17.8467   16.6274 C   0  0  0  0  0  0  0  0  0  0  0  0
  -25.0036   16.7503   18.4823 C   0  0  0  0  0  0  0  0  0  0  0  0
  -24.1194   15.7232   18.3819 C   0  0  0  0  0  0  0  0  0  0  0  0
  -23.1604   15.7840   17.3689 C   0  0  0  0  0  0  0  0  0  0  0  0
  -23.0795   16.8284   16.4834 C   0  0  0  0  0  0  0  0  0  0  0  0
  -22.0716   16.8890   15.4213 C   0  0  0  0  0  0  0  0  0  0  0  0
  -22.3260   17.3694   14.1589 C   0  0  0  0  0  0  0  0  0  0  0  0
  -20.8005   16.4542   15.6602 N   0  0  0  0  0  0  0  0  0  0  0  0
  -19.8347   16.4822   14.7356 C   0  0  0  0  0  0  0  0  0  0  0  0
  -18.4959   16.0074   15.0394 C   0  0  0  0  0  0  0  0  0  0  0  0
  -17.5563   16.0275   14.2038 O   0  0  0  0  0  0  0  0  0  0  0  0
  -18.1683   15.4916   16.3002 O   0  0  0  0  0  0  0  0  0  0  0  0
  -20.1104   16.9681   13.4747 C   0  0  0  0  0  0  0  0  0  0  0  0
  -19.0816   16.9785   12.5494 O   0  0  0  0  0  0  0  0  0  0  0  0
  -21.3909   17.4312   13.1562 C   0  0  0  0  0  0  0  0  0  0  0  0
  -21.6134   17.9069   11.8804 O   0  0  0  0  0  0  0  0  0  0  0  0
  1  2  2  0
  2  3  1  0
  2  4  1  0
  4  5  2  0
  4  6  1  0
  5  9  1  0
  6  7  2  0
  7  8  1  0
  8  9  2  0
  9 10  1  0
 10 11  2  0
 10 12  1  0
 11 19  1  0
 12 13  2  0
 13 14  1  0
 13 17  1  0
 14 15  2  0
 14 16  1  0
 17 18  1  0
 17 19  2  0
 19 20  1  0
M  END
$$$$
