
     RDKit          3D

 20 21  0  0  0  0  0  0  0  0999 V2000
  -21.6537   17.8060   21.8578 O   0  0  0  0  0  0  0  0  0  0  0  0
  -21.0098   18.0492   20.8004 C   0  0  0  0  0  0  0  0  0  0  0  0
  -19.6299   18.1706   20.8606 O   0  0  0  0  0  0  0  0  0  0  0  0
  -21.6995   18.2016   19.5310 C   0  0  0  0  0  0  0  0  0  0  0  0
  -21.0583   17.9289   18.3394 C   0  0  0  0  0  0  0  0  0  0  0  0
  -23.0073   18.6224   19.5096 C   0  0  0  0  0  0  0  0  0  0  0  0
  -23.6822   18.7755   18.3400 C   0  0  0  0  0  0  0  0  0  0  0  0
  -23.0041   18.4911   17.1530 C   0  0  0  0  0  0  0  0  0  0  0  0
  -21.6994   18.0686   17.1249 C   0  0  0  0  0  0  0  0  0  0  0  0
  -20.9908   17.7710   15.8772 C   0  0  0  0  0  0  0  0  0  0  0  0
  -21.4534   18.1352   14.6352 C   0  0  0  0  0  0  0  0  0  0  0  0
  -19.8044   17.0977   15.9093 N   0  0  0  0  0  0  0  0  0  0  0  0
  -19.1081   16.7950   14.8085 C   0  0  0  0  0  0  0  0  0  0  0  0
  -17.8489   16.0760   14.8954 C   0  0  0  0  0  0  0  0  0  0  0  0
  -17.1430   15.8076   13.8899 O   0  0  0  0  0  0  0  0  0  0  0  0
  -17.3397   15.6329   16.1231 O   0  0  0  0  0  0  0  0  0  0  0  0
  -19.5895   17.1694   13.5716 C   0  0  0  0  0  0  0  0  0  0  0  0
  -18.8367   16.8357   12.4595 O   0  0  0  0  0  0  0  0  0  0  0  0
  -20.7990   17.8624   13.4601 C   0  0  0  0  0  0  0  0  0  0  0  0
  -21.2354   18.2133   12.1991 O   0  0  0  0  0  0  0  0  0  0  0  0
  1  2  2  0
  2  3  1  0
  2  4  1  0
  4  5  2  0
  4  6  1  0
  5  9  1  0
  6  7  2  0
  7  8  1  0
  8  9  2  0
  9 10  1  0
 10 11  2  0
 10 12  1  0
 11 19  1  0
 12 13  2  0
 13 14  1  0
 13 17  1  0
 14 15  2  0
 14 16  1  0
 17 18  1  0
 17 19  2  0
 19 20  1  0
M  END
$$$$
