
     RDKit          3D

 20 21  0  0  0  0  0  0  0  0999 V2000
  -20.4979   20.5090   20.9308 O   0  0  0  0  0  0  0  0  0  0  0  0
  -21.1331   19.7115   20.1875 C   0  0  0  0  0  0  0  0  0  0  0  0
  -22.4531   19.9898   19.8675 O   0  0  0  0  0  0  0  0  0  0  0  0
  -20.4952   18.5137   19.6692 C   0  0  0  0  0  0  0  0  0  0  0  0
  -20.3013   18.3447   18.3131 C   0  0  0  0  0  0  0  0  0  0  0  0
  -20.0771   17.5324   20.5355 C   0  0  0  0  0  0  0  0  0  0  0  0
  -19.4770   16.3995   20.0846 C   0  0  0  0  0  0  0  0  0  0  0  0
  -19.2962   16.2603   18.7071 C   0  0  0  0  0  0  0  0  0  0  0  0
  -19.6969   17.2126   17.8047 C   0  0  0  0  0  0  0  0  0  0  0  0
  -19.5056   17.0633   16.3595 C   0  0  0  0  0  0  0  0  0  0  0  0
  -18.5017   16.3096   15.7997 C   0  0  0  0  0  0  0  0  0  0  0  0
  -20.3495   17.6911   15.4903 N   0  0  0  0  0  0  0  0  0  0  0  0
  -20.2303   17.5962   14.1617 C   0  0  0  0  0  0  0  0  0  0  0  0
  -21.1550   18.2844   13.2778 C   0  0  0  0  0  0  0  0  0  0  0  0
  -21.1175   18.1718   12.0258 O   0  0  0  0  0  0  0  0  0  0  0  0
  -22.1578   19.1265   13.7760 O   0  0  0  0  0  0  0  0  0  0  0  0
  -19.2160   16.8348   13.6199 C   0  0  0  0  0  0  0  0  0  0  0  0
  -19.1300   16.7645   12.2406 O   0  0  0  0  0  0  0  0  0  0  0  0
  -18.3125   16.1622   14.4484 C   0  0  0  0  0  0  0  0  0  0  0  0
  -17.3164   15.4142   13.8551 O   0  0  0  0  0  0  0  0  0  0  0  0
  1  2  2  0
  2  3  1  0
  2  4  1  0
  4  5  2  0
  4  6  1  0
  5  9  1  0
  6  7  2  0
  7  8  1  0
  8  9  2  0
  9 10  1  0
 10 11  2  0
 10 12  1  0
 11 19  1  0
 12 13  2  0
 13 14  1  0
 13 17  1  0
 14 15  2  0
 14 16  1  0
 17 18  1  0
 17 19  2  0
 19 20  1  0
M  END
$$$$
