
     RDKit          3D

 20 21  0  0  0  0  0  0  0  0999 V2000
  -22.4409   16.8479   20.7763 O   0  0  0  0  0  0  0  0  0  0  0  0
  -22.9869   17.9330   20.4352 C   0  0  0  0  0  0  0  0  0  0  0  0
  -24.1954   18.2934   21.0112 O   0  0  0  0  0  0  0  0  0  0  0  0
  -22.3622   18.7998   19.4509 C   0  0  0  0  0  0  0  0  0  0  0  0
  -21.8950   18.2925   18.2552 C   0  0  0  0  0  0  0  0  0  0  0  0
  -22.2318   20.1434   19.7078 C   0  0  0  0  0  0  0  0  0  0  0  0
  -21.6526   20.9824   18.8093 C   0  0  0  0  0  0  0  0  0  0  0  0
  -21.1908   20.4367   17.6099 C   0  0  0  0  0  0  0  0  0  0  0  0
  -21.2991   19.1026   17.3097 C   0  0  0  0  0  0  0  0  0  0  0  0
  -20.8133   18.5331   16.0498 C   0  0  0  0  0  0  0  0  0  0  0  0
  -21.3977   18.7779   14.8300 C   0  0  0  0  0  0  0  0  0  0  0  0
  -19.7245   17.7107   16.0468 N   0  0  0  0  0  0  0  0  0  0  0  0
  -19.2309   17.1589   14.9332 C   0  0  0  0  0  0  0  0  0  0  0  0
  -18.0684   16.2893   14.9824 C   0  0  0  0  0  0  0  0  0  0  0  0
  -17.5650   15.7608   13.9584 O   0  0  0  0  0  0  0  0  0  0  0  0
  -17.4305   15.9841   16.1920 O   0  0  0  0  0  0  0  0  0  0  0  0
  -19.8318   17.4171   13.7190 C   0  0  0  0  0  0  0  0  0  0  0  0
  -19.2881   16.8253   12.5926 O   0  0  0  0  0  0  0  0  0  0  0  0
  -20.9521   18.2506   13.6439 C   0  0  0  0  0  0  0  0  0  0  0  0
  -21.5150   18.4761   12.4045 O   0  0  0  0  0  0  0  0  0  0  0  0
  1  2  2  0
  2  3  1  0
  2  4  1  0
  4  5  2  0
  4  6  1  0
  5  9  1  0
  6  7  2  0
  7  8  1  0
  8  9  2  0
  9 10  1  0
 10 11  2  0
 10 12  1  0
 11 19  1  0
 12 13  2  0
 13 14  1  0
 13 17  1  0
 14 15  2  0
 14 16  1  0
 17 18  1  0
 17 19  2  0
 19 20  1  0
M  END
$$$$
