
     RDKit          3D

 20 21  0  0  0  0  0  0  0  0999 V2000
  -25.2503   17.5408   19.1872 O   0  0  0  0  0  0  0  0  0  0  0  0
  -24.7749   18.7060   19.0971 C   0  0  0  0  0  0  0  0  0  0  0  0
  -25.6177   19.7954   19.2566 O   0  0  0  0  0  0  0  0  0  0  0  0
  -23.3619   18.9116   18.8296 C   0  0  0  0  0  0  0  0  0  0  0  0
  -22.8053   18.5254   17.6269 C   0  0  0  0  0  0  0  0  0  0  0  0
  -22.5638   19.4975   19.7824 C   0  0  0  0  0  0  0  0  0  0  0  0
  -21.2384   19.7046   19.5650 C   0  0  0  0  0  0  0  0  0  0  0  0
  -20.7074   19.3022   18.3378 C   0  0  0  0  0  0  0  0  0  0  0  0
  -21.4647   18.7137   17.3572 C   0  0  0  0  0  0  0  0  0  0  0  0
  -20.9041   18.2926   16.0703 C   0  0  0  0  0  0  0  0  0  0  0  0
  -21.4558   18.6248   14.8560 C   0  0  0  0  0  0  0  0  0  0  0  0
  -19.7741   17.5286   16.0346 N   0  0  0  0  0  0  0  0  0  0  0  0
  -19.2120   17.1114   14.8952 C   0  0  0  0  0  0  0  0  0  0  0  0
  -18.0079   16.2991   14.9101 C   0  0  0  0  0  0  0  0  0  0  0  0
  -17.4344   15.9057   13.8622 O   0  0  0  0  0  0  0  0  0  0  0  0
  -17.4060   15.9003   16.1108 O   0  0  0  0  0  0  0  0  0  0  0  0
  -19.7811   17.4556   13.6871 C   0  0  0  0  0  0  0  0  0  0  0  0
  -19.1663   17.0024   12.5332 O   0  0  0  0  0  0  0  0  0  0  0  0
  -20.9402   18.2367   13.6448 C   0  0  0  0  0  0  0  0  0  0  0  0
  -21.4688   18.5526   12.4101 O   0  0  0  0  0  0  0  0  0  0  0  0
  1  2  2  0
  2  3  1  0
  2  4  1  0
  4  5  2  0
  4  6  1  0
  5  9  1  0
  6  7  2  0
  7  8  1  0
  8  9  2  0
  9 10  1  0
 10 11  2  0
 10 12  1  0
 11 19  1  0
 12 13  2  0
 13 14  1  0
 13 17  1  0
 14 15  2  0
 14 16  1  0
 17 18  1  0
 17 19  2  0
 19 20  1  0
M  END
$$$$
