
     RDKit          3D

112119  0  0  0  0  0  0  0  0999 V2000
   51.0196   27.5820  105.5987 N   0  0  0  0  0  0  0  0  0  0  0  0
   52.0039   26.9099  105.0421 C   0  0  2  0  0  0  0  0  0  0  0  0
   53.3941   26.9169  105.4980 C   0  0  0  0  0  0  0  0  0  0  0  0
   53.6411   26.7279  106.7137 O   0  0  0  0  0  0  0  0  0  0  0  0
   54.5116   27.1245  104.6572 N   0  0  0  0  0  0  0  0  0  0  0  0
   54.3871   27.3168  103.2119 C   0  0  2  0  0  0  0  0  0  0  0  0
   54.7240   26.0828  102.4918 C   0  0  0  0  0  0  0  0  0  0  0  0
   55.3167   26.2117  101.3615 O   0  0  0  0  0  0  0  0  0  0  0  0
   55.2389   28.4867  102.8743 C   0  0  0  0  0  0  0  0  0  0  0  0
   56.5428   28.2396  102.1991 C   0  0  0  0  0  0  0  0  0  0  0  0
   57.2802   27.1202  102.9495 C   0  0  0  0  0  0  0  0  0  0  0  0
   56.7909   25.8159  102.5952 N   0  0  0  0  0  0  0  0  0  0  0  0
   57.1734   25.1881  101.3828 C   0  0  0  0  0  0  0  0  0  0  0  0
   56.2694   24.7402  100.5520 N   0  0  0  0  0  0  0  0  0  0  0  0
   58.5534   25.0414  101.0615 N   0  0  0  0  0  0  0  0  0  0  0  0
   54.4584   24.7665  102.9202 N   0  0  0  0  0  0  0  0  0  0  0  0
   54.9587   24.0475  104.0529 C   0  0  2  0  0  0  0  0  0  0  0  0
   56.0196   23.0484  103.7147 C   0  0  0  0  0  0  0  0  0  0  0  0
   57.1552   23.2194  104.3166 O   0  0  0  0  0  0  0  0  0  0  0  0
   53.8373   23.4242  104.8729 C   0  0  0  0  0  0  0  0  0  0  0  0
   54.4745   23.2520  106.5856 S   0  0  0  0  0  0  0  0  0  0  0  0
   55.9557   21.9761  102.8516 N   0  0  0  0  0  0  0  0  0  0  0  0
   55.0801   20.8025  102.8625 C   0  0  2  0  0  0  0  0  0  0  0  0
   55.8820   19.5875  102.4803 C   0  0  0  0  0  0  0  0  0  0  0  0
   56.6102   19.7653  101.4363 O   0  0  0  0  0  0  0  0  0  0  0  0
   53.9992   20.9525  101.8055 C   0  0  0  0  0  0  0  0  0  0  0  0
   54.0230   22.2525  101.1064 C   0  0  0  0  0  0  0  0  0  0  0  0
   53.1165   22.5220  100.1167 C   0  0  0  0  0  0  0  0  0  0  0  0
   54.9853   23.2083  101.4417 C   0  0  0  0  0  0  0  0  0  0  0  0
   53.1845   23.7500   99.4720 C   0  0  0  0  0  0  0  0  0  0  0  0
   55.0659   24.4247  100.8149 C   0  0  0  0  0  0  0  0  0  0  0  0
   54.1358   24.6831   99.8100 C   0  0  0  0  0  0  0  0  0  0  0  0
   54.2130   25.9195   99.1680 O   0  0  0  0  0  0  0  0  0  0  0  0
   55.9349   18.3566  103.0851 N   0  0  0  0  0  0  0  0  0  0  0  0
   54.9620   17.6103  103.8201 C   0  0  2  0  0  0  0  0  0  0  0  0
   55.4841   16.4349  104.5404 C   0  0  0  0  0  0  0  0  0  0  0  0
   54.7149   15.3995  104.4903 O   0  0  0  0  0  0  0  0  0  0  0  0
   53.9538   17.1096  102.7846 C   0  0  0  0  0  0  0  0  0  0  0  0
   52.9443   18.1874  102.4988 C   0  0  0  0  0  0  0  0  0  0  0  0
   52.3012   18.6977  103.7732 C   0  0  0  0  0  0  0  0  0  0  0  0
   52.4109   17.6765  104.8868 C   0  0  0  0  0  0  0  0  0  0  0  0
   51.9017   16.4021  104.4049 N   0  0  0  0  0  4  0  0  0  0  0  0
   56.6772   16.2800  105.2609 N   0  0  0  0  0  0  0  0  0  0  0  0
   57.1285   16.9064  106.4780 C   0  0  2  0  0  0  0  0  0  0  0  0
   56.0535   17.2688  107.4364 C   0  0  0  0  0  0  0  0  0  0  0  0
   55.6238   18.4733  107.2380 O   0  0  0  0  0  0  0  0  0  0  0  0
   58.1240   18.0170  106.2680 C   0  0  0  0  0  0  0  0  0  0  0  0
   57.5828   19.2472  106.0043 O   0  0  0  0  0  0  0  0  0  0  0  0
   55.5035   16.4884  108.4544 N   0  0  0  0  0  0  0  0  0  0  0  0
   56.0468   15.8257  109.5759 C   0  0  2  0  0  0  0  0  0  0  0  0
   56.8406   16.8330  110.3733 C   0  0  0  0  0  0  0  0  0  0  0  0
   57.6688   17.4949  109.6865 O   0  0  0  0  0  0  0  0  0  0  0  0
   56.9403   14.6579  109.3806 C   0  0  2  0  0  0  0  0  0  0  0  0
   56.3143   13.4606  108.7281 C   0  0  0  0  0  0  0  0  0  0  0  0
   57.3780   14.1142  110.7736 C   0  0  0  0  0  0  0  0  0  0  0  0
   55.2476   12.7648  109.4836 C   0  0  0  0  0  0  0  0  0  0  0  0
   56.7380   17.0806  111.7394 N   0  0  0  0  0  0  0  0  0  0  0  0
   55.6004   16.7770  112.5452 C   0  0  2  0  0  0  0  0  0  0  0  0
   54.3860   17.5744  112.3179 C   0  0  0  0  0  0  0  0  0  0  0  0
   54.1292   17.7506  111.0573 O   0  0  0  0  0  0  0  0  0  0  0  0
   56.0541   16.6581  113.9630 C   0  0  0  0  0  0  0  0  0  0  0  0
   57.4786   17.1611  113.9834 C   0  0  0  0  0  0  0  0  0  0  0  0
   57.7526   17.6729  112.6116 C   0  0  0  0  0  0  0  0  0  0  0  0
   53.4584   18.1713  113.1722 N   0  0  0  0  0  0  0  0  0  0  0  0
   53.5317   19.3723  113.9725 C   0  0  2  0  0  0  0  0  0  0  0  0
   54.6312   20.2676  113.8132 C   0  0  0  0  0  0  0  0  0  0  0  0
   55.8144   19.9170  114.1504 O   0  0  0  0  0  0  0  0  0  0  0  0
   53.1842   18.8995  115.3467 C   0  0  0  0  0  0  0  0  0  0  0  0
   52.2957   17.6883  115.0474 C   0  0  0  0  0  0  0  0  0  0  0  0
   52.0532   17.7972  113.5323 C   0  0  0  0  0  0  0  0  0  0  0  0
   54.4946   21.5907  113.2770 N   0  0  0  0  0  0  0  0  0  0  0  0
   53.4350   22.5164  113.6390 C   0  0  2  0  0  0  0  0  0  0  0  0
   52.2825   22.5070  112.7229 C   0  0  0  0  0  0  0  0  0  0  0  0
   51.1557   22.1941  113.2719 O   0  0  0  0  0  0  0  0  0  0  0  0
   54.0967   23.8765  113.7826 C   0  0  2  0  0  0  0  0  0  0  0  0
   54.9785   24.0103  112.5302 C   0  0  0  0  0  0  0  0  0  0  0  0
   55.0152   23.8647  114.9698 C   0  0  0  0  0  0  0  0  0  0  0  0
   56.3165   23.3646  112.7058 C   0  0  0  0  0  0  0  0  0  0  0  0
   52.2489   22.7899  111.3493 N   0  0  0  0  0  0  0  0  0  0  0  0
   52.4924   24.0435  110.6670 C   0  0  2  0  0  0  0  0  0  0  0  0
   51.2666   24.3320  109.8567 C   0  0  0  0  0  0  0  0  0  0  0  0
   51.0048   23.3911  109.0099 O   0  0  0  0  0  0  0  0  0  0  0  0
   53.6182   23.7907  109.6479 C   0  0  0  0  0  0  0  0  0  0  0  0
   52.9692   23.7369  107.9759 S   0  0  0  0  0  0  0  0  0  0  0  0
   50.4263   25.4609  109.9261 N   0  0  0  0  0  0  0  0  0  0  0  0
   49.5858   25.8851  110.9926 C   0  0  2  0  0  0  0  0  0  0  0  0
   49.5062   27.3135  111.3194 C   0  0  0  0  0  0  0  0  0  0  0  0
   48.2410   27.7027  111.4057 O   0  0  0  0  0  0  0  0  0  0  0  0
   49.7472   24.9923  112.2302 C   0  0  0  0  0  0  0  0  0  0  0  0
   49.0029   23.7156  112.1173 C   0  0  0  0  0  0  0  0  0  0  0  0
   49.2932   22.6563  112.9918 C   0  0  0  0  0  0  0  0  0  0  0  0
   48.0012   23.4698  111.2120 C   0  0  0  0  0  0  0  0  0  0  0  0
   48.6533   21.4583  112.9766 C   0  0  0  0  0  0  0  0  0  0  0  0
   47.3391   22.2701  111.1751 C   0  0  0  0  0  0  0  0  0  0  0  0
   47.6479   21.2321  112.0570 C   0  0  0  0  0  0  0  0  0  0  0  0
   50.4462   28.3098  111.5521 N   0  0  0  0  0  0  0  0  0  0  0  0
   51.4652   28.9182  110.7579 C   0  0  2  0  0  0  0  0  0  0  0  0
   51.9533   28.3204  109.5491 C   0  0  0  0  0  0  0  0  0  0  0  0
   52.8581   27.4043  109.6330 O   0  0  0  0  0  0  0  0  0  0  0  0
   52.6706   28.9660  111.7302 C   0  0  0  0  0  0  0  0  0  0  0  0
   52.0822   28.9531  113.1191 C   0  0  0  0  0  0  0  0  0  0  0  0
   50.6243   29.1146  112.7941 C   0  0  0  0  0  0  0  0  0  0  0  0
   51.5558   28.6231  108.2196 N   0  0  0  0  0  0  0  0  0  0  0  0
   50.1916   28.6008  107.7151 C   0  0  2  0  0  0  0  0  0  0  0  0
   50.0772   27.5627  106.6216 C   0  0  0  0  0  0  0  0  0  0  0  0
   49.1060   26.7776  106.7766 O   0  0  0  0  0  0  0  0  0  0  0  0
   49.8533   29.9316  107.0492 C   0  0  0  0  0  0  0  0  0  0  0  0
   50.7131   30.9794  107.6423 C   0  0  0  0  0  0  0  0  0  0  0  0
   52.0789   30.7447  107.8970 O   0  0  0  0  0  0  0  0  0  0  0  0
   50.3202   32.1246  107.9584 O   0  0  0  0  0  0  0  0  0  0  0  0
   51.6613   28.1877  104.4404 O   0  0  0  0  0  0  0  0  0  0  0  0
   55.6714   23.9490  100.8790 H   0  0  0  0  0  0  0  0  0  0  0  0
  1  2  1  0
  1105  1  0
  1111  1  0
  2  3  1  0
  2111  1  6
  3  4  2  0
  3  5  1  0
  5  6  1  0
  6  7  1  0
  6  9  1  6
  7  8  2  0
  7 16  1  0
  9 10  1  0
 10 11  1  0
 11 12  1  0
 12 13  1  0
 13 14  2  0
 13 15  1  0
 17 16  1  6
 17 18  1  0
 17 20  1  0
 18 19  2  0
 18 22  1  0
 20 21  1  0
 21 84  1  0
 22 23  1  0
 23 24  1  0
 23 26  1  6
 24 25  2  0
 24 34  1  0
 26 27  1  0
 27 28  2  0
 27 29  1  0
 28 30  1  0
 29 31  2  0
 30 32  2  0
 31 32  1  0
 32 33  1  0
 34 35  1  0
 35 36  1  0
 35 38  1  6
 36 37  2  0
 36 43  1  0
 38 39  1  0
 39 40  1  0
 40 41  1  0
 41 42  1  0
 43 44  1  0
 44 45  1  0
 44 47  1  6
 45 46  2  0
 45 49  1  0
 47 48  1  0
 50 49  1  6
 50 51  1  0
 50 53  1  0
 51 52  2  0
 51 57  1  0
 53 54  1  0
 53 55  1  1
 54 56  1  0
 57 58  1  0
 57 63  1  0
 58 59  1  0
 58 61  1  1
 59 60  2  0
 59 64  1  0
 61 62  1  0
 62 63  1  0
 64 65  1  0
 64 70  1  0
 65 66  1  0
 65 68  1  1
 66 67  2  0
 66 71  1  0
 68 69  1  0
 69 70  1  0
 72 71  1  6
 72 73  1  0
 72 75  1  0
 73 74  2  0
 73 79  1  0
 75 76  1  0
 75 77  1  1
 76 78  1  0
 80 79  1  6
 80 81  1  0
 80 83  1  0
 81 82  2  0
 81 85  1  0
 83 84  1  0
 85 86  1  0
 86 87  1  0
 86 89  1  1
 87 88  2  0
 87 96  1  0
 89 90  1  0
 90 91  2  0
 90 92  1  0
 91 93  1  0
 92 94  2  0
 93 95  2  0
 94 95  1  0
 96 97  1  0
 96102  1  0
 97 98  1  0
 97100  1  1
 98 99  2  0
 98103  1  0
100101  1  0
101102  1  0
103104  1  0
104105  1  0
104107  1  6
105106  2  0
107108  1  0
108109  1  0
108110  2  0
 14112  1  0
M  CHG  1  42   1
M  END
$$$$
