
     RDKit          3D

112119  0  0  0  0  0  0  0  0999 V2000
   56.5340   18.7077  112.8566 N   0  0  0  0  0  0  0  0  0  0  0  0
   56.2277   18.2085  111.6788 C   0  0  2  0  0  0  0  0  0  0  0  0
   54.8767   17.8693  111.2314 C   0  0  0  0  0  0  0  0  0  0  0  0
   53.9549   18.7085  111.3755 O   0  0  0  0  0  0  0  0  0  0  0  0
   54.5161   16.6399  110.6336 N   0  0  0  0  0  0  0  0  0  0  0  0
   55.4872   15.5796  110.3614 C   0  0  2  0  0  0  0  0  0  0  0  0
   55.8623   15.5692  108.9423 C   0  0  0  0  0  0  0  0  0  0  0  0
   56.0964   14.4258  108.4103 O   0  0  0  0  0  0  0  0  0  0  0  0
   54.8727   14.3186  110.8518 C   0  0  0  0  0  0  0  0  0  0  0  0
   55.7199   13.0955  110.9088 C   0  0  0  0  0  0  0  0  0  0  0  0
   55.1160   12.1271  111.9370 C   0  0  0  0  0  0  0  0  0  0  0  0
   55.3380   10.7518  111.5827 N   0  0  0  0  0  0  0  0  0  0  0  0
   55.8745    9.8268  112.5138 C   0  0  0  0  0  0  0  0  0  0  0  0
   55.1051    9.2571  113.4035 N   0  0  0  0  0  0  0  0  0  0  0  0
   57.2632    9.5112  112.4843 N   0  0  0  0  0  0  0  0  0  0  0  0
   55.9926   16.6952  108.1044 N   0  0  0  0  0  0  0  0  0  0  0  0
   55.0073   17.6379  107.6678 C   0  0  2  0  0  0  0  0  0  0  0  0
   54.5542   17.4298  106.2573 C   0  0  0  0  0  0  0  0  0  0  0  0
   53.2826   17.2264  106.1072 O   0  0  0  0  0  0  0  0  0  0  0  0
   55.4455   19.0753  107.9136 C   0  0  0  0  0  0  0  0  0  0  0  0
   53.9114   20.0711  108.0688 S   0  0  0  0  0  0  0  0  0  0  0  0
   55.3019   17.4222  105.0999 N   0  0  0  0  0  0  0  0  0  0  0  0
   56.1396   18.4665  104.5066 C   0  0  2  0  0  0  0  0  0  0  0  0
   55.9444   18.4644  103.0143 C   0  0  0  0  0  0  0  0  0  0  0  0
   56.0135   17.2917  102.4930 O   0  0  0  0  0  0  0  0  0  0  0  0
   57.6065   18.1533  104.7474 C   0  0  0  0  0  0  0  0  0  0  0  0
   58.1562   17.1286  103.8380 C   0  0  0  0  0  0  0  0  0  0  0  0
   59.4949   16.8429  103.8467 C   0  0  0  0  0  0  0  0  0  0  0  0
   57.3117   16.4575  102.9501 C   0  0  0  0  0  0  0  0  0  0  0  0
   59.9740   15.8849  102.9630 C   0  0  0  0  0  0  0  0  0  0  0  0
   57.7688   15.5097  102.0715 C   0  0  0  0  0  0  0  0  0  0  0  0
   59.1339   15.2308  102.0934 C   0  0  0  0  0  0  0  0  0  0  0  0
   59.6053   14.2672  101.2011 O   0  0  0  0  0  0  0  0  0  0  0  0
   55.7077   19.5187  102.1680 N   0  0  0  0  0  0  0  0  0  0  0  0
   56.1036   20.8915  102.2177 C   0  0  2  0  0  0  0  0  0  0  0  0
   55.4271   21.7762  101.2519 C   0  0  0  0  0  0  0  0  0  0  0  0
   56.2010   22.6539  100.7070 O   0  0  0  0  0  0  0  0  0  0  0  0
   57.5978   20.9048  101.8912 C   0  0  0  0  0  0  0  0  0  0  0  0
   58.3900   20.6037  103.1338 C   0  0  0  0  0  0  0  0  0  0  0  0
   57.5609   19.8439  104.1503 C   0  0  0  0  0  0  0  0  0  0  0  0
   58.1198   20.0148  105.5479 C   0  0  0  0  0  0  0  0  0  0  0  0
   57.7215   18.8717  106.3543 N   0  0  0  0  0  4  0  0  0  0  0  0
   54.0855   21.8023  100.8447 N   0  0  0  0  0  0  0  0  0  0  0  0
   52.8855   22.1129  101.5803 C   0  0  2  0  0  0  0  0  0  0  0  0
   53.0557   23.1022  102.6748 C   0  0  0  0  0  0  0  0  0  0  0  0
   53.3306   22.5257  103.8003 O   0  0  0  0  0  0  0  0  0  0  0  0
   52.0900   20.9053  102.0016 C   0  0  0  0  0  0  0  0  0  0  0  0
   52.2699   19.7870  101.2316 O   0  0  0  0  0  0  0  0  0  0  0  0
   52.9557   24.4926  102.6067 N   0  0  0  0  0  0  0  0  0  0  0  0
   51.9360   25.3773  102.1946 C   0  0  2  0  0  0  0  0  0  0  0  0
   50.6800   25.0286  102.9571 C   0  0  0  0  0  0  0  0  0  0  0  0
   50.3773   23.8029  102.9165 O   0  0  0  0  0  0  0  0  0  0  0  0
   51.5467   25.4383  100.7646 C   0  0  2  0  0  0  0  0  0  0  0  0
   52.3136   24.5374   99.8418 C   0  0  0  0  0  0  0  0  0  0  0  0
   51.8604   26.8611  100.2127 C   0  0  0  0  0  0  0  0  0  0  0  0
   53.7104   24.2215  100.2187 C   0  0  0  0  0  0  0  0  0  0  0  0
   49.8672   25.9067  103.6687 N   0  0  0  0  0  0  0  0  0  0  0  0
   50.2794   27.1719  104.1835 C   0  0  2  0  0  0  0  0  0  0  0  0
   51.2337   27.1618  105.3022 C   0  0  0  0  0  0  0  0  0  0  0  0
   52.1929   26.3024  105.1365 O   0  0  0  0  0  0  0  0  0  0  0  0
   49.0625   28.0185  104.3639 C   0  0  0  0  0  0  0  0  0  0  0  0
   47.8842   27.0933  104.1687 C   0  0  0  0  0  0  0  0  0  0  0  0
   48.4567   25.7269  104.0139 C   0  0  0  0  0  0  0  0  0  0  0  0
   51.3213   27.8836  106.4929 N   0  0  0  0  0  0  0  0  0  0  0  0
   50.5867   27.7743  107.7324 C   0  0  2  0  0  0  0  0  0  0  0  0
   49.7115   26.6677  107.9458 C   0  0  0  0  0  0  0  0  0  0  0  0
   48.6463   26.5326  107.2504 O   0  0  0  0  0  0  0  0  0  0  0  0
   50.0631   29.1563  107.9527 C   0  0  0  0  0  0  0  0  0  0  0  0
   51.1102   30.0085  107.2293 C   0  0  0  0  0  0  0  0  0  0  0  0
   52.2277   28.9991  106.9155 C   0  0  0  0  0  0  0  0  0  0  0  0
   49.9558   25.6521  108.9285 N   0  0  0  0  0  0  0  0  0  0  0  0
   50.4038   25.9154  110.2853 C   0  0  2  0  0  0  0  0  0  0  0  0
   51.8611   25.8198  110.4718 C   0  0  0  0  0  0  0  0  0  0  0  0
   52.4270   26.9042  110.8876 O   0  0  0  0  0  0  0  0  0  0  0  0
   49.6057   24.9817  111.1794 C   0  0  2  0  0  0  0  0  0  0  0  0
   49.6859   25.6222  112.5749 C   0  0  0  0  0  0  0  0  0  0  0  0
   50.2991   23.6530  111.2632 C   0  0  0  0  0  0  0  0  0  0  0  0
   50.0970   27.0593  112.5176 C   0  0  0  0  0  0  0  0  0  0  0  0
   52.7042   24.7189  110.2597 N   0  0  0  0  0  0  0  0  0  0  0  0
   52.7590   23.4581  110.9694 C   0  0  2  0  0  0  0  0  0  0  0  0
   54.1621   23.3133  111.4721 C   0  0  0  0  0  0  0  0  0  0  0  0
   55.0317   23.3408  110.5161 O   0  0  0  0  0  0  0  0  0  0  0  0
   52.5717   22.3438  109.9237 C   0  0  0  0  0  0  0  0  0  0  0  0
   54.1228   21.5023  109.5988 S   0  0  0  0  0  0  0  0  0  0  0  0
   54.5952   23.1592  112.8040 N   0  0  0  0  0  0  0  0  0  0  0  0
   54.5089   24.0810  113.8841 C   0  0  2  0  0  0  0  0  0  0  0  0
   54.1539   23.5899  115.2206 C   0  0  0  0  0  0  0  0  0  0  0  0
   55.0114   24.0411  116.1265 O   0  0  0  0  0  0  0  0  0  0  0  0
   53.7432   25.3499  113.4858 C   0  0  0  0  0  0  0  0  0  0  0  0
   52.8164   25.1280  112.3508 C   0  0  0  0  0  0  0  0  0  0  0  0
   52.8315   23.9036  111.6637 C   0  0  0  0  0  0  0  0  0  0  0  0
   51.8931   26.0393  111.9031 C   0  0  0  0  0  0  0  0  0  0  0  0
   52.0092   23.6020  110.6256 C   0  0  0  0  0  0  0  0  0  0  0  0
   51.0511   25.7607  110.8578 C   0  0  0  0  0  0  0  0  0  0  0  0
   51.0870   24.5340  110.1912 C   0  0  0  0  0  0  0  0  0  0  0  0
   53.1408   22.7808  115.7199 N   0  0  0  0  0  0  0  0  0  0  0  0
   52.7670   21.4178  115.5151 C   0  0  2  0  0  0  0  0  0  0  0  0
   53.2380   20.6543  114.3960 C   0  0  0  0  0  0  0  0  0  0  0  0
   52.6281   20.7729  113.2652 O   0  0  0  0  0  0  0  0  0  0  0  0
   51.2284   21.5075  115.3564 C   0  0  0  0  0  0  0  0  0  0  0  0
   50.8121   22.7694  116.0704 C   0  0  0  0  0  0  0  0  0  0  0  0
   52.1082   23.1432  116.7319 C   0  0  0  0  0  0  0  0  0  0  0  0
   54.3294   19.7458  114.3741 N   0  0  0  0  0  0  0  0  0  0  0  0
   55.6932   20.0466  114.7810 C   0  0  2  0  0  0  0  0  0  0  0  0
   56.6187   19.8826  113.5966 C   0  0  0  0  0  0  0  0  0  0  0  0
   57.3819   20.8670  113.4176 O   0  0  0  0  0  0  0  0  0  0  0  0
   56.1719   19.0309  115.8146 C   0  0  0  0  0  0  0  0  0  0  0  0
   57.3282   19.6098  116.5335 C   0  0  0  0  0  0  0  0  0  0  0  0
   57.6197   20.9862  116.4578 O   0  0  0  0  0  0  0  0  0  0  0  0
   58.1205   18.9545  117.2465 O   0  0  0  0  0  0  0  0  0  0  0  0
   56.6774   17.2681  112.6916 O   0  0  0  0  0  0  0  0  0  0  0  0
   55.2857    8.2506  113.6156 H   0  0  0  0  0  0  0  0  0  0  0  0
  1  2  1  0
  1105  1  0
  1111  1  0
  2  3  1  0
  2111  1  1
  3  4  2  0
  3  5  1  0
  5  6  1  0
  6  7  1  0
  6  9  1  6
  7  8  2  0
  7 16  1  0
  9 10  1  0
 10 11  1  0
 11 12  1  0
 12 13  1  0
 13 14  2  0
 13 15  1  0
 17 16  1  6
 17 18  1  0
 17 20  1  0
 18 19  2  0
 18 22  1  0
 20 21  1  0
 21 84  1  0
 22 23  1  0
 23 24  1  0
 23 26  1  6
 24 25  2  0
 24 34  1  0
 26 27  1  0
 27 28  2  0
 27 29  1  0
 28 30  1  0
 29 31  2  0
 30 32  2  0
 31 32  1  0
 32 33  1  0
 34 35  1  0
 35 36  1  0
 35 38  1  6
 36 37  2  0
 36 43  1  0
 38 39  1  0
 39 40  1  0
 40 41  1  0
 41 42  1  0
 43 44  1  0
 44 45  1  0
 44 47  1  1
 45 46  2  0
 45 49  1  0
 47 48  1  0
 50 49  1  6
 50 51  1  0
 50 53  1  0
 51 52  2  0
 51 57  1  0
 53 54  1  0
 53 55  1  6
 54 56  1  0
 57 58  1  0
 57 63  1  0
 58 59  1  0
 58 61  1  1
 59 60  2  0
 59 64  1  0
 61 62  1  0
 62 63  1  0
 64 65  1  0
 64 70  1  0
 65 66  1  0
 65 68  1  6
 66 67  2  0
 66 71  1  0
 68 69  1  0
 69 70  1  0
 72 71  1  6
 72 73  1  0
 72 75  1  0
 73 74  2  0
 73 79  1  0
 75 76  1  0
 75 77  1  1
 76 78  1  0
 80 79  1  6
 80 81  1  0
 80 83  1  0
 81 82  2  0
 81 85  1  0
 83 84  1  0
 85 86  1  0
 86 87  1  0
 86 89  1  6
 87 88  2  0
 87 96  1  0
 89 90  1  0
 90 91  2  0
 90 92  1  0
 91 93  1  0
 92 94  2  0
 93 95  2  0
 94 95  1  0
 96 97  1  0
 96102  1  0
 97 98  1  0
 97100  1  6
 98 99  2  0
 98103  1  0
100101  1  0
101102  1  0
103104  1  0
104105  1  0
104107  1  1
105106  2  0
107108  1  0
108109  1  0
108110  2  0
 14112  1  0
M  CHG  1  42   1
M  END
$$$$
