
     RDKit          3D

112119  0  0  0  0  0  0  0  0999 V2000
   53.8167   29.6539  105.7779 N   0  0  0  0  0  0  0  0  0  0  0  0
   54.6548   28.7237  105.3747 C   0  0  2  0  0  0  0  0  0  0  0  0
   55.6314   28.0419  106.2244 C   0  0  0  0  0  0  0  0  0  0  0  0
   55.2582   27.5597  107.3212 O   0  0  0  0  0  0  0  0  0  0  0  0
   56.9979   27.8778  105.9012 N   0  0  0  0  0  0  0  0  0  0  0  0
   57.5729   28.3482  104.6404 C   0  0  2  0  0  0  0  0  0  0  0  0
   57.7478   27.2344  103.7005 C   0  0  0  0  0  0  0  0  0  0  0  0
   58.7700   27.2804  102.9270 O   0  0  0  0  0  0  0  0  0  0  0  0
   58.8254   29.0639  104.9973 C   0  0  0  0  0  0  0  0  0  0  0  0
   59.5050   28.7050  106.2725 C   0  0  0  0  0  0  0  0  0  0  0  0
   60.0742   27.2841  106.1428 C   0  0  0  0  0  0  0  0  0  0  0  0
   60.9988   26.9716  107.1980 N   0  0  0  0  0  0  0  0  0  0  0  0
   61.8756   25.8610  107.1066 C   0  0  0  0  0  0  0  0  0  0  0  0
   61.6060   24.8654  106.3039 N   0  0  0  0  0  0  0  0  0  0  0  0
   63.0624   25.8241  107.8935 N   0  0  0  0  0  0  0  0  0  0  0  0
   56.9000   26.1167  103.5625 N   0  0  0  0  0  0  0  0  0  0  0  0
   56.5970   25.0699  104.4911 C   0  0  2  0  0  0  0  0  0  0  0  0
   57.2966   23.7803  104.1984 C   0  0  0  0  0  0  0  0  0  0  0  0
   58.0522   23.3302  105.1511 O   0  0  0  0  0  0  0  0  0  0  0  0
   55.0963   24.8726  104.6575 C   0  0  0  0  0  0  0  0  0  0  0  0
   54.8451   24.1492  106.3257 S   0  0  0  0  0  0  0  0  0  0  0  0
   57.2500   23.0095  103.0573 N   0  0  0  0  0  0  0  0  0  0  0  0
   56.1152   22.3566  102.4011 C   0  0  2  0  0  0  0  0  0  0  0  0
   56.5435   20.9979  101.9157 C   0  0  0  0  0  0  0  0  0  0  0  0
   57.6593   21.0128  101.2781 O   0  0  0  0  0  0  0  0  0  0  0  0
   55.7071   23.1435  101.1673 C   0  0  0  0  0  0  0  0  0  0  0  0
   56.0038   24.5870  101.2537 C   0  0  0  0  0  0  0  0  0  0  0  0
   55.7532   25.4094  100.1884 C   0  0  0  0  0  0  0  0  0  0  0  0
   56.5597   25.1172  102.4207 C   0  0  0  0  0  0  0  0  0  0  0  0
   56.0632   26.7579  100.3047 C   0  0  0  0  0  0  0  0  0  0  0  0
   56.8716   26.4456  102.5513 C   0  0  0  0  0  0  0  0  0  0  0  0
   56.6102   27.2688  101.4578 C   0  0  0  0  0  0  0  0  0  0  0  0
   56.9259   28.6220  101.5846 O   0  0  0  0  0  0  0  0  0  0  0  0
   55.9171   19.7857  102.0640 N   0  0  0  0  0  0  0  0  0  0  0  0
   54.5361   19.4292  102.1615 C   0  0  2  0  0  0  0  0  0  0  0  0
   54.2734   18.0403  102.5800 C   0  0  0  0  0  0  0  0  0  0  0  0
   53.3005   17.4732  101.9492 O   0  0  0  0  0  0  0  0  0  0  0  0
   53.9612   19.6064  100.7552 C   0  0  0  0  0  0  0  0  0  0  0  0
   54.9602   20.3204   99.8865 C   0  0  0  0  0  0  0  0  0  0  0  0
   56.3445   19.7176  100.0217 C   0  0  0  0  0  0  0  0  0  0  0  0
   57.1231   19.8429   98.7282 C   0  0  0  0  0  0  0  0  0  0  0  0
   58.5290   20.0392   99.0453 N   0  0  0  0  0  4  0  0  0  0  0  0
   54.9173   17.2572  103.5489 N   0  0  0  0  0  0  0  0  0  0  0  0
   54.9891   17.4044  104.9809 C   0  0  2  0  0  0  0  0  0  0  0  0
   53.7998   18.0327  105.6103 C   0  0  0  0  0  0  0  0  0  0  0  0
   53.9278   19.3177  105.6946 O   0  0  0  0  0  0  0  0  0  0  0  0
   56.2881   17.9829  105.4773 C   0  0  0  0  0  0  0  0  0  0  0  0
   56.1693   19.0828  106.2849 O   0  0  0  0  0  0  0  0  0  0  0  0
   52.6423   17.4123  106.0826 N   0  0  0  0  0  0  0  0  0  0  0  0
   52.3990   16.3981  107.0335 C   0  0  2  0  0  0  0  0  0  0  0  0
   53.0652   16.8025  108.3271 C   0  0  0  0  0  0  0  0  0  0  0  0
   54.2757   17.1398  108.1986 O   0  0  0  0  0  0  0  0  0  0  0  0
   52.8406   15.0089  106.7589 C   0  0  2  0  0  0  0  0  0  0  0  0
   52.4172   14.4403  105.4367 C   0  0  0  0  0  0  0  0  0  0  0  0
   52.1709   14.0499  107.7882 C   0  0  0  0  0  0  0  0  0  0  0  0
   51.3401   15.1534  104.7126 C   0  0  0  0  0  0  0  0  0  0  0  0
   52.4809   16.8332  109.5904 N   0  0  0  0  0  0  0  0  0  0  0  0
   51.0802   16.9275  109.8445 C   0  0  2  0  0  0  0  0  0  0  0  0
   50.4243   18.2028  109.5192 C   0  0  0  0  0  0  0  0  0  0  0  0
   50.8041   18.6857  108.3752 O   0  0  0  0  0  0  0  0  0  0  0  0
   50.8182   16.3820  111.2097 C   0  0  0  0  0  0  0  0  0  0  0  0
   52.1754   16.1969  111.8470 C   0  0  0  0  0  0  0  0  0  0  0  0
   53.1614   16.7618  110.8837 C   0  0  0  0  0  0  0  0  0  0  0  0
   49.4819   18.9911  110.1803 N   0  0  0  0  0  0  0  0  0  0  0  0
   49.6065   19.8821  111.3111 C   0  0  2  0  0  0  0  0  0  0  0  0
   50.8990   20.2164  111.8148 C   0  0  0  0  0  0  0  0  0  0  0  0
   51.6319   19.3303  112.3752 O   0  0  0  0  0  0  0  0  0  0  0  0
   48.5710   19.3835  112.2660 C   0  0  0  0  0  0  0  0  0  0  0  0
   47.5447   18.7560  111.3177 C   0  0  0  0  0  0  0  0  0  0  0  0
   48.0222   19.2166  109.9299 C   0  0  0  0  0  0  0  0  0  0  0  0
   51.4568   21.5350  111.7312 N   0  0  0  0  0  0  0  0  0  0  0  0
   50.7234   22.7552  112.0213 C   0  0  2  0  0  0  0  0  0  0  0  0
   50.1416   23.4088  110.8373 C   0  0  0  0  0  0  0  0  0  0  0  0
   48.8561   23.5339  110.8636 O   0  0  0  0  0  0  0  0  0  0  0  0
   51.6753   23.6400  112.8081 C   0  0  2  0  0  0  0  0  0  0  0  0
   52.9933   23.5867  112.0180 C   0  0  0  0  0  0  0  0  0  0  0  0
   51.9402   23.0228  114.1505 C   0  0  0  0  0  0  0  0  0  0  0  0
   53.7450   22.3147  112.2523 C   0  0  0  0  0  0  0  0  0  0  0  0
   50.7929   23.9071  109.6991 N   0  0  0  0  0  0  0  0  0  0  0  0
   51.7089   25.0223  109.5838 C   0  0  2  0  0  0  0  0  0  0  0  0
   51.1207   25.9530  108.5688 C   0  0  0  0  0  0  0  0  0  0  0  0
   50.9449   25.3821  107.4225 O   0  0  0  0  0  0  0  0  0  0  0  0
   53.0037   24.4787  108.9528 C   0  0  0  0  0  0  0  0  0  0  0  0
   53.1517   25.0010  107.2424 S   0  0  0  0  0  0  0  0  0  0  0  0
   50.7643   27.3060  108.7356 N   0  0  0  0  0  0  0  0  0  0  0  0
   49.7468   27.8675  109.5560 C   0  0  2  0  0  0  0  0  0  0  0  0
   50.0208   29.1069  110.2924 C   0  0  0  0  0  0  0  0  0  0  0  0
   49.0517   29.9910  110.0950 O   0  0  0  0  0  0  0  0  0  0  0  0
   49.0558   26.7982  110.4128 C   0  0  0  0  0  0  0  0  0  0  0  0
   49.3193   25.4209  109.9333 C   0  0  0  0  0  0  0  0  0  0  0  0
   48.6062   24.3413  110.4786 C   0  0  0  0  0  0  0  0  0  0  0  0
   50.2194   25.0916  108.9511 C   0  0  0  0  0  0  0  0  0  0  0  0
   48.7651   23.0493  110.0911 C   0  0  0  0  0  0  0  0  0  0  0  0
   50.3995   23.7961  108.5409 C   0  0  0  0  0  0  0  0  0  0  0  0
   49.6767   22.7402  109.1004 C   0  0  0  0  0  0  0  0  0  0  0  0
   51.0463   29.5336  111.1270 N   0  0  0  0  0  0  0  0  0  0  0  0
   52.4449   29.7583  110.9461 C   0  0  2  0  0  0  0  0  0  0  0  0
   53.1686   29.2225  109.8297 C   0  0  0  0  0  0  0  0  0  0  0  0
   53.5853   28.0029  109.8899 O   0  0  0  0  0  0  0  0  0  0  0  0
   53.0602   29.1057  112.2094 C   0  0  0  0  0  0  0  0  0  0  0  0
   51.9704   29.1160  113.2524 C   0  0  0  0  0  0  0  0  0  0  0  0
   50.9380   29.9538  112.5530 C   0  0  0  0  0  0  0  0  0  0  0  0
   53.5019   29.8905  108.6214 N   0  0  0  0  0  0  0  0  0  0  0  0
   52.5628   30.5557  107.7317 C   0  0  2  0  0  0  0  0  0  0  0  0
   52.5831   29.8764  106.3810 C   0  0  0  0  0  0  0  0  0  0  0  0
   51.4373   29.5837  105.9507 O   0  0  0  0  0  0  0  0  0  0  0  0
   53.0089   31.9917  107.4713 C   0  0  0  0  0  0  0  0  0  0  0  0
   52.3418   32.4691  106.2401 C   0  0  0  0  0  0  0  0  0  0  0  0
   51.7755   33.7574  106.1698 O   0  0  0  0  0  0  0  0  0  0  0  0
   52.2253   31.7979  105.1906 O   0  0  0  0  0  0  0  0  0  0  0  0
   55.0523   30.1039  105.1525 O   0  0  0  0  0  0  0  0  0  0  0  0
   60.7342   24.3226  106.4935 H   0  0  0  0  0  0  0  0  0  0  0  0
  1  2  1  0
  1105  1  0
  1111  1  0
  2  3  1  0
  2111  1  6
  3  4  2  0
  3  5  1  0
  5  6  1  0
  6  7  1  0
  6  9  1  1
  7  8  2  0
  7 16  1  0
  9 10  1  0
 10 11  1  0
 11 12  1  0
 12 13  1  0
 13 14  2  0
 13 15  1  0
 17 16  1  6
 17 18  1  0
 17 20  1  0
 18 19  2  0
 18 22  1  0
 20 21  1  0
 21 84  1  0
 22 23  1  0
 23 24  1  0
 23 26  1  6
 24 25  2  0
 24 34  1  0
 26 27  1  0
 27 28  2  0
 27 29  1  0
 28 30  1  0
 29 31  2  0
 30 32  2  0
 31 32  1  0
 32 33  1  0
 34 35  1  0
 35 36  1  0
 35 38  1  6
 36 37  2  0
 36 43  1  0
 38 39  1  0
 39 40  1  0
 40 41  1  0
 41 42  1  0
 43 44  1  0
 44 45  1  0
 44 47  1  6
 45 46  2  0
 45 49  1  0
 47 48  1  0
 50 49  1  6
 50 51  1  0
 50 53  1  0
 51 52  2  0
 51 57  1  0
 53 54  1  0
 53 55  1  1
 54 56  1  0
 57 58  1  0
 57 63  1  0
 58 59  1  0
 58 61  1  1
 59 60  2  0
 59 64  1  0
 61 62  1  0
 62 63  1  0
 64 65  1  0
 64 70  1  0
 65 66  1  0
 65 68  1  1
 66 67  2  0
 66 71  1  0
 68 69  1  0
 69 70  1  0
 72 71  1  6
 72 73  1  0
 72 75  1  0
 73 74  2  0
 73 79  1  0
 75 76  1  0
 75 77  1  1
 76 78  1  0
 80 79  1  6
 80 81  1  0
 80 83  1  0
 81 82  2  0
 81 85  1  0
 83 84  1  0
 85 86  1  0
 86 87  1  0
 86 89  1  1
 87 88  2  0
 87 96  1  0
 89 90  1  0
 90 91  2  0
 90 92  1  0
 91 93  1  0
 92 94  2  0
 93 95  2  0
 94 95  1  0
 96 97  1  0
 96102  1  0
 97 98  1  0
 97100  1  1
 98 99  2  0
 98103  1  0
100101  1  0
101102  1  0
103104  1  0
104105  1  0
104107  1  6
105106  2  0
107108  1  0
108109  1  0
108110  2  0
 14112  1  0
M  CHG  1  42   1
M  END
$$$$
