
     RDKit          3D

112119  0  0  0  0  0  0  0  0999 V2000
   59.2687   24.9602  108.5111 N   0  0  0  0  0  0  0  0  0  0  0  0
   58.6714   23.8153  108.2606 C   0  0  2  0  0  0  0  0  0  0  0  0
   57.6851   23.1707  109.1278 C   0  0  0  0  0  0  0  0  0  0  0  0
   56.7220   23.8447  109.5669 O   0  0  0  0  0  0  0  0  0  0  0  0
   57.7302   21.8135  109.5215 N   0  0  0  0  0  0  0  0  0  0  0  0
   58.7674   20.8912  109.0578 C   0  0  2  0  0  0  0  0  0  0  0  0
   58.2555   20.0286  107.9861 C   0  0  0  0  0  0  0  0  0  0  0  0
   58.6953   18.8242  107.9480 O   0  0  0  0  0  0  0  0  0  0  0  0
   59.2477   20.1672  110.2634 C   0  0  0  0  0  0  0  0  0  0  0  0
   59.3448   18.6827  110.2039 C   0  0  0  0  0  0  0  0  0  0  0  0
   60.1802   18.2939  108.9748 C   0  0  0  0  0  0  0  0  0  0  0  0
   61.5331   17.9558  109.3232 N   0  0  0  0  0  0  0  0  0  0  0  0
   62.1603   16.7940  108.8062 C   0  0  0  0  0  0  0  0  0  0  0  0
   63.0986   16.8917  107.9016 N   0  0  0  0  0  0  0  0  0  0  0  0
   61.7691   15.5062  109.2727 N   0  0  0  0  0  0  0  0  0  0  0  0
   57.3269   20.3946  106.9908 N   0  0  0  0  0  0  0  0  0  0  0  0
   55.9540   20.7832  107.1097 C   0  0  2  0  0  0  0  0  0  0  0  0
   54.9859   19.7094  106.7253 C   0  0  0  0  0  0  0  0  0  0  0  0
   54.1468   19.3614  107.6504 O   0  0  0  0  0  0  0  0  0  0  0  0
   55.6663   22.0893  106.3817 C   0  0  0  0  0  0  0  0  0  0  0  0
   54.2175   22.8461  107.2168 S   0  0  0  0  0  0  0  0  0  0  0  0
   54.8664   19.0398  105.5269 N   0  0  0  0  0  0  0  0  0  0  0  0
   54.5892   19.5477  104.1817 C   0  0  2  0  0  0  0  0  0  0  0  0
   53.6482   18.6029  103.4839 C   0  0  0  0  0  0  0  0  0  0  0  0
   53.9969   17.3700  103.5840 O   0  0  0  0  0  0  0  0  0  0  0  0
   55.8671   19.5642  103.3604 C   0  0  0  0  0  0  0  0  0  0  0  0
   56.8523   18.5427  103.7670 C   0  0  0  0  0  0  0  0  0  0  0  0
   56.8072   17.9999  105.0229 C   0  0  0  0  0  0  0  0  0  0  0  0
   57.8480   18.1384  102.8742 C   0  0  0  0  0  0  0  0  0  0  0  0
   57.7632   17.0549  105.3712 C   0  0  0  0  0  0  0  0  0  0  0  0
   58.7989   17.2073  103.2027 C   0  0  0  0  0  0  0  0  0  0  0  0
   58.7388   16.6646  104.4847 C   0  0  0  0  0  0  0  0  0  0  0  0
   59.7042   15.7165  104.8251 O   0  0  0  0  0  0  0  0  0  0  0  0
   52.5029   18.8802  102.7802 N   0  0  0  0  0  0  0  0  0  0  0  0
   52.1124   20.0107  101.9972 C   0  0  2  0  0  0  0  0  0  0  0  0
   50.6897   20.0482  101.6130 C   0  0  0  0  0  0  0  0  0  0  0  0
   50.4788   20.4517  100.4052 O   0  0  0  0  0  0  0  0  0  0  0  0
   52.9379   19.9307  100.7121 C   0  0  0  0  0  0  0  0  0  0  0  0
   52.5027   18.7388   99.9044 C   0  0  0  0  0  0  0  0  0  0  0  0
   51.7815   17.7193  100.7637 C   0  0  0  0  0  0  0  0  0  0  0  0
   51.7090   16.3744  100.0702 C   0  0  0  0  0  0  0  0  0  0  0  0
   50.6824   15.5703  100.7144 N   0  0  0  0  0  4  0  0  0  0  0  0
   49.5493   19.7139  102.3575 N   0  0  0  0  0  0  0  0  0  0  0  0
   48.9831   20.3231  103.5347 C   0  0  2  0  0  0  0  0  0  0  0  0
   49.1987   21.7877  103.6521 C   0  0  0  0  0  0  0  0  0  0  0  0
   50.2831   22.0595  104.3040 O   0  0  0  0  0  0  0  0  0  0  0  0
   49.2768   19.5841  104.8139 C   0  0  0  0  0  0  0  0  0  0  0  0
   50.5501   19.7310  105.2966 O   0  0  0  0  0  0  0  0  0  0  0  0
   48.4005   22.8213  103.1597 N   0  0  0  0  0  0  0  0  0  0  0  0
   47.0467   23.1774  103.3395 C   0  0  2  0  0  0  0  0  0  0  0  0
   46.7861   23.2852  104.8232 C   0  0  0  0  0  0  0  0  0  0  0  0
   47.1710   22.2819  105.4871 O   0  0  0  0  0  0  0  0  0  0  0  0
   45.9768   22.3058  102.7953 C   0  0  2  0  0  0  0  0  0  0  0  0
   45.7013   22.4521  101.3277 C   0  0  0  0  0  0  0  0  0  0  0  0
   44.6192   22.6975  103.4517 C   0  0  0  0  0  0  0  0  0  0  0  0
   45.5591   23.8302  100.8049 C   0  0  0  0  0  0  0  0  0  0  0  0
   46.1853   24.3509  105.4876 N   0  0  0  0  0  0  0  0  0  0  0  0
   46.1120   25.6881  104.9958 C   0  0  2  0  0  0  0  0  0  0  0  0
   47.3691   26.4482  104.9308 C   0  0  0  0  0  0  0  0  0  0  0  0
   48.3559   25.7479  104.4597 O   0  0  0  0  0  0  0  0  0  0  0  0
   44.9656   26.3683  105.6690 C   0  0  0  0  0  0  0  0  0  0  0  0
   44.5252   25.4369  106.7741 C   0  0  0  0  0  0  0  0  0  0  0  0
   45.5096   24.3190  106.7850 C   0  0  0  0  0  0  0  0  0  0  0  0
   47.7147   27.7581  105.2644 N   0  0  0  0  0  0  0  0  0  0  0  0
   47.9459   28.3886  106.5438 C   0  0  2  0  0  0  0  0  0  0  0  0
   48.0226   27.5930  107.7258 C   0  0  0  0  0  0  0  0  0  0  0  0
   46.9928   26.9747  108.1661 O   0  0  0  0  0  0  0  0  0  0  0  0
   47.0223   29.5631  106.5280 C   0  0  0  0  0  0  0  0  0  0  0  0
   46.9118   29.8562  105.0286 C   0  0  0  0  0  0  0  0  0  0  0  0
   47.9999   28.9587  104.4149 C   0  0  0  0  0  0  0  0  0  0  0  0
   49.2278   27.4314  108.4862 N   0  0  0  0  0  0  0  0  0  0  0  0
   50.1358   28.5145  108.8231 C   0  0  2  0  0  0  0  0  0  0  0  0
   51.2691   28.6660  107.8957 C   0  0  0  0  0  0  0  0  0  0  0  0
   51.3362   29.8124  107.3039 O   0  0  0  0  0  0  0  0  0  0  0  0
   50.5479   28.2829  110.2670 C   0  0  2  0  0  0  0  0  0  0  0  0
   50.5315   26.7543  110.4321 C   0  0  0  0  0  0  0  0  0  0  0  0
   49.4966   28.8371  111.1838 C   0  0  0  0  0  0  0  0  0  0  0  0
   49.2904   26.1356  109.8711 C   0  0  0  0  0  0  0  0  0  0  0  0
   52.2727   27.7398  107.5751 N   0  0  0  0  0  0  0  0  0  0  0  0
   53.3240   27.2030  108.4135 C   0  0  2  0  0  0  0  0  0  0  0  0
   54.6170   27.5088  107.7229 C   0  0  0  0  0  0  0  0  0  0  0  0
   54.6718   27.0011  106.5354 O   0  0  0  0  0  0  0  0  0  0  0  0
   53.1857   25.6700  108.3837 C   0  0  0  0  0  0  0  0  0  0  0  0
   54.4770   24.9292  107.3819 S   0  0  0  0  0  0  0  0  0  0  0  0
   55.7096   28.2501  108.2151 N   0  0  0  0  0  0  0  0  0  0  0  0
   55.7779   29.6338  108.5380 C   0  0  2  0  0  0  0  0  0  0  0  0
   56.5087   30.0558  109.7385 C   0  0  0  0  0  0  0  0  0  0  0  0
   57.3547   31.0358  109.4495 O   0  0  0  0  0  0  0  0  0  0  0  0
   54.4113   30.3170  108.3936 C   0  0  0  0  0  0  0  0  0  0  0  0
   53.6613   29.8532  107.2025 C   0  0  0  0  0  0  0  0  0  0  0  0
   53.5045   28.4783  106.9655 C   0  0  0  0  0  0  0  0  0  0  0  0
   53.0645   30.6778  106.2820 C   0  0  0  0  0  0  0  0  0  0  0  0
   52.8199   27.9593  105.9135 C   0  0  0  0  0  0  0  0  0  0  0  0
   52.3675   30.1807  105.2113 C   0  0  0  0  0  0  0  0  0  0  0  0
   52.2268   28.8076  104.9988 C   0  0  0  0  0  0  0  0  0  0  0  0
   56.4991   29.6594  111.0701 N   0  0  0  0  0  0  0  0  0  0  0  0
   56.8153   28.4417  111.7457 C   0  0  2  0  0  0  0  0  0  0  0  0
   56.9068   27.1861  111.0586 C   0  0  0  0  0  0  0  0  0  0  0  0
   55.8217   26.5289  110.8230 O   0  0  0  0  0  0  0  0  0  0  0  0
   55.6450   28.2967  112.7506 C   0  0  0  0  0  0  0  0  0  0  0  0
   55.1219   29.6928  112.9801 C   0  0  0  0  0  0  0  0  0  0  0  0
   56.1701   30.4935  112.2609 C   0  0  0  0  0  0  0  0  0  0  0  0
   58.0855   26.5468  110.5903 N   0  0  0  0  0  0  0  0  0  0  0  0
   59.0776   27.1373  109.7055 C   0  0  2  0  0  0  0  0  0  0  0  0
   59.1415   26.3425  108.4207 C   0  0  0  0  0  0  0  0  0  0  0  0
   59.0688   27.0560  107.3866 O   0  0  0  0  0  0  0  0  0  0  0  0
   60.4688   27.0250  110.3226 C   0  0  0  0  0  0  0  0  0  0  0  0
   60.8913   28.3726  110.7636 C   0  0  0  0  0  0  0  0  0  0  0  0
   60.9033   28.7233  112.1282 O   0  0  0  0  0  0  0  0  0  0  0  0
   61.2624   29.2868  109.9940 O   0  0  0  0  0  0  0  0  0  0  0  0
   59.9942   23.7466  108.8588 O   0  0  0  0  0  0  0  0  0  0  0  0
   63.7903   17.6661  108.0138 H   0  0  0  0  0  0  0  0  0  0  0  0
  1  2  1  0
  1105  1  0
  1111  1  0
  2  3  1  0
  2111  1  1
  3  4  2  0
  3  5  1  0
  5  6  1  0
  6  7  1  0
  6  9  1  1
  7  8  2  0
  7 16  1  0
  9 10  1  0
 10 11  1  0
 11 12  1  0
 12 13  1  0
 13 14  2  0
 13 15  1  0
 17 16  1  6
 17 18  1  0
 17 20  1  0
 18 19  2  0
 18 22  1  0
 20 21  1  0
 21 84  1  0
 22 23  1  0
 23 24  1  0
 23 26  1  6
 24 25  2  0
 24 34  1  0
 26 27  1  0
 27 28  2  0
 27 29  1  0
 28 30  1  0
 29 31  2  0
 30 32  2  0
 31 32  1  0
 32 33  1  0
 34 35  1  0
 35 36  1  0
 35 38  1  6
 36 37  2  0
 36 43  1  0
 38 39  1  0
 39 40  1  0
 40 41  1  0
 41 42  1  0
 43 44  1  0
 44 45  1  0
 44 47  1  1
 45 46  2  0
 45 49  1  0
 47 48  1  0
 50 49  1  1
 50 51  1  0
 50 53  1  0
 51 52  2  0
 51 57  1  0
 53 54  1  0
 53 55  1  1
 54 56  1  0
 57 58  1  0
 57 63  1  0
 58 59  1  0
 58 61  1  1
 59 60  2  0
 59 64  1  0
 61 62  1  0
 62 63  1  0
 64 65  1  0
 64 70  1  0
 65 66  1  0
 65 68  1  1
 66 67  2  0
 66 71  1  0
 68 69  1  0
 69 70  1  0
 72 71  1  6
 72 73  1  0
 72 75  1  0
 73 74  2  0
 73 79  1  0
 75 76  1  0
 75 77  1  1
 76 78  1  0
 80 79  1  6
 80 81  1  0
 80 83  1  0
 81 82  2  0
 81 85  1  0
 83 84  1  0
 85 86  1  0
 86 87  1  0
 86 89  1  1
 87 88  2  0
 87 96  1  0
 89 90  1  0
 90 91  2  0
 90 92  1  0
 91 93  1  0
 92 94  2  0
 93 95  2  0
 94 95  1  0
 96 97  1  0
 96102  1  0
 97 98  1  0
 97100  1  1
 98 99  2  0
 98103  1  0
100101  1  0
101102  1  0
103104  1  0
104105  1  0
104107  1  1
105106  2  0
107108  1  0
108109  1  0
108110  2  0
 14112  1  0
M  CHG  1  42   1
M  END
$$$$
