
     RDKit          3D

112119  0  0  0  0  0  0  0  0999 V2000
   57.9539   19.2257  108.7448 N   0  0  0  0  0  0  0  0  0  0  0  0
   57.4300   19.3214  107.5420 C   0  0  2  0  0  0  0  0  0  0  0  0
   56.1771   18.6981  107.1154 C   0  0  0  0  0  0  0  0  0  0  0  0
   55.1524   18.8327  107.8271 O   0  0  0  0  0  0  0  0  0  0  0  0
   56.0231   17.9364  105.9343 N   0  0  0  0  0  0  0  0  0  0  0  0
   57.1147   17.7261  104.9826 C   0  0  2  0  0  0  0  0  0  0  0  0
   56.9674   18.6080  103.8185 C   0  0  0  0  0  0  0  0  0  0  0  0
   57.3394   18.1408  102.6834 O   0  0  0  0  0  0  0  0  0  0  0  0
   57.1157   16.2740  104.6671 C   0  0  0  0  0  0  0  0  0  0  0  0
   57.6061   15.3259  105.7051 C   0  0  0  0  0  0  0  0  0  0  0  0
   59.1391   15.2642  105.6292 C   0  0  0  0  0  0  0  0  0  0  0  0
   59.6012   14.8244  104.3411 N   0  0  0  0  0  0  0  0  0  0  0  0
   60.6050   13.8307  104.2166 C   0  0  0  0  0  0  0  0  0  0  0  0
   61.6820   13.8773  104.9556 N   0  0  0  0  0  0  0  0  0  0  0  0
   60.4441   12.7695  103.2800 N   0  0  0  0  0  0  0  0  0  0  0  0
   56.4576   19.9222  103.8252 N   0  0  0  0  0  0  0  0  0  0  0  0
   55.1469   20.4004  104.1471 C   0  0  2  0  0  0  0  0  0  0  0  0
   54.3250   20.7637  102.9510 C   0  0  0  0  0  0  0  0  0  0  0  0
   53.2032   20.1244  102.8335 O   0  0  0  0  0  0  0  0  0  0  0  0
   55.1870   21.5291  105.1683 C   0  0  0  0  0  0  0  0  0  0  0  0
   53.5738   21.5009  106.0434 S   0  0  0  0  0  0  0  0  0  0  0  0
   54.5978   21.6802  101.9588 N   0  0  0  0  0  0  0  0  0  0  0  0
   54.8257   23.1244  102.0402 C   0  0  2  0  0  0  0  0  0  0  0  0
   54.1434   23.7958  100.8789 C   0  0  0  0  0  0  0  0  0  0  0  0
   54.3809   23.2281   99.7507 O   0  0  0  0  0  0  0  0  0  0  0  0
   56.3083   23.4239  101.8976 C   0  0  0  0  0  0  0  0  0  0  0  0
   56.8085   24.4342  102.8506 C   0  0  0  0  0  0  0  0  0  0  0  0
   58.0296   25.0221  102.6575 C   0  0  0  0  0  0  0  0  0  0  0  0
   56.0424   24.7819  103.9661 C   0  0  0  0  0  0  0  0  0  0  0  0
   58.4708   25.9547  103.5870 C   0  0  0  0  0  0  0  0  0  0  0  0
   56.4636   25.7000  104.8927 C   0  0  0  0  0  0  0  0  0  0  0  0
   57.7086   26.2890  104.6812 C   0  0  0  0  0  0  0  0  0  0  0  0
   58.1430   27.2242  105.6212 O   0  0  0  0  0  0  0  0  0  0  0  0
   53.3256   24.8981  100.8715 N   0  0  0  0  0  0  0  0  0  0  0  0
   53.2805   26.0603  101.7028 C   0  0  2  0  0  0  0  0  0  0  0  0
   52.0817   26.9027  101.5413 C   0  0  0  0  0  0  0  0  0  0  0  0
   52.3196   28.1711  101.5663 O   0  0  0  0  0  0  0  0  0  0  0  0
   54.4952   26.9013  101.3069 C   0  0  0  0  0  0  0  0  0  0  0  0
   55.6622   25.9985  101.0146 C   0  0  0  0  0  0  0  0  0  0  0  0
   55.3387   24.5522  101.3334 C   0  0  0  0  0  0  0  0  0  0  0  0
   54.3227   23.9925  100.3590 C   0  0  0  0  0  0  0  0  0  0  0  0
   54.6018   22.5802  100.1515 N   0  0  0  0  0  4  0  0  0  0  0  0
   50.7405   26.5322  101.3664 N   0  0  0  0  0  0  0  0  0  0  0  0
   49.8297   25.8524  102.2528 C   0  0  2  0  0  0  0  0  0  0  0  0
   50.0560   26.0996  103.6996 C   0  0  0  0  0  0  0  0  0  0  0  0
   50.8589   25.2241  104.2132 O   0  0  0  0  0  0  0  0  0  0  0  0
   49.6298   24.3943  101.9327 C   0  0  0  0  0  0  0  0  0  0  0  0
   50.3141   23.5191  102.7337 O   0  0  0  0  0  0  0  0  0  0  0  0
   49.5241   27.1140  104.4971 N   0  0  0  0  0  0  0  0  0  0  0  0
   48.2088   27.5217  104.8065 C   0  0  2  0  0  0  0  0  0  0  0  0
   47.4562   26.3176  105.3206 C   0  0  0  0  0  0  0  0  0  0  0  0
   47.5428   25.3007  104.5763 O   0  0  0  0  0  0  0  0  0  0  0  0
   47.3557   28.1216  103.7515 C   0  0  2  0  0  0  0  0  0  0  0  0
   47.5922   29.5766  103.4719 C   0  0  0  0  0  0  0  0  0  0  0  0
   45.8699   28.0873  104.2190 C   0  0  0  0  0  0  0  0  0  0  0  0
   46.4386   30.3615  102.9760 C   0  0  0  0  0  0  0  0  0  0  0  0
   46.7104   26.2404  106.4937 N   0  0  0  0  0  0  0  0  0  0  0  0
   46.8711   27.0937  107.6257 C   0  0  2  0  0  0  0  0  0  0  0  0
   48.1055   26.9413  108.4102 C   0  0  0  0  0  0  0  0  0  0  0  0
   49.1622   26.8195  107.6656 O   0  0  0  0  0  0  0  0  0  0  0  0
   45.5939   27.0840  108.3996 C   0  0  0  0  0  0  0  0  0  0  0  0
   44.7577   25.9774  107.8006 C   0  0  0  0  0  0  0  0  0  0  0  0
   45.6270   25.3045  106.7953 C   0  0  0  0  0  0  0  0  0  0  0  0
   48.3720   26.9058  109.7793 N   0  0  0  0  0  0  0  0  0  0  0  0
   48.1741   25.8671  110.7642 C   0  0  2  0  0  0  0  0  0  0  0  0
   47.8019   24.5538  110.3486 C   0  0  0  0  0  0  0  0  0  0  0  0
   46.6571   24.3343  109.8216 O   0  0  0  0  0  0  0  0  0  0  0  0
   47.3660   26.5400  111.8257 C   0  0  0  0  0  0  0  0  0  0  0  0
   47.7940   28.0021  111.6676 C   0  0  0  0  0  0  0  0  0  0  0  0
   48.9864   27.9157  110.6996 C   0  0  0  0  0  0  0  0  0  0  0  0
   48.6613   23.4140  110.4866 N   0  0  0  0  0  0  0  0  0  0  0  0
   49.4437   23.1164  111.6741 C   0  0  2  0  0  0  0  0  0  0  0  0
   50.8335   23.5996  111.6212 C   0  0  0  0  0  0  0  0  0  0  0  0
   51.1518   24.4385  112.5507 O   0  0  0  0  0  0  0  0  0  0  0  0
   49.3203   21.6181  111.8935 C   0  0  2  0  0  0  0  0  0  0  0  0
   49.8391   20.9933  110.5879 C   0  0  0  0  0  0  0  0  0  0  0  0
   47.8711   21.2466  112.0151 C   0  0  0  0  0  0  0  0  0  0  0  0
   48.8147   21.0220  109.4981 C   0  0  0  0  0  0  0  0  0  0  0  0
   51.8439   23.2719  110.7050 N   0  0  0  0  0  0  0  0  0  0  0  0
   52.5154   22.0061  110.4974 C   0  0  2  0  0  0  0  0  0  0  0  0
   53.9797   22.2679  110.6699 C   0  0  0  0  0  0  0  0  0  0  0  0
   54.4193   23.1619  109.8462 O   0  0  0  0  0  0  0  0  0  0  0  0
   52.3282   21.6343  109.0152 C   0  0  0  0  0  0  0  0  0  0  0  0
   53.8521   21.8702  108.0977 S   0  0  0  0  0  0  0  0  0  0  0  0
   54.8663   21.6689  111.5867 N   0  0  0  0  0  0  0  0  0  0  0  0
   54.8799   21.7595  113.0063 C   0  0  2  0  0  0  0  0  0  0  0  0
   55.1683   20.5593  113.7997 C   0  0  0  0  0  0  0  0  0  0  0  0
   56.1046   20.8119  114.7047 O   0  0  0  0  0  0  0  0  0  0  0  0
   53.6794   22.5563  113.5343 C   0  0  0  0  0  0  0  0  0  0  0  0
   52.4487   22.3335  112.7391 C   0  0  0  0  0  0  0  0  0  0  0  0
   51.1959   22.6624  113.2809 C   0  0  0  0  0  0  0  0  0  0  0  0
   52.4210   21.8328  111.4616 C   0  0  0  0  0  0  0  0  0  0  0  0
   50.0174   22.5114  112.6228 C   0  0  0  0  0  0  0  0  0  0  0  0
   51.2459   21.6704  110.7746 C   0  0  0  0  0  0  0  0  0  0  0  0
   50.0125   22.0056  111.3374 C   0  0  0  0  0  0  0  0  0  0  0  0
   54.6812   19.2581  113.8035 N   0  0  0  0  0  0  0  0  0  0  0  0
   54.6899   18.1920  112.8534 C   0  0  2  0  0  0  0  0  0  0  0  0
   54.9577   18.4090  111.4612 C   0  0  0  0  0  0  0  0  0  0  0  0
   53.9931   18.8007  110.6991 O   0  0  0  0  0  0  0  0  0  0  0  0
   53.2391   17.6542  112.9326 C   0  0  0  0  0  0  0  0  0  0  0  0
   52.7312   18.0349  114.3011 C   0  0  0  0  0  0  0  0  0  0  0  0
   53.9979   18.5501  114.9233 C   0  0  0  0  0  0  0  0  0  0  0  0
   56.1960   18.2366  110.7874 N   0  0  0  0  0  0  0  0  0  0  0  0
   57.4581   18.8579  111.1577 C   0  0  2  0  0  0  0  0  0  0  0  0
   57.9272   19.7521  110.0322 C   0  0  0  0  0  0  0  0  0  0  0  0
   58.2483   20.9081  110.4120 O   0  0  0  0  0  0  0  0  0  0  0  0
   58.5436   17.7964  111.3129 C   0  0  0  0  0  0  0  0  0  0  0  0
   59.8578   18.4756  111.3313 C   0  0  0  0  0  0  0  0  0  0  0  0
   61.0579   17.7408  111.4035 O   0  0  0  0  0  0  0  0  0  0  0  0
   60.0159   19.7160  111.2855 O   0  0  0  0  0  0  0  0  0  0  0  0
   58.4598   18.3131  107.7293 O   0  0  0  0  0  0  0  0  0  0  0  0
   62.3886   13.1210  104.8167 H   0  0  0  0  0  0  0  0  0  0  0  0
  1  2  1  0
  1105  1  0
  1111  1  0
  2  3  1  0
  2111  1  6
  3  4  2  0
  3  5  1  0
  5  6  1  0
  6  7  1  0
  6  9  1  6
  7  8  2  0
  7 16  1  0
  9 10  1  0
 10 11  1  0
 11 12  1  0
 12 13  1  0
 13 14  2  0
 13 15  1  0
 17 16  1  6
 17 18  1  0
 17 20  1  0
 18 19  2  0
 18 22  1  0
 20 21  1  0
 21 84  1  0
 22 23  1  0
 23 24  1  0
 23 26  1  6
 24 25  2  0
 24 34  1  0
 26 27  1  0
 27 28  2  0
 27 29  1  0
 28 30  1  0
 29 31  2  0
 30 32  2  0
 31 32  1  0
 32 33  1  0
 34 35  1  0
 35 36  1  0
 35 38  1  6
 36 37  2  0
 36 43  1  0
 38 39  1  0
 39 40  1  0
 40 41  1  0
 41 42  1  0
 43 44  1  0
 44 45  1  0
 44 47  1  1
 45 46  2  0
 45 49  1  0
 47 48  1  0
 50 49  1  6
 50 51  1  0
 50 53  1  0
 51 52  2  0
 51 57  1  0
 53 54  1  0
 53 55  1  1
 54 56  1  0
 57 58  1  0
 57 63  1  0
 58 59  1  0
 58 61  1  1
 59 60  2  0
 59 64  1  0
 61 62  1  0
 62 63  1  0
 64 65  1  0
 64 70  1  0
 65 66  1  0
 65 68  1  1
 66 67  2  0
 66 71  1  0
 68 69  1  0
 69 70  1  0
 72 71  1  6
 72 73  1  0
 72 75  1  0
 73 74  2  0
 73 79  1  0
 75 76  1  0
 75 77  1  6
 76 78  1  0
 80 79  1  6
 80 81  1  0
 80 83  1  0
 81 82  2  0
 81 85  1  0
 83 84  1  0
 85 86  1  0
 86 87  1  0
 86 89  1  1
 87 88  2  0
 87 96  1  0
 89 90  1  0
 90 91  2  0
 90 92  1  0
 91 93  1  0
 92 94  2  0
 93 95  2  0
 94 95  1  0
 96 97  1  0
 96102  1  0
 97 98  1  0
 97100  1  6
 98 99  2  0
 98103  1  0
100101  1  0
101102  1  0
103104  1  0
104105  1  0
104107  1  6
105106  2  0
107108  1  0
108109  1  0
108110  2  0
 14112  1  0
M  CHG  1  42   1
M  END
$$$$
