
     RDKit          3D

112119  0  0  0  0  0  0  0  0999 V2000
   53.6302   19.5412  114.2467 N   0  0  0  0  0  0  0  0  0  0  0  0
   53.7432   18.7917  113.1715 C   0  0  2  0  0  0  0  0  0  0  0  0
   52.6347   18.3770  112.3117 C   0  0  0  0  0  0  0  0  0  0  0  0
   51.8155   19.2385  111.9099 O   0  0  0  0  0  0  0  0  0  0  0  0
   52.4056   17.0487  111.8849 N   0  0  0  0  0  0  0  0  0  0  0  0
   53.2965   15.9421  112.2360 C   0  0  2  0  0  0  0  0  0  0  0  0
   54.1768   15.6055  111.1105 C   0  0  0  0  0  0  0  0  0  0  0  0
   54.4790   14.3683  110.9576 O   0  0  0  0  0  0  0  0  0  0  0  0
   52.4197   14.8330  112.6935 C   0  0  0  0  0  0  0  0  0  0  0  0
   53.0612   13.5902  113.2042 C   0  0  0  0  0  0  0  0  0  0  0  0
   52.4469   12.3853  112.4757 C   0  0  0  0  0  0  0  0  0  0  0  0
   53.2175   11.9956  111.3266 N   0  0  0  0  0  0  0  0  0  0  0  0
   52.8681   10.8590  110.5543 C   0  0  0  0  0  0  0  0  0  0  0  0
   53.4972    9.7251  110.7177 N   0  0  0  0  0  0  0  0  0  0  0  0
   51.8229   10.9471  109.5904 N   0  0  0  0  0  0  0  0  0  0  0  0
   54.7256   16.5105  110.1796 N   0  0  0  0  0  0  0  0  0  0  0  0
   54.0776   17.3419  109.2106 C   0  0  2  0  0  0  0  0  0  0  0  0
   54.1724   16.8252  107.8099 C   0  0  0  0  0  0  0  0  0  0  0  0
   53.0382   16.6091  107.2201 O   0  0  0  0  0  0  0  0  0  0  0  0
   54.5317   18.7920  109.3091 C   0  0  0  0  0  0  0  0  0  0  0  0
   53.1603   19.8163  108.6464 S   0  0  0  0  0  0  0  0  0  0  0  0
   55.2971   16.5458  107.0643 N   0  0  0  0  0  0  0  0  0  0  0  0
   56.3965   17.4178  106.6457 C   0  0  2  0  0  0  0  0  0  0  0  0
   56.7803   17.0797  105.2302 C   0  0  0  0  0  0  0  0  0  0  0  0
   56.9236   15.8186  105.0284 O   0  0  0  0  0  0  0  0  0  0  0  0
   57.6247   17.1489  107.4985 C   0  0  0  0  0  0  0  0  0  0  0  0
   57.3254   16.4976  108.7891 C   0  0  0  0  0  0  0  0  0  0  0  0
   56.5492   15.3708  108.8314 C   0  0  0  0  0  0  0  0  0  0  0  0
   57.8205   17.0413  109.9771 C   0  0  0  0  0  0  0  0  0  0  0  0
   56.2769   14.7995  110.0675 C   0  0  0  0  0  0  0  0  0  0  0  0
   57.5607   16.4897  111.2048 C   0  0  0  0  0  0  0  0  0  0  0  0
   56.7692   15.3432  111.2302 C   0  0  0  0  0  0  0  0  0  0  0  0
   56.5009   14.7773  112.4771 O   0  0  0  0  0  0  0  0  0  0  0  0
   56.9873   17.9176  104.1630 N   0  0  0  0  0  0  0  0  0  0  0  0
   57.4701   19.2608  104.0821 C   0  0  2  0  0  0  0  0  0  0  0  0
   57.3004   19.9119  102.7705 C   0  0  0  0  0  0  0  0  0  0  0  0
   58.3062   20.6334  102.4045 O   0  0  0  0  0  0  0  0  0  0  0  0
   58.9702   19.1808  104.3697 C   0  0  0  0  0  0  0  0  0  0  0  0
   59.3264   17.7892  104.8156 C   0  0  0  0  0  0  0  0  0  0  0  0
   59.2981   16.8109  103.6580 C   0  0  0  0  0  0  0  0  0  0  0  0
   59.8046   15.4479  104.0827 C   0  0  0  0  0  0  0  0  0  0  0  0
   59.7842   14.5609  102.9301 N   0  0  0  0  0  4  0  0  0  0  0  0
   56.2217   19.8619  101.8758 N   0  0  0  0  0  0  0  0  0  0  0  0
   54.8704   20.3463  102.0043 C   0  0  2  0  0  0  0  0  0  0  0  0
   54.7124   21.5558  102.8515 C   0  0  0  0  0  0  0  0  0  0  0  0
   54.4828   21.2462  104.0869 O   0  0  0  0  0  0  0  0  0  0  0  0
   53.8583   19.2759  102.3182 C   0  0  0  0  0  0  0  0  0  0  0  0
   53.2988   19.3461  103.5664 O   0  0  0  0  0  0  0  0  0  0  0  0
   54.7849   22.8957  102.4678 N   0  0  0  0  0  0  0  0  0  0  0  0
   54.0903   23.6767  101.5192 C   0  0  2  0  0  0  0  0  0  0  0  0
   52.6112   23.5259  101.7845 C   0  0  0  0  0  0  0  0  0  0  0  0
   52.2256   22.3268  101.8798 O   0  0  0  0  0  0  0  0  0  0  0  0
   54.2781   23.4167  100.0710 C   0  0  2  0  0  0  0  0  0  0  0  0
   55.5693   23.9055   99.4836 C   0  0  0  0  0  0  0  0  0  0  0  0
   53.2018   24.2077   99.2689 C   0  0  0  0  0  0  0  0  0  0  0  0
   56.6941   24.1236  100.4217 C   0  0  0  0  0  0  0  0  0  0  0  0
   51.6820   24.5527  101.9268 N   0  0  0  0  0  0  0  0  0  0  0  0
   51.9933   25.8963  102.2918 C   0  0  2  0  0  0  0  0  0  0  0  0
   52.4483   26.1281  103.6708 C   0  0  0  0  0  0  0  0  0  0  0  0
   53.3081   25.2415  104.0719 O   0  0  0  0  0  0  0  0  0  0  0  0
   50.8895   26.7771  101.8060 C   0  0  0  0  0  0  0  0  0  0  0  0
   49.7862   25.8467  101.3594 C   0  0  0  0  0  0  0  0  0  0  0  0
   50.2353   24.4736  101.7227 C   0  0  0  0  0  0  0  0  0  0  0  0
   52.1514   27.1000  104.6267 N   0  0  0  0  0  0  0  0  0  0  0  0
   50.9961   27.2839  105.4750 C   0  0  2  0  0  0  0  0  0  0  0  0
   49.9994   26.2656  105.5506 C   0  0  0  0  0  0  0  0  0  0  0  0
   49.2678   25.9898  104.5379 O   0  0  0  0  0  0  0  0  0  0  0  0
   50.5689   28.6863  105.1864 C   0  0  0  0  0  0  0  0  0  0  0  0
   51.8912   29.3390  104.7720 C   0  0  0  0  0  0  0  0  0  0  0  0
   52.9375   28.2707  105.1325 C   0  0  0  0  0  0  0  0  0  0  0  0
   49.7517   25.4963  106.7353 N   0  0  0  0  0  0  0  0  0  0  0  0
   49.6779   26.0547  108.0746 C   0  0  2  0  0  0  0  0  0  0  0  0
   50.9394   25.9855  108.8305 C   0  0  0  0  0  0  0  0  0  0  0  0
   51.4116   27.1287  109.2036 O   0  0  0  0  0  0  0  0  0  0  0  0
   48.5123   25.3582  108.7562 C   0  0  2  0  0  0  0  0  0  0  0  0
   48.4419   23.9773  108.0838 C   0  0  0  0  0  0  0  0  0  0  0  0
   47.2361   26.0758  108.4253 C   0  0  0  0  0  0  0  0  0  0  0  0
   49.7761   23.5189  107.5864 C   0  0  0  0  0  0  0  0  0  0  0  0
   51.6858   24.8547  109.1938 N   0  0  0  0  0  0  0  0  0  0  0  0
   51.3423   23.7871  110.1095 C   0  0  2  0  0  0  0  0  0  0  0  0
   52.4295   23.7424  111.1382 C   0  0  0  0  0  0  0  0  0  0  0  0
   53.5939   23.5414  110.6139 O   0  0  0  0  0  0  0  0  0  0  0  0
   51.4534   22.4672  109.3249 C   0  0  0  0  0  0  0  0  0  0  0  0
   52.9201   21.5544  109.8105 S   0  0  0  0  0  0  0  0  0  0  0  0
   52.3098   23.8889  112.5345 N   0  0  0  0  0  0  0  0  0  0  0  0
   51.9145   25.0326  113.2824 C   0  0  2  0  0  0  0  0  0  0  0  0
   51.0340   24.8619  114.4438 C   0  0  0  0  0  0  0  0  0  0  0  0
   51.5262   25.4959  115.4999 O   0  0  0  0  0  0  0  0  0  0  0  0
   51.4868   26.1877  112.3670 C   0  0  0  0  0  0  0  0  0  0  0  0
   50.5552   25.7573  111.2978 C   0  0  0  0  0  0  0  0  0  0  0  0
   50.2662   24.3939  111.1280 C   0  0  0  0  0  0  0  0  0  0  0  0
   49.9068   26.6051  110.4351 C   0  0  0  0  0  0  0  0  0  0  0  0
   49.4131   23.9066  110.1901 C   0  0  0  0  0  0  0  0  0  0  0  0
   49.0408   26.1401  109.4796 C   0  0  0  0  0  0  0  0  0  0  0  0
   48.7710   24.7778  109.3319 C   0  0  0  0  0  0  0  0  0  0  0  0
   49.8320   24.1998  114.6615 N   0  0  0  0  0  0  0  0  0  0  0  0
   49.4291   22.8308  114.6098 C   0  0  2  0  0  0  0  0  0  0  0  0
   50.2091   21.8276  113.9447 C   0  0  0  0  0  0  0  0  0  0  0  0
   50.0866   21.6943  112.6672 O   0  0  0  0  0  0  0  0  0  0  0  0
   48.0817   22.9016  113.8483 C   0  0  0  0  0  0  0  0  0  0  0  0
   47.5548   24.2977  114.0693 C   0  0  0  0  0  0  0  0  0  0  0  0
   48.5354   24.7953  115.0930 C   0  0  0  0  0  0  0  0  0  0  0  0
   51.1313   20.9240  114.5365 N   0  0  0  0  0  0  0  0  0  0  0  0
   52.2631   21.2920  115.3729 C   0  0  2  0  0  0  0  0  0  0  0  0
   53.5460   20.8520  114.7044 C   0  0  0  0  0  0  0  0  0  0  0  0
   54.4144   21.7606  114.6410 O   0  0  0  0  0  0  0  0  0  0  0  0
   52.2120   20.5312  116.6949 C   0  0  0  0  0  0  0  0  0  0  0  0
   51.0318   20.9993  117.4546 C   0  0  0  0  0  0  0  0  0  0  0  0
   49.8479   20.2370  117.5060 O   0  0  0  0  0  0  0  0  0  0  0  0
   50.9810   22.0726  118.0958 O   0  0  0  0  0  0  0  0  0  0  0  0
   53.6807   18.0999  114.4482 O   0  0  0  0  0  0  0  0  0  0  0  0
   54.1195    9.6410  111.5521 H   0  0  0  0  0  0  0  0  0  0  0  0
  1  2  1  0
  1105  1  0
  1111  1  0
  2  3  1  0
  2111  1  1
  3  4  2  0
  3  5  1  0
  5  6  1  0
  6  7  1  0
  6  9  1  6
  7  8  2  0
  7 16  1  0
  9 10  1  0
 10 11  1  0
 11 12  1  0
 12 13  1  0
 13 14  2  0
 13 15  1  0
 17 16  1  1
 17 18  1  0
 17 20  1  0
 18 19  2  0
 18 22  1  0
 20 21  1  0
 21 84  1  0
 22 23  1  0
 23 24  1  0
 23 26  1  1
 24 25  2  0
 24 34  1  0
 26 27  1  0
 27 28  2  0
 27 29  1  0
 28 30  1  0
 29 31  2  0
 30 32  2  0
 31 32  1  0
 32 33  1  0
 34 35  1  0
 35 36  1  0
 35 38  1  6
 36 37  2  0
 36 43  1  0
 38 39  1  0
 39 40  1  0
 40 41  1  0
 41 42  1  0
 43 44  1  0
 44 45  1  0
 44 47  1  1
 45 46  2  0
 45 49  1  0
 47 48  1  0
 50 49  1  1
 50 51  1  0
 50 53  1  0
 51 52  2  0
 51 57  1  0
 53 54  1  0
 53 55  1  6
 54 56  1  0
 57 58  1  0
 57 63  1  0
 58 59  1  0
 58 61  1  1
 59 60  2  0
 59 64  1  0
 61 62  1  0
 62 63  1  0
 64 65  1  0
 64 70  1  0
 65 66  1  0
 65 68  1  6
 66 67  2  0
 66 71  1  0
 68 69  1  0
 69 70  1  0
 72 71  1  6
 72 73  1  0
 72 75  1  0
 73 74  2  0
 73 79  1  0
 75 76  1  0
 75 77  1  6
 76 78  1  0
 80 79  1  6
 80 81  1  0
 80 83  1  0
 81 82  2  0
 81 85  1  0
 83 84  1  0
 85 86  1  0
 86 87  1  0
 86 89  1  6
 87 88  2  0
 87 96  1  0
 89 90  1  0
 90 91  2  0
 90 92  1  0
 91 93  1  0
 92 94  2  0
 93 95  2  0
 94 95  1  0
 96 97  1  0
 96102  1  0
 97 98  1  0
 97100  1  6
 98 99  2  0
 98103  1  0
100101  1  0
101102  1  0
103104  1  0
104105  1  0
104107  1  1
105106  2  0
107108  1  0
108109  1  0
108110  2  0
 14112  1  0
M  CHG  1  42   1
M  END
$$$$
