
     RDKit          3D

112119  0  0  0  0  0  0  0  0999 V2000
   55.1921   17.3391  112.2499 N   0  0  0  0  0  0  0  0  0  0  0  0
   55.1183   17.1281  110.9536 C   0  0  2  0  0  0  0  0  0  0  0  0
   53.8783   16.9658  110.1944 C   0  0  0  0  0  0  0  0  0  0  0  0
   52.9525   17.7988  110.3478 O   0  0  0  0  0  0  0  0  0  0  0  0
   53.6323   15.9186  109.2769 N   0  0  0  0  0  0  0  0  0  0  0  0
   54.6299   14.8959  108.9602 C   0  0  2  0  0  0  0  0  0  0  0  0
   55.2751   15.1793  107.6726 C   0  0  0  0  0  0  0  0  0  0  0  0
   55.6001   14.1707  106.9498 O   0  0  0  0  0  0  0  0  0  0  0  0
   53.9219   13.5911  109.0276 C   0  0  0  0  0  0  0  0  0  0  0  0
   54.7191   12.3452  108.8568 C   0  0  0  0  0  0  0  0  0  0  0  0
   56.0388   12.4969  109.6281 C   0  0  0  0  0  0  0  0  0  0  0  0
   55.9622   11.9367  110.9497 N   0  0  0  0  0  0  0  0  0  0  0  0
   56.3761   10.6063  111.2128 C   0  0  0  0  0  0  0  0  0  0  0  0
   57.6087   10.3507  111.5645 N   0  0  0  0  0  0  0  0  0  0  0  0
   55.4452    9.5345  111.0949 N   0  0  0  0  0  0  0  0  0  0  0  0
   55.5753   16.4541  107.1512 N   0  0  0  0  0  0  0  0  0  0  0  0
   54.7014   17.5192  106.7613 C   0  0  2  0  0  0  0  0  0  0  0  0
   54.5313   17.6507  105.2808 C   0  0  0  0  0  0  0  0  0  0  0  0
   53.3121   17.5511  104.8512 O   0  0  0  0  0  0  0  0  0  0  0  0
   55.0939   18.8426  107.4040 C   0  0  0  0  0  0  0  0  0  0  0  0
   53.5667   19.8572  107.4880 S   0  0  0  0  0  0  0  0  0  0  0  0
   55.4908   17.8599  104.3141 N   0  0  0  0  0  0  0  0  0  0  0  0
   56.4361   18.9649  104.1416 C   0  0  2  0  0  0  0  0  0  0  0  0
   56.5365   19.3017  102.6782 C   0  0  0  0  0  0  0  0  0  0  0  0
   56.6974   18.2708  101.9278 O   0  0  0  0  0  0  0  0  0  0  0  0
   57.8253   18.5312  104.5778 C   0  0  0  0  0  0  0  0  0  0  0  0
   58.1544   17.1361  104.2252 C   0  0  0  0  0  0  0  0  0  0  0  0
   57.2039   16.3197  103.6735 C   0  0  0  0  0  0  0  0  0  0  0  0
   59.4362   16.6374  104.4705 C   0  0  0  0  0  0  0  0  0  0  0  0
   57.5496   15.0088  103.3729 C   0  0  0  0  0  0  0  0  0  0  0  0
   59.7932   15.3462  104.1798 C   0  0  0  0  0  0  0  0  0  0  0  0
   58.8141   14.5287  103.6188 C   0  0  0  0  0  0  0  0  0  0  0  0
   59.1713   13.2131  103.3211 O   0  0  0  0  0  0  0  0  0  0  0  0
   56.4778   20.5274  102.0633 N   0  0  0  0  0  0  0  0  0  0  0  0
   56.8667   21.8333  102.4960 C   0  0  2  0  0  0  0  0  0  0  0  0
   56.3988   22.9426  101.6455 C   0  0  0  0  0  0  0  0  0  0  0  0
   57.2708   23.8779  101.4695 O   0  0  0  0  0  0  0  0  0  0  0  0
   58.3960   21.8413  102.4691 C   0  0  0  0  0  0  0  0  0  0  0  0
   58.9276   21.2270  103.7349 C   0  0  0  0  0  0  0  0  0  0  0  0
   58.0234   21.5190  104.9161 C   0  0  0  0  0  0  0  0  0  0  0  0
   58.6166   20.9834  106.2031 C   0  0  0  0  0  0  0  0  0  0  0  0
   58.7821   22.0864  107.1367 N   0  0  0  0  0  4  0  0  0  0  0  0
   55.1629   23.1268  101.0090 N   0  0  0  0  0  0  0  0  0  0  0  0
   53.8446   23.3289  101.5557 C   0  0  2  0  0  0  0  0  0  0  0  0
   53.8049   24.0426  102.8575 C   0  0  0  0  0  0  0  0  0  0  0  0
   53.8501   23.2188  103.8545 O   0  0  0  0  0  0  0  0  0  0  0  0
   52.9730   22.1007  101.5349 C   0  0  0  0  0  0  0  0  0  0  0  0
   52.8386   21.4570  102.7363 O   0  0  0  0  0  0  0  0  0  0  0  0
   53.7306   25.4170  103.0881 N   0  0  0  0  0  0  0  0  0  0  0  0
   52.8179   26.4220  102.7019 C   0  0  2  0  0  0  0  0  0  0  0  0
   51.4345   25.9789  103.1145 C   0  0  0  0  0  0  0  0  0  0  0  0
   51.1364   24.8095  102.7412 O   0  0  0  0  0  0  0  0  0  0  0  0
   52.7162   26.8166  101.2756 C   0  0  2  0  0  0  0  0  0  0  0  0
   53.8780   26.4301  100.4084 C   0  0  0  0  0  0  0  0  0  0  0  0
   52.7030   28.3716  101.1782 C   0  0  0  0  0  0  0  0  0  0  0  0
   54.4533   25.0818  100.6178 C   0  0  0  0  0  0  0  0  0  0  0  0
   50.5049   26.7192  103.8397 N   0  0  0  0  0  0  0  0  0  0  0  0
   50.8180   27.8169  104.6956 C   0  0  2  0  0  0  0  0  0  0  0  0
   51.5350   27.5113  105.9425 C   0  0  0  0  0  0  0  0  0  0  0  0
   52.5016   26.6615  105.7709 O   0  0  0  0  0  0  0  0  0  0  0  0
   49.5957   28.6644  104.8298 C   0  0  0  0  0  0  0  0  0  0  0  0
   48.4713   27.8668  104.2115 C   0  0  0  0  0  0  0  0  0  0  0  0
   49.0528   26.5405  103.8626 C   0  0  0  0  0  0  0  0  0  0  0  0
   51.3936   27.9475  107.2602 N   0  0  0  0  0  0  0  0  0  0  0  0
   50.4299   27.6056  108.2813 C   0  0  2  0  0  0  0  0  0  0  0  0
   49.5216   26.5257  108.0697 C   0  0  0  0  0  0  0  0  0  0  0  0
   48.6119   26.6022  107.1735 O   0  0  0  0  0  0  0  0  0  0  0  0
   49.8838   28.9302  108.7055 C   0  0  0  0  0  0  0  0  0  0  0  0
   51.0586   29.8658  108.4047 C   0  0  0  0  0  0  0  0  0  0  0  0
   52.2082   28.8943  108.0875 C   0  0  0  0  0  0  0  0  0  0  0  0
   49.5614   25.3073  108.8251 N   0  0  0  0  0  0  0  0  0  0  0  0
   49.7374   25.2417  110.2659 C   0  0  2  0  0  0  0  0  0  0  0  0
   51.1294   25.0325  110.6976 C   0  0  0  0  0  0  0  0  0  0  0  0
   51.6112   25.9680  111.4470 O   0  0  0  0  0  0  0  0  0  0  0  0
   48.7729   24.1761  110.7584 C   0  0  2  0  0  0  0  0  0  0  0  0
   48.5401   24.5213  112.2385 C   0  0  0  0  0  0  0  0  0  0  0  0
   49.4447   22.8344  110.7185 C   0  0  0  0  0  0  0  0  0  0  0  0
   49.3608   25.6895  112.6852 C   0  0  0  0  0  0  0  0  0  0  0  0
   51.9894   23.9636  110.4050 N   0  0  0  0  0  0  0  0  0  0  0  0
   51.8948   22.5763  110.8083 C   0  0  2  0  0  0  0  0  0  0  0  0
   53.1714   22.2523  111.5209 C   0  0  0  0  0  0  0  0  0  0  0  0
   54.2114   22.4450  110.7777 O   0  0  0  0  0  0  0  0  0  0  0  0
   51.9072   21.7310  109.5217 C   0  0  0  0  0  0  0  0  0  0  0  0
   53.4856   20.9032  109.3137 S   0  0  0  0  0  0  0  0  0  0  0  0
   53.3345   21.7863  112.8406 N   0  0  0  0  0  0  0  0  0  0  0  0
   53.0457   22.4506  114.0650 C   0  0  2  0  0  0  0  0  0  0  0  0
   52.4326   21.6959  115.1640 C   0  0  0  0  0  0  0  0  0  0  0  0
   53.0997   21.8916  116.2937 O   0  0  0  0  0  0  0  0  0  0  0  0
   52.3822   23.8137  113.8268 C   0  0  0  0  0  0  0  0  0  0  0  0
   51.0561   23.7000  113.1751 C   0  0  0  0  0  0  0  0  0  0  0  0
   50.6794   22.4957  112.5595 C   0  0  0  0  0  0  0  0  0  0  0  0
   50.1153   24.6983  113.1329 C   0  0  0  0  0  0  0  0  0  0  0  0
   49.4808   22.2912  111.9544 C   0  0  0  0  0  0  0  0  0  0  0  0
   48.8978   24.5188  112.5290 C   0  0  0  0  0  0  0  0  0  0  0  0
   48.5483   23.3098  111.9235 C   0  0  0  0  0  0  0  0  0  0  0  0
   51.3353   20.8498  115.2668 N   0  0  0  0  0  0  0  0  0  0  0  0
   50.9986   19.5866  114.6923 C   0  0  2  0  0  0  0  0  0  0  0  0
   51.6735   19.0653  113.5391 C   0  0  0  0  0  0  0  0  0  0  0  0
   51.2974   19.4614  112.3701 O   0  0  0  0  0  0  0  0  0  0  0  0
   49.5214   19.7881  114.2704 C   0  0  0  0  0  0  0  0  0  0  0  0
   48.9830   20.8813  115.1596 C   0  0  0  0  0  0  0  0  0  0  0  0
   50.1275   21.0328  116.1210 C   0  0  0  0  0  0  0  0  0  0  0  0
   52.7412   18.1291  113.5187 N   0  0  0  0  0  0  0  0  0  0  0  0
   54.0014   18.2622  114.2330 C   0  0  2  0  0  0  0  0  0  0  0  0
   55.1393   18.3160  113.2388 C   0  0  0  0  0  0  0  0  0  0  0  0
   55.9302   19.2751  113.4346 O   0  0  0  0  0  0  0  0  0  0  0  0
   54.2610   17.0205  115.0814 C   0  0  0  0  0  0  0  0  0  0  0  0
   55.2215   17.3794  116.1479 C   0  0  0  0  0  0  0  0  0  0  0  0
   55.4759   16.5068  117.2245 O   0  0  0  0  0  0  0  0  0  0  0  0
   55.8699   18.4488  116.1881 O   0  0  0  0  0  0  0  0  0  0  0  0
   55.3542   15.9658  111.7937 O   0  0  0  0  0  0  0  0  0  0  0  0
   58.3322   11.0624  111.3183 H   0  0  0  0  0  0  0  0  0  0  0  0
  1  2  1  0
  1105  1  0
  1111  1  0
  2  3  1  0
  2111  1  1
  3  4  2  0
  3  5  1  0
  5  6  1  0
  6  7  1  0
  6  9  1  6
  7  8  2  0
  7 16  1  0
  9 10  1  0
 10 11  1  0
 11 12  1  0
 12 13  1  0
 13 14  2  0
 13 15  1  0
 17 16  1  6
 17 18  1  0
 17 20  1  0
 18 19  2  0
 18 22  1  0
 20 21  1  0
 21 84  1  0
 22 23  1  0
 23 24  1  0
 23 26  1  6
 24 25  2  0
 24 34  1  0
 26 27  1  0
 27 28  2  0
 27 29  1  0
 28 30  1  0
 29 31  2  0
 30 32  2  0
 31 32  1  0
 32 33  1  0
 34 35  1  0
 35 36  1  0
 35 38  1  6
 36 37  2  0
 36 43  1  0
 38 39  1  0
 39 40  1  0
 40 41  1  0
 41 42  1  0
 43 44  1  0
 44 45  1  0
 44 47  1  1
 45 46  2  0
 45 49  1  0
 47 48  1  0
 50 49  1  6
 50 51  1  0
 50 53  1  0
 51 52  2  0
 51 57  1  0
 53 54  1  0
 53 55  1  1
 54 56  1  0
 57 58  1  0
 57 63  1  0
 58 59  1  0
 58 61  1  1
 59 60  2  0
 59 64  1  0
 61 62  1  0
 62 63  1  0
 64 65  1  0
 64 70  1  0
 65 66  1  0
 65 68  1  6
 66 67  2  0
 66 71  1  0
 68 69  1  0
 69 70  1  0
 72 71  1  6
 72 73  1  0
 72 75  1  0
 73 74  2  0
 73 79  1  0
 75 76  1  0
 75 77  1  1
 76 78  1  0
 80 79  1  6
 80 81  1  0
 80 83  1  0
 81 82  2  0
 81 85  1  0
 83 84  1  0
 85 86  1  0
 86 87  1  0
 86 89  1  6
 87 88  2  0
 87 96  1  0
 89 90  1  0
 90 91  2  0
 90 92  1  0
 91 93  1  0
 92 94  2  0
 93 95  2  0
 94 95  1  0
 96 97  1  0
 96102  1  0
 97 98  1  0
 97100  1  6
 98 99  2  0
 98103  1  0
100101  1  0
101102  1  0
103104  1  0
104105  1  0
104107  1  1
105106  2  0
107108  1  0
108109  1  0
108110  2  0
 14112  1  0
M  CHG  1  42   1
M  END
$$$$
