
     RDKit          3D

112119  0  0  0  0  0  0  0  0999 V2000
   57.0625   17.6273  107.6845 N   0  0  0  0  0  0  0  0  0  0  0  0
   56.5593   18.1614  106.5928 C   0  0  2  0  0  0  0  0  0  0  0  0
   55.2383   17.8633  106.0392 C   0  0  0  0  0  0  0  0  0  0  0  0
   54.2369   17.8908  106.7948 O   0  0  0  0  0  0  0  0  0  0  0  0
   54.9921   17.5385  104.6854 N   0  0  0  0  0  0  0  0  0  0  0  0
   56.0510   17.5073  103.6758 C   0  0  2  0  0  0  0  0  0  0  0  0
   56.0219   18.7228  102.8534 C   0  0  0  0  0  0  0  0  0  0  0  0
   56.3348   18.5960  101.6159 O   0  0  0  0  0  0  0  0  0  0  0  0
   55.8671   16.2406  102.9210 C   0  0  0  0  0  0  0  0  0  0  0  0
   56.7421   15.0840  103.2580 C   0  0  0  0  0  0  0  0  0  0  0  0
   58.2031   15.5586  103.2632 C   0  0  0  0  0  0  0  0  0  0  0  0
   59.1303   14.4602  103.2633 N   0  0  0  0  0  0  0  0  0  0  0  0
   60.5311   14.6764  103.3016 C   0  0  0  0  0  0  0  0  0  0  0  0
   61.0328   15.6627  103.9969 N   0  0  0  0  0  0  0  0  0  0  0  0
   61.4046   13.8144  102.5783 N   0  0  0  0  0  0  0  0  0  0  0  0
   55.6846   20.0196  103.2908 N   0  0  0  0  0  0  0  0  0  0  0  0
   54.4448   20.5286  103.7950 C   0  0  2  0  0  0  0  0  0  0  0  0
   53.6803   21.3490  102.8047 C   0  0  0  0  0  0  0  0  0  0  0  0
   52.4863   20.9221  102.5345 O   0  0  0  0  0  0  0  0  0  0  0  0
   54.6257   21.2632  105.1164 C   0  0  0  0  0  0  0  0  0  0  0  0
   53.0192   21.1581  105.9980 S   0  0  0  0  0  0  0  0  0  0  0  0
   54.0717   22.4911  102.1406 N   0  0  0  0  0  0  0  0  0  0  0  0
   54.4825   23.7963  102.6622 C   0  0  2  0  0  0  0  0  0  0  0  0
   53.8957   24.8785  101.7964 C   0  0  0  0  0  0  0  0  0  0  0  0
   54.0624   24.6715  100.5389 O   0  0  0  0  0  0  0  0  0  0  0  0
   55.9917   23.9413  102.5656 C   0  0  0  0  0  0  0  0  0  0  0  0
   56.4360   25.2694  102.0988 C   0  0  0  0  0  0  0  0  0  0  0  0
   56.2905   25.6248  100.7848 C   0  0  0  0  0  0  0  0  0  0  0  0
   57.0246   26.1642  102.9959 C   0  0  0  0  0  0  0  0  0  0  0  0
   56.7377   26.8766  100.3832 C   0  0  0  0  0  0  0  0  0  0  0  0
   57.4714   27.4030  102.6155 C   0  0  0  0  0  0  0  0  0  0  0  0
   57.3157   27.7490  101.2747 C   0  0  0  0  0  0  0  0  0  0  0  0
   57.7688   29.0087  100.8812 O   0  0  0  0  0  0  0  0  0  0  0  0
   53.2259   26.0181  102.1655 N   0  0  0  0  0  0  0  0  0  0  0  0
   53.3273   26.8546  103.3204 C   0  0  2  0  0  0  0  0  0  0  0  0
   52.2468   27.8452  103.4759 C   0  0  0  0  0  0  0  0  0  0  0  0
   52.6451   29.0016  103.8886 O   0  0  0  0  0  0  0  0  0  0  0  0
   54.6410   27.6220  103.1632 C   0  0  0  0  0  0  0  0  0  0  0  0
   55.7520   26.6618  102.8377 C   0  0  0  0  0  0  0  0  0  0  0  0
   55.2333   25.2467  102.6759 C   0  0  0  0  0  0  0  0  0  0  0  0
   55.7623   24.3429  103.7707 C   0  0  0  0  0  0  0  0  0  0  0  0
   55.3473   22.9772  103.4914 N   0  0  0  0  0  4  0  0  0  0  0  0
   50.8698   27.7163  103.2438 N   0  0  0  0  0  0  0  0  0  0  0  0
   49.8764   26.9084  103.9056 C   0  0  2  0  0  0  0  0  0  0  0  0
   50.1276   26.6564  105.3474 C   0  0  0  0  0  0  0  0  0  0  0  0
   50.8099   25.5721  105.5302 O   0  0  0  0  0  0  0  0  0  0  0  0
   49.4924   25.6622  103.1519 C   0  0  0  0  0  0  0  0  0  0  0  0
   48.2893   25.1110  103.5048 O   0  0  0  0  0  0  0  0  0  0  0  0
   49.7272   27.4242  106.4419 N   0  0  0  0  0  0  0  0  0  0  0  0
   48.4739   27.8714  106.9124 C   0  0  2  0  0  0  0  0  0  0  0  0
   47.5715   26.6684  107.0506 C   0  0  0  0  0  0  0  0  0  0  0  0
   47.5297   25.9360  106.0222 O   0  0  0  0  0  0  0  0  0  0  0  0
   47.7083   28.8735  106.1313 C   0  0  2  0  0  0  0  0  0  0  0  0
   46.9622   28.3417  104.9433 C   0  0  0  0  0  0  0  0  0  0  0  0
   48.7028   29.8923  105.4985 C   0  0  0  0  0  0  0  0  0  0  0  0
   46.2027   29.3214  104.1333 C   0  0  0  0  0  0  0  0  0  0  0  0
   46.8180   26.3168  108.1672 N   0  0  0  0  0  0  0  0  0  0  0  0
   47.0828   26.7424  109.5029 C   0  0  2  0  0  0  0  0  0  0  0  0
   48.2848   26.1999  110.1535 C   0  0  0  0  0  0  0  0  0  0  0  0
   49.3198   26.1909  109.3694 O   0  0  0  0  0  0  0  0  0  0  0  0
   45.8122   26.6454  110.2817 C   0  0  0  0  0  0  0  0  0  0  0  0
   44.8432   25.8960  109.3974 C   0  0  0  0  0  0  0  0  0  0  0  0
   45.6226   25.4738  108.2002 C   0  0  0  0  0  0  0  0  0  0  0  0
   48.5399   25.7015  111.4314 N   0  0  0  0  0  0  0  0  0  0  0  0
   48.2072   24.4374  112.0476 C   0  0  2  0  0  0  0  0  0  0  0  0
   47.6713   23.3787  111.2552 C   0  0  0  0  0  0  0  0  0  0  0  0
   46.5096   23.4789  110.7290 O   0  0  0  0  0  0  0  0  0  0  0  0
   47.4883   24.8344  113.2959 C   0  0  0  0  0  0  0  0  0  0  0  0
   48.1007   26.2075  113.5884 C   0  0  0  0  0  0  0  0  0  0  0  0
   49.2754   26.2857  112.5985 C   0  0  0  0  0  0  0  0  0  0  0  0
   48.3771   22.1573  110.9967 N   0  0  0  0  0  0  0  0  0  0  0  0
   49.1109   21.4064  112.0010 C   0  0  2  0  0  0  0  0  0  0  0  0
   50.5513   21.7072  112.0506 C   0  0  0  0  0  0  0  0  0  0  0  0
   50.9712   22.1640  113.1837 O   0  0  0  0  0  0  0  0  0  0  0  0
   48.7958   19.9425  111.7438 C   0  0  2  0  0  0  0  0  0  0  0  0
   49.7451   19.1740  112.6778 C   0  0  0  0  0  0  0  0  0  0  0  0
   49.1779   19.5869  110.3364 C   0  0  0  0  0  0  0  0  0  0  0  0
   50.8663   20.0292  113.1772 C   0  0  0  0  0  0  0  0  0  0  0  0
   51.5145   21.5644  111.0409 N   0  0  0  0  0  0  0  0  0  0  0  0
   52.0191   20.3567  110.4219 C   0  0  2  0  0  0  0  0  0  0  0  0
   53.5042   20.3689  110.6131 C   0  0  0  0  0  0  0  0  0  0  0  0
   54.0575   21.4164  110.0956 O   0  0  0  0  0  0  0  0  0  0  0  0
   51.7908   20.4979  108.9060 C   0  0  0  0  0  0  0  0  0  0  0  0
   53.3355   20.8228  108.0526 S   0  0  0  0  0  0  0  0  0  0  0  0
   54.3037   19.4071  111.2621 N   0  0  0  0  0  0  0  0  0  0  0  0
   54.3239   19.0424  112.6370 C   0  0  2  0  0  0  0  0  0  0  0  0
   54.4534   17.6272  113.0026 C   0  0  0  0  0  0  0  0  0  0  0  0
   55.4113   17.4643  113.9057 O   0  0  0  0  0  0  0  0  0  0  0  0
   53.2335   19.7726  113.4326 C   0  0  0  0  0  0  0  0  0  0  0  0
   51.8647   19.4150  112.9909 C   0  0  0  0  0  0  0  0  0  0  0  0
   50.8728   19.1336  113.9438 C   0  0  0  0  0  0  0  0  0  0  0  0
   51.4552   19.3500  111.6827 C   0  0  0  0  0  0  0  0  0  0  0  0
   49.5887   18.8152  113.6361 C   0  0  0  0  0  0  0  0  0  0  0  0
   50.1656   19.0313  111.3443 C   0  0  0  0  0  0  0  0  0  0  0  0
   49.1978   18.7554  112.3127 C   0  0  0  0  0  0  0  0  0  0  0  0
   53.8036   16.4615  112.6163 N   0  0  0  0  0  0  0  0  0  0  0  0
   53.6790   15.7574  111.3802 C   0  0  2  0  0  0  0  0  0  0  0  0
   53.9771   16.3684  110.1173 C   0  0  0  0  0  0  0  0  0  0  0  0
   53.0732   17.0960  109.5530 O   0  0  0  0  0  0  0  0  0  0  0  0
   52.1710   15.4043  111.3407 C   0  0  0  0  0  0  0  0  0  0  0  0
   51.7114   15.3926  112.7775 C   0  0  0  0  0  0  0  0  0  0  0  0
   53.0315   15.5256  113.4822 C   0  0  0  0  0  0  0  0  0  0  0  0
   55.1855   16.2672  109.3778 N   0  0  0  0  0  0  0  0  0  0  0  0
   56.5155   16.5800  109.8770 C   0  0  2  0  0  0  0  0  0  0  0  0
   57.0991   17.7193  109.0721 C   0  0  0  0  0  0  0  0  0  0  0  0
   57.5643   18.6476  109.7830 O   0  0  0  0  0  0  0  0  0  0  0  0
   57.4554   15.3993  109.6509 C   0  0  0  0  0  0  0  0  0  0  0  0
   58.6825   15.6237  110.4465 C   0  0  0  0  0  0  0  0  0  0  0  0
   59.7469   14.7009  110.4220 O   0  0  0  0  0  0  0  0  0  0  0  0
   58.8783   16.6156  111.1837 O   0  0  0  0  0  0  0  0  0  0  0  0
   57.4508   17.0273  106.4159 O   0  0  0  0  0  0  0  0  0  0  0  0
   61.9074   16.1045  103.6355 H   0  0  0  0  0  0  0  0  0  0  0  0
  1  2  1  0
  1105  1  0
  1111  1  0
  2  3  1  0
  2111  1  6
  3  4  2  0
  3  5  1  0
  5  6  1  0
  6  7  1  0
  6  9  1  6
  7  8  2  0
  7 16  1  0
  9 10  1  0
 10 11  1  0
 11 12  1  0
 12 13  1  0
 13 14  2  0
 13 15  1  0
 17 16  1  6
 17 18  1  0
 17 20  1  0
 18 19  2  0
 18 22  1  0
 20 21  1  0
 21 84  1  0
 22 23  1  0
 23 24  1  0
 23 26  1  6
 24 25  2  0
 24 34  1  0
 26 27  1  0
 27 28  2  0
 27 29  1  0
 28 30  1  0
 29 31  2  0
 30 32  2  0
 31 32  1  0
 32 33  1  0
 34 35  1  0
 35 36  1  0
 35 38  1  6
 36 37  2  0
 36 43  1  0
 38 39  1  0
 39 40  1  0
 40 41  1  0
 41 42  1  0
 43 44  1  0
 44 45  1  0
 44 47  1  6
 45 46  2  0
 45 49  1  0
 47 48  1  0
 50 49  1  6
 50 51  1  0
 50 53  1  0
 51 52  2  0
 51 57  1  0
 53 54  1  0
 53 55  1  6
 54 56  1  0
 57 58  1  0
 57 63  1  0
 58 59  1  0
 58 61  1  1
 59 60  2  0
 59 64  1  0
 61 62  1  0
 62 63  1  0
 64 65  1  0
 64 70  1  0
 65 66  1  0
 65 68  1  1
 66 67  2  0
 66 71  1  0
 68 69  1  0
 69 70  1  0
 72 71  1  6
 72 73  1  0
 72 75  1  0
 73 74  2  0
 73 79  1  0
 75 76  1  0
 75 77  1  6
 76 78  1  0
 80 79  1  1
 80 81  1  0
 80 83  1  0
 81 82  2  0
 81 85  1  0
 83 84  1  0
 85 86  1  0
 86 87  1  0
 86 89  1  6
 87 88  2  0
 87 96  1  0
 89 90  1  0
 90 91  2  0
 90 92  1  0
 91 93  1  0
 92 94  2  0
 93 95  2  0
 94 95  1  0
 96 97  1  0
 96102  1  0
 97 98  1  0
 97100  1  6
 98 99  2  0
 98103  1  0
100101  1  0
101102  1  0
103104  1  0
104105  1  0
104107  1  6
105106  2  0
107108  1  0
108109  1  0
108110  2  0
 14112  1  0
M  CHG  1  42   1
M  END
$$$$
