
     RDKit          3D

112119  0  0  0  0  0  0  0  0999 V2000
   54.3378   17.2930  112.7840 N   0  0  0  0  0  0  0  0  0  0  0  0
   54.6996   17.1938  111.5232 C   0  0  2  0  0  0  0  0  0  0  0  0
   53.8295   16.7681  110.4267 C   0  0  0  0  0  0  0  0  0  0  0  0
   52.6971   17.2945  110.3035 O   0  0  0  0  0  0  0  0  0  0  0  0
   54.1706   15.7856  109.4690 N   0  0  0  0  0  0  0  0  0  0  0  0
   55.4702   15.1130  109.4565 C   0  0  2  0  0  0  0  0  0  0  0  0
   56.3419   15.6844  108.4229 C   0  0  0  0  0  0  0  0  0  0  0  0
   57.1381   14.8781  107.8219 O   0  0  0  0  0  0  0  0  0  0  0  0
   55.1852   13.6631  109.2984 C   0  0  0  0  0  0  0  0  0  0  0  0
   55.0947   12.8233  110.5245 C   0  0  0  0  0  0  0  0  0  0  0  0
   56.3886   12.9954  111.3344 C   0  0  0  0  0  0  0  0  0  0  0  0
   57.1507   11.7787  111.4044 N   0  0  0  0  0  0  0  0  0  0  0  0
   58.5641   11.7982  111.5162 C   0  0  0  0  0  0  0  0  0  0  0  0
   59.2280   10.6964  111.7474 N   0  0  0  0  0  0  0  0  0  0  0  0
   59.2725   13.0260  111.3759 N   0  0  0  0  0  0  0  0  0  0  0  0
   56.3918   17.0359  108.0257 N   0  0  0  0  0  0  0  0  0  0  0  0
   55.3932   17.8502  107.4012 C   0  0  2  0  0  0  0  0  0  0  0  0
   55.6192   18.0694  105.9387 C   0  0  0  0  0  0  0  0  0  0  0  0
   54.6564   17.6781  105.1636 O   0  0  0  0  0  0  0  0  0  0  0  0
   55.1832   19.1634  108.1429 C   0  0  0  0  0  0  0  0  0  0  0  0
   53.4681   19.7040  107.7750 S   0  0  0  0  0  0  0  0  0  0  0  0
   56.7086   18.6262  105.3047 N   0  0  0  0  0  0  0  0  0  0  0  0
   57.2985   19.9604  105.4317 C   0  0  2  0  0  0  0  0  0  0  0  0
   57.7068   20.4491  104.0681 C   0  0  0  0  0  0  0  0  0  0  0  0
   58.3674   19.5787  103.3915 O   0  0  0  0  0  0  0  0  0  0  0  0
   58.5703   19.8881  106.2596 C   0  0  0  0  0  0  0  0  0  0  0  0
   59.6678   20.7303  105.7444 C   0  0  0  0  0  0  0  0  0  0  0  0
   59.5021   21.4548  104.5947 C   0  0  0  0  0  0  0  0  0  0  0  0
   60.8891   20.7771  106.4212 C   0  0  0  0  0  0  0  0  0  0  0  0
   60.5654   22.2204  104.1347 C   0  0  0  0  0  0  0  0  0  0  0  0
   61.9482   21.5274  105.9802 C   0  0  0  0  0  0  0  0  0  0  0  0
   61.7629   22.2588  104.8086 C   0  0  0  0  0  0  0  0  0  0  0  0
   62.8375   23.0243  104.3545 O   0  0  0  0  0  0  0  0  0  0  0  0
   57.4697   21.6634  103.4740 N   0  0  0  0  0  0  0  0  0  0  0  0
   57.3210   22.9788  104.0140 C   0  0  2  0  0  0  0  0  0  0  0  0
   56.8109   23.9912  103.0717 C   0  0  0  0  0  0  0  0  0  0  0  0
   57.3844   25.1432  103.1721 O   0  0  0  0  0  0  0  0  0  0  0  0
   58.7232   23.4114  104.4453 C   0  0  0  0  0  0  0  0  0  0  0  0
   59.2225   22.4989  105.5318 C   0  0  0  0  0  0  0  0  0  0  0  0
   58.1290   21.5717  106.0242 C   0  0  0  0  0  0  0  0  0  0  0  0
   57.6393   20.6664  104.9126 C   0  0  0  0  0  0  0  0  0  0  0  0
   56.8943   19.5642  105.5005 N   0  0  0  0  0  4  0  0  0  0  0  0
   55.8087   23.8863  102.0965 N   0  0  0  0  0  0  0  0  0  0  0  0
   54.3905   23.6636  102.2259 C   0  0  2  0  0  0  0  0  0  0  0  0
   53.7768   24.2118  103.4622 C   0  0  0  0  0  0  0  0  0  0  0  0
   53.7759   23.3419  104.4203 O   0  0  0  0  0  0  0  0  0  0  0  0
   53.9588   22.2502  101.9354 C   0  0  0  0  0  0  0  0  0  0  0  0
   54.4303   21.7225  100.7628 O   0  0  0  0  0  0  0  0  0  0  0  0
   53.2423   25.4839  103.6715 N   0  0  0  0  0  0  0  0  0  0  0  0
   52.2248   26.2296  103.0385 C   0  0  2  0  0  0  0  0  0  0  0  0
   50.9734   25.3846  103.0152 C   0  0  0  0  0  0  0  0  0  0  0  0
   51.1483   24.2192  102.5602 O   0  0  0  0  0  0  0  0  0  0  0  0
   52.4211   26.7142  101.6504 C   0  0  2  0  0  0  0  0  0  0  0  0
   53.6366   27.5637  101.4228 C   0  0  0  0  0  0  0  0  0  0  0  0
   51.2471   27.6669  101.2739 C   0  0  0  0  0  0  0  0  0  0  0  0
   53.5135   29.0078  101.7268 C   0  0  0  0  0  0  0  0  0  0  0  0
   49.7025   25.7671  103.4356 N   0  0  0  0  0  0  0  0  0  0  0  0
   49.4254   26.8222  104.3550 C   0  0  2  0  0  0  0  0  0  0  0  0
   49.8161   26.6098  105.7567 C   0  0  0  0  0  0  0  0  0  0  0  0
   50.9957   26.0803  105.8747 O   0  0  0  0  0  0  0  0  0  0  0  0
   48.0235   27.2824  104.1248 C   0  0  0  0  0  0  0  0  0  0  0  0
   47.4046   26.2677  103.1922 C   0  0  0  0  0  0  0  0  0  0  0  0
   48.4219   25.1929  103.0219 C   0  0  0  0  0  0  0  0  0  0  0  0
   49.1860   26.8630  106.9754 N   0  0  0  0  0  0  0  0  0  0  0  0
   48.1160   26.1730  107.6590 C   0  0  2  0  0  0  0  0  0  0  0  0
   47.6616   24.9093  107.1766 C   0  0  0  0  0  0  0  0  0  0  0  0
   47.0624   24.8162  106.0502 O   0  0  0  0  0  0  0  0  0  0  0  0
   47.1102   27.2487  107.9116 C   0  0  0  0  0  0  0  0  0  0  0  0
   47.9955   28.4966  107.9834 C   0  0  0  0  0  0  0  0  0  0  0  0
   49.4192   27.9150  108.0162 C   0  0  0  0  0  0  0  0  0  0  0  0
   47.8394   23.6834  107.8993 N   0  0  0  0  0  0  0  0  0  0  0  0
   47.6109   23.5326  109.3262 C   0  0  2  0  0  0  0  0  0  0  0  0
   48.8210   23.6761  110.1524 C   0  0  0  0  0  0  0  0  0  0  0  0
   48.7755   24.6328  111.0193 O   0  0  0  0  0  0  0  0  0  0  0  0
   46.9012   22.2004  109.4991 C   0  0  2  0  0  0  0  0  0  0  0  0
   47.8916   21.3369  110.2976 C   0  0  0  0  0  0  0  0  0  0  0  0
   46.7270   21.5472  108.1590 C   0  0  0  0  0  0  0  0  0  0  0  0
   49.2903   21.8621  110.2247 C   0  0  0  0  0  0  0  0  0  0  0  0
   50.0016   22.9191  110.1214 N   0  0  0  0  0  0  0  0  0  0  0  0
   50.2058   21.5279  110.4665 C   0  0  2  0  0  0  0  0  0  0  0  0
   51.2645   21.5031  111.5252 C   0  0  0  0  0  0  0  0  0  0  0  0
   52.3689   22.0451  111.1285 O   0  0  0  0  0  0  0  0  0  0  0  0
   50.8287   20.8449  109.2353 C   0  0  0  0  0  0  0  0  0  0  0  0
   52.5711   20.5089  109.5016 S   0  0  0  0  0  0  0  0  0  0  0  0
   51.1753   20.9773  112.8295 N   0  0  0  0  0  0  0  0  0  0  0  0
   50.3704   21.4167  113.9170 C   0  0  2  0  0  0  0  0  0  0  0  0
   49.7191   20.4214  114.7763 C   0  0  0  0  0  0  0  0  0  0  0  0
   49.9510   20.6858  116.0553 O   0  0  0  0  0  0  0  0  0  0  0  0
   49.4340   22.5598  113.5028 C   0  0  0  0  0  0  0  0  0  0  0  0
   48.4551   22.1525  112.4673 C   0  0  0  0  0  0  0  0  0  0  0  0
   47.0880   22.0921  112.7813 C   0  0  0  0  0  0  0  0  0  0  0  0
   48.7726   21.8346  111.1705 C   0  0  0  0  0  0  0  0  0  0  0  0
   46.1170   21.7483  111.8960 C   0  0  0  0  0  0  0  0  0  0  0  0
   47.8126   21.4844  110.2567 C   0  0  0  0  0  0  0  0  0  0  0  0
   46.4588   21.4320  110.5956 C   0  0  0  0  0  0  0  0  0  0  0  0
   48.9346   19.2994  114.5395 N   0  0  0  0  0  0  0  0  0  0  0  0
   49.1587   18.0527  113.8801 C   0  0  2  0  0  0  0  0  0  0  0  0
   50.2543   17.8499  112.9770 C   0  0  0  0  0  0  0  0  0  0  0  0
   50.1266   18.2357  111.7524 O   0  0  0  0  0  0  0  0  0  0  0  0
   47.8701   17.8774  113.0378 C   0  0  0  0  0  0  0  0  0  0  0  0
   46.8071   18.6899  113.7345 C   0  0  0  0  0  0  0  0  0  0  0  0
   47.5357   19.0598  114.9952 C   0  0  0  0  0  0  0  0  0  0  0  0
   51.5087   17.2513  113.2689 N   0  0  0  0  0  0  0  0  0  0  0  0
   52.4184   17.6590  114.3282 C   0  0  2  0  0  0  0  0  0  0  0  0
   53.7241   18.1190  113.7200 C   0  0  0  0  0  0  0  0  0  0  0  0
   54.1110   19.2362  114.1511 O   0  0  0  0  0  0  0  0  0  0  0  0
   52.7776   16.4627  115.2051 C   0  0  0  0  0  0  0  0  0  0  0  0
   53.5463   16.9547  116.3695 C   0  0  0  0  0  0  0  0  0  0  0  0
   54.8134   16.4249  116.6839 O   0  0  0  0  0  0  0  0  0  0  0  0
   53.1556   17.8516  117.1497 O   0  0  0  0  0  0  0  0  0  0  0  0
   55.0161   16.0676  112.3857 O   0  0  0  0  0  0  0  0  0  0  0  0
   59.6168   10.5665  112.7079 H   0  0  0  0  0  0  0  0  0  0  0  0
  1  2  1  0
  1105  1  0
  1111  1  0
  2  3  1  0
  2111  1  1
  3  4  2  0
  3  5  1  0
  5  6  1  0
  6  7  1  0
  6  9  1  6
  7  8  2  0
  7 16  1  0
  9 10  1  0
 10 11  1  0
 11 12  1  0
 12 13  1  0
 13 14  2  0
 13 15  1  0
 17 16  1  1
 17 18  1  0
 17 20  1  0
 18 19  2  0
 18 22  1  0
 20 21  1  0
 21 84  1  0
 22 23  1  0
 23 24  1  0
 23 26  1  1
 24 25  2  0
 24 34  1  0
 26 27  1  0
 27 28  2  0
 27 29  1  0
 28 30  1  0
 29 31  2  0
 30 32  2  0
 31 32  1  0
 32 33  1  0
 34 35  1  0
 35 36  1  0
 35 38  1  6
 36 37  2  0
 36 43  1  0
 38 39  1  0
 39 40  1  0
 40 41  1  0
 41 42  1  0
 43 44  1  0
 44 45  1  0
 44 47  1  1
 45 46  2  0
 45 49  1  0
 47 48  1  0
 50 49  1  6
 50 51  1  0
 50 53  1  0
 51 52  2  0
 51 57  1  0
 53 54  1  0
 53 55  1  1
 54 56  1  0
 57 58  1  0
 57 63  1  0
 58 59  1  0
 58 61  1  1
 59 60  2  0
 59 64  1  0
 61 62  1  0
 62 63  1  0
 64 65  1  0
 64 70  1  0
 65 66  1  0
 65 68  1  6
 66 67  2  0
 66 71  1  0
 68 69  1  0
 69 70  1  0
 72 71  1  6
 72 73  1  0
 72 75  1  0
 73 74  2  0
 73 79  1  0
 75 76  1  0
 75 77  1  6
 76 78  1  0
 80 79  1  6
 80 81  1  0
 80 83  1  0
 81 82  2  0
 81 85  1  0
 83 84  1  0
 85 86  1  0
 86 87  1  0
 86 89  1  6
 87 88  2  0
 87 96  1  0
 89 90  1  0
 90 91  2  0
 90 92  1  0
 91 93  1  0
 92 94  2  0
 93 95  2  0
 94 95  1  0
 96 97  1  0
 96102  1  0
 97 98  1  0
 97100  1  6
 98 99  2  0
 98103  1  0
100101  1  0
101102  1  0
103104  1  0
104105  1  0
104107  1  1
105106  2  0
107108  1  0
108109  1  0
108110  2  0
 14112  1  0
M  CHG  1  42   1
M  END
$$$$
