
     RDKit          3D

112119  0  0  0  0  0  0  0  0999 V2000
   57.7459   18.7415  108.8028 N   0  0  0  0  0  0  0  0  0  0  0  0
   57.2298   19.0247  107.6264 C   0  0  2  0  0  0  0  0  0  0  0  0
   56.0294   18.4085  107.0612 C   0  0  0  0  0  0  0  0  0  0  0  0
   54.9899   18.3375  107.7606 O   0  0  0  0  0  0  0  0  0  0  0  0
   55.9431   17.8725  105.7557 N   0  0  0  0  0  0  0  0  0  0  0  0
   57.0574   17.9188  104.8082 C   0  0  2  0  0  0  0  0  0  0  0  0
   56.8604   18.9909  103.8251 C   0  0  0  0  0  0  0  0  0  0  0  0
   57.2773   18.7707  102.6322 O   0  0  0  0  0  0  0  0  0  0  0  0
   57.1655   16.5549  104.2283 C   0  0  0  0  0  0  0  0  0  0  0  0
   57.5590   16.4245  102.7982 C   0  0  0  0  0  0  0  0  0  0  0  0
   59.0344   16.0019  102.7313 C   0  0  0  0  0  0  0  0  0  0  0  0
   59.2431   14.6769  103.2479 N   0  0  0  0  0  0  0  0  0  0  0  0
   60.5294   14.0803  103.2524 C   0  0  0  0  0  0  0  0  0  0  0  0
   60.6808   12.8240  102.9254 N   0  0  0  0  0  0  0  0  0  0  0  0
   61.6707   14.8517  103.6152 N   0  0  0  0  0  0  0  0  0  0  0  0
   56.2581   20.2428  104.0637 N   0  0  0  0  0  0  0  0  0  0  0  0
   54.9132   20.5621  104.4370 C   0  0  2  0  0  0  0  0  0  0  0  0
   54.0807   21.0861  103.3099 C   0  0  0  0  0  0  0  0  0  0  0  0
   53.0087   20.4052  103.0485 O   0  0  0  0  0  0  0  0  0  0  0  0
   54.8614   21.4799  105.6510 C   0  0  0  0  0  0  0  0  0  0  0  0
   53.2448   21.1787  106.4664 S   0  0  0  0  0  0  0  0  0  0  0  0
   54.2984   22.1884  102.5123 N   0  0  0  0  0  0  0  0  0  0  0  0
   54.4218   23.6040  102.8662 C   0  0  2  0  0  0  0  0  0  0  0  0
   53.7062   24.4329  101.8339 C   0  0  0  0  0  0  0  0  0  0  0  0
   53.9960   24.1038  100.6258 O   0  0  0  0  0  0  0  0  0  0  0  0
   55.8808   24.0250  102.8176 C   0  0  0  0  0  0  0  0  0  0  0  0
   56.7756   23.0128  102.2227 C   0  0  0  0  0  0  0  0  0  0  0  0
   57.7785   23.3914  101.3713 C   0  0  0  0  0  0  0  0  0  0  0  0
   56.5900   21.6590  102.5138 C   0  0  0  0  0  0  0  0  0  0  0  0
   58.5867   22.4062  100.8194 C   0  0  0  0  0  0  0  0  0  0  0  0
   57.3787   20.6746  101.9772 C   0  0  0  0  0  0  0  0  0  0  0  0
   58.3948   21.0769  101.1127 C   0  0  0  0  0  0  0  0  0  0  0  0
   59.2008   20.0794  100.5631 O   0  0  0  0  0  0  0  0  0  0  0  0
   52.8120   25.4588  102.0117 N   0  0  0  0  0  0  0  0  0  0  0  0
   52.6750   26.4391  103.0433 C   0  0  2  0  0  0  0  0  0  0  0  0
   51.4210   27.2134  103.0122 C   0  0  0  0  0  0  0  0  0  0  0  0
   51.5676   28.4679  103.2783 O   0  0  0  0  0  0  0  0  0  0  0  0
   53.8309   27.4200  102.8400 C   0  0  0  0  0  0  0  0  0  0  0  0
   53.4625   28.7616  103.4115 C   0  0  0  0  0  0  0  0  0  0  0  0
   51.9746   28.8592  103.6845 C   0  0  0  0  0  0  0  0  0  0  0  0
   51.4968   27.6947  104.5274 C   0  0  0  0  0  0  0  0  0  0  0  0
   50.0791   27.8672  104.8033 N   0  0  0  0  0  4  0  0  0  0  0  0
   50.1117   26.7918  102.7391 N   0  0  0  0  0  0  0  0  0  0  0  0
   49.2419   25.8978  103.4615 C   0  0  2  0  0  0  0  0  0  0  0  0
   49.4341   25.8847  104.9341 C   0  0  0  0  0  0  0  0  0  0  0  0
   50.2916   24.9853  105.2951 O   0  0  0  0  0  0  0  0  0  0  0  0
   49.1501   24.5152  102.8711 C   0  0  0  0  0  0  0  0  0  0  0  0
   49.7045   23.5169  103.6273 O   0  0  0  0  0  0  0  0  0  0  0  0
   48.8224   26.6933  105.8931 N   0  0  0  0  0  0  0  0  0  0  0  0
   47.4780   26.9456  106.2410 C   0  0  2  0  0  0  0  0  0  0  0  0
   46.8075   25.6182  106.5040 C   0  0  0  0  0  0  0  0  0  0  0  0
   46.9747   24.7668  105.5859 O   0  0  0  0  0  0  0  0  0  0  0  0
   46.5960   27.6729  105.2957 C   0  0  2  0  0  0  0  0  0  0  0  0
   46.7798   29.1611  105.2472 C   0  0  0  0  0  0  0  0  0  0  0  0
   45.1161   27.5131  105.7561 C   0  0  0  0  0  0  0  0  0  0  0  0
   45.9215   29.9137  104.3039 C   0  0  0  0  0  0  0  0  0  0  0  0
   46.0563   25.2723  107.6239 N   0  0  0  0  0  0  0  0  0  0  0  0
   46.1432   25.9076  108.8984 C   0  0  2  0  0  0  0  0  0  0  0  0
   47.3766   25.6954  109.6705 C   0  0  0  0  0  0  0  0  0  0  0  0
   48.4475   25.7873  108.9419 O   0  0  0  0  0  0  0  0  0  0  0  0
   44.8615   25.6664  109.6258 C   0  0  0  0  0  0  0  0  0  0  0  0
   44.1130   24.6372  108.8115 C   0  0  0  0  0  0  0  0  0  0  0  0
   45.0391   24.2250  107.7200 C   0  0  0  0  0  0  0  0  0  0  0  0
   47.6298   25.4225  111.0151 N   0  0  0  0  0  0  0  0  0  0  0  0
   47.4957   24.2069  111.7847 C   0  0  2  0  0  0  0  0  0  0  0  0
   47.2227   22.9723  111.1233 C   0  0  0  0  0  0  0  0  0  0  0  0
   46.1024   22.7780  110.5372 O   0  0  0  0  0  0  0  0  0  0  0  0
   46.6300   24.6127  112.9330 C   0  0  0  0  0  0  0  0  0  0  0  0
   46.9543   26.1043  113.0597 C   0  0  0  0  0  0  0  0  0  0  0  0
   48.1604   26.2817  112.1217 C   0  0  0  0  0  0  0  0  0  0  0  0
   48.1596   21.8880  111.0677 N   0  0  0  0  0  0  0  0  0  0  0  0
   48.9481   21.4273  112.1978 C   0  0  2  0  0  0  0  0  0  0  0  0
   50.3004   22.0052  112.2692 C   0  0  0  0  0  0  0  0  0  0  0  0
   50.5478   22.6750  113.3459 O   0  0  0  0  0  0  0  0  0  0  0  0
   48.9295   19.9096  112.1318 C   0  0  2  0  0  0  0  0  0  0  0  0
   49.5379   19.5759  110.7597 C   0  0  0  0  0  0  0  0  0  0  0  0
   47.5087   19.4256  112.1140 C   0  0  0  0  0  0  0  0  0  0  0  0
   48.4919   19.3422  109.7161 C   0  0  0  0  0  0  0  0  0  0  0  0
   51.3417   21.9243  111.3328 N   0  0  0  0  0  0  0  0  0  0  0  0
   52.1040   20.7683  110.9098 C   0  0  2  0  0  0  0  0  0  0  0  0
   53.5439   21.0922  111.1632 C   0  0  0  0  0  0  0  0  0  0  0  0
   53.9276   22.1524  110.5310 O   0  0  0  0  0  0  0  0  0  0  0  0
   51.9601   20.6686  109.3802 C   0  0  0  0  0  0  0  0  0  0  0  0
   53.4734   21.1751  108.5596 S   0  0  0  0  0  0  0  0  0  0  0  0
   54.4608   20.3939  111.9738 N   0  0  0  0  0  0  0  0  0  0  0  0
   54.4522   20.2180  113.3854 C   0  0  2  0  0  0  0  0  0  0  0  0
   54.8167   18.9129  113.9486 C   0  0  0  0  0  0  0  0  0  0  0  0
   55.7225   19.0548  114.9072 O   0  0  0  0  0  0  0  0  0  0  0  0
   53.1921   20.8184  114.0232 C   0  0  0  0  0  0  0  0  0  0  0  0
   51.9619   20.0667  113.6801 C   0  0  0  0  0  0  0  0  0  0  0  0
   51.9956   19.0924  112.6697 C   0  0  0  0  0  0  0  0  0  0  0  0
   50.7469   20.2279  114.2976 C   0  0  0  0  0  0  0  0  0  0  0  0
   50.9262   18.3417  112.2987 C   0  0  0  0  0  0  0  0  0  0  0  0
   49.6518   19.4835  113.9430 C   0  0  0  0  0  0  0  0  0  0  0  0
   49.7127   18.5202  112.9337 C   0  0  0  0  0  0  0  0  0  0  0  0
   54.4236   17.6039  113.6987 N   0  0  0  0  0  0  0  0  0  0  0  0
   54.5189   16.7376  112.5675 C   0  0  2  0  0  0  0  0  0  0  0  0
   54.7858   17.2290  111.2468 C   0  0  0  0  0  0  0  0  0  0  0  0
   53.8042   17.6899  110.5477 O   0  0  0  0  0  0  0  0  0  0  0  0
   53.1093   16.0970  112.5103 C   0  0  0  0  0  0  0  0  0  0  0  0
   52.5605   16.1795  113.9130 C   0  0  0  0  0  0  0  0  0  0  0  0
   53.7803   16.6541  114.6505 C   0  0  0  0  0  0  0  0  0  0  0  0
   56.0407   17.2703  110.5828 N   0  0  0  0  0  0  0  0  0  0  0  0
   57.2510   17.8957  111.0925 C   0  0  2  0  0  0  0  0  0  0  0  0
   57.6675   19.0146  110.1645 C   0  0  0  0  0  0  0  0  0  0  0  0
   57.9012   20.0981  110.7603 O   0  0  0  0  0  0  0  0  0  0  0  0
   58.4076   16.9003  111.0738 C   0  0  0  0  0  0  0  0  0  0  0  0
   59.5437   17.4948  111.8120 C   0  0  0  0  0  0  0  0  0  0  0  0
   59.4358   17.8200  113.1786 O   0  0  0  0  0  0  0  0  0  0  0  0
   60.6601   17.7517  111.3085 O   0  0  0  0  0  0  0  0  0  0  0  0
   58.3268   18.0715  107.6478 O   0  0  0  0  0  0  0  0  0  0  0  0
   59.8376   12.3176  102.5745 H   0  0  0  0  0  0  0  0  0  0  0  0
  1  2  1  0
  1105  1  0
  1111  1  0
  2  3  1  0
  2111  1  6
  3  4  2  0
  3  5  1  0
  5  6  1  0
  6  7  1  0
  6  9  1  6
  7  8  2  0
  7 16  1  0
  9 10  1  0
 10 11  1  0
 11 12  1  0
 12 13  1  0
 13 14  2  0
 13 15  1  0
 17 16  1  6
 17 18  1  0
 17 20  1  0
 18 19  2  0
 18 22  1  0
 20 21  1  0
 21 84  1  0
 22 23  1  0
 23 24  1  0
 23 26  1  6
 24 25  2  0
 24 34  1  0
 26 27  1  0
 27 28  2  0
 27 29  1  0
 28 30  1  0
 29 31  2  0
 30 32  2  0
 31 32  1  0
 32 33  1  0
 34 35  1  0
 35 36  1  0
 35 38  1  6
 36 37  2  0
 36 43  1  0
 38 39  1  0
 39 40  1  0
 40 41  1  0
 41 42  1  0
 43 44  1  0
 44 45  1  0
 44 47  1  6
 45 46  2  0
 45 49  1  0
 47 48  1  0
 50 49  1  6
 50 51  1  0
 50 53  1  0
 51 52  2  0
 51 57  1  0
 53 54  1  0
 53 55  1  1
 54 56  1  0
 57 58  1  0
 57 63  1  0
 58 59  1  0
 58 61  1  1
 59 60  2  0
 59 64  1  0
 61 62  1  0
 62 63  1  0
 64 65  1  0
 64 70  1  0
 65 66  1  0
 65 68  1  1
 66 67  2  0
 66 71  1  0
 68 69  1  0
 69 70  1  0
 72 71  1  6
 72 73  1  0
 72 75  1  0
 73 74  2  0
 73 79  1  0
 75 76  1  0
 75 77  1  6
 76 78  1  0
 80 79  1  6
 80 81  1  0
 80 83  1  0
 81 82  2  0
 81 85  1  0
 83 84  1  0
 85 86  1  0
 86 87  1  0
 86 89  1  6
 87 88  2  0
 87 96  1  0
 89 90  1  0
 90 91  2  0
 90 92  1  0
 91 93  1  0
 92 94  2  0
 93 95  2  0
 94 95  1  0
 96 97  1  0
 96102  1  0
 97 98  1  0
 97100  1  6
 98 99  2  0
 98103  1  0
100101  1  0
101102  1  0
103104  1  0
104105  1  0
104107  1  6
105106  2  0
107108  1  0
108109  1  0
108110  2  0
 14112  1  0
M  CHG  1  42   1
M  END
$$$$
