
     RDKit          3D

112119  0  0  0  0  0  0  0  0999 V2000
   57.5164   18.2410  109.2619 N   0  0  0  0  0  0  0  0  0  0  0  0
   57.1839   18.6166  108.0459 C   0  0  2  0  0  0  0  0  0  0  0  0
   56.0401   18.1079  107.2887 C   0  0  0  0  0  0  0  0  0  0  0  0
   54.9119   18.0673  107.8367 O   0  0  0  0  0  0  0  0  0  0  0  0
   56.1045   17.6464  105.9539 N   0  0  0  0  0  0  0  0  0  0  0  0
   57.3395   17.6704  105.1692 C   0  0  2  0  0  0  0  0  0  0  0  0
   57.3401   18.8020  104.2342 C   0  0  0  0  0  0  0  0  0  0  0  0
   57.9042   18.6174  103.0971 O   0  0  0  0  0  0  0  0  0  0  0  0
   57.4498   16.3340  104.5287 C   0  0  0  0  0  0  0  0  0  0  0  0
   57.6421   16.2714  103.0536 C   0  0  0  0  0  0  0  0  0  0  0  0
   59.0933   15.8588  102.7645 C   0  0  0  0  0  0  0  0  0  0  0  0
   59.9145   15.9013  103.9434 N   0  0  0  0  0  0  0  0  0  0  0  0
   61.2411   15.4007  103.9376 C   0  0  0  0  0  0  0  0  0  0  0  0
   61.9936   15.4991  105.0017 N   0  0  0  0  0  0  0  0  0  0  0  0
   61.7641   14.7835  102.7651 N   0  0  0  0  0  0  0  0  0  0  0  0
   56.7817   20.0757  104.4639 N   0  0  0  0  0  0  0  0  0  0  0  0
   55.4182   20.4603  104.6716 C   0  0  2  0  0  0  0  0  0  0  0  0
   54.7795   21.0935  103.4761 C   0  0  0  0  0  0  0  0  0  0  0  0
   53.7173   20.4965  103.0330 O   0  0  0  0  0  0  0  0  0  0  0  0
   55.2512   21.3158  105.9201 C   0  0  0  0  0  0  0  0  0  0  0  0
   53.5234   21.0765  106.4916 S   0  0  0  0  0  0  0  0  0  0  0  0
   55.1663   22.2193  102.7821 N   0  0  0  0  0  0  0  0  0  0  0  0
   55.3189   23.6041  103.2332 C   0  0  2  0  0  0  0  0  0  0  0  0
   54.7997   24.5288  102.1654 C   0  0  0  0  0  0  0  0  0  0  0  0
   55.2343   24.2446  100.9897 O   0  0  0  0  0  0  0  0  0  0  0  0
   56.7919   23.9334  103.4062 C   0  0  0  0  0  0  0  0  0  0  0  0
   57.5804   23.8174  102.1636 C   0  0  0  0  0  0  0  0  0  0  0  0
   58.9457   23.9103  102.1999 C   0  0  0  0  0  0  0  0  0  0  0  0
   56.9323   23.6297  100.9402 C   0  0  0  0  0  0  0  0  0  0  0  0
   59.6486   23.8136  101.0062 C   0  0  0  0  0  0  0  0  0  0  0  0
   57.6114   23.5326   99.7534 C   0  0  0  0  0  0  0  0  0  0  0  0
   59.0005   23.6292   99.8079 C   0  0  0  0  0  0  0  0  0  0  0  0
   59.6973   23.5314   98.6031 O   0  0  0  0  0  0  0  0  0  0  0  0
   53.9484   25.5991  102.2824 N   0  0  0  0  0  0  0  0  0  0  0  0
   53.7259   26.5317  103.3428 C   0  0  2  0  0  0  0  0  0  0  0  0
   52.5334   27.3847  103.1898 C   0  0  0  0  0  0  0  0  0  0  0  0
   52.7119   28.6120  103.5475 O   0  0  0  0  0  0  0  0  0  0  0  0
   54.9518   27.4462  103.3555 C   0  0  0  0  0  0  0  0  0  0  0  0
   54.9671   28.2894  102.1100 C   0  0  0  0  0  0  0  0  0  0  0  0
   54.1505   27.6563  101.0009 C   0  0  0  0  0  0  0  0  0  0  0  0
   54.4248   26.1697  100.9014 C   0  0  0  0  0  0  0  0  0  0  0  0
   54.8163   25.8564   99.5361 N   0  0  0  0  0  4  0  0  0  0  0  0
   51.2526   27.0619  102.7186 N   0  0  0  0  0  0  0  0  0  0  0  0
   50.2430   26.1890  103.2630 C   0  0  2  0  0  0  0  0  0  0  0  0
   50.2296   26.0880  104.7446 C   0  0  0  0  0  0  0  0  0  0  0  0
   50.9775   25.1184  105.1633 O   0  0  0  0  0  0  0  0  0  0  0  0
   50.1561   24.8473  102.5842 C   0  0  0  0  0  0  0  0  0  0  0  0
   50.7445   23.8102  103.2581 O   0  0  0  0  0  0  0  0  0  0  0  0
   49.5379   26.8835  105.6592 N   0  0  0  0  0  0  0  0  0  0  0  0
   48.1747   27.2025  105.8378 C   0  0  2  0  0  0  0  0  0  0  0  0
   47.4011   25.9087  105.9288 C   0  0  0  0  0  0  0  0  0  0  0  0
   47.6452   25.0967  104.9924 O   0  0  0  0  0  0  0  0  0  0  0  0
   47.4734   28.0321  104.8277 C   0  0  2  0  0  0  0  0  0  0  0  0
   47.7488   29.5056  104.8902 C   0  0  0  0  0  0  0  0  0  0  0  0
   45.9379   27.9475  105.0780 C   0  0  0  0  0  0  0  0  0  0  0  0
   46.6104   30.4138  104.6222 C   0  0  0  0  0  0  0  0  0  0  0  0
   46.4847   25.5541  106.9150 N   0  0  0  0  0  0  0  0  0  0  0  0
   46.4308   26.1162  108.2252 C   0  0  2  0  0  0  0  0  0  0  0  0
   47.5323   25.7865  109.1419 C   0  0  0  0  0  0  0  0  0  0  0  0
   48.6967   25.8474  108.5706 O   0  0  0  0  0  0  0  0  0  0  0  0
   45.0496   25.9198  108.7582 C   0  0  0  0  0  0  0  0  0  0  0  0
   44.3639   24.9836  107.7908 C   0  0  0  0  0  0  0  0  0  0  0  0
   45.4069   24.5700  106.8110 C   0  0  0  0  0  0  0  0  0  0  0  0
   47.5823   25.4292  110.4896 N   0  0  0  0  0  0  0  0  0  0  0  0
   47.2756   24.1866  111.1604 C   0  0  2  0  0  0  0  0  0  0  0  0
   47.0276   23.0075  110.3959 C   0  0  0  0  0  0  0  0  0  0  0  0
   45.9895   22.9153  109.6541 O   0  0  0  0  0  0  0  0  0  0  0  0
   46.2841   24.5870  112.2041 C   0  0  0  0  0  0  0  0  0  0  0  0
   46.6709   26.0464  112.4620 C   0  0  0  0  0  0  0  0  0  0  0  0
   48.0027   26.1949  111.7067 C   0  0  0  0  0  0  0  0  0  0  0  0
   47.9010   21.8701  110.4022 N   0  0  0  0  0  0  0  0  0  0  0  0
   48.4994   21.3027  111.5984 C   0  0  2  0  0  0  0  0  0  0  0  0
   49.8591   21.7890  111.8851 C   0  0  0  0  0  0  0  0  0  0  0  0
   49.9930   22.3854  113.0233 O   0  0  0  0  0  0  0  0  0  0  0  0
   48.4051   19.7946  111.4400 C   0  0  2  0  0  0  0  0  0  0  0  0
   47.0859   19.5682  110.6832 C   0  0  0  0  0  0  0  0  0  0  0  0
   48.2542   19.1569  112.7905 C   0  0  0  0  0  0  0  0  0  0  0  0
   47.1139   20.1513  109.3059 C   0  0  0  0  0  0  0  0  0  0  0  0
   51.0132   21.6902  111.0939 N   0  0  0  0  0  0  0  0  0  0  0  0
   51.7606   20.5115  110.7090 C   0  0  2  0  0  0  0  0  0  0  0  0
   53.1678   20.7296  111.1724 C   0  0  0  0  0  0  0  0  0  0  0  0
   53.6936   21.7944  110.6618 O   0  0  0  0  0  0  0  0  0  0  0  0
   51.8233   20.5000  109.1708 C   0  0  0  0  0  0  0  0  0  0  0  0
   53.4611   20.9508  108.5925 S   0  0  0  0  0  0  0  0  0  0  0  0
   53.9238   19.9336  112.0557 N   0  0  0  0  0  0  0  0  0  0  0  0
   53.7111   19.6862  113.4403 C   0  0  2  0  0  0  0  0  0  0  0  0
   53.9209   18.3334  113.9686 C   0  0  0  0  0  0  0  0  0  0  0  0
   54.6927   18.3679  115.0469 O   0  0  0  0  0  0  0  0  0  0  0  0
   52.4108   20.3320  113.9377 C   0  0  0  0  0  0  0  0  0  0  0  0
   51.3136   20.2500  112.9449 C   0  0  0  0  0  0  0  0  0  0  0  0
   50.0351   20.7286  113.2733 C   0  0  0  0  0  0  0  0  0  0  0  0
   51.4419   19.7466  111.6747 C   0  0  0  0  0  0  0  0  0  0  0  0
   48.9743   20.7128  112.4252 C   0  0  0  0  0  0  0  0  0  0  0  0
   50.3879   19.7188  110.7986 C   0  0  0  0  0  0  0  0  0  0  0  0
   49.1256   20.2015  111.1510 C   0  0  0  0  0  0  0  0  0  0  0  0
   53.4933   17.0666  113.5905 N   0  0  0  0  0  0  0  0  0  0  0  0
   53.6947   16.2554  112.4327 C   0  0  2  0  0  0  0  0  0  0  0  0
   54.1681   16.7961  111.1915 C   0  0  0  0  0  0  0  0  0  0  0  0
   53.3194   17.3539  110.3956 O   0  0  0  0  0  0  0  0  0  0  0  0
   52.2728   15.7095  112.1486 C   0  0  0  0  0  0  0  0  0  0  0  0
   51.5416   15.7544  113.4672 C   0  0  0  0  0  0  0  0  0  0  0  0
   52.6729   16.1120  114.3889 C   0  0  0  0  0  0  0  0  0  0  0  0
   55.5027   16.7916  110.7058 N   0  0  0  0  0  0  0  0  0  0  0  0
   56.6645   17.3117  111.4098 C   0  0  2  0  0  0  0  0  0  0  0  0
   57.2668   18.4481  110.6146 C   0  0  0  0  0  0  0  0  0  0  0  0
   57.4765   19.4825  111.2999 O   0  0  0  0  0  0  0  0  0  0  0  0
   57.7551   16.2470  111.4874 C   0  0  0  0  0  0  0  0  0  0  0  0
   58.6218   16.5538  112.6464 C   0  0  0  0  0  0  0  0  0  0  0  0
   59.6110   15.6479  113.0778 O   0  0  0  0  0  0  0  0  0  0  0  0
   58.5574   17.6053  113.3217 O   0  0  0  0  0  0  0  0  0  0  0  0
   58.2124   17.5957  108.1575 O   0  0  0  0  0  0  0  0  0  0  0  0
   62.1081   16.4499  105.4184 H   0  0  0  0  0  0  0  0  0  0  0  0
  1  2  1  0
  1105  1  0
  1111  1  0
  2  3  1  0
  2111  1  6
  3  4  2  0
  3  5  1  0
  5  6  1  0
  6  7  1  0
  6  9  1  6
  7  8  2  0
  7 16  1  0
  9 10  1  0
 10 11  1  0
 11 12  1  0
 12 13  1  0
 13 14  2  0
 13 15  1  0
 17 16  1  6
 17 18  1  0
 17 20  1  0
 18 19  2  0
 18 22  1  0
 20 21  1  0
 21 84  1  0
 22 23  1  0
 23 24  1  0
 23 26  1  6
 24 25  2  0
 24 34  1  0
 26 27  1  0
 27 28  2  0
 27 29  1  0
 28 30  1  0
 29 31  2  0
 30 32  2  0
 31 32  1  0
 32 33  1  0
 34 35  1  0
 35 36  1  0
 35 38  1  6
 36 37  2  0
 36 43  1  0
 38 39  1  0
 39 40  1  0
 40 41  1  0
 41 42  1  0
 43 44  1  0
 44 45  1  0
 44 47  1  6
 45 46  2  0
 45 49  1  0
 47 48  1  0
 50 49  1  6
 50 51  1  0
 50 53  1  0
 51 52  2  0
 51 57  1  0
 53 54  1  0
 53 55  1  1
 54 56  1  0
 57 58  1  0
 57 63  1  0
 58 59  1  0
 58 61  1  1
 59 60  2  0
 59 64  1  0
 61 62  1  0
 62 63  1  0
 64 65  1  0
 64 70  1  0
 65 66  1  0
 65 68  1  6
 66 67  2  0
 66 71  1  0
 68 69  1  0
 69 70  1  0
 72 71  1  6
 72 73  1  0
 72 75  1  0
 73 74  2  0
 73 79  1  0
 75 76  1  0
 75 77  1  1
 76 78  1  0
 80 79  1  6
 80 81  1  0
 80 83  1  0
 81 82  2  0
 81 85  1  0
 83 84  1  0
 85 86  1  0
 86 87  1  0
 86 89  1  6
 87 88  2  0
 87 96  1  0
 89 90  1  0
 90 91  2  0
 90 92  1  0
 91 93  1  0
 92 94  2  0
 93 95  2  0
 94 95  1  0
 96 97  1  0
 96102  1  0
 97 98  1  0
 97100  1  6
 98 99  2  0
 98103  1  0
100101  1  0
101102  1  0
103104  1  0
104105  1  0
104107  1  6
105106  2  0
107108  1  0
108109  1  0
108110  2  0
 14112  1  0
M  CHG  1  42   1
M  END
$$$$
