
     RDKit          3D

112119  0  0  0  0  0  0  0  0999 V2000
   56.6224   17.9583  112.8404 N   0  0  0  0  0  0  0  0  0  0  0  0
   56.2822   17.5080  111.6522 C   0  0  2  0  0  0  0  0  0  0  0  0
   54.9158   17.2120  111.2215 C   0  0  0  0  0  0  0  0  0  0  0  0
   54.0145   18.0635  111.4147 O   0  0  0  0  0  0  0  0  0  0  0  0
   54.5179   16.0124  110.5878 N   0  0  0  0  0  0  0  0  0  0  0  0
   55.4613   14.9436  110.2576 C   0  0  2  0  0  0  0  0  0  0  0  0
   55.8074   14.9770  108.8315 C   0  0  0  0  0  0  0  0  0  0  0  0
   56.0071   13.8491  108.2543 O   0  0  0  0  0  0  0  0  0  0  0  0
   54.8311   13.6781  110.7155 C   0  0  0  0  0  0  0  0  0  0  0  0
   55.0571   13.2451  112.1221 C   0  0  0  0  0  0  0  0  0  0  0  0
   55.1788   11.7140  112.1511 C   0  0  0  0  0  0  0  0  0  0  0  0
   54.4003   11.0882  111.1176 N   0  0  0  0  0  0  0  0  0  0  0  0
   54.3996    9.6810  110.9434 C   0  0  0  0  0  0  0  0  0  0  0  0
   53.5655    8.9287  111.6116 N   0  0  0  0  0  0  0  0  0  0  0  0
   55.3132    9.0758  110.0334 N   0  0  0  0  0  0  0  0  0  0  0  0
   55.9438   16.1298  108.0318 N   0  0  0  0  0  0  0  0  0  0  0  0
   54.9693   17.1069  107.6499 C   0  0  2  0  0  0  0  0  0  0  0  0
   54.4836   16.9589  106.2427 C   0  0  0  0  0  0  0  0  0  0  0  0
   53.2053   16.7863  106.1121 O   0  0  0  0  0  0  0  0  0  0  0  0
   55.4419   18.5256  107.9376 C   0  0  0  0  0  0  0  0  0  0  0  0
   53.9320   19.5452  108.1604 S   0  0  0  0  0  0  0  0  0  0  0  0
   55.2074   16.9783  105.0703 N   0  0  0  0  0  0  0  0  0  0  0  0
   56.0542   18.0266  104.4972 C   0  0  2  0  0  0  0  0  0  0  0  0
   55.8288   18.0822  103.0102 C   0  0  0  0  0  0  0  0  0  0  0  0
   55.8632   16.9279  102.4460 O   0  0  0  0  0  0  0  0  0  0  0  0
   57.5190   17.6759  104.6959 C   0  0  0  0  0  0  0  0  0  0  0  0
   58.4166   18.8477  104.7179 C   0  0  0  0  0  0  0  0  0  0  0  0
   57.9547   20.0646  105.1420 C   0  0  0  0  0  0  0  0  0  0  0  0
   59.7399   18.7220  104.2878 C   0  0  0  0  0  0  0  0  0  0  0  0
   58.8267   21.1452  105.1304 C   0  0  0  0  0  0  0  0  0  0  0  0
   60.6129   19.7786  104.2700 C   0  0  0  0  0  0  0  0  0  0  0  0
   60.1269   21.0101  104.7048 C   0  0  0  0  0  0  0  0  0  0  0  0
   61.0107   22.0896  104.6887 O   0  0  0  0  0  0  0  0  0  0  0  0
   55.5968   19.1708  102.2073 N   0  0  0  0  0  0  0  0  0  0  0  0
   56.0217   20.5328  102.2976 C   0  0  2  0  0  0  0  0  0  0  0  0
   55.3441   21.4650  101.3784 C   0  0  0  0  0  0  0  0  0  0  0  0
   56.1246   22.3464  100.8491 O   0  0  0  0  0  0  0  0  0  0  0  0
   57.5089   20.5283  101.9405 C   0  0  0  0  0  0  0  0  0  0  0  0
   58.0976   19.1774  102.2418 C   0  0  0  0  0  0  0  0  0  0  0  0
   57.2488   18.4114  103.2372 C   0  0  0  0  0  0  0  0  0  0  0  0
   57.4850   18.9051  104.6498 C   0  0  0  0  0  0  0  0  0  0  0  0
   58.8053   18.4738  105.0816 N   0  0  0  0  0  4  0  0  0  0  0  0
   53.9953   21.5323  101.0006 N   0  0  0  0  0  0  0  0  0  0  0  0
   52.8171   21.8399  101.7718 C   0  0  2  0  0  0  0  0  0  0  0  0
   53.0297   22.7855  102.8971 C   0  0  0  0  0  0  0  0  0  0  0  0
   53.3154   22.1634  103.9953 O   0  0  0  0  0  0  0  0  0  0  0  0
   52.0056   20.6339  102.1663 C   0  0  0  0  0  0  0  0  0  0  0  0
   50.6674   20.8618  102.3483 O   0  0  0  0  0  0  0  0  0  0  0  0
   52.9568   24.1791  102.8808 N   0  0  0  0  0  0  0  0  0  0  0  0
   51.9475   25.0981  102.5220 C   0  0  2  0  0  0  0  0  0  0  0  0
   50.7002   24.7471  103.2978 C   0  0  0  0  0  0  0  0  0  0  0  0
   50.3717   23.5298  103.2197 O   0  0  0  0  0  0  0  0  0  0  0  0
   51.5306   25.2184  101.1035 C   0  0  2  0  0  0  0  0  0  0  0  0
   52.5840   25.7091  100.1545 C   0  0  0  0  0  0  0  0  0  0  0  0
   50.4185   26.3038  100.9909 C   0  0  0  0  0  0  0  0  0  0  0  0
   52.2490   25.6930   98.7122 C   0  0  0  0  0  0  0  0  0  0  0  0
   49.9202   25.6149  104.0571 N   0  0  0  0  0  0  0  0  0  0  0  0
   50.3686   26.8522  104.6079 C   0  0  2  0  0  0  0  0  0  0  0  0
   51.3450   26.7828  105.7053 C   0  0  0  0  0  0  0  0  0  0  0  0
   52.2828   25.9112  105.4890 O   0  0  0  0  0  0  0  0  0  0  0  0
   49.1733   27.7157  104.8440 C   0  0  0  0  0  0  0  0  0  0  0  0
   47.9725   26.8216  104.6406 C   0  0  0  0  0  0  0  0  0  0  0  0
   48.5136   25.4506  104.4251 C   0  0  0  0  0  0  0  0  0  0  0  0
   51.4715   27.4593  106.9189 N   0  0  0  0  0  0  0  0  0  0  0  0
   50.7600   27.3199  108.1689 C   0  0  2  0  0  0  0  0  0  0  0  0
   49.8668   26.2238  108.3610 C   0  0  0  0  0  0  0  0  0  0  0  0
   48.7851   26.1350  107.6837 O   0  0  0  0  0  0  0  0  0  0  0  0
   50.2694   28.7031  108.4493 C   0  0  0  0  0  0  0  0  0  0  0  0
   51.3190   29.5600  107.7349 C   0  0  0  0  0  0  0  0  0  0  0  0
   52.4090   28.5406  107.3620 C   0  0  0  0  0  0  0  0  0  0  0  0
   50.1100   25.1688  109.3015 N   0  0  0  0  0  0  0  0  0  0  0  0
   50.5907   25.3740  110.6571 C   0  0  2  0  0  0  0  0  0  0  0  0
   52.0492   25.2429  110.8095 C   0  0  0  0  0  0  0  0  0  0  0  0
   52.6455   26.3001  111.2518 O   0  0  0  0  0  0  0  0  0  0  0  0
   49.7919   24.4245  111.5339 C   0  0  2  0  0  0  0  0  0  0  0  0
   50.8542   23.6517  112.3328 C   0  0  0  0  0  0  0  0  0  0  0  0
   49.0763   23.4266  110.6706 C   0  0  0  0  0  0  0  0  0  0  0  0
   52.1707   23.5989  111.6245 C   0  0  0  0  0  0  0  0  0  0  0  0
   52.8651   24.1339  110.5405 N   0  0  0  0  0  0  0  0  0  0  0  0
   52.9083   22.8475  111.2035 C   0  0  2  0  0  0  0  0  0  0  0  0
   54.3180   22.6569  111.6712 C   0  0  0  0  0  0  0  0  0  0  0  0
   55.1685   22.7017  110.6988 O   0  0  0  0  0  0  0  0  0  0  0  0
   52.6770   21.7756  110.1229 C   0  0  0  0  0  0  0  0  0  0  0  0
   54.2037   20.9158  109.7357 S   0  0  0  0  0  0  0  0  0  0  0  0
   54.7747   22.4463  112.9874 N   0  0  0  0  0  0  0  0  0  0  0  0
   54.7293   23.3300  114.1013 C   0  0  2  0  0  0  0  0  0  0  0  0
   54.3914   22.7981  115.4265 C   0  0  0  0  0  0  0  0  0  0  0  0
   55.2761   23.1992  116.3298 O   0  0  0  0  0  0  0  0  0  0  0  0
   53.9819   24.6274  113.7646 C   0  0  0  0  0  0  0  0  0  0  0  0
   52.9246   24.4319  112.7447 C   0  0  0  0  0  0  0  0  0  0  0  0
   52.1465   25.5227  112.3250 C   0  0  0  0  0  0  0  0  0  0  0  0
   52.6369   23.2376  112.1329 C   0  0  0  0  0  0  0  0  0  0  0  0
   51.1694   25.4450  111.3847 C   0  0  0  0  0  0  0  0  0  0  0  0
   51.6563   23.1313  111.1809 C   0  0  0  0  0  0  0  0  0  0  0  0
   50.8964   24.2328  110.7815 C   0  0  0  0  0  0  0  0  0  0  0  0
   53.3723   21.9916  115.9178 N   0  0  0  0  0  0  0  0  0  0  0  0
   52.9665   20.6447  115.6723 C   0  0  2  0  0  0  0  0  0  0  0  0
   53.3989   19.9129  114.5171 C   0  0  0  0  0  0  0  0  0  0  0  0
   52.7689   20.0842  113.4043 O   0  0  0  0  0  0  0  0  0  0  0  0
   51.4272   20.7705  115.5493 C   0  0  0  0  0  0  0  0  0  0  0  0
   51.0514   22.0138  116.3164 C   0  0  0  0  0  0  0  0  0  0  0  0
   52.3680   22.3376  116.9635 C   0  0  0  0  0  0  0  0  0  0  0  0
   54.4708   18.9843  114.4399 N   0  0  0  0  0  0  0  0  0  0  0  0
   55.8484   19.2431  114.8286 C   0  0  2  0  0  0  0  0  0  0  0  0
   56.7462   19.1037  113.6199 C   0  0  0  0  0  0  0  0  0  0  0  0
   57.5257   20.0787  113.4603 O   0  0  0  0  0  0  0  0  0  0  0  0
   56.3270   18.1816  115.8150 C   0  0  0  0  0  0  0  0  0  0  0  0
   55.1595   17.7094  116.5916 C   0  0  0  0  0  0  0  0  0  0  0  0
   54.8348   16.3401  116.6610 O   0  0  0  0  0  0  0  0  0  0  0  0
   54.3856   18.4549  117.2326 O   0  0  0  0  0  0  0  0  0  0  0  0
   56.7329   16.5230  112.6212 O   0  0  0  0  0  0  0  0  0  0  0  0
   53.9735    8.2693  112.3112 H   0  0  0  0  0  0  0  0  0  0  0  0
  1  2  1  0
  1105  1  0
  1111  1  0
  2  3  1  0
  2111  1  1
  3  4  2  0
  3  5  1  0
  5  6  1  0
  6  7  1  0
  6  9  1  6
  7  8  2  0
  7 16  1  0
  9 10  1  0
 10 11  1  0
 11 12  1  0
 12 13  1  0
 13 14  2  0
 13 15  1  0
 17 16  1  6
 17 18  1  0
 17 20  1  0
 18 19  2  0
 18 22  1  0
 20 21  1  0
 21 84  1  0
 22 23  1  0
 23 24  1  0
 23 26  1  6
 24 25  2  0
 24 34  1  0
 26 27  1  0
 27 28  2  0
 27 29  1  0
 28 30  1  0
 29 31  2  0
 30 32  2  0
 31 32  1  0
 32 33  1  0
 34 35  1  0
 35 36  1  0
 35 38  1  6
 36 37  2  0
 36 43  1  0
 38 39  1  0
 39 40  1  0
 40 41  1  0
 41 42  1  0
 43 44  1  0
 44 45  1  0
 44 47  1  1
 45 46  2  0
 45 49  1  0
 47 48  1  0
 50 49  1  6
 50 51  1  0
 50 53  1  0
 51 52  2  0
 51 57  1  0
 53 54  1  0
 53 55  1  1
 54 56  1  0
 57 58  1  0
 57 63  1  0
 58 59  1  0
 58 61  1  1
 59 60  2  0
 59 64  1  0
 61 62  1  0
 62 63  1  0
 64 65  1  0
 64 70  1  0
 65 66  1  0
 65 68  1  6
 66 67  2  0
 66 71  1  0
 68 69  1  0
 69 70  1  0
 72 71  1  6
 72 73  1  0
 72 75  1  0
 73 74  2  0
 73 79  1  0
 75 76  1  0
 75 77  1  6
 76 78  1  0
 80 79  1  6
 80 81  1  0
 80 83  1  0
 81 82  2  0
 81 85  1  0
 83 84  1  0
 85 86  1  0
 86 87  1  0
 86 89  1  6
 87 88  2  0
 87 96  1  0
 89 90  1  0
 90 91  2  0
 90 92  1  0
 91 93  1  0
 92 94  2  0
 93 95  2  0
 94 95  1  0
 96 97  1  0
 96102  1  0
 97 98  1  0
 97100  1  6
 98 99  2  0
 98103  1  0
100101  1  0
101102  1  0
103104  1  0
104105  1  0
104107  1  1
105106  2  0
107108  1  0
108109  1  0
108110  2  0
 14112  1  0
M  CHG  1  42   1
M  END
$$$$
