
     RDKit          3D

112119  0  0  0  0  0  0  0  0999 V2000
   55.6624   29.5668  107.7719 N   0  0  0  0  0  0  0  0  0  0  0  0
   56.3104   28.4518  108.0310 C   0  0  2  0  0  0  0  0  0  0  0  0
   56.0192   27.5452  109.1418 C   0  0  0  0  0  0  0  0  0  0  0  0
   54.8355   27.1779  109.3386 O   0  0  0  0  0  0  0  0  0  0  0  0
   56.9894   27.0356  110.0350 N   0  0  0  0  0  0  0  0  0  0  0  0
   58.4153   27.3394  109.9090 C   0  0  2  0  0  0  0  0  0  0  0  0
   59.1350   26.2151  109.2985 C   0  0  0  0  0  0  0  0  0  0  0  0
   60.3295   25.9956  109.7111 O   0  0  0  0  0  0  0  0  0  0  0  0
   58.8819   27.7114  111.2699 C   0  0  0  0  0  0  0  0  0  0  0  0
   60.1563   28.4709  111.3967 C   0  0  0  0  0  0  0  0  0  0  0  0
   60.7829   28.6153  110.0016 C   0  0  0  0  0  0  0  0  0  0  0  0
   59.8002   28.9020  108.9926 N   0  0  0  0  0  0  0  0  0  0  0  0
   59.6678   28.0887  107.8386 C   0  0  0  0  0  0  0  0  0  0  0  0
   60.6379   27.2941  107.4705 N   0  0  0  0  0  0  0  0  0  0  0  0
   58.4694   28.1332  107.0698 N   0  0  0  0  0  0  0  0  0  0  0  0
   58.6421   25.3514  108.2994 N   0  0  0  0  0  0  0  0  0  0  0  0
   57.5555   24.4199  108.3408 C   0  0  2  0  0  0  0  0  0  0  0  0
   57.9865   22.9933  108.4721 C   0  0  0  0  0  0  0  0  0  0  0  0
   57.5254   22.3675  109.5097 O   0  0  0  0  0  0  0  0  0  0  0  0
   56.5939   24.6140  107.1762 C   0  0  0  0  0  0  0  0  0  0  0  0
   54.9625   23.9840  107.7336 S   0  0  0  0  0  0  0  0  0  0  0  0
   58.8062   22.2567  107.6448 N   0  0  0  0  0  0  0  0  0  0  0  0
   58.6611   21.9143  106.2285 C   0  0  2  0  0  0  0  0  0  0  0  0
   59.0998   20.4898  106.0199 C   0  0  0  0  0  0  0  0  0  0  0  0
   60.2257   20.2166  106.5761 O   0  0  0  0  0  0  0  0  0  0  0  0
   59.5894   22.7758  105.3894 C   0  0  0  0  0  0  0  0  0  0  0  0
   60.7742   23.2660  106.1209 C   0  0  0  0  0  0  0  0  0  0  0  0
   61.9479   22.5621  106.0869 C   0  0  0  0  0  0  0  0  0  0  0  0
   60.6961   24.4445  106.8672 C   0  0  0  0  0  0  0  0  0  0  0  0
   63.0335   23.0486  106.8033 C   0  0  0  0  0  0  0  0  0  0  0  0
   61.7581   24.9377  107.5798 C   0  0  0  0  0  0  0  0  0  0  0  0
   62.9452   24.2093  107.5346 C   0  0  0  0  0  0  0  0  0  0  0  0
   64.0298   24.7062  108.2582 O   0  0  0  0  0  0  0  0  0  0  0  0
   58.4711   19.4789  105.3367 N   0  0  0  0  0  0  0  0  0  0  0  0
   57.6078   19.4882  104.1973 C   0  0  2  0  0  0  0  0  0  0  0  0
   56.9204   18.2142  103.9189 C   0  0  0  0  0  0  0  0  0  0  0  0
   56.8521   17.9133  102.6656 O   0  0  0  0  0  0  0  0  0  0  0  0
   58.5050   19.8026  102.9992 C   0  0  0  0  0  0  0  0  0  0  0  0
   59.4509   18.6577  102.7610 C   0  0  0  0  0  0  0  0  0  0  0  0
   60.7292   18.8182  103.5599 C   0  0  0  0  0  0  0  0  0  0  0  0
   61.7320   19.6780  102.8182 C   0  0  0  0  0  0  0  0  0  0  0  0
   63.0649   19.1401  103.0408 N   0  0  0  0  0  4  0  0  0  0  0  0
   56.3391   17.2952  104.8044 N   0  0  0  0  0  0  0  0  0  0  0  0
   55.2005   17.4233  105.6788 C   0  0  2  0  0  0  0  0  0  0  0  0
   54.1343   18.3372  105.1954 C   0  0  0  0  0  0  0  0  0  0  0  0
   54.3150   19.5468  105.6184 O   0  0  0  0  0  0  0  0  0  0  0  0
   55.5554   17.6513  107.1247 C   0  0  0  0  0  0  0  0  0  0  0  0
   55.3316   18.9199  107.5901 O   0  0  0  0  0  0  0  0  0  0  0  0
   53.0381   18.0352  104.3860 N   0  0  0  0  0  0  0  0  0  0  0  0
   51.9691   17.1200  104.4949 C   0  0  2  0  0  0  0  0  0  0  0  0
   51.2976   17.3441  105.8288 C   0  0  0  0  0  0  0  0  0  0  0  0
   52.0939   17.3598  106.8092 O   0  0  0  0  0  0  0  0  0  0  0  0
   52.2342   15.6632  104.4062 C   0  0  2  0  0  0  0  0  0  0  0  0
   52.6564   15.1590  103.0577 C   0  0  0  0  0  0  0  0  0  0  0  0
   50.9096   14.8884  104.6757 C   0  0  0  0  0  0  0  0  0  0  0  0
   53.5050   13.9458  103.0296 C   0  0  0  0  0  0  0  0  0  0  0  0
   49.9362   17.5272  106.0552 N   0  0  0  0  0  0  0  0  0  0  0  0
   48.9958   17.9779  105.0816 C   0  0  2  0  0  0  0  0  0  0  0  0
   49.1028   19.3776  104.6439 C   0  0  0  0  0  0  0  0  0  0  0  0
   50.3295   19.7437  104.4267 O   0  0  0  0  0  0  0  0  0  0  0  0
   47.6374   17.5216  105.5020 C   0  0  0  0  0  0  0  0  0  0  0  0
   47.7963   16.9971  106.9099 C   0  0  0  0  0  0  0  0  0  0  0  0
   49.2044   17.2877  107.2995 C   0  0  0  0  0  0  0  0  0  0  0  0
   48.1637   20.3829  104.4117 N   0  0  0  0  0  0  0  0  0  0  0  0
   47.4111   21.2157  105.3217 C   0  0  2  0  0  0  0  0  0  0  0  0
   47.7216   21.2093  106.7144 C   0  0  0  0  0  0  0  0  0  0  0  0
   47.5143   20.1666  107.4261 O   0  0  0  0  0  0  0  0  0  0  0  0
   45.9932   21.0017  104.9016 C   0  0  0  0  0  0  0  0  0  0  0  0
   46.1535   20.6552  103.4182 C   0  0  0  0  0  0  0  0  0  0  0  0
   47.6327   20.9740  103.1416 C   0  0  0  0  0  0  0  0  0  0  0  0
   48.2751   22.3407  107.4001 N   0  0  0  0  0  0  0  0  0  0  0  0
   47.8185   23.7089  107.2254 C   0  0  2  0  0  0  0  0  0  0  0  0
   48.5942   24.4862  106.2447 C   0  0  0  0  0  0  0  0  0  0  0  0
   47.9096   24.9365  105.2459 O   0  0  0  0  0  0  0  0  0  0  0  0
   47.7906   24.3228  108.6149 C   0  0  2  0  0  0  0  0  0  0  0  0
   48.3881   23.2390  109.5272 C   0  0  0  0  0  0  0  0  0  0  0  0
   46.3669   24.5261  109.0450 C   0  0  0  0  0  0  0  0  0  0  0  0
   48.3007   21.8744  108.9207 C   0  0  0  0  0  0  0  0  0  0  0  0
   49.9619   24.7977  106.2536 N   0  0  0  0  0  0  0  0  0  0  0  0
   50.7024   25.6409  107.1684 C   0  0  2  0  0  0  0  0  0  0  0  0
   51.3729   26.6881  106.3341 C   0  0  0  0  0  0  0  0  0  0  0  0
   52.1570   26.1779  105.4421 O   0  0  0  0  0  0  0  0  0  0  0  0
   51.8378   24.7819  107.7543 C   0  0  0  0  0  0  0  0  0  0  0  0
   53.4212   25.2438  107.0474 S   0  0  0  0  0  0  0  0  0  0  0  0
   51.2379   28.0878  106.4249 N   0  0  0  0  0  0  0  0  0  0  0  0
   50.0934   28.8936  106.1711 C   0  0  2  0  0  0  0  0  0  0  0  0
   49.7995   30.0236  107.0598 C   0  0  0  0  0  0  0  0  0  0  0  0
   49.5780   31.1258  106.3557 O   0  0  0  0  0  0  0  0  0  0  0  0
   48.8585   28.0394  105.8544 C   0  0  0  0  0  0  0  0  0  0  0  0
   49.1045   27.0533  104.7758 C   0  0  0  0  0  0  0  0  0  0  0  0
   48.0270   26.3595  104.2024 C   0  0  0  0  0  0  0  0  0  0  0  0
   50.3374   26.7576  104.2505 C   0  0  0  0  0  0  0  0  0  0  0  0
   48.1518   25.4527  103.1988 C   0  0  0  0  0  0  0  0  0  0  0  0
   50.4916   25.8470  103.2375 C   0  0  0  0  0  0  0  0  0  0  0  0
   49.4023   25.1702  102.6847 C   0  0  0  0  0  0  0  0  0  0  0  0
   49.7052   30.1759  108.4376 N   0  0  0  0  0  0  0  0  0  0  0  0
   50.6288   30.0344  109.5175 C   0  0  2  0  0  0  0  0  0  0  0  0
   51.8690   29.3278  109.3770 C   0  0  0  0  0  0  0  0  0  0  0  0
   51.8651   28.0424  109.4878 O   0  0  0  0  0  0  0  0  0  0  0  0
   49.8047   29.2497  110.5690 C   0  0  0  0  0  0  0  0  0  0  0  0
   48.3570   29.5419  110.2615 C   0  0  0  0  0  0  0  0  0  0  0  0
   48.5152   30.6141  109.2210 C   0  0  0  0  0  0  0  0  0  0  0  0
   53.1514   29.8846  109.1263 N   0  0  0  0  0  0  0  0  0  0  0  0
   53.4934   30.7655  108.0204 C   0  0  2  0  0  0  0  0  0  0  0  0
   54.5369   30.0996  107.1519 C   0  0  0  0  0  0  0  0  0  0  0  0
   54.2486   30.1088  105.9270 O   0  0  0  0  0  0  0  0  0  0  0  0
   54.1524   32.0385  108.5439 C   0  0  0  0  0  0  0  0  0  0  0  0
   55.3777   31.6580  109.2806 C   0  0  0  0  0  0  0  0  0  0  0  0
   56.6076   31.4906  108.6138 O   0  0  0  0  0  0  0  0  0  0  0  0
   55.4302   31.4588  110.5148 O   0  0  0  0  0  0  0  0  0  0  0  0
   56.9037   29.6836  108.5242 O   0  0  0  0  0  0  0  0  0  0  0  0
   60.6442   26.9787  106.4749 H   0  0  0  0  0  0  0  0  0  0  0  0
  1  2  1  0
  1105  1  0
  1111  1  0
  2  3  1  0
  2111  1  1
  3  4  2  0
  3  5  1  0
  5  6  1  0
  6  7  1  0
  6  9  1  1
  7  8  2  0
  7 16  1  0
  9 10  1  0
 10 11  1  0
 11 12  1  0
 12 13  1  0
 13 14  2  0
 13 15  1  0
 17 16  1  6
 17 18  1  0
 17 20  1  0
 18 19  2  0
 18 22  1  0
 20 21  1  0
 21 84  1  0
 22 23  1  0
 23 24  1  0
 23 26  1  6
 24 25  2  0
 24 34  1  0
 26 27  1  0
 27 28  2  0
 27 29  1  0
 28 30  1  0
 29 31  2  0
 30 32  2  0
 31 32  1  0
 32 33  1  0
 34 35  1  0
 35 36  1  0
 35 38  1  6
 36 37  2  0
 36 43  1  0
 38 39  1  0
 39 40  1  0
 40 41  1  0
 41 42  1  0
 43 44  1  0
 44 45  1  0
 44 47  1  1
 45 46  2  0
 45 49  1  0
 47 48  1  0
 50 49  1  1
 50 51  1  0
 50 53  1  0
 51 52  2  0
 51 57  1  0
 53 54  1  0
 53 55  1  6
 54 56  1  0
 57 58  1  0
 57 63  1  0
 58 59  1  0
 58 61  1  1
 59 60  2  0
 59 64  1  0
 61 62  1  0
 62 63  1  0
 64 65  1  0
 64 70  1  0
 65 66  1  0
 65 68  1  1
 66 67  2  0
 66 71  1  0
 68 69  1  0
 69 70  1  0
 72 71  1  1
 72 73  1  0
 72 75  1  0
 73 74  2  0
 73 79  1  0
 75 76  1  0
 75 77  1  1
 76 78  1  0
 80 79  1  6
 80 81  1  0
 80 83  1  0
 81 82  2  0
 81 85  1  0
 83 84  1  0
 85 86  1  0
 86 87  1  0
 86 89  1  1
 87 88  2  0
 87 96  1  0
 89 90  1  0
 90 91  2  0
 90 92  1  0
 91 93  1  0
 92 94  2  0
 93 95  2  0
 94 95  1  0
 96 97  1  0
 96102  1  0
 97 98  1  0
 97100  1  1
 98 99  2  0
 98103  1  0
100101  1  0
101102  1  0
103104  1  0
104105  1  0
104107  1  1
105106  2  0
107108  1  0
108109  1  0
108110  2  0
 14112  1  0
M  CHG  1  42   1
M  END
$$$$
