
     RDKit          3D

 41 44  0  0  0  0  0  0  0  0999 V2000
   71.3802   57.2429   15.5384 C   0  0  1  0  0  0  0  0  0  0  0  0
   70.8097   57.8053   16.8226 C   0  0  2  0  0  0  0  0  0  0  0  0
   72.9415   58.2403   18.0859 C   0  0  0  0  0  0  0  0  0  0  0  0
   74.5934   59.4584   19.3061 C   0  0  1  0  0  0  0  0  0  0  0  0
   75.6689   60.5056   19.1622 C   0  0  0  0  0  0  0  0  0  0  0  0
   74.4191   61.1329   20.9233 C   0  0  1  0  0  0  0  0  0  0  0  0
   72.9074   62.4733   19.9882 C   0  0  0  0  0  0  0  0  0  0  0  0
   69.5648   58.6423   16.5628 C   0  0  0  0  0  0  0  0  0  0  0  0
   67.6918   51.3238   13.6907 C   0  0  0  0  0  0  0  0  0  0  0  0
   67.3508   52.6780   13.1678 C   0  0  0  0  0  0  0  0  0  0  0  0
   67.5699   53.6918   14.2786 C   0  0  0  0  0  0  0  0  0  0  0  0
   68.7691   53.2579   15.0671 C   0  0  0  0  0  0  0  0  0  0  0  0
   68.3426   52.1571   15.9824 C   0  0  0  0  0  0  0  0  0  0  0  0
   67.5445   51.1559   15.1737 C   0  0  0  0  0  0  0  0  0  0  0  0
   71.5956   54.4220   13.9668 C   0  0  0  0  0  0  0  0  0  0  0  0
   71.9604   55.9062   15.8201 C   0  0  0  0  0  0  0  0  0  0  0  0
   73.5362   60.2051   20.0769 C   0  0  1  0  0  0  0  0  0  0  0  0
   72.7954   61.1922   19.2198 C   0  0  0  0  0  0  0  0  0  0  0  0
   69.0792   59.2504   17.8480 C   0  0  0  0  0  0  0  0  0  0  0  0
   68.5022   58.4708   18.8206 C   0  0  0  0  0  0  0  0  0  0  0  0
   68.0483   59.0112   20.0106 C   0  0  0  0  0  0  0  0  0  0  0  0
   68.1657   60.3564   20.2496 C   0  0  0  0  0  0  0  0  0  0  0  0
   68.7527   61.1488   19.2600 C   0  0  0  0  0  0  0  0  0  0  0  0
   69.2002   60.6014   18.0815 C   0  0  0  0  0  0  0  0  0  0  0  0
   67.2115   48.8548   13.5465 C   0  0  0  0  0  0  0  0  0  0  0  0
   72.7287   52.3482   11.9342 C   0  0  0  0  0  0  0  0  0  0  0  0
   73.0241   54.1068   13.6908 C   0  0  2  0  0  0  0  0  0  0  0  0
   73.2464   52.6565   13.3191 C   0  0  0  0  0  0  0  0  0  0  0  0
   73.8420   54.3351   14.9670 C   0  0  0  0  0  0  0  0  0  0  0  0
   66.9000   50.2233   13.0057 C   0  0  2  0  0  0  0  0  0  0  0  0
   71.2635   54.7725   15.3044 N   0  0  0  0  0  0  0  0  0  0  0  0
   71.7583   58.7262   17.4602 N   0  0  0  0  0  0  0  0  0  0  0  0
   69.5743   54.3605   17.3156 O   0  0  0  0  0  0  0  0  0  0  0  0
   68.9252   55.8355   15.5344 O   0  0  0  0  0  0  0  0  0  0  0  0
   70.3737   57.2804   14.5958 O   0  0  0  0  0  0  0  0  0  0  0  0
   72.8655   57.1195   18.6592 O   0  0  0  0  0  0  0  0  0  0  0  0
   74.1464   58.9239   18.0954 O   0  0  0  0  0  0  0  0  0  0  0  0
   75.4559   61.4788   20.1000 O   0  0  0  0  0  0  0  0  0  0  0  0
   73.5324   62.1670   21.1962 O   0  0  0  0  0  0  0  0  0  0  0  0
   67.0831   50.2757   11.6285 O   0  0  0  0  0  0  0  0  0  0  0  0
   69.6945   54.5441   15.8050 S   0  0  2  0  0  6  0  0  0  0  0  0
  1  2  1  0
 16  1  1  0
  1 35  1  6
  2  8  1  6
  2 32  1  0
 32  3  1  0
  3 36  2  0
  3 37  1  0
  4  5  1  0
  4 17  1  0
  4 37  1  6
  5 38  1  0
 17  6  1  0
  6 38  1  6
  6 39  1  0
 18  7  1  0
  7 39  1  0
  8 19  1  0
 10  9  1  0
 14  9  1  0
  9 30  1  0
 11 10  1  0
 12 11  1  0
 12 13  1  0
 41 12  1  0
 13 14  1  0
 15 27  1  0
 31 15  1  0
 31 16  1  0
 17 18  1  6
 19 20  2  0
 19 24  1  0
 20 21  1  0
 21 22  2  0
 23 22  1  0
 24 23  2  0
 30 25  1  1
 28 26  1  0
 27 28  1  0
 27 29  1  1
 30 40  1  0
 41 31  1  6
 41 33  2  0
 41 34  2  0
M  END
$$$$
