
     RDKit          3D

 41 44  0  0  0  0  0  0  0  0999 V2000
   70.5600   57.7690   15.0320 C   0  0  1  0  0  0  0  0  0  0  0  0
   70.9174   56.2982   15.0379 C   0  0  2  0  0  0  0  0  0  0  0  0
   69.0363   54.6441   15.2723 C   0  0  0  0  0  0  0  0  0  0  0  0
   68.0870   52.6147   14.4464 C   0  0  1  0  0  0  0  0  0  0  0  0
   67.4018   53.5005   13.4366 C   0  0  0  0  0  0  0  0  0  0  0  0
   67.5301   51.4630   12.4937 C   0  0  1  0  0  0  0  0  0  0  0  0
   69.4503   51.5711   11.3723 C   0  0  0  0  0  0  0  0  0  0  0  0
   72.1324   56.0139   14.1656 C   0  0  0  0  0  0  0  0  0  0  0  0
   75.2882   60.3548   20.6071 C   0  0  0  0  0  0  0  0  0  0  0  0
   74.1339   59.7207   21.3061 C   0  0  0  0  0  0  0  0  0  0  0  0
   73.0667   59.3945   20.2744 C   0  0  0  0  0  0  0  0  0  0  0  0
   73.7599   58.9665   19.0156 C   0  0  0  0  0  0  0  0  0  0  0  0
   74.2411   60.1956   18.3162 C   0  0  0  0  0  0  0  0  0  0  0  0
   74.9496   61.0675   19.3317 C   0  0  0  0  0  0  0  0  0  0  0  0
   70.6667   59.2579   17.9422 C   0  0  0  0  0  0  0  0  0  0  0  0
   71.5609   58.5056   15.8433 C   0  0  0  0  0  0  0  0  0  0  0  0
   68.6188   51.5068   13.5752 C   0  0  1  0  0  0  0  0  0  0  0  0
   69.8190   51.9335   12.7783 C   0  0  0  0  0  0  0  0  0  0  0  0
   72.5156   54.5654   14.2778 C   0  0  0  0  0  0  0  0  0  0  0  0
   71.8601   53.7304   15.1494 C   0  0  0  0  0  0  0  0  0  0  0  0
   72.1979   52.3940   15.2681 C   0  0  0  0  0  0  0  0  0  0  0  0
   73.2091   51.8651   14.5077 C   0  0  0  0  0  0  0  0  0  0  0  0
   73.8754   52.7150   13.6214 C   0  0  0  0  0  0  0  0  0  0  0  0
   73.5316   54.0410   13.5115 C   0  0  0  0  0  0  0  0  0  0  0  0
   75.1866   62.4292   22.0333 C   0  0  0  0  0  0  0  0  0  0  0  0
   69.3030   61.1468   19.2279 C   0  0  0  0  0  0  0  0  0  0  0  0
   69.2660   59.3817   17.4535 C   0  0  2  0  0  0  0  0  0  0  0  0
   68.4471   60.3699   18.2558 C   0  0  0  0  0  0  0  0  0  0  0  0
   68.5585   58.0317   17.6169 C   0  0  0  0  0  0  0  0  0  0  0  0
   76.0491   61.3170   21.5029 C   0  0  2  0  0  0  0  0  0  0  0  0
   71.5046   58.3339   17.2591 N   0  0  0  0  0  0  0  0  0  0  0  0
   69.8372   55.4926   14.4561 N   0  0  0  0  0  0  0  0  0  0  0  0
   72.6653   56.5782   18.8833 O   0  0  0  0  0  0  0  0  0  0  0  0
   73.8680   57.3487   16.9522 O   0  0  0  0  0  0  0  0  0  0  0  0
   70.4471   58.1545   13.7123 O   0  0  0  0  0  0  0  0  0  0  0  0
   68.2636   55.2065   16.0953 O   0  0  0  0  0  0  0  0  0  0  0  0
   69.0638   53.2605   15.2080 O   0  0  0  0  0  0  0  0  0  0  0  0
   67.1714   52.7697   12.3031 O   0  0  0  0  0  0  0  0  0  0  0  0
   68.2303   50.8990   11.4346 O   0  0  0  0  0  0  0  0  0  0  0  0
   77.1675   61.8155   20.8444 O   0  0  0  0  0  0  0  0  0  0  0  0
   72.8882   57.8204   18.0248 S   0  0  2  0  0  6  0  0  0  0  0  0
  1  2  1  0
 16  1  1  0
  1 35  1  6
  2  8  1  6
  2 32  1  0
 32  3  1  0
  3 36  2  0
  3 37  1  0
  4  5  1  0
  4 17  1  0
  4 37  1  6
  5 38  1  0
 17  6  1  0
  6 38  1  6
  6 39  1  0
 18  7  1  0
  7 39  1  0
  8 19  1  0
 10  9  1  0
 14  9  1  0
  9 30  1  0
 11 10  1  0
 12 11  1  0
 12 13  1  0
 41 12  1  0
 13 14  1  0
 15 27  1  0
 31 15  1  0
 31 16  1  0
 17 18  1  6
 19 20  2  0
 19 24  1  0
 20 21  1  0
 21 22  2  0
 23 22  1  0
 24 23  2  0
 30 25  1  6
 28 26  1  0
 27 28  1  0
 27 29  1  1
 30 40  1  0
 41 31  1  6
 41 33  2  0
 41 34  2  0
M  END
$$$$
