
     RDKit          3D

 41 44  0  0  0  0  0  0  0  0999 V2000
   70.5215   57.2199   15.6864 C   0  0  1  0  0  0  0  0  0  0  0  0
   70.6912   56.0487   14.7427 C   0  0  2  0  0  0  0  0  0  0  0  0
   70.9841   53.5516   14.8339 C   0  0  0  0  0  0  0  0  0  0  0  0
   71.1156   51.1694   14.7353 C   0  0  1  0  0  0  0  0  0  0  0  0
   70.0226   51.0812   13.7001 C   0  0  0  0  0  0  0  0  0  0  0  0
   71.8192   50.0738   12.7977 C   0  0  1  0  0  0  0  0  0  0  0  0
   72.8052   51.7404   11.6994 C   0  0  0  0  0  0  0  0  0  0  0  0
   69.5586   55.9790   13.7277 C   0  0  0  0  0  0  0  0  0  0  0  0
   69.5089   61.1225   21.4290 C   0  0  0  0  0  0  0  0  0  0  0  0
   68.4800   61.0095   20.3558 C   0  0  0  0  0  0  0  0  0  0  0  0
   69.1455   60.4534   19.1077 C   0  0  0  0  0  0  0  0  0  0  0  0
   70.1716   59.4500   19.5422 C   0  0  0  0  0  0  0  0  0  0  0  0
   71.3779   60.1991   20.0061 C   0  0  0  0  0  0  0  0  0  0  0  0
   70.9188   61.2934   20.9469 C   0  0  0  0  0  0  0  0  0  0  0  0
   73.1113   58.0337   18.2304 C   0  0  0  0  0  0  0  0  0  0  0  0
   71.8511   57.5862   16.2347 C   0  0  0  0  0  0  0  0  0  0  0  0
   72.3535   51.0084   13.8922 C   0  0  1  0  0  0  0  0  0  0  0  0
   72.6715   52.2468   13.1029 C   0  0  0  0  0  0  0  0  0  0  0  0
   68.6022   54.8824   14.1021 C   0  0  0  0  0  0  0  0  0  0  0  0
   67.5580   54.5476   13.2750 C   0  0  0  0  0  0  0  0  0  0  0  0
   66.6662   53.5414   13.6016 C   0  0  0  0  0  0  0  0  0  0  0  0
   66.8064   52.8458   14.7750 C   0  0  0  0  0  0  0  0  0  0  0  0
   67.8687   53.1868   15.6158 C   0  0  0  0  0  0  0  0  0  0  0  0
   68.7488   54.1879   15.2814 C   0  0  0  0  0  0  0  0  0  0  0  0
   68.7553   61.7357   23.7535 C   0  0  0  0  0  0  0  0  0  0  0  0
   75.5219   58.1969   19.6826 C   0  0  0  0  0  0  0  0  0  0  0  0
   74.3498   58.3747   17.4781 C   0  0  2  0  0  0  0  0  0  0  0  0
   75.6118   57.9470   18.1958 C   0  0  0  0  0  0  0  0  0  0  0  0
   74.4489   59.8983   17.3427 C   0  0  0  0  0  0  0  0  0  0  0  0
   69.2017   62.2414   22.4092 C   0  0  2  0  0  0  0  0  0  0  0  0
   71.8791   58.1753   17.5344 N   0  0  0  0  0  0  0  0  0  0  0  0
   70.6270   54.7749   15.4691 N   0  0  0  0  0  0  0  0  0  0  0  0
   69.2255   58.0144   17.5513 O   0  0  0  0  0  0  0  0  0  0  0  0
   70.4721   56.8596   19.2489 O   0  0  0  0  0  0  0  0  0  0  0  0
   69.8591   58.2098   14.9905 O   0  0  0  0  0  0  0  0  0  0  0  0
   71.2108   53.5967   13.5941 O   0  0  0  0  0  0  0  0  0  0  0  0
   71.0923   52.3401   15.4971 O   0  0  0  0  0  0  0  0  0  0  0  0
   70.5340   50.4889   12.5778 O   0  0  0  0  0  0  0  0  0  0  0  0
   72.6985   50.3516   11.7587 O   0  0  0  0  0  0  0  0  0  0  0  0
   68.2731   63.1230   21.8675 O   0  0  0  0  0  0  0  0  0  0  0  0
   70.4731   58.1433   18.4212 S   0  0  2  0  0  6  0  0  0  0  0  0
  1  2  1  0
 16  1  1  0
  1 35  1  6
  2  8  1  6
  2 32  1  0
 32  3  1  0
  3 36  2  0
  3 37  1  0
  4  5  1  0
  4 17  1  0
  4 37  1  6
  5 38  1  0
 17  6  1  0
  6 38  1  6
  6 39  1  0
 18  7  1  0
  7 39  1  0
  8 19  1  0
 10  9  1  0
 14  9  1  0
  9 30  1  0
 11 10  1  0
 12 11  1  0
 12 13  1  0
 41 12  1  0
 13 14  1  0
 15 27  1  0
 31 15  1  0
 31 16  1  0
 17 18  1  6
 19 20  2  0
 19 24  1  0
 20 21  1  0
 21 22  2  0
 23 22  1  0
 24 23  2  0
 30 25  1  1
 28 26  1  0
 27 28  1  0
 27 29  1  1
 30 40  1  0
 41 31  1  6
 41 33  2  0
 41 34  2  0
M  END
$$$$
