
     RDKit          3D

 41 44  0  0  0  0  0  0  0  0999 V2000
   71.6554   57.4765   15.3392 C   0  0  1  0  0  0  0  0  0  0  0  0
   71.1639   57.9126   16.7027 C   0  0  2  0  0  0  0  0  0  0  0  0
   73.2953   58.3841   17.9534 C   0  0  0  0  0  0  0  0  0  0  0  0
   74.3112   59.4804   19.8156 C   0  0  1  0  0  0  0  0  0  0  0  0
   75.0391   60.2672   18.7550 C   0  0  0  0  0  0  0  0  0  0  0  0
   74.5034   61.7406   20.3672 C   0  0  1  0  0  0  0  0  0  0  0  0
   72.5351   62.5174   19.6752 C   0  0  0  0  0  0  0  0  0  0  0  0
   69.8523   58.6796   16.6060 C   0  0  0  0  0  0  0  0  0  0  0  0
   67.2635   51.3335   13.5649 C   0  0  0  0  0  0  0  0  0  0  0  0
   68.5747   50.8556   14.0900 C   0  0  0  0  0  0  0  0  0  0  0  0
   69.4906   52.0561   14.2619 C   0  0  0  0  0  0  0  0  0  0  0  0
   68.6529   53.2113   14.7224 C   0  0  0  0  0  0  0  0  0  0  0  0
   67.9405   53.7647   13.5317 C   0  0  0  0  0  0  0  0  0  0  0  0
   67.3171   52.6088   12.7775 C   0  0  0  0  0  0  0  0  0  0  0  0
   71.6913   54.4005   14.2934 C   0  0  0  0  0  0  0  0  0  0  0  0
   70.6735   56.5258   14.7606 C   0  0  0  0  0  0  0  0  0  0  0  0
   73.5344   60.5601   20.5229 C   0  0  1  0  0  0  0  0  0  0  0  0
   72.3534   61.0312   19.7222 C   0  0  0  0  0  0  0  0  0  0  0  0
   69.3535   59.0166   17.9826 C   0  0  0  0  0  0  0  0  0  0  0  0
   69.0083   58.0245   18.8676 C   0  0  0  0  0  0  0  0  0  0  0  0
   68.5466   58.3137   20.1394 C   0  0  0  0  0  0  0  0  0  0  0  0
   68.4213   59.6156   20.5512 C   0  0  0  0  0  0  0  0  0  0  0  0
   68.7726   60.6243   19.6506 C   0  0  0  0  0  0  0  0  0  0  0  0
   69.2302   60.3257   18.3896 C   0  0  0  0  0  0  0  0  0  0  0  0
   67.5171   49.3938   11.9772 C   0  0  0  0  0  0  0  0  0  0  0  0
   73.9915   52.3353   13.8164 C   0  0  0  0  0  0  0  0  0  0  0  0
   73.1497   54.5820   14.5301 C   0  0  2  0  0  0  0  0  0  0  0  0
   74.0064   53.8204   13.5417 C   0  0  0  0  0  0  0  0  0  0  0  0
   73.5069   54.0141   15.9083 C   0  0  0  0  0  0  0  0  0  0  0  0
   66.5602   50.2830   12.7229 C   0  0  2  0  0  0  0  0  0  0  0  0
   70.8096   55.1511   15.1192 N   0  0  0  0  0  0  0  0  0  0  0  0
   72.1055   58.8506   17.3255 N   0  0  0  0  0  0  0  0  0  0  0  0
   69.7365   53.6976   17.0695 O   0  0  0  0  0  0  0  0  0  0  0  0
   68.4322   55.4509   16.0723 O   0  0  0  0  0  0  0  0  0  0  0  0
   71.8940   58.6215   14.6078 O   0  0  0  0  0  0  0  0  0  0  0  0
   74.1827   57.8939   17.2031 O   0  0  0  0  0  0  0  0  0  0  0  0
   73.5210   58.4410   19.3191 O   0  0  0  0  0  0  0  0  0  0  0  0
   75.0493   61.5852   19.1221 O   0  0  0  0  0  0  0  0  0  0  0  0
   73.6319   62.8165   20.4823 O   0  0  0  0  0  0  0  0  0  0  0  0
   65.6485   50.8801   11.8597 O   0  0  0  0  0  0  0  0  0  0  0  0
   69.4688   54.3820   15.7316 S   0  0  2  0  0  6  0  0  0  0  0  0
  1  2  1  0
 16  1  1  0
  1 35  1  6
  2  8  1  6
  2 32  1  0
 32  3  1  0
  3 36  2  0
  3 37  1  0
  4  5  1  0
  4 17  1  0
  4 37  1  6
  5 38  1  0
 17  6  1  0
  6 38  1  6
  6 39  1  0
 18  7  1  0
  7 39  1  0
  8 19  1  0
 10  9  1  0
 14  9  1  0
  9 30  1  0
 11 10  1  0
 12 11  1  0
 12 13  1  0
 41 12  1  0
 13 14  1  0
 15 27  1  0
 31 15  1  0
 31 16  1  0
 17 18  1  6
 19 20  2  0
 19 24  1  0
 20 21  1  0
 21 22  2  0
 23 22  1  0
 24 23  2  0
 30 25  1  6
 28 26  1  0
 27 28  1  0
 27 29  1  1
 30 40  1  0
 41 31  1  6
 41 33  2  0
 41 34  2  0
M  END
$$$$
