
     RDKit          3D

 41 44  0  0  0  0  0  0  0  0999 V2000
   70.8197   57.8679   14.7775 C   0  0  1  0  0  0  0  0  0  0  0  0
   70.9471   56.3619   14.8590 C   0  0  2  0  0  0  0  0  0  0  0  0
   69.5086   54.2994   14.7776 C   0  0  0  0  0  0  0  0  0  0  0  0
   67.9869   52.5606   14.1749 C   0  0  1  0  0  0  0  0  0  0  0  0
   67.5136   52.9759   12.8048 C   0  0  0  0  0  0  0  0  0  0  0  0
   68.6464   51.0546   12.5177 C   0  0  1  0  0  0  0  0  0  0  0  0
   70.7094   51.7715   12.0862 C   0  0  0  0  0  0  0  0  0  0  0  0
   71.7288   55.8015   13.6788 C   0  0  0  0  0  0  0  0  0  0  0  0
   74.7760   60.9665   20.3376 C   0  0  0  0  0  0  0  0  0  0  0  0
   75.6809   60.3706   19.3133 C   0  0  0  0  0  0  0  0  0  0  0  0
   75.1964   58.9638   19.0033 C   0  0  0  0  0  0  0  0  0  0  0  0
   73.6978   58.9732   19.0491 C   0  0  0  0  0  0  0  0  0  0  0  0
   73.2824   58.9372   20.4836 C   0  0  0  0  0  0  0  0  0  0  0  0
   74.0861   59.9800   21.2321 C   0  0  0  0  0  0  0  0  0  0  0  0
   70.7502   59.3249   17.6412 C   0  0  0  0  0  0  0  0  0  0  0  0
   71.8343   58.4807   15.6707 C   0  0  0  0  0  0  0  0  0  0  0  0
   69.1427   51.6539   13.8411 C   0  0  1  0  0  0  0  0  0  0  0  0
   70.3556   52.4177   13.3906 C   0  0  0  0  0  0  0  0  0  0  0  0
   72.3878   54.5088   14.0685 C   0  0  0  0  0  0  0  0  0  0  0  0
   72.3594   53.4237   13.2269 C   0  0  0  0  0  0  0  0  0  0  0  0
   72.9596   52.2244   13.5670 C   0  0  0  0  0  0  0  0  0  0  0  0
   73.6055   52.0897   14.7692 C   0  0  0  0  0  0  0  0  0  0  0  0
   73.6341   53.1938   15.6248 C   0  0  0  0  0  0  0  0  0  0  0  0
   73.0346   54.3804   15.2767 C   0  0  0  0  0  0  0  0  0  0  0  0
   75.3701   63.3906   20.6818 C   0  0  0  0  0  0  0  0  0  0  0  0
   68.2023   60.6343   18.8154 C   0  0  0  0  0  0  0  0  0  0  0  0
   69.4572   59.5520   16.9394 C   0  0  2  0  0  0  0  0  0  0  0  0
   68.7402   60.7977   17.4136 C   0  0  0  0  0  0  0  0  0  0  0  0
   68.5092   58.3879   17.2491 C   0  0  0  0  0  0  0  0  0  0  0  0
   75.4843   61.9874   21.2112 C   0  0  2  0  0  0  0  0  0  0  0  0
   71.6242   58.3552   17.0768 N   0  0  0  0  0  0  0  0  0  0  0  0
   69.6303   55.7181   14.7803 N   0  0  0  0  0  0  0  0  0  0  0  0
   72.5513   56.6133   18.8583 O   0  0  0  0  0  0  0  0  0  0  0  0
   73.9757   57.2970   17.0491 O   0  0  0  0  0  0  0  0  0  0  0  0
   70.8998   58.2110   13.4438 O   0  0  0  0  0  0  0  0  0  0  0  0
   70.5558   53.6366   14.5433 O   0  0  0  0  0  0  0  0  0  0  0  0
   68.3214   53.6259   15.0145 O   0  0  0  0  0  0  0  0  0  0  0  0
   67.9963   52.0814   11.8889 O   0  0  0  0  0  0  0  0  0  0  0  0
   69.8481   50.6870   11.9255 O   0  0  0  0  0  0  0  0  0  0  0  0
   76.8133   61.6267   21.4030 O   0  0  0  0  0  0  0  0  0  0  0  0
   72.9021   57.8249   17.9987 S   0  0  2  0  0  6  0  0  0  0  0  0
  1  2  1  0
 16  1  1  0
  1 35  1  6
  2  8  1  6
  2 32  1  0
 32  3  1  0
  3 36  2  0
  3 37  1  0
  4  5  1  0
  4 17  1  0
  4 37  1  1
  5 38  1  0
 17  6  1  0
  6 38  1  6
  6 39  1  0
 18  7  1  0
  7 39  1  0
  8 19  1  0
 10  9  1  0
 14  9  1  0
  9 30  1  0
 11 10  1  0
 12 11  1  0
 12 13  1  0
 41 12  1  0
 13 14  1  0
 15 27  1  0
 31 15  1  0
 31 16  1  0
 17 18  1  6
 19 20  2  0
 19 24  1  0
 20 21  1  0
 21 22  2  0
 23 22  1  0
 24 23  2  0
 30 25  1  6
 28 26  1  0
 27 28  1  0
 27 29  1  1
 30 40  1  0
 41 31  1  6
 41 33  2  0
 41 34  2  0
M  END
$$$$
