
     RDKit          3D

 41 44  0  0  0  0  0  0  0  0999 V2000
   70.6465   57.2460   15.5828 C   0  0  1  0  0  0  0  0  0  0  0  0
   71.1765   57.1798   16.9990 C   0  0  2  0  0  0  0  0  0  0  0  0
   72.7342   58.4595   18.5042 C   0  0  0  0  0  0  0  0  0  0  0  0
   74.2299   59.8470   19.7450 C   0  0  1  0  0  0  0  0  0  0  0  0
   75.2744   60.9224   19.5820 C   0  0  0  0  0  0  0  0  0  0  0  0
   73.8252   61.6884   21.1216 C   0  0  1  0  0  0  0  0  0  0  0  0
   72.3698   62.8332   19.8857 C   0  0  0  0  0  0  0  0  0  0  0  0
   70.0466   57.1043   18.0167 C   0  0  0  0  0  0  0  0  0  0  0  0
   67.1454   51.2517   14.1302 C   0  0  0  0  0  0  0  0  0  0  0  0
   68.5788   51.2604   13.7197 C   0  0  0  0  0  0  0  0  0  0  0  0
   69.1193   52.6707   13.8890 C   0  0  0  0  0  0  0  0  0  0  0  0
   68.4827   53.2634   15.1103 C   0  0  0  0  0  0  0  0  0  0  0  0
   67.1023   53.6999   14.7422 C   0  0  0  0  0  0  0  0  0  0  0  0
   66.4340   52.5650   13.9946 C   0  0  0  0  0  0  0  0  0  0  0  0
   71.7027   53.7419   14.7721 C   0  0  0  0  0  0  0  0  0  0  0  0
   71.1712   56.0841   14.8231 C   0  0  0  0  0  0  0  0  0  0  0  0
   73.0708   60.6251   20.3110 C   0  0  1  0  0  0  0  0  0  0  0  0
   72.3867   61.4670   19.2714 C   0  0  0  0  0  0  0  0  0  0  0  0
   69.7638   58.4721   18.5703 C   0  0  0  0  0  0  0  0  0  0  0  0
   68.7326   58.6728   19.4551 C   0  0  0  0  0  0  0  0  0  0  0  0
   68.4555   59.9242   19.9762 C   0  0  0  0  0  0  0  0  0  0  0  0
   69.2147   61.0079   19.6159 C   0  0  0  0  0  0  0  0  0  0  0  0
   70.2634   60.8031   18.7159 C   0  0  0  0  0  0  0  0  0  0  0  0
   70.5299   59.5556   18.2046 C   0  0  0  0  0  0  0  0  0  0  0  0
   66.3843   50.3604   11.9000 C   0  0  0  0  0  0  0  0  0  0  0  0
   74.5595   52.0106   14.4540 C   0  0  0  0  0  0  0  0  0  0  0  0
   73.1068   54.0477   14.3838 C   0  0  2  0  0  0  0  0  0  0  0  0
   73.7507   52.9390   13.5795 C   0  0  0  0  0  0  0  0  0  0  0  0
   73.9575   54.1845   15.6516 C   0  0  0  0  0  0  0  0  0  0  0  0
   66.3396   50.1952   13.3943 C   0  0  2  0  0  0  0  0  0  0  0  0
   70.9654   54.7900   15.3889 N   0  0  0  0  0  0  0  0  0  0  0  0
   71.9134   58.4020   17.3421 N   0  0  0  0  0  0  0  0  0  0  0  0
   69.4574   54.0129   17.4358 O   0  0  0  0  0  0  0  0  0  0  0  0
   68.6392   55.7359   15.9759 O   0  0  0  0  0  0  0  0  0  0  0  0
   69.2731   57.3451   15.6670 O   0  0  0  0  0  0  0  0  0  0  0  0
   72.3279   57.8354   19.5220 O   0  0  0  0  0  0  0  0  0  0  0  0
   73.9318   59.1528   18.5700 O   0  0  0  0  0  0  0  0  0  0  0  0
   74.9284   61.9868   20.3688 O   0  0  0  0  0  0  0  0  0  0  0  0
   72.8767   62.7019   21.1778 O   0  0  0  0  0  0  0  0  0  0  0  0
   65.0300   50.1683   13.8604 O   0  0  0  0  0  0  0  0  0  0  0  0
   69.4476   54.4400   15.9704 S   0  0  2  0  0  6  0  0  0  0  0  0
  1  2  1  0
 16  1  1  0
  1 35  1  1
  2  8  1  1
  2 32  1  0
 32  3  1  0
  3 36  2  0
  3 37  1  0
  4  5  1  0
  4 17  1  0
  4 37  1  6
  5 38  1  0
 17  6  1  0
  6 38  1  6
  6 39  1  0
 18  7  1  0
  7 39  1  0
  8 19  1  0
 10  9  1  0
 14  9  1  0
  9 30  1  0
 11 10  1  0
 12 11  1  0
 12 13  1  0
 41 12  1  0
 13 14  1  0
 15 27  1  0
 31 15  1  0
 31 16  1  0
 17 18  1  6
 19 20  2  0
 19 24  1  0
 20 21  1  0
 21 22  2  0
 23 22  1  0
 24 23  2  0
 30 25  1  6
 28 26  1  0
 27 28  1  0
 27 29  1  1
 30 40  1  0
 41 31  1  6
 41 33  2  0
 41 34  2  0
M  END
$$$$
