
     RDKit          3D

 41 44  0  0  0  0  0  0  0  0999 V2000
   70.8725   56.8045   14.8533 C   0  0  1  0  0  0  0  0  0  0  0  0
   71.4038   55.5096   15.4294 C   0  0  2  0  0  0  0  0  0  0  0  0
   70.6884   53.4712   14.1398 C   0  0  0  0  0  0  0  0  0  0  0  0
   69.9389   51.4092   13.1974 C   0  0  1  0  0  0  0  0  0  0  0  0
   69.1486   51.0874   14.4407 C   0  0  0  0  0  0  0  0  0  0  0  0
   67.6870   51.0044   12.7337 C   0  0  1  0  0  0  0  0  0  0  0  0
   66.8813   53.0793   12.6881 C   0  0  0  0  0  0  0  0  0  0  0  0
   72.7667   55.7036   16.0795 C   0  0  0  0  0  0  0  0  0  0  0  0
   72.5838   61.0477   19.2271 C   0  0  0  0  0  0  0  0  0  0  0  0
   73.6604   60.0226   19.3425 C   0  0  0  0  0  0  0  0  0  0  0  0
   73.0109   58.6525   19.4465 C   0  0  0  0  0  0  0  0  0  0  0  0
   71.7959   58.6517   18.5679 C   0  0  0  0  0  0  0  0  0  0  0  0
   70.7035   59.3655   19.2950 C   0  0  0  0  0  0  0  0  0  0  0  0
   71.2676   60.6633   19.8345 C   0  0  0  0  0  0  0  0  0  0  0  0
   68.7211   57.2537   17.8897 C   0  0  0  0  0  0  0  0  0  0  0  0
   69.8089   57.3234   15.7490 C   0  0  0  0  0  0  0  0  0  0  0  0
   68.8585   51.8742   12.2562 C   0  0  1  0  0  0  0  0  0  0  0  0
   68.3658   53.2539   12.5900 C   0  0  0  0  0  0  0  0  0  0  0  0
   73.5259   54.4071   16.0741 C   0  0  0  0  0  0  0  0  0  0  0  0
   74.5500   54.1960   15.1835 C   0  0  0  0  0  0  0  0  0  0  0  0
   75.2611   53.0093   15.1619 C   0  0  0  0  0  0  0  0  0  0  0  0
   74.9552   52.0027   16.0415 C   0  0  0  0  0  0  0  0  0  0  0  0
   73.9135   52.2181   16.9471 C   0  0  0  0  0  0  0  0  0  0  0  0
   73.2138   53.4008   16.9598 C   0  0  0  0  0  0  0  0  0  0  0  0
   73.8573   62.2604   21.0313 C   0  0  0  0  0  0  0  0  0  0  0  0
   66.6750   57.8007   19.4941 C   0  0  0  0  0  0  0  0  0  0  0  0
   67.4170   56.8332   17.3081 C   0  0  2  0  0  0  0  0  0  0  0  0
   66.2353   57.2150   18.1732 C   0  0  0  0  0  0  0  0  0  0  0  0
   67.3816   55.3036   17.2140 C   0  0  0  0  0  0  0  0  0  0  0  0
   72.9999   62.3905   19.8024 C   0  0  2  0  0  0  0  0  0  0  0  0
   69.8863   56.9631   17.1279 N   0  0  0  0  0  0  0  0  0  0  0  0
   71.6271   54.5165   14.3719 N   0  0  0  0  0  0  0  0  0  0  0  0
   71.5807   56.0606   18.9670 O   0  0  0  0  0  0  0  0  0  0  0  0
   72.4431   56.7816   16.8443 O   0  0  0  0  0  0  0  0  0  0  0  0
   71.9556   57.6352   14.6538 O   0  0  0  0  0  0  0  0  0  0  0  0
   69.5447   53.6059   14.6542 O   0  0  0  0  0  0  0  0  0  0  0  0
   70.9641   52.3377   13.3926 O   0  0  0  0  0  0  0  0  0  0  0  0
   67.8350   50.9309   14.0921 O   0  0  0  0  0  0  0  0  0  0  0  0
   66.6030   51.7653   12.3141 O   0  0  0  0  0  0  0  0  0  0  0  0
   71.8842   63.1832   20.0467 O   0  0  0  0  0  0  0  0  0  0  0  0
   71.3643   57.1059   17.8759 S   0  0  2  0  0  6  0  0  0  0  0  0
  1  2  1  0
 16  1  1  0
  1 35  1  1
  2  8  1  6
  2 32  1  0
 32  3  1  0
  3 36  2  0
  3 37  1  0
  4  5  1  0
  4 17  1  0
  4 37  1  1
  5 38  1  0
 17  6  1  0
  6 38  1  1
  6 39  1  0
 18  7  1  0
  7 39  1  0
  8 19  1  0
 10  9  1  0
 14  9  1  0
  9 30  1  0
 11 10  1  0
 12 11  1  0
 12 13  1  0
 41 12  1  0
 13 14  1  0
 15 27  1  0
 31 15  1  0
 31 16  1  0
 17 18  1  1
 19 20  2  0
 19 24  1  0
 20 21  1  0
 21 22  2  0
 23 22  1  0
 24 23  2  0
 30 25  1  1
 28 26  1  0
 27 28  1  0
 27 29  1  1
 30 40  1  0
 41 31  1  6
 41 33  2  0
 41 34  2  0
M  END
$$$$
