
     RDKit          3D

 41 44  0  0  0  0  0  0  0  0999 V2000
   71.6083   57.4294   15.1981 C   0  0  1  0  0  0  0  0  0  0  0  0
   71.1906   57.8694   16.5847 C   0  0  2  0  0  0  0  0  0  0  0  0
   73.0972   58.3110   18.1658 C   0  0  0  0  0  0  0  0  0  0  0  0
   74.8358   59.4875   19.3037 C   0  0  1  0  0  0  0  0  0  0  0  0
   75.7292   60.6390   18.9167 C   0  0  0  0  0  0  0  0  0  0  0  0
   74.4706   61.3741   20.6292 C   0  0  1  0  0  0  0  0  0  0  0  0
   72.7324   62.2968   19.5882 C   0  0  0  0  0  0  0  0  0  0  0  0
   69.9009   58.6778   16.5508 C   0  0  0  0  0  0  0  0  0  0  0  0
   67.5340   51.4064   13.8121 C   0  0  0  0  0  0  0  0  0  0  0  0
   66.9181   52.7643   13.7974 C   0  0  0  0  0  0  0  0  0  0  0  0
   67.3457   53.5002   15.0565 C   0  0  0  0  0  0  0  0  0  0  0  0
   68.7606   53.1079   15.3602 C   0  0  0  0  0  0  0  0  0  0  0  0
   68.7348   51.7600   16.0037 C   0  0  0  0  0  0  0  0  0  0  0  0
   67.8432   50.8598   15.1740 C   0  0  0  0  0  0  0  0  0  0  0  0
   71.8235   54.1945   14.5658 C   0  0  0  0  0  0  0  0  0  0  0  0
   70.7228   56.3206   14.7633 C   0  0  0  0  0  0  0  0  0  0  0  0
   73.7082   60.1947   20.0091 C   0  0  1  0  0  0  0  0  0  0  0  0
   72.7889   60.8992   19.0519 C   0  0  0  0  0  0  0  0  0  0  0  0
   69.4860   59.0389   17.9490 C   0  0  0  0  0  0  0  0  0  0  0  0
   68.3774   59.8179   18.1741 C   0  0  0  0  0  0  0  0  0  0  0  0
   67.9787   60.1618   19.4536 C   0  0  0  0  0  0  0  0  0  0  0  0
   68.6914   59.7268   20.5414 C   0  0  0  0  0  0  0  0  0  0  0  0
   69.8188   58.9345   20.3117 C   0  0  0  0  0  0  0  0  0  0  0  0
   70.2058   58.5988   19.0365 C   0  0  0  0  0  0  0  0  0  0  0  0
   66.5045   49.1071   13.8411 C   0  0  0  0  0  0  0  0  0  0  0  0
   73.9528   52.0807   14.0557 C   0  0  0  0  0  0  0  0  0  0  0  0
   73.2881   54.3944   14.7414 C   0  0  2  0  0  0  0  0  0  0  0  0
   74.1154   53.5583   13.7889 C   0  0  0  0  0  0  0  0  0  0  0  0
   73.6901   53.9359   16.1478 C   0  0  0  0  0  0  0  0  0  0  0  0
   66.6948   50.3827   13.0672 C   0  0  2  0  0  0  0  0  0  0  0  0
   70.9659   55.0333   15.3297 N   0  0  0  0  0  0  0  0  0  0  0  0
   72.1877   58.7724   17.1722 N   0  0  0  0  0  0  0  0  0  0  0  0
   70.1784   53.7052   17.4939 O   0  0  0  0  0  0  0  0  0  0  0  0
   68.7551   55.4210   16.5996 O   0  0  0  0  0  0  0  0  0  0  0  0
   71.6097   58.5533   14.3982 O   0  0  0  0  0  0  0  0  0  0  0  0
   72.6436   57.5095   19.0275 O   0  0  0  0  0  0  0  0  0  0  0  0
   74.4277   58.6913   18.2309 O   0  0  0  0  0  0  0  0  0  0  0  0
   75.4066   61.7189   19.6925 O   0  0  0  0  0  0  0  0  0  0  0  0
   73.4463   62.2996   20.7858 O   0  0  0  0  0  0  0  0  0  0  0  0
   67.2315   50.1346   11.8089 O   0  0  0  0  0  0  0  0  0  0  0  0
   69.7233   54.3195   16.1727 S   0  0  2  0  0  6  0  0  0  0  0  0
  1  2  1  0
 16  1  1  0
  1 35  1  6
  2  8  1  6
  2 32  1  0
 32  3  1  0
  3 36  2  0
  3 37  1  0
  4  5  1  0
  4 17  1  0
  4 37  1  6
  5 38  1  0
 17  6  1  0
  6 38  1  6
  6 39  1  0
 18  7  1  0
  7 39  1  0
  8 19  1  0
 10  9  1  0
 14  9  1  0
  9 30  1  0
 11 10  1  0
 12 11  1  0
 12 13  1  0
 41 12  1  0
 13 14  1  0
 15 27  1  0
 31 15  1  0
 31 16  1  0
 17 18  1  6
 19 20  2  0
 19 24  1  0
 20 21  1  0
 21 22  2  0
 23 22  1  0
 24 23  2  0
 30 25  1  1
 28 26  1  0
 27 28  1  0
 27 29  1  1
 30 40  1  0
 41 31  1  6
 41 33  2  0
 41 34  2  0
M  END
$$$$
