
     RDKit          3D

 41 44  0  0  0  0  0  0  0  0999 V2000
   71.0678   57.2269   15.4871 C   0  0  1  0  0  0  0  0  0  0  0  0
   70.7395   57.8991   16.8029 C   0  0  2  0  0  0  0  0  0  0  0  0
   72.7096   58.4666   18.2611 C   0  0  0  0  0  0  0  0  0  0  0  0
   74.6064   59.5409   19.2358 C   0  0  1  0  0  0  0  0  0  0  0  0
   75.3604   60.7415   18.7219 C   0  0  0  0  0  0  0  0  0  0  0  0
   74.3646   61.3991   20.6280 C   0  0  1  0  0  0  0  0  0  0  0  0
   72.4312   62.2288   19.9000 C   0  0  0  0  0  0  0  0  0  0  0  0
   69.5009   58.7770   16.6894 C   0  0  0  0  0  0  0  0  0  0  0  0
   67.6113   51.6675   13.1919 C   0  0  0  0  0  0  0  0  0  0  0  0
   67.0475   53.0358   13.0099 C   0  0  0  0  0  0  0  0  0  0  0  0
   67.3190   53.8397   14.2708 C   0  0  0  0  0  0  0  0  0  0  0  0
   68.6644   53.4341   14.7939 C   0  0  0  0  0  0  0  0  0  0  0  0
   68.5057   52.1306   15.5061 C   0  0  0  0  0  0  0  0  0  0  0  0
   67.7099   51.2010   14.6138 C   0  0  0  0  0  0  0  0  0  0  0  0
   71.7761   54.0074   14.4038 C   0  0  0  0  0  0  0  0  0  0  0  0
   71.8343   55.9865   15.7641 C   0  0  0  0  0  0  0  0  0  0  0  0
   73.5746   60.1820   20.1267 C   0  0  1  0  0  0  0  0  0  0  0  0
   72.4732   60.8386   19.3435 C   0  0  0  0  0  0  0  0  0  0  0  0
   69.0124   59.1530   18.0596 C   0  0  0  0  0  0  0  0  0  0  0  0
   68.5201   58.1992   18.9166 C   0  0  0  0  0  0  0  0  0  0  0  0
   68.0651   58.5247   20.1820 C   0  0  0  0  0  0  0  0  0  0  0  0
   68.0957   59.8253   20.6156 C   0  0  0  0  0  0  0  0  0  0  0  0
   68.5966   60.7949   19.7435 C   0  0  0  0  0  0  0  0  0  0  0  0
   69.0460   60.4604   18.4886 C   0  0  0  0  0  0  0  0  0  0  0  0
   65.4457   51.0394   12.0680 C   0  0  0  0  0  0  0  0  0  0  0  0
   73.5569   51.8323   13.3809 C   0  0  0  0  0  0  0  0  0  0  0  0
   73.2392   54.1796   14.1899 C   0  0  2  0  0  0  0  0  0  0  0  0
   73.7815   53.2966   13.0867 C   0  0  0  0  0  0  0  0  0  0  0  0
   73.9836   53.7553   15.4609 C   0  0  0  0  0  0  0  0  0  0  0  0
   66.8515   50.6188   12.3981 C   0  0  2  0  0  0  0  0  0  0  0  0
   71.1929   54.7459   15.4701 N   0  0  0  0  0  0  0  0  0  0  0  0
   71.8145   58.8122   17.2091 N   0  0  0  0  0  0  0  0  0  0  0  0
   69.1186   54.5684   17.1234 O   0  0  0  0  0  0  0  0  0  0  0  0
   68.9598   56.0086   15.2077 O   0  0  0  0  0  0  0  0  0  0  0  0
   69.8793   57.0656   14.8055 O   0  0  0  0  0  0  0  0  0  0  0  0
   72.2135   57.8894   19.2668 O   0  0  0  0  0  0  0  0  0  0  0  0
   74.0699   58.7278   18.2346 O   0  0  0  0  0  0  0  0  0  0  0  0
   75.1130   61.7987   19.5543 O   0  0  0  0  0  0  0  0  0  0  0  0
   73.3322   62.2661   20.9634 O   0  0  0  0  0  0  0  0  0  0  0  0
   66.8705   49.3969   13.0611 O   0  0  0  0  0  0  0  0  0  0  0  0
   69.5429   54.6716   15.6608 S   0  0  2  0  0  6  0  0  0  0  0  0
  1  2  1  0
 16  1  1  0
  1 35  1  1
  2  8  1  6
  2 32  1  0
 32  3  1  0
  3 36  2  0
  3 37  1  0
  4  5  1  0
  4 17  1  0
  4 37  1  6
  5 38  1  0
 17  6  1  0
  6 38  1  6
  6 39  1  0
 18  7  1  0
  7 39  1  0
  8 19  1  0
 10  9  1  0
 14  9  1  0
  9 30  1  0
 11 10  1  0
 12 11  1  0
 12 13  1  0
 41 12  1  0
 13 14  1  0
 15 27  1  0
 31 15  1  0
 31 16  1  0
 17 18  1  6
 19 20  2  0
 19 24  1  0
 20 21  1  0
 21 22  2  0
 23 22  1  0
 24 23  2  0
 30 25  1  1
 28 26  1  0
 27 28  1  0
 27 29  1  1
 30 40  1  0
 41 31  1  1
 41 33  2  0
 41 34  2  0
M  END
$$$$
