
     RDKit          3D

 41 44  0  0  0  0  0  0  0  0999 V2000
   71.9407   57.4813   15.7543 C   0  0  1  0  0  0  0  0  0  0  0  0
   72.3710   58.3084   16.9465 C   0  0  2  0  0  0  0  0  0  0  0  0
   71.1793   59.0760   19.0251 C   0  0  0  0  0  0  0  0  0  0  0  0
   70.2002   59.7281   21.1031 C   0  0  1  0  0  0  0  0  0  0  0  0
   70.8958   60.6902   22.0328 C   0  0  0  0  0  0  0  0  0  0  0  0
   69.0920   61.7778   21.2451 C   0  0  1  0  0  0  0  0  0  0  0  0
   69.9045   62.8267   19.4574 C   0  0  0  0  0  0  0  0  0  0  0  0
   73.7778   57.9452   17.4015 C   0  0  0  0  0  0  0  0  0  0  0  0
   67.8613   51.2968   13.4961 C   0  0  0  0  0  0  0  0  0  0  0  0
   66.8983   52.4064   13.2420 C   0  0  0  0  0  0  0  0  0  0  0  0
   67.1461   53.5024   14.2653 C   0  0  0  0  0  0  0  0  0  0  0  0
   68.6228   53.5719   14.5161 C   0  0  0  0  0  0  0  0  0  0  0  0
   68.9847   52.4534   15.4379 C   0  0  0  0  0  0  0  0  0  0  0  0
   68.3482   51.1846   14.9102 C   0  0  0  0  0  0  0  0  0  0  0  0
   71.7748   55.1331   14.1818 C   0  0  0  0  0  0  0  0  0  0  0  0
   71.2658   56.2538   16.2448 C   0  0  0  0  0  0  0  0  0  0  0  0
   69.3975   60.6621   20.2357 C   0  0  1  0  0  0  0  0  0  0  0  0
   70.2518   61.3867   19.2343 C   0  0  0  0  0  0  0  0  0  0  0  0
   74.2592   58.9392   18.4201 C   0  0  0  0  0  0  0  0  0  0  0  0
   75.4921   58.8006   19.0094 C   0  0  0  0  0  0  0  0  0  0  0  0
   75.9538   59.7046   19.9496 C   0  0  0  0  0  0  0  0  0  0  0  0
   75.1801   60.7745   20.3199 C   0  0  0  0  0  0  0  0  0  0  0  0
   73.9262   60.9150   19.7200 C   0  0  0  0  0  0  0  0  0  0  0  0
   73.4776   60.0111   18.7871 C   0  0  0  0  0  0  0  0  0  0  0  0
   65.8823   49.7377   13.4933 C   0  0  0  0  0  0  0  0  0  0  0  0
   74.1436   52.4279   12.8474 C   0  0  0  0  0  0  0  0  0  0  0  0
   72.4346   53.8051   14.0507 C   0  0  2  0  0  0  0  0  0  0  0  0
   73.3792   53.7303   12.8705 C   0  0  0  0  0  0  0  0  0  0  0  0
   71.3645   52.7389   13.7903 C   0  0  0  0  0  0  0  0  0  0  0  0
   67.3114   49.9456   13.0730 C   0  0  2  0  0  0  0  0  0  0  0  0
   70.8684   55.2943   15.2658 N   0  0  0  0  0  0  0  0  0  0  0  0
   71.5162   58.0393   18.1090 N   0  0  0  0  0  0  0  0  0  0  0  0
   68.3690   55.6611   16.0941 O   0  0  0  0  0  0  0  0  0  0  0  0
   68.9042   56.0779   13.7899 O   0  0  0  0  0  0  0  0  0  0  0  0
   71.1885   58.3025   14.9401 O   0  0  0  0  0  0  0  0  0  0  0  0
   70.9791   60.2233   18.5410 O   0  0  0  0  0  0  0  0  0  0  0  0
   71.0633   58.8900   20.3930 O   0  0  0  0  0  0  0  0  0  0  0  0
   70.2238   61.8817   22.0071 O   0  0  0  0  0  0  0  0  0  0  0  0
   68.8717   62.8532   20.3937 O   0  0  0  0  0  0  0  0  0  0  0  0
   68.1282   48.9200   13.5357 O   0  0  0  0  0  0  0  0  0  0  0  0
   69.2422   55.1469   14.9526 S   0  0  2  0  0  6  0  0  0  0  0  0
  1  2  1  0
 16  1  1  0
  1 35  1  6
  2  8  1  1
  2 32  1  0
 32  3  1  0
  3 36  2  0
  3 37  1  0
  4  5  1  0
  4 17  1  0
  4 37  1  6
  5 38  1  0
 17  6  1  0
  6 38  1  1
  6 39  1  0
 18  7  1  0
  7 39  1  0
  8 19  1  0
 10  9  1  0
 14  9  1  0
  9 30  1  0
 11 10  1  0
 12 11  1  0
 12 13  1  0
 41 12  1  0
 13 14  1  0
 15 27  1  0
 31 15  1  0
 31 16  1  0
 17 18  1  6
 19 20  2  0
 19 24  1  0
 20 21  1  0
 21 22  2  0
 23 22  1  0
 24 23  2  0
 30 25  1  1
 28 26  1  0
 27 28  1  0
 27 29  1  6
 30 40  1  0
 41 31  1  1
 41 33  2  0
 41 34  2  0
M  END
$$$$
