
     RDKit          3D

 41 44  0  0  0  0  0  0  0  0999 V2000
   70.2155   56.8653   14.6178 C   0  0  1  0  0  0  0  0  0  0  0  0
   70.4754   57.4390   15.9941 C   0  0  2  0  0  0  0  0  0  0  0  0
   72.1422   58.8923   17.1938 C   0  0  0  0  0  0  0  0  0  0  0  0
   74.1076   59.6672   18.3067 C   0  0  1  0  0  0  0  0  0  0  0  0
   75.2356   60.6673   18.2693 C   0  0  0  0  0  0  0  0  0  0  0  0
   74.7496   60.3560   20.4428 C   0  0  1  0  0  0  0  0  0  0  0  0
   73.2603   61.9629   20.8383 C   0  0  0  0  0  0  0  0  0  0  0  0
   69.3723   58.3989   16.4180 C   0  0  0  0  0  0  0  0  0  0  0  0
   75.1040   52.1561   15.9046 C   0  0  0  0  0  0  0  0  0  0  0  0
   74.6655   52.1424   17.3296 C   0  0  0  0  0  0  0  0  0  0  0  0
   73.6358   53.2427   17.5268 C   0  0  0  0  0  0  0  0  0  0  0  0
   72.8026   53.3209   16.2827 C   0  0  0  0  0  0  0  0  0  0  0  0
   73.5869   54.0645   15.2514 C   0  0  0  0  0  0  0  0  0  0  0  0
   74.9838   53.4809   15.2118 C   0  0  0  0  0  0  0  0  0  0  0  0
   68.9090   54.4520   15.2399 C   0  0  0  0  0  0  0  0  0  0  0  0
   70.9111   55.5590   14.5071 C   0  0  0  0  0  0  0  0  0  0  0  0
   73.4983   59.9389   19.6573 C   0  0  1  0  0  0  0  0  0  0  0  0
   72.6934   61.2076   19.6755 C   0  0  0  0  0  0  0  0  0  0  0  0
   69.5584   58.7894   17.8568 C   0  0  0  0  0  0  0  0  0  0  0  0
   69.9852   60.0509   18.1932 C   0  0  0  0  0  0  0  0  0  0  0  0
   70.1631   60.4302   19.5118 C   0  0  0  0  0  0  0  0  0  0  0  0
   69.9141   59.5429   20.5273 C   0  0  0  0  0  0  0  0  0  0  0  0
   69.4800   58.2600   20.1845 C   0  0  0  0  0  0  0  0  0  0  0  0
   69.3065   57.8939   18.8713 C   0  0  0  0  0  0  0  0  0  0  0  0
   77.3768   51.8759   16.9551 C   0  0  0  0  0  0  0  0  0  0  0  0
   66.0987   53.2720   14.4157 C   0  0  0  0  0  0  0  0  0  0  0  0
   68.1976   54.5487   13.9358 C   0  0  2  0  0  0  0  0  0  0  0  0
   66.6935   54.6212   14.0890 C   0  0  0  0  0  0  0  0  0  0  0  0
   68.4681   53.2774   13.1233 C   0  0  0  0  0  0  0  0  0  0  0  0
   76.5281   51.6563   15.7329 C   0  0  2  0  0  0  0  0  0  0  0  0
   70.3305   54.4521   15.1961 N   0  0  0  0  0  0  0  0  0  0  0  0
   71.7024   58.2445   16.0045 N   0  0  0  0  0  0  0  0  0  0  0  0
   71.1588   54.8102   17.6967 O   0  0  0  0  0  0  0  0  0  0  0  0
   70.3810   52.6381   17.0284 O   0  0  0  0  0  0  0  0  0  0  0  0
   68.8478   56.8408   14.4394 O   0  0  0  0  0  0  0  0  0  0  0  0
   71.5092   58.6326   18.2533 O   0  0  0  0  0  0  0  0  0  0  0  0
   73.2086   59.7752   17.2429 O   0  0  0  0  0  0  0  0  0  0  0  0
   75.5040   61.0674   19.5498 O   0  0  0  0  0  0  0  0  0  0  0  0
   74.1846   61.1211   21.4555 O   0  0  0  0  0  0  0  0  0  0  0  0
   77.1110   52.2227   14.6049 O   0  0  0  0  0  0  0  0  0  0  0  0
   71.1525   53.8502   16.5100 S   0  0  2  0  0  6  0  0  0  0  0  0
  1  2  1  0
 16  1  1  0
  1 35  1  1
  2  8  1  6
  2 32  1  0
 32  3  1  0
  3 36  2  0
  3 37  1  0
  4  5  1  0
  4 17  1  0
  4 37  1  6
  5 38  1  0
 17  6  1  0
  6 38  1  6
  6 39  1  0
 18  7  1  0
  7 39  1  0
  8 19  1  0
 10  9  1  0
 14  9  1  0
  9 30  1  0
 11 10  1  0
 12 11  1  0
 12 13  1  0
 41 12  1  0
 13 14  1  0
 15 27  1  0
 31 15  1  0
 31 16  1  0
 17 18  1  6
 19 20  2  0
 19 24  1  0
 20 21  1  0
 21 22  2  0
 23 22  1  0
 24 23  2  0
 30 25  1  1
 28 26  1  0
 27 28  1  0
 27 29  1  6
 30 40  1  0
 41 31  1  6
 41 33  2  0
 41 34  2  0
M  END
$$$$
