
     RDKit          3D

 41 44  0  0  0  0  0  0  0  0999 V2000
   70.2261   57.2535   14.2667 C   0  0  1  0  0  0  0  0  0  0  0  0
   70.4227   57.7508   15.6826 C   0  0  2  0  0  0  0  0  0  0  0  0
   72.2104   58.7699   17.1302 C   0  0  0  0  0  0  0  0  0  0  0  0
   74.1189   59.8060   18.1231 C   0  0  1  0  0  0  0  0  0  0  0  0
   75.2251   60.7955   17.8563 C   0  0  0  0  0  0  0  0  0  0  0  0
   75.0694   60.6218   20.0930 C   0  0  1  0  0  0  0  0  0  0  0  0
   73.6499   62.2584   20.6056 C   0  0  0  0  0  0  0  0  0  0  0  0
   69.6089   59.0090   15.9522 C   0  0  0  0  0  0  0  0  0  0  0  0
   74.4997   52.5759   13.9668 C   0  0  0  0  0  0  0  0  0  0  0  0
   73.3265   51.8057   13.4634 C   0  0  0  0  0  0  0  0  0  0  0  0
   72.2433   51.8274   14.5293 C   0  0  0  0  0  0  0  0  0  0  0  0
   72.2770   53.1722   15.1915 C   0  0  0  0  0  0  0  0  0  0  0  0
   73.4115   53.1767   16.1634 C   0  0  0  0  0  0  0  0  0  0  0  0
   74.6358   52.6298   15.4594 C   0  0  0  0  0  0  0  0  0  0  0  0
   68.6736   55.3512   15.4239 C   0  0  0  0  0  0  0  0  0  0  0  0
   70.6762   55.8413   14.1910 C   0  0  0  0  0  0  0  0  0  0  0  0
   73.7165   60.1640   19.5300 C   0  0  1  0  0  0  0  0  0  0  0  0
   72.9188   61.4359   19.5892 C   0  0  0  0  0  0  0  0  0  0  0  0
   69.5682   59.2860   17.4283 C   0  0  0  0  0  0  0  0  0  0  0  0
   69.1673   58.3163   18.3147 C   0  0  0  0  0  0  0  0  0  0  0  0
   69.1224   58.5513   19.6774 C   0  0  0  0  0  0  0  0  0  0  0  0
   69.4820   59.7749   20.1813 C   0  0  0  0  0  0  0  0  0  0  0  0
   69.8897   60.7608   19.2793 C   0  0  0  0  0  0  0  0  0  0  0  0
   69.9306   60.5164   17.9275 C   0  0  0  0  0  0  0  0  0  0  0  0
   76.9394   53.0560   13.5604 C   0  0  0  0  0  0  0  0  0  0  0  0
   66.1969   55.4933   16.6886 C   0  0  0  0  0  0  0  0  0  0  0  0
   67.4746   55.1644   14.5615 C   0  0  2  0  0  0  0  0  0  0  0  0
   66.2062   55.6974   15.1922 C   0  0  0  0  0  0  0  0  0  0  0  0
   67.2345   53.6642   14.3576 C   0  0  0  0  0  0  0  0  0  0  0  0
   75.8116   52.0761   13.3867 C   0  0  2  0  0  0  0  0  0  0  0  0
   69.9120   54.8752   14.9118 N   0  0  0  0  0  0  0  0  0  0  0  0
   71.8175   58.1462   15.9119 N   0  0  0  0  0  0  0  0  0  0  0  0
   70.9938   54.2006   17.2447 O   0  0  0  0  0  0  0  0  0  0  0  0
   69.8543   52.5202   15.9611 O   0  0  0  0  0  0  0  0  0  0  0  0
   68.9084   57.4885   13.9327 O   0  0  0  0  0  0  0  0  0  0  0  0
   71.7348   58.2917   18.1960 O   0  0  0  0  0  0  0  0  0  0  0  0
   73.0711   59.8531   17.2004 O   0  0  0  0  0  0  0  0  0  0  0  0
   75.6798   61.2723   19.0554 O   0  0  0  0  0  0  0  0  0  0  0  0
   74.6588   61.4511   21.1292 O   0  0  0  0  0  0  0  0  0  0  0  0
   75.6511   51.7223   12.0517 O   0  0  0  0  0  0  0  0  0  0  0  0
   70.7467   53.7502   15.8073 S   0  0  2  0  0  6  0  0  0  0  0  0
  1  2  1  0
 16  1  1  0
  1 35  1  1
  2  8  1  6
  2 32  1  0
 32  3  1  0
  3 36  2  0
  3 37  1  0
  4  5  1  0
  4 17  1  0
  4 37  1  6
  5 38  1  0
 17  6  1  0
  6 38  1  6
  6 39  1  0
 18  7  1  0
  7 39  1  0
  8 19  1  0
 10  9  1  0
 14  9  1  0
  9 30  1  0
 11 10  1  0
 12 11  1  0
 12 13  1  0
 41 12  1  0
 13 14  1  0
 15 27  1  0
 31 15  1  0
 31 16  1  0
 17 18  1  6
 19 20  2  0
 19 24  1  0
 20 21  1  0
 21 22  2  0
 23 22  1  0
 24 23  2  0
 30 25  1  6
 28 26  1  0
 27 28  1  0
 27 29  1  1
 30 40  1  0
 41 31  1  6
 41 33  2  0
 41 34  2  0
M  END
$$$$
