
     RDKit          3D

 41 44  0  0  0  0  0  0  0  0999 V2000
   70.2381   57.4799   15.4987 C   0  0  1  0  0  0  0  0  0  0  0  0
   69.9225   56.1591   14.8304 C   0  0  2  0  0  0  0  0  0  0  0  0
   70.1581   53.6967   15.2894 C   0  0  0  0  0  0  0  0  0  0  0  0
   70.6091   51.9582   13.7158 C   0  0  1  0  0  0  0  0  0  0  0  0
   70.8877   51.7478   12.2488 C   0  0  0  0  0  0  0  0  0  0  0  0
   72.5803   50.7614   13.3530 C   0  0  1  0  0  0  0  0  0  0  0  0
   74.0947   52.3892   13.4669 C   0  0  0  0  0  0  0  0  0  0  0  0
   68.4292   55.8633   14.8524 C   0  0  0  0  0  0  0  0  0  0  0  0
   70.0145   61.1923   21.1422 C   0  0  0  0  0  0  0  0  0  0  0  0
   70.4800   59.9573   21.8359 C   0  0  0  0  0  0  0  0  0  0  0  0
   70.0354   58.7524   21.0233 C   0  0  0  0  0  0  0  0  0  0  0  0
   70.1344   59.1149   19.5718 C   0  0  0  0  0  0  0  0  0  0  0  0
   68.9441   59.9481   19.2248 C   0  0  0  0  0  0  0  0  0  0  0  0
   68.7975   61.0221   20.2825 C   0  0  0  0  0  0  0  0  0  0  0  0
   73.0660   57.9063   17.9359 C   0  0  0  0  0  0  0  0  0  0  0  0
   71.5849   57.3916   16.1159 C   0  0  0  0  0  0  0  0  0  0  0  0
   71.9804   51.7942   14.3175 C   0  0  1  0  0  0  0  0  0  0  0  0
   72.8595   52.9869   14.0678 C   0  0  0  0  0  0  0  0  0  0  0  0
   68.1499   54.5831   14.1172 C   0  0  0  0  0  0  0  0  0  0  0  0
   69.1663   53.8817   13.5160 C   0  0  0  0  0  0  0  0  0  0  0  0
   68.9302   52.7012   12.8340 C   0  0  0  0  0  0  0  0  0  0  0  0
   67.6581   52.1976   12.7413 C   0  0  0  0  0  0  0  0  0  0  0  0
   66.6247   52.9115   13.3531 C   0  0  0  0  0  0  0  0  0  0  0  0
   66.8706   54.0830   14.0281 C   0  0  0  0  0  0  0  0  0  0  0  0
   69.0684   61.8955   23.3688 C   0  0  0  0  0  0  0  0  0  0  0  0
   75.8460   58.6022   18.8870 C   0  0  0  0  0  0  0  0  0  0  0  0
   74.1527   58.4125   17.0534 C   0  0  2  0  0  0  0  0  0  0  0  0
   75.5329   58.0153   17.5311 C   0  0  0  0  0  0  0  0  0  0  0  0
   74.1364   59.9452   17.0694 C   0  0  0  0  0  0  0  0  0  0  0  0
   69.7593   62.3367   22.1078 C   0  0  2  0  0  0  0  0  0  0  0  0
   71.7429   57.9570   17.4168 N   0  0  0  0  0  0  0  0  0  0  0  0
   70.5400   55.0424   15.5555 N   0  0  0  0  0  0  0  0  0  0  0  0
   69.1635   57.4358   17.7949 O   0  0  0  0  0  0  0  0  0  0  0  0
   70.7664   56.5764   19.3638 O   0  0  0  0  0  0  0  0  0  0  0  0
   70.0699   58.4663   14.5491 O   0  0  0  0  0  0  0  0  0  0  0  0
   69.9603   52.9510   16.2871 O   0  0  0  0  0  0  0  0  0  0  0  0
   69.9967   53.1776   14.0152 O   0  0  0  0  0  0  0  0  0  0  0  0
   72.0869   51.1015   12.1228 O   0  0  0  0  0  0  0  0  0  0  0  0
   73.9385   51.0046   13.5147 O   0  0  0  0  0  0  0  0  0  0  0  0
   69.0574   63.3585   21.4784 O   0  0  0  0  0  0  0  0  0  0  0  0
   70.4785   57.7911   18.4837 S   0  0  2  0  0  6  0  0  0  0  0  0
  1  2  1  0
 16  1  1  0
  1 35  1  6
  2  8  1  1
  2 32  1  0
 32  3  1  0
  3 36  2  0
  3 37  1  0
  4  5  1  0
  4 17  1  0
  4 37  1  6
  5 38  1  0
 17  6  1  0
  6 38  1  6
  6 39  1  0
 18  7  1  0
  7 39  1  0
  8 19  1  0
 10  9  1  0
 14  9  1  0
  9 30  1  0
 11 10  1  0
 12 11  1  0
 12 13  1  0
 41 12  1  0
 13 14  1  0
 15 27  1  0
 31 15  1  0
 31 16  1  0
 17 18  1  6
 19 20  2  0
 19 24  1  0
 20 21  1  0
 21 22  2  0
 23 22  1  0
 24 23  2  0
 30 25  1  1
 28 26  1  0
 27 28  1  0
 27 29  1  1
 30 40  1  0
 41 31  1  6
 41 33  2  0
 41 34  2  0
M  END
$$$$
