
     RDKit          3D

 41 44  0  0  0  0  0  0  0  0999 V2000
   70.9619   55.9190   16.6819 C   0  0  1  0  0  0  0  0  0  0  0  0
   69.6022   56.0280   16.0258 C   0  0  2  0  0  0  0  0  0  0  0  0
   68.3111   54.7356   14.2960 C   0  0  0  0  0  0  0  0  0  0  0  0
   67.5290   52.6767   13.3733 C   0  0  1  0  0  0  0  0  0  0  0  0
   67.5403   53.4445   12.0755 C   0  0  0  0  0  0  0  0  0  0  0  0
   68.2373   51.3654   11.5766 C   0  0  1  0  0  0  0  0  0  0  0  0
   70.4486   51.5402   11.7666 C   0  0  0  0  0  0  0  0  0  0  0  0
   68.5058   55.4513   16.9108 C   0  0  0  0  0  0  0  0  0  0  0  0
   75.8319   60.8883   19.1783 C   0  0  0  0  0  0  0  0  0  0  0  0
   76.3176   59.4789   19.1499 C   0  0  0  0  0  0  0  0  0  0  0  0
   75.1305   58.5562   19.3715 C   0  0  0  0  0  0  0  0  0  0  0  0
   73.9437   59.1605   18.6826 C   0  0  0  0  0  0  0  0  0  0  0  0
   73.4172   60.2556   19.5516 C   0  0  0  0  0  0  0  0  0  0  0  0
   74.5856   61.1186   19.9802 C   0  0  0  0  0  0  0  0  0  0  0  0
   74.2374   56.4909   16.5193 C   0  0  0  0  0  0  0  0  0  0  0  0
   71.9254   56.7545   15.9228 C   0  0  0  0  0  0  0  0  0  0  0  0
   68.4922   51.5567   13.0783 C   0  0  1  0  0  0  0  0  0  0  0  0
   69.9224   52.0173   13.0855 C   0  0  0  0  0  0  0  0  0  0  0  0
   67.7608   56.5633   17.5933 C   0  0  0  0  0  0  0  0  0  0  0  0
   66.4383   56.8015   17.3090 C   0  0  0  0  0  0  0  0  0  0  0  0
   65.7345   57.8205   17.9261 C   0  0  0  0  0  0  0  0  0  0  0  0
   66.3500   58.6273   18.8484 C   0  0  0  0  0  0  0  0  0  0  0  0
   67.6952   58.3845   19.1371 C   0  0  0  0  0  0  0  0  0  0  0  0
   68.3846   57.3694   18.5183 C   0  0  0  0  0  0  0  0  0  0  0  0
   78.2863   61.2885   19.5821 C   0  0  0  0  0  0  0  0  0  0  0  0
   76.2366   54.6658   15.0211 C   0  0  0  0  0  0  0  0  0  0  0  0
   74.0679   55.0442   16.2122 C   0  0  2  0  0  0  0  0  0  0  0  0
   75.3779   54.2861   16.2040 C   0  0  0  0  0  0  0  0  0  0  0  0
   73.4978   54.8971   14.7969 C   0  0  0  0  0  0  0  0  0  0  0  0
   76.8963   61.8572   19.6635 C   0  0  2  0  0  0  0  0  0  0  0  0
   73.0499   57.2643   16.6388 N   0  0  0  0  0  0  0  0  0  0  0  0
   69.5490   55.2345   14.7921 N   0  0  0  0  0  0  0  0  0  0  0  0
   71.4087   58.7423   18.1186 O   0  0  0  0  0  0  0  0  0  0  0  0
   72.6173   56.9474   19.1612 O   0  0  0  0  0  0  0  0  0  0  0  0
   70.7977   56.2412   18.0132 O   0  0  0  0  0  0  0  0  0  0  0  0
   67.5933   55.5387   13.6399 O   0  0  0  0  0  0  0  0  0  0  0  0
   67.8661   53.4388   14.4945 O   0  0  0  0  0  0  0  0  0  0  0  0
   68.0283   52.6280   11.0921 O   0  0  0  0  0  0  0  0  0  0  0  0
   69.4350   50.7870   11.1754 O   0  0  0  0  0  0  0  0  0  0  0  0
   76.6053   62.2973   20.9498 O   0  0  0  0  0  0  0  0  0  0  0  0
   72.7557   58.0249   18.0876 S   0  0  2  0  0  6  0  0  0  0  0  0
  1  2  1  0
 16  1  1  0
  1 35  1  1
  2  8  1  1
  2 32  1  0
 32  3  1  0
  3 36  2  0
  3 37  1  0
  4  5  1  0
  4 17  1  0
  4 37  1  1
  5 38  1  0
 17  6  1  0
  6 38  1  6
  6 39  1  0
 18  7  1  0
  7 39  1  0
  8 19  1  0
 10  9  1  0
 14  9  1  0
  9 30  1  0
 11 10  1  0
 12 11  1  0
 12 13  1  0
 41 12  1  0
 13 14  1  0
 15 27  1  0
 31 15  1  0
 31 16  1  0
 17 18  1  6
 19 20  2  0
 19 24  1  0
 20 21  1  0
 21 22  2  0
 23 22  1  0
 24 23  2  0
 30 25  1  1
 28 26  1  0
 27 28  1  0
 27 29  1  6
 30 40  1  0
 41 31  1  6
 41 33  2  0
 41 34  2  0
M  END
$$$$
