
     RDKit          3D

 41 44  0  0  0  0  0  0  0  0999 V2000
   70.9483   57.4445   14.4971 C   0  0  1  0  0  0  0  0  0  0  0  0
   71.0299   57.7997   15.9661 C   0  0  2  0  0  0  0  0  0  0  0  0
   72.8037   58.2551   17.6912 C   0  0  0  0  0  0  0  0  0  0  0  0
   74.2674   59.6027   19.0117 C   0  0  1  0  0  0  0  0  0  0  0  0
   75.3891   60.6091   18.9573 C   0  0  0  0  0  0  0  0  0  0  0  0
   74.3212   60.9697   20.9032 C   0  0  1  0  0  0  0  0  0  0  0  0
   72.8238   62.5218   20.3505 C   0  0  0  0  0  0  0  0  0  0  0  0
   70.6839   59.2624   16.2085 C   0  0  0  0  0  0  0  0  0  0  0  0
   67.3774   51.0783   13.7303 C   0  0  0  0  0  0  0  0  0  0  0  0
   66.8674   52.4439   13.4166 C   0  0  0  0  0  0  0  0  0  0  0  0
   67.1666   53.3523   14.5977 C   0  0  0  0  0  0  0  0  0  0  0  0
   68.4940   52.9469   15.1648 C   0  0  0  0  0  0  0  0  0  0  0  0
   68.2835   51.7235   15.9959 C   0  0  0  0  0  0  0  0  0  0  0  0
   67.4546   50.7449   15.1905 C   0  0  0  0  0  0  0  0  0  0  0  0
   71.4788   54.2840   14.2562 C   0  0  0  0  0  0  0  0  0  0  0  0
   70.0909   56.2427   14.3446 C   0  0  0  0  0  0  0  0  0  0  0  0
   73.3206   60.2477   19.9898 C   0  0  1  0  0  0  0  0  0  0  0  0
   72.5753   61.4038   19.3849 C   0  0  0  0  0  0  0  0  0  0  0  0
   69.9016   59.3990   17.4839 C   0  0  0  0  0  0  0  0  0  0  0  0
   69.5093   60.6342   17.9390 C   0  0  0  0  0  0  0  0  0  0  0  0
   68.7888   60.7815   19.1109 C   0  0  0  0  0  0  0  0  0  0  0  0
   68.4451   59.6824   19.8554 C   0  0  0  0  0  0  0  0  0  0  0  0
   68.8444   58.4264   19.3919 C   0  0  0  0  0  0  0  0  0  0  0  0
   69.5598   58.2915   18.2263 C   0  0  0  0  0  0  0  0  0  0  0  0
   67.4015   49.1963   12.0555 C   0  0  0  0  0  0  0  0  0  0  0  0
   73.6602   52.2590   13.8671 C   0  0  0  0  0  0  0  0  0  0  0  0
   72.9152   54.5516   14.5413 C   0  0  2  0  0  0  0  0  0  0  0  0
   73.8500   53.7439   13.6668 C   0  0  0  0  0  0  0  0  0  0  0  0
   73.2269   54.1260   15.9806 C   0  0  0  0  0  0  0  0  0  0  0  0
   66.5797   49.9891   13.0344 C   0  0  2  0  0  0  0  0  0  0  0  0
   70.5272   55.0461   14.9885 N   0  0  0  0  0  0  0  0  0  0  0  0
   72.4007   57.6471   16.4684 N   0  0  0  0  0  0  0  0  0  0  0  0
   70.0249   53.6405   17.1884 O   0  0  0  0  0  0  0  0  0  0  0  0
   68.4009   55.2417   16.4345 O   0  0  0  0  0  0  0  0  0  0  0  0
   70.5305   58.5762   13.8279 O   0  0  0  0  0  0  0  0  0  0  0  0
   72.3074   57.7878   18.7523 O   0  0  0  0  0  0  0  0  0  0  0  0
   73.6954   59.3123   17.7707 O   0  0  0  0  0  0  0  0  0  0  0  0
   75.3090   61.4090   20.0643 O   0  0  0  0  0  0  0  0  0  0  0  0
   73.5223   61.9780   21.4277 O   0  0  0  0  0  0  0  0  0  0  0  0
   65.4493   50.5246   12.4275 O   0  0  0  0  0  0  0  0  0  0  0  0
   69.4176   54.2263   15.9164 S   0  0  2  0  0  6  0  0  0  0  0  0
  1  2  1  0
 16  1  1  0
  1 35  1  6
  2  8  1  6
  2 32  1  0
 32  3  1  0
  3 36  2  0
  3 37  1  0
  4  5  1  0
  4 17  1  0
  4 37  1  6
  5 38  1  0
 17  6  1  0
  6 38  1  6
  6 39  1  0
 18  7  1  0
  7 39  1  0
  8 19  1  0
 10  9  1  0
 14  9  1  0
  9 30  1  0
 11 10  1  0
 12 11  1  0
 12 13  1  0
 41 12  1  0
 13 14  1  0
 15 27  1  0
 31 15  1  0
 31 16  1  0
 17 18  1  6
 19 20  2  0
 19 24  1  0
 20 21  1  0
 21 22  2  0
 23 22  1  0
 24 23  2  0
 30 25  1  6
 28 26  1  0
 27 28  1  0
 27 29  1  1
 30 40  1  0
 41 31  1  6
 41 33  2  0
 41 34  2  0
M  END
$$$$
