
     RDKit          3D

 27 29  0  0  0  0  0  0  0  0999 V2000
   32.4021   11.2619   79.2106 C   0  0  0  0  0  0  0  0  0  0  0  0
   33.1048   10.4738   78.3367 C   0  0  0  0  0  0  0  0  0  0  0  0
   34.4459   10.7719   78.1836 C   0  0  0  0  0  0  0  0  0  0  0  0
   35.0413   11.7994   78.8671 C   0  0  0  0  0  0  0  0  0  0  0  0
   34.2830   12.5759   79.7470 C   0  0  0  0  0  0  0  0  0  0  0  0
   32.9684   12.3324   79.9400 C   0  0  0  0  0  0  0  0  0  0  0  0
   32.4582    9.3866   77.6177 C   0  0  0  0  0  0  0  0  0  0  0  0
   31.8696   13.1181   81.0184 S   0  0  2  0  0  6  0  0  0  0  0  0
   32.0417   12.5274   82.4283 O   0  0  0  0  0  0  0  0  0  0  0  0
   30.4692   12.6064   80.6016 O   0  0  0  0  0  0  0  0  0  0  0  0
   34.9348   13.7137   80.4474 C   0  0  0  0  0  0  0  0  0  0  0  0
   31.8330   14.7658   81.0914 N   0  0  0  0  0  0  0  0  0  0  0  0
   31.3188   15.5989   80.0862 C   0  0  1  0  0  0  0  0  0  0  0  0
   31.2252   17.0372   80.6624 C   0  0  0  0  0  0  0  0  0  0  0  0
   31.5720   17.9204   79.5061 C   0  0  0  0  0  0  0  0  0  0  0  0
   32.7561   17.1903   78.9125 C   0  0  0  0  0  0  0  0  0  0  0  0
   32.3276   15.7522   78.9431 C   0  0  0  0  0  0  0  0  0  0  0  0
   31.1703    8.9673   77.8196 C   0  0  0  0  0  0  0  0  0  0  0  0
   30.9528    7.9792   76.9960 O   0  0  0  0  0  0  0  0  0  0  0  0
   31.9957    7.7190   76.2719 N   0  0  0  0  0  0  0  0  0  0  0  0
   32.9762    8.5722   76.6173 C   0  0  0  0  0  0  0  0  0  0  0  0
   34.3574    8.7076   76.1076 C   0  0  0  0  0  0  0  0  0  0  0  0
   30.1922    9.5111   78.7790 C   0  0  0  0  0  0  0  0  0  0  0  0
   29.3093   10.4636   78.1236 N   0  0  0  0  0  0  0  0  0  0  0  0
   28.0048   10.1246   77.6783 C   0  0  0  0  0  0  0  0  0  0  0  0
   27.8220    8.9805   77.2134 O   0  0  0  0  0  0  0  0  0  0  0  0
   26.8656   11.0944   77.7541 C   0  0  0  0  0  0  0  0  0  0  0  0
  1  2  2  0
  1  6  1  0
  2  3  1  0
  2  7  1  0
  3  4  2  0
  4  5  1  0
  5  6  2  0
  5 11  1  0
  6  8  1  0
  7 18  2  0
  7 21  1  0
  8  9  2  0
  8 10  2  0
  8 12  1  1
 13 12  1  1
 13 14  1  0
 13 17  1  0
 14 15  1  0
 15 16  1  0
 16 17  1  0
 18 19  1  0
 18 23  1  0
 19 20  1  0
 20 21  2  0
 21 22  1  0
 23 24  1  0
 24 25  1  0
 25 26  2  0
 25 27  1  0
M  END
$$$$
