
     RDKit          3D

 27 29  0  0  0  0  0  0  0  0999 V2000
   31.3023   10.8530   79.3130 C   0  0  0  0  0  0  0  0  0  0  0  0
   31.8831    9.7090   78.8305 C   0  0  0  0  0  0  0  0  0  0  0  0
   33.2647    9.6914   78.7916 C   0  0  0  0  0  0  0  0  0  0  0  0
   34.0141   10.7590   79.2115 C   0  0  0  0  0  0  0  0  0  0  0  0
   33.3763   11.9042   79.6951 C   0  0  0  0  0  0  0  0  0  0  0  0
   32.0291   11.9807   79.7589 C   0  0  0  0  0  0  0  0  0  0  0  0
   31.0738    8.5838   78.3878 C   0  0  0  0  0  0  0  0  0  0  0  0
   31.0463   13.2612   80.3769 S   0  0  2  0  0  6  0  0  0  0  0  0
   29.5676   12.9339   80.1069 O   0  0  0  0  0  0  0  0  0  0  0  0
   31.3104   14.4574   79.4303 O   0  0  0  0  0  0  0  0  0  0  0  0
   34.2032   13.0693   80.1057 C   0  0  0  0  0  0  0  0  0  0  0  0
   31.2433   13.7639   81.9359 N   0  0  0  0  0  0  0  0  0  0  0  0
   31.3364   12.9097   83.0450 C   0  0  1  0  0  0  0  0  0  0  0  0
   31.6294   13.7830   84.2944 C   0  0  0  0  0  0  0  0  0  0  0  0
   30.8675   13.1173   85.3961 C   0  0  0  0  0  0  0  0  0  0  0  0
   29.5523   12.8141   84.7136 C   0  0  0  0  0  0  0  0  0  0  0  0
   29.9709   12.2946   83.3692 C   0  0  0  0  0  0  0  0  0  0  0  0
   30.4669    8.4856   77.1641 C   0  0  0  0  0  0  0  0  0  0  0  0
   29.8361    7.3439   77.1369 O   0  0  0  0  0  0  0  0  0  0  0  0
   29.9821    6.6881   78.2452 N   0  0  0  0  0  0  0  0  0  0  0  0
   30.7517    7.4177   79.0723 C   0  0  0  0  0  0  0  0  0  0  0  0
   31.2212    7.1382   80.4461 C   0  0  0  0  0  0  0  0  0  0  0  0
   30.5026    9.4684   76.0660 C   0  0  0  0  0  0  0  0  0  0  0  0
   31.8085    9.4704   75.4249 N   0  0  0  0  0  0  0  0  0  0  0  0
   32.1631   10.3884   74.4020 C   0  0  0  0  0  0  0  0  0  0  0  0
   31.3095   11.2255   74.0427 O   0  0  0  0  0  0  0  0  0  0  0  0
   33.5155   10.3722   73.7579 C   0  0  0  0  0  0  0  0  0  0  0  0
  1  2  2  0
  1  6  1  0
  2  3  1  0
  2  7  1  0
  3  4  2  0
  4  5  1  0
  5  6  2  0
  5 11  1  0
  6  8  1  0
  7 18  2  0
  7 21  1  0
  8  9  2  0
  8 10  2  0
  8 12  1  1
 13 12  1  6
 13 14  1  0
 13 17  1  0
 14 15  1  0
 15 16  1  0
 16 17  1  0
 18 19  1  0
 18 23  1  0
 19 20  1  0
 20 21  2  0
 21 22  1  0
 23 24  1  0
 24 25  1  0
 25 26  2  0
 25 27  1  0
M  END
$$$$
