
     RDKit          3D

 27 29  0  0  0  0  0  0  0  0999 V2000
   33.8549   10.0803   79.0115 C   0  0  0  0  0  0  0  0  0  0  0  0
   32.7597   10.5810   78.3570 C   0  0  0  0  0  0  0  0  0  0  0  0
   32.5936   11.9527   78.3989 C   0  0  0  0  0  0  0  0  0  0  0  0
   33.4747   12.7684   79.0591 C   0  0  0  0  0  0  0  0  0  0  0  0
   34.5768   12.2110   79.7126 C   0  0  0  0  0  0  0  0  0  0  0  0
   34.7935   10.8776   79.7058 C   0  0  0  0  0  0  0  0  0  0  0  0
   31.8326    9.7019   77.6609 C   0  0  0  0  0  0  0  0  0  0  0  0
   36.1133    9.9927   80.3859 S   0  0  2  0  0  6  0  0  0  0  0  0
   35.6964    8.5217   80.5561 O   0  0  0  0  0  0  0  0  0  0  0  0
   36.2146   10.4910   81.8482 O   0  0  0  0  0  0  0  0  0  0  0  0
   35.4986   13.1061   80.4602 C   0  0  0  0  0  0  0  0  0  0  0  0
   37.6056   10.0852   79.6887 N   0  0  0  0  0  0  0  0  0  0  0  0
   38.0852   11.1916   78.9715 C   0  0  1  0  0  0  0  0  0  0  0  0
   38.8372   12.1144   79.9677 C   0  0  0  0  0  0  0  0  0  0  0  0
   39.9827   12.6575   79.1739 C   0  0  0  0  0  0  0  0  0  0  0  0
   40.4627   11.4194   78.4498 C   0  0  0  0  0  0  0  0  0  0  0  0
   39.1891   10.7667   77.9974 C   0  0  0  0  0  0  0  0  0  0  0  0
   30.5791    9.3727   78.1033 C   0  0  0  0  0  0  0  0  0  0  0  0
   30.0560    8.5700   77.2179 O   0  0  0  0  0  0  0  0  0  0  0  0
   30.8675    8.3480   76.2320 N   0  0  0  0  0  0  0  0  0  0  0  0
   32.0030    9.0335   76.4540 C   0  0  0  0  0  0  0  0  0  0  0  0
   33.2407    9.1303   75.6512 C   0  0  0  0  0  0  0  0  0  0  0  0
   29.9197    9.8251   79.3417 C   0  0  0  0  0  0  0  0  0  0  0  0
   28.7864    8.9698   79.6584 N   0  0  0  0  0  0  0  0  0  0  0  0
   28.0503    9.0825   80.8669 C   0  0  0  0  0  0  0  0  0  0  0  0
   28.4063    9.9484   81.6925 O   0  0  0  0  0  0  0  0  0  0  0  0
   26.8775    8.1993   81.1645 C   0  0  0  0  0  0  0  0  0  0  0  0
  1  2  2  0
  1  6  1  0
  2  3  1  0
  2  7  1  0
  3  4  2  0
  4  5  1  0
  5  6  2  0
  5 11  1  0
  6  8  1  0
  7 18  2  0
  7 21  1  0
  8  9  2  0
  8 10  2  0
  8 12  1  6
 13 12  1  1
 13 14  1  0
 13 17  1  0
 14 15  1  0
 15 16  1  0
 16 17  1  0
 18 19  1  0
 18 23  1  0
 19 20  1  0
 20 21  2  0
 21 22  1  0
 23 24  1  0
 24 25  1  0
 25 26  2  0
 25 27  1  0
M  END
$$$$
