
     RDKit          3D

 27 29  0  0  0  0  0  0  0  0999 V2000
   32.1509   11.3048   79.1073 C   0  0  0  0  0  0  0  0  0  0  0  0
   32.4833   10.2832   78.2561 C   0  0  0  0  0  0  0  0  0  0  0  0
   33.8337   10.0565   78.0671 C   0  0  0  0  0  0  0  0  0  0  0  0
   34.7890   10.8116   78.6953 C   0  0  0  0  0  0  0  0  0  0  0  0
   34.4010   11.8433   79.5540 C   0  0  0  0  0  0  0  0  0  0  0  0
   33.0966   12.1121   79.7800 C   0  0  0  0  0  0  0  0  0  0  0  0
   31.4572    9.4905   77.5959 C   0  0  0  0  0  0  0  0  0  0  0  0
   32.4023   13.2855   80.8425 S   0  0  2  0  0  6  0  0  0  0  0  0
   32.6627   12.8608   82.2979 O   0  0  0  0  0  0  0  0  0  0  0  0
   30.8725   13.0958   80.6991 O   0  0  0  0  0  0  0  0  0  0  0  0
   35.4500   12.6803   80.1933 C   0  0  0  0  0  0  0  0  0  0  0  0
   32.7604   14.8834   80.6423 N   0  0  0  0  0  0  0  0  0  0  0  0
   33.3077   15.4395   79.4762 C   0  0  1  0  0  0  0  0  0  0  0  0
   32.1827   15.5084   78.4089 C   0  0  0  0  0  0  0  0  0  0  0  0
   32.4551   16.7789   77.6680 C   0  0  0  0  0  0  0  0  0  0  0  0
   32.7734   17.7278   78.8019 C   0  0  0  0  0  0  0  0  0  0  0  0
   33.6627   16.9139   79.6959 C   0  0  0  0  0  0  0  0  0  0  0  0
   30.3187    9.0222   78.1956 C   0  0  0  0  0  0  0  0  0  0  0  0
   29.6511    8.3595   77.2917 O   0  0  0  0  0  0  0  0  0  0  0  0
   30.2624    8.3572   76.1489 N   0  0  0  0  0  0  0  0  0  0  0  0
   31.4058    9.0534   76.2773 C   0  0  0  0  0  0  0  0  0  0  0  0
   32.4642    9.3555   75.2902 C   0  0  0  0  0  0  0  0  0  0  0  0
   29.9007    9.2152   79.5960 C   0  0  0  0  0  0  0  0  0  0  0  0
   28.4519    9.3102   79.6879 N   0  0  0  0  0  0  0  0  0  0  0  0
   27.7721    9.5586   80.9090 C   0  0  0  0  0  0  0  0  0  0  0  0
   28.4581    9.7653   81.9313 O   0  0  0  0  0  0  0  0  0  0  0  0
   26.2765    9.5768   80.9928 C   0  0  0  0  0  0  0  0  0  0  0  0
  1  2  2  0
  1  6  1  0
  2  3  1  0
  2  7  1  0
  3  4  2  0
  4  5  1  0
  5  6  2  0
  5 11  1  0
  6  8  1  0
  7 18  2  0
  7 21  1  0
  8  9  2  0
  8 10  2  0
  8 12  1  6
 13 12  1  1
 13 14  1  0
 13 17  1  0
 14 15  1  0
 15 16  1  0
 16 17  1  0
 18 19  1  0
 18 23  1  0
 19 20  1  0
 20 21  2  0
 21 22  1  0
 23 24  1  0
 24 25  1  0
 25 26  2  0
 25 27  1  0
M  END
$$$$
