
     RDKit          3D

 27 29  0  0  0  0  0  0  0  0999 V2000
   32.2630   11.4044   78.8318 C   0  0  0  0  0  0  0  0  0  0  0  0
   32.5241   10.1754   78.2840 C   0  0  0  0  0  0  0  0  0  0  0  0
   33.8226    9.7154   78.3990 C   0  0  0  0  0  0  0  0  0  0  0  0
   34.7967   10.4475   79.0255 C   0  0  0  0  0  0  0  0  0  0  0  0
   34.4823   11.6961   79.5681 C   0  0  0  0  0  0  0  0  0  0  0  0
   33.2308   12.1984   79.4887 C   0  0  0  0  0  0  0  0  0  0  0  0
   31.4791    9.4101   77.6212 C   0  0  0  0  0  0  0  0  0  0  0  0
   32.6147   13.6756   80.1414 S   0  0  2  0  0  6  0  0  0  0  0  0
   31.1160   13.5041   80.4434 O   0  0  0  0  0  0  0  0  0  0  0  0
   32.6127   14.6659   78.9513 O   0  0  0  0  0  0  0  0  0  0  0  0
   35.5609   12.4958   80.2060 C   0  0  0  0  0  0  0  0  0  0  0  0
   33.3765   14.3848   81.4213 N   0  0  0  0  0  0  0  0  0  0  0  0
   33.6931   13.7340   82.6233 C   0  0  1  0  0  0  0  0  0  0  0  0
   35.0206   14.3373   83.1554 C   0  0  0  0  0  0  0  0  0  0  0  0
   34.8479   14.3549   84.6410 C   0  0  0  0  0  0  0  0  0  0  0  0
   33.4304   14.8652   84.7745 C   0  0  0  0  0  0  0  0  0  0  0  0
   32.6861   14.1017   83.7182 C   0  0  0  0  0  0  0  0  0  0  0  0
   30.3569    8.9184   78.2331 C   0  0  0  0  0  0  0  0  0  0  0  0
   29.6637    8.2927   77.3221 O   0  0  0  0  0  0  0  0  0  0  0  0
   30.2431    8.3360   76.1636 N   0  0  0  0  0  0  0  0  0  0  0  0
   31.3906    9.0262   76.2882 C   0  0  0  0  0  0  0  0  0  0  0  0
   32.4217    9.3673   75.2850 C   0  0  0  0  0  0  0  0  0  0  0  0
   29.9781    9.0552   79.6511 C   0  0  0  0  0  0  0  0  0  0  0  0
   29.1353   10.2253   79.8438 N   0  0  0  0  0  0  0  0  0  0  0  0
   28.7093   10.6653   81.1244 C   0  0  0  0  0  0  0  0  0  0  0  0
   29.1429   10.0611   82.1270 O   0  0  0  0  0  0  0  0  0  0  0  0
   27.7675   11.8181   81.2923 C   0  0  0  0  0  0  0  0  0  0  0  0
  1  2  2  0
  1  6  1  0
  2  3  1  0
  2  7  1  0
  3  4  2  0
  4  5  1  0
  5  6  2  0
  5 11  1  0
  6  8  1  0
  7 18  2  0
  7 21  1  0
  8  9  2  0
  8 10  2  0
  8 12  1  1
 13 12  1  6
 13 14  1  0
 13 17  1  0
 14 15  1  0
 15 16  1  0
 16 17  1  0
 18 19  1  0
 18 23  1  0
 19 20  1  0
 20 21  2  0
 21 22  1  0
 23 24  1  0
 24 25  1  0
 25 26  2  0
 25 27  1  0
M  END
$$$$
