
     RDKit          3D

 27 29  0  0  0  0  0  0  0  0999 V2000
   31.8292   11.4877   78.8350 C   0  0  0  0  0  0  0  0  0  0  0  0
   32.3338   10.4210   78.1377 C   0  0  0  0  0  0  0  0  0  0  0  0
   33.7022   10.2367   78.2035 C   0  0  0  0  0  0  0  0  0  0  0  0
   34.5113   11.0744   78.9253 C   0  0  0  0  0  0  0  0  0  0  0  0
   33.9503   12.1494   79.6195 C   0  0  0  0  0  0  0  0  0  0  0  0
   32.6196   12.3803   79.5948 C   0  0  0  0  0  0  0  0  0  0  0  0
   31.4617    9.5406   77.3752 C   0  0  0  0  0  0  0  0  0  0  0  0
   31.7175   13.5989   80.4248 S   0  0  2  0  0  6  0  0  0  0  0  0
   31.4428   13.1274   81.8632 O   0  0  0  0  0  0  0  0  0  0  0  0
   30.3113   13.5623   79.7783 O   0  0  0  0  0  0  0  0  0  0  0  0
   34.8474   13.0735   80.3619 C   0  0  0  0  0  0  0  0  0  0  0  0
   32.2596   15.1570   80.4295 N   0  0  0  0  0  0  0  0  0  0  0  0
   32.2210   16.0197   79.3236 C   0  0  1  0  0  0  0  0  0  0  0  0
   32.5489   17.4514   79.8258 C   0  0  0  0  0  0  0  0  0  0  0  0
   33.3474   18.0572   78.7155 C   0  0  0  0  0  0  0  0  0  0  0  0
   34.2780   16.9201   78.3570 C   0  0  0  0  0  0  0  0  0  0  0  0
   33.3772   15.7197   78.3639 C   0  0  0  0  0  0  0  0  0  0  0  0
   30.2219    9.1211   77.7780 C   0  0  0  0  0  0  0  0  0  0  0  0
   29.7514    8.3492   76.8373 O   0  0  0  0  0  0  0  0  0  0  0  0
   30.5848    8.2306   75.8518 N   0  0  0  0  0  0  0  0  0  0  0  0
   31.6806    8.9581   76.1323 C   0  0  0  0  0  0  0  0  0  0  0  0
   32.9209    9.1676   75.3554 C   0  0  0  0  0  0  0  0  0  0  0  0
   29.5256    9.4614   79.0319 C   0  0  0  0  0  0  0  0  0  0  0  0
   29.1091    8.2541   79.7286 N   0  0  0  0  0  0  0  0  0  0  0  0
   28.3968    8.2799   80.9561 C   0  0  0  0  0  0  0  0  0  0  0  0
   27.2587    8.7927   80.9637 O   0  0  0  0  0  0  0  0  0  0  0  0
   28.9735    7.7147   82.2178 C   0  0  0  0  0  0  0  0  0  0  0  0
  1  2  2  0
  1  6  1  0
  2  3  1  0
  2  7  1  0
  3  4  2  0
  4  5  1  0
  5  6  2  0
  5 11  1  0
  6  8  1  0
  7 18  2  0
  7 21  1  0
  8  9  2  0
  8 10  2  0
  8 12  1  1
 13 12  1  1
 13 14  1  0
 13 17  1  0
 14 15  1  0
 15 16  1  0
 16 17  1  0
 18 19  1  0
 18 23  1  0
 19 20  1  0
 20 21  2  0
 21 22  1  0
 23 24  1  0
 24 25  1  0
 25 26  2  0
 25 27  1  0
M  END
$$$$
