
     RDKit          3D

 27 29  0  0  0  0  0  0  0  0999 V2000
   32.2689   11.0401   78.9932 C   0  0  0  0  0  0  0  0  0  0  0  0
   32.5189   10.0582   78.0701 C   0  0  0  0  0  0  0  0  0  0  0  0
   33.8473    9.8230   77.7686 C   0  0  0  0  0  0  0  0  0  0  0  0
   34.8599   10.5327   78.3590 C   0  0  0  0  0  0  0  0  0  0  0  0
   34.5552   11.5250   79.2942 C   0  0  0  0  0  0  0  0  0  0  0  0
   33.2762   11.7998   79.6312 C   0  0  0  0  0  0  0  0  0  0  0  0
   31.4328    9.3136   77.4514 C   0  0  0  0  0  0  0  0  0  0  0  0
   32.6838   12.9275   80.7995 S   0  0  2  0  0  6  0  0  0  0  0  0
   33.7468   13.1205   81.8946 O   0  0  0  0  0  0  0  0  0  0  0  0
   31.5571   12.1721   81.5456 O   0  0  0  0  0  0  0  0  0  0  0  0
   35.6634   12.3147   79.8926 C   0  0  0  0  0  0  0  0  0  0  0  0
   32.1044   14.3904   80.3035 N   0  0  0  0  0  0  0  0  0  0  0  0
   32.8606   15.3636   79.6331 C   0  0  1  0  0  0  0  0  0  0  0  0
   32.9164   14.9719   78.1321 C   0  0  0  0  0  0  0  0  0  0  0  0
   32.8653   16.2797   77.4080 C   0  0  0  0  0  0  0  0  0  0  0  0
   31.7882   17.0100   78.1786 C   0  0  0  0  0  0  0  0  0  0  0  0
   32.1181   16.7038   79.6104 C   0  0  0  0  0  0  0  0  0  0  0  0
   30.2769    8.9392   78.0830 C   0  0  0  0  0  0  0  0  0  0  0  0
   29.5526    8.2933   77.2111 O   0  0  0  0  0  0  0  0  0  0  0  0
   30.1428    8.2156   76.0598 N   0  0  0  0  0  0  0  0  0  0  0  0
   31.3307    8.8398   76.1486 C   0  0  0  0  0  0  0  0  0  0  0  0
   32.3893    9.0416   75.1364 C   0  0  0  0  0  0  0  0  0  0  0  0
   29.8962    9.2024   79.4826 C   0  0  0  0  0  0  0  0  0  0  0  0
   28.6082    9.8760   79.5434 N   0  0  0  0  0  0  0  0  0  0  0  0
   27.7726    9.8386   80.6902 C   0  0  0  0  0  0  0  0  0  0  0  0
   28.1826    9.2223   81.6954 O   0  0  0  0  0  0  0  0  0  0  0  0
   26.4344   10.5114   80.7168 C   0  0  0  0  0  0  0  0  0  0  0  0
  1  2  2  0
  1  6  1  0
  2  3  1  0
  2  7  1  0
  3  4  2  0
  4  5  1  0
  5  6  2  0
  5 11  1  0
  6  8  1  0
  7 18  2  0
  7 21  1  0
  8  9  2  0
  8 10  2  0
  8 12  1  6
 13 12  1  1
 13 14  1  0
 13 17  1  0
 14 15  1  0
 15 16  1  0
 16 17  1  0
 18 19  1  0
 18 23  1  0
 19 20  1  0
 20 21  2  0
 21 22  1  0
 23 24  1  0
 24 25  1  0
 25 26  2  0
 25 27  1  0
M  END
$$$$
