
     RDKit          3D

 27 29  0  0  0  0  0  0  0  0999 V2000
   32.5503   11.1998   78.6812 C   0  0  0  0  0  0  0  0  0  0  0  0
   32.6624   10.0690   77.9148 C   0  0  0  0  0  0  0  0  0  0  0  0
   33.9361    9.5538   77.7636 C   0  0  0  0  0  0  0  0  0  0  0  0
   35.0281   10.1410   78.3469 C   0  0  0  0  0  0  0  0  0  0  0  0
   34.8637   11.2937   79.1192 C   0  0  0  0  0  0  0  0  0  0  0  0
   33.6437   11.8433   79.3049 C   0  0  0  0  0  0  0  0  0  0  0  0
   31.4934    9.4575   77.3013 C   0  0  0  0  0  0  0  0  0  0  0  0
   33.2093   13.2134   80.2651 S   0  0  2  0  0  6  0  0  0  0  0  0
   34.4886   13.9565   80.6866 O   0  0  0  0  0  0  0  0  0  0  0  0
   32.7034   12.6179   81.6015 O   0  0  0  0  0  0  0  0  0  0  0  0
   36.0644   11.9422   79.7089 C   0  0  0  0  0  0  0  0  0  0  0  0
   32.0875   14.2840   79.7021 N   0  0  0  0  0  0  0  0  0  0  0  0
   32.2139   15.6800   79.7640 C   0  0  1  0  0  0  0  0  0  0  0  0
   32.9663   16.1463   78.4889 C   0  0  0  0  0  0  0  0  0  0  0  0
   32.3250   17.4517   78.1394 C   0  0  0  0  0  0  0  0  0  0  0  0
   30.8601   17.1311   78.3363 C   0  0  0  0  0  0  0  0  0  0  0  0
   30.8449   16.3532   79.6198 C   0  0  0  0  0  0  0  0  0  0  0  0
   30.3595    9.0828   77.9716 C   0  0  0  0  0  0  0  0  0  0  0  0
   29.5407    8.5761   77.0913 O   0  0  0  0  0  0  0  0  0  0  0  0
   30.0489    8.5895   75.8991 N   0  0  0  0  0  0  0  0  0  0  0  0
   31.2772    9.1329   75.9671 C   0  0  0  0  0  0  0  0  0  0  0  0
   32.2786    9.3824   74.9084 C   0  0  0  0  0  0  0  0  0  0  0  0
   30.0879    9.2152   79.4144 C   0  0  0  0  0  0  0  0  0  0  0  0
   28.6594    9.1273   79.6752 N   0  0  0  0  0  0  0  0  0  0  0  0
   27.9990    9.9437   80.6302 C   0  0  0  0  0  0  0  0  0  0  0  0
   28.6849   10.7607   81.2786 O   0  0  0  0  0  0  0  0  0  0  0  0
   26.5236    9.8455   80.8703 C   0  0  0  0  0  0  0  0  0  0  0  0
  1  2  2  0
  1  6  1  0
  2  3  1  0
  2  7  1  0
  3  4  2  0
  4  5  1  0
  5  6  2  0
  5 11  1  0
  6  8  1  0
  7 18  2  0
  7 21  1  0
  8  9  2  0
  8 10  2  0
  8 12  1  6
 13 12  1  6
 13 14  1  0
 13 17  1  0
 14 15  1  0
 15 16  1  0
 16 17  1  0
 18 19  1  0
 18 23  1  0
 19 20  1  0
 20 21  2  0
 21 22  1  0
 23 24  1  0
 24 25  1  0
 25 26  2  0
 25 27  1  0
M  END
$$$$
