
     RDKit          3D

 27 29  0  0  0  0  0  0  0  0999 V2000
   32.1890   11.6302   78.3424 C   0  0  0  0  0  0  0  0  0  0  0  0
   32.4042   10.2952   78.1183 C   0  0  0  0  0  0  0  0  0  0  0  0
   33.5379    9.7513   78.6925 C   0  0  0  0  0  0  0  0  0  0  0  0
   34.4007   10.5048   79.4443 C   0  0  0  0  0  0  0  0  0  0  0  0
   34.1392   11.8627   79.6443 C   0  0  0  0  0  0  0  0  0  0  0  0
   33.0467   12.4509   79.1101 C   0  0  0  0  0  0  0  0  0  0  0  0
   31.4789    9.5084   77.3171 C   0  0  0  0  0  0  0  0  0  0  0  0
   32.5023   14.0821   79.2840 S   0  0  2  0  0  6  0  0  0  0  0  0
   31.6835   14.4729   78.0418 O   0  0  0  0  0  0  0  0  0  0  0  0
   33.7793   14.9452   79.1375 O   0  0  0  0  0  0  0  0  0  0  0  0
   35.1083   12.6747   80.4262 C   0  0  0  0  0  0  0  0  0  0  0  0
   31.7082   14.5373   80.6565 N   0  0  0  0  0  0  0  0  0  0  0  0
   32.3140   14.7099   81.9102 C   0  0  1  0  0  0  0  0  0  0  0  0
   31.6975   15.9744   82.5663 C   0  0  0  0  0  0  0  0  0  0  0  0
   31.6221   15.6350   84.0211 C   0  0  0  0  0  0  0  0  0  0  0  0
   31.0999   14.2164   83.9739 C   0  0  0  0  0  0  0  0  0  0  0  0
   31.8995   13.5891   82.8694 C   0  0  0  0  0  0  0  0  0  0  0  0
   30.1949    9.1978   77.6777 C   0  0  0  0  0  0  0  0  0  0  0  0
   29.6845    8.4851   76.7115 O   0  0  0  0  0  0  0  0  0  0  0  0
   30.5325    8.3050   75.7480 N   0  0  0  0  0  0  0  0  0  0  0  0
   31.6808    8.9258   76.0713 C   0  0  0  0  0  0  0  0  0  0  0  0
   32.9574    9.0325   75.3332 C   0  0  0  0  0  0  0  0  0  0  0  0
   29.4955    9.5826   78.9170 C   0  0  0  0  0  0  0  0  0  0  0  0
   30.2634    9.1761   80.0839 N   0  0  0  0  0  0  0  0  0  0  0  0
   29.8973    9.5306   81.4087 C   0  0  0  0  0  0  0  0  0  0  0  0
   28.8300   10.1562   81.5753 O   0  0  0  0  0  0  0  0  0  0  0  0
   30.7507    9.1756   82.5875 C   0  0  0  0  0  0  0  0  0  0  0  0
  1  2  2  0
  1  6  1  0
  2  3  1  0
  2  7  1  0
  3  4  2  0
  4  5  1  0
  5  6  2  0
  5 11  1  0
  6  8  1  0
  7 18  2  0
  7 21  1  0
  8  9  2  0
  8 10  2  0
  8 12  1  1
 13 12  1  6
 13 14  1  0
 13 17  1  0
 14 15  1  0
 15 16  1  0
 16 17  1  0
 18 19  1  0
 18 23  1  0
 19 20  1  0
 20 21  2  0
 21 22  1  0
 23 24  1  0
 24 25  1  0
 25 26  2  0
 25 27  1  0
M  END
$$$$
