
     RDKit          3D

 27 29  0  0  0  0  0  0  0  0999 V2000
   32.1206   11.4193   78.5623 C   0  0  0  0  0  0  0  0  0  0  0  0
   32.3915   10.1037   78.2890 C   0  0  0  0  0  0  0  0  0  0  0  0
   33.6334    9.6389   78.6794 C   0  0  0  0  0  0  0  0  0  0  0  0
   34.5451   10.4482   79.3048 C   0  0  0  0  0  0  0  0  0  0  0  0
   34.2234   11.7834   79.5615 C   0  0  0  0  0  0  0  0  0  0  0  0
   33.0251   12.2953   79.2052 C   0  0  0  0  0  0  0  0  0  0  0  0
   31.4131    9.2570   77.6236 C   0  0  0  0  0  0  0  0  0  0  0  0
   32.4016   13.8833   79.4825 S   0  0  2  0  0  6  0  0  0  0  0  0
   31.1164   14.0689   78.6575 O   0  0  0  0  0  0  0  0  0  0  0  0
   33.4011   14.8318   78.7766 O   0  0  0  0  0  0  0  0  0  0  0  0
   35.2404   12.6585   80.2016 C   0  0  0  0  0  0  0  0  0  0  0  0
   32.1683   14.4121   81.0277 N   0  0  0  0  0  0  0  0  0  0  0  0
   33.1480   14.4023   82.0320 C   0  0  1  0  0  0  0  0  0  0  0  0
   32.8506   15.5803   82.9980 C   0  0  0  0  0  0  0  0  0  0  0  0
   33.2163   15.0508   84.3482 C   0  0  0  0  0  0  0  0  0  0  0  0
   32.6176   13.6628   84.3009 C   0  0  0  0  0  0  0  0  0  0  0  0
   32.9871   13.1722   82.9315 C   0  0  0  0  0  0  0  0  0  0  0  0
   30.6054    8.3466   78.2513 C   0  0  0  0  0  0  0  0  0  0  0  0
   29.8700    7.7848   77.3318 O   0  0  0  0  0  0  0  0  0  0  0  0
   30.1324    8.2554   76.1530 N   0  0  0  0  0  0  0  0  0  0  0  0
   31.0960    9.1860   76.2721 C   0  0  0  0  0  0  0  0  0  0  0  0
   31.7573   10.0224   75.2479 C   0  0  0  0  0  0  0  0  0  0  0  0
   30.5550    8.0386   79.6920 C   0  0  0  0  0  0  0  0  0  0  0  0
   29.2981    8.4921   80.2674 N   0  0  0  0  0  0  0  0  0  0  0  0
   29.2095    9.0852   81.5540 C   0  0  0  0  0  0  0  0  0  0  0  0
   30.2346    9.0984   82.2663 O   0  0  0  0  0  0  0  0  0  0  0  0
   27.9342    9.6838   82.0634 C   0  0  0  0  0  0  0  0  0  0  0  0
  1  2  2  0
  1  6  1  0
  2  3  1  0
  2  7  1  0
  3  4  2  0
  4  5  1  0
  5  6  2  0
  5 11  1  0
  6  8  1  0
  7 18  2  0
  7 21  1  0
  8  9  2  0
  8 10  2  0
  8 12  1  1
 13 12  1  6
 13 14  1  0
 13 17  1  0
 14 15  1  0
 15 16  1  0
 16 17  1  0
 18 19  1  0
 18 23  1  0
 19 20  1  0
 20 21  2  0
 21 22  1  0
 23 24  1  0
 24 25  1  0
 25 26  2  0
 25 27  1  0
M  END
$$$$
