
     RDKit          3D

 27 29  0  0  0  0  0  0  0  0999 V2000
   33.3962   10.4527   79.0884 C   0  0  0  0  0  0  0  0  0  0  0  0
   32.0599   10.2489   78.8618 C   0  0  0  0  0  0  0  0  0  0  0  0
   31.1861   10.9537   79.6683 C   0  0  0  0  0  0  0  0  0  0  0  0
   31.6303   11.8092   80.6421 C   0  0  0  0  0  0  0  0  0  0  0  0
   33.0029   11.9835   80.8361 C   0  0  0  0  0  0  0  0  0  0  0  0
   33.9060   11.3237   80.0785 C   0  0  0  0  0  0  0  0  0  0  0  0
   31.6037    9.3365   77.8242 C   0  0  0  0  0  0  0  0  0  0  0  0
   35.6304   11.4394   80.1044 S   0  0  2  0  0  6  0  0  0  0  0  0
   36.2013   10.6990   78.8827 O   0  0  0  0  0  0  0  0  0  0  0  0
   36.0714   10.5411   81.2857 O   0  0  0  0  0  0  0  0  0  0  0  0
   33.4674   12.8821   81.9254 C   0  0  0  0  0  0  0  0  0  0  0  0
   36.3487   12.9160   80.2629 N   0  0  0  0  0  0  0  0  0  0  0  0
   36.2648   13.9508   79.3190 C   0  0  1  0  0  0  0  0  0  0  0  0
   34.8233   14.5245   79.3695 C   0  0  0  0  0  0  0  0  0  0  0  0
   35.0026   15.9917   79.1400 C   0  0  0  0  0  0  0  0  0  0  0  0
   36.1955   16.2917   80.0201 C   0  0  0  0  0  0  0  0  0  0  0  0
   37.1243   15.1445   79.7482 C   0  0  0  0  0  0  0  0  0  0  0  0
   30.6687    8.3515   77.9994 C   0  0  0  0  0  0  0  0  0  0  0  0
   30.5248    7.7477   76.8519 O   0  0  0  0  0  0  0  0  0  0  0  0
   31.2912    8.2595   75.9405 N   0  0  0  0  0  0  0  0  0  0  0  0
   31.9949    9.2640   76.4923 C   0  0  0  0  0  0  0  0  0  0  0  0
   33.0026   10.1703   75.9017 C   0  0  0  0  0  0  0  0  0  0  0  0
   29.9453    8.0145   79.2388 C   0  0  0  0  0  0  0  0  0  0  0  0
   29.1364    9.1403   79.6801 N   0  0  0  0  0  0  0  0  0  0  0  0
   27.7180    9.1381   79.6258 C   0  0  0  0  0  0  0  0  0  0  0  0
   27.1376    8.0415   79.4877 O   0  0  0  0  0  0  0  0  0  0  0  0
   26.9200   10.4016   79.7288 C   0  0  0  0  0  0  0  0  0  0  0  0
  1  2  2  0
  1  6  1  0
  2  3  1  0
  2  7  1  0
  3  4  2  0
  4  5  1  0
  5  6  2  0
  5 11  1  0
  6  8  1  0
  7 18  2  0
  7 21  1  0
  8  9  2  0
  8 10  2  0
  8 12  1  1
 13 12  1  1
 13 14  1  0
 13 17  1  0
 14 15  1  0
 15 16  1  0
 16 17  1  0
 18 19  1  0
 18 23  1  0
 19 20  1  0
 20 21  2  0
 21 22  1  0
 23 24  1  0
 24 25  1  0
 25 26  2  0
 25 27  1  0
M  END
$$$$
