
     RDKit          3D

 27 29  0  0  0  0  0  0  0  0999 V2000
   31.8544   11.5101   79.3482 C   0  0  0  0  0  0  0  0  0  0  0  0
   30.9273   10.5026   79.2836 C   0  0  0  0  0  0  0  0  0  0  0  0
   30.1247   10.3349   80.3965 C   0  0  0  0  0  0  0  0  0  0  0  0
   30.2487   11.1311   81.5047 C   0  0  0  0  0  0  0  0  0  0  0  0
   31.2095   12.1453   81.5238 C   0  0  0  0  0  0  0  0  0  0  0  0
   32.0222   12.3592   80.4661 C   0  0  0  0  0  0  0  0  0  0  0  0
   30.8081    9.6650   78.0999 C   0  0  0  0  0  0  0  0  0  0  0  0
   33.2212   13.5859   80.2538 S   0  0  2  0  0  6  0  0  0  0  0  0
   33.8777   13.4123   78.8734 O   0  0  0  0  0  0  0  0  0  0  0  0
   34.3621   13.1992   81.2263 O   0  0  0  0  0  0  0  0  0  0  0  0
   31.3596   12.9714   82.7505 C   0  0  0  0  0  0  0  0  0  0  0  0
   32.8253   15.1681   80.5017 N   0  0  0  0  0  0  0  0  0  0  0  0
   31.6825   15.7963   79.9840 C   0  0  1  0  0  0  0  0  0  0  0  0
   31.5040   17.1468   80.7282 C   0  0  0  0  0  0  0  0  0  0  0  0
   30.9871   18.0797   79.6795 C   0  0  0  0  0  0  0  0  0  0  0  0
   31.8718   17.7321   78.5031 C   0  0  0  0  0  0  0  0  0  0  0  0
   31.9159   16.2322   78.5337 C   0  0  0  0  0  0  0  0  0  0  0  0
   31.8003    9.4611   77.1784 C   0  0  0  0  0  0  0  0  0  0  0  0
   31.3223    8.6580   76.2681 O   0  0  0  0  0  0  0  0  0  0  0  0
   30.0967    8.3208   76.5210 N   0  0  0  0  0  0  0  0  0  0  0  0
   29.7171    8.9234   77.6619 C   0  0  0  0  0  0  0  0  0  0  0  0
   28.4320    8.8793   78.3915 C   0  0  0  0  0  0  0  0  0  0  0  0
   33.1608   10.0286   77.1877 C   0  0  0  0  0  0  0  0  0  0  0  0
   34.0277    9.2621   78.0695 N   0  0  0  0  0  0  0  0  0  0  0  0
   35.3504    9.6649   78.3902 C   0  0  0  0  0  0  0  0  0  0  0  0
   35.7070   10.8177   78.0701 O   0  0  0  0  0  0  0  0  0  0  0  0
   36.3081    8.7510   79.0915 C   0  0  0  0  0  0  0  0  0  0  0  0
  1  2  2  0
  1  6  1  0
  2  3  1  0
  2  7  1  0
  3  4  2  0
  4  5  1  0
  5  6  2  0
  5 11  1  0
  6  8  1  0
  7 18  2  0
  7 21  1  0
  8  9  2  0
  8 10  2  0
  8 12  1  1
 13 12  1  1
 13 14  1  0
 13 17  1  0
 14 15  1  0
 15 16  1  0
 16 17  1  0
 18 19  1  0
 18 23  1  0
 19 20  1  0
 20 21  2  0
 21 22  1  0
 23 24  1  0
 24 25  1  0
 25 26  2  0
 25 27  1  0
M  END
$$$$
