
     RDKit          3D

 34 37  0  0  0  0  0  0  0  0999 V2000
  -20.5700   11.6130   -0.5111 C   0  0  0  0  0  0  0  0  0  0  0  0
  -14.6162    9.4034   -1.6143 C   0  0  0  0  0  0  0  0  0  0  0  0
  -11.2305   10.5341   -0.4205 C   0  0  0  0  0  0  0  0  0  0  0  0
  -26.4776    6.0716   -3.1498 C   0  0  0  0  0  0  0  0  0  0  0  0
  -25.2046    6.7538   -3.5010 C   0  0  0  0  0  0  0  0  0  0  0  0
  -25.1502    7.5766   -4.6057 C   0  0  0  0  0  0  0  0  0  0  0  0
  -23.9534    8.1930   -4.9014 C   0  0  0  0  0  0  0  0  0  0  0  0
  -22.8587    7.9734   -4.0964 C   0  0  0  0  0  0  0  0  0  0  0  0
  -20.3817    8.9812   -2.9461 C   0  0  1  0  0  0  0  0  0  0  0  0
  -20.2323   10.1871   -0.9714 C   0  0  2  0  0  0  0  0  0  0  0  0
  -18.7772    9.9947   -0.9319 C   0  0  1  0  0  0  0  0  0  0  0  0
  -18.2033    9.0914   -1.9802 C   0  0  1  0  0  0  0  0  0  0  0  0
  -15.9056    9.2687   -1.1334 C   0  0  0  0  0  0  0  0  0  0  0  0
  -13.3603    9.4900   -0.8727 C   0  0  0  0  0  0  0  0  0  0  0  0
  -12.4154   10.4623   -1.1292 C   0  0  0  0  0  0  0  0  0  0  0  0
  -10.9410    9.6306    0.5797 C   0  0  0  0  0  0  0  0  0  0  0  0
  -11.8778    8.6543    0.8450 C   0  0  0  0  0  0  0  0  0  0  0  0
  -13.0690    8.5855    0.1296 C   0  0  0  0  0  0  0  0  0  0  0  0
  -18.9559    9.3876   -3.2850 C   0  0  1  0  0  0  0  0  0  0  0  0
  -22.9178    7.1497   -2.9927 C   0  0  0  0  0  0  0  0  0  0  0  0
  -24.1128    6.5241   -2.6833 C   0  0  0  0  0  0  0  0  0  0  0  0
  -12.6781   11.3498   -2.0975 F   0  0  0  0  0  0  0  0  0  0  0  0
  -10.2985   11.4950   -0.6752 F   0  0  0  0  0  0  0  0  0  0  0  0
  -11.5918    7.7671    1.8283 F   0  0  0  0  0  0  0  0  0  0  0  0
  -13.9794    7.6247    0.3983 F   0  0  0  0  0  0  0  0  0  0  0  0
  -16.7871    9.2262   -2.1506 N   0  0  0  0  0  0  0  0  0  0  0  0
  -14.7725    9.4387   -2.9595 N   0  0  0  0  0  0  0  0  0  0  0  0
  -16.0587    9.3328   -3.2506 N   0  0  0  0  0  0  0  0  0  0  0  0
  -20.8959    9.9557   -2.1193 O   0  0  0  0  0  0  0  0  0  0  0  0
  -21.8707   11.6802   -0.0123 O   0  0  0  0  0  0  0  0  0  0  0  0
  -18.1379   11.2322   -1.0483 O   0  0  0  0  0  0  0  0  0  0  0  0
   -9.7411    9.7244    1.2783 O   0  0  0  0  0  0  0  0  0  0  0  0
  -18.4248    8.5780   -4.2915 O   0  0  0  0  0  0  0  0  0  0  0  0
  -21.2987    8.7570   -4.4546 S   0  0  0  0  0  0  0  0  0  0  0  0
 10  1  1  6
  1 30  1  0
  2 13  2  0
 14  2  1  0
  2 27  1  0
 15  3  2  0
  3 16  1  0
  3 23  1  0
  5  4  1  0
  6  5  2  0
  5 21  1  0
  7  6  1  0
  8  7  2  0
  8 20  1  0
 34  8  1  0
 19  9  1  0
  9 29  1  0
  9 34  1  6
 11 10  1  0
 10 29  1  0
 12 11  1  0
 11 31  1  6
 12 19  1  0
 12 26  1  6
 13 26  1  0
 14 15  1  0
 14 18  2  0
 15 22  1  0
 16 17  2  0
 16 32  1  0
 17 18  1  0
 17 24  1  0
 18 25  1  0
 19 33  1  6
 20 21  2  0
 26 28  1  0
 27 28  2  0
M  END
$$$$
