
     RDKit          3D

 34 37  0  0  0  0  0  0  0  0999 V2000
  -19.1622    9.5045   -5.0861 C   0  0  0  0  0  0  0  0  0  0  0  0
  -13.9350    8.5273   -0.9688 C   0  0  0  0  0  0  0  0  0  0  0  0
  -11.0178    9.2460    1.2984 C   0  0  0  0  0  0  0  0  0  0  0  0
  -25.8142   11.2367    0.2896 C   0  0  0  0  0  0  0  0  0  0  0  0
  -24.6393   10.3868   -0.0366 C   0  0  0  0  0  0  0  0  0  0  0  0
  -24.1778   10.3245   -1.3341 C   0  0  0  0  0  0  0  0  0  0  0  0
  -23.0861    9.5263   -1.6003 C   0  0  0  0  0  0  0  0  0  0  0  0
  -22.4935    8.8219   -0.5769 C   0  0  0  0  0  0  0  0  0  0  0  0
  -19.7812    8.7471   -1.6315 C   0  0  1  0  0  0  0  0  0  0  0  0
  -19.0401    9.7666   -3.5776 C   0  0  2  0  0  0  0  0  0  0  0  0
  -17.6409    9.5976   -3.1659 C   0  0  1  0  0  0  0  0  0  0  0  0
  -17.4207    9.0547   -1.7872 C   0  0  1  0  0  0  0  0  0  0  0  0
  -15.0856    9.2880   -1.0659 C   0  0  0  0  0  0  0  0  0  0  0  0
  -12.6120    8.9148   -0.4847 C   0  0  0  0  0  0  0  0  0  0  0  0
  -12.2732    8.8767    0.8523 C   0  0  0  0  0  0  0  0  0  0  0  0
  -10.0444    9.6710    0.4195 C   0  0  0  0  0  0  0  0  0  0  0  0
  -10.3714    9.7132   -0.9193 C   0  0  0  0  0  0  0  0  0  0  0  0
  -11.6358    9.3408   -1.3641 C   0  0  0  0  0  0  0  0  0  0  0  0
  -18.4786    7.9651   -1.5626 C   0  0  1  0  0  0  0  0  0  0  0  0
  -22.9585    8.8874    0.7191 C   0  0  0  0  0  0  0  0  0  0  0  0
  -24.0538    9.6846    1.0015 C   0  0  0  0  0  0  0  0  0  0  0  0
  -13.2055    8.4665    1.7224 F   0  0  0  0  0  0  0  0  0  0  0  0
  -10.6850    9.2077    2.6192 F   0  0  0  0  0  0  0  0  0  0  0  0
   -9.4136   10.1311   -1.7818 F   0  0  0  0  0  0  0  0  0  0  0  0
  -11.9449    9.3862   -2.6781 F   0  0  0  0  0  0  0  0  0  0  0  0
  -16.0972    8.5528   -1.5655 N   0  0  0  0  0  0  0  0  0  0  0  0
  -14.3091    7.3106   -1.4324 N   0  0  0  0  0  0  0  0  0  0  0  0
  -15.5857    7.3506   -1.7773 N   0  0  0  0  0  0  0  0  0  0  0  0
  -19.9995    9.0560   -2.9561 O   0  0  0  0  0  0  0  0  0  0  0  0
  -19.7933   10.5703   -5.7272 O   0  0  0  0  0  0  0  0  0  0  0  0
  -16.9889    8.7456   -4.0618 O   0  0  0  0  0  0  0  0  0  0  0  0
   -8.7884   10.0372    0.8939 O   0  0  0  0  0  0  0  0  0  0  0  0
  -18.2832    7.4188   -0.2922 O   0  0  0  0  0  0  0  0  0  0  0  0
  -21.0807    7.7822   -0.8918 S   0  0  0  0  0  0  0  0  0  0  0  0
 10  1  1  6
  1 30  1  0
  2 13  2  0
 14  2  1  0
  2 27  1  0
 15  3  2  0
  3 16  1  0
  3 23  1  0
  5  4  1  0
  6  5  2  0
  5 21  1  0
  7  6  1  0
  8  7  2  0
  8 20  1  0
 34  8  1  0
 19  9  1  0
  9 29  1  0
  9 34  1  6
 11 10  1  0
 10 29  1  0
 12 11  1  0
 11 31  1  6
 12 19  1  0
 12 26  1  6
 13 26  1  0
 14 15  1  0
 14 18  2  0
 15 22  1  0
 16 17  2  0
 16 32  1  0
 17 18  1  0
 17 24  1  0
 18 25  1  0
 19 33  1  1
 20 21  2  0
 26 28  1  0
 27 28  2  0
M  END
$$$$
