
     RDKit          3D

 34 37  0  0  0  0  0  0  0  0999 V2000
  -20.0571    8.5600   -4.5621 C   0  0  0  0  0  0  0  0  0  0  0  0
  -14.0745    8.6986   -1.2336 C   0  0  0  0  0  0  0  0  0  0  0  0
  -10.4350    9.6371   -1.4328 C   0  0  0  0  0  0  0  0  0  0  0  0
  -26.0382   12.1486   -0.3249 C   0  0  0  0  0  0  0  0  0  0  0  0
  -24.7615   11.4015   -0.1805 C   0  0  0  0  0  0  0  0  0  0  0  0
  -23.5715   12.0906   -0.0839 C   0  0  0  0  0  0  0  0  0  0  0  0
  -22.4069   11.3654    0.0491 C   0  0  0  0  0  0  0  0  0  0  0  0
  -22.4624    9.9905    0.0815 C   0  0  0  0  0  0  0  0  0  0  0  0
  -19.8568    9.4099   -1.0795 C   0  0  1  0  0  0  0  0  0  0  0  0
  -19.5693    9.4110   -3.3802 C   0  0  2  0  0  0  0  0  0  0  0  0
  -18.1186    9.2445   -3.2266 C   0  0  1  0  0  0  0  0  0  0  0  0
  -17.5932    9.3050   -1.8250 C   0  0  1  0  0  0  0  0  0  0  0  0
  -15.2064    9.4915   -1.2808 C   0  0  0  0  0  0  0  0  0  0  0  0
  -12.7094    9.0623   -0.8608 C   0  0  0  0  0  0  0  0  0  0  0  0
  -11.7234    9.2935   -1.7979 C   0  0  0  0  0  0  0  0  0  0  0  0
  -10.0786    9.7640   -0.1070 C   0  0  0  0  0  0  0  0  0  0  0  0
  -11.0556    9.5353    0.8386 C   0  0  0  0  0  0  0  0  0  0  0  0
  -12.3509    9.1898    0.4670 C   0  0  0  0  0  0  0  0  0  0  0  0
  -18.6021    8.5622   -0.9379 C   0  0  1  0  0  0  0  0  0  0  0  0
  -23.6548    9.3057   -0.0155 C   0  0  0  0  0  0  0  0  0  0  0  0
  -24.8322   10.0204   -0.1494 C   0  0  0  0  0  0  0  0  0  0  0  0
  -12.0499    9.1752   -3.0916 F   0  0  0  0  0  0  0  0  0  0  0  0
   -9.4625    9.8652   -2.3596 F   0  0  0  0  0  0  0  0  0  0  0  0
  -10.7037    9.6605    2.1409 F   0  0  0  0  0  0  0  0  0  0  0  0
  -13.2998    8.9680    1.4021 F   0  0  0  0  0  0  0  0  0  0  0  0
  -16.2723    8.7700   -1.6766 N   0  0  0  0  0  0  0  0  0  0  0  0
  -14.5164    7.4773   -1.6186 N   0  0  0  0  0  0  0  0  0  0  0  0
  -15.8128    7.5446   -1.8739 N   0  0  0  0  0  0  0  0  0  0  0  0
  -20.3752    9.1617   -2.3314 O   0  0  0  0  0  0  0  0  0  0  0  0
  -21.4187    8.7584   -4.7900 O   0  0  0  0  0  0  0  0  0  0  0  0
  -17.7283    8.0168   -3.7687 O   0  0  0  0  0  0  0  0  0  0  0  0
   -8.7748   10.1110    0.2343 O   0  0  0  0  0  0  0  0  0  0  0  0
  -18.1267    8.5776    0.3753 O   0  0  0  0  0  0  0  0  0  0  0  0
  -20.9728    9.0272    0.2527 S   0  0  0  0  0  0  0  0  0  0  0  0
 10  1  1  6
  1 30  1  0
  2 13  2  0
 14  2  1  0
  2 27  1  0
 15  3  2  0
  3 16  1  0
  3 23  1  0
  5  4  1  0
  6  5  2  0
  5 21  1  0
  7  6  1  0
  8  7  2  0
  8 20  1  0
 34  8  1  0
 19  9  1  0
  9 29  1  0
  9 34  1  1
 11 10  1  0
 10 29  1  0
 12 11  1  0
 11 31  1  1
 12 19  1  0
 12 26  1  6
 13 26  1  0
 14 15  1  0
 14 18  2  0
 15 22  1  0
 16 17  2  0
 16 32  1  0
 17 18  1  0
 17 24  1  0
 18 25  1  0
 19 33  1  1
 20 21  2  0
 26 28  1  0
 27 28  2  0
M  END
$$$$
