
     RDKit          3D

 34 37  0  0  0  0  0  0  0  0999 V2000
  -18.7399    6.0457   -0.0821 C   0  0  0  0  0  0  0  0  0  0  0  0
  -13.8127    9.3845   -2.1150 C   0  0  0  0  0  0  0  0  0  0  0  0
  -11.0757   11.1461   -0.2251 C   0  0  0  0  0  0  0  0  0  0  0  0
  -26.2664    9.0904   -2.7595 C   0  0  0  0  0  0  0  0  0  0  0  0
  -24.8472    9.3931   -2.4379 C   0  0  0  0  0  0  0  0  0  0  0  0
  -23.8432    8.6076   -2.9627 C   0  0  0  0  0  0  0  0  0  0  0  0
  -22.5387    8.9174   -2.6434 C   0  0  0  0  0  0  0  0  0  0  0  0
  -22.2765    9.9887   -1.8199 C   0  0  0  0  0  0  0  0  0  0  0  0
  -19.5114    9.0788   -1.8417 C   0  0  1  0  0  0  0  0  0  0  0  0
  -18.8470    6.9137   -1.3447 C   0  0  2  0  0  0  0  0  0  0  0  0
  -17.5014    7.1767   -1.8701 C   0  0  1  0  0  0  0  0  0  0  0  0
  -17.2995    8.5072   -2.5284 C   0  0  1  0  0  0  0  0  0  0  0  0
  -15.0647    9.0230   -1.6525 C   0  0  0  0  0  0  0  0  0  0  0  0
  -12.5905    9.6454   -1.3581 C   0  0  0  0  0  0  0  0  0  0  0  0
  -12.2350   10.9116   -0.9409 C   0  0  0  0  0  0  0  0  0  0  0  0
  -10.2197   10.1168    0.1045 C   0  0  0  0  0  0  0  0  0  0  0  0
  -10.5646    8.8468   -0.3071 C   0  0  0  0  0  0  0  0  0  0  0  0
  -11.7321    8.6152   -1.0272 C   0  0  0  0  0  0  0  0  0  0  0  0
  -18.0697    9.5396   -1.6932 C   0  0  1  0  0  0  0  0  0  0  0  0
  -23.2839   10.7713   -1.2975 C   0  0  0  0  0  0  0  0  0  0  0  0
  -24.5986   10.4724   -1.6093 C   0  0  0  0  0  0  0  0  0  0  0  0
  -13.0537   11.9254   -1.2513 F   0  0  0  0  0  0  0  0  0  0  0  0
  -10.7261   12.3973    0.1861 F   0  0  0  0  0  0  0  0  0  0  0  0
   -9.7223    7.8365    0.0176 F   0  0  0  0  0  0  0  0  0  0  0  0
  -12.0597    7.3668   -1.4252 F   0  0  0  0  0  0  0  0  0  0  0  0
  -15.9236    8.8773   -2.6793 N   0  0  0  0  0  0  0  0  0  0  0  0
  -13.9677    9.4464   -3.4594 N   0  0  0  0  0  0  0  0  0  0  0  0
  -15.2184    9.1439   -3.7671 N   0  0  0  0  0  0  0  0  0  0  0  0
  -19.6589    7.9504   -1.0655 O   0  0  0  0  0  0  0  0  0  0  0  0
  -19.8817    5.2617    0.0814 O   0  0  0  0  0  0  0  0  0  0  0  0
  -16.5667    7.0737   -0.8361 O   0  0  0  0  0  0  0  0  0  0  0  0
   -9.0589   10.3792    0.8258 O   0  0  0  0  0  0  0  0  0  0  0  0
  -17.8794   10.7986   -2.2671 O   0  0  0  0  0  0  0  0  0  0  0  0
  -20.5996   10.4125   -1.3904 S   0  0  0  0  0  0  0  0  0  0  0  0
 10  1  1  1
  1 30  1  0
  2 13  2  0
 14  2  1  0
  2 27  1  0
 15  3  2  0
  3 16  1  0
  3 23  1  0
  5  4  1  0
  6  5  2  0
  5 21  1  0
  7  6  1  0
  8  7  2  0
  8 20  1  0
 34  8  1  0
 19  9  1  0
  9 29  1  0
  9 34  1  1
 11 10  1  0
 10 29  1  0
 12 11  1  0
 11 31  1  1
 12 19  1  0
 12 26  1  1
 13 26  1  0
 14 15  1  0
 14 18  2  0
 15 22  1  0
 16 17  2  0
 16 32  1  0
 17 18  1  0
 17 24  1  0
 18 25  1  0
 19 33  1  6
 20 21  2  0
 26 28  1  0
 27 28  2  0
M  END
$$$$
