
     RDKit          3D

 34 37  0  0  0  0  0  0  0  0999 V2000
  -19.5666    8.6986   -4.9701 C   0  0  0  0  0  0  0  0  0  0  0  0
  -13.6365    8.7839   -1.5478 C   0  0  0  0  0  0  0  0  0  0  0  0
   -9.9869    9.7024   -1.5986 C   0  0  0  0  0  0  0  0  0  0  0  0
  -25.5363   11.9761   -0.3849 C   0  0  0  0  0  0  0  0  0  0  0  0
  -24.3180   11.1271   -0.3205 C   0  0  0  0  0  0  0  0  0  0  0  0
  -24.4382    9.7719   -0.0986 C   0  0  0  0  0  0  0  0  0  0  0  0
  -23.2874    9.0153   -0.0450 C   0  0  0  0  0  0  0  0  0  0  0  0
  -22.0647    9.6250   -0.2123 C   0  0  0  0  0  0  0  0  0  0  0  0
  -19.4465    9.2258   -1.4205 C   0  0  1  0  0  0  0  0  0  0  0  0
  -19.1316    9.4554   -3.7062 C   0  0  2  0  0  0  0  0  0  0  0  0
  -17.6769    9.3382   -3.5453 C   0  0  1  0  0  0  0  0  0  0  0  0
  -17.1716    9.2896   -2.1359 C   0  0  1  0  0  0  0  0  0  0  0  0
  -14.8020    9.5280   -1.5395 C   0  0  0  0  0  0  0  0  0  0  0  0
  -12.2934    9.1703   -1.1218 C   0  0  0  0  0  0  0  0  0  0  0  0
  -11.2538    9.3366   -2.0137 C   0  0  0  0  0  0  0  0  0  0  0  0
   -9.7069    9.9181   -0.2660 C   0  0  0  0  0  0  0  0  0  0  0  0
  -10.7380    9.7549    0.6348 C   0  0  0  0  0  0  0  0  0  0  0  0
  -12.0115    9.3867    0.2129 C   0  0  0  0  0  0  0  0  0  0  0  0
  -18.1570    8.4237   -1.3383 C   0  0  1  0  0  0  0  0  0  0  0  0
  -21.9495   10.9806   -0.4340 C   0  0  0  0  0  0  0  0  0  0  0  0
  -23.0962   11.7531   -0.4904 C   0  0  0  0  0  0  0  0  0  0  0  0
  -11.5057    9.1316   -3.3133 F   0  0  0  0  0  0  0  0  0  0  0  0
   -8.9614    9.8662   -2.4807 F   0  0  0  0  0  0  0  0  0  0  0  0
  -10.4611    9.9673    1.9439 F   0  0  0  0  0  0  0  0  0  0  0  0
  -13.0139    9.2297    1.1043 F   0  0  0  0  0  0  0  0  0  0  0  0
  -15.8301    8.8009   -2.0166 N   0  0  0  0  0  0  0  0  0  0  0  0
  -14.0191    7.5854   -2.0501 N   0  0  0  0  0  0  0  0  0  0  0  0
  -15.3142    7.6199   -2.3184 N   0  0  0  0  0  0  0  0  0  0  0  0
  -19.9382    9.0739   -2.6984 O   0  0  0  0  0  0  0  0  0  0  0  0
  -20.7534    9.2238   -5.4810 O   0  0  0  0  0  0  0  0  0  0  0  0
  -17.2255    8.1849   -4.1931 O   0  0  0  0  0  0  0  0  0  0  0  0
   -8.4232   10.2857    0.1262 O   0  0  0  0  0  0  0  0  0  0  0  0
  -17.6987    8.3364   -0.0219 O   0  0  0  0  0  0  0  0  0  0  0  0
  -20.5603    8.6717   -0.1481 S   0  0  0  0  0  0  0  0  0  0  0  0
 10  1  1  6
  1 30  1  0
  2 13  2  0
 14  2  1  0
  2 27  1  0
 15  3  2  0
  3 16  1  0
  3 23  1  0
  5  4  1  0
  6  5  2  0
  5 21  1  0
  7  6  1  0
  8  7  2  0
  8 20  1  0
 34  8  1  0
 19  9  1  0
  9 29  1  0
  9 34  1  1
 11 10  1  0
 10 29  1  0
 12 11  1  0
 11 31  1  6
 12 19  1  0
 12 26  1  6
 13 26  1  0
 14 15  1  0
 14 18  2  0
 15 22  1  0
 16 17  2  0
 16 32  1  0
 17 18  1  0
 17 24  1  0
 18 25  1  0
 19 33  1  1
 20 21  2  0
 26 28  1  0
 27 28  2  0
M  END
$$$$
