
     RDKit          3D

 34 37  0  0  0  0  0  0  0  0999 V2000
  -19.6057    6.2645    0.1017 C   0  0  0  0  0  0  0  0  0  0  0  0
  -14.2607    9.7153   -2.2961 C   0  0  0  0  0  0  0  0  0  0  0  0
  -11.7735   11.2268   -4.6827 C   0  0  0  0  0  0  0  0  0  0  0  0
  -26.3973   10.0553   -3.4801 C   0  0  0  0  0  0  0  0  0  0  0  0
  -25.1024   10.2666   -2.7818 C   0  0  0  0  0  0  0  0  0  0  0  0
  -25.0917   10.7266   -1.4823 C   0  0  0  0  0  0  0  0  0  0  0  0
  -23.8728   10.9110   -0.8658 C   0  0  0  0  0  0  0  0  0  0  0  0
  -22.7138   10.6346   -1.5551 C   0  0  0  0  0  0  0  0  0  0  0  0
  -20.0255    9.5532   -1.2764 C   0  0  1  0  0  0  0  0  0  0  0  0
  -19.5063    7.3079   -1.0210 C   0  0  2  0  0  0  0  0  0  0  0  0
  -18.0925    7.5731   -1.3152 C   0  0  1  0  0  0  0  0  0  0  0  0
  -17.7579    8.9715   -1.7355 C   0  0  1  0  0  0  0  0  0  0  0  0
  -15.5443    9.4042   -2.7053 C   0  0  0  0  0  0  0  0  0  0  0  0
  -13.0629    9.9320   -3.1042 C   0  0  0  0  0  0  0  0  0  0  0  0
  -12.9118   11.0326   -3.9226 C   0  0  0  0  0  0  0  0  0  0  0  0
  -10.7336   10.3221   -4.6548 C   0  0  0  0  0  0  0  0  0  0  0  0
  -10.8731    9.2182   -3.8406 C   0  0  0  0  0  0  0  0  0  0  0  0
  -12.0203    9.0265   -3.0772 C   0  0  0  0  0  0  0  0  0  0  0  0
  -18.6053    9.9128   -0.8680 C   0  0  1  0  0  0  0  0  0  0  0  0
  -22.7295   10.1747   -2.8545 C   0  0  0  0  0  0  0  0  0  0  0  0
  -23.9458    9.9848   -3.4864 C   0  0  0  0  0  0  0  0  0  0  0  0
  -13.9114   11.9234   -3.9636 F   0  0  0  0  0  0  0  0  0  0  0  0
  -11.6260   12.3143   -5.4903 F   0  0  0  0  0  0  0  0  0  0  0  0
   -9.8503    8.3301   -3.8143 F   0  0  0  0  0  0  0  0  0  0  0  0
  -12.1459    7.9412   -2.2832 F   0  0  0  0  0  0  0  0  0  0  0  0
  -16.3635    9.2876   -1.6429 N   0  0  0  0  0  0  0  0  0  0  0  0
  -14.3555    9.7778   -0.9462 N   0  0  0  0  0  0  0  0  0  0  0  0
  -15.6026    9.5225   -0.5857 N   0  0  0  0  0  0  0  0  0  0  0  0
  -20.3164    8.3348   -0.7032 O   0  0  0  0  0  0  0  0  0  0  0  0
  -20.9002    5.7534    0.1932 O   0  0  0  0  0  0  0  0  0  0  0  0
  -17.3166    7.2755   -0.1914 O   0  0  0  0  0  0  0  0  0  0  0  0
   -9.5983   10.5406   -5.4295 O   0  0  0  0  0  0  0  0  0  0  0  0
  -18.2963   11.2292   -1.2179 O   0  0  0  0  0  0  0  0  0  0  0  0
  -21.1239   10.8635   -0.7832 S   0  0  0  0  0  0  0  0  0  0  0  0
 10  1  1  1
  1 30  1  0
  2 13  2  0
 14  2  1  0
  2 27  1  0
 15  3  2  0
  3 16  1  0
  3 23  1  0
  5  4  1  0
  6  5  2  0
  5 21  1  0
  7  6  1  0
  8  7  2  0
  8 20  1  0
 34  8  1  0
 19  9  1  0
  9 29  1  0
  9 34  1  1
 11 10  1  0
 10 29  1  0
 12 11  1  0
 11 31  1  1
 12 19  1  0
 12 26  1  1
 13 26  1  0
 14 15  1  0
 14 18  2  0
 15 22  1  0
 16 17  2  0
 16 32  1  0
 17 18  1  0
 17 24  1  0
 18 25  1  0
 19 33  1  6
 20 21  2  0
 26 28  1  0
 27 28  2  0
M  END
$$$$
