
     RDKit          3D

 34 37  0  0  0  0  0  0  0  0999 V2000
  -19.5123    6.5420    0.3226 C   0  0  0  0  0  0  0  0  0  0  0  0
  -13.9699    9.6790   -1.0106 C   0  0  0  0  0  0  0  0  0  0  0  0
  -10.3876    8.8786   -1.8428 C   0  0  0  0  0  0  0  0  0  0  0  0
  -25.4094    7.3821   -5.5022 C   0  0  0  0  0  0  0  0  0  0  0  0
  -24.3520    8.0977   -4.7414 C   0  0  0  0  0  0  0  0  0  0  0  0
  -24.6515    8.6676   -3.5224 C   0  0  0  0  0  0  0  0  0  0  0  0
  -23.6464    9.3233   -2.8445 C   0  0  0  0  0  0  0  0  0  0  0  0
  -22.3868    9.3908   -3.3955 C   0  0  0  0  0  0  0  0  0  0  0  0
  -19.7502    9.0860   -2.1999 C   0  0  1  0  0  0  0  0  0  0  0  0
  -19.1394    7.1847   -1.0217 C   0  0  2  0  0  0  0  0  0  0  0  0
  -17.7403    7.6281   -0.9777 C   0  0  1  0  0  0  0  0  0  0  0  0
  -17.4164    8.8655   -1.7575 C   0  0  1  0  0  0  0  0  0  0  0  0
  -14.9857    8.8321   -1.4141 C   0  0  0  0  0  0  0  0  0  0  0  0
  -12.5397    9.4083   -0.8844 C   0  0  0  0  0  0  0  0  0  0  0  0
  -11.7400    9.1333   -1.9747 C   0  0  0  0  0  0  0  0  0  0  0  0
   -9.7765    8.8888   -0.6070 C   0  0  0  0  0  0  0  0  0  0  0  0
  -10.5656    9.1624    0.4901 C   0  0  0  0  0  0  0  0  0  0  0  0
  -11.9262    9.4181    0.3530 C   0  0  0  0  0  0  0  0  0  0  0  0
  -18.5903    9.8355   -1.5628 C   0  0  1  0  0  0  0  0  0  0  0  0
  -22.0920    8.8194   -4.6148 C   0  0  0  0  0  0  0  0  0  0  0  0
  -23.0910    8.1577   -5.3069 C   0  0  0  0  0  0  0  0  0  0  0  0
  -12.3151    9.1187   -3.1845 F   0  0  0  0  0  0  0  0  0  0  0  0
   -9.5993    8.6072   -2.9206 F   0  0  0  0  0  0  0  0  0  0  0  0
   -9.9635    9.1721    1.7038 F   0  0  0  0  0  0  0  0  0  0  0  0
  -12.6893    9.6850    1.4349 F   0  0  0  0  0  0  0  0  0  0  0  0
  -16.1704    9.4717   -1.3931 N   0  0  0  0  0  0  0  0  0  0  0  0
  -14.6044   10.8472   -0.7499 N   0  0  0  0  0  0  0  0  0  0  0  0
  -15.8985   10.7003   -0.9824 N   0  0  0  0  0  0  0  0  0  0  0  0
  -20.1015    8.0720   -1.3361 O   0  0  0  0  0  0  0  0  0  0  0  0
  -20.1067    5.2950    0.1303 O   0  0  0  0  0  0  0  0  0  0  0  0
  -17.3631    7.8569    0.3485 O   0  0  0  0  0  0  0  0  0  0  0  0
   -8.4133    8.6293   -0.5010 O   0  0  0  0  0  0  0  0  0  0  0  0
  -18.3064   11.0132   -2.2578 O   0  0  0  0  0  0  0  0  0  0  0  0
  -21.0681   10.2320   -2.5414 S   0  0  0  0  0  0  0  0  0  0  0  0
 10  1  1  1
  1 30  1  0
  2 13  2  0
 14  2  1  0
  2 27  1  0
 15  3  2  0
  3 16  1  0
  3 23  1  0
  5  4  1  0
  6  5  2  0
  5 21  1  0
  7  6  1  0
  8  7  2  0
  8 20  1  0
 34  8  1  0
 19  9  1  0
  9 29  1  0
  9 34  1  1
 11 10  1  0
 10 29  1  0
 12 11  1  0
 11 31  1  1
 12 19  1  0
 12 26  1  1
 13 26  1  0
 14 15  1  0
 14 18  2  0
 15 22  1  0
 16 17  2  0
 16 32  1  0
 17 18  1  0
 17 24  1  0
 18 25  1  0
 19 33  1  6
 20 21  2  0
 26 28  1  0
 27 28  2  0
M  END
$$$$
