
     RDKit          3D

 34 37  0  0  0  0  0  0  0  0999 V2000
  -19.6646    5.9449    0.0923 C   0  0  0  0  0  0  0  0  0  0  0  0
  -14.1753    9.4033   -1.9449 C   0  0  0  0  0  0  0  0  0  0  0  0
  -10.5696    9.1143   -2.9850 C   0  0  0  0  0  0  0  0  0  0  0  0
  -26.4659    8.9422   -3.5334 C   0  0  0  0  0  0  0  0  0  0  0  0
  -25.1646    9.3155   -2.9200 C   0  0  0  0  0  0  0  0  0  0  0  0
  -25.0566    9.4156   -1.5494 C   0  0  0  0  0  0  0  0  0  0  0  0
  -23.8347    9.7638   -1.0152 C   0  0  0  0  0  0  0  0  0  0  0  0
  -22.7687    9.9993   -1.8535 C   0  0  0  0  0  0  0  0  0  0  0  0
  -20.0085    9.1451   -1.4991 C   0  0  1  0  0  0  0  0  0  0  0  0
  -19.4730    6.9302   -1.0703 C   0  0  2  0  0  0  0  0  0  0  0  0
  -18.0422    7.2155   -1.2357 C   0  0  1  0  0  0  0  0  0  0  0  0
  -17.6949    8.5979   -1.6965 C   0  0  1  0  0  0  0  0  0  0  0  0
  -15.4048    9.0400   -2.4629 C   0  0  0  0  0  0  0  0  0  0  0  0
  -12.9073    9.6114   -2.6403 C   0  0  0  0  0  0  0  0  0  0  0  0
  -11.7639    8.9087   -2.3197 C   0  0  0  0  0  0  0  0  0  0  0  0
  -10.4701   10.0371   -4.0045 C   0  0  0  0  0  0  0  0  0  0  0  0
  -11.6062   10.7455   -4.3338 C   0  0  0  0  0  0  0  0  0  0  0  0
  -12.8061   10.5355   -3.6618 C   0  0  0  0  0  0  0  0  0  0  0  0
  -18.6445    9.5617   -0.9710 C   0  0  1  0  0  0  0  0  0  0  0  0
  -22.8814    9.8980   -3.2236 C   0  0  0  0  0  0  0  0  0  0  0  0
  -24.1020    9.5492   -3.7744 C   0  0  0  0  0  0  0  0  0  0  0  0
  -11.8401    8.0073   -1.3317 F   0  0  0  0  0  0  0  0  0  0  0  0
   -9.4414    8.4194   -2.6671 F   0  0  0  0  0  0  0  0  0  0  0  0
  -11.5067   11.6519   -5.3358 F   0  0  0  0  0  0  0  0  0  0  0  0
  -13.9127   11.2353   -3.9931 F   0  0  0  0  0  0  0  0  0  0  0  0
  -16.3237    8.9539   -1.4824 N   0  0  0  0  0  0  0  0  0  0  0  0
  -14.4062    9.5285   -0.6159 N   0  0  0  0  0  0  0  0  0  0  0  0
  -15.6775    9.2590   -0.3683 N   0  0  0  0  0  0  0  0  0  0  0  0
  -20.3315    7.9514   -0.8919 O   0  0  0  0  0  0  0  0  0  0  0  0
  -20.9809    5.4869    0.1449 O   0  0  0  0  0  0  0  0  0  0  0  0
  -17.3783    6.9971   -0.0254 O   0  0  0  0  0  0  0  0  0  0  0  0
   -9.2562   10.2253   -4.6585 O   0  0  0  0  0  0  0  0  0  0  0  0
  -18.3281   10.8653   -1.3598 O   0  0  0  0  0  0  0  0  0  0  0  0
  -21.1772   10.4511   -1.1907 S   0  0  0  0  0  0  0  0  0  0  0  0
 10  1  1  1
  1 30  1  0
  2 13  2  0
 14  2  1  0
  2 27  1  0
 15  3  2  0
  3 16  1  0
  3 23  1  0
  5  4  1  0
  6  5  2  0
  5 21  1  0
  7  6  1  0
  8  7  2  0
  8 20  1  0
 34  8  1  0
 19  9  1  0
  9 29  1  0
  9 34  1  1
 11 10  1  0
 10 29  1  0
 12 11  1  0
 11 31  1  1
 12 19  1  0
 12 26  1  1
 13 26  1  0
 14 15  1  0
 14 18  2  0
 15 22  1  0
 16 17  2  0
 16 32  1  0
 17 18  1  0
 17 24  1  0
 18 25  1  0
 19 33  1  6
 20 21  2  0
 26 28  1  0
 27 28  2  0
M  END
$$$$
