
     RDKit          3D

 34 37  0  0  0  0  0  0  0  0999 V2000
  -19.8417    8.0521   -4.5367 C   0  0  0  0  0  0  0  0  0  0  0  0
  -13.9756    8.6055   -1.1009 C   0  0  0  0  0  0  0  0  0  0  0  0
  -10.8733    9.7253    0.7125 C   0  0  0  0  0  0  0  0  0  0  0  0
  -25.7349   12.5749   -0.6431 C   0  0  0  0  0  0  0  0  0  0  0  0
  -24.5256   11.7298   -0.4632 C   0  0  0  0  0  0  0  0  0  0  0  0
  -23.3171   12.1437   -0.9816 C   0  0  0  0  0  0  0  0  0  0  0  0
  -22.2166   11.3349   -0.7959 C   0  0  0  0  0  0  0  0  0  0  0  0
  -22.3517   10.1510   -0.1068 C   0  0  0  0  0  0  0  0  0  0  0  0
  -19.7774    9.3102   -1.1744 C   0  0  1  0  0  0  0  0  0  0  0  0
  -19.3991    9.0387   -3.4459 C   0  0  2  0  0  0  0  0  0  0  0  0
  -17.9560    8.8953   -3.2163 C   0  0  1  0  0  0  0  0  0  0  0  0
  -17.4862    9.1231   -1.8122 C   0  0  1  0  0  0  0  0  0  0  0  0
  -15.0951    9.3866   -1.3219 C   0  0  0  0  0  0  0  0  0  0  0  0
  -12.6038    9.0204   -0.8170 C   0  0  0  0  0  0  0  0  0  0  0  0
  -12.1742    9.3338    0.4562 C   0  0  0  0  0  0  0  0  0  0  0  0
   -9.9435    9.8196   -0.3011 C   0  0  0  0  0  0  0  0  0  0  0  0
  -10.3611    9.5089   -1.5778 C   0  0  0  0  0  0  0  0  0  0  0  0
  -11.6712    9.1154   -1.8314 C   0  0  0  0  0  0  0  0  0  0  0  0
  -18.5311    8.4884   -0.8837 C   0  0  1  0  0  0  0  0  0  0  0  0
  -23.5622    9.7413    0.4098 C   0  0  0  0  0  0  0  0  0  0  0  0
  -24.6760   10.5429    0.2312 C   0  0  0  0  0  0  0  0  0  0  0  0
  -13.0629    9.2483    1.4549 F   0  0  0  0  0  0  0  0  0  0  0  0
  -10.4508   10.0344    1.9705 F   0  0  0  0  0  0  0  0  0  0  0  0
   -9.4462    9.6021   -2.5727 F   0  0  0  0  0  0  0  0  0  0  0  0
  -12.0691    8.8134   -3.0863 F   0  0  0  0  0  0  0  0  0  0  0  0
  -16.1735    8.6129   -1.5492 N   0  0  0  0  0  0  0  0  0  0  0  0
  -14.4379    7.3366   -1.2072 N   0  0  0  0  0  0  0  0  0  0  0  0
  -15.7339    7.3668   -1.4713 N   0  0  0  0  0  0  0  0  0  0  0  0
  -20.2464    8.9137   -2.4075 O   0  0  0  0  0  0  0  0  0  0  0  0
  -20.7063    8.6663   -5.4424 O   0  0  0  0  0  0  0  0  0  0  0  0
  -17.5472    7.6128   -3.5929 O   0  0  0  0  0  0  0  0  0  0  0  0
   -8.6401   10.2160   -0.0169 O   0  0  0  0  0  0  0  0  0  0  0  0
  -18.1080    8.6608    0.4361 O   0  0  0  0  0  0  0  0  0  0  0  0
  -20.9461    9.0856    0.1486 S   0  0  0  0  0  0  0  0  0  0  0  0
 10  1  1  6
  1 30  1  0
  2 13  2  0
 14  2  1  0
  2 27  1  0
 15  3  2  0
  3 16  1  0
  3 23  1  0
  5  4  1  0
  6  5  2  0
  5 21  1  0
  7  6  1  0
  8  7  2  0
  8 20  1  0
 34  8  1  0
 19  9  1  0
  9 29  1  0
  9 34  1  1
 11 10  1  0
 10 29  1  0
 12 11  1  0
 11 31  1  1
 12 19  1  0
 12 26  1  6
 13 26  1  0
 14 15  1  0
 14 18  2  0
 15 22  1  0
 16 17  2  0
 16 32  1  0
 17 18  1  0
 17 24  1  0
 18 25  1  0
 19 33  1  1
 20 21  2  0
 26 28  1  0
 27 28  2  0
M  END
$$$$
