
     RDKit          3D

 34 37  0  0  0  0  0  0  0  0999 V2000
  -18.9707    6.9312    0.3931 C   0  0  0  0  0  0  0  0  0  0  0  0
  -13.7447    9.4113   -1.8973 C   0  0  0  0  0  0  0  0  0  0  0  0
  -10.0831    8.9740   -1.1439 C   0  0  0  0  0  0  0  0  0  0  0  0
  -26.2600    8.0913   -1.5821 C   0  0  0  0  0  0  0  0  0  0  0  0
  -24.8978    8.6171   -1.8597 C   0  0  0  0  0  0  0  0  0  0  0  0
  -23.9359    7.7830   -2.3883 C   0  0  0  0  0  0  0  0  0  0  0  0
  -22.6837    8.3045   -2.6330 C   0  0  0  0  0  0  0  0  0  0  0  0
  -22.4302    9.6268   -2.3468 C   0  0  0  0  0  0  0  0  0  0  0  0
  -19.5714    9.0826   -2.4179 C   0  0  1  0  0  0  0  0  0  0  0  0
  -18.8741    7.3134   -1.0914 C   0  0  2  0  0  0  0  0  0  0  0  0
  -17.4706    7.5714   -1.4372 C   0  0  1  0  0  0  0  0  0  0  0  0
  -17.2305    8.6265   -2.4731 C   0  0  1  0  0  0  0  0  0  0  0  0
  -14.9423    8.7883   -1.5981 C   0  0  0  0  0  0  0  0  0  0  0  0
  -12.4688    9.3445   -1.1887 C   0  0  0  0  0  0  0  0  0  0  0  0
  -11.2845    9.0343   -1.8253 C   0  0  0  0  0  0  0  0  0  0  0  0
  -10.0173    9.2232    0.2105 C   0  0  0  0  0  0  0  0  0  0  0  0
  -11.1944    9.5343    0.8575 C   0  0  0  0  0  0  0  0  0  0  0  0
  -12.4013    9.5939    0.1681 C   0  0  0  0  0  0  0  0  0  0  0  0
  -18.2280    9.7598   -2.1951 C   0  0  1  0  0  0  0  0  0  0  0  0
  -23.3953   10.4571   -1.8183 C   0  0  0  0  0  0  0  0  0  0  0  0
  -24.6572    9.9476   -1.5673 C   0  0  0  0  0  0  0  0  0  0  0  0
  -11.3275    8.7888   -3.1414 F   0  0  0  0  0  0  0  0  0  0  0  0
   -8.9145    8.6675   -1.7742 F   0  0  0  0  0  0  0  0  0  0  0  0
  -11.1280    9.7789    2.1884 F   0  0  0  0  0  0  0  0  0  0  0  0
  -13.5483    9.8996    0.8125 F   0  0  0  0  0  0  0  0  0  0  0  0
  -15.8828    9.1117   -2.5060 N   0  0  0  0  0  0  0  0  0  0  0  0
  -14.0169   10.1173   -3.0210 N   0  0  0  0  0  0  0  0  0  0  0  0
  -15.2813    9.9249   -3.3597 N   0  0  0  0  0  0  0  0  0  0  0  0
  -19.7971    8.2625   -1.3343 O   0  0  0  0  0  0  0  0  0  0  0  0
  -20.0167    6.0342    0.6092 O   0  0  0  0  0  0  0  0  0  0  0  0
  -16.7661    7.9427   -0.2886 O   0  0  0  0  0  0  0  0  0  0  0  0
   -8.7954    9.1561    0.8732 O   0  0  0  0  0  0  0  0  0  0  0  0
  -18.0117   10.7743   -3.1304 O   0  0  0  0  0  0  0  0  0  0  0  0
  -20.8207   10.3279   -2.6530 S   0  0  0  0  0  0  0  0  0  0  0  0
 10  1  1  1
  1 30  1  0
  2 13  2  0
 14  2  1  0
  2 27  1  0
 15  3  2  0
  3 16  1  0
  3 23  1  0
  5  4  1  0
  6  5  2  0
  5 21  1  0
  7  6  1  0
  8  7  2  0
  8 20  1  0
 34  8  1  0
 19  9  1  0
  9 29  1  0
  9 34  1  1
 11 10  1  0
 10 29  1  0
 12 11  1  0
 11 31  1  1
 12 19  1  0
 12 26  1  1
 13 26  1  0
 14 15  1  0
 14 18  2  0
 15 22  1  0
 16 17  2  0
 16 32  1  0
 17 18  1  0
 17 24  1  0
 18 25  1  0
 19 33  1  6
 20 21  2  0
 26 28  1  0
 27 28  2  0
M  END
$$$$
