
     RDKit          3D

 34 37  0  0  0  0  0  0  0  0999 V2000
  -19.7617    8.3343   -4.5815 C   0  0  0  0  0  0  0  0  0  0  0  0
  -14.1482    8.6276   -0.8484 C   0  0  0  0  0  0  0  0  0  0  0  0
  -10.4562    9.1075   -1.4004 C   0  0  0  0  0  0  0  0  0  0  0  0
  -25.5889   13.1331   -0.8032 C   0  0  0  0  0  0  0  0  0  0  0  0
  -24.5293   12.1167   -0.5723 C   0  0  0  0  0  0  0  0  0  0  0  0
  -24.7952   11.0160    0.2141 C   0  0  0  0  0  0  0  0  0  0  0  0
  -23.7891   10.0938    0.4066 C   0  0  0  0  0  0  0  0  0  0  0  0
  -22.5618   10.2936   -0.1835 C   0  0  0  0  0  0  0  0  0  0  0  0
  -19.9679    9.4038   -1.1602 C   0  0  1  0  0  0  0  0  0  0  0  0
  -19.4053    9.2547   -3.4046 C   0  0  2  0  0  0  0  0  0  0  0  0
  -17.9867    9.0846   -3.0660 C   0  0  1  0  0  0  0  0  0  0  0  0
  -17.6331    9.2298   -1.6176 C   0  0  1  0  0  0  0  0  0  0  0  0
  -15.2222    9.4258   -1.1969 C   0  0  0  0  0  0  0  0  0  0  0  0
  -12.7492    8.9995   -0.6512 C   0  0  0  0  0  0  0  0  0  0  0  0
  -11.7771    8.7508   -1.5984 C   0  0  0  0  0  0  0  0  0  0  0  0
  -10.0516    9.7315   -0.2395 C   0  0  0  0  0  0  0  0  0  0  0  0
  -11.0142    9.9853    0.7145 C   0  0  0  0  0  0  0  0  0  0  0  0
  -12.3424    9.6247    0.5113 C   0  0  0  0  0  0  0  0  0  0  0  0
  -18.7541    8.5550   -0.8148 C   0  0  1  0  0  0  0  0  0  0  0  0
  -22.3005   11.3958   -0.9691 C   0  0  0  0  0  0  0  0  0  0  0  0
  -23.3009   12.3303   -1.1714 C   0  0  0  0  0  0  0  0  0  0  0  0
  -12.1503    8.1452   -2.7335 F   0  0  0  0  0  0  0  0  0  0  0  0
   -9.4976    8.8611   -2.3369 F   0  0  0  0  0  0  0  0  0  0  0  0
  -10.6149   10.5985    1.8547 F   0  0  0  0  0  0  0  0  0  0  0  0
  -13.2768    9.8784    1.4530 F   0  0  0  0  0  0  0  0  0  0  0  0
  -16.3491    8.6930   -1.2769 N   0  0  0  0  0  0  0  0  0  0  0  0
  -14.6880    7.3911   -0.7255 N   0  0  0  0  0  0  0  0  0  0  0  0
  -15.9842    7.4552   -0.9826 N   0  0  0  0  0  0  0  0  0  0  0  0
  -20.3359    9.0807   -2.4478 O   0  0  0  0  0  0  0  0  0  0  0  0
  -20.9167    8.7758   -5.2267 O   0  0  0  0  0  0  0  0  0  0  0  0
  -17.5551    7.8210   -3.4789 O   0  0  0  0  0  0  0  0  0  0  0  0
   -8.7158   10.0804   -0.0646 O   0  0  0  0  0  0  0  0  0  0  0  0
  -18.4402    8.6500    0.5429 O   0  0  0  0  0  0  0  0  0  0  0  0
  -21.2427    9.1179    0.0480 S   0  0  0  0  0  0  0  0  0  0  0  0
 10  1  1  6
  1 30  1  0
  2 13  2  0
 14  2  1  0
  2 27  1  0
 15  3  2  0
  3 16  1  0
  3 23  1  0
  5  4  1  0
  6  5  2  0
  5 21  1  0
  7  6  1  0
  8  7  2  0
  8 20  1  0
 34  8  1  0
 19  9  1  0
  9 29  1  0
  9 34  1  1
 11 10  1  0
 10 29  1  0
 12 11  1  0
 11 31  1  1
 12 19  1  0
 12 26  1  6
 13 26  1  0
 14 15  1  0
 14 18  2  0
 15 22  1  0
 16 17  2  0
 16 32  1  0
 17 18  1  0
 17 24  1  0
 18 25  1  0
 19 33  1  1
 20 21  2  0
 26 28  1  0
 27 28  2  0
M  END
$$$$
