
     RDKit          3D

 34 37  0  0  0  0  0  0  0  0999 V2000
  -19.1248    6.4408    0.6357 C   0  0  0  0  0  0  0  0  0  0  0  0
  -14.0279    9.7229   -1.7799 C   0  0  0  0  0  0  0  0  0  0  0  0
  -10.6214    9.9030   -3.3703 C   0  0  0  0  0  0  0  0  0  0  0  0
  -26.1573    8.3856   -4.0595 C   0  0  0  0  0  0  0  0  0  0  0  0
  -24.9353    8.8635   -3.3613 C   0  0  0  0  0  0  0  0  0  0  0  0
  -24.2556    8.0164   -2.5123 C   0  0  0  0  0  0  0  0  0  0  0  0
  -23.1265    8.4930   -1.8818 C   0  0  0  0  0  0  0  0  0  0  0  0
  -22.7130    9.7853   -2.1134 C   0  0  0  0  0  0  0  0  0  0  0  0
  -19.9296    9.2509   -1.4493 C   0  0  1  0  0  0  0  0  0  0  0  0
  -19.0920    7.2296   -0.6818 C   0  0  2  0  0  0  0  0  0  0  0  0
  -17.7164    7.6648   -0.9542 C   0  0  1  0  0  0  0  0  0  0  0  0
  -17.5681    8.9815   -1.6531 C   0  0  1  0  0  0  0  0  0  0  0  0
  -15.1397    8.9339   -2.0111 C   0  0  0  0  0  0  0  0  0  0  0  0
  -12.6274    9.4590   -2.1017 C   0  0  0  0  0  0  0  0  0  0  0  0
  -11.9469   10.1618   -3.0747 C   0  0  0  0  0  0  0  0  0  0  0  0
   -9.9185    8.9243   -2.7002 C   0  0  0  0  0  0  0  0  0  0  0  0
  -10.5881    8.2152   -1.7256 C   0  0  0  0  0  0  0  0  0  0  0  0
  -11.9220    8.4788   -1.4312 C   0  0  0  0  0  0  0  0  0  0  0  0
  -18.6233    9.9241   -1.0575 C   0  0  1  0  0  0  0  0  0  0  0  0
  -23.3959   10.6288   -2.9633 C   0  0  0  0  0  0  0  0  0  0  0  0
  -24.5314   10.1642   -3.6034 C   0  0  0  0  0  0  0  0  0  0  0  0
  -12.6124   11.1170   -3.7372 F   0  0  0  0  0  0  0  0  0  0  0  0
   -9.9508   10.5980   -4.3315 F   0  0  0  0  0  0  0  0  0  0  0  0
   -9.8960    7.2539   -1.0680 F   0  0  0  0  0  0  0  0  0  0  0  0
  -12.5678    7.7778   -0.4743 F   0  0  0  0  0  0  0  0  0  0  0  0
  -16.2531    9.5429   -1.5609 N   0  0  0  0  0  0  0  0  0  0  0  0
  -14.5313   10.8248   -1.1736 N   0  0  0  0  0  0  0  0  0  0  0  0
  -15.8426   10.6954   -1.0558 N   0  0  0  0  0  0  0  0  0  0  0  0
  -20.0762    8.1468   -0.6386 O   0  0  0  0  0  0  0  0  0  0  0  0
  -20.1837    5.5331    0.6462 O   0  0  0  0  0  0  0  0  0  0  0  0
  -17.0039    7.7438    0.2456 O   0  0  0  0  0  0  0  0  0  0  0  0
   -8.5849    8.6832   -3.0166 O   0  0  0  0  0  0  0  0  0  0  0  0
  -18.4936   11.1720   -1.6711 O   0  0  0  0  0  0  0  0  0  0  0  0
  -21.2568   10.4283   -1.3121 S   0  0  0  0  0  0  0  0  0  0  0  0
 10  1  1  1
  1 30  1  0
  2 13  2  0
 14  2  1  0
  2 27  1  0
 15  3  2  0
  3 16  1  0
  3 23  1  0
  5  4  1  0
  6  5  2  0
  5 21  1  0
  7  6  1  0
  8  7  2  0
  8 20  1  0
 34  8  1  0
 19  9  1  0
  9 29  1  0
  9 34  1  1
 11 10  1  0
 10 29  1  0
 12 11  1  0
 11 31  1  1
 12 19  1  0
 12 26  1  1
 13 26  1  0
 14 15  1  0
 14 18  2  0
 15 22  1  0
 16 17  2  0
 16 32  1  0
 17 18  1  0
 17 24  1  0
 18 25  1  0
 19 33  1  6
 20 21  2  0
 26 28  1  0
 27 28  2  0
M  END
$$$$
