
     RDKit          3D

 34 37  0  0  0  0  0  0  0  0999 V2000
  -18.9967    6.0319    0.2544 C   0  0  0  0  0  0  0  0  0  0  0  0
  -13.5666    8.8238   -1.8617 C   0  0  0  0  0  0  0  0  0  0  0  0
  -10.3558   10.7013   -1.2854 C   0  0  0  0  0  0  0  0  0  0  0  0
  -25.9770    9.4464   -2.0529 C   0  0  0  0  0  0  0  0  0  0  0  0
  -24.5125    9.6880   -1.9746 C   0  0  0  0  0  0  0  0  0  0  0  0
  -23.7245    9.4873   -3.0878 C   0  0  0  0  0  0  0  0  0  0  0  0
  -22.3706    9.7212   -2.9790 C   0  0  0  0  0  0  0  0  0  0  0  0
  -21.8481   10.1433   -1.7776 C   0  0  0  0  0  0  0  0  0  0  0  0
  -19.1992    8.9380   -1.8444 C   0  0  1  0  0  0  0  0  0  0  0  0
  -18.8966    6.7661   -1.0910 C   0  0  2  0  0  0  0  0  0  0  0  0
  -17.4976    6.7773   -1.5364 C   0  0  1  0  0  0  0  0  0  0  0  0
  -17.0599    7.9873   -2.3036 C   0  0  1  0  0  0  0  0  0  0  0  0
  -14.9062    8.8692   -1.5218 C   0  0  0  0  0  0  0  0  0  0  0  0
  -12.4276    9.4634   -1.2073 C   0  0  0  0  0  0  0  0  0  0  0  0
  -11.4289   10.0995   -1.9159 C   0  0  0  0  0  0  0  0  0  0  0  0
  -10.2374   10.6910    0.0881 C   0  0  0  0  0  0  0  0  0  0  0  0
  -11.2293   10.0582    0.8069 C   0  0  0  0  0  0  0  0  0  0  0  0
  -12.3076    9.4539    0.1686 C   0  0  0  0  0  0  0  0  0  0  0  0
  -17.7164    9.2022   -1.6329 C   0  0  1  0  0  0  0  0  0  0  0  0
  -22.6401   10.3426   -0.6671 C   0  0  0  0  0  0  0  0  0  0  0  0
  -24.0013   10.1118   -0.7612 C   0  0  0  0  0  0  0  0  0  0  0  0
  -11.5258   10.1203   -3.2518 F   0  0  0  0  0  0  0  0  0  0  0  0
   -9.3705   11.3290   -1.9867 F   0  0  0  0  0  0  0  0  0  0  0  0
  -11.1115   10.0490    2.1566 F   0  0  0  0  0  0  0  0  0  0  0  0
  -13.2735    8.8369    0.8831 F   0  0  0  0  0  0  0  0  0  0  0  0
  -15.6376    8.1396   -2.3855 N   0  0  0  0  0  0  0  0  0  0  0  0
  -13.5369    8.0361   -2.9634 N   0  0  0  0  0  0  0  0  0  0  0  0
  -14.7676    7.6458   -3.2521 N   0  0  0  0  0  0  0  0  0  0  0  0
  -19.5600    7.9316   -0.9757 O   0  0  0  0  0  0  0  0  0  0  0  0
  -20.1096    5.1917    0.2814 O   0  0  0  0  0  0  0  0  0  0  0  0
  -16.6528    6.6536   -0.4298 O   0  0  0  0  0  0  0  0  0  0  0  0
   -9.1473   11.3040    0.6986 O   0  0  0  0  0  0  0  0  0  0  0  0
  -17.3060   10.3526   -2.3103 O   0  0  0  0  0  0  0  0  0  0  0  0
  -20.1014   10.4535   -1.6079 S   0  0  0  0  0  0  0  0  0  0  0  0
 10  1  1  1
  1 30  1  0
  2 13  2  0
 14  2  1  0
  2 27  1  0
 15  3  2  0
  3 16  1  0
  3 23  1  0
  5  4  1  0
  6  5  2  0
  5 21  1  0
  7  6  1  0
  8  7  2  0
  8 20  1  0
 34  8  1  0
 19  9  1  0
  9 29  1  0
  9 34  1  1
 11 10  1  0
 10 29  1  0
 12 11  1  0
 11 31  1  1
 12 19  1  0
 12 26  1  1
 13 26  1  0
 14 15  1  0
 14 18  2  0
 15 22  1  0
 16 17  2  0
 16 32  1  0
 17 18  1  0
 17 24  1  0
 18 25  1  0
 19 33  1  6
 20 21  2  0
 26 28  1  0
 27 28  2  0
M  END
$$$$
