
     RDKit          3D

 34 37  0  0  0  0  0  0  0  0999 V2000
  -19.0388    5.9132    0.2418 C   0  0  0  0  0  0  0  0  0  0  0  0
  -14.0908    9.3807   -2.0122 C   0  0  0  0  0  0  0  0  0  0  0  0
  -11.2564   11.7240   -1.2115 C   0  0  0  0  0  0  0  0  0  0  0  0
  -26.4742    9.1895   -0.8536 C   0  0  0  0  0  0  0  0  0  0  0  0
  -25.0179    9.4866   -0.8582 C   0  0  0  0  0  0  0  0  0  0  0  0
  -24.2106    8.9425   -1.8342 C   0  0  0  0  0  0  0  0  0  0  0  0
  -22.8649    9.2394   -1.8077 C   0  0  0  0  0  0  0  0  0  0  0  0
  -22.3693   10.0606   -0.8204 C   0  0  0  0  0  0  0  0  0  0  0  0
  -19.6797    9.0739   -1.3363 C   0  0  1  0  0  0  0  0  0  0  0  0
  -19.1543    6.8449   -0.9738 C   0  0  2  0  0  0  0  0  0  0  0  0
  -17.8262    7.0323   -1.5713 C   0  0  1  0  0  0  0  0  0  0  0  0
  -17.5627    8.3735   -2.1842 C   0  0  1  0  0  0  0  0  0  0  0  0
  -15.3738    9.2585   -1.5112 C   0  0  0  0  0  0  0  0  0  0  0  0
  -12.9103    9.9735   -1.3881 C   0  0  0  0  0  0  0  0  0  0  0  0
  -12.3740   11.1728   -1.8101 C   0  0  0  0  0  0  0  0  0  0  0  0
  -10.6258   11.0938   -0.1598 C   0  0  0  0  0  0  0  0  0  0  0  0
  -11.1527    9.8945    0.2707 C   0  0  0  0  0  0  0  0  0  0  0  0
  -12.2776    9.3433   -0.3344 C   0  0  0  0  0  0  0  0  0  0  0  0
  -18.2007    9.4197   -1.2594 C   0  0  1  0  0  0  0  0  0  0  0  0
  -23.1805   10.6023    0.1536 C   0  0  0  0  0  0  0  0  0  0  0  0
  -24.5337   10.3131    0.1398 C   0  0  0  0  0  0  0  0  0  0  0  0
  -12.9724   11.8009   -2.8308 F   0  0  0  0  0  0  0  0  0  0  0  0
  -10.7282   12.9085   -1.6295 F   0  0  0  0  0  0  0  0  0  0  0  0
  -10.5319    9.2765    1.3042 F   0  0  0  0  0  0  0  0  0  0  0  0
  -12.7849    8.1678    0.0958 F   0  0  0  0  0  0  0  0  0  0  0  0
  -16.1740    8.6479   -2.4057 N   0  0  0  0  0  0  0  0  0  0  0  0
  -14.1662    8.8162   -3.2414 N   0  0  0  0  0  0  0  0  0  0  0  0
  -15.4020    8.3925   -3.4500 N   0  0  0  0  0  0  0  0  0  0  0  0
  -19.8664    7.9243   -0.6006 O   0  0  0  0  0  0  0  0  0  0  0  0
  -20.0094    4.9126    0.1962 O   0  0  0  0  0  0  0  0  0  0  0  0
  -16.8422    6.8123   -0.6034 O   0  0  0  0  0  0  0  0  0  0  0  0
   -9.5022   11.6695    0.4256 O   0  0  0  0  0  0  0  0  0  0  0  0
  -17.9491   10.6867   -1.7906 O   0  0  0  0  0  0  0  0  0  0  0  0
  -20.6339   10.4616   -0.7616 S   0  0  0  0  0  0  0  0  0  0  0  0
 10  1  1  1
  1 30  1  0
  2 13  2  0
 14  2  1  0
  2 27  1  0
 15  3  2  0
  3 16  1  0
  3 23  1  0
  5  4  1  0
  6  5  2  0
  5 21  1  0
  7  6  1  0
  8  7  2  0
  8 20  1  0
 34  8  1  0
 19  9  1  0
  9 29  1  0
  9 34  1  1
 11 10  1  0
 10 29  1  0
 12 11  1  0
 11 31  1  1
 12 19  1  0
 12 26  1  1
 13 26  1  0
 14 15  1  0
 14 18  2  0
 15 22  1  0
 16 17  2  0
 16 32  1  0
 17 18  1  0
 17 24  1  0
 18 25  1  0
 19 33  1  6
 20 21  2  0
 26 28  1  0
 27 28  2  0
M  END
$$$$
