
     RDKit          3D

 34 37  0  0  0  0  0  0  0  0999 V2000
  -19.1131    6.4506    0.3349 C   0  0  0  0  0  0  0  0  0  0  0  0
  -13.5608    8.7657   -1.7321 C   0  0  0  0  0  0  0  0  0  0  0  0
  -11.2469    9.5664    1.1264 C   0  0  0  0  0  0  0  0  0  0  0  0
  -25.9902    9.4593   -1.9648 C   0  0  0  0  0  0  0  0  0  0  0  0
  -24.5312    9.7322   -2.0414 C   0  0  0  0  0  0  0  0  0  0  0  0
  -23.8727    9.6059   -3.2459 C   0  0  0  0  0  0  0  0  0  0  0  0
  -22.5197    9.8669   -3.2799 C   0  0  0  0  0  0  0  0  0  0  0  0
  -21.8705   10.2417   -2.1255 C   0  0  0  0  0  0  0  0  0  0  0  0
  -19.2118    9.0563   -2.1333 C   0  0  1  0  0  0  0  0  0  0  0  0
  -18.9485    7.0030   -1.0888 C   0  0  2  0  0  0  0  0  0  0  0  0
  -17.5300    6.9624   -1.4656 C   0  0  1  0  0  0  0  0  0  0  0  0
  -17.0547    8.0638   -2.3630 C   0  0  1  0  0  0  0  0  0  0  0  0
  -14.9050    8.7667   -1.4079 C   0  0  0  0  0  0  0  0  0  0  0  0
  -12.4260    9.2652   -0.9592 C   0  0  0  0  0  0  0  0  0  0  0  0
  -12.3258    9.0891    0.4057 C   0  0  0  0  0  0  0  0  0  0  0  0
  -10.2180   10.2434    0.5070 C   0  0  0  0  0  0  0  0  0  0  0  0
  -10.3070   10.4255   -0.8568 C   0  0  0  0  0  0  0  0  0  0  0  0
  -11.3945    9.9437   -1.5784 C   0  0  0  0  0  0  0  0  0  0  0  0
  -17.7404    9.3528   -1.8888 C   0  0  1  0  0  0  0  0  0  0  0  0
  -22.5332   10.3666   -0.9232 C   0  0  0  0  0  0  0  0  0  0  0  0
  -23.8917   10.1078   -0.8737 C   0  0  0  0  0  0  0  0  0  0  0  0
  -13.3157    8.4337    1.0261 F   0  0  0  0  0  0  0  0  0  0  0  0
  -11.1496    9.3916    2.4742 F   0  0  0  0  0  0  0  0  0  0  0  0
   -9.2951   11.0910   -1.4640 F   0  0  0  0  0  0  0  0  0  0  0  0
  -11.4710   10.1279   -2.9142 F   0  0  0  0  0  0  0  0  0  0  0  0
  -15.6300    8.2107   -2.3972 N   0  0  0  0  0  0  0  0  0  0  0  0
  -13.5215    8.1854   -2.9556 N   0  0  0  0  0  0  0  0  0  0  0  0
  -14.7513    7.8676   -3.3257 N   0  0  0  0  0  0  0  0  0  0  0  0
  -19.6148    8.1705   -1.1583 O   0  0  0  0  0  0  0  0  0  0  0  0
  -20.4100    5.9797    0.5393 O   0  0  0  0  0  0  0  0  0  0  0  0
  -16.7386    6.9884   -0.3138 O   0  0  0  0  0  0  0  0  0  0  0  0
   -9.1429   10.7139    1.2551 O   0  0  0  0  0  0  0  0  0  0  0  0
  -17.2967   10.4066   -2.6908 O   0  0  0  0  0  0  0  0  0  0  0  0
  -20.1219   10.5854   -2.1399 S   0  0  0  0  0  0  0  0  0  0  0  0
 10  1  1  1
  1 30  1  0
  2 13  2  0
 14  2  1  0
  2 27  1  0
 15  3  2  0
  3 16  1  0
  3 23  1  0
  5  4  1  0
  6  5  2  0
  5 21  1  0
  7  6  1  0
  8  7  2  0
  8 20  1  0
 34  8  1  0
 19  9  1  0
  9 29  1  0
  9 34  1  1
 11 10  1  0
 10 29  1  0
 12 11  1  0
 11 31  1  1
 12 19  1  0
 12 26  1  1
 13 26  1  0
 14 15  1  0
 14 18  2  0
 15 22  1  0
 16 17  2  0
 16 32  1  0
 17 18  1  0
 17 24  1  0
 18 25  1  0
 19 33  1  6
 20 21  2  0
 26 28  1  0
 27 28  2  0
M  END
$$$$
