
     RDKit          3D

 34 37  0  0  0  0  0  0  0  0999 V2000
  -19.2838    8.5971   -4.9698 C   0  0  0  0  0  0  0  0  0  0  0  0
  -13.8766    8.4687   -0.8990 C   0  0  0  0  0  0  0  0  0  0  0  0
  -10.1831    9.1920   -0.9330 C   0  0  0  0  0  0  0  0  0  0  0  0
  -25.4066   12.3011   -0.1805 C   0  0  0  0  0  0  0  0  0  0  0  0
  -24.3327   11.2741   -0.2137 C   0  0  0  0  0  0  0  0  0  0  0  0
  -24.5866   10.0018    0.2521 C   0  0  0  0  0  0  0  0  0  0  0  0
  -23.5674    9.0750    0.2062 C   0  0  0  0  0  0  0  0  0  0  0  0
  -22.3392    9.4398   -0.2970 C   0  0  0  0  0  0  0  0  0  0  0  0
  -19.7091    8.8896   -1.4166 C   0  0  1  0  0  0  0  0  0  0  0  0
  -19.0487    9.2658   -3.6071 C   0  0  2  0  0  0  0  0  0  0  0  0
  -17.6355    9.1266   -3.2340 C   0  0  1  0  0  0  0  0  0  0  0  0
  -17.3517    8.9816   -1.7702 C   0  0  1  0  0  0  0  0  0  0  0  0
  -15.0022    9.2441   -1.1077 C   0  0  0  0  0  0  0  0  0  0  0  0
  -12.5362    8.8813   -0.4893 C   0  0  0  0  0  0  0  0  0  0  0  0
  -11.4468    8.7984   -1.3321 C   0  0  0  0  0  0  0  0  0  0  0  0
   -9.9565    9.6876    0.3335 C   0  0  0  0  0  0  0  0  0  0  0  0
  -11.0376    9.7751    1.1847 C   0  0  0  0  0  0  0  0  0  0  0  0
  -12.3077    9.3780    0.7791 C   0  0  0  0  0  0  0  0  0  0  0  0
  -18.4457    8.0734   -1.1915 C   0  0  1  0  0  0  0  0  0  0  0  0
  -22.0900   10.7134   -0.7617 C   0  0  0  0  0  0  0  0  0  0  0  0
  -23.1036   11.6546   -0.7218 C   0  0  0  0  0  0  0  0  0  0  0  0
  -11.6464    8.3194   -2.5670 F   0  0  0  0  0  0  0  0  0  0  0  0
   -9.1084    9.1095   -1.7666 F   0  0  0  0  0  0  0  0  0  0  0  0
  -10.8132   10.2623    2.4288 F   0  0  0  0  0  0  0  0  0  0  0  0
  -13.3595    9.4682    1.6217 F   0  0  0  0  0  0  0  0  0  0  0  0
  -16.0432    8.4752   -1.4800 N   0  0  0  0  0  0  0  0  0  0  0  0
  -14.2961    7.2081   -1.1637 N   0  0  0  0  0  0  0  0  0  0  0  0
  -15.5744    7.2377   -1.5033 N   0  0  0  0  0  0  0  0  0  0  0  0
  -19.9992    8.8258   -2.7618 O   0  0  0  0  0  0  0  0  0  0  0  0
  -20.5006    9.0006   -5.5190 O   0  0  0  0  0  0  0  0  0  0  0  0
  -17.0881    8.0145   -3.8799 O   0  0  0  0  0  0  0  0  0  0  0  0
   -8.6748   10.0770    0.7108 O   0  0  0  0  0  0  0  0  0  0  0  0
  -18.1939    7.8963    0.1708 O   0  0  0  0  0  0  0  0  0  0  0  0
  -21.0033    8.2624   -0.3686 S   0  0  0  0  0  0  0  0  0  0  0  0
 10  1  1  6
  1 30  1  0
  2 13  2  0
 14  2  1  0
  2 27  1  0
 15  3  2  0
  3 16  1  0
  3 23  1  0
  5  4  1  0
  6  5  2  0
  5 21  1  0
  7  6  1  0
  8  7  2  0
  8 20  1  0
 34  8  1  0
 19  9  1  0
  9 29  1  0
  9 34  1  1
 11 10  1  0
 10 29  1  0
 12 11  1  0
 11 31  1  6
 12 19  1  0
 12 26  1  6
 13 26  1  0
 14 15  1  0
 14 18  2  0
 15 22  1  0
 16 17  2  0
 16 32  1  0
 17 18  1  0
 17 24  1  0
 18 25  1  0
 19 33  1  1
 20 21  2  0
 26 28  1  0
 27 28  2  0
M  END
$$$$
