
     RDKit          3D

 34 38  0  0  0  0  0  0  0  0999 V2000
   25.8291   -6.0204   11.4220 N   0  0  0  0  0  0  0  0  0  0  0  0
   26.2166   -4.6781   11.6679 C   0  0  0  0  0  0  0  0  0  0  0  0
   25.5801   -4.0179   12.5153 O   0  0  0  0  0  0  0  0  0  0  0  0
   27.3288   -4.1262   10.9323 C   0  0  0  0  0  0  0  0  0  0  0  0
   26.7609   -8.5651    9.3315 C   0  0  0  0  0  0  0  0  0  0  0  0
   25.7888   -9.4827    9.6648 C   0  0  0  0  0  0  0  0  0  0  0  0
   25.6834  -10.6905    9.0084 C   0  0  0  0  0  0  0  0  0  0  0  0
   24.6537  -11.6530    9.3802 C   0  0  0  0  0  0  0  0  0  0  0  0
   27.7763   -2.8381   11.1394 C   0  0  0  0  0  0  0  0  0  0  0  0
   28.8347   -2.2923   10.4451 C   0  0  0  0  0  0  0  0  0  0  0  0
   29.4798   -3.0684    9.4971 C   0  0  0  0  0  0  0  0  0  0  0  0
   29.0220   -4.3716    9.2922 C   0  0  0  0  0  0  0  0  0  0  0  0
   29.4832   -5.4174    8.3827 C   0  0  0  0  0  0  0  0  0  0  0  0
   28.6491   -6.5852    8.5800 C   0  0  0  0  0  0  0  0  0  0  0  0
   28.6647   -7.7635    8.0041 C   0  0  0  0  0  0  0  0  0  0  0  0
   27.6932   -8.7979    8.3166 C   0  0  0  0  0  0  0  0  0  0  0  0
   24.6134  -12.9967    8.9741 N   0  0  0  0  0  0  0  0  0  0  0  0
   30.4290   -5.3165    7.5833 O   0  0  0  0  0  0  0  0  0  0  0  0
   23.7236  -11.2518   10.1257 O   0  0  0  0  0  0  0  0  0  0  0  0
   23.5435  -13.9129    9.2809 C   0  0  0  0  0  0  0  0  0  0  0  0
   22.5127  -13.8599    8.1801 C   0  0  0  0  0  0  0  0  0  0  0  0
   23.2020  -14.1056    6.8684 C   0  0  0  0  0  0  0  0  0  0  0  0
   23.7303  -15.2783    6.4771 N   0  0  0  0  0  0  0  0  0  0  0  0
   24.2520  -15.1042    5.2506 C   0  0  0  0  0  0  0  0  0  0  0  0
   24.9091  -15.9723    4.3893 C   0  0  0  0  0  0  0  0  0  0  0  0
   25.3498  -15.5250    3.1620 C   0  0  0  0  0  0  0  0  0  0  0  0
   25.1524  -14.2195    2.7615 C   0  0  0  0  0  0  0  0  0  0  0  0
   24.5005  -13.3502    3.6112 C   0  0  0  0  0  0  0  0  0  0  0  0
   24.0523  -13.7931    4.8519 C   0  0  0  0  0  0  0  0  0  0  0  0
   23.4026  -13.2173    5.8796 N   0  0  0  0  0  0  0  0  0  0  0  0
   26.5968  -10.9306    8.0051 C   0  0  0  0  0  0  0  0  0  0  0  0
   27.5890  -10.0030    7.6586 C   0  0  0  0  0  0  0  0  0  0  0  0
   27.7357   -6.2047    9.5824 O   0  0  0  0  0  0  0  0  0  0  0  0
   27.9685   -4.9059    9.9875 C   0  0  0  0  0  0  0  0  0  0  0  0
  2  1  1  0
  2  3  2  0
  4  2  1  0
  4  9  2  0
 34  4  1  0
  5  6  2  0
 16  5  1  0
  6  7  1  0
  7  8  1  0
  7 31  2  0
  8 17  1  0
  8 19  2  0
 10  9  1  0
 11 10  2  0
 12 11  1  0
 13 12  1  0
 12 34  2  0
 14 13  1  0
 13 18  2  0
 15 14  2  3
 14 33  1  0
 15 16  1  0
 16 32  2  0
 17 20  1  0
 20 21  1  0
 21 22  1  0
 22 23  2  0
 22 30  1  0
 23 24  1  0
 24 25  2  0
 24 29  1  0
 25 26  1  0
 26 27  2  0
 27 28  1  0
 28 29  2  0
 29 30  1  0
 31 32  1  0
 33 34  1  0
M  END
$$$$
