
     RDKit          3D

 34 38  0  0  0  0  0  0  0  0999 V2000
   25.3270   -5.4119   11.3442 N   0  0  0  0  0  0  0  0  0  0  0  0
   25.9332   -4.1797   11.7002 C   0  0  0  0  0  0  0  0  0  0  0  0
   25.4234   -3.5066   12.6200 O   0  0  0  0  0  0  0  0  0  0  0  0
   27.1131   -3.7506   10.9887 C   0  0  0  0  0  0  0  0  0  0  0  0
   26.0008   -8.8484    6.8282 C   0  0  0  0  0  0  0  0  0  0  0  0
   25.2280   -9.9396    7.1601 C   0  0  0  0  0  0  0  0  0  0  0  0
   25.0487  -10.3225    8.4724 C   0  0  0  0  0  0  0  0  0  0  0  0
   24.2206  -11.4750    8.8055 C   0  0  0  0  0  0  0  0  0  0  0  0
   27.8504   -2.6553   11.3877 C   0  0  0  0  0  0  0  0  0  0  0  0
   28.9782   -2.2283   10.7200 C   0  0  0  0  0  0  0  0  0  0  0  0
   29.3925   -2.9272    9.5988 C   0  0  0  0  0  0  0  0  0  0  0  0
   28.6418   -4.0351    9.2001 C   0  0  0  0  0  0  0  0  0  0  0  0
   28.8170   -4.9598    8.0830 C   0  0  0  0  0  0  0  0  0  0  0  0
   27.7465   -5.9342    8.1333 C   0  0  0  0  0  0  0  0  0  0  0  0
   27.4707   -6.9535    7.3552 C   0  0  0  0  0  0  0  0  0  0  0  0
   26.6457   -8.0675    7.7912 C   0  0  0  0  0  0  0  0  0  0  0  0
   23.4390  -12.2038    7.8946 N   0  0  0  0  0  0  0  0  0  0  0  0
   29.7297   -4.9136    7.2412 O   0  0  0  0  0  0  0  0  0  0  0  0
   24.2019  -11.8511   10.0055 O   0  0  0  0  0  0  0  0  0  0  0  0
   22.6561  -13.3657    8.2340 C   0  0  0  0  0  0  0  0  0  0  0  0
   22.8813  -14.4375    7.1958 C   0  0  0  0  0  0  0  0  0  0  0  0
   24.3590  -14.5739    6.9633 C   0  0  0  0  0  0  0  0  0  0  0  0
   25.0033  -14.2203    5.8376 N   0  0  0  0  0  0  0  0  0  0  0  0
   26.3089  -14.4894    6.0105 C   0  0  0  0  0  0  0  0  0  0  0  0
   27.4091  -14.3231    5.1804 C   0  0  0  0  0  0  0  0  0  0  0  0
   28.6646  -14.6893    5.6166 C   0  0  0  0  0  0  0  0  0  0  0  0
   28.8593  -15.2240    6.8735 C   0  0  0  0  0  0  0  0  0  0  0  0
   27.7716  -15.3927    7.7047 C   0  0  0  0  0  0  0  0  0  0  0  0
   26.5007  -15.0258    7.2728 C   0  0  0  0  0  0  0  0  0  0  0  0
   25.2729  -15.0587    7.8217 N   0  0  0  0  0  0  0  0  0  0  0  0
   25.6807   -9.5604    9.4306 C   0  0  0  0  0  0  0  0  0  0  0  0
   26.4692   -8.4488    9.1025 C   0  0  0  0  0  0  0  0  0  0  0  0
   26.9830   -5.5662    9.2582 O   0  0  0  0  0  0  0  0  0  0  0  0
   27.5214   -4.4524    9.8705 C   0  0  0  0  0  0  0  0  0  0  0  0
  2  1  1  0
  2  3  2  0
  4  2  1  0
  4  9  2  0
 34  4  1  0
  5  6  2  0
 16  5  1  0
  6  7  1  0
  7  8  1  0
  7 31  2  0
  8 17  1  0
  8 19  2  0
 10  9  1  0
 11 10  2  0
 12 11  1  0
 13 12  1  0
 12 34  2  0
 14 13  1  0
 13 18  2  0
 15 14  2  3
 14 33  1  0
 15 16  1  0
 16 32  2  0
 17 20  1  0
 20 21  1  0
 21 22  1  0
 22 23  2  0
 22 30  1  0
 23 24  1  0
 24 25  2  0
 24 29  1  0
 25 26  1  0
 26 27  2  0
 27 28  1  0
 28 29  2  0
 29 30  1  0
 31 32  1  0
 33 34  1  0
M  END
$$$$
