
     RDKit          3D

 34 38  0  0  0  0  0  0  0  0999 V2000
   28.7039   -6.2715    8.3944 N   0  0  0  0  0  0  0  0  0  0  0  0
   29.4009   -5.0696    8.6807 C   0  0  0  0  0  0  0  0  0  0  0  0
   30.3893   -4.7702    7.9790 O   0  0  0  0  0  0  0  0  0  0  0  0
   28.9436   -4.2394    9.7689 C   0  0  0  0  0  0  0  0  0  0  0  0
   24.4718   -9.0083   11.5110 C   0  0  0  0  0  0  0  0  0  0  0  0
   24.5587  -10.3108   11.0707 C   0  0  0  0  0  0  0  0  0  0  0  0
   25.4209  -10.6724   10.0575 C   0  0  0  0  0  0  0  0  0  0  0  0
   25.5056  -12.0572    9.6102 C   0  0  0  0  0  0  0  0  0  0  0  0
   29.5839   -3.0677   10.1146 C   0  0  0  0  0  0  0  0  0  0  0  0
   29.1642   -2.2629   11.1521 C   0  0  0  0  0  0  0  0  0  0  0  0
   28.0509   -2.6442   11.8818 C   0  0  0  0  0  0  0  0  0  0  0  0
   27.4072   -3.8314   11.5268 C   0  0  0  0  0  0  0  0  0  0  0  0
   26.2316   -4.4898   12.0908 C   0  0  0  0  0  0  0  0  0  0  0  0
   25.9918   -5.7042   11.3387 C   0  0  0  0  0  0  0  0  0  0  0  0
   25.0676   -6.6268   11.4619 C   0  0  0  0  0  0  0  0  0  0  0  0
   25.2448   -7.9804   10.9640 C   0  0  0  0  0  0  0  0  0  0  0  0
   25.5066  -12.4794    8.2709 N   0  0  0  0  0  0  0  0  0  0  0  0
   25.5579   -4.0732   13.0481 O   0  0  0  0  0  0  0  0  0  0  0  0
   25.5847  -12.9502   10.4923 O   0  0  0  0  0  0  0  0  0  0  0  0
   24.3824  -13.0860    7.6029 C   0  0  0  0  0  0  0  0  0  0  0  0
   24.7777  -14.4561    7.1091 C   0  0  0  0  0  0  0  0  0  0  0  0
   24.4254  -15.4642    8.1654 C   0  0  0  0  0  0  0  0  0  0  0  0
   23.1983  -15.9718    8.3751 N   0  0  0  0  0  0  0  0  0  0  0  0
   23.2829  -16.8399    9.3979 C   0  0  0  0  0  0  0  0  0  0  0  0
   22.3315  -17.6359   10.0213 C   0  0  0  0  0  0  0  0  0  0  0  0
   22.6955  -18.4536   11.0698 C   0  0  0  0  0  0  0  0  0  0  0  0
   23.9979  -18.5025   11.5224 C   0  0  0  0  0  0  0  0  0  0  0  0
   24.9495  -17.7148   10.9088 C   0  0  0  0  0  0  0  0  0  0  0  0
   24.5911  -16.8864    9.8496 C   0  0  0  0  0  0  0  0  0  0  0  0
   25.2571  -16.0235    9.0612 N   0  0  0  0  0  0  0  0  0  0  0  0
   26.1875   -9.6669    9.5099 C   0  0  0  0  0  0  0  0  0  0  0  0
   26.1057   -8.3389    9.9509 C   0  0  0  0  0  0  0  0  0  0  0  0
   27.0125   -5.7292   10.3684 O   0  0  0  0  0  0  0  0  0  0  0  0
   27.8319   -4.6254   10.4933 C   0  0  0  0  0  0  0  0  0  0  0  0
  2  1  1  0
  2  3  2  0
  4  2  1  0
  4  9  2  0
 34  4  1  0
  5  6  2  0
 16  5  1  0
  6  7  1  0
  7  8  1  0
  7 31  2  0
  8 17  1  0
  8 19  2  0
 10  9  1  0
 11 10  2  0
 12 11  1  0
 13 12  1  0
 12 34  2  0
 14 13  1  0
 13 18  2  0
 15 14  2  3
 14 33  1  0
 15 16  1  0
 16 32  2  0
 17 20  1  0
 20 21  1  0
 21 22  1  0
 22 23  2  0
 22 30  1  0
 23 24  1  0
 24 25  2  0
 24 29  1  0
 25 26  1  0
 26 27  2  0
 27 28  1  0
 28 29  2  0
 29 30  1  0
 31 32  1  0
 33 34  1  0
M  END
$$$$
