
     RDKit          3D

 34 38  0  0  0  0  0  0  0  0999 V2000
   26.0977   -6.0160   10.9570 N   0  0  0  0  0  0  0  0  0  0  0  0
   26.3200   -4.7257   11.5029 C   0  0  0  0  0  0  0  0  0  0  0  0
   25.5299   -4.2998   12.3710 O   0  0  0  0  0  0  0  0  0  0  0  0
   27.4474   -3.9549   11.0369 C   0  0  0  0  0  0  0  0  0  0  0  0
   28.2631   -8.4153    8.4408 C   0  0  0  0  0  0  0  0  0  0  0  0
   27.5436   -9.5786    8.6054 C   0  0  0  0  0  0  0  0  0  0  0  0
   26.7565  -10.0876    7.5945 C   0  0  0  0  0  0  0  0  0  0  0  0
   26.0086  -11.3244    7.7837 C   0  0  0  0  0  0  0  0  0  0  0  0
   27.8516   -2.7957   11.6657 C   0  0  0  0  0  0  0  0  0  0  0  0
   28.9238   -2.0445   11.2342 C   0  0  0  0  0  0  0  0  0  0  0  0
   29.6289   -2.4690   10.1207 C   0  0  0  0  0  0  0  0  0  0  0  0
   29.2146   -3.6433    9.4886 C   0  0  0  0  0  0  0  0  0  0  0  0
   29.7414   -4.3379    8.3166 C   0  0  0  0  0  0  0  0  0  0  0  0
   28.9308   -5.5167    8.0901 C   0  0  0  0  0  0  0  0  0  0  0  0
   29.0018   -6.4486    7.1698 C   0  0  0  0  0  0  0  0  0  0  0  0
   28.2413   -7.6842    7.2499 C   0  0  0  0  0  0  0  0  0  0  0  0
   25.1055  -11.8766    6.8609 N   0  0  0  0  0  0  0  0  0  0  0  0
   30.7173   -3.9757    7.6382 O   0  0  0  0  0  0  0  0  0  0  0  0
   26.1835  -11.9518    8.8596 O   0  0  0  0  0  0  0  0  0  0  0  0
   24.0914  -12.8474    7.1885 C   0  0  0  0  0  0  0  0  0  0  0  0
   24.6003  -13.7459    8.2890 C   0  0  0  0  0  0  0  0  0  0  0  0
   24.1717  -13.1729    9.6096 C   0  0  0  0  0  0  0  0  0  0  0  0
   24.9927  -12.8904   10.6360 N   0  0  0  0  0  0  0  0  0  0  0  0
   24.2438  -12.3929   11.6353 C   0  0  0  0  0  0  0  0  0  0  0  0
   24.5727  -11.9430   12.9068 C   0  0  0  0  0  0  0  0  0  0  0  0
   23.5877  -11.4721   13.7486 C   0  0  0  0  0  0  0  0  0  0  0  0
   22.2656  -11.4357   13.3556 C   0  0  0  0  0  0  0  0  0  0  0  0
   21.9301  -11.8809   12.0940 C   0  0  0  0  0  0  0  0  0  0  0  0
   22.9178  -12.3578   11.2375 C   0  0  0  0  0  0  0  0  0  0  0  0
   22.9225  -12.8475    9.9846 N   0  0  0  0  0  0  0  0  0  0  0  0
   26.7265   -9.3746    6.4158 C   0  0  0  0  0  0  0  0  0  0  0  0
   27.4547   -8.1899    6.2391 C   0  0  0  0  0  0  0  0  0  0  0  0
   27.9659   -5.4874    9.1159 O   0  0  0  0  0  0  0  0  0  0  0  0
   28.1470   -4.3839    9.9250 C   0  0  0  0  0  0  0  0  0  0  0  0
  2  1  1  0
  2  3  2  0
  4  2  1  0
  4  9  2  0
 34  4  1  0
  5  6  2  0
 16  5  1  0
  6  7  1  0
  7  8  1  0
  7 31  2  0
  8 17  1  0
  8 19  2  0
 10  9  1  0
 11 10  2  0
 12 11  1  0
 13 12  1  0
 12 34  2  0
 14 13  1  0
 13 18  2  0
 15 14  2  3
 14 33  1  0
 15 16  1  0
 16 32  2  0
 17 20  1  0
 20 21  1  0
 21 22  1  0
 22 23  2  0
 22 30  1  0
 23 24  1  0
 24 25  2  0
 24 29  1  0
 25 26  1  0
 26 27  2  0
 27 28  1  0
 28 29  2  0
 29 30  1  0
 31 32  1  0
 33 34  1  0
M  END
$$$$
