
     RDKit          3D

 34 38  0  0  0  0  0  0  0  0999 V2000
   25.7977   -5.8874   10.5658 N   0  0  0  0  0  0  0  0  0  0  0  0
   25.9713   -4.5194   10.8987 C   0  0  0  0  0  0  0  0  0  0  0  0
   25.1057   -3.9616   11.6048 O   0  0  0  0  0  0  0  0  0  0  0  0
   27.1383   -3.8246   10.4109 C   0  0  0  0  0  0  0  0  0  0  0  0
   27.4138   -8.0087    7.3204 C   0  0  0  0  0  0  0  0  0  0  0  0
   26.4434   -8.9525    7.0642 C   0  0  0  0  0  0  0  0  0  0  0  0
   26.6409  -10.2856    7.3550 C   0  0  0  0  0  0  0  0  0  0  0  0
   25.5995  -11.2692    7.0849 C   0  0  0  0  0  0  0  0  0  0  0  0
   27.3383   -2.4794   10.6406 C   0  0  0  0  0  0  0  0  0  0  0  0
   28.4446   -1.7976   10.1808 C   0  0  0  0  0  0  0  0  0  0  0  0
   29.3996   -2.4903    9.4559 C   0  0  0  0  0  0  0  0  0  0  0  0
   29.1912   -3.8520    9.2269 C   0  0  0  0  0  0  0  0  0  0  0  0
   29.9981   -4.8381    8.5126 C   0  0  0  0  0  0  0  0  0  0  0  0
   29.3131   -6.1127    8.5785 C   0  0  0  0  0  0  0  0  0  0  0  0
   29.6307   -7.2887    8.0921 C   0  0  0  0  0  0  0  0  0  0  0  0
   28.6482   -8.3393    7.8861 C   0  0  0  0  0  0  0  0  0  0  0  0
   24.9077  -11.4068    5.8706 N   0  0  0  0  0  0  0  0  0  0  0  0
   31.0836   -4.6154    7.9507 O   0  0  0  0  0  0  0  0  0  0  0  0
   25.2924  -12.0617    8.0120 O   0  0  0  0  0  0  0  0  0  0  0  0
   23.7691  -12.2679    5.6701 C   0  0  0  0  0  0  0  0  0  0  0  0
   22.8057  -11.6043    4.7168 C   0  0  0  0  0  0  0  0  0  0  0  0
   21.9780  -10.6149    5.4863 C   0  0  0  0  0  0  0  0  0  0  0  0
   22.0821   -9.2777    5.3937 N   0  0  0  0  0  0  0  0  0  0  0  0
   21.1774   -8.7372    6.2281 C   0  0  0  0  0  0  0  0  0  0  0  0
   20.8582   -7.4189    6.5238 C   0  0  0  0  0  0  0  0  0  0  0  0
   19.8652   -7.1374    7.4378 C   0  0  0  0  0  0  0  0  0  0  0  0
   19.1707   -8.1450    8.0752 C   0  0  0  0  0  0  0  0  0  0  0  0
   19.4815   -9.4576    7.7872 C   0  0  0  0  0  0  0  0  0  0  0  0
   20.4824   -9.7510    6.8659 C   0  0  0  0  0  0  0  0  0  0  0  0
   21.0097  -10.8883    6.3777 N   0  0  0  0  0  0  0  0  0  0  0  0
   27.8549  -10.6235    7.9123 C   0  0  0  0  0  0  0  0  0  0  0  0
   28.8484   -9.6704    8.1761 C   0  0  0  0  0  0  0  0  0  0  0  0
   28.1429   -5.8499    9.3170 O   0  0  0  0  0  0  0  0  0  0  0  0
   28.0878   -4.5216    9.6882 C   0  0  0  0  0  0  0  0  0  0  0  0
  2  1  1  0
  2  3  2  0
  4  2  1  0
  4  9  2  0
 34  4  1  0
  5  6  2  0
 16  5  1  0
  6  7  1  0
  7  8  1  0
  7 31  2  0
  8 17  1  0
  8 19  2  0
 10  9  1  0
 11 10  2  0
 12 11  1  0
 13 12  1  0
 12 34  2  0
 14 13  1  0
 13 18  2  0
 15 14  2  3
 14 33  1  0
 15 16  1  0
 16 32  2  0
 17 20  1  0
 20 21  1  0
 21 22  1  0
 22 23  2  0
 22 30  1  0
 23 24  1  0
 24 25  2  0
 24 29  1  0
 25 26  1  0
 26 27  2  0
 27 28  1  0
 28 29  2  0
 29 30  1  0
 31 32  1  0
 33 34  1  0
M  END
$$$$
