
     RDKit          3D

 34 38  0  0  0  0  0  0  0  0999 V2000
   26.1593   -5.9183   11.2867 N   0  0  0  0  0  0  0  0  0  0  0  0
   26.6080   -4.6573   11.7566 C   0  0  0  0  0  0  0  0  0  0  0  0
   25.9390   -4.0742   12.6349 O   0  0  0  0  0  0  0  0  0  0  0  0
   27.8174   -4.0962   11.2043 C   0  0  0  0  0  0  0  0  0  0  0  0
   26.7781   -7.9061    8.4914 C   0  0  0  0  0  0  0  0  0  0  0  0
   25.7465   -8.8096    8.6238 C   0  0  0  0  0  0  0  0  0  0  0  0
   25.7725  -10.0309    7.9847 C   0  0  0  0  0  0  0  0  0  0  0  0
   24.6757  -10.9780    8.1432 C   0  0  0  0  0  0  0  0  0  0  0  0
   28.3877   -2.9463   11.7090 C   0  0  0  0  0  0  0  0  0  0  0  0
   29.5406   -2.3936   11.1936 C   0  0  0  0  0  0  0  0  0  0  0  0
   30.1564   -3.0175   10.1218 C   0  0  0  0  0  0  0  0  0  0  0  0
   29.5740   -4.1814    9.6155 C   0  0  0  0  0  0  0  0  0  0  0  0
   29.9757   -5.0532    8.5145 C   0  0  0  0  0  0  0  0  0  0  0  0
   29.0095   -6.1278    8.4159 C   0  0  0  0  0  0  0  0  0  0  0  0
   28.9337   -7.1469    7.5937 C   0  0  0  0  0  0  0  0  0  0  0  0
   27.9058   -8.1676    7.7084 C   0  0  0  0  0  0  0  0  0  0  0  0
   23.5048  -10.7481    8.8834 N   0  0  0  0  0  0  0  0  0  0  0  0
   30.9754   -4.8954    7.7936 O   0  0  0  0  0  0  0  0  0  0  0  0
   24.7824  -12.0933    7.5717 O   0  0  0  0  0  0  0  0  0  0  0  0
   22.8185  -11.7488    9.6616 C   0  0  0  0  0  0  0  0  0  0  0  0
   23.6661  -12.1189   10.8541 C   0  0  0  0  0  0  0  0  0  0  0  0
   23.3148  -13.5177   11.2738 C   0  0  0  0  0  0  0  0  0  0  0  0
   22.0713  -13.9639   11.5230 N   0  0  0  0  0  0  0  0  0  0  0  0
   22.1619  -15.2605   11.8657 C   0  0  0  0  0  0  0  0  0  0  0  0
   21.1997  -16.1971   12.2181 C   0  0  0  0  0  0  0  0  0  0  0  0
   21.5734  -17.4872   12.5290 C   0  0  0  0  0  0  0  0  0  0  0  0
   22.8965  -17.8774   12.4989 C   0  0  0  0  0  0  0  0  0  0  0  0
   23.8589  -16.9531   12.1500 C   0  0  0  0  0  0  0  0  0  0  0  0
   23.4908  -15.6487   11.8345 C   0  0  0  0  0  0  0  0  0  0  0  0
   24.1625  -14.5431   11.4652 N   0  0  0  0  0  0  0  0  0  0  0  0
   26.8792  -10.2993    7.2091 C   0  0  0  0  0  0  0  0  0  0  0  0
   27.9334   -9.3862    7.0679 C   0  0  0  0  0  0  0  0  0  0  0  0
   28.0813   -5.8669    9.4427 O   0  0  0  0  0  0  0  0  0  0  0  0
   28.4273   -4.7237   10.1346 C   0  0  0  0  0  0  0  0  0  0  0  0
  2  1  1  0
  2  3  2  0
  4  2  1  0
  4  9  2  0
 34  4  1  0
  5  6  2  0
 16  5  1  0
  6  7  1  0
  7  8  1  0
  7 31  2  0
  8 17  1  0
  8 19  2  0
 10  9  1  0
 11 10  2  0
 12 11  1  0
 13 12  1  0
 12 34  2  0
 14 13  1  0
 13 18  2  0
 15 14  2  3
 14 33  1  0
 15 16  1  0
 16 32  2  0
 17 20  1  0
 20 21  1  0
 21 22  1  0
 22 23  2  0
 22 30  1  0
 23 24  1  0
 24 25  2  0
 24 29  1  0
 25 26  1  0
 26 27  2  0
 27 28  1  0
 28 29  2  0
 29 30  1  0
 31 32  1  0
 33 34  1  0
M  END
$$$$
