
     RDKit          3D

 34 38  0  0  0  0  0  0  0  0999 V2000
   25.6659   -6.3502   11.0056 N   0  0  0  0  0  0  0  0  0  0  0  0
   26.0339   -5.2478   11.8190 C   0  0  0  0  0  0  0  0  0  0  0  0
   25.3138   -4.9605   12.7979 O   0  0  0  0  0  0  0  0  0  0  0  0
   27.2232   -4.5009   11.4868 C   0  0  0  0  0  0  0  0  0  0  0  0
   26.7518   -7.7824    8.0766 C   0  0  0  0  0  0  0  0  0  0  0  0
   25.8212   -8.7931    7.9732 C   0  0  0  0  0  0  0  0  0  0  0  0
   25.7605   -9.6048    6.8605 C   0  0  0  0  0  0  0  0  0  0  0  0
   24.7745  -10.6749    6.7721 C   0  0  0  0  0  0  0  0  0  0  0  0
   27.7124   -3.5026   12.3032 C   0  0  0  0  0  0  0  0  0  0  0  0
   28.8448   -2.7765   12.0020 C   0  0  0  0  0  0  0  0  0  0  0  0
   29.5239   -3.0589   10.8288 C   0  0  0  0  0  0  0  0  0  0  0  0
   29.0235   -4.0706   10.0067 C   0  0  0  0  0  0  0  0  0  0  0  0
   29.5042   -4.5939    8.7305 C   0  0  0  0  0  0  0  0  0  0  0  0
   28.6046   -5.6481    8.3089 C   0  0  0  0  0  0  0  0  0  0  0  0
   28.6098   -6.4111    7.2422 C   0  0  0  0  0  0  0  0  0  0  0  0
   27.6845   -7.5183    7.0699 C   0  0  0  0  0  0  0  0  0  0  0  0
   24.3186  -11.4502    7.8504 N   0  0  0  0  0  0  0  0  0  0  0  0
   30.5119   -4.1999    8.1197 O   0  0  0  0  0  0  0  0  0  0  0  0
   24.2896  -10.9277    5.6394 O   0  0  0  0  0  0  0  0  0  0  0  0
   23.3882  -12.5454    7.7357 C   0  0  0  0  0  0  0  0  0  0  0  0
   24.0897  -13.8330    8.0923 C   0  0  0  0  0  0  0  0  0  0  0  0
   24.6354  -13.7092    9.4863 C   0  0  0  0  0  0  0  0  0  0  0  0
   23.9554  -13.9844   10.6129 N   0  0  0  0  0  0  0  0  0  0  0  0
   24.7762  -13.7575   11.6530 C   0  0  0  0  0  0  0  0  0  0  0  0
   24.5935  -13.8793   13.0238 C   0  0  0  0  0  0  0  0  0  0  0  0
   25.6245  -13.5757   13.8872 C   0  0  0  0  0  0  0  0  0  0  0  0
   26.8498  -13.1482   13.4188 C   0  0  0  0  0  0  0  0  0  0  0  0
   27.0398  -13.0243   12.0582 C   0  0  0  0  0  0  0  0  0  0  0  0
   26.0048  -13.3286   11.1793 C   0  0  0  0  0  0  0  0  0  0  0  0
   25.8704  -13.3144    9.8408 N   0  0  0  0  0  0  0  0  0  0  0  0
   26.6747   -9.3530    5.8609 C   0  0  0  0  0  0  0  0  0  0  0  0
   27.6248   -8.3268    5.9569 C   0  0  0  0  0  0  0  0  0  0  0  0
   27.6359   -5.7181    9.3290 O   0  0  0  0  0  0  0  0  0  0  0  0
   27.8966   -4.7875   10.3146 C   0  0  0  0  0  0  0  0  0  0  0  0
  2  1  1  0
  2  3  2  0
  4  2  1  0
  4  9  2  0
 34  4  1  0
  5  6  2  0
 16  5  1  0
  6  7  1  0
  7  8  1  0
  7 31  2  0
  8 17  1  0
  8 19  2  0
 10  9  1  0
 11 10  2  0
 12 11  1  0
 13 12  1  0
 12 34  2  0
 14 13  1  0
 13 18  2  0
 15 14  2  3
 14 33  1  0
 15 16  1  0
 16 32  2  0
 17 20  1  0
 20 21  1  0
 21 22  1  0
 22 23  2  0
 22 30  1  0
 23 24  1  0
 24 25  2  0
 24 29  1  0
 25 26  1  0
 26 27  2  0
 27 28  1  0
 28 29  2  0
 29 30  1  0
 31 32  1  0
 33 34  1  0
M  END
$$$$
