
     RDKit          3D

 34 38  0  0  0  0  0  0  0  0999 V2000
   28.7441   -6.3514    7.8590 N   0  0  0  0  0  0  0  0  0  0  0  0
   29.3916   -5.1063    8.0663 C   0  0  0  0  0  0  0  0  0  0  0  0
   30.3292   -4.7864    7.3064 O   0  0  0  0  0  0  0  0  0  0  0  0
   28.9444   -4.2576    9.1444 C   0  0  0  0  0  0  0  0  0  0  0  0
   26.3595   -8.6348   10.0774 C   0  0  0  0  0  0  0  0  0  0  0  0
   26.4209   -9.8173    9.3731 C   0  0  0  0  0  0  0  0  0  0  0  0
   25.3024  -10.3589    8.7763 C   0  0  0  0  0  0  0  0  0  0  0  0
   25.3879  -11.6069    8.0278 C   0  0  0  0  0  0  0  0  0  0  0  0
   29.5632   -3.0604    9.4382 C   0  0  0  0  0  0  0  0  0  0  0  0
   29.1527   -2.2375   10.4652 C   0  0  0  0  0  0  0  0  0  0  0  0
   28.0717   -2.6264   11.2381 C   0  0  0  0  0  0  0  0  0  0  0  0
   27.4497   -3.8395   10.9355 C   0  0  0  0  0  0  0  0  0  0  0  0
   26.3089   -4.5116   11.5525 C   0  0  0  0  0  0  0  0  0  0  0  0
   26.0796   -5.7527   10.8417 C   0  0  0  0  0  0  0  0  0  0  0  0
   25.1843   -6.6949   11.0179 C   0  0  0  0  0  0  0  0  0  0  0  0
   25.1708   -7.9159   10.2302 C   0  0  0  0  0  0  0  0  0  0  0  0
   24.7585  -11.8613    6.7986 N   0  0  0  0  0  0  0  0  0  0  0  0
   25.6527   -4.0854   12.5176 O   0  0  0  0  0  0  0  0  0  0  0  0
   26.0813  -12.5341    8.5190 O   0  0  0  0  0  0  0  0  0  0  0  0
   25.4395  -11.9368    5.5302 C   0  0  0  0  0  0  0  0  0  0  0  0
   24.4218  -11.9000    4.4166 C   0  0  0  0  0  0  0  0  0  0  0  0
   23.7938  -10.5358    4.3887 C   0  0  0  0  0  0  0  0  0  0  0  0
   22.5748  -10.2328    4.8680 N   0  0  0  0  0  0  0  0  0  0  0  0
   22.3695   -8.9198    4.6659 C   0  0  0  0  0  0  0  0  0  0  0  0
   21.2959   -8.0914    4.9633 C   0  0  0  0  0  0  0  0  0  0  0  0
   21.3475   -6.7520    4.6408 C   0  0  0  0  0  0  0  0  0  0  0  0
   22.4530   -6.2056    4.0218 C   0  0  0  0  0  0  0  0  0  0  0  0
   23.5240   -7.0216    3.7227 C   0  0  0  0  0  0  0  0  0  0  0  0
   23.4806   -8.3748    4.0447 C   0  0  0  0  0  0  0  0  0  0  0  0
   24.3304   -9.4068    3.8944 N   0  0  0  0  0  0  0  0  0  0  0  0
   24.1243   -9.6592    8.9212 C   0  0  0  0  0  0  0  0  0  0  0  0
   24.0519   -8.4557    9.6363 C   0  0  0  0  0  0  0  0  0  0  0  0
   27.0719   -5.7789    9.8424 O   0  0  0  0  0  0  0  0  0  0  0  0
   27.8649   -4.6513    9.9121 C   0  0  0  0  0  0  0  0  0  0  0  0
  2  1  1  0
  2  3  2  0
  4  2  1  0
  4  9  2  0
 34  4  1  0
  5  6  2  0
 16  5  1  0
  6  7  1  0
  7  8  1  0
  7 31  2  0
  8 17  1  0
  8 19  2  0
 10  9  1  0
 11 10  2  0
 12 11  1  0
 13 12  1  0
 12 34  2  0
 14 13  1  0
 13 18  2  0
 15 14  2  3
 14 33  1  0
 15 16  1  0
 16 32  2  0
 17 20  1  0
 20 21  1  0
 21 22  1  0
 22 23  2  0
 22 30  1  0
 23 24  1  0
 24 25  2  0
 24 29  1  0
 25 26  1  0
 26 27  2  0
 27 28  1  0
 28 29  2  0
 29 30  1  0
 31 32  1  0
 33 34  1  0
M  END
$$$$
