
     RDKit          3D

 34 38  0  0  0  0  0  0  0  0999 V2000
   25.6988   -5.8291   11.1341 N   0  0  0  0  0  0  0  0  0  0  0  0
   26.0817   -4.5429   11.5937 C   0  0  0  0  0  0  0  0  0  0  0  0
   25.3221   -3.9381   12.3788 O   0  0  0  0  0  0  0  0  0  0  0  0
   27.3311   -3.9820   11.1387 C   0  0  0  0  0  0  0  0  0  0  0  0
   27.6536   -8.9835    6.6537 C   0  0  0  0  0  0  0  0  0  0  0  0
   26.6757   -9.9499    6.5651 C   0  0  0  0  0  0  0  0  0  0  0  0
   25.7367  -10.1176    7.5605 C   0  0  0  0  0  0  0  0  0  0  0  0
   24.7040  -11.1400    7.4458 C   0  0  0  0  0  0  0  0  0  0  0  0
   27.8331   -2.8031   11.6493 C   0  0  0  0  0  0  0  0  0  0  0  0
   29.0228   -2.2503   11.2259 C   0  0  0  0  0  0  0  0  0  0  0  0
   29.7489   -2.9043   10.2450 C   0  0  0  0  0  0  0  0  0  0  0  0
   29.2352   -4.0973    9.7323 C   0  0  0  0  0  0  0  0  0  0  0  0
   29.7546   -5.0040    8.7116 C   0  0  0  0  0  0  0  0  0  0  0  0
   28.8179   -6.0989    8.5636 C   0  0  0  0  0  0  0  0  0  0  0  0
   28.8371   -7.1505    7.7799 C   0  0  0  0  0  0  0  0  0  0  0  0
   27.7549   -8.1198    7.7477 C   0  0  0  0  0  0  0  0  0  0  0  0
   24.4433  -11.9058    6.2980 N   0  0  0  0  0  0  0  0  0  0  0  0
   30.8174   -4.8564    8.0851 O   0  0  0  0  0  0  0  0  0  0  0  0
   23.9856  -11.3576    8.4549 O   0  0  0  0  0  0  0  0  0  0  0  0
   23.3650  -12.8544    6.1742 C   0  0  0  0  0  0  0  0  0  0  0  0
   23.9378  -14.2298    5.9351 C   0  0  0  0  0  0  0  0  0  0  0  0
   24.2610  -14.8501    7.2644 C   0  0  0  0  0  0  0  0  0  0  0  0
   23.4317  -15.6311    7.9784 N   0  0  0  0  0  0  0  0  0  0  0  0
   24.0755  -15.9940    9.1012 C   0  0  0  0  0  0  0  0  0  0  0  0
   23.6938  -16.7859   10.1757 C   0  0  0  0  0  0  0  0  0  0  0  0
   24.5683  -17.0015   11.2194 C   0  0  0  0  0  0  0  0  0  0  0  0
   25.8302  -16.4435   11.2244 C   0  0  0  0  0  0  0  0  0  0  0  0
   26.2176  -15.6554   10.1608 C   0  0  0  0  0  0  0  0  0  0  0  0
   25.3413  -15.4324    9.1030 C   0  0  0  0  0  0  0  0  0  0  0  0
   25.4098  -14.7373    7.9532 N   0  0  0  0  0  0  0  0  0  0  0  0
   25.8275   -9.2721    8.6447 C   0  0  0  0  0  0  0  0  0  0  0  0
   26.8190   -8.2862    8.7439 C   0  0  0  0  0  0  0  0  0  0  0  0
   27.7905   -5.8150    9.4843 O   0  0  0  0  0  0  0  0  0  0  0  0
   28.0511   -4.6396   10.1595 C   0  0  0  0  0  0  0  0  0  0  0  0
  2  1  1  0
  2  3  2  0
  4  2  1  0
  4  9  2  0
 34  4  1  0
  5  6  2  0
 16  5  1  0
  6  7  1  0
  7  8  1  0
  7 31  2  0
  8 17  1  0
  8 19  2  0
 10  9  1  0
 11 10  2  0
 12 11  1  0
 13 12  1  0
 12 34  2  0
 14 13  1  0
 13 18  2  0
 15 14  2  3
 14 33  1  0
 15 16  1  0
 16 32  2  0
 17 20  1  0
 20 21  1  0
 21 22  1  0
 22 23  2  0
 22 30  1  0
 23 24  1  0
 24 25  2  0
 24 29  1  0
 25 26  1  0
 26 27  2  0
 27 28  1  0
 28 29  2  0
 29 30  1  0
 31 32  1  0
 33 34  1  0
M  END
$$$$
