
     RDKit          3D

 34 38  0  0  0  0  0  0  0  0999 V2000
   28.3905   -6.0778    7.9837 N   0  0  0  0  0  0  0  0  0  0  0  0
   29.1459   -4.9256    8.3214 C   0  0  0  0  0  0  0  0  0  0  0  0
   30.0531   -4.5574    7.5464 O   0  0  0  0  0  0  0  0  0  0  0  0
   28.8395   -4.2232    9.5442 C   0  0  0  0  0  0  0  0  0  0  0  0
   25.8258   -7.9738    9.4504 C   0  0  0  0  0  0  0  0  0  0  0  0
   25.9191   -9.1515    8.7416 C   0  0  0  0  0  0  0  0  0  0  0  0
   25.1297  -10.2399    9.0466 C   0  0  0  0  0  0  0  0  0  0  0  0
   25.2361  -11.4754    8.2802 C   0  0  0  0  0  0  0  0  0  0  0  0
   29.5958   -3.1574    9.9852 C   0  0  0  0  0  0  0  0  0  0  0  0
   29.3209   -2.4758   11.1514 C   0  0  0  0  0  0  0  0  0  0  0  0
   28.2383   -2.8756   11.9166 C   0  0  0  0  0  0  0  0  0  0  0  0
   27.4767   -3.9552   11.4646 C   0  0  0  0  0  0  0  0  0  0  0  0
   26.2976   -4.6017   12.0350 C   0  0  0  0  0  0  0  0  0  0  0  0
   25.9055   -5.6816   11.1529 C   0  0  0  0  0  0  0  0  0  0  0  0
   24.9221   -6.5459   11.2317 C   0  0  0  0  0  0  0  0  0  0  0  0
   24.9336   -7.8090   10.5134 C   0  0  0  0  0  0  0  0  0  0  0  0
   24.6859  -12.7123    8.6532 N   0  0  0  0  0  0  0  0  0  0  0  0
   25.7330   -4.2749   13.0925 O   0  0  0  0  0  0  0  0  0  0  0  0
   25.8715  -11.4348    7.1955 O   0  0  0  0  0  0  0  0  0  0  0  0
   25.0273  -13.9758    8.0489 C   0  0  0  0  0  0  0  0  0  0  0  0
   25.7214  -14.8437    9.0697 C   0  0  0  0  0  0  0  0  0  0  0  0
   24.9601  -14.7624   10.3621 C   0  0  0  0  0  0  0  0  0  0  0  0
   25.4590  -14.3216   11.5301 N   0  0  0  0  0  0  0  0  0  0  0  0
   24.4800  -14.3955   12.4481 C   0  0  0  0  0  0  0  0  0  0  0  0
   24.4464  -14.0721   13.7978 C   0  0  0  0  0  0  0  0  0  0  0  0
   23.2861  -14.2486   14.5212 C   0  0  0  0  0  0  0  0  0  0  0  0
   22.1418  -14.7450   13.9314 C   0  0  0  0  0  0  0  0  0  0  0  0
   22.1666  -15.0689   12.5909 C   0  0  0  0  0  0  0  0  0  0  0  0
   23.3333  -14.8940   11.8529 C   0  0  0  0  0  0  0  0  0  0  0  0
   23.6770  -15.1050   10.5695 N   0  0  0  0  0  0  0  0  0  0  0  0
   24.2468  -10.0893   10.0936 C   0  0  0  0  0  0  0  0  0  0  0  0
   24.1452   -8.8952   10.8208 C   0  0  0  0  0  0  0  0  0  0  0  0
   26.8454   -5.6436   10.1045 O   0  0  0  0  0  0  0  0  0  0  0  0
   27.7577   -4.6270   10.3034 C   0  0  0  0  0  0  0  0  0  0  0  0
  2  1  1  0
  2  3  2  0
  4  2  1  0
  4  9  2  0
 34  4  1  0
  5  6  2  0
 16  5  1  0
  6  7  1  0
  7  8  1  0
  7 31  2  0
  8 17  1  0
  8 19  2  0
 10  9  1  0
 11 10  2  0
 12 11  1  0
 13 12  1  0
 12 34  2  0
 14 13  1  0
 13 18  2  0
 15 14  2  3
 14 33  1  0
 15 16  1  0
 16 32  2  0
 17 20  1  0
 20 21  1  0
 21 22  1  0
 22 23  2  0
 22 30  1  0
 23 24  1  0
 24 25  2  0
 24 29  1  0
 25 26  1  0
 26 27  2  0
 27 28  1  0
 28 29  2  0
 29 30  1  0
 31 32  1  0
 33 34  1  0
M  END
$$$$
