
     RDKit          3D

 34 38  0  0  0  0  0  0  0  0999 V2000
   26.6211   -7.4922    9.5581 N   0  0  0  0  0  0  0  0  0  0  0  0
   26.7419   -7.2021   10.9414 C   0  0  0  0  0  0  0  0  0  0  0  0
   26.4914   -8.1058   11.7658 O   0  0  0  0  0  0  0  0  0  0  0  0
   27.1485   -5.8774   11.3443 C   0  0  0  0  0  0  0  0  0  0  0  0
   26.9164   -4.0888    4.9163 C   0  0  0  0  0  0  0  0  0  0  0  0
   26.4839   -4.9444    3.9269 C   0  0  0  0  0  0  0  0  0  0  0  0
   26.4978   -6.3120    4.1008 C   0  0  0  0  0  0  0  0  0  0  0  0
   26.0284   -7.2019    3.0459 C   0  0  0  0  0  0  0  0  0  0  0  0
   27.2545   -5.5162   12.6712 C   0  0  0  0  0  0  0  0  0  0  0  0
   27.6386   -4.2556   13.0758 C   0  0  0  0  0  0  0  0  0  0  0  0
   27.9317   -3.3072   12.1104 C   0  0  0  0  0  0  0  0  0  0  0  0
   27.8225   -3.6792   10.7689 C   0  0  0  0  0  0  0  0  0  0  0  0
   28.0587   -2.9222    9.5422 C   0  0  0  0  0  0  0  0  0  0  0  0
   27.7950   -3.7952    8.4168 C   0  0  0  0  0  0  0  0  0  0  0  0
   27.8620   -3.5808    7.1246 C   0  0  0  0  0  0  0  0  0  0  0  0
   27.3920   -4.5482    6.1475 C   0  0  0  0  0  0  0  0  0  0  0  0
   25.4017   -6.7930    1.8576 N   0  0  0  0  0  0  0  0  0  0  0  0
   28.4244   -1.7363    9.4823 O   0  0  0  0  0  0  0  0  0  0  0  0
   26.1967   -8.4376    3.2088 O   0  0  0  0  0  0  0  0  0  0  0  0
   25.2530   -7.6178    0.6848 C   0  0  0  0  0  0  0  0  0  0  0  0
   25.4741   -6.7748   -0.5471 C   0  0  0  0  0  0  0  0  0  0  0  0
   26.9167   -6.8876   -0.9501 C   0  0  0  0  0  0  0  0  0  0  0  0
   27.4700   -7.9473   -1.5652 N   0  0  0  0  0  0  0  0  0  0  0  0
   28.7711   -7.6736   -1.7627 C   0  0  0  0  0  0  0  0  0  0  0  0
   29.7956   -8.4057   -2.3473 C   0  0  0  0  0  0  0  0  0  0  0  0
   31.0663   -7.8762   -2.4227 C   0  0  0  0  0  0  0  0  0  0  0  0
   31.3507   -6.6209   -1.9258 C   0  0  0  0  0  0  0  0  0  0  0  0
   30.3386   -5.8867   -1.3433 C   0  0  0  0  0  0  0  0  0  0  0  0
   29.0530   -6.4132   -1.2629 C   0  0  0  0  0  0  0  0  0  0  0  0
   27.8816   -5.9687   -0.7730 N   0  0  0  0  0  0  0  0  0  0  0  0
   26.9657   -6.7766    5.3107 C   0  0  0  0  0  0  0  0  0  0  0  0
   27.4081   -5.9139    6.3231 C   0  0  0  0  0  0  0  0  0  0  0  0
   27.4184   -5.0215    8.9985 O   0  0  0  0  0  0  0  0  0  0  0  0
   27.4398   -4.9354   10.3760 C   0  0  0  0  0  0  0  0  0  0  0  0
  2  1  1  0
  2  3  2  0
  4  2  1  0
  4  9  2  0
 34  4  1  0
  5  6  2  0
 16  5  1  0
  6  7  1  0
  7  8  1  0
  7 31  2  0
  8 17  1  0
  8 19  2  0
 10  9  1  0
 11 10  2  0
 12 11  1  0
 13 12  1  0
 12 34  2  0
 14 13  1  0
 13 18  2  0
 15 14  2  3
 14 33  1  0
 15 16  1  0
 16 32  2  0
 17 20  1  0
 20 21  1  0
 21 22  1  0
 22 23  2  0
 22 30  1  0
 23 24  1  0
 24 25  2  0
 24 29  1  0
 25 26  1  0
 26 27  2  0
 27 28  1  0
 28 29  2  0
 29 30  1  0
 31 32  1  0
 33 34  1  0
M  END
$$$$
