
     RDKit          3D

 34 38  0  0  0  0  0  0  0  0999 V2000
   28.5583   -6.3917    8.0256 N   0  0  0  0  0  0  0  0  0  0  0  0
   29.2853   -5.1936    8.2462 C   0  0  0  0  0  0  0  0  0  0  0  0
   30.2134   -4.9048    7.4624 O   0  0  0  0  0  0  0  0  0  0  0  0
   28.9268   -4.3550    9.3645 C   0  0  0  0  0  0  0  0  0  0  0  0
   26.0770   -8.2920    9.7999 C   0  0  0  0  0  0  0  0  0  0  0  0
   26.2859   -9.5814    9.3616 C   0  0  0  0  0  0  0  0  0  0  0  0
   25.6463  -10.6533    9.9469 C   0  0  0  0  0  0  0  0  0  0  0  0
   25.8732  -12.0101    9.4644 C   0  0  0  0  0  0  0  0  0  0  0  0
   29.6307   -3.2106    9.6764 C   0  0  0  0  0  0  0  0  0  0  0  0
   29.3057   -2.3984   10.7417 C   0  0  0  0  0  0  0  0  0  0  0  0
   28.2253   -2.7432   11.5361 C   0  0  0  0  0  0  0  0  0  0  0  0
   27.5168   -3.9029   11.2151 C   0  0  0  0  0  0  0  0  0  0  0  0
   26.3537   -4.5211   11.8466 C   0  0  0  0  0  0  0  0  0  0  0  0
   26.0229   -5.7201   11.1043 C   0  0  0  0  0  0  0  0  0  0  0  0
   25.0738   -6.6084   11.2790 C   0  0  0  0  0  0  0  0  0  0  0  0
   25.2116   -7.9916   10.8554 C   0  0  0  0  0  0  0  0  0  0  0  0
   25.2881  -13.1700    9.9975 N   0  0  0  0  0  0  0  0  0  0  0  0
   25.7558   -4.0867   12.8454 O   0  0  0  0  0  0  0  0  0  0  0  0
   26.6559  -12.1587    8.4912 O   0  0  0  0  0  0  0  0  0  0  0  0
   25.2056  -14.4350    9.3111 C   0  0  0  0  0  0  0  0  0  0  0  0
   23.7795  -14.6746    8.8799 C   0  0  0  0  0  0  0  0  0  0  0  0
   22.9700  -15.0421   10.0907 C   0  0  0  0  0  0  0  0  0  0  0  0
   22.1104  -14.2268   10.7261 N   0  0  0  0  0  0  0  0  0  0  0  0
   21.5792  -14.9115   11.7536 C   0  0  0  0  0  0  0  0  0  0  0  0
   20.6492  -14.5591   12.7223 C   0  0  0  0  0  0  0  0  0  0  0  0
   20.2708  -15.4745   13.6813 C   0  0  0  0  0  0  0  0  0  0  0  0
   20.7991  -16.7489   13.7042 C   0  0  0  0  0  0  0  0  0  0  0  0
   21.7238  -17.1072   12.7454 C   0  0  0  0  0  0  0  0  0  0  0  0
   22.1115  -16.1898   11.7736 C   0  0  0  0  0  0  0  0  0  0  0  0
   22.9622  -16.2234   10.7320 N   0  0  0  0  0  0  0  0  0  0  0  0
   24.7914  -10.3691   10.9894 C   0  0  0  0  0  0  0  0  0  0  0  0
   24.5728   -9.0608   11.4425 C   0  0  0  0  0  0  0  0  0  0  0  0
   26.9809   -5.7760   10.0733 O   0  0  0  0  0  0  0  0  0  0  0  0
   27.8475   -4.7045   10.1536 C   0  0  0  0  0  0  0  0  0  0  0  0
  2  1  1  0
  2  3  2  0
  4  2  1  0
  4  9  2  0
 34  4  1  0
  5  6  2  0
 16  5  1  0
  6  7  1  0
  7  8  1  0
  7 31  2  0
  8 17  1  0
  8 19  2  0
 10  9  1  0
 11 10  2  0
 12 11  1  0
 13 12  1  0
 12 34  2  0
 14 13  1  0
 13 18  2  0
 15 14  2  3
 14 33  1  0
 15 16  1  0
 16 32  2  0
 17 20  1  0
 20 21  1  0
 21 22  1  0
 22 23  2  0
 22 30  1  0
 23 24  1  0
 24 25  2  0
 24 29  1  0
 25 26  1  0
 26 27  2  0
 27 28  1  0
 28 29  2  0
 29 30  1  0
 31 32  1  0
 33 34  1  0
M  END
$$$$
