
     RDKit          3D

 34 38  0  0  0  0  0  0  0  0999 V2000
   25.3480   -5.8505   10.7041 N   0  0  0  0  0  0  0  0  0  0  0  0
   25.8634   -4.6260   11.2015 C   0  0  0  0  0  0  0  0  0  0  0  0
   25.1582   -3.9540   11.9826 O   0  0  0  0  0  0  0  0  0  0  0  0
   27.1797   -4.2030   10.7879 C   0  0  0  0  0  0  0  0  0  0  0  0
   27.6691   -9.9094    7.2567 C   0  0  0  0  0  0  0  0  0  0  0  0
   26.7085  -10.8931    7.3429 C   0  0  0  0  0  0  0  0  0  0  0  0
   25.4791  -10.6506    7.9178 C   0  0  0  0  0  0  0  0  0  0  0  0
   24.4715  -11.7014    7.9928 C   0  0  0  0  0  0  0  0  0  0  0  0
   27.7653   -3.0528   11.2744 C   0  0  0  0  0  0  0  0  0  0  0  0
   29.0199   -2.6308   10.8897 C   0  0  0  0  0  0  0  0  0  0  0  0
   29.7267   -3.3926    9.9746 C   0  0  0  0  0  0  0  0  0  0  0  0
   29.1284   -4.5558    9.4859 C   0  0  0  0  0  0  0  0  0  0  0  0
   29.6079   -5.5518    8.5311 C   0  0  0  0  0  0  0  0  0  0  0  0
   28.5809   -6.5621    8.3808 C   0  0  0  0  0  0  0  0  0  0  0  0
   28.5383   -7.6457    7.6430 C   0  0  0  0  0  0  0  0  0  0  0  0
   27.4606   -8.6154    7.7417 C   0  0  0  0  0  0  0  0  0  0  0  0
   24.6711  -13.0448    7.6359 N   0  0  0  0  0  0  0  0  0  0  0  0
   30.7080   -5.5306    7.9538 O   0  0  0  0  0  0  0  0  0  0  0  0
   23.3287  -11.3835    8.4110 O   0  0  0  0  0  0  0  0  0  0  0  0
   23.6145  -14.0065    7.4438 C   0  0  0  0  0  0  0  0  0  0  0  0
   24.2152  -15.3320    7.0447 C   0  0  0  0  0  0  0  0  0  0  0  0
   24.4652  -16.1365    8.2883 C   0  0  0  0  0  0  0  0  0  0  0  0
   23.5777  -16.9620    8.8699 N   0  0  0  0  0  0  0  0  0  0  0  0
   24.1664  -17.5007    9.9516 C   0  0  0  0  0  0  0  0  0  0  0  0
   23.7132  -18.4065   10.9010 C   0  0  0  0  0  0  0  0  0  0  0  0
   24.5418  -18.8006   11.9300 C   0  0  0  0  0  0  0  0  0  0  0  0
   25.8271  -18.3119   12.0428 C   0  0  0  0  0  0  0  0  0  0  0  0
   26.2855  -17.4115   11.1038 C   0  0  0  0  0  0  0  0  0  0  0  0
   25.4560  -17.0082   10.0617 C   0  0  0  0  0  0  0  0  0  0  0  0
   25.5945  -16.1727    9.0165 N   0  0  0  0  0  0  0  0  0  0  0  0
   25.2625   -9.3783    8.4004 C   0  0  0  0  0  0  0  0  0  0  0  0
   26.2339   -8.3711    8.3177 C   0  0  0  0  0  0  0  0  0  0  0  0
   27.5426   -6.1438    9.2357 O   0  0  0  0  0  0  0  0  0  0  0  0
   27.8801   -4.9676    9.8744 C   0  0  0  0  0  0  0  0  0  0  0  0
  2  1  1  0
  2  3  2  0
  4  2  1  0
  4  9  2  0
 34  4  1  0
  5  6  2  0
 16  5  1  0
  6  7  1  0
  7  8  1  0
  7 31  2  0
  8 17  1  0
  8 19  2  0
 10  9  1  0
 11 10  2  0
 12 11  1  0
 13 12  1  0
 12 34  2  0
 14 13  1  0
 13 18  2  0
 15 14  2  3
 14 33  1  0
 15 16  1  0
 16 32  2  0
 17 20  1  0
 20 21  1  0
 21 22  1  0
 22 23  2  0
 22 30  1  0
 23 24  1  0
 24 25  2  0
 24 29  1  0
 25 26  1  0
 26 27  2  0
 27 28  1  0
 28 29  2  0
 29 30  1  0
 31 32  1  0
 33 34  1  0
M  END
$$$$
