
     RDKit          3D

 34 38  0  0  0  0  0  0  0  0999 V2000
   25.8012   -6.0087   11.2841 N   0  0  0  0  0  0  0  0  0  0  0  0
   26.1061   -4.6695   11.6387 C   0  0  0  0  0  0  0  0  0  0  0  0
   25.3931   -4.0996   12.4907 O   0  0  0  0  0  0  0  0  0  0  0  0
   27.2256   -4.0165   11.0039 C   0  0  0  0  0  0  0  0  0  0  0  0
   28.5231   -9.7468    8.3209 C   0  0  0  0  0  0  0  0  0  0  0  0
   27.7496  -10.8555    8.5868 C   0  0  0  0  0  0  0  0  0  0  0  0
   26.3758  -10.7723    8.6681 C   0  0  0  0  0  0  0  0  0  0  0  0
   25.5727  -11.9576    8.9421 C   0  0  0  0  0  0  0  0  0  0  0  0
   27.6048   -2.7313   11.3308 C   0  0  0  0  0  0  0  0  0  0  0  0
   28.6690   -2.0899   10.7340 C   0  0  0  0  0  0  0  0  0  0  0  0
   29.3918   -2.7621    9.7630 C   0  0  0  0  0  0  0  0  0  0  0  0
   29.0028   -4.0629    9.4366 C   0  0  0  0  0  0  0  0  0  0  0  0
   29.5523   -5.0145    8.4742 C   0  0  0  0  0  0  0  0  0  0  0  0
   28.7631   -6.2273    8.5398 C   0  0  0  0  0  0  0  0  0  0  0  0
   28.8582   -7.3552    7.8772 C   0  0  0  0  0  0  0  0  0  0  0  0
   27.9698   -8.4796    8.1184 C   0  0  0  0  0  0  0  0  0  0  0  0
   24.2226  -12.1222    8.5930 N   0  0  0  0  0  0  0  0  0  0  0  0
   30.5290   -4.8125    7.7332 O   0  0  0  0  0  0  0  0  0  0  0  0
   26.1305  -12.9135    9.5395 O   0  0  0  0  0  0  0  0  0  0  0  0
   23.2184  -12.6955    9.4539 C   0  0  0  0  0  0  0  0  0  0  0  0
   22.5284  -13.8251    8.7292 C   0  0  0  0  0  0  0  0  0  0  0  0
   23.4423  -15.0171    8.7229 C   0  0  0  0  0  0  0  0  0  0  0  0
   23.8557  -15.6721    7.6240 N   0  0  0  0  0  0  0  0  0  0  0  0
   24.6603  -16.6729    8.0216 C   0  0  0  0  0  0  0  0  0  0  0  0
   25.3523  -17.6454    7.3125 C   0  0  0  0  0  0  0  0  0  0  0  0
   26.1229  -18.5712    7.9830 C   0  0  0  0  0  0  0  0  0  0  0  0
   26.2261  -18.5568    9.3588 C   0  0  0  0  0  0  0  0  0  0  0  0
   25.5418  -17.5940   10.0710 C   0  0  0  0  0  0  0  0  0  0  0  0
   24.7616  -16.6554    9.4026 C   0  0  0  0  0  0  0  0  0  0  0  0
   23.9953  -15.6197    9.7896 N   0  0  0  0  0  0  0  0  0  0  0  0
   25.8192   -9.5274    8.4712 C   0  0  0  0  0  0  0  0  0  0  0  0
   26.5980   -8.3937    8.2006 C   0  0  0  0  0  0  0  0  0  0  0  0
   27.7878   -5.9644    9.5214 O   0  0  0  0  0  0  0  0  0  0  0  0
   27.9430   -4.6928   10.0355 C   0  0  0  0  0  0  0  0  0  0  0  0
  2  1  1  0
  2  3  2  0
  4  2  1  0
  4  9  2  0
 34  4  1  0
  5  6  2  0
 16  5  1  0
  6  7  1  0
  7  8  1  0
  7 31  2  0
  8 17  1  0
  8 19  2  0
 10  9  1  0
 11 10  2  0
 12 11  1  0
 13 12  1  0
 12 34  2  0
 14 13  1  0
 13 18  2  0
 15 14  2  3
 14 33  1  0
 15 16  1  0
 16 32  2  0
 17 20  1  0
 20 21  1  0
 21 22  1  0
 22 23  2  0
 22 30  1  0
 23 24  1  0
 24 25  2  0
 24 29  1  0
 25 26  1  0
 26 27  2  0
 27 28  1  0
 28 29  2  0
 29 30  1  0
 31 32  1  0
 33 34  1  0
M  END
$$$$
