
     RDKit          3D

 34 38  0  0  0  0  0  0  0  0999 V2000
   25.7835   -5.7247   11.3573 N   0  0  0  0  0  0  0  0  0  0  0  0
   26.3156   -4.4625   11.7265 C   0  0  0  0  0  0  0  0  0  0  0  0
   25.7550   -3.8214   12.6396 O   0  0  0  0  0  0  0  0  0  0  0  0
   27.4817   -3.9671   11.0356 C   0  0  0  0  0  0  0  0  0  0  0  0
   27.1329   -9.4383    7.1601 C   0  0  0  0  0  0  0  0  0  0  0  0
   26.2673  -10.4757    7.4298 C   0  0  0  0  0  0  0  0  0  0  0  0
   25.6769  -10.6175    8.6675 C   0  0  0  0  0  0  0  0  0  0  0  0
   24.7569  -11.7168    8.9324 C   0  0  0  0  0  0  0  0  0  0  0  0
   28.0674   -2.7613   11.3601 C   0  0  0  0  0  0  0  0  0  0  0  0
   29.1794   -2.2700   10.7103 C   0  0  0  0  0  0  0  0  0  0  0  0
   29.7360   -3.0172    9.6860 C   0  0  0  0  0  0  0  0  0  0  0  0
   29.1384   -4.2370    9.3624 C   0  0  0  0  0  0  0  0  0  0  0  0
   29.4827   -5.2348    8.3526 C   0  0  0  0  0  0  0  0  0  0  0  0
   28.5258   -6.3182    8.4460 C   0  0  0  0  0  0  0  0  0  0  0  0
   28.4125   -7.4305    7.7602 C   0  0  0  0  0  0  0  0  0  0  0  0
   27.4642   -8.4729    8.1148 C   0  0  0  0  0  0  0  0  0  0  0  0
   23.9535  -12.3527    7.9721 N   0  0  0  0  0  0  0  0  0  0  0  0
   30.4341   -5.1613    7.5569 O   0  0  0  0  0  0  0  0  0  0  0  0
   24.6727  -12.1332   10.1162 O   0  0  0  0  0  0  0  0  0  0  0  0
   24.1232  -13.7161    7.5358 C   0  0  0  0  0  0  0  0  0  0  0  0
   22.9103  -14.5204    7.9349 C   0  0  0  0  0  0  0  0  0  0  0  0
   22.9729  -14.7766    9.4137 C   0  0  0  0  0  0  0  0  0  0  0  0
   22.3557  -14.0419   10.3553 N   0  0  0  0  0  0  0  0  0  0  0  0
   22.6450  -14.5818   11.5518 C   0  0  0  0  0  0  0  0  0  0  0  0
   22.2754  -14.2303   12.8429 C   0  0  0  0  0  0  0  0  0  0  0  0
   22.7222  -14.9728   13.9152 C   0  0  0  0  0  0  0  0  0  0  0  0
   23.5381  -16.0710   13.7367 C   0  0  0  0  0  0  0  0  0  0  0  0
   23.9102  -16.4272   12.4572 C   0  0  0  0  0  0  0  0  0  0  0  0
   23.4639  -15.6835   11.3689 C   0  0  0  0  0  0  0  0  0  0  0  0
   23.6384  -15.7639   10.0374 N   0  0  0  0  0  0  0  0  0  0  0  0
   25.9970   -9.6719    9.6172 C   0  0  0  0  0  0  0  0  0  0  0  0
   26.8769   -8.6133    9.3522 C   0  0  0  0  0  0  0  0  0  0  0  0
   27.6592   -5.9384    9.4895 O   0  0  0  0  0  0  0  0  0  0  0  0
   28.0326   -4.7176   10.0142 C   0  0  0  0  0  0  0  0  0  0  0  0
  2  1  1  0
  2  3  2  0
  4  2  1  0
  4  9  2  0
 34  4  1  0
  5  6  2  0
 16  5  1  0
  6  7  1  0
  7  8  1  0
  7 31  2  0
  8 17  1  0
  8 19  2  0
 10  9  1  0
 11 10  2  0
 12 11  1  0
 13 12  1  0
 12 34  2  0
 14 13  1  0
 13 18  2  0
 15 14  2  3
 14 33  1  0
 15 16  1  0
 16 32  2  0
 17 20  1  0
 20 21  1  0
 21 22  1  0
 22 23  2  0
 22 30  1  0
 23 24  1  0
 24 25  2  0
 24 29  1  0
 25 26  1  0
 26 27  2  0
 27 28  1  0
 28 29  2  0
 29 30  1  0
 31 32  1  0
 33 34  1  0
M  END
$$$$
