
     RDKit          3D

 40 43  0  0  0  0  0  0  0  0999 V2000
   72.1310   54.9512   12.2915 C   0  0  0  0  0  0  0  0  0  0  0  0
   72.0110   56.6976   15.2310 C   0  0  0  0  0  0  0  0  0  0  0  0
   72.9690   58.6565   17.4032 C   0  0  0  0  0  0  0  0  0  0  0  0
   75.6260   61.1002   18.2620 C   0  0  0  0  0  0  0  0  0  0  0  0
   73.7982   60.5689   19.6305 C   0  0  1  0  0  0  0  0  0  0  0  0
   72.7431   61.4569   19.0320 C   0  0  0  0  0  0  0  0  0  0  0  0
   69.9908   50.3057   14.5361 C   0  0  0  0  0  0  0  0  0  0  0  0
   71.2344   50.7027   14.9724 C   0  0  0  0  0  0  0  0  0  0  0  0
   71.4540   51.9973   15.3939 C   0  0  0  0  0  0  0  0  0  0  0  0
   70.4623   52.9235   15.3942 C   0  0  0  0  0  0  0  0  0  0  0  0
   69.1886   52.5419   14.9537 C   0  0  0  0  0  0  0  0  0  0  0  0
   68.9951   51.2573   14.5415 C   0  0  0  0  0  0  0  0  0  0  0  0
   70.3681   55.9417   13.6364 C   0  0  0  0  0  0  0  0  0  0  0  0
   70.7180   55.5778   12.2556 C   0  0  2  0  0  0  0  0  0  0  0  0
   69.8299   54.5456   11.6150 C   0  0  0  0  0  0  0  0  0  0  0  0
   71.3105   58.0450   15.1399 C   0  0  2  0  0  0  0  0  0  0  0  0
   70.6610   58.4468   16.3969 C   0  0  2  0  0  0  0  0  0  0  0  0
   74.7086   59.9686   18.5621 C   0  0  1  0  0  0  0  0  0  0  0  0
   74.7314   61.5787   20.2661 C   0  0  1  0  0  0  0  0  0  0  0  0
   72.8287   62.6956   19.8748 C   0  0  0  0  0  0  0  0  0  0  0  0
   69.5186   59.4289   16.2009 C   0  0  0  0  0  0  0  0  0  0  0  0
   68.9771   59.9525   17.5031 C   0  0  0  0  0  0  0  0  0  0  0  0
   70.1028   60.1799   18.5019 C   0  0  0  0  0  0  0  0  0  0  0  0
   69.5340   60.5246   19.8682 C   0  0  0  0  0  0  0  0  0  0  0  0
   68.6679   59.3810   20.3384 C   0  0  0  0  0  0  0  0  0  0  0  0
   67.4884   59.2906   19.4050 C   0  0  0  0  0  0  0  0  0  0  0  0
   68.0002   58.9131   18.0345 C   0  0  0  0  0  0  0  0  0  0  0  0
   68.1618   48.7503   14.2974 C   0  0  0  0  0  0  0  0  0  0  0  0
   69.6664   48.9266   14.0749 C   0  0  1  0  0  0  0  0  0  0  0  0
   71.1914   55.6439   14.7099 N   0  0  0  0  0  0  0  0  0  0  0  0
   71.5922   58.9461   17.3826 N   0  0  0  0  0  0  0  0  0  0  0  0
   69.3423   55.1056   16.4626 O   0  0  0  0  0  0  0  0  0  0  0  0
   71.6388   54.6207   17.0477 O   0  0  0  0  0  0  0  0  0  0  0  0
   70.5193   58.1497   14.0082 O   0  0  0  0  0  0  0  0  0  0  0  0
   73.4439   57.4965   17.4400 O   0  0  0  0  0  0  0  0  0  0  0  0
   73.9399   59.6772   17.3863 O   0  0  0  0  0  0  0  0  0  0  0  0
   75.6131   61.9953   19.3207 O   0  0  0  0  0  0  0  0  0  0  0  0
   73.9428   62.6368   20.6799 O   0  0  0  0  0  0  0  0  0  0  0  0
   69.9479   48.8604   12.7121 O   0  0  0  0  0  0  0  0  0  0  0  0
   70.6394   54.5603   15.8983 S   0  0  1  0  0  6  0  0  0  0  0  0
 14  1  1  1
  2 16  1  0
 30  2  1  0
 31  3  1  0
  3 35  2  0
  3 36  1  0
 18  4  1  0
  4 37  1  0
  5  6  1  6
 18  5  1  0
  5 19  1  0
  6 20  1  0
  8  7  2  0
 12  7  1  0
  7 29  1  0
  9  8  1  0
 10  9  2  0
 10 11  1  0
 40 10  1  0
 11 12  2  0
 13 14  1  0
 30 13  1  0
 14 15  1  0
 16 17  1  0
 16 34  1  6
 17 21  1  6
 17 31  1  0
 18 36  1  6
 19 37  1  6
 19 38  1  0
 38 20  1  0
 21 22  1  0
 22 23  1  0
 22 27  1  0
 23 24  1  0
 24 25  1  0
 26 25  1  0
 27 26  1  0
 29 28  1  6
 29 39  1  0
 40 30  1  6
 40 32  2  0
 40 33  2  0
M  END
$$$$
