
     RDKit          3D

 40 43  0  0  0  0  0  0  0  0999 V2000
   73.5744   54.0184   14.5419 C   0  0  0  0  0  0  0  0  0  0  0  0
   70.3077   57.3335   14.8238 C   0  0  0  0  0  0  0  0  0  0  0  0
   72.0701   60.0449   17.8477 C   0  0  0  0  0  0  0  0  0  0  0  0
   75.0728   58.9083   19.5824 C   0  0  0  0  0  0  0  0  0  0  0  0
   74.6135   60.9849   18.5961 C   0  0  1  0  0  0  0  0  0  0  0  0
   74.6904   60.6177   17.1404 C   0  0  0  0  0  0  0  0  0  0  0  0
   66.8425   52.5815   13.4001 C   0  0  0  0  0  0  0  0  0  0  0  0
   67.7849   52.0684   14.2620 C   0  0  0  0  0  0  0  0  0  0  0  0
   68.5015   52.8979   15.0989 C   0  0  0  0  0  0  0  0  0  0  0  0
   68.3090   54.2411   15.1051 C   0  0  0  0  0  0  0  0  0  0  0  0
   67.3553   54.7856   14.2356 C   0  0  0  0  0  0  0  0  0  0  0  0
   66.6593   53.9465   13.4175 C   0  0  0  0  0  0  0  0  0  0  0  0
   71.4933   55.2342   14.8394 C   0  0  0  0  0  0  0  0  0  0  0  0
   72.8653   55.1248   15.3564 C   0  0  2  0  0  0  0  0  0  0  0  0
   73.7151   56.3566   15.1980 C   0  0  0  0  0  0  0  0  0  0  0  0
   70.8847   58.4628   15.6643 C   0  0  2  0  0  0  0  0  0  0  0  0
   70.1564   58.6782   16.9239 C   0  0  2  0  0  0  0  0  0  0  0  0
   73.9601   59.8829   19.4264 C   0  0  1  0  0  0  0  0  0  0  0  0
   76.0588   60.8491   19.0285 C   0  0  1  0  0  0  0  0  0  0  0  0
   76.1159   60.9297   16.7900 C   0  0  0  0  0  0  0  0  0  0  0  0
   68.6599   58.8588   16.7345 C   0  0  0  0  0  0  0  0  0  0  0  0
   68.0016   59.5083   17.9211 C   0  0  0  0  0  0  0  0  0  0  0  0
   68.1969   58.6656   19.1734 C   0  0  0  0  0  0  0  0  0  0  0  0
   67.3731   59.2266   20.3203 C   0  0  0  0  0  0  0  0  0  0  0  0
   65.9157   59.2121   19.9266 C   0  0  0  0  0  0  0  0  0  0  0  0
   65.7452   60.1741   18.7795 C   0  0  0  0  0  0  0  0  0  0  0  0
   66.5201   59.6398   17.5975 C   0  0  0  0  0  0  0  0  0  0  0  0
   66.3155   52.2809   11.0649 C   0  0  0  0  0  0  0  0  0  0  0  0
   66.0190   51.7562   12.4725 C   0  0  1  0  0  0  0  0  0  0  0  0
   70.5458   56.0558   15.4275 N   0  0  0  0  0  0  0  0  0  0  0  0
   70.6989   59.7586   17.7155 N   0  0  0  0  0  0  0  0  0  0  0  0
   68.2455   56.4770   16.5729 O   0  0  0  0  0  0  0  0  0  0  0  0
   69.5982   54.6412   17.3803 O   0  0  0  0  0  0  0  0  0  0  0  0
   71.1211   59.6048   14.9175 O   0  0  0  0  0  0  0  0  0  0  0  0
   72.6509   60.9917   17.2654 O   0  0  0  0  0  0  0  0  0  0  0  0
   72.9132   59.2655   18.6640 O   0  0  0  0  0  0  0  0  0  0  0  0
   76.2812   59.5519   19.3638 O   0  0  0  0  0  0  0  0  0  0  0  0
   76.8307   61.1965   17.9348 O   0  0  0  0  0  0  0  0  0  0  0  0
   66.4551   50.4376   12.5809 O   0  0  0  0  0  0  0  0  0  0  0  0
   69.1542   55.3556   16.1090 S   0  0  1  0  0  6  0  0  0  0  0  0
 14  1  1  6
  2 16  1  0
 30  2  1  0
 31  3  1  0
  3 35  2  0
  3 36  1  0
 18  4  1  0
  4 37  1  0
  5  6  1  6
 18  5  1  0
  5 19  1  0
  6 20  1  0
  8  7  2  0
 12  7  1  0
  7 29  1  0
  9  8  1  0
 10  9  2  0
 10 11  1  0
 40 10  1  0
 11 12  2  0
 13 14  1  0
 30 13  1  0
 14 15  1  0
 16 17  1  0
 16 34  1  6
 17 21  1  6
 17 31  1  0
 18 36  1  6
 19 37  1  6
 19 38  1  0
 38 20  1  0
 21 22  1  0
 22 23  1  0
 22 27  1  0
 23 24  1  0
 24 25  1  0
 26 25  1  0
 27 26  1  0
 29 28  1  6
 29 39  1  0
 40 30  1  6
 40 32  2  0
 40 33  2  0
M  END
$$$$
