
     RDKit          3D

 40 43  0  0  0  0  0  0  0  0999 V2000
   73.6292   55.3514   18.5222 C   0  0  0  0  0  0  0  0  0  0  0  0
   70.8674   58.1348   16.8650 C   0  0  0  0  0  0  0  0  0  0  0  0
   70.8238   54.6300   13.8299 C   0  0  0  0  0  0  0  0  0  0  0  0
   72.8338   52.3513   11.9567 C   0  0  0  0  0  0  0  0  0  0  0  0
   70.5669   51.7577   11.8898 C   0  0  1  0  0  0  0  0  0  0  0  0
   70.4901   50.8420   13.0796 C   0  0  0  0  0  0  0  0  0  0  0  0
   73.8300   62.5173   19.3879 C   0  0  0  0  0  0  0  0  0  0  0  0
   74.8335   61.8360   18.7374 C   0  0  0  0  0  0  0  0  0  0  0  0
   74.5433   60.9684   17.7054 C   0  0  0  0  0  0  0  0  0  0  0  0
   73.2682   60.7526   17.2946 C   0  0  0  0  0  0  0  0  0  0  0  0
   72.2305   61.4346   17.9427 C   0  0  0  0  0  0  0  0  0  0  0  0
   72.5412   62.2868   18.9600 C   0  0  0  0  0  0  0  0  0  0  0  0
   73.1117   57.3174   17.1938 C   0  0  0  0  0  0  0  0  0  0  0  0
   72.6845   56.5675   18.3839 C   0  0  2  0  0  0  0  0  0  0  0  0
   72.7853   57.3129   19.6873 C   0  0  0  0  0  0  0  0  0  0  0  0
   70.3169   56.7166   16.8791 C   0  0  2  0  0  0  0  0  0  0  0  0
   69.9091   56.2400   15.5488 C   0  0  2  0  0  0  0  0  0  0  0  0
   71.4855   52.9493   12.1481 C   0  0  1  0  0  0  0  0  0  0  0  0
   71.4125   50.9487   10.9281 C   0  0  1  0  0  0  0  0  0  0  0  0
   70.7135   49.4866   12.4755 C   0  0  0  0  0  0  0  0  0  0  0  0
   68.4040   56.1089   15.3879 C   0  0  0  0  0  0  0  0  0  0  0  0
   68.0203   55.3135   14.1701 C   0  0  0  0  0  0  0  0  0  0  0  0
   66.5143   55.3534   13.9533 C   0  0  0  0  0  0  0  0  0  0  0  0
   66.1162   54.3981   12.8407 C   0  0  0  0  0  0  0  0  0  0  0  0
   66.5317   52.9992   13.2272 C   0  0  0  0  0  0  0  0  0  0  0  0
   68.0372   52.9715   13.2834 C   0  0  0  0  0  0  0  0  0  0  0  0
   68.4836   53.8824   14.4032 C   0  0  0  0  0  0  0  0  0  0  0  0
   74.2540   64.8478   19.8463 C   0  0  0  0  0  0  0  0  0  0  0  0
   74.0574   63.4787   20.5031 C   0  0  1  0  0  0  0  0  0  0  0  0
   72.2535   58.1560   16.5017 N   0  0  0  0  0  0  0  0  0  0  0  0
   70.5669   55.0138   15.1589 N   0  0  0  0  0  0  0  0  0  0  0  0
   71.7442   60.3160   15.1394 O   0  0  0  0  0  0  0  0  0  0  0  0
   74.0062   59.4591   15.1081 O   0  0  0  0  0  0  0  0  0  0  0  0
   69.3843   56.5257   17.8849 O   0  0  0  0  0  0  0  0  0  0  0  0
   70.6047   55.3574   12.8321 O   0  0  0  0  0  0  0  0  0  0  0  0
   71.3581   53.3649   13.5154 O   0  0  0  0  0  0  0  0  0  0  0  0
   72.7197   51.1923   11.2044 O   0  0  0  0  0  0  0  0  0  0  0  0
   71.1159   49.6191   11.1665 O   0  0  0  0  0  0  0  0  0  0  0  0
   72.9051   63.4973   21.2858 O   0  0  0  0  0  0  0  0  0  0  0  0
   72.8073   59.6900   16.0206 S   0  0  1  0  0  6  0  0  0  0  0  0
 14  1  1  1
  2 16  1  0
 30  2  1  0
 31  3  1  0
  3 35  2  0
  3 36  1  0
 18  4  1  0
  4 37  1  0
  5  6  1  1
 18  5  1  0
  5 19  1  0
  6 20  1  0
  8  7  2  0
 12  7  1  0
  7 29  1  0
  9  8  1  0
 10  9  2  0
 10 11  1  0
 40 10  1  0
 11 12  2  0
 13 14  1  0
 30 13  1  0
 14 15  1  0
 16 17  1  0
 16 34  1  1
 17 21  1  1
 17 31  1  0
 18 36  1  1
 19 37  1  1
 19 38  1  0
 38 20  1  0
 21 22  1  0
 22 23  1  0
 22 27  1  0
 23 24  1  0
 24 25  1  0
 26 25  1  0
 27 26  1  0
 29 28  1  6
 29 39  1  0
 40 30  1  1
 40 32  2  0
 40 33  2  0
M  END
$$$$
