
     RDKit          3D

 40 43  0  0  0  0  0  0  0  0999 V2000
   73.0673   54.3103   12.7255 C   0  0  0  0  0  0  0  0  0  0  0  0
   70.6351   56.8300   15.4930 C   0  0  0  0  0  0  0  0  0  0  0  0
   72.9658   58.4804   17.8202 C   0  0  0  0  0  0  0  0  0  0  0  0
   75.7835   60.7382   17.5440 C   0  0  0  0  0  0  0  0  0  0  0  0
   74.1912   60.5150   19.2500 C   0  0  1  0  0  0  0  0  0  0  0  0
   72.9707   61.0509   18.5549 C   0  0  0  0  0  0  0  0  0  0  0  0
   67.3650   51.6603   12.5107 C   0  0  0  0  0  0  0  0  0  0  0  0
   68.0253   51.3920   13.6882 C   0  0  0  0  0  0  0  0  0  0  0  0
   68.4481   52.4163   14.5091 C   0  0  0  0  0  0  0  0  0  0  0  0
   68.2333   53.7179   14.1912 C   0  0  0  0  0  0  0  0  0  0  0  0
   67.5638   54.0146   12.9971 C   0  0  0  0  0  0  0  0  0  0  0  0
   67.1554   52.9860   12.2016 C   0  0  0  0  0  0  0  0  0  0  0  0
   71.0930   55.0535   13.9286 C   0  0  0  0  0  0  0  0  0  0  0  0
   72.5424   55.2728   13.8157 C   0  0  2  0  0  0  0  0  0  0  0  0
   72.9544   56.6516   13.3756 C   0  0  0  0  0  0  0  0  0  0  0  0
   70.1782   57.0048   16.9336 C   0  0  2  0  0  0  0  0  0  0  0  0
   70.4669   58.3415   17.4751 C   0  0  2  0  0  0  0  0  0  0  0  0
   75.0628   59.6863   18.3097 C   0  0  1  0  0  0  0  0  0  0  0  0
   75.0378   61.7622   19.3989 C   0  0  1  0  0  0  0  0  0  0  0  0
   72.9717   62.5004   18.9439 C   0  0  0  0  0  0  0  0  0  0  0  0
   69.4165   59.3793   17.1172 C   0  0  0  0  0  0  0  0  0  0  0  0
   69.2403   60.4172   18.1918 C   0  0  0  0  0  0  0  0  0  0  0  0
   68.9052   59.7616   19.5239 C   0  0  0  0  0  0  0  0  0  0  0  0
   68.5429   60.8173   20.5550 C   0  0  0  0  0  0  0  0  0  0  0  0
   67.3450   61.5914   20.0600 C   0  0  0  0  0  0  0  0  0  0  0  0
   67.7681   62.3420   18.8237 C   0  0  0  0  0  0  0  0  0  0  0  0
   68.1059   61.3319   17.7521 C   0  0  0  0  0  0  0  0  0  0  0  0
   66.2899   49.5011   12.4521 C   0  0  0  0  0  0  0  0  0  0  0  0
   66.8664   50.6148   11.5736 C   0  0  1  0  0  0  0  0  0  0  0  0
   70.3594   55.5087   15.0118 N   0  0  0  0  0  0  0  0  0  0  0  0
   71.7865   58.8201   17.1320 N   0  0  0  0  0  0  0  0  0  0  0  0
   67.8792   56.2860   14.8522 O   0  0  0  0  0  0  0  0  0  0  0  0
   68.4757   54.7435   16.6177 O   0  0  0  0  0  0  0  0  0  0  0  0
   70.5651   55.9467   17.7388 O   0  0  0  0  0  0  0  0  0  0  0  0
   73.0010   57.7500   18.8389 O   0  0  0  0  0  0  0  0  0  0  0  0
   74.2267   58.9517   17.4043 O   0  0  0  0  0  0  0  0  0  0  0  0
   75.7556   61.9264   18.2577 O   0  0  0  0  0  0  0  0  0  0  0  0
   74.1586   62.8169   19.5636 O   0  0  0  0  0  0  0  0  0  0  0  0
   65.8481   51.1826   10.8111 O   0  0  0  0  0  0  0  0  0  0  0  0
   68.7243   55.0625   15.1480 S   0  0  1  0  0  6  0  0  0  0  0  0
 14  1  1  6
  2 16  1  0
 30  2  1  0
 31  3  1  0
  3 35  2  0
  3 36  1  0
 18  4  1  0
  4 37  1  0
  5  6  1  6
 18  5  1  0
  5 19  1  0
  6 20  1  0
  8  7  2  0
 12  7  1  0
  7 29  1  0
  9  8  1  0
 10  9  2  0
 10 11  1  0
 40 10  1  0
 11 12  2  0
 13 14  1  0
 30 13  1  0
 14 15  1  0
 16 17  1  0
 16 34  1  1
 17 21  1  6
 17 31  1  0
 18 36  1  6
 19 37  1  6
 19 38  1  0
 38 20  1  0
 21 22  1  0
 22 23  1  0
 22 27  1  0
 23 24  1  0
 24 25  1  0
 26 25  1  0
 27 26  1  0
 29 28  1  1
 29 39  1  0
 40 30  1  1
 40 32  2  0
 40 33  2  0
M  END
$$$$
