
     RDKit          3D

 40 43  0  0  0  0  0  0  0  0999 V2000
   72.3358   54.1609   13.1640 C   0  0  0  0  0  0  0  0  0  0  0  0
   71.9960   57.0612   15.3615 C   0  0  0  0  0  0  0  0  0  0  0  0
   72.9347   59.2507   17.4432 C   0  0  0  0  0  0  0  0  0  0  0  0
   74.3538   61.8714   18.9196 C   0  0  0  0  0  0  0  0  0  0  0  0
   75.5739   60.1055   19.8625 C   0  0  1  0  0  0  0  0  0  0  0  0
   74.7299   59.8059   21.0699 C   0  0  0  0  0  0  0  0  0  0  0  0
   66.8505   55.7869   18.2435 C   0  0  0  0  0  0  0  0  0  0  0  0
   67.0217   54.9382   17.1735 C   0  0  0  0  0  0  0  0  0  0  0  0
   68.2800   54.6828   16.6699 C   0  0  0  0  0  0  0  0  0  0  0  0
   69.3893   55.2537   17.2034 C   0  0  0  0  0  0  0  0  0  0  0  0
   69.2389   56.1215   18.2926 C   0  0  0  0  0  0  0  0  0  0  0  0
   67.9858   56.3592   18.7732 C   0  0  0  0  0  0  0  0  0  0  0  0
   70.5909   55.5821   14.0765 C   0  0  0  0  0  0  0  0  0  0  0  0
   71.1004   55.0229   12.8160 C   0  0  2  0  0  0  0  0  0  0  0  0
   70.1551   54.1062   12.0875 C   0  0  0  0  0  0  0  0  0  0  0  0
   70.9566   58.1685   15.2715 C   0  0  2  0  0  0  0  0  0  0  0  0
   70.6142   58.7497   16.5785 C   0  0  2  0  0  0  0  0  0  0  0  0
   74.7209   60.4563   18.6459 C   0  0  1  0  0  0  0  0  0  0  0  0
   76.1457   61.4641   20.2114 C   0  0  1  0  0  0  0  0  0  0  0  0
   75.3743   60.6327   22.1439 C   0  0  0  0  0  0  0  0  0  0  0  0
   69.2543   59.4267   16.6023 C   0  0  0  0  0  0  0  0  0  0  0  0
   69.0857   60.3429   17.7835 C   0  0  0  0  0  0  0  0  0  0  0  0
   69.2380   59.5735   19.0879 C   0  0  0  0  0  0  0  0  0  0  0  0
   68.8798   60.4606   20.2684 C   0  0  0  0  0  0  0  0  0  0  0  0
   67.4488   60.9177   20.1183 C   0  0  0  0  0  0  0  0  0  0  0  0
   67.3786   61.7978   18.8972 C   0  0  0  0  0  0  0  0  0  0  0  0
   67.6932   60.9500   17.6868 C   0  0  0  0  0  0  0  0  0  0  0  0
   64.8962   54.7632   19.2203 C   0  0  0  0  0  0  0  0  0  0  0  0
   65.5300   56.1081   18.8542 C   0  0  1  0  0  0  0  0  0  0  0  0
   71.4027   55.7690   15.1832 N   0  0  0  0  0  0  0  0  0  0  0  0
   71.6310   59.6419   17.0868 N   0  0  0  0  0  0  0  0  0  0  0  0
   72.0155   55.4125   17.6889 O   0  0  0  0  0  0  0  0  0  0  0  0
   71.2188   53.5059   16.4311 O   0  0  0  0  0  0  0  0  0  0  0  0
   69.8750   57.8102   14.4843 O   0  0  0  0  0  0  0  0  0  0  0  0
   73.6678   58.5185   16.7368 O   0  0  0  0  0  0  0  0  0  0  0  0
   73.5257   59.6627   18.6538 O   0  0  0  0  0  0  0  0  0  0  0  0
   75.2524   62.4119   19.8266 O   0  0  0  0  0  0  0  0  0  0  0  0
   76.2988   61.4850   21.5857 O   0  0  0  0  0  0  0  0  0  0  0  0
   65.7688   56.8429   20.0134 O   0  0  0  0  0  0  0  0  0  0  0  0
   70.9977   54.9990   16.6441 S   0  0  1  0  0  6  0  0  0  0  0  0
 14  1  1  1
  2 16  1  0
 30  2  1  0
 31  3  1  0
  3 35  2  0
  3 36  1  0
 18  4  1  0
  4 37  1  0
  5  6  1  1
 18  5  1  0
  5 19  1  0
  6 20  1  0
  8  7  2  0
 12  7  1  0
  7 29  1  0
  9  8  1  0
 10  9  2  0
 10 11  1  0
 40 10  1  0
 11 12  2  0
 13 14  1  0
 30 13  1  0
 14 15  1  0
 16 17  1  0
 16 34  1  1
 17 21  1  6
 17 31  1  0
 18 36  1  1
 19 37  1  1
 19 38  1  0
 38 20  1  0
 21 22  1  0
 22 23  1  0
 22 27  1  0
 23 24  1  0
 24 25  1  0
 26 25  1  0
 27 26  1  0
 29 28  1  1
 29 39  1  0
 40 30  1  6
 40 32  2  0
 40 33  2  0
M  END
$$$$
