
     RDKit          3D

 40 43  0  0  0  0  0  0  0  0999 V2000
   73.7715   54.2929   14.3314 C   0  0  0  0  0  0  0  0  0  0  0  0
   71.8620   56.6969   15.2241 C   0  0  0  0  0  0  0  0  0  0  0  0
   72.3803   59.1654   18.3314 C   0  0  0  0  0  0  0  0  0  0  0  0
   75.0782   60.6860   18.5551 C   0  0  0  0  0  0  0  0  0  0  0  0
   73.4409   60.8900   20.2205 C   0  0  1  0  0  0  0  0  0  0  0  0
   72.2202   61.1234   19.3749 C   0  0  0  0  0  0  0  0  0  0  0  0
   66.7346   52.6936   13.2616 C   0  0  0  0  0  0  0  0  0  0  0  0
   67.7696   52.1666   14.0002 C   0  0  0  0  0  0  0  0  0  0  0  0
   68.6442   52.9905   14.6771 C   0  0  0  0  0  0  0  0  0  0  0  0
   68.5215   54.3414   14.6414 C   0  0  0  0  0  0  0  0  0  0  0  0
   67.4758   54.8999   13.8953 C   0  0  0  0  0  0  0  0  0  0  0  0
   66.6239   54.0662   13.2344 C   0  0  0  0  0  0  0  0  0  0  0  0
   71.4923   54.8567   13.7108 C   0  0  0  0  0  0  0  0  0  0  0  0
   72.8669   54.8145   13.1911 C   0  0  2  0  0  0  0  0  0  0  0  0
   73.0908   53.8803   12.0327 C   0  0  0  0  0  0  0  0  0  0  0  0
   70.9387   57.9023   15.1277 C   0  0  2  0  0  0  0  0  0  0  0  0
   70.8543   58.6692   16.3799 C   0  0  2  0  0  0  0  0  0  0  0  0
   74.3844   59.8704   19.5874 C   0  0  1  0  0  0  0  0  0  0  0  0
   74.2192   62.1714   20.0046 C   0  0  1  0  0  0  0  0  0  0  0  0
   72.1361   62.6205   19.3121 C   0  0  0  0  0  0  0  0  0  0  0  0
   70.0379   59.9444   16.2547 C   0  0  0  0  0  0  0  0  0  0  0  0
   69.0608   60.1181   17.3852 C   0  0  0  0  0  0  0  0  0  0  0  0
   69.5023   61.2430   18.3106 C   0  0  0  0  0  0  0  0  0  0  0  0
   68.6191   61.2867   19.5463 C   0  0  0  0  0  0  0  0  0  0  0  0
   68.7292   59.9669   20.2711 C   0  0  0  0  0  0  0  0  0  0  0  0
   68.1430   58.9063   19.3754 C   0  0  0  0  0  0  0  0  0  0  0  0
   69.0102   58.7988   18.1428 C   0  0  0  0  0  0  0  0  0  0  0  0
   64.6757   51.4650   13.5308 C   0  0  0  0  0  0  0  0  0  0  0  0
   65.7409   51.8760   12.5107 C   0  0  1  0  0  0  0  0  0  0  0  0
   71.1731   55.4815   14.9051 N   0  0  0  0  0  0  0  0  0  0  0  0
   72.1469   58.9526   16.9602 N   0  0  0  0  0  0  0  0  0  0  0  0
   69.0184   56.8632   15.3837 O   0  0  0  0  0  0  0  0  0  0  0  0
   69.6054   55.0999   16.9323 O   0  0  0  0  0  0  0  0  0  0  0  0
   69.7219   57.5860   14.5471 O   0  0  0  0  0  0  0  0  0  0  0  0
   71.5333   59.6418   19.1240 O   0  0  0  0  0  0  0  0  0  0  0  0
   73.6174   58.8526   18.9284 O   0  0  0  0  0  0  0  0  0  0  0  0
   74.9669   62.0293   18.8797 O   0  0  0  0  0  0  0  0  0  0  0  0
   73.2837   63.1749   19.8300 O   0  0  0  0  0  0  0  0  0  0  0  0
   65.1674   52.6950   11.5407 O   0  0  0  0  0  0  0  0  0  0  0  0
   69.5625   55.4496   15.4492 S   0  0  1  0  0  6  0  0  0  0  0  0
 14  1  1  1
  2 16  1  0
 30  2  1  0
 31  3  1  0
  3 35  2  0
  3 36  1  0
 18  4  1  0
  4 37  1  0
  5  6  1  6
 18  5  1  0
  5 19  1  0
  6 20  1  0
  8  7  2  0
 12  7  1  0
  7 29  1  0
  9  8  1  0
 10  9  2  0
 10 11  1  0
 40 10  1  0
 11 12  2  0
 13 14  1  0
 30 13  1  0
 14 15  1  0
 16 17  1  0
 16 34  1  1
 17 21  1  6
 17 31  1  0
 18 36  1  6
 19 37  1  6
 19 38  1  0
 38 20  1  0
 21 22  1  0
 22 23  1  0
 22 27  1  0
 23 24  1  0
 24 25  1  0
 26 25  1  0
 27 26  1  0
 29 28  1  1
 29 39  1  0
 40 30  1  6
 40 32  2  0
 40 33  2  0
M  END
$$$$
