
     RDKit          3D

 40 43  0  0  0  0  0  0  0  0999 V2000
   68.6771   57.9762   13.7494 C   0  0  0  0  0  0  0  0  0  0  0  0
   71.3379   56.9643   14.3167 C   0  0  0  0  0  0  0  0  0  0  0  0
   72.8582   59.0276   17.5940 C   0  0  0  0  0  0  0  0  0  0  0  0
   75.9515   60.8205   18.4925 C   0  0  0  0  0  0  0  0  0  0  0  0
   73.9883   60.5938   19.7535 C   0  0  1  0  0  0  0  0  0  0  0  0
   73.1011   61.5874   19.0569 C   0  0  0  0  0  0  0  0  0  0  0  0
   72.1009   50.4525   13.4420 C   0  0  0  0  0  0  0  0  0  0  0  0
   73.0476   51.4405   13.2935 C   0  0  0  0  0  0  0  0  0  0  0  0
   72.8562   52.6897   13.8457 C   0  0  0  0  0  0  0  0  0  0  0  0
   71.7365   52.9924   14.5500 C   0  0  0  0  0  0  0  0  0  0  0  0
   70.7591   52.0025   14.7132 C   0  0  0  0  0  0  0  0  0  0  0  0
   70.9698   50.7755   14.1584 C   0  0  0  0  0  0  0  0  0  0  0  0
   69.3293   55.6567   14.0532 C   0  0  0  0  0  0  0  0  0  0  0  0
   68.4390   56.6982   14.5863 C   0  0  2  0  0  0  0  0  0  0  0  0
   66.9667   56.4069   14.4769 C   0  0  0  0  0  0  0  0  0  0  0  0
   70.4110   58.0201   14.9004 C   0  0  2  0  0  0  0  0  0  0  0  0
   70.7966   58.4451   16.2547 C   0  0  2  0  0  0  0  0  0  0  0  0
   74.8733   59.8339   18.7687 C   0  0  1  0  0  0  0  0  0  0  0  0
   75.0082   61.4971   20.4155 C   0  0  1  0  0  0  0  0  0  0  0  0
   73.3009   62.8384   19.8615 C   0  0  0  0  0  0  0  0  0  0  0  0
   70.1132   59.7252   16.7049 C   0  0  0  0  0  0  0  0  0  0  0  0
   70.1839   59.9247   18.1943 C   0  0  0  0  0  0  0  0  0  0  0  0
   69.4560   58.8039   18.9228 C   0  0  0  0  0  0  0  0  0  0  0  0
   69.3676   59.1108   20.4084 C   0  0  0  0  0  0  0  0  0  0  0  0
   68.6131   60.4051   20.5949 C   0  0  0  0  0  0  0  0  0  0  0  0
   69.4437   61.5067   19.9890 C   0  0  0  0  0  0  0  0  0  0  0  0
   69.5316   61.2656   18.5000 C   0  0  0  0  0  0  0  0  0  0  0  0
   71.1034   48.2569   13.5171 C   0  0  0  0  0  0  0  0  0  0  0  0
   72.2336   49.0759   12.8877 C   0  0  1  0  0  0  0  0  0  0  0  0
   70.6997   55.6827   14.2541 N   0  0  0  0  0  0  0  0  0  0  0  0
   72.2271   58.5476   16.4316 N   0  0  0  0  0  0  0  0  0  0  0  0
   70.5243   54.3705   16.4965 O   0  0  0  0  0  0  0  0  0  0  0  0
   72.7121   55.1187   15.7853 O   0  0  0  0  0  0  0  0  0  0  0  0
   69.0752   57.6898   14.7444 O   0  0  0  0  0  0  0  0  0  0  0  0
   72.3456   58.9950   18.7380 O   0  0  0  0  0  0  0  0  0  0  0  0
   74.1460   59.5974   17.5548 O   0  0  0  0  0  0  0  0  0  0  0  0
   75.9943   61.7532   19.5174 O   0  0  0  0  0  0  0  0  0  0  0  0
   74.3454   62.6666   20.7403 O   0  0  0  0  0  0  0  0  0  0  0  0
   72.0417   49.1554   11.5102 O   0  0  0  0  0  0  0  0  0  0  0  0
   71.4072   54.5199   15.2731 S   0  0  1  0  0  6  0  0  0  0  0  0
 14  1  1  6
  2 16  1  0
 30  2  1  0
 31  3  1  0
  3 35  2  0
  3 36  1  0
 18  4  1  0
  4 37  1  0
  5  6  1  6
 18  5  1  0
  5 19  1  0
  6 20  1  0
  8  7  2  0
 12  7  1  0
  7 29  1  0
  9  8  1  0
 10  9  2  0
 10 11  1  0
 40 10  1  0
 11 12  2  0
 13 14  1  0
 30 13  1  0
 14 15  1  0
 16 17  1  0
 16 34  1  1
 17 21  1  6
 17 31  1  0
 18 36  1  6
 19 37  1  6
 19 38  1  0
 38 20  1  0
 21 22  1  0
 22 23  1  0
 22 27  1  0
 23 24  1  0
 24 25  1  0
 26 25  1  0
 27 26  1  0
 29 28  1  1
 29 39  1  0
 40 30  1  6
 40 32  2  0
 40 33  2  0
M  END
$$$$
