
     RDKit          3D

 40 43  0  0  0  0  0  0  0  0999 V2000
   74.1880   54.5891   15.0549 C   0  0  0  0  0  0  0  0  0  0  0  0
   72.0116   57.0754   14.9565 C   0  0  0  0  0  0  0  0  0  0  0  0
   72.4708   60.0425   17.6208 C   0  0  0  0  0  0  0  0  0  0  0  0
   73.3530   60.7827   20.6295 C   0  0  0  0  0  0  0  0  0  0  0  0
   74.6672   61.1745   18.7281 C   0  0  1  0  0  0  0  0  0  0  0  0
   74.6013   59.8249   18.0690 C   0  0  0  0  0  0  0  0  0  0  0  0
   67.3236   52.6724   13.3717 C   0  0  0  0  0  0  0  0  0  0  0  0
   67.0625   54.0190   13.2586 C   0  0  0  0  0  0  0  0  0  0  0  0
   67.8367   54.9461   13.9244 C   0  0  0  0  0  0  0  0  0  0  0  0
   68.8764   54.5712   14.7115 C   0  0  0  0  0  0  0  0  0  0  0  0
   69.1601   53.2057   14.8420 C   0  0  0  0  0  0  0  0  0  0  0  0
   68.3814   52.3078   14.1749 C   0  0  0  0  0  0  0  0  0  0  0  0
   71.9590   54.8154   14.1180 C   0  0  0  0  0  0  0  0  0  0  0  0
   73.3768   54.7080   13.7441 C   0  0  2  0  0  0  0  0  0  0  0  0
   73.7394   53.4965   12.9284 C   0  0  0  0  0  0  0  0  0  0  0  0
   70.8861   58.0979   15.0039 C   0  0  2  0  0  0  0  0  0  0  0  0
   70.7410   58.7396   16.3194 C   0  0  2  0  0  0  0  0  0  0  0  0
   73.3342   61.5624   19.3630 C   0  0  1  0  0  0  0  0  0  0  0  0
   75.4954   60.8789   19.9614 C   0  0  1  0  0  0  0  0  0  0  0  0
   75.8255   59.1342   18.5947 C   0  0  0  0  0  0  0  0  0  0  0  0
   69.3115   59.1389   16.6437 C   0  0  0  0  0  0  0  0  0  0  0  0
   69.1642   59.6739   18.0420 C   0  0  0  0  0  0  0  0  0  0  0  0
   69.3207   58.5577   19.0649 C   0  0  0  0  0  0  0  0  0  0  0  0
   68.9834   59.0665   20.4564 C   0  0  0  0  0  0  0  0  0  0  0  0
   67.5561   59.5582   20.4631 C   0  0  0  0  0  0  0  0  0  0  0  0
   67.4836   60.7555   19.5510 C   0  0  0  0  0  0  0  0  0  0  0  0
   67.7774   60.2933   18.1428 C   0  0  0  0  0  0  0  0  0  0  0  0
   65.9035   52.2783   11.4614 C   0  0  0  0  0  0  0  0  0  0  0  0
   66.5446   51.6076   12.6794 C   0  0  1  0  0  0  0  0  0  0  0  0
   71.5085   55.7368   15.0491 N   0  0  0  0  0  0  0  0  0  0  0  0
   71.6328   59.8614   16.5052 N   0  0  0  0  0  0  0  0  0  0  0  0
   69.3301   57.0579   15.5878 O   0  0  0  0  0  0  0  0  0  0  0  0
   69.9377   55.2250   17.0449 O   0  0  0  0  0  0  0  0  0  0  0  0
   69.7123   57.6123   14.4525 O   0  0  0  0  0  0  0  0  0  0  0  0
   73.4554   59.3130   17.8875 O   0  0  0  0  0  0  0  0  0  0  0  0
   72.2567   61.0834   18.5456 O   0  0  0  0  0  0  0  0  0  0  0  0
   74.6602   60.4388   20.9378 O   0  0  0  0  0  0  0  0  0  0  0  0
   76.3830   59.8787   19.6085 O   0  0  0  0  0  0  0  0  0  0  0  0
   67.4457   50.6334   12.2558 O   0  0  0  0  0  0  0  0  0  0  0  0
   69.8960   55.6514   15.5821 S   0  0  1  0  0  6  0  0  0  0  0  0
 14  1  1  1
  2 16  1  0
 30  2  1  0
 31  3  1  0
  3 35  2  0
  3 36  1  0
 18  4  1  0
  4 37  1  0
  5  6  1  6
 18  5  1  0
  5 19  1  0
  6 20  1  0
  8  7  2  0
 12  7  1  0
  7 29  1  0
  9  8  1  0
 10  9  2  0
 10 11  1  0
 40 10  1  0
 11 12  2  0
 13 14  1  0
 30 13  1  0
 14 15  1  0
 16 17  1  0
 16 34  1  1
 17 21  1  6
 17 31  1  0
 18 36  1  6
 19 37  1  1
 19 38  1  0
 38 20  1  0
 21 22  1  0
 22 23  1  0
 22 27  1  0
 23 24  1  0
 24 25  1  0
 26 25  1  0
 27 26  1  0
 29 28  1  6
 29 39  1  0
 40 30  1  6
 40 32  2  0
 40 33  2  0
M  END
$$$$
