
     RDKit          3D

 40 43  0  0  0  0  0  0  0  0999 V2000
   67.7724   54.2003   14.7931 C   0  0  0  0  0  0  0  0  0  0  0  0
   71.5870   56.8845   14.3354 C   0  0  0  0  0  0  0  0  0  0  0  0
   72.8616   59.1096   17.6392 C   0  0  0  0  0  0  0  0  0  0  0  0
   75.8482   60.5511   18.4522 C   0  0  0  0  0  0  0  0  0  0  0  0
   73.7743   60.7613   19.5251 C   0  0  1  0  0  0  0  0  0  0  0  0
   72.9287   61.2610   18.3871 C   0  0  0  0  0  0  0  0  0  0  0  0
   72.4205   50.7501   12.9748 C   0  0  0  0  0  0  0  0  0  0  0  0
   73.1407   51.9095   12.7970 C   0  0  0  0  0  0  0  0  0  0  0  0
   72.8211   53.0531   13.4985 C   0  0  0  0  0  0  0  0  0  0  0  0
   71.7924   53.0813   14.3829 C   0  0  0  0  0  0  0  0  0  0  0  0
   71.0451   51.9131   14.5794 C   0  0  0  0  0  0  0  0  0  0  0  0
   71.3790   50.7950   13.8750 C   0  0  0  0  0  0  0  0  0  0  0  0
   69.3369   56.0266   14.4543 C   0  0  0  0  0  0  0  0  0  0  0  0
   68.3520   55.1885   13.7549 C   0  0  2  0  0  0  0  0  0  0  0  0
   67.1684   55.9225   13.1849 C   0  0  0  0  0  0  0  0  0  0  0  0
   70.8537   58.1955   14.5764 C   0  0  2  0  0  0  0  0  0  0  0  0
   71.0339   58.7183   15.9393 C   0  0  2  0  0  0  0  0  0  0  0  0
   74.7837   59.7123   19.0651 C   0  0  1  0  0  0  0  0  0  0  0  0
   74.6867   61.9436   19.7779 C   0  0  1  0  0  0  0  0  0  0  0  0
   72.9986   62.7516   18.5458 C   0  0  0  0  0  0  0  0  0  0  0  0
   70.3511   60.0558   16.1697 C   0  0  0  0  0  0  0  0  0  0  0  0
   69.5391   60.0794   17.4359 C   0  0  0  0  0  0  0  0  0  0  0  0
   70.3825   60.5617   18.6076 C   0  0  0  0  0  0  0  0  0  0  0  0
   69.6161   60.4024   19.9099 C   0  0  0  0  0  0  0  0  0  0  0  0
   69.2773   58.9437   20.1010 C   0  0  0  0  0  0  0  0  0  0  0  0
   68.3226   58.5513   19.0032 C   0  0  0  0  0  0  0  0  0  0  0  0
   69.0516   58.6590   17.6842 C   0  0  0  0  0  0  0  0  0  0  0  0
   73.2211   48.5028   13.3348 C   0  0  0  0  0  0  0  0  0  0  0  0
   72.7054   49.4707   12.2664 C   0  0  1  0  0  0  0  0  0  0  0  0
   70.6962   55.7643   14.4072 N   0  0  0  0  0  0  0  0  0  0  0  0
   72.4195   58.7828   16.3440 N   0  0  0  0  0  0  0  0  0  0  0  0
   70.2955   54.0875   16.3588 O   0  0  0  0  0  0  0  0  0  0  0  0
   72.5237   54.9837   16.0695 O   0  0  0  0  0  0  0  0  0  0  0  0
   69.5436   58.1538   14.1296 O   0  0  0  0  0  0  0  0  0  0  0  0
   72.1303   59.6075   18.5280 O   0  0  0  0  0  0  0  0  0  0  0  0
   74.1952   58.8978   18.0411 O   0  0  0  0  0  0  0  0  0  0  0  0
   75.7507   61.8454   18.9394 O   0  0  0  0  0  0  0  0  0  0  0  0
   73.9519   63.0775   19.4827 O   0  0  0  0  0  0  0  0  0  0  0  0
   71.5014   48.9975   11.7495 O   0  0  0  0  0  0  0  0  0  0  0  0
   71.3167   54.4578   15.3013 S   0  0  1  0  0  6  0  0  0  0  0  0
 14  1  1  1
  2 16  1  0
 30  2  1  0
 31  3  1  0
  3 35  2  0
  3 36  1  0
 18  4  1  0
  4 37  1  0
  5  6  1  6
 18  5  1  0
  5 19  1  0
  6 20  1  0
  8  7  2  0
 12  7  1  0
  7 29  1  0
  9  8  1  0
 10  9  2  0
 10 11  1  0
 40 10  1  0
 11 12  2  0
 13 14  1  0
 30 13  1  0
 14 15  1  0
 16 17  1  0
 16 34  1  1
 17 21  1  6
 17 31  1  0
 18 36  1  6
 19 37  1  6
 19 38  1  0
 38 20  1  0
 21 22  1  0
 22 23  1  0
 22 27  1  0
 23 24  1  0
 24 25  1  0
 26 25  1  0
 27 26  1  0
 29 28  1  1
 29 39  1  0
 40 30  1  6
 40 32  2  0
 40 33  2  0
M  END
$$$$
