
     RDKit          3D

 40 43  0  0  0  0  0  0  0  0999 V2000
   73.2241   54.2853   15.2197 C   0  0  0  0  0  0  0  0  0  0  0  0
   70.7025   57.2204   14.3592 C   0  0  0  0  0  0  0  0  0  0  0  0
   70.4000   59.2665   17.8411 C   0  0  0  0  0  0  0  0  0  0  0  0
   67.6153   60.0867   19.8115 C   0  0  0  0  0  0  0  0  0  0  0  0
   69.8834   60.5930   20.1207 C   0  0  1  0  0  0  0  0  0  0  0  0
   70.4564   59.2090   20.2467 C   0  0  0  0  0  0  0  0  0  0  0  0
   66.5929   52.5579   13.2905 C   0  0  0  0  0  0  0  0  0  0  0  0
   66.4639   53.9229   13.1692 C   0  0  0  0  0  0  0  0  0  0  0  0
   67.3076   54.7746   13.8508 C   0  0  0  0  0  0  0  0  0  0  0  0
   68.2891   54.3055   14.6619 C   0  0  0  0  0  0  0  0  0  0  0  0
   68.4384   52.9197   14.8010 C   0  0  0  0  0  0  0  0  0  0  0  0
   67.5929   52.0974   14.1180 C   0  0  0  0  0  0  0  0  0  0  0  0
   71.3730   54.9716   13.8056 C   0  0  0  0  0  0  0  0  0  0  0  0
   72.8276   54.7587   13.8023 C   0  0  2  0  0  0  0  0  0  0  0  0
   73.3219   53.6922   12.8626 C   0  0  0  0  0  0  0  0  0  0  0  0
   72.0075   57.9255   14.6976 C   0  0  2  0  0  0  0  0  0  0  0  0
   71.8951   58.8304   15.8517 C   0  0  2  0  0  0  0  0  0  0  0  0
   68.7745   60.6558   19.0733 C   0  0  1  0  0  0  0  0  0  0  0  0
   69.0772   60.7140   21.3974 C   0  0  1  0  0  0  0  0  0  0  0  0
   70.4551   58.9784   21.7296 C   0  0  0  0  0  0  0  0  0  0  0  0
   73.1762   58.9413   16.6609 C   0  0  0  0  0  0  0  0  0  0  0  0
   73.0810   59.9692   17.7552 C   0  0  0  0  0  0  0  0  0  0  0  0
   72.9461   61.3678   17.1699 C   0  0  0  0  0  0  0  0  0  0  0  0
   73.0422   62.4114   18.2702 C   0  0  0  0  0  0  0  0  0  0  0  0
   74.3824   62.2788   18.9524 C   0  0  0  0  0  0  0  0  0  0  0  0
   74.4105   60.9396   19.6426 C   0  0  0  0  0  0  0  0  0  0  0  0
   74.3532   59.8629   18.5841 C   0  0  0  0  0  0  0  0  0  0  0  0
   66.1249   51.6495   11.1048 C   0  0  0  0  0  0  0  0  0  0  0  0
   65.7317   51.5695   12.5825 C   0  0  1  0  0  0  0  0  0  0  0  0
   70.7541   55.8294   14.7000 N   0  0  0  0  0  0  0  0  0  0  0  0
   70.7794   58.5146   16.7139 N   0  0  0  0  0  0  0  0  0  0  0  0
   68.6903   56.4992   16.1398 O   0  0  0  0  0  0  0  0  0  0  0  0
   69.9009   54.4960   16.7509 O   0  0  0  0  0  0  0  0  0  0  0  0
   72.6151   58.4702   13.5787 O   0  0  0  0  0  0  0  0  0  0  0  0
   71.1650   59.5364   18.7974 O   0  0  0  0  0  0  0  0  0  0  0  0
   69.0965   59.7822   17.9817 O   0  0  0  0  0  0  0  0  0  0  0  0
   67.8480   60.1809   21.1750 O   0  0  0  0  0  0  0  0  0  0  0  0
   69.7481   59.9780   22.3571 O   0  0  0  0  0  0  0  0  0  0  0  0
   66.0422   50.3062   13.0807 O   0  0  0  0  0  0  0  0  0  0  0  0
   69.3872   55.2871   15.5535 S   0  0  1  0  0  6  0  0  0  0  0  0
 14  1  1  1
  2 16  1  0
 30  2  1  0
 31  3  1  0
  3 35  2  0
  3 36  1  0
 18  4  1  0
  4 37  1  0
  5  6  1  1
 18  5  1  0
  5 19  1  0
  6 20  1  0
  8  7  2  0
 12  7  1  0
  7 29  1  0
  9  8  1  0
 10  9  2  0
 10 11  1  0
 40 10  1  0
 11 12  2  0
 13 14  1  0
 30 13  1  0
 14 15  1  0
 16 17  1  0
 16 34  1  6
 17 21  1  1
 17 31  1  0
 18 36  1  6
 19 37  1  6
 19 38  1  0
 38 20  1  0
 21 22  1  0
 22 23  1  0
 22 27  1  0
 23 24  1  0
 24 25  1  0
 26 25  1  0
 27 26  1  0
 29 28  1  6
 29 39  1  0
 40 30  1  6
 40 32  2  0
 40 33  2  0
M  END
$$$$
