
     RDKit          3D

 44 46  0  0  0  0  0  0  0  0999 V2000
    0.2538  -20.4845   33.7787 O   0  0  0  0  0  0  0  0  0  0  0  0
   -0.7224  -19.6457   33.4772 C   0  0  0  0  0  0  0  0  0  0  0  0
   -0.3570  -18.2268   33.3370 C   0  0  0  0  0  0  0  0  0  0  0  0
   -0.9808  -17.0765   33.7692 C   0  0  0  0  0  0  0  0  0  0  0  0
   -0.3862  -15.8708   33.4715 C   0  0  0  0  0  0  0  0  0  0  0  0
   -0.8580  -14.4818   33.7948 C   0  0  0  0  0  0  0  0  0  0  0  0
   -2.0434  -14.0327   32.9535 C   0  0  0  0  0  0  0  0  0  0  0  0
   -1.7132  -13.9164   31.5095 C   0  0  0  0  0  0  0  0  0  0  0  0
   -2.7702  -14.5046   30.6185 C   0  0  0  0  0  0  0  0  0  0  0  0
   -2.7458  -15.9906   30.5053 C   0  0  0  0  0  0  0  0  0  0  0  0
   -2.0120  -16.3711   29.3514 C   0  0  0  0  0  0  0  0  0  0  0  0
   -1.8030  -17.6682   28.9813 C   0  0  0  0  0  0  0  0  0  0  0  0
   -2.3596  -18.5967   29.8149 C   0  0  0  0  0  0  0  0  0  0  0  0
   -3.1007  -18.2695   30.9789 C   0  0  0  0  0  0  0  0  0  0  0  0
   -3.5584  -19.5275   31.6435 C   0  0  0  0  0  0  0  0  0  0  0  0
   -3.2412  -19.7480   33.0709 C   0  0  1  0  0  0  0  0  0  0  0  0
   -4.3068  -20.6920   33.6359 C   0  0  0  0  0  0  0  0  0  0  0  0
   -3.8923  -21.3089   34.8530 N   0  0  0  0  0  4  0  0  0  0  0  0
   -2.5599  -20.8210   35.2775 C   0  0  2  0  0  0  0  0  0  0  0  0
   -2.8489  -19.6073   36.1394 C   0  0  0  0  0  0  0  0  0  0  0  0
   -3.0392  -19.7187   37.5179 N   0  0  0  0  0  0  0  0  0  0  0  0
   -3.5593  -18.7110   38.3779 C   0  0  0  0  0  0  0  0  0  0  0  0
   -5.0045  -18.4978   38.5070 C   0  0  2  0  0  0  0  0  0  0  0  0
   -5.7592  -17.9070   37.3742 C   0  0  0  0  0  0  0  0  0  0  0  0
   -5.3583  -17.6870   39.7670 C   0  0  0  0  0  0  0  0  0  0  0  0
   -2.9135  -18.5053   35.5711 O   0  0  0  0  0  0  0  0  0  0  0  0
   -1.8770  -20.3473   34.0382 C   0  0  1  0  0  0  0  0  0  0  0  0
   -0.7217  -19.6405   34.4380 O   0  0  0  0  0  0  0  0  0  0  0  0
   -1.4644  -21.3868   33.0619 C   0  0  0  0  0  0  0  0  0  0  0  0
   -0.7235  -20.8457   31.8615 C   0  0  0  0  0  0  0  0  0  0  0  0
    0.0024  -22.0384   31.2402 C   0  0  0  0  0  0  0  0  0  0  0  0
   -1.9480  -20.3417   33.3501 N   0  0  0  0  0  0  0  0  0  0  0  0
   -3.2946  -16.9490   31.3258 C   0  0  0  0  0  0  0  0  0  0  0  0
    0.8300  -15.8228   32.7455 C   0  0  0  0  0  0  0  0  0  0  0  0
    1.4737  -16.9428   32.3046 C   0  0  0  0  0  0  0  0  0  0  0  0
    2.6901  -16.8947   31.5767 N   0  0  0  0  0  0  0  0  0  0  0  0
    2.9987  -15.6187   30.9495 C   0  0  0  0  0  0  0  0  0  0  0  0
    2.0708  -15.3894   29.7667 C   0  0  0  0  0  0  0  0  0  0  0  0
    2.8629  -15.2970   28.4821 C   0  0  0  0  0  0  0  0  0  0  0  0
    3.7560  -18.2303   31.4232 S   0  0  2  0  0  6  0  0  0  0  0  0
    2.9515  -19.4063   30.9155 O   0  0  0  0  0  0  0  0  0  0  0  0
    4.4917  -18.6091   32.9863 C   0  0  0  0  0  0  0  0  0  0  0  0
    4.7691  -17.9126   30.3711 O   0  0  0  0  0  0  0  0  0  0  0  0
    0.8690  -18.1193   32.6083 C   0  0  0  0  0  0  0  0  0  0  0  0
  1  2  2  0
  2  3  1  0
  2 32  1  0
  3  4  1  0
  3 44  2  0
  4  5  2  0
  5  6  1  0
  5 34  1  0
  6  7  1  0
  7  8  1  0
  8  9  1  0
  9 10  1  0
 10 11  1  0
 10 33  2  0
 11 12  2  0
 12 13  1  0
 13 14  2  0
 14 15  1  0
 14 33  1  0
 15 16  1  0
 16 17  1  6
 16 32  1  0
 17 18  1  0
 19 18  1  6
 19 20  1  0
 19 27  1  0
 20 21  1  0
 20 26  2  0
 21 22  1  0
 22 23  1  0
 23 24  1  6
 23 25  1  0
 27 28  1  1
 27 29  1  0
 29 30  1  0
 30 31  1  0
 34 35  2  0
 35 36  1  0
 35 44  1  0
 36 37  1  0
 36 40  1  0
 37 38  1  0
 38 39  1  0
 40 41  2  0
 40 42  1  1
 40 43  2  0
M  CHG  1  18   1
M  END
$$$$
