
     RDKit          3D

 44 46  0  0  0  0  0  0  0  0999 V2000
    1.3649  -17.3641   34.9265 O   0  0  0  0  0  0  0  0  0  0  0  0
    0.4876  -17.5928   33.9647 C   0  0  0  0  0  0  0  0  0  0  0  0
    0.6227  -16.7882   32.7395 C   0  0  0  0  0  0  0  0  0  0  0  0
   -0.3178  -16.1647   31.9486 C   0  0  0  0  0  0  0  0  0  0  0  0
    0.1257  -15.4793   30.8397 C   0  0  0  0  0  0  0  0  0  0  0  0
   -0.6750  -14.7403   29.8056 C   0  0  0  0  0  0  0  0  0  0  0  0
   -1.4337  -15.6566   28.8573 C   0  0  0  0  0  0  0  0  0  0  0  0
   -0.5336  -16.4850   28.0141 C   0  0  0  0  0  0  0  0  0  0  0  0
   -0.9756  -17.9176   27.9189 C   0  0  0  0  0  0  0  0  0  0  0  0
   -0.6445  -18.7610   29.1025 C   0  0  0  0  0  0  0  0  0  0  0  0
    0.5727  -19.4537   28.8716 C   0  0  0  0  0  0  0  0  0  0  0  0
    1.1457  -20.2991   29.7772 C   0  0  0  0  0  0  0  0  0  0  0  0
    0.4537  -20.4368   30.9473 C   0  0  0  0  0  0  0  0  0  0  0  0
   -0.7650  -19.7678   31.2274 C   0  0  0  0  0  0  0  0  0  0  0  0
   -1.2384  -20.1533   32.5916 C   0  0  0  0  0  0  0  0  0  0  0  0
   -1.5415  -19.0940   33.5780 C   0  0  1  0  0  0  0  0  0  0  0  0
   -2.5631  -19.6667   34.5650 C   0  0  0  0  0  0  0  0  0  0  0  0
   -2.1469  -19.5188   35.9210 N   0  0  0  0  0  4  0  0  0  0  0  0
   -3.1371  -18.7474   36.7071 C   0  0  2  0  0  0  0  0  0  0  0  0
   -4.1661  -19.7716   37.1447 C   0  0  0  0  0  0  0  0  0  0  0  0
   -4.3861  -20.0559   38.4937 N   0  0  0  0  0  0  0  0  0  0  0  0
   -5.0251  -21.2163   39.0140 C   0  0  0  0  0  0  0  0  0  0  0  0
   -5.0630  -21.4772   40.4567 C   0  0  2  0  0  0  0  0  0  0  0  0
   -6.1083  -20.8307   41.2881 C   0  0  0  0  0  0  0  0  0  0  0  0
   -3.7058  -21.2015   41.1291 C   0  0  0  0  0  0  0  0  0  0  0  0
   -4.8073  -20.3536   36.2550 O   0  0  0  0  0  0  0  0  0  0  0  0
   -3.7994  -17.8192   35.7445 C   0  0  1  0  0  0  0  0  0  0  0  0
   -5.0035  -17.3838   36.3400 O   0  0  0  0  0  0  0  0  0  0  0  0
   -3.0292  -16.6180   35.3347 C   0  0  0  0  0  0  0  0  0  0  0  0
   -3.8767  -15.3858   35.1203 C   0  0  0  0  0  0  0  0  0  0  0  0
   -2.8992  -14.2425   34.8507 C   0  0  0  0  0  0  0  0  0  0  0  0
   -0.4173  -18.6086   34.3548 N   0  0  0  0  0  0  0  0  0  0  0  0
   -1.3186  -18.9201   30.2913 C   0  0  0  0  0  0  0  0  0  0  0  0
    1.5074  -15.4196   30.5300 C   0  0  0  0  0  0  0  0  0  0  0  0
    2.4639  -16.0245   31.2930 C   0  0  0  0  0  0  0  0  0  0  0  0
    3.8465  -15.9660   30.9821 N   0  0  0  0  0  0  0  0  0  0  0  0
    4.6324  -17.1219   31.3861 C   0  0  0  0  0  0  0  0  0  0  0  0
    6.0715  -16.9518   30.9253 C   0  0  0  0  0  0  0  0  0  0  0  0
    6.9156  -18.1202   31.3818 C   0  0  0  0  0  0  0  0  0  0  0  0
    4.5826  -14.6387   30.1820 S   0  0  2  0  0  6  0  0  0  0  0  0
    3.5377  -13.5561   30.0280 O   0  0  0  0  0  0  0  0  0  0  0  0
    5.1953  -15.1407   28.6007 C   0  0  0  0  0  0  0  0  0  0  0  0
    5.6532  -14.0843   31.0655 O   0  0  0  0  0  0  0  0  0  0  0  0
    2.0038  -16.6950   32.3796 C   0  0  0  0  0  0  0  0  0  0  0  0
  1  2  2  0
  2  3  1  0
  2 32  1  0
  3  4  1  0
  3 44  2  0
  4  5  2  0
  5  6  1  0
  5 34  1  0
  6  7  1  0
  7  8  1  0
  8  9  1  0
  9 10  1  0
 10 11  1  0
 10 33  2  0
 11 12  2  0
 12 13  1  0
 13 14  2  0
 14 15  1  0
 14 33  1  0
 15 16  1  0
 16 17  1  1
 16 32  1  0
 17 18  1  0
 19 18  1  6
 19 20  1  0
 19 27  1  0
 20 21  1  0
 20 26  2  0
 21 22  1  0
 22 23  1  0
 23 24  1  1
 23 25  1  0
 27 28  1  1
 27 29  1  0
 29 30  1  0
 30 31  1  0
 34 35  2  0
 35 36  1  0
 35 44  1  0
 36 37  1  0
 36 40  1  0
 37 38  1  0
 38 39  1  0
 40 41  2  0
 40 42  1  6
 40 43  2  0
M  CHG  1  18   1
M  END
$$$$
