
     RDKit          3D

 44 46  0  0  0  0  0  0  0  0999 V2000
    0.0045  -20.1822   34.4139 O   0  0  0  0  0  0  0  0  0  0  0  0
   -0.6281  -19.0961   34.0047 C   0  0  0  0  0  0  0  0  0  0  0  0
    0.2056  -17.9296   33.6718 C   0  0  0  0  0  0  0  0  0  0  0  0
    0.0497  -16.5881   33.9461 C   0  0  0  0  0  0  0  0  0  0  0  0
    1.0145  -15.7204   33.4853 C   0  0  0  0  0  0  0  0  0  0  0  0
    1.0791  -14.2256   33.6187 C   0  0  0  0  0  0  0  0  0  0  0  0
    0.0860  -13.4938   32.7284 C   0  0  0  0  0  0  0  0  0  0  0  0
    0.3611  -13.6849   31.2809 C   0  0  0  0  0  0  0  0  0  0  0  0
   -0.8797  -13.9656   30.4818 C   0  0  0  0  0  0  0  0  0  0  0  0
   -1.3859  -15.3647   30.5713 C   0  0  0  0  0  0  0  0  0  0  0  0
   -0.8936  -16.1230   29.4771 C   0  0  0  0  0  0  0  0  0  0  0  0
   -1.1739  -17.4451   29.2858 C   0  0  0  0  0  0  0  0  0  0  0  0
   -1.9780  -18.0023   30.2397 C   0  0  0  0  0  0  0  0  0  0  0  0
   -2.4953  -17.2894   31.3511 C   0  0  0  0  0  0  0  0  0  0  0  0
   -3.3316  -18.2081   32.1820 C   0  0  0  0  0  0  0  0  0  0  0  0
   -3.0392  -18.3458   33.6250 C   0  0  1  0  0  0  0  0  0  0  0  0
   -4.3382  -18.7700   34.3167 C   0  0  0  0  0  0  0  0  0  0  0  0
   -4.2174  -20.0338   34.9661 N   0  0  0  0  0  4  0  0  0  0  0  0
   -3.6190  -19.8919   36.3135 C   0  0  2  0  0  0  0  0  0  0  0  0
   -2.2238  -20.4709   36.1800 C   0  0  0  0  0  0  0  0  0  0  0  0
   -1.3899  -20.6306   37.2882 N   0  0  0  0  0  0  0  0  0  0  0  0
   -0.6634  -21.8057   37.6300 C   0  0  0  0  0  0  0  0  0  0  0  0
    0.2178  -21.8370   38.8019 C   0  0  2  0  0  0  0  0  0  0  0  0
   -0.1564  -22.6654   39.9747 C   0  0  0  0  0  0  0  0  0  0  0  0
    0.5378  -20.4235   39.3214 C   0  0  0  0  0  0  0  0  0  0  0  0
   -1.8468  -20.7969   35.0428 O   0  0  0  0  0  0  0  0  0  0  0  0
   -4.4010  -20.7908   37.2119 C   0  0  1  0  0  0  0  0  0  0  0  0
   -4.1739  -22.1167   36.7824 O   0  0  0  0  0  0  0  0  0  0  0  0
   -4.0943  -20.7192   38.6627 C   0  0  0  0  0  0  0  0  0  0  0  0
   -4.9365  -21.6377   39.5169 C   0  0  0  0  0  0  0  0  0  0  0  0
   -4.4282  -21.4678   40.9480 C   0  0  0  0  0  0  0  0  0  0  0  0
   -2.0251  -19.3206   33.9776 N   0  0  0  0  0  0  0  0  0  0  0  0
   -2.1938  -15.9540   31.5162 C   0  0  0  0  0  0  0  0  0  0  0  0
    2.1306  -16.1998   32.7552 C   0  0  0  0  0  0  0  0  0  0  0  0
    2.3152  -17.5215   32.4682 C   0  0  0  0  0  0  0  0  0  0  0  0
    3.4314  -18.0011   31.7363 N   0  0  0  0  0  0  0  0  0  0  0  0
    4.6951  -17.3316   32.0041 C   0  0  0  0  0  0  0  0  0  0  0  0
    5.5193  -17.2596   30.7282 C   0  0  0  0  0  0  0  0  0  0  0  0
    5.7778  -15.8200   30.3450 C   0  0  0  0  0  0  0  0  0  0  0  0
    3.3398  -19.2849   30.6018 S   0  0  2  0  0  6  0  0  0  0  0  0
    1.9963  -19.1964   29.9127 O   0  0  0  0  0  0  0  0  0  0  0  0
    3.5157  -20.8413   31.4232 C   0  0  0  0  0  0  0  0  0  0  0  0
    4.3802  -19.0669   29.5509 O   0  0  0  0  0  0  0  0  0  0  0  0
    1.3516  -18.3578   32.9310 C   0  0  0  0  0  0  0  0  0  0  0  0
  1  2  2  0
  2  3  1  0
  2 32  1  0
  3  4  1  0
  3 44  2  0
  4  5  2  0
  5  6  1  0
  5 34  1  0
  6  7  1  0
  7  8  1  0
  8  9  1  0
  9 10  1  0
 10 11  1  0
 10 33  2  0
 11 12  2  0
 12 13  1  0
 13 14  2  0
 14 15  1  0
 14 33  1  0
 15 16  1  0
 16 17  1  1
 16 32  1  0
 17 18  1  0
 19 18  1  6
 19 20  1  0
 19 27  1  0
 20 21  1  0
 20 26  2  0
 21 22  1  0
 22 23  1  0
 23 24  1  1
 23 25  1  0
 27 28  1  6
 27 29  1  0
 29 30  1  0
 30 31  1  0
 34 35  2  0
 35 36  1  0
 35 44  1  0
 36 37  1  0
 36 40  1  0
 37 38  1  0
 38 39  1  0
 40 41  2  0
 40 42  1  1
 40 43  2  0
M  CHG  1  18   1
M  END
$$$$
