
     RDKit          3D

 44 46  0  0  0  0  0  0  0  0999 V2000
   -0.3115  -20.4970   33.5163 O   0  0  0  0  0  0  0  0  0  0  0  0
   -0.8236  -19.2817   33.6068 C   0  0  0  0  0  0  0  0  0  0  0  0
    0.0509  -18.1635   33.2178 C   0  0  0  0  0  0  0  0  0  0  0  0
    0.2638  -16.9288   33.7916 C   0  0  0  0  0  0  0  0  0  0  0  0
    1.1560  -16.0786   33.1774 C   0  0  0  0  0  0  0  0  0  0  0  0
    1.5517  -14.6837   33.5699 C   0  0  0  0  0  0  0  0  0  0  0  0
    0.4725  -13.6472   33.2951 C   0  0  0  0  0  0  0  0  0  0  0  0
    0.1828  -13.4879   31.8466 C   0  0  0  0  0  0  0  0  0  0  0  0
   -1.2881  -13.4215   31.5480 C   0  0  0  0  0  0  0  0  0  0  0  0
   -1.9923  -14.7352   31.5455 C   0  0  0  0  0  0  0  0  0  0  0  0
   -2.0695  -15.2345   30.2190 C   0  0  0  0  0  0  0  0  0  0  0  0
   -2.6496  -16.4260   29.8917 C   0  0  0  0  0  0  0  0  0  0  0  0
   -3.1623  -17.1215   30.9502 C   0  0  0  0  0  0  0  0  0  0  0  0
   -3.1108  -16.6675   32.2927 C   0  0  0  0  0  0  0  0  0  0  0  0
   -3.7660  -17.6753   33.1809 C   0  0  0  0  0  0  0  0  0  0  0  0
   -3.0213  -18.2091   34.3416 C   0  0  1  0  0  0  0  0  0  0  0  0
   -4.0534  -18.6573   35.3807 C   0  0  0  0  0  0  0  0  0  0  0  0
   -4.3977  -20.0342   35.2420 N   0  0  0  0  0  4  0  0  0  0  0  0
   -3.7831  -20.8533   36.3120 C   0  0  2  0  0  0  0  0  0  0  0  0
   -4.5627  -20.5018   37.5643 C   0  0  0  0  0  0  0  0  0  0  0  0
   -5.4343  -21.4136   38.1625 N   0  0  0  0  0  0  0  0  0  0  0  0
   -6.3239  -21.1422   39.2397 C   0  0  0  0  0  0  0  0  0  0  0  0
   -5.8168  -20.8142   40.5761 C   0  0  2  0  0  0  0  0  0  0  0  0
   -5.0004  -19.5900   40.7669 C   0  0  0  0  0  0  0  0  0  0  0  0
   -5.0399  -21.9865   41.2025 C   0  0  0  0  0  0  0  0  0  0  0  0
   -4.3991  -19.3663   38.0393 O   0  0  0  0  0  0  0  0  0  0  0  0
   -2.3926  -20.3391   36.4818 C   0  0  1  0  0  0  0  0  0  0  0  0
   -2.4883  -19.0344   37.0135 O   0  0  0  0  0  0  0  0  0  0  0  0
   -1.4896  -21.1270   37.3581 C   0  0  0  0  0  0  0  0  0  0  0  0
   -0.9997  -20.3752   38.5736 C   0  0  0  0  0  0  0  0  0  0  0  0
   -0.1506  -21.3659   39.3691 C   0  0  0  0  0  0  0  0  0  0  0  0
   -2.1576  -19.3431   34.0754 N   0  0  0  0  0  0  0  0  0  0  0  0
   -2.5178  -15.4588   32.5909 C   0  0  0  0  0  0  0  0  0  0  0  0
    1.8318  -16.4693   31.9946 C   0  0  0  0  0  0  0  0  0  0  0  0
    1.6448  -17.6847   31.4022 C   0  0  0  0  0  0  0  0  0  0  0  0
    2.3199  -18.0752   30.2175 N   0  0  0  0  0  0  0  0  0  0  0  0
    2.0446  -17.2663   29.0399 C   0  0  0  0  0  0  0  0  0  0  0  0
    0.5433  -17.0841   28.8808 C   0  0  0  0  0  0  0  0  0  0  0  0
    0.2397  -16.2067   27.6874 C   0  0  0  0  0  0  0  0  0  0  0  0
    3.3993  -19.4064   30.1369 S   0  0  2  0  0  6  0  0  0  0  0  0
    2.8999  -20.4637   31.0963 O   0  0  0  0  0  0  0  0  0  0  0  0
    5.0354  -18.8949   30.5723 C   0  0  0  0  0  0  0  0  0  0  0  0
    3.3257  -19.9969   28.7657 O   0  0  0  0  0  0  0  0  0  0  0  0
    0.7603  -18.5054   32.0239 C   0  0  0  0  0  0  0  0  0  0  0  0
  1  2  2  0
  2  3  1  0
  2 32  1  0
  3  4  1  0
  3 44  2  0
  4  5  2  0
  5  6  1  0
  5 34  1  0
  6  7  1  0
  7  8  1  0
  8  9  1  0
  9 10  1  0
 10 11  1  0
 10 33  2  0
 11 12  2  0
 12 13  1  0
 13 14  2  0
 14 15  1  0
 14 33  1  0
 15 16  1  0
 16 17  1  1
 16 32  1  0
 17 18  1  0
 19 18  1  6
 19 20  1  0
 19 27  1  0
 20 21  1  0
 20 26  2  0
 21 22  1  0
 22 23  1  0
 23 24  1  6
 23 25  1  0
 27 28  1  1
 27 29  1  0
 29 30  1  0
 30 31  1  0
 34 35  2  0
 35 36  1  0
 35 44  1  0
 36 37  1  0
 36 40  1  0
 37 38  1  0
 38 39  1  0
 40 41  2  0
 40 42  1  1
 40 43  2  0
M  CHG  1  18   1
M  END
$$$$
