
     RDKit          3D

 44 46  0  0  0  0  0  0  0  0999 V2000
    1.0944  -20.8725   32.0938 O   0  0  0  0  0  0  0  0  0  0  0  0
    1.0942  -19.6627   32.6264 C   0  0  0  0  0  0  0  0  0  0  0  0
    2.1228  -18.7264   32.1447 C   0  0  0  0  0  0  0  0  0  0  0  0
    2.9249  -17.8280   32.8144 C   0  0  0  0  0  0  0  0  0  0  0  0
    3.8027  -17.0704   32.0717 C   0  0  0  0  0  0  0  0  0  0  0  0
    4.7616  -16.0120   32.5370 C   0  0  0  0  0  0  0  0  0  0  0  0
    4.0813  -14.7126   32.9411 C   0  0  0  0  0  0  0  0  0  0  0  0
    3.4077  -14.0371   31.8021 C   0  0  0  0  0  0  0  0  0  0  0  0
    2.0396  -13.5244   32.1522 C   0  0  0  0  0  0  0  0  0  0  0  0
    0.9650  -14.5571   32.1765 C   0  0  0  0  0  0  0  0  0  0  0  0
    0.2903  -14.5757   30.9278 C   0  0  0  0  0  0  0  0  0  0  0  0
   -0.7391  -15.4234   30.6366 C   0  0  0  0  0  0  0  0  0  0  0  0
   -1.0842  -16.2722   31.6503 C   0  0  0  0  0  0  0  0  0  0  0  0
   -0.4425  -16.2941   32.9147 C   0  0  0  0  0  0  0  0  0  0  0  0
   -1.0768  -17.3405   33.7729 C   0  0  0  0  0  0  0  0  0  0  0  0
   -0.2268  -18.3787   34.3947 C   0  0  1  0  0  0  0  0  0  0  0  0
   -0.9494  -18.8685   35.6531 C   0  0  0  0  0  0  0  0  0  0  0  0
   -1.1148  -20.2849   35.6652 N   0  0  0  0  0  4  0  0  0  0  0  0
   -2.5461  -20.6594   35.7322 C   0  0  2  0  0  0  0  0  0  0  0  0
   -3.2966  -19.3638   35.4924 C   0  0  0  0  0  0  0  0  0  0  0  0
   -4.1505  -19.2056   34.3993 N   0  0  0  0  0  0  0  0  0  0  0  0
   -5.1091  -18.1680   34.2259 C   0  0  0  0  0  0  0  0  0  0  0  0
   -4.7459  -16.9017   33.5816 C   0  0  2  0  0  0  0  0  0  0  0  0
   -5.2749  -16.5920   32.2303 C   0  0  0  0  0  0  0  0  0  0  0  0
   -3.2212  -16.6933   33.5366 C   0  0  0  0  0  0  0  0  0  0  0  0
   -3.1209  -18.4426   36.3062 O   0  0  0  0  0  0  0  0  0  0  0  0
   -2.8001  -21.0786   37.1417 C   0  0  1  0  0  0  0  0  0  0  0  0
   -2.6990  -19.9244   37.9489 O   0  0  0  0  0  0  0  0  0  0  0  0
   -4.1075  -21.7229   37.4234 C   0  0  0  0  0  0  0  0  0  0  0  0
   -4.7718  -21.2408   38.6919 C   0  0  0  0  0  0  0  0  0  0  0  0
   -6.0208  -22.1033   38.8689 C   0  0  0  0  0  0  0  0  0  0  0  0
    0.0533  -19.5437   33.5778 N   0  0  0  0  0  0  0  0  0  0  0  0
    0.5946  -15.4244   33.1782 C   0  0  0  0  0  0  0  0  0  0  0  0
    3.8746  -17.2177   30.6639 C   0  0  0  0  0  0  0  0  0  0  0  0
    3.0958  -18.0988   29.9710 C   0  0  0  0  0  0  0  0  0  0  0  0
    3.1668  -18.2451   28.5620 N   0  0  0  0  0  0  0  0  0  0  0  0
    2.1376  -17.5502   27.8040 C   0  0  0  0  0  0  0  0  0  0  0  0
    0.9589  -17.2309   28.7102 C   0  0  0  0  0  0  0  0  0  0  0  0
    0.6697  -15.7468   28.7001 C   0  0  0  0  0  0  0  0  0  0  0  0
    4.3719  -19.1703   27.7648 S   0  0  2  0  0  6  0  0  0  0  0  0
    5.1583  -18.2338   26.8746 O   0  0  0  0  0  0  0  0  0  0  0  0
    3.6235  -20.4556   26.8079 C   0  0  0  0  0  0  0  0  0  0  0  0
    5.3250  -19.6951   28.7898 O   0  0  0  0  0  0  0  0  0  0  0  0
    2.2376  -18.8336   30.7231 C   0  0  0  0  0  0  0  0  0  0  0  0
  1  2  2  0
  2  3  1  0
  2 32  1  0
  3  4  1  0
  3 44  2  0
  4  5  2  0
  5  6  1  0
  5 34  1  0
  6  7  1  0
  7  8  1  0
  8  9  1  0
  9 10  1  0
 10 11  1  0
 10 33  2  0
 11 12  2  0
 12 13  1  0
 13 14  2  0
 14 15  1  0
 14 33  1  0
 15 16  1  0
 16 17  1  1
 16 32  1  0
 17 18  1  0
 19 18  1  1
 19 20  1  0
 19 27  1  0
 20 21  1  0
 20 26  2  0
 21 22  1  0
 22 23  1  0
 23 24  1  6
 23 25  1  0
 27 28  1  1
 27 29  1  0
 29 30  1  0
 30 31  1  0
 34 35  2  0
 35 36  1  0
 35 44  1  0
 36 37  1  0
 36 40  1  0
 37 38  1  0
 38 39  1  0
 40 41  2  0
 40 42  1  6
 40 43  2  0
M  CHG  1  18   1
M  END
$$$$
