
     RDKit          3D

 44 46  0  0  0  0  0  0  0  0999 V2000
    0.8687  -20.3540   33.4514 O   0  0  0  0  0  0  0  0  0  0  0  0
   -0.0298  -19.4452   33.1139 C   0  0  0  0  0  0  0  0  0  0  0  0
    0.4813  -18.1207   32.7249 C   0  0  0  0  0  0  0  0  0  0  0  0
    0.0467  -16.8490   33.0298 C   0  0  0  0  0  0  0  0  0  0  0  0
    0.7420  -15.7862   32.4980 C   0  0  0  0  0  0  0  0  0  0  0  0
    0.4735  -14.3156   32.6453 C   0  0  0  0  0  0  0  0  0  0  0  0
   -0.7357  -13.8378   31.8553 C   0  0  0  0  0  0  0  0  0  0  0  0
   -0.5532  -13.9708   30.3868 C   0  0  0  0  0  0  0  0  0  0  0  0
   -1.7621  -14.5347   29.6958 C   0  0  0  0  0  0  0  0  0  0  0  0
   -1.9239  -16.0120   29.8106 C   0  0  0  0  0  0  0  0  0  0  0  0
   -1.3693  -16.6447   28.6673 C   0  0  0  0  0  0  0  0  0  0  0  0
   -1.3546  -17.9971   28.4836 C   0  0  0  0  0  0  0  0  0  0  0  0
   -1.9219  -18.7174   29.4967 C   0  0  0  0  0  0  0  0  0  0  0  0
   -2.4887  -18.1345   30.6586 C   0  0  0  0  0  0  0  0  0  0  0  0
   -3.0151  -19.2148   31.5472 C   0  0  0  0  0  0  0  0  0  0  0  0
   -2.5726  -19.2715   32.9570 C   0  0  1  0  0  0  0  0  0  0  0  0
   -3.6732  -19.9778   33.7541 C   0  0  0  0  0  0  0  0  0  0  0  0
   -3.1930  -20.5053   34.9890 N   0  0  0  0  0  4  0  0  0  0  0  0
   -2.9164  -19.4256   35.9645 C   0  0  2  0  0  0  0  0  0  0  0  0
   -3.5190  -19.9169   37.2664 C   0  0  0  0  0  0  0  0  0  0  0  0
   -2.8205  -20.7761   38.1165 N   0  0  0  0  0  0  0  0  0  0  0  0
   -3.2886  -21.2939   39.3568 C   0  0  0  0  0  0  0  0  0  0  0  0
   -2.5440  -22.3357   40.0717 C   0  0  2  0  0  0  0  0  0  0  0  0
   -2.0886  -23.5419   39.3371 C   0  0  0  0  0  0  0  0  0  0  0  0
   -3.2894  -22.8182   41.3293 C   0  0  0  0  0  0  0  0  0  0  0  0
   -4.6635  -19.5274   37.5490 O   0  0  0  0  0  0  0  0  0  0  0  0
   -3.7089  -18.2448   35.5127 C   0  0  1  0  0  0  0  0  0  0  0  0
   -4.7198  -18.7214   34.6496 O   0  0  0  0  0  0  0  0  0  0  0  0
   -4.3557  -17.4281   36.5704 C   0  0  0  0  0  0  0  0  0  0  0  0
   -4.5786  -15.9844   36.1847 C   0  0  0  0  0  0  0  0  0  0  0  0
   -5.2439  -15.3228   37.3910 C   0  0  0  0  0  0  0  0  0  0  0  0
   -1.3348  -19.9848   33.2063 N   0  0  0  0  0  0  0  0  0  0  0  0
   -2.4883  -16.7644   30.8146 C   0  0  0  0  0  0  0  0  0  0  0  0
    1.8693  -16.0015   31.6665 C   0  0  0  0  0  0  0  0  0  0  0  0
    2.3262  -17.2474   31.3467 C   0  0  0  0  0  0  0  0  0  0  0  0
    3.4534  -17.4630   30.5133 N   0  0  0  0  0  0  0  0  0  0  0  0
    4.0980  -16.2627   30.0029 C   0  0  0  0  0  0  0  0  0  0  0  0
    5.3026  -15.9195   30.8652 C   0  0  0  0  0  0  0  0  0  0  0  0
    6.0566  -14.7470   30.2798 C   0  0  0  0  0  0  0  0  0  0  0  0
    4.0504  -19.0203   30.1109 S   0  0  2  0  0  6  0  0  0  0  0  0
    3.1979  -20.0412   30.8313 O   0  0  0  0  0  0  0  0  0  0  0  0
    5.7443  -19.1708   30.5969 C   0  0  0  0  0  0  0  0  0  0  0  0
    3.8487  -19.2440   28.6469 O   0  0  0  0  0  0  0  0  0  0  0  0
    1.6249  -18.2794   31.8808 C   0  0  0  0  0  0  0  0  0  0  0  0
  1  2  2  0
  2  3  1  0
  2 32  1  0
  3  4  1  0
  3 44  2  0
  4  5  2  0
  5  6  1  0
  5 34  1  0
  6  7  1  0
  7  8  1  0
  8  9  1  0
  9 10  1  0
 10 11  1  0
 10 33  2  0
 11 12  2  0
 12 13  1  0
 13 14  2  0
 14 15  1  0
 14 33  1  0
 15 16  1  0
 16 17  1  1
 16 32  1  0
 17 18  1  0
 19 18  1  6
 19 20  1  0
 19 27  1  0
 20 21  1  0
 20 26  2  0
 21 22  1  0
 22 23  1  0
 23 24  1  6
 23 25  1  0
 27 28  1  6
 27 29  1  0
 29 30  1  0
 30 31  1  0
 34 35  2  0
 35 36  1  0
 35 44  1  0
 36 37  1  0
 36 40  1  0
 37 38  1  0
 38 39  1  0
 40 41  2  0
 40 42  1  6
 40 43  2  0
M  CHG  1  18   1
M  END
$$$$
