
     RDKit          3D

 44 46  0  0  0  0  0  0  0  0999 V2000
    1.3276  -20.7257   33.1465 O   0  0  0  0  0  0  0  0  0  0  0  0
    1.1179  -19.4213   33.1913 C   0  0  0  0  0  0  0  0  0  0  0  0
    2.0489  -18.5739   32.4286 C   0  0  0  0  0  0  0  0  0  0  0  0
    2.6612  -17.3796   32.7412 C   0  0  0  0  0  0  0  0  0  0  0  0
    3.4902  -16.8147   31.7979 C   0  0  0  0  0  0  0  0  0  0  0  0
    4.2535  -15.5228   31.8664 C   0  0  0  0  0  0  0  0  0  0  0  0
    3.3716  -14.2898   31.7375 C   0  0  0  0  0  0  0  0  0  0  0  0
    2.7149  -14.1882   30.4086 C   0  0  0  0  0  0  0  0  0  0  0  0
    1.2649  -13.8058   30.5004 C   0  0  0  0  0  0  0  0  0  0  0  0
    0.3413  -14.9147   30.8731 C   0  0  0  0  0  0  0  0  0  0  0  0
   -0.2133  -15.4907   29.7003 C   0  0  0  0  0  0  0  0  0  0  0  0
   -1.0898  -16.5370   29.7130 C   0  0  0  0  0  0  0  0  0  0  0  0
   -1.4042  -17.0036   30.9581 C   0  0  0  0  0  0  0  0  0  0  0  0
   -0.8781  -16.4644   32.1596 C   0  0  0  0  0  0  0  0  0  0  0  0
   -1.4378  -17.2144   33.3249 C   0  0  0  0  0  0  0  0  0  0  0  0
   -0.5131  -17.8089   34.3140 C   0  0  1  0  0  0  0  0  0  0  0  0
   -1.2700  -17.9164   35.6411 C   0  0  0  0  0  0  0  0  0  0  0  0
   -1.4832  -19.2706   36.0340 N   0  0  0  0  0  4  0  0  0  0  0  0
   -2.5322  -19.9120   35.2083 C   0  0  2  0  0  0  0  0  0  0  0  0
   -3.7476  -19.0188   35.3647 C   0  0  0  0  0  0  0  0  0  0  0  0
   -4.6010  -18.7518   34.2926 N   0  0  0  0  0  0  0  0  0  0  0  0
   -4.2571  -18.0588   33.0980 C   0  0  0  0  0  0  0  0  0  0  0  0
   -4.3573  -16.5981   33.0145 C   0  0  2  0  0  0  0  0  0  0  0  0
   -3.1734  -15.7653   33.3412 C   0  0  0  0  0  0  0  0  0  0  0  0
   -5.5420  -16.0530   33.8326 C   0  0  0  0  0  0  0  0  0  0  0  0
   -3.9558  -18.5284   36.4862 O   0  0  0  0  0  0  0  0  0  0  0  0
   -2.8382  -21.2164   35.8653 C   0  0  1  0  0  0  0  0  0  0  0  0
   -1.7918  -22.1072   35.5403 O   0  0  0  0  0  0  0  0  0  0  0  0
   -2.9880  -21.2033   37.3423 C   0  0  0  0  0  0  0  0  0  0  0  0
   -3.2122  -22.5677   37.9512 C   0  0  0  0  0  0  0  0  0  0  0  0
   -3.2886  -22.3488   39.4617 C   0  0  0  0  0  0  0  0  0  0  0  0
   -0.0084  -19.1310   33.9975 N   0  0  0  0  0  0  0  0  0  0  0  0
    0.0054  -15.4067   32.1133 C   0  0  0  0  0  0  0  0  0  0  0  0
    3.7037  -17.4490   30.5487 C   0  0  0  0  0  0  0  0  0  0  0  0
    3.1141  -18.6322   30.2087 C   0  0  0  0  0  0  0  0  0  0  0  0
    3.3266  -19.2661   28.9579 N   0  0  0  0  0  0  0  0  0  0  0  0
    2.2517  -19.1220   27.9880 C   0  0  0  0  0  0  0  0  0  0  0  0
    2.5948  -18.0178   27.0004 C   0  0  0  0  0  0  0  0  0  0  0  0
    1.5680  -16.9099   27.0667 C   0  0  0  0  0  0  0  0  0  0  0  0
    4.7445  -20.1525   28.5735 S   0  0  2  0  0  6  0  0  0  0  0  0
    5.2444  -19.6637   27.2322 O   0  0  0  0  0  0  0  0  0  0  0  0
    4.3859  -21.8832   28.5100 C   0  0  0  0  0  0  0  0  0  0  0  0
    5.8011  -19.8192   29.5768 O   0  0  0  0  0  0  0  0  0  0  0  0
    2.3006  -19.1696   31.1529 C   0  0  0  0  0  0  0  0  0  0  0  0
  1  2  2  0
  2  3  1  0
  2 32  1  0
  3  4  1  0
  3 44  2  0
  4  5  2  0
  5  6  1  0
  5 34  1  0
  6  7  1  0
  7  8  1  0
  8  9  1  0
  9 10  1  0
 10 11  1  0
 10 33  2  0
 11 12  2  0
 12 13  1  0
 13 14  2  0
 14 15  1  0
 14 33  1  0
 15 16  1  0
 16 17  1  1
 16 32  1  0
 17 18  1  0
 19 18  1  1
 19 20  1  0
 19 27  1  0
 20 21  1  0
 20 26  2  0
 21 22  1  0
 22 23  1  0
 23 24  1  1
 23 25  1  0
 27 28  1  1
 27 29  1  0
 29 30  1  0
 30 31  1  0
 34 35  2  0
 35 36  1  0
 35 44  1  0
 36 37  1  0
 36 40  1  0
 37 38  1  0
 38 39  1  0
 40 41  2  0
 40 42  1  6
 40 43  2  0
M  CHG  1  18   1
M  END
$$$$
