
     RDKit          3D

 44 46  0  0  0  0  0  0  0  0999 V2000
   -0.3754  -19.8510   37.3966 O   0  0  0  0  0  0  0  0  0  0  0  0
   -1.3075  -20.7013   37.7911 C   0  0  0  0  0  0  0  0  0  0  0  0
   -0.9137  -21.6922   38.8059 C   0  0  0  0  0  0  0  0  0  0  0  0
   -1.1857  -23.0382   38.9211 C   0  0  0  0  0  0  0  0  0  0  0  0
   -0.6728  -23.7079   40.0095 C   0  0  0  0  0  0  0  0  0  0  0  0
   -0.8340  -25.1522   40.3893 C   0  0  0  0  0  0  0  0  0  0  0  0
   -2.2211  -25.4899   40.9152 C   0  0  0  0  0  0  0  0  0  0  0  0
   -2.5361  -24.7996   42.1926 C   0  0  0  0  0  0  0  0  0  0  0  0
   -3.9214  -24.2187   42.2174 C   0  0  0  0  0  0  0  0  0  0  0  0
   -4.0802  -22.9320   41.4819 C   0  0  0  0  0  0  0  0  0  0  0  0
   -3.9520  -21.8449   42.3855 C   0  0  0  0  0  0  0  0  0  0  0  0
   -4.0388  -20.5353   42.0106 C   0  0  0  0  0  0  0  0  0  0  0  0
   -4.2622  -20.3364   40.6773 C   0  0  0  0  0  0  0  0  0  0  0  0
   -4.3973  -21.3867   39.7341 C   0  0  0  0  0  0  0  0  0  0  0  0
   -4.6339  -20.8056   38.3776 C   0  0  0  0  0  0  0  0  0  0  0  0
   -3.7538  -21.2022   37.2574 C   0  0  1  0  0  0  0  0  0  0  0  0
   -4.5513  -21.0205   35.9625 C   0  0  0  0  0  0  0  0  0  0  0  0
   -3.7129  -21.0025   34.8090 N   0  0  0  0  0  4  0  0  0  0  0  0
   -3.0835  -19.6750   34.6214 C   0  0  2  0  0  0  0  0  0  0  0  0
   -3.6274  -18.8256   35.7538 C   0  0  0  0  0  0  0  0  0  0  0  0
   -2.8698  -17.8045   36.3303 N   0  0  0  0  0  0  0  0  0  0  0  0
   -3.2995  -16.9170   37.3565 C   0  0  0  0  0  0  0  0  0  0  0  0
   -3.7750  -15.5664   37.0393 C   0  0  2  0  0  0  0  0  0  0  0  0
   -4.1700  -15.2399   35.6468 C   0  0  0  0  0  0  0  0  0  0  0  0
   -2.7847  -14.4822   37.5019 C   0  0  0  0  0  0  0  0  0  0  0  0
   -4.7762  -19.0745   36.1539 O   0  0  0  0  0  0  0  0  0  0  0  0
   -3.6299  -19.1333   33.3429 C   0  0  1  0  0  0  0  0  0  0  0  0
   -4.1418  -17.8458   33.6157 O   0  0  0  0  0  0  0  0  0  0  0  0
   -2.6832  -19.0193   32.2050 C   0  0  0  0  0  0  0  0  0  0  0  0
   -3.2406  -18.2804   31.0109 C   0  0  0  0  0  0  0  0  0  0  0  0
   -2.1435  -18.3078   29.9474 C   0  0  0  0  0  0  0  0  0  0  0  0
   -2.5248  -20.4456   37.1162 N   0  0  0  0  0  0  0  0  0  0  0  0
   -4.3048  -22.6999   40.1445 C   0  0  0  0  0  0  0  0  0  0  0  0
    0.1110  -23.0278   40.9747 C   0  0  0  0  0  0  0  0  0  0  0  0
    0.3998  -21.6965   40.8892 C   0  0  0  0  0  0  0  0  0  0  0  0
    1.1830  -21.0156   41.8560 N   0  0  0  0  0  0  0  0  0  0  0  0
    0.4525  -20.4799   42.9945 C   0  0  0  0  0  0  0  0  0  0  0  0
   -0.8484  -19.8508   42.5208 C   0  0  0  0  0  0  0  0  0  0  0  0
   -1.5968  -19.2414   43.6847 C   0  0  0  0  0  0  0  0  0  0  0  0
    2.8824  -20.8166   41.7294 S   0  0  2  0  0  6  0  0  0  0  0  0
    3.5290  -21.6965   42.7761 O   0  0  0  0  0  0  0  0  0  0  0  0
    3.3209  -19.1223   41.9846 C   0  0  0  0  0  0  0  0  0  0  0  0
    3.3244  -21.3321   40.3978 O   0  0  0  0  0  0  0  0  0  0  0  0
   -0.1170  -21.0569   39.8094 C   0  0  0  0  0  0  0  0  0  0  0  0
  1  2  2  0
  2  3  1  0
  2 32  1  0
  3  4  1  0
  3 44  2  0
  4  5  2  0
  5  6  1  0
  5 34  1  0
  6  7  1  0
  7  8  1  0
  8  9  1  0
  9 10  1  0
 10 11  1  0
 10 33  2  0
 11 12  2  0
 12 13  1  0
 13 14  2  0
 14 15  1  0
 14 33  1  0
 15 16  1  0
 16 17  1  6
 16 32  1  0
 17 18  1  0
 19 18  1  1
 19 20  1  0
 19 27  1  0
 20 21  1  0
 20 26  2  0
 21 22  1  0
 22 23  1  0
 23 24  1  6
 23 25  1  0
 27 28  1  1
 27 29  1  0
 29 30  1  0
 30 31  1  0
 34 35  2  0
 35 36  1  0
 35 44  1  0
 36 37  1  0
 36 40  1  0
 37 38  1  0
 38 39  1  0
 40 41  2  0
 40 42  1  1
 40 43  2  0
M  CHG  1  18   1
M  END
$$$$
