
     RDKit          3D

 44 46  0  0  0  0  0  0  0  0999 V2000
    1.2367  -20.7966   32.1435 O   0  0  0  0  0  0  0  0  0  0  0  0
    0.3127  -19.9157   32.4865 C   0  0  0  0  0  0  0  0  0  0  0  0
    0.7082  -18.4981   32.4646 C   0  0  0  0  0  0  0  0  0  0  0  0
    0.4556  -17.4663   33.3424 C   0  0  0  0  0  0  0  0  0  0  0  0
    0.9642  -16.2233   33.0386 C   0  0  0  0  0  0  0  0  0  0  0  0
    0.8204  -14.9347   33.7971 C   0  0  0  0  0  0  0  0  0  0  0  0
   -0.5681  -14.3217   33.6936 C   0  0  0  0  0  0  0  0  0  0  0  0
   -0.9108  -13.9031   32.3098 C   0  0  0  0  0  0  0  0  0  0  0  0
   -2.3050  -14.2934   31.9089 C   0  0  0  0  0  0  0  0  0  0  0  0
   -2.4740  -15.7222   31.5195 C   0  0  0  0  0  0  0  0  0  0  0  0
   -2.3746  -15.8493   30.1093 C   0  0  0  0  0  0  0  0  0  0  0  0
   -2.4767  -17.0389   29.4477 C   0  0  0  0  0  0  0  0  0  0  0  0
   -2.6854  -18.1236   30.2520 C   0  0  0  0  0  0  0  0  0  0  0  0
   -2.7917  -18.0506   31.6642 C   0  0  0  0  0  0  0  0  0  0  0  0
   -3.0192  -19.4216   32.2143 C   0  0  0  0  0  0  0  0  0  0  0  0
   -2.1183  -19.9368   33.2678 C   0  0  1  0  0  0  0  0  0  0  0  0
   -2.9012  -20.9814   34.0688 C   0  0  0  0  0  0  0  0  0  0  0  0
   -4.0067  -20.4110   34.7662 N   0  0  0  0  0  4  0  0  0  0  0  0
   -3.6727  -20.1531   36.1858 C   0  0  2  0  0  0  0  0  0  0  0  0
   -3.0655  -21.4508   36.6823 C   0  0  0  0  0  0  0  0  0  0  0  0
   -2.0168  -21.4614   37.6038 N   0  0  0  0  0  0  0  0  0  0  0  0
   -1.4062  -22.6167   38.1678 C   0  0  0  0  0  0  0  0  0  0  0  0
   -0.0818  -22.5438   38.7936 C   0  0  2  0  0  0  0  0  0  0  0  0
    0.9282  -23.5870   38.4881 C   0  0  0  0  0  0  0  0  0  0  0  0
   -0.1729  -22.4276   40.3260 C   0  0  0  0  0  0  0  0  0  0  0  0
   -3.5353  -22.5095   36.2349 O   0  0  0  0  0  0  0  0  0  0  0  0
   -4.9740  -19.9604   36.8902 C   0  0  1  0  0  0  0  0  0  0  0  0
   -5.8591  -20.9546   36.4188 O   0  0  0  0  0  0  0  0  0  0  0  0
   -4.9501  -20.0325   38.3728 C   0  0  0  0  0  0  0  0  0  0  0  0
   -5.8823  -19.0571   39.0526 C   0  0  0  0  0  0  0  0  0  0  0  0
   -5.4440  -17.6660   38.5965 C   0  0  0  0  0  0  0  0  0  0  0  0
   -0.8994  -20.5726   32.8062 N   0  0  0  0  0  0  0  0  0  0  0  0
   -2.6844  -16.8333   32.3031 C   0  0  0  0  0  0  0  0  0  0  0  0
    1.7246  -16.0203   31.8600 C   0  0  0  0  0  0  0  0  0  0  0  0
    1.9939  -17.0207   30.9712 C   0  0  0  0  0  0  0  0  0  0  0  0
    2.7535  -16.8173   29.7909 N   0  0  0  0  0  0  0  0  0  0  0  0
    2.4602  -15.5965   29.0557 C   0  0  0  0  0  0  0  0  0  0  0  0
    1.4369  -15.8845   27.9683 C   0  0  0  0  0  0  0  0  0  0  0  0
    0.3429  -14.8409   27.9805 C   0  0  0  0  0  0  0  0  0  0  0  0
    3.9499  -17.9133   29.2332 S   0  0  2  0  0  6  0  0  0  0  0  0
    5.2920  -17.4220   29.7285 O   0  0  0  0  0  0  0  0  0  0  0  0
    3.9307  -17.9935   27.4666 C   0  0  0  0  0  0  0  0  0  0  0  0
    3.7129  -19.2431   29.8733 O   0  0  0  0  0  0  0  0  0  0  0  0
    1.4816  -18.2364   31.2904 C   0  0  0  0  0  0  0  0  0  0  0  0
  1  2  2  0
  2  3  1  0
  2 32  1  0
  3  4  1  0
  3 44  2  0
  4  5  2  0
  5  6  1  0
  5 34  1  0
  6  7  1  0
  7  8  1  0
  8  9  1  0
  9 10  1  0
 10 11  1  0
 10 33  2  0
 11 12  2  0
 12 13  1  0
 13 14  2  0
 14 15  1  0
 14 33  1  0
 15 16  1  0
 16 17  1  6
 16 32  1  0
 17 18  1  0
 19 18  1  6
 19 20  1  0
 19 27  1  0
 20 21  1  0
 20 26  2  0
 21 22  1  0
 22 23  1  0
 23 24  1  1
 23 25  1  0
 27 28  1  6
 27 29  1  0
 29 30  1  0
 30 31  1  0
 34 35  2  0
 35 36  1  0
 35 44  1  0
 36 37  1  0
 36 40  1  0
 37 38  1  0
 38 39  1  0
 40 41  2  0
 40 42  1  6
 40 43  2  0
M  CHG  1  18   1
M  END
$$$$
