
     RDKit          3D

 44 46  0  0  0  0  0  0  0  0999 V2000
    0.5383  -19.8651   34.1844 O   0  0  0  0  0  0  0  0  0  0  0  0
   -0.2411  -18.9670   33.6072 C   0  0  0  0  0  0  0  0  0  0  0  0
    0.4215  -17.7807   33.0411 C   0  0  0  0  0  0  0  0  0  0  0  0
    0.0852  -16.4448   33.0734 C   0  0  0  0  0  0  0  0  0  0  0  0
    0.9175  -15.5555   32.4311 C   0  0  0  0  0  0  0  0  0  0  0  0
    0.7773  -14.0666   32.2899 C   0  0  0  0  0  0  0  0  0  0  0  0
   -0.3147  -13.6500   31.3159 C   0  0  0  0  0  0  0  0  0  0  0  0
   -0.0286  -14.0653   29.9184 C   0  0  0  0  0  0  0  0  0  0  0  0
   -1.2259  -14.6511   29.2254 C   0  0  0  0  0  0  0  0  0  0  0  0
   -1.5343  -16.0648   29.5834 C   0  0  0  0  0  0  0  0  0  0  0  0
   -0.9519  -16.9386   28.6283 C   0  0  0  0  0  0  0  0  0  0  0  0
   -1.0495  -18.2987   28.6887 C   0  0  0  0  0  0  0  0  0  0  0  0
   -1.7611  -18.7735   29.7542 C   0  0  0  0  0  0  0  0  0  0  0  0
   -2.3618  -17.9441   30.7352 C   0  0  0  0  0  0  0  0  0  0  0  0
   -3.0567  -18.7978   31.7461 C   0  0  0  0  0  0  0  0  0  0  0  0
   -2.7356  -18.6278   33.1796 C   0  0  1  0  0  0  0  0  0  0  0  0
   -3.9579  -19.0873   33.9800 C   0  0  0  0  0  0  0  0  0  0  0  0
   -4.0521  -18.4359   35.2451 N   0  0  0  0  0  4  0  0  0  0  0  0
   -3.3101  -19.1787   36.2898 C   0  0  2  0  0  0  0  0  0  0  0  0
   -2.9557  -20.5042   35.6440 C   0  0  0  0  0  0  0  0  0  0  0  0
   -2.5911  -21.6146   36.4075 N   0  0  0  0  0  0  0  0  0  0  0  0
   -1.8430  -22.7369   35.9533 C   0  0  0  0  0  0  0  0  0  0  0  0
   -0.5469  -23.0749   36.5508 C   0  0  2  0  0  0  0  0  0  0  0  0
    0.5739  -22.1069   36.4588 C   0  0  0  0  0  0  0  0  0  0  0  0
   -0.0207  -24.4349   36.0572 C   0  0  0  0  0  0  0  0  0  0  0  0
   -2.9991  -20.5656   34.4046 O   0  0  0  0  0  0  0  0  0  0  0  0
   -4.2907  -19.4516   37.3810 C   0  0  1  0  0  0  0  0  0  0  0  0
   -5.2444  -20.3603   36.8724 O   0  0  0  0  0  0  0  0  0  0  0  0
   -3.7484  -20.0137   38.6435 C   0  0  0  0  0  0  0  0  0  0  0  0
   -4.7331  -20.0183   39.7893 C   0  0  0  0  0  0  0  0  0  0  0  0
   -3.9812  -20.5908   40.9902 C   0  0  0  0  0  0  0  0  0  0  0  0
   -1.5942  -19.3771   33.6682 N   0  0  0  0  0  0  0  0  0  0  0  0
   -2.2453  -16.5730   30.6459 C   0  0  0  0  0  0  0  0  0  0  0  0
    2.0825  -16.0075   31.7625 C   0  0  0  0  0  0  0  0  0  0  0  0
    2.4445  -17.3227   31.7131 C   0  0  0  0  0  0  0  0  0  0  0  0
    3.6096  -17.7752   31.0427 N   0  0  0  0  0  0  0  0  0  0  0  0
    4.8711  -17.2671   31.5595 C   0  0  0  0  0  0  0  0  0  0  0  0
    5.1180  -17.8247   32.9526 C   0  0  0  0  0  0  0  0  0  0  0  0
    6.4316  -17.3159   33.5018 C   0  0  0  0  0  0  0  0  0  0  0  0
    3.5765  -18.8521   29.7074 S   0  0  2  0  0  6  0  0  0  0  0  0
    2.1777  -19.4187   29.6066 O   0  0  0  0  0  0  0  0  0  0  0  0
    4.7572  -20.1487   29.9375 C   0  0  0  0  0  0  0  0  0  0  0  0
    3.8171  -18.0684   28.4576 O   0  0  0  0  0  0  0  0  0  0  0  0
    1.6090  -18.1809   32.3516 C   0  0  0  0  0  0  0  0  0  0  0  0
  1  2  2  0
  2  3  1  0
  2 32  1  0
  3  4  1  0
  3 44  2  0
  4  5  2  0
  5  6  1  0
  5 34  1  0
  6  7  1  0
  7  8  1  0
  8  9  1  0
  9 10  1  0
 10 11  1  0
 10 33  2  0
 11 12  2  0
 12 13  1  0
 13 14  2  0
 14 15  1  0
 14 33  1  0
 15 16  1  0
 16 17  1  1
 16 32  1  0
 17 18  1  0
 19 18  1  6
 19 20  1  0
 19 27  1  0
 20 21  1  0
 20 26  2  0
 21 22  1  0
 22 23  1  0
 23 24  1  6
 23 25  1  0
 27 28  1  6
 27 29  1  0
 29 30  1  0
 30 31  1  0
 34 35  2  0
 35 36  1  0
 35 44  1  0
 36 37  1  0
 36 40  1  0
 37 38  1  0
 38 39  1  0
 40 41  2  0
 40 42  1  1
 40 43  2  0
M  CHG  1  18   1
M  END
$$$$
