
     RDKit          3D

 44 46  0  0  0  0  0  0  0  0999 V2000
   -0.1225  -20.2425   33.8737 O   0  0  0  0  0  0  0  0  0  0  0  0
   -0.6975  -19.0558   33.7825 C   0  0  0  0  0  0  0  0  0  0  0  0
    0.0600  -18.0044   33.0844 C   0  0  0  0  0  0  0  0  0  0  0  0
    0.2537  -16.6718   33.3770 C   0  0  0  0  0  0  0  0  0  0  0  0
    1.0221  -15.9273   32.5102 C   0  0  0  0  0  0  0  0  0  0  0  0
    1.3683  -14.4670   32.5739 C   0  0  0  0  0  0  0  0  0  0  0  0
    0.2036  -13.5519   32.2268 C   0  0  0  0  0  0  0  0  0  0  0  0
   -0.2447  -13.6998   30.8180 C   0  0  0  0  0  0  0  0  0  0  0  0
   -1.7399  -13.7547   30.6827 C   0  0  0  0  0  0  0  0  0  0  0  0
   -2.3569  -15.0695   31.0181 C   0  0  0  0  0  0  0  0  0  0  0  0
   -2.5403  -15.8287   29.8329 C   0  0  0  0  0  0  0  0  0  0  0  0
   -3.0756  -17.0842   29.8140 C   0  0  0  0  0  0  0  0  0  0  0  0
   -3.4307  -17.5723   31.0398 C   0  0  0  0  0  0  0  0  0  0  0  0
   -3.2683  -16.8553   32.2525 C   0  0  0  0  0  0  0  0  0  0  0  0
   -3.7631  -17.6891   33.3899 C   0  0  0  0  0  0  0  0  0  0  0  0
   -2.8696  -17.9472   34.5397 C   0  0  1  0  0  0  0  0  0  0  0  0
   -3.7579  -18.2183   35.7576 C   0  0  0  0  0  0  0  0  0  0  0  0
   -2.9994  -18.3858   36.9536 N   0  0  0  0  0  4  0  0  0  0  0  0
   -3.0961  -19.7733   37.4626 C   0  0  2  0  0  0  0  0  0  0  0  0
   -2.4481  -20.6254   36.3886 C   0  0  0  0  0  0  0  0  0  0  0  0
   -1.6727  -21.7409   36.7100 N   0  0  0  0  0  0  0  0  0  0  0  0
   -1.6470  -22.9770   36.0050 C   0  0  0  0  0  0  0  0  0  0  0  0
   -1.3046  -24.2300   36.6860 C   0  0  2  0  0  0  0  0  0  0  0  0
   -1.3217  -24.2832   38.1688 C   0  0  0  0  0  0  0  0  0  0  0  0
    0.0538  -24.7865   36.2222 C   0  0  0  0  0  0  0  0  0  0  0  0
   -2.6307  -20.2915   35.2068 O   0  0  0  0  0  0  0  0  0  0  0  0
   -4.5508  -20.1048   37.4908 C   0  0  1  0  0  0  0  0  0  0  0  0
   -4.6617  -21.5124   37.5060 O   0  0  0  0  0  0  0  0  0  0  0  0
   -5.3375  -19.5699   38.6306 C   0  0  0  0  0  0  0  0  0  0  0  0
   -6.6762  -20.2426   38.8252 C   0  0  0  0  0  0  0  0  0  0  0  0
   -7.2759  -19.6317   40.0911 C   0  0  0  0  0  0  0  0  0  0  0  0
   -1.9689  -19.0756   34.4036 N   0  0  0  0  0  0  0  0  0  0  0  0
   -2.7244  -15.5882   32.2382 C   0  0  0  0  0  0  0  0  0  0  0  0
    1.5943  -16.5207   31.3574 C   0  0  0  0  0  0  0  0  0  0  0  0
    1.4231  -17.8372   31.0399 C   0  0  0  0  0  0  0  0  0  0  0  0
    1.9944  -18.4307   29.8853 N   0  0  0  0  0  0  0  0  0  0  0  0
    1.0678  -18.7190   28.8013 C   0  0  0  0  0  0  0  0  0  0  0  0
    0.3116  -17.4555   28.4215 C   0  0  0  0  0  0  0  0  0  0  0  0
    0.0930  -17.3982   26.9265 C   0  0  0  0  0  0  0  0  0  0  0  0
    3.6635  -18.7988   29.7364 S   0  0  2  0  0  6  0  0  0  0  0  0
    4.1885  -19.1258   31.1167 O   0  0  0  0  0  0  0  0  0  0  0  0
    4.5351  -17.4214   29.0500 C   0  0  0  0  0  0  0  0  0  0  0  0
    3.8061  -20.0389   28.9142 O   0  0  0  0  0  0  0  0  0  0  0  0
    0.6613  -18.5509   31.9074 C   0  0  0  0  0  0  0  0  0  0  0  0
  1  2  2  0
  2  3  1  0
  2 32  1  0
  3  4  1  0
  3 44  2  0
  4  5  2  0
  5  6  1  0
  5 34  1  0
  6  7  1  0
  7  8  1  0
  8  9  1  0
  9 10  1  0
 10 11  1  0
 10 33  2  0
 11 12  2  0
 12 13  1  0
 13 14  2  0
 14 15  1  0
 14 33  1  0
 15 16  1  0
 16 17  1  1
 16 32  1  0
 17 18  1  0
 19 18  1  6
 19 20  1  0
 19 27  1  0
 20 21  1  0
 20 26  2  0
 21 22  1  0
 22 23  1  0
 23 24  1  1
 23 25  1  0
 27 28  1  1
 27 29  1  0
 29 30  1  0
 30 31  1  0
 34 35  2  0
 35 36  1  0
 35 44  1  0
 36 37  1  0
 36 40  1  0
 37 38  1  0
 38 39  1  0
 40 41  2  0
 40 42  1  6
 40 43  2  0
M  CHG  1  18   1
M  END
$$$$
