
     RDKit          3D

 44 46  0  0  0  0  0  0  0  0999 V2000
    0.2408  -21.0989   32.3796 O   0  0  0  0  0  0  0  0  0  0  0  0
   -0.5313  -20.1034   32.7796 C   0  0  0  0  0  0  0  0  0  0  0  0
    0.1140  -18.7913   32.9492 C   0  0  0  0  0  0  0  0  0  0  0  0
   -0.0108  -17.8329   33.9315 C   0  0  0  0  0  0  0  0  0  0  0  0
    0.7343  -16.6817   33.8062 C   0  0  0  0  0  0  0  0  0  0  0  0
    0.7711  -15.4800   34.7068 C   0  0  0  0  0  0  0  0  0  0  0  0
   -0.4730  -14.6099   34.6083 C   0  0  0  0  0  0  0  0  0  0  0  0
   -0.6342  -13.9855   33.2698 C   0  0  0  0  0  0  0  0  0  0  0  0
   -2.0435  -14.0610   32.7550 C   0  0  0  0  0  0  0  0  0  0  0  0
   -2.4391  -15.3815   32.1877 C   0  0  0  0  0  0  0  0  0  0  0  0
   -2.2632  -15.3696   30.7792 C   0  0  0  0  0  0  0  0  0  0  0  0
   -2.5304  -16.4392   29.9744 C   0  0  0  0  0  0  0  0  0  0  0  0
   -2.9885  -17.5470   30.6300 C   0  0  0  0  0  0  0  0  0  0  0  0
   -3.1811  -17.6106   32.0336 C   0  0  0  0  0  0  0  0  0  0  0  0
   -3.6911  -18.9664   32.4017 C   0  0  0  0  0  0  0  0  0  0  0  0
   -2.9759  -19.7536   33.4291 C   0  0  1  0  0  0  0  0  0  0  0  0
   -3.9899  -20.7142   34.0575 C   0  0  0  0  0  0  0  0  0  0  0  0
   -4.6272  -20.1540   35.2037 N   0  0  0  0  0  4  0  0  0  0  0  0
   -4.2827  -20.9055   36.4326 C   0  0  2  0  0  0  0  0  0  0  0  0
   -3.3879  -19.9688   37.2207 C   0  0  0  0  0  0  0  0  0  0  0  0
   -3.7189  -19.5570   38.5129 N   0  0  0  0  0  0  0  0  0  0  0  0
   -5.0293  -19.4957   39.0649 C   0  0  0  0  0  0  0  0  0  0  0  0
   -5.2638  -18.9300   40.3975 C   0  0  2  0  0  0  0  0  0  0  0  0
   -4.3339  -17.9027   40.9284 C   0  0  0  0  0  0  0  0  0  0  0  0
   -5.4025  -20.0233   41.4726 C   0  0  0  0  0  0  0  0  0  0  0  0
   -2.3458  -19.5768   36.6711 O   0  0  0  0  0  0  0  0  0  0  0  0
   -3.4527  -22.0645   35.9916 C   0  0  1  0  0  0  0  0  0  0  0  0
   -2.6302  -21.6156   34.9352 O   0  0  0  0  0  0  0  0  0  0  0  0
   -2.5817  -22.6929   37.0165 C   0  0  0  0  0  0  0  0  0  0  0  0
   -1.6501  -23.7494   36.4700 C   0  0  0  0  0  0  0  0  0  0  0  0
   -0.8671  -24.2831   37.6689 C   0  0  0  0  0  0  0  0  0  0  0  0
   -1.8618  -20.5523   32.9561 N   0  0  0  0  0  0  0  0  0  0  0  0
   -2.9021  -16.5124   32.8196 C   0  0  0  0  0  0  0  0  0  0  0  0
    1.6014  -16.4971   32.7006 C   0  0  0  0  0  0  0  0  0  0  0  0
    1.7490  -17.4267   31.7121 C   0  0  0  0  0  0  0  0  0  0  0  0
    2.6156  -17.2413   30.6048 N   0  0  0  0  0  0  0  0  0  0  0  0
    2.0917  -16.4176   29.5259 C   0  0  0  0  0  0  0  0  0  0  0  0
    0.8053  -15.7414   29.9734 C   0  0  0  0  0  0  0  0  0  0  0  0
    0.2542  -14.8677   28.8693 C   0  0  0  0  0  0  0  0  0  0  0  0
    4.1864  -17.9245   30.5059 S   0  0  2  0  0  6  0  0  0  0  0  0
    4.2814  -19.0148   31.5500 O   0  0  0  0  0  0  0  0  0  0  0  0
    5.4130  -16.6826   30.7906 C   0  0  0  0  0  0  0  0  0  0  0  0
    4.3347  -18.5867   29.1741 O   0  0  0  0  0  0  0  0  0  0  0  0
    1.0042  -18.5523   31.8557 C   0  0  0  0  0  0  0  0  0  0  0  0
  1  2  2  0
  2  3  1  0
  2 32  1  0
  3  4  1  0
  3 44  2  0
  4  5  2  0
  5  6  1  0
  5 34  1  0
  6  7  1  0
  7  8  1  0
  8  9  1  0
  9 10  1  0
 10 11  1  0
 10 33  2  0
 11 12  2  0
 12 13  1  0
 13 14  2  0
 14 15  1  0
 14 33  1  0
 15 16  1  0
 16 17  1  6
 16 32  1  0
 17 18  1  0
 19 18  1  6
 19 20  1  0
 19 27  1  0
 20 21  1  0
 20 26  2  0
 21 22  1  0
 22 23  1  0
 23 24  1  1
 23 25  1  0
 27 28  1  6
 27 29  1  0
 29 30  1  0
 30 31  1  0
 34 35  2  0
 35 36  1  0
 35 44  1  0
 36 37  1  0
 36 40  1  0
 37 38  1  0
 38 39  1  0
 40 41  2  0
 40 42  1  1
 40 43  2  0
M  CHG  1  18   1
M  END
$$$$
