
     RDKit          3D

 44 46  0  0  0  0  0  0  0  0999 V2000
    0.9544  -20.5883   33.9653 O   0  0  0  0  0  0  0  0  0  0  0  0
    0.2065  -19.4992   33.9230 C   0  0  0  0  0  0  0  0  0  0  0  0
    0.7724  -18.3334   33.2249 C   0  0  0  0  0  0  0  0  0  0  0  0
    0.7770  -16.9926   33.5429 C   0  0  0  0  0  0  0  0  0  0  0  0
    1.3929  -16.1255   32.6683 C   0  0  0  0  0  0  0  0  0  0  0  0
    1.5206  -14.6314   32.7555 C   0  0  0  0  0  0  0  0  0  0  0  0
    0.2205  -13.8940   32.4715 C   0  0  0  0  0  0  0  0  0  0  0  0
   -0.2541  -14.0805   31.0760 C   0  0  0  0  0  0  0  0  0  0  0  0
   -1.7287  -14.3554   30.9914 C   0  0  0  0  0  0  0  0  0  0  0  0
   -2.1304  -15.7537   31.3160 C   0  0  0  0  0  0  0  0  0  0  0  0
   -2.2440  -16.5093   30.1198 C   0  0  0  0  0  0  0  0  0  0  0  0
   -2.5872  -17.8300   30.0889 C   0  0  0  0  0  0  0  0  0  0  0  0
   -2.8190  -18.3887   31.3141 C   0  0  0  0  0  0  0  0  0  0  0  0
   -2.7188  -17.6785   32.5375 C   0  0  0  0  0  0  0  0  0  0  0  0
   -3.0408  -18.5982   33.6707 C   0  0  0  0  0  0  0  0  0  0  0  0
   -2.0758  -18.7418   34.7821 C   0  0  1  0  0  0  0  0  0  0  0  0
   -2.8670  -19.1654   36.0232 C   0  0  0  0  0  0  0  0  0  0  0  0
   -3.8450  -20.1603   35.7276 N   0  0  0  0  0  4  0  0  0  0  0  0
   -3.3729  -21.5105   36.1120 C   0  0  2  0  0  0  0  0  0  0  0  0
   -4.0089  -21.7725   37.4633 C   0  0  0  0  0  0  0  0  0  0  0  0
   -4.6732  -20.7653   38.1658 N   0  0  0  0  0  0  0  0  0  0  0  0
   -6.0110  -20.3313   37.9473 C   0  0  0  0  0  0  0  0  0  0  0  0
   -7.0395  -20.4997   38.9791 C   0  0  2  0  0  0  0  0  0  0  0  0
   -7.6149  -19.3014   39.6386 C   0  0  0  0  0  0  0  0  0  0  0  0
   -6.5891  -21.4641   40.0914 C   0  0  0  0  0  0  0  0  0  0  0  0
   -3.9145  -22.9206   37.9264 O   0  0  0  0  0  0  0  0  0  0  0  0
   -1.8996  -21.3923   36.3174 C   0  0  1  0  0  0  0  0  0  0  0  0
   -1.4627  -20.2622   35.5922 O   0  0  0  0  0  0  0  0  0  0  0  0
   -1.4280  -21.2497   37.7178 C   0  0  0  0  0  0  0  0  0  0  0  0
   -0.0628  -20.6155   37.8470 C   0  0  0  0  0  0  0  0  0  0  0  0
    0.2027  -20.4861   39.3464 C   0  0  0  0  0  0  0  0  0  0  0  0
   -1.0234  -19.7203   34.5873 N   0  0  0  0  0  0  0  0  0  0  0  0
   -2.3701  -16.3444   32.5352 C   0  0  0  0  0  0  0  0  0  0  0  0
    2.0025  -16.6050   31.4821 C   0  0  0  0  0  0  0  0  0  0  0  0
    2.0167  -17.9260   31.1388 C   0  0  0  0  0  0  0  0  0  0  0  0
    2.6255  -18.4056   29.9510 N   0  0  0  0  0  0  0  0  0  0  0  0
    3.6409  -19.4315   30.1336 C   0  0  0  0  0  0  0  0  0  0  0  0
    5.0010  -18.7799   30.3283 C   0  0  0  0  0  0  0  0  0  0  0  0
    6.0725  -19.8322   30.5028 C   0  0  0  0  0  0  0  0  0  0  0  0
    2.2186  -17.8407   28.3829 S   0  0  2  0  0  6  0  0  0  0  0  0
    3.5018  -17.4390   27.6902 O   0  0  0  0  0  0  0  0  0  0  0  0
    1.1156  -16.4628   28.4958 C   0  0  0  0  0  0  0  0  0  0  0  0
    1.6428  -18.9775   27.6017 O   0  0  0  0  0  0  0  0  0  0  0  0
    1.4030  -18.7617   32.0147 C   0  0  0  0  0  0  0  0  0  0  0  0
  1  2  2  0
  2  3  1  0
  2 32  1  0
  3  4  1  0
  3 44  2  0
  4  5  2  0
  5  6  1  0
  5 34  1  0
  6  7  1  0
  7  8  1  0
  8  9  1  0
  9 10  1  0
 10 11  1  0
 10 33  2  0
 11 12  2  0
 12 13  1  0
 13 14  2  0
 14 15  1  0
 14 33  1  0
 15 16  1  0
 16 17  1  1
 16 32  1  0
 17 18  1  0
 19 18  1  1
 19 20  1  0
 19 27  1  0
 20 21  1  0
 20 26  2  0
 21 22  1  0
 22 23  1  0
 23 24  1  1
 23 25  1  0
 27 28  1  6
 27 29  1  0
 29 30  1  0
 30 31  1  0
 34 35  2  0
 35 36  1  0
 35 44  1  0
 36 37  1  0
 36 40  1  0
 37 38  1  0
 38 39  1  0
 40 41  2  0
 40 42  1  1
 40 43  2  0
M  CHG  1  18   1
M  END
$$$$
