
     RDKit          3D

 44 46  0  0  0  0  0  0  0  0999 V2000
   -1.0407  -18.7022   31.6032 O   0  0  0  0  0  0  0  0  0  0  0  0
   -0.0773  -19.2553   32.3195 C   0  0  0  0  0  0  0  0  0  0  0  0
    1.2596  -19.3052   31.7056 C   0  0  0  0  0  0  0  0  0  0  0  0
    2.2116  -20.3009   31.6712 C   0  0  0  0  0  0  0  0  0  0  0  0
    3.3920  -20.0406   31.0115 C   0  0  0  0  0  0  0  0  0  0  0  0
    4.5937  -20.9263   30.8446 C   0  0  0  0  0  0  0  0  0  0  0  0
    5.4130  -21.0831   32.1168 C   0  0  0  0  0  0  0  0  0  0  0  0
    6.0312  -19.8082   32.5641 C   0  0  0  0  0  0  0  0  0  0  0  0
    5.8992  -19.5815   34.0433 C   0  0  0  0  0  0  0  0  0  0  0  0
    4.5643  -19.0924   34.4910 C   0  0  0  0  0  0  0  0  0  0  0  0
    4.5840  -17.6771   34.5978 C   0  0  0  0  0  0  0  0  0  0  0  0
    3.5049  -16.9319   34.9767 C   0  0  0  0  0  0  0  0  0  0  0  0
    2.3792  -17.6557   35.2521 C   0  0  0  0  0  0  0  0  0  0  0  0
    2.3072  -19.0690   35.1606 C   0  0  0  0  0  0  0  0  0  0  0  0
    0.9318  -19.5192   35.5339 C   0  0  0  0  0  0  0  0  0  0  0  0
    0.1733  -20.3782   34.5992 C   0  0  1  0  0  0  0  0  0  0  0  0
   -0.8276  -21.1864   35.4302 C   0  0  0  0  0  0  0  0  0  0  0  0
   -2.1241  -21.2156   34.8369 N   0  0  0  0  0  4  0  0  0  0  0  0
   -2.8563  -19.9514   35.0802 C   0  0  2  0  0  0  0  0  0  0  0  0
   -3.5466  -20.1550   36.4149 C   0  0  0  0  0  0  0  0  0  0  0  0
   -3.0011  -20.9781   37.4017 N   0  0  0  0  0  0  0  0  0  0  0  0
   -3.1117  -20.7897   38.8081 C   0  0  0  0  0  0  0  0  0  0  0  0
   -2.9616  -21.9148   39.7368 C   0  0  2  0  0  0  0  0  0  0  0  0
   -4.1302  -22.3652   40.5326 C   0  0  0  0  0  0  0  0  0  0  0  0
   -1.7931  -21.7029   40.7164 C   0  0  0  0  0  0  0  0  0  0  0  0
   -4.6220  -19.5621   36.5983 O   0  0  0  0  0  0  0  0  0  0  0  0
   -3.9121  -19.8739   34.0286 C   0  0  1  0  0  0  0  0  0  0  0  0
   -4.8167  -20.9329   34.2614 O   0  0  0  0  0  0  0  0  0  0  0  0
   -4.6913  -18.6125   33.9536 C   0  0  0  0  0  0  0  0  0  0  0  0
   -4.6496  -17.9417   32.6005 C   0  0  0  0  0  0  0  0  0  0  0  0
   -5.3649  -16.6020   32.7709 C   0  0  0  0  0  0  0  0  0  0  0  0
   -0.5795  -19.6875   33.5700 N   0  0  0  0  0  0  0  0  0  0  0  0
    3.4152  -19.7937   34.7750 C   0  0  0  0  0  0  0  0  0  0  0  0
    3.6120  -18.7870   30.3882 C   0  0  0  0  0  0  0  0  0  0  0  0
    2.6896  -17.7810   30.4027 C   0  0  0  0  0  0  0  0  0  0  0  0
    2.9103  -16.5258   29.7802 N   0  0  0  0  0  0  0  0  0  0  0  0
    2.2601  -15.3871   30.4105 C   0  0  0  0  0  0  0  0  0  0  0  0
    3.2835  -14.2954   30.6811 C   0  0  0  0  0  0  0  0  0  0  0  0
    2.6740  -13.1933   31.5177 C   0  0  0  0  0  0  0  0  0  0  0  0
    3.8752  -16.3209   28.3763 S   0  0  2  0  0  6  0  0  0  0  0  0
    3.7549  -17.5798   27.5464 O   0  0  0  0  0  0  0  0  0  0  0  0
    5.5606  -16.0334   28.8287 C   0  0  0  0  0  0  0  0  0  0  0  0
    3.2994  -15.2084   27.5609 O   0  0  0  0  0  0  0  0  0  0  0  0
    1.5348  -18.0593   31.0594 C   0  0  0  0  0  0  0  0  0  0  0  0
  1  2  2  0
  2  3  1  0
  2 32  1  0
  3  4  1  0
  3 44  2  0
  4  5  2  0
  5  6  1  0
  5 34  1  0
  6  7  1  0
  7  8  1  0
  8  9  1  0
  9 10  1  0
 10 11  1  0
 10 33  2  0
 11 12  2  0
 12 13  1  0
 13 14  2  0
 14 15  1  0
 14 33  1  0
 15 16  1  0
 16 17  1  1
 16 32  1  0
 17 18  1  0
 19 18  1  6
 19 20  1  0
 19 27  1  0
 20 21  1  0
 20 26  2  0
 21 22  1  0
 22 23  1  0
 23 24  1  1
 23 25  1  0
 27 28  1  1
 27 29  1  0
 29 30  1  0
 30 31  1  0
 34 35  2  0
 35 36  1  0
 35 44  1  0
 36 37  1  0
 36 40  1  0
 37 38  1  0
 38 39  1  0
 40 41  2  0
 40 42  1  1
 40 43  2  0
M  CHG  1  18   1
M  END
$$$$
