
     RDKit          3D

 25 27  0  0  0  0  0  0  0  0999 V2000
    4.3311    7.1237   84.0751 C   0  0  0  0  0  0  0  0  0  0  0  0
    1.9408    7.1524   84.1841 C   0  0  0  0  0  0  0  0  0  0  0  0
    3.0544    9.1717   84.0649 C   0  0  0  0  0  0  0  0  0  0  0  0
    1.8416    9.8489   84.1002 C   0  0  0  0  0  0  0  0  0  0  0  0
    0.6433    9.1587   84.1794 C   0  0  0  0  0  0  0  0  0  0  0  0
   -0.6897    9.4734   84.2282 C   0  0  0  0  0  0  0  0  0  0  0  0
   -1.4422    8.3075   84.3001 C   0  0  0  0  0  0  0  0  0  0  0  0
    0.6982    7.7669   84.2225 C   0  0  0  0  0  0  0  0  0  0  0  0
    4.7761    6.7436   82.7110 C   0  0  0  0  0  0  0  0  0  0  0  0
    6.4530    5.9670   81.0658 C   0  0  0  0  0  0  0  0  0  0  0  0
    5.9212    6.1691   82.4374 C   0  0  0  0  0  0  0  0  0  0  0  0
    3.0850    7.8290   84.1076 N   0  0  0  0  0  0  0  0  0  0  0  0
   -0.5638    7.3064   84.2939 N   0  0  0  0  0  0  0  0  0  0  0  0
    1.9735    5.9085   84.2240 O   0  0  0  0  0  0  0  0  0  0  0  0
    1.7866   11.3039   84.0683 C   0  0  0  0  0  0  0  0  0  0  0  0
    0.7352   11.9839   83.4835 C   0  0  0  0  0  0  0  0  0  0  0  0
    0.7081   13.3747   83.4600 C   0  0  0  0  0  0  0  0  0  0  0  0
    1.7167   14.1197   84.0127 C   0  0  0  0  0  0  0  0  0  0  0  0
    2.7739   13.4521   84.6006 C   0  0  0  0  0  0  0  0  0  0  0  0
    2.7988   12.0746   84.6226 C   0  0  0  0  0  0  0  0  0  0  0  0
    3.8336   14.2637   85.1828 C   0  0  0  0  0  0  0  0  0  0  0  0
    3.7639   14.5350   86.4059 O   0  0  0  0  0  0  0  0  0  0  0  0
    4.9067   14.7271   84.3796 N   0  0  0  0  0  0  0  0  0  0  0  0
    4.8341   14.5681   82.9444 C   0  0  0  0  0  0  0  0  0  0  0  0
    6.0582   15.3524   84.9971 C   0  0  0  0  0  0  0  0  0  0  0  0
  1  9  1  0
 12  1  1  0
  2  8  1  0
 12  2  1  0
  2 14  2  0
  3  4  2  0
  3 12  1  0
  4  5  1  0
  4 15  1  0
  5  6  1  0
  5  8  2  0
  6  7  2  0
  7 13  1  0
  8 13  1  0
  9 11  2  3
 11 10  1  0
 15 16  2  0
 15 20  1  0
 16 17  1  0
 17 18  2  0
 18 19  1  0
 19 20  2  0
 19 21  1  0
 21 22  2  0
 21 23  1  0
 23 24  1  0
 23 25  1  0
M  END
$$$$
