
     RDKit          3D

 25 27  0  0  0  0  0  0  0  0999 V2000
    4.3638    7.4517   84.3564 C   0  0  0  0  0  0  0  0  0  0  0  0
    1.9736    7.5428   84.2847 C   0  0  0  0  0  0  0  0  0  0  0  0
    3.1455    9.5321   84.2462 C   0  0  0  0  0  0  0  0  0  0  0  0
    1.9517   10.2407   84.1887 C   0  0  0  0  0  0  0  0  0  0  0  0
    0.7331    9.5821   84.1785 C   0  0  0  0  0  0  0  0  0  0  0  0
   -0.5910    9.9315   84.1261 C   0  0  0  0  0  0  0  0  0  0  0  0
   -1.3770    8.7858   84.1431 C   0  0  0  0  0  0  0  0  0  0  0  0
    0.7482    8.1895   84.2282 C   0  0  0  0  0  0  0  0  0  0  0  0
    5.0753    7.3484   83.0578 C   0  0  0  0  0  0  0  0  0  0  0  0
    7.0903    7.2158   81.6281 C   0  0  0  0  0  0  0  0  0  0  0  0
    6.3781    7.3704   82.9218 C   0  0  0  0  0  0  0  0  0  0  0  0
    3.1376    8.1893   84.2935 N   0  0  0  0  0  0  0  0  0  0  0  0
   -0.5272    7.7622   84.2051 N   0  0  0  0  0  0  0  0  0  0  0  0
    1.9707    6.2987   84.3293 O   0  0  0  0  0  0  0  0  0  0  0  0
    1.9373   11.6965   84.1501 C   0  0  0  0  0  0  0  0  0  0  0  0
    0.9495   12.4013   83.4889 C   0  0  0  0  0  0  0  0  0  0  0  0
    0.9606   13.7922   83.4608 C   0  0  0  0  0  0  0  0  0  0  0  0
    1.9455   14.5129   84.0841 C   0  0  0  0  0  0  0  0  0  0  0  0
    2.9392   13.8203   84.7488 C   0  0  0  0  0  0  0  0  0  0  0  0
    2.9262   12.4427   84.7752 C   0  0  0  0  0  0  0  0  0  0  0  0
    3.9746   14.6063   85.4051 C   0  0  0  0  0  0  0  0  0  0  0  0
    3.9088   14.7452   86.6504 O   0  0  0  0  0  0  0  0  0  0  0  0
    5.0206   15.1917   84.6471 N   0  0  0  0  0  0  0  0  0  0  0  0
    6.0794   15.8981   85.3329 C   0  0  0  0  0  0  0  0  0  0  0  0
    5.0218   15.0782   83.2030 C   0  0  0  0  0  0  0  0  0  0  0  0
  1  9  1  0
 12  1  1  0
  2  8  1  0
 12  2  1  0
  2 14  2  0
  3  4  2  0
  3 12  1  0
  4  5  1  0
  4 15  1  0
  5  6  1  0
  5  8  2  0
  6  7  2  0
  7 13  1  0
  8 13  1  0
  9 11  2  3
 11 10  1  0
 15 16  2  0
 15 20  1  0
 16 17  1  0
 17 18  2  0
 18 19  1  0
 19 20  2  0
 19 21  1  0
 21 22  2  0
 21 23  1  0
 23 24  1  0
 23 25  1  0
M  END
$$$$
