
     RDKit          3D

 25 27  0  0  0  0  0  0  0  0999 V2000
    4.3488    7.3071   84.1462 C   0  0  0  0  0  0  0  0  0  0  0  0
    1.9571    7.3804   84.1703 C   0  0  0  0  0  0  0  0  0  0  0  0
    3.1109    9.3752   84.0229 C   0  0  0  0  0  0  0  0  0  0  0  0
    1.9103   10.0739   83.9931 C   0  0  0  0  0  0  0  0  0  0  0  0
    0.6975    9.4074   84.0532 C   0  0  0  0  0  0  0  0  0  0  0  0
   -0.6304    9.7464   84.0447 C   0  0  0  0  0  0  0  0  0  0  0  0
   -1.4061    8.5966   84.1291 C   0  0  0  0  0  0  0  0  0  0  0  0
    0.7254    8.0171   84.1447 C   0  0  0  0  0  0  0  0  0  0  0  0
    5.0803    7.2938   82.8547 C   0  0  0  0  0  0  0  0  0  0  0  0
    7.2180    7.5625   81.6381 C   0  0  0  0  0  0  0  0  0  0  0  0
    6.3586    7.0360   82.7285 C   0  0  0  0  0  0  0  0  0  0  0  0
    3.1155    8.0344   84.1114 N   0  0  0  0  0  0  0  0  0  0  0  0
   -0.5465    7.5810   84.1872 N   0  0  0  0  0  0  0  0  0  0  0  0
    1.9657    6.1382   84.2529 O   0  0  0  0  0  0  0  0  0  0  0  0
    1.8830   11.5277   83.9107 C   0  0  0  0  0  0  0  0  0  0  0  0
    0.8550   12.2060   83.2838 C   0  0  0  0  0  0  0  0  0  0  0  0
    0.8544   13.5954   83.2126 C   0  0  0  0  0  0  0  0  0  0  0  0
    1.8667   14.3407   83.7581 C   0  0  0  0  0  0  0  0  0  0  0  0
    2.9006   13.6747   84.3878 C   0  0  0  0  0  0  0  0  0  0  0  0
    2.8993   12.2986   84.4570 C   0  0  0  0  0  0  0  0  0  0  0  0
    3.9647   14.4866   84.9614 C   0  0  0  0  0  0  0  0  0  0  0  0
    3.9671   14.6628   86.2037 O   0  0  0  0  0  0  0  0  0  0  0  0
    4.9624   15.0551   84.1290 N   0  0  0  0  0  0  0  0  0  0  0  0
    4.8035   14.9927   82.6933 C   0  0  0  0  0  0  0  0  0  0  0  0
    6.1236   15.6901   84.7177 C   0  0  0  0  0  0  0  0  0  0  0  0
  1  9  1  0
 12  1  1  0
  2  8  1  0
 12  2  1  0
  2 14  2  0
  3  4  2  0
  3 12  1  0
  4  5  1  0
  4 15  1  0
  5  6  1  0
  5  8  2  0
  6  7  2  0
  7 13  1  0
  8 13  1  0
  9 11  2  3
 11 10  1  0
 15 16  2  0
 15 20  1  0
 16 17  1  0
 17 18  2  0
 18 19  1  0
 19 20  2  0
 19 21  1  0
 21 22  2  0
 21 23  1  0
 23 24  1  0
 23 25  1  0
M  END
$$$$
