
     RDKit          3D

 25 27  0  0  0  0  0  0  0  0999 V2000
    4.8067    7.1670   84.5576 C   0  0  0  0  0  0  0  0  0  0  0  0
    2.4231    7.0715   84.3688 C   0  0  0  0  0  0  0  0  0  0  0  0
    3.4423    9.1429   84.3149 C   0  0  0  0  0  0  0  0  0  0  0  0
    2.2029    9.7552   84.1752 C   0  0  0  0  0  0  0  0  0  0  0  0
    1.0395    9.0048   84.1305 C   0  0  0  0  0  0  0  0  0  0  0  0
   -0.3029    9.2493   84.0025 C   0  0  0  0  0  0  0  0  0  0  0  0
   -1.0003    8.0476   84.0232 C   0  0  0  0  0  0  0  0  0  0  0  0
    1.1569    7.6198   84.2308 C   0  0  0  0  0  0  0  0  0  0  0  0
    5.7433    7.4172   83.4335 C   0  0  0  0  0  0  0  0  0  0  0  0
    7.9425    7.2086   82.3192 C   0  0  0  0  0  0  0  0  0  0  0  0
    6.8695    6.7739   83.2490 C   0  0  0  0  0  0  0  0  0  0  0  0
    3.5332    7.8056   84.4099 N   0  0  0  0  0  0  0  0  0  0  0  0
   -0.0800    7.0950   84.1622 N   0  0  0  0  0  0  0  0  0  0  0  0
    2.5117    5.8329   84.4578 O   0  0  0  0  0  0  0  0  0  0  0  0
    2.0808   11.2035   84.0837 C   0  0  0  0  0  0  0  0  0  0  0  0
    0.9191   11.8638   84.4362 C   0  0  0  0  0  0  0  0  0  0  0  0
    0.8246   13.2481   84.3342 C   0  0  0  0  0  0  0  0  0  0  0  0
    1.8734   14.0060   83.8832 C   0  0  0  0  0  0  0  0  0  0  0  0
    3.0408   13.3581   83.5275 C   0  0  0  0  0  0  0  0  0  0  0  0
    3.1321   11.9870   83.6292 C   0  0  0  0  0  0  0  0  0  0  0  0
    4.1427   14.1832   83.0524 C   0  0  0  0  0  0  0  0  0  0  0  0
    4.0773   14.6386   81.8851 O   0  0  0  0  0  0  0  0  0  0  0  0
    5.2507   14.4558   83.8947 N   0  0  0  0  0  0  0  0  0  0  0  0
    5.2690   13.9134   85.2348 C   0  0  0  0  0  0  0  0  0  0  0  0
    6.3479   15.2681   83.4106 C   0  0  0  0  0  0  0  0  0  0  0  0
  1  9  1  0
 12  1  1  0
  2  8  1  0
 12  2  1  0
  2 14  2  0
  3  4  2  0
  3 12  1  0
  4  5  1  0
  4 15  1  0
  5  6  1  0
  5  8  2  0
  6  7  2  0
  7 13  1  0
  8 13  1  0
  9 11  2  3
 11 10  1  0
 15 16  2  0
 15 20  1  0
 16 17  1  0
 17 18  2  0
 18 19  1  0
 19 20  2  0
 19 21  1  0
 21 22  2  0
 21 23  1  0
 23 24  1  0
 23 25  1  0
M  END
$$$$
