
     RDKit          3D

 25 27  0  0  0  0  0  0  0  0999 V2000
    4.4262    7.4398   83.1864 C   0  0  0  0  0  0  0  0  0  0  0  0
    2.1422    7.3897   83.8983 C   0  0  0  0  0  0  0  0  0  0  0  0
    3.1756    9.4434   83.6823 C   0  0  0  0  0  0  0  0  0  0  0  0
    2.0073   10.0796   84.0834 C   0  0  0  0  0  0  0  0  0  0  0  0
    0.8730    9.3507   84.4009 C   0  0  0  0  0  0  0  0  0  0  0  0
   -0.4057    9.6213   84.8131 C   0  0  0  0  0  0  0  0  0  0  0  0
   -1.1074    8.4321   84.9685 C   0  0  0  0  0  0  0  0  0  0  0  0
    0.9463    7.9624   84.3043 C   0  0  0  0  0  0  0  0  0  0  0  0
    5.6521    7.9380   83.8590 C   0  0  0  0  0  0  0  0  0  0  0  0
    8.0567    7.8680   84.4379 C   0  0  0  0  0  0  0  0  0  0  0  0
    6.8123    7.3300   83.8322 C   0  0  0  0  0  0  0  0  0  0  0  0
    3.2248    8.1034   83.5957 N   0  0  0  0  0  0  0  0  0  0  0  0
   -0.2530    7.4610   84.6511 N   0  0  0  0  0  0  0  0  0  0  0  0
    2.1921    6.1484   83.8174 O   0  0  0  0  0  0  0  0  0  0  0  0
    1.9364   11.5299   84.1965 C   0  0  0  0  0  0  0  0  0  0  0  0
    0.7938   12.2346   83.8683 C   0  0  0  0  0  0  0  0  0  0  0  0
    0.7524   13.6208   83.9789 C   0  0  0  0  0  0  0  0  0  0  0  0
    1.8363   14.3368   84.4151 C   0  0  0  0  0  0  0  0  0  0  0  0
    2.9850   13.6443   84.7464 C   0  0  0  0  0  0  0  0  0  0  0  0
    3.0239   12.2714   84.6360 C   0  0  0  0  0  0  0  0  0  0  0  0
    4.1240   14.4251   85.2088 C   0  0  0  0  0  0  0  0  0  0  0  0
    4.2442   14.6182   86.4427 O   0  0  0  0  0  0  0  0  0  0  0  0
    5.0617   14.9459   84.2810 N   0  0  0  0  0  0  0  0  0  0  0  0
    6.2439   15.6169   84.7734 C   0  0  0  0  0  0  0  0  0  0  0  0
    4.8313   14.8025   82.8581 C   0  0  0  0  0  0  0  0  0  0  0  0
  1  9  1  0
 12  1  1  0
  2  8  1  0
 12  2  1  0
  2 14  2  0
  3  4  2  0
  3 12  1  0
  4  5  1  0
  4 15  1  0
  5  6  1  0
  5  8  2  0
  6  7  2  0
  7 13  1  0
  8 13  1  0
  9 11  2  3
 11 10  1  0
 15 16  2  0
 15 20  1  0
 16 17  1  0
 17 18  2  0
 18 19  1  0
 19 20  2  0
 19 21  1  0
 21 22  2  0
 21 23  1  0
 23 24  1  0
 23 25  1  0
M  END
$$$$
