
     RDKit          3D

 25 27  0  0  0  0  0  0  0  0999 V2000
    4.2371    7.3728   83.8473 C   0  0  0  0  0  0  0  0  0  0  0  0
    1.8847    7.4180   84.2835 C   0  0  0  0  0  0  0  0  0  0  0  0
    3.0067    9.4302   84.1262 C   0  0  0  0  0  0  0  0  0  0  0  0
    1.8219   10.1158   84.3647 C   0  0  0  0  0  0  0  0  0  0  0  0
    0.6337    9.4337   84.5682 C   0  0  0  0  0  0  0  0  0  0  0  0
   -0.6746    9.7578   84.8164 C   0  0  0  0  0  0  0  0  0  0  0  0
   -1.4305    8.5969   84.9252 C   0  0  0  0  0  0  0  0  0  0  0  0
    0.6697    8.0412   84.5257 C   0  0  0  0  0  0  0  0  0  0  0  0
    5.4338    7.9864   84.4757 C   0  0  0  0  0  0  0  0  0  0  0  0
    7.8816    8.2425   84.7297 C   0  0  0  0  0  0  0  0  0  0  0  0
    6.6433    7.4869   84.4128 C   0  0  0  0  0  0  0  0  0  0  0  0
    3.0195    8.0870   84.0892 N   0  0  0  0  0  0  0  0  0  0  0  0
   -0.5786    7.5894   84.7432 N   0  0  0  0  0  0  0  0  0  0  0  0
    1.9010    6.1737   84.2490 O   0  0  0  0  0  0  0  0  0  0  0  0
    1.7883   11.5706   84.4219 C   0  0  0  0  0  0  0  0  0  0  0  0
    0.6180   12.2833   84.2425 C   0  0  0  0  0  0  0  0  0  0  0  0
    0.6123   13.6735   84.2956 C   0  0  0  0  0  0  0  0  0  0  0  0
    1.7599   14.3858   84.5266 C   0  0  0  0  0  0  0  0  0  0  0  0
    2.9370   13.6853   84.7077 C   0  0  0  0  0  0  0  0  0  0  0  0
    2.9404   12.3084   84.6546 C   0  0  0  0  0  0  0  0  0  0  0  0
    4.1439   14.4623   84.9533 C   0  0  0  0  0  0  0  0  0  0  0  0
    4.4923   14.6495   86.1440 O   0  0  0  0  0  0  0  0  0  0  0  0
    4.8936   14.9861   83.8693 N   0  0  0  0  0  0  0  0  0  0  0  0
    4.3300   14.9499   82.5384 C   0  0  0  0  0  0  0  0  0  0  0  0
    6.2076   15.5500   84.1009 C   0  0  0  0  0  0  0  0  0  0  0  0
  1  9  1  0
 12  1  1  0
  2  8  1  0
 12  2  1  0
  2 14  2  0
  3  4  2  0
  3 12  1  0
  4  5  1  0
  4 15  1  0
  5  6  1  0
  5  8  2  0
  6  7  2  0
  7 13  1  0
  8 13  1  0
  9 11  2  3
 11 10  1  0
 15 16  2  0
 15 20  1  0
 16 17  1  0
 17 18  2  0
 18 19  1  0
 19 20  2  0
 19 21  1  0
 21 22  2  0
 21 23  1  0
 23 24  1  0
 23 25  1  0
M  END
$$$$
