
     RDKit          3D

 25 27  0  0  0  0  0  0  0  0999 V2000
    4.4258    7.0696   85.0474 C   0  0  0  0  0  0  0  0  0  0  0  0
    2.0582    7.1304   84.7052 C   0  0  0  0  0  0  0  0  0  0  0  0
    3.1892    9.1357   84.8845 C   0  0  0  0  0  0  0  0  0  0  0  0
    1.9966    9.8294   84.7196 C   0  0  0  0  0  0  0  0  0  0  0  0
    0.7999    9.1549   84.5419 C   0  0  0  0  0  0  0  0  0  0  0  0
   -0.5160    9.4878   84.3521 C   0  0  0  0  0  0  0  0  0  0  0  0
   -1.2771    8.3316   84.2310 C   0  0  0  0  0  0  0  0  0  0  0  0
    0.8354    7.7618   84.5350 C   0  0  0  0  0  0  0  0  0  0  0  0
    5.3414    7.1427   83.8814 C   0  0  0  0  0  0  0  0  0  0  0  0
    7.5644    7.7129   82.9566 C   0  0  0  0  0  0  0  0  0  0  0  0
    6.6488    7.1162   83.9618 C   0  0  0  0  0  0  0  0  0  0  0  0
    3.2012    7.7920   84.8747 N   0  0  0  0  0  0  0  0  0  0  0  0
   -0.4208    7.3182   84.3476 N   0  0  0  0  0  0  0  0  0  0  0  0
    2.0737    5.8856   84.6973 O   0  0  0  0  0  0  0  0  0  0  0  0
    1.9593   11.2851   84.7402 C   0  0  0  0  0  0  0  0  0  0  0  0
    0.8119   11.9922   84.4348 C   0  0  0  0  0  0  0  0  0  0  0  0
    0.8027   13.3833   84.4554 C   0  0  0  0  0  0  0  0  0  0  0  0
    1.9242   14.1019   84.7775 C   0  0  0  0  0  0  0  0  0  0  0  0
    3.0781   13.4069   85.0849 C   0  0  0  0  0  0  0  0  0  0  0  0
    3.0850   12.0293   85.0637 C   0  0  0  0  0  0  0  0  0  0  0  0
    4.2573   14.1907   85.4255 C   0  0  0  0  0  0  0  0  0  0  0  0
    4.5021   14.3897   86.6399 O   0  0  0  0  0  0  0  0  0  0  0  0
    5.0953   14.7077   84.4048 N   0  0  0  0  0  0  0  0  0  0  0  0
    6.2903   15.4337   84.7728 C   0  0  0  0  0  0  0  0  0  0  0  0
    4.7520   14.5058   83.0122 C   0  0  0  0  0  0  0  0  0  0  0  0
  1  9  1  0
 12  1  1  0
  2  8  1  0
 12  2  1  0
  2 14  2  0
  3  4  2  0
  3 12  1  0
  4  5  1  0
  4 15  1  0
  5  6  1  0
  5  8  2  0
  6  7  2  0
  7 13  1  0
  8 13  1  0
  9 11  2  3
 11 10  1  0
 15 16  2  0
 15 20  1  0
 16 17  1  0
 17 18  2  0
 18 19  1  0
 19 20  2  0
 19 21  1  0
 21 22  2  0
 21 23  1  0
 23 24  1  0
 23 25  1  0
M  END
$$$$
