
     RDKit          3D

 25 27  0  0  0  0  0  0  0  0999 V2000
    4.4530    7.3592   83.6043 C   0  0  0  0  0  0  0  0  0  0  0  0
    2.1498    7.7406   84.1298 C   0  0  0  0  0  0  0  0  0  0  0  0
    3.4213    9.5333   83.4214 C   0  0  0  0  0  0  0  0  0  0  0  0
    2.3179   10.3695   83.5392 C   0  0  0  0  0  0  0  0  0  0  0  0
    1.0947    9.8779   83.9641 C   0  0  0  0  0  0  0  0  0  0  0  0
   -0.1610   10.3799   84.1872 C   0  0  0  0  0  0  0  0  0  0  0  0
   -1.0011    9.3607   84.6187 C   0  0  0  0  0  0  0  0  0  0  0  0
    1.0115    8.5204   84.2681 C   0  0  0  0  0  0  0  0  0  0  0  0
    4.5882    6.7138   82.2744 C   0  0  0  0  0  0  0  0  0  0  0  0
    6.0446    6.0420   80.3904 C   0  0  0  0  0  0  0  0  0  0  0  0
    5.6879    6.1598   81.8269 C   0  0  0  0  0  0  0  0  0  0  0  0
    3.3195    8.2271   83.7197 N   0  0  0  0  0  0  0  0  0  0  0  0
   -0.2514    8.2604   84.6520 N   0  0  0  0  0  0  0  0  0  0  0  0
    2.0599    6.5300   84.4057 O   0  0  0  0  0  0  0  0  0  0  0  0
    2.4098   11.7905   83.2336 C   0  0  0  0  0  0  0  0  0  0  0  0
    1.8068   12.3397   82.1180 C   0  0  0  0  0  0  0  0  0  0  0  0
    1.9140   13.6995   81.8440 C   0  0  0  0  0  0  0  0  0  0  0  0
    2.6172   14.5419   82.6648 C   0  0  0  0  0  0  0  0  0  0  0  0
    3.2249   14.0055   83.7836 C   0  0  0  0  0  0  0  0  0  0  0  0
    3.1176   12.6584   84.0530 C   0  0  0  0  0  0  0  0  0  0  0  0
    3.9656   14.9191   84.6423 C   0  0  0  0  0  0  0  0  0  0  0  0
    5.2146   14.8067   84.6841 O   0  0  0  0  0  0  0  0  0  0  0  0
    3.2828   15.9020   85.4033 N   0  0  0  0  0  0  0  0  0  0  0  0
    4.0320   16.7301   86.3216 C   0  0  0  0  0  0  0  0  0  0  0  0
    1.8515   16.0690   85.2561 C   0  0  0  0  0  0  0  0  0  0  0  0
  1  9  1  0
 12  1  1  0
  2  8  1  0
 12  2  1  0
  2 14  2  0
  3  4  2  0
  3 12  1  0
  4  5  1  0
  4 15  1  0
  5  6  1  0
  5  8  2  0
  6  7  2  0
  7 13  1  0
  8 13  1  0
  9 11  2  3
 11 10  1  0
 15 16  2  0
 15 20  1  0
 16 17  1  0
 17 18  2  0
 18 19  1  0
 19 20  2  0
 19 21  1  0
 21 22  2  0
 21 23  1  0
 23 24  1  0
 23 25  1  0
M  END
$$$$
