
     RDKit          3D

 25 27  0  0  0  0  0  0  0  0999 V2000
    4.4307    7.4032   84.3570 C   0  0  0  0  0  0  0  0  0  0  0  0
    2.0384    7.4442   84.3220 C   0  0  0  0  0  0  0  0  0  0  0  0
    3.1675    9.4578   84.2709 C   0  0  0  0  0  0  0  0  0  0  0  0
    1.9583   10.1412   84.2336 C   0  0  0  0  0  0  0  0  0  0  0  0
    0.7539    9.4572   84.2402 C   0  0  0  0  0  0  0  0  0  0  0  0
   -0.5780    9.7788   84.2089 C   0  0  0  0  0  0  0  0  0  0  0  0
   -1.3394    8.6168   84.2349 C   0  0  0  0  0  0  0  0  0  0  0  0
    0.7989    8.0651   84.2859 C   0  0  0  0  0  0  0  0  0  0  0  0
    5.4664    7.9382   83.4381 C   0  0  0  0  0  0  0  0  0  0  0  0
    7.8339    8.5440   83.0505 C   0  0  0  0  0  0  0  0  0  0  0  0
    6.7420    7.6478   83.5082 C   0  0  0  0  0  0  0  0  0  0  0  0
    3.1886    8.1150   84.3148 N   0  0  0  0  0  0  0  0  0  0  0  0
   -0.4675    7.6111   84.2812 N   0  0  0  0  0  0  0  0  0  0  0  0
    2.0622    6.2002   84.3633 O   0  0  0  0  0  0  0  0  0  0  0  0
    1.9127   11.5965   84.1991 C   0  0  0  0  0  0  0  0  0  0  0  0
    0.8394   12.2826   83.6633 C   0  0  0  0  0  0  0  0  0  0  0  0
    0.8217   13.6735   83.6362 C   0  0  0  0  0  0  0  0  0  0  0  0
    1.8614   14.4126   84.1367 C   0  0  0  0  0  0  0  0  0  0  0  0
    2.9408   13.7387   84.6752 C   0  0  0  0  0  0  0  0  0  0  0  0
    2.9563   12.3612   84.7009 C   0  0  0  0  0  0  0  0  0  0  0  0
    4.0336   14.5441   85.2024 C   0  0  0  0  0  0  0  0  0  0  0  0
    4.0874   14.7247   86.4429 O   0  0  0  0  0  0  0  0  0  0  0  0
    5.0013   15.1016   84.3283 N   0  0  0  0  0  0  0  0  0  0  0  0
    6.1954   15.6973   84.8849 C   0  0  0  0  0  0  0  0  0  0  0  0
    4.7894   15.0700   82.8958 C   0  0  0  0  0  0  0  0  0  0  0  0
  1  9  1  0
 12  1  1  0
  2  8  1  0
 12  2  1  0
  2 14  2  0
  3  4  2  0
  3 12  1  0
  4  5  1  0
  4 15  1  0
  5  6  1  0
  5  8  2  0
  6  7  2  0
  7 13  1  0
  8 13  1  0
  9 11  2  3
 11 10  1  0
 15 16  2  0
 15 20  1  0
 16 17  1  0
 17 18  2  0
 18 19  1  0
 19 20  2  0
 19 21  1  0
 21 22  2  0
 21 23  1  0
 23 24  1  0
 23 25  1  0
M  END
$$$$
