
     RDKit          3D

 25 27  0  0  0  0  0  0  0  0999 V2000
    4.1597    7.4548   83.2905 C   0  0  0  0  0  0  0  0  0  0  0  0
    1.8624    7.4305   83.9599 C   0  0  0  0  0  0  0  0  0  0  0  0
    2.9111    9.4742   83.7237 C   0  0  0  0  0  0  0  0  0  0  0  0
    1.7391   10.1242   84.0902 C   0  0  0  0  0  0  0  0  0  0  0  0
    0.5950    9.4076   84.4004 C   0  0  0  0  0  0  0  0  0  0  0  0
   -0.6897    9.6928   84.7830 C   0  0  0  0  0  0  0  0  0  0  0  0
   -1.4009    8.5106   84.9481 C   0  0  0  0  0  0  0  0  0  0  0  0
    0.6623    8.0173   84.3321 C   0  0  0  0  0  0  0  0  0  0  0  0
    5.3383    7.8158   84.1174 C   0  0  0  0  0  0  0  0  0  0  0  0
    7.7508    7.7605   84.6640 C   0  0  0  0  0  0  0  0  0  0  0  0
    6.5150    7.2480   84.0199 C   0  0  0  0  0  0  0  0  0  0  0  0
    2.9545    8.1325   83.6641 N   0  0  0  0  0  0  0  0  0  0  0  0
   -0.5461    7.5290   84.6658 N   0  0  0  0  0  0  0  0  0  0  0  0
    1.9069    6.1876   83.9040 O   0  0  0  0  0  0  0  0  0  0  0  0
    1.6742   11.5767   84.1738 C   0  0  0  0  0  0  0  0  0  0  0  0
    0.5469   12.2819   83.7973 C   0  0  0  0  0  0  0  0  0  0  0  0
    0.5111   13.6702   83.8805 C   0  0  0  0  0  0  0  0  0  0  0  0
    1.5857   14.3879   84.3365 C   0  0  0  0  0  0  0  0  0  0  0  0
    2.7191   13.6949   84.7162 C   0  0  0  0  0  0  0  0  0  0  0  0
    2.7524   12.3200   84.6328 C   0  0  0  0  0  0  0  0  0  0  0  0
    3.8483   14.4777   85.1988 C   0  0  0  0  0  0  0  0  0  0  0  0
    4.0321   14.5448   86.4382 O   0  0  0  0  0  0  0  0  0  0  0  0
    4.7068   15.1392   84.2841 N   0  0  0  0  0  0  0  0  0  0  0  0
    5.9398   15.7199   84.7667 C   0  0  0  0  0  0  0  0  0  0  0  0
    4.3462   15.2272   82.8839 C   0  0  0  0  0  0  0  0  0  0  0  0
  1  9  1  0
 12  1  1  0
  2  8  1  0
 12  2  1  0
  2 14  2  0
  3  4  2  0
  3 12  1  0
  4  5  1  0
  4 15  1  0
  5  6  1  0
  5  8  2  0
  6  7  2  0
  7 13  1  0
  8 13  1  0
  9 11  2  3
 11 10  1  0
 15 16  2  0
 15 20  1  0
 16 17  1  0
 17 18  2  0
 18 19  1  0
 19 20  2  0
 19 21  1  0
 21 22  2  0
 21 23  1  0
 23 24  1  0
 23 25  1  0
M  END
$$$$
