
     RDKit          3D

 25 27  0  0  0  0  0  0  0  0999 V2000
    4.2940    7.3067   84.2334 C   0  0  0  0  0  0  0  0  0  0  0  0
    1.9011    7.3113   84.2201 C   0  0  0  0  0  0  0  0  0  0  0  0
    2.9983    9.3425   84.2711 C   0  0  0  0  0  0  0  0  0  0  0  0
    1.7784   10.0075   84.2812 C   0  0  0  0  0  0  0  0  0  0  0  0
    0.5848    9.3050   84.2598 C   0  0  0  0  0  0  0  0  0  0  0  0
   -0.7521    9.6064   84.2570 C   0  0  0  0  0  0  0  0  0  0  0  0
   -1.4951    8.4327   84.2251 C   0  0  0  0  0  0  0  0  0  0  0  0
    0.6519    7.9133   84.2283 C   0  0  0  0  0  0  0  0  0  0  0  0
    5.3395    7.9552   83.4029 C   0  0  0  0  0  0  0  0  0  0  0  0
    7.3186    9.4291   83.2230 C   0  0  0  0  0  0  0  0  0  0  0  0
    6.4982    8.3656   83.8559 C   0  0  0  0  0  0  0  0  0  0  0  0
    3.0406    7.9998   84.2406 N   0  0  0  0  0  0  0  0  0  0  0  0
   -0.6073    7.4401   84.2087 N   0  0  0  0  0  0  0  0  0  0  0  0
    1.9446    6.0674   84.1925 O   0  0  0  0  0  0  0  0  0  0  0  0
    1.7100   11.4615   84.3273 C   0  0  0  0  0  0  0  0  0  0  0  0
    0.6223   12.1589   83.8371 C   0  0  0  0  0  0  0  0  0  0  0  0
    0.5828   13.5487   83.8868 C   0  0  0  0  0  0  0  0  0  0  0  0
    1.6144   14.2756   84.4208 C   0  0  0  0  0  0  0  0  0  0  0  0
    2.7079   13.5904   84.9145 C   0  0  0  0  0  0  0  0  0  0  0  0
    2.7451   12.2140   84.8641 C   0  0  0  0  0  0  0  0  0  0  0  0
    3.7918   14.3828   85.4786 C   0  0  0  0  0  0  0  0  0  0  0  0
    3.8722   14.4665   86.7279 O   0  0  0  0  0  0  0  0  0  0  0  0
    4.7216   15.0351   84.6293 N   0  0  0  0  0  0  0  0  0  0  0  0
    5.8897   15.6595   85.2090 C   0  0  0  0  0  0  0  0  0  0  0  0
    4.4974   15.0703   83.1987 C   0  0  0  0  0  0  0  0  0  0  0  0
  1  9  1  0
 12  1  1  0
  2  8  1  0
 12  2  1  0
  2 14  2  0
  3  4  2  0
  3 12  1  0
  4  5  1  0
  4 15  1  0
  5  6  1  0
  5  8  2  0
  6  7  2  0
  7 13  1  0
  8 13  1  0
  9 11  2  3
 11 10  1  0
 15 16  2  0
 15 20  1  0
 16 17  1  0
 17 18  2  0
 18 19  1  0
 19 20  2  0
 19 21  1  0
 21 22  2  0
 21 23  1  0
 23 24  1  0
 23 25  1  0
M  END
$$$$
