
     RDKit          3D

 25 27  0  0  0  0  0  0  0  0999 V2000
    4.2801    6.9500   83.1990 C   0  0  0  0  0  0  0  0  0  0  0  0
    2.0848    7.1370   84.1327 C   0  0  0  0  0  0  0  0  0  0  0  0
    3.1050    9.0529   83.3449 C   0  0  0  0  0  0  0  0  0  0  0  0
    1.9911    9.8010   83.7057 C   0  0  0  0  0  0  0  0  0  0  0  0
    0.8917    9.2006   84.2969 C   0  0  0  0  0  0  0  0  0  0  0  0
   -0.3336    9.5990   84.7640 C   0  0  0  0  0  0  0  0  0  0  0  0
   -1.0238    8.4998   85.2601 C   0  0  0  0  0  0  0  0  0  0  0  0
    0.9435    7.8253   84.5159 C   0  0  0  0  0  0  0  0  0  0  0  0
    5.5111    7.2937   83.9539 C   0  0  0  0  0  0  0  0  0  0  0  0
    7.9387    7.7184   84.1739 C   0  0  0  0  0  0  0  0  0  0  0  0
    6.7197    7.2800   83.4483 C   0  0  0  0  0  0  0  0  0  0  0  0
    3.1344    7.7276   83.5649 N   0  0  0  0  0  0  0  0  0  0  0  0
   -0.2157    7.4550   85.0894 N   0  0  0  0  0  0  0  0  0  0  0  0
    2.1163    5.9090   84.3354 O   0  0  0  0  0  0  0  0  0  0  0  0
    1.9439   11.2403   83.4883 C   0  0  0  0  0  0  0  0  0  0  0  0
    0.8696   11.8522   82.8707 C   0  0  0  0  0  0  0  0  0  0  0  0
    0.8503   13.2286   82.6686 C   0  0  0  0  0  0  0  0  0  0  0  0
    1.8892   14.0260   83.0717 C   0  0  0  0  0  0  0  0  0  0  0  0
    2.9695   13.4266   83.6905 C   0  0  0  0  0  0  0  0  0  0  0  0
    2.9866   12.0633   83.8895 C   0  0  0  0  0  0  0  0  0  0  0  0
    4.0614   14.2932   84.1117 C   0  0  0  0  0  0  0  0  0  0  0  0
    4.9196   14.6182   83.2561 O   0  0  0  0  0  0  0  0  0  0  0  0
    4.1401   14.7489   85.4525 N   0  0  0  0  0  0  0  0  0  0  0  0
    3.1258   14.3395   86.3979 C   0  0  0  0  0  0  0  0  0  0  0  0
    5.2277   15.6133   85.8626 C   0  0  0  0  0  0  0  0  0  0  0  0
  1  9  1  0
 12  1  1  0
  2  8  1  0
 12  2  1  0
  2 14  2  0
  3  4  2  0
  3 12  1  0
  4  5  1  0
  4 15  1  0
  5  6  1  0
  5  8  2  0
  6  7  2  0
  7 13  1  0
  8 13  1  0
  9 11  2  3
 11 10  1  0
 15 16  2  0
 15 20  1  0
 16 17  1  0
 17 18  2  0
 18 19  1  0
 19 20  2  0
 19 21  1  0
 21 22  2  0
 21 23  1  0
 23 24  1  0
 23 25  1  0
M  END
$$$$
