
     RDKit          3D

 25 27  0  0  0  0  0  0  0  0999 V2000
    4.2975    6.7800   84.0617 C   0  0  0  0  0  0  0  0  0  0  0  0
    2.0313    7.4295   84.4724 C   0  0  0  0  0  0  0  0  0  0  0  0
    3.5280    9.0517   83.7938 C   0  0  0  0  0  0  0  0  0  0  0  0
    2.5224   10.0091   83.8456 C   0  0  0  0  0  0  0  0  0  0  0  0
    1.2336    9.6676   84.2212 C   0  0  0  0  0  0  0  0  0  0  0  0
    0.0342   10.3124   84.3768 C   0  0  0  0  0  0  0  0  0  0  0  0
   -0.9344    9.4040   84.7859 C   0  0  0  0  0  0  0  0  0  0  0  0
    0.9837    8.3352   84.5441 C   0  0  0  0  0  0  0  0  0  0  0  0
    5.3463    7.0456   83.0454 C   0  0  0  0  0  0  0  0  0  0  0  0
    7.6308    7.7009   82.3572 C   0  0  0  0  0  0  0  0  0  0  0  0
    6.6221    7.1769   83.3126 C   0  0  0  0  0  0  0  0  0  0  0  0
    3.2657    7.7721   84.1093 N   0  0  0  0  0  0  0  0  0  0  0  0
   -0.3164    8.2274   84.8729 N   0  0  0  0  0  0  0  0  0  0  0  0
    1.7925    6.2431   84.7645 O   0  0  0  0  0  0  0  0  0  0  0  0
    2.7882   11.4036   83.5205 C   0  0  0  0  0  0  0  0  0  0  0  0
    2.8570   11.8503   82.2146 C   0  0  0  0  0  0  0  0  0  0  0  0
    3.1185   13.1866   81.9291 C   0  0  0  0  0  0  0  0  0  0  0  0
    3.3164   14.1061   82.9256 C   0  0  0  0  0  0  0  0  0  0  0  0
    3.2502   13.6724   84.2358 C   0  0  0  0  0  0  0  0  0  0  0  0
    2.9913   12.3485   84.5163 C   0  0  0  0  0  0  0  0  0  0  0  0
    3.4622   14.6667   85.2784 C   0  0  0  0  0  0  0  0  0  0  0  0
    4.5694   14.6747   85.8688 O   0  0  0  0  0  0  0  0  0  0  0  0
    2.4392   15.5925   85.6066 N   0  0  0  0  0  0  0  0  0  0  0  0
    2.6373   16.5001   86.7145 C   0  0  0  0  0  0  0  0  0  0  0  0
    1.2134   15.6232   84.8355 C   0  0  0  0  0  0  0  0  0  0  0  0
  1  9  1  0
 12  1  1  0
  2  8  1  0
 12  2  1  0
  2 14  2  0
  3  4  2  0
  3 12  1  0
  4  5  1  0
  4 15  1  0
  5  6  1  0
  5  8  2  0
  6  7  2  0
  7 13  1  0
  8 13  1  0
  9 11  2  3
 11 10  1  0
 15 16  2  0
 15 20  1  0
 16 17  1  0
 17 18  2  0
 18 19  1  0
 19 20  2  0
 19 21  1  0
 21 22  2  0
 21 23  1  0
 23 24  1  0
 23 25  1  0
M  END
$$$$
