
     RDKit          3D

 25 27  0  0  0  0  0  0  0  0999 V2000
    4.3968    7.3929   83.2832 C   0  0  0  0  0  0  0  0  0  0  0  0
    2.0899    7.3916   83.9191 C   0  0  0  0  0  0  0  0  0  0  0  0
    3.1369    9.4259   83.6064 C   0  0  0  0  0  0  0  0  0  0  0  0
    1.9580   10.0881   83.9259 C   0  0  0  0  0  0  0  0  0  0  0  0
    0.8112    9.3825   84.2512 C   0  0  0  0  0  0  0  0  0  0  0  0
   -0.4797    9.6807   84.6016 C   0  0  0  0  0  0  0  0  0  0  0  0
   -1.1904    8.5049   84.8094 C   0  0  0  0  0  0  0  0  0  0  0  0
    0.8829    7.9908   84.2467 C   0  0  0  0  0  0  0  0  0  0  0  0
    5.5978    7.9191   83.9789 C   0  0  0  0  0  0  0  0  0  0  0  0
    8.0170    7.9514   84.4974 C   0  0  0  0  0  0  0  0  0  0  0  0
    6.7688    7.3315   83.9848 C   0  0  0  0  0  0  0  0  0  0  0  0
    3.1845    8.0830   83.6080 N   0  0  0  0  0  0  0  0  0  0  0  0
   -0.3290    7.5143   84.5843 N   0  0  0  0  0  0  0  0  0  0  0  0
    2.1383    6.1476   83.9200 O   0  0  0  0  0  0  0  0  0  0  0  0
    1.8882   11.5427   83.9430 C   0  0  0  0  0  0  0  0  0  0  0  0
    0.7588   12.2261   83.5342 C   0  0  0  0  0  0  0  0  0  0  0  0
    0.7184   13.6166   83.5538 C   0  0  0  0  0  0  0  0  0  0  0  0
    1.7904   14.3580   83.9768 C   0  0  0  0  0  0  0  0  0  0  0  0
    2.9259   13.6869   84.3882 C   0  0  0  0  0  0  0  0  0  0  0  0
    2.9638   12.3097   84.3678 C   0  0  0  0  0  0  0  0  0  0  0  0
    4.0523   14.4947   84.8349 C   0  0  0  0  0  0  0  0  0  0  0  0
    4.2616   14.5829   86.0689 O   0  0  0  0  0  0  0  0  0  0  0  0
    4.8799   15.1565   83.8923 N   0  0  0  0  0  0  0  0  0  0  0  0
    6.0670   15.8411   84.3532 C   0  0  0  0  0  0  0  0  0  0  0  0
    4.5338   15.1415   82.4858 C   0  0  0  0  0  0  0  0  0  0  0  0
  1  9  1  0
 12  1  1  0
  2  8  1  0
 12  2  1  0
  2 14  2  0
  3  4  2  0
  3 12  1  0
  4  5  1  0
  4 15  1  0
  5  6  1  0
  5  8  2  0
  6  7  2  0
  7 13  1  0
  8 13  1  0
  9 11  2  3
 11 10  1  0
 15 16  2  0
 15 20  1  0
 16 17  1  0
 17 18  2  0
 18 19  1  0
 19 20  2  0
 19 21  1  0
 21 22  2  0
 21 23  1  0
 23 24  1  0
 23 25  1  0
M  END
$$$$
