
     RDKit          3D

 25 27  0  0  0  0  0  0  0  0999 V2000
    4.4098    7.4593   84.0329 C   0  0  0  0  0  0  0  0  0  0  0  0
    2.0275    7.4426   84.2581 C   0  0  0  0  0  0  0  0  0  0  0  0
    3.0827    9.4734   83.9506 C   0  0  0  0  0  0  0  0  0  0  0  0
    1.8563   10.1246   84.0011 C   0  0  0  0  0  0  0  0  0  0  0  0
    0.6810    9.4150   84.1850 C   0  0  0  0  0  0  0  0  0  0  0  0
   -0.6557    9.7029   84.2788 C   0  0  0  0  0  0  0  0  0  0  0  0
   -1.3741    8.5281   84.4649 C   0  0  0  0  0  0  0  0  0  0  0  0
    0.7731    8.0308   84.3173 C   0  0  0  0  0  0  0  0  0  0  0  0
    5.4208    8.1205   83.1704 C   0  0  0  0  0  0  0  0  0  0  0  0
    7.7254    8.9898   82.9356 C   0  0  0  0  0  0  0  0  0  0  0  0
    6.7157    7.9597   83.2881 C   0  0  0  0  0  0  0  0  0  0  0  0
    3.1492    8.1377   84.0804 N   0  0  0  0  0  0  0  0  0  0  0  0
   -0.4720    7.5484   84.4815 N   0  0  0  0  0  0  0  0  0  0  0  0
    2.0935    6.2053   84.3785 O   0  0  0  0  0  0  0  0  0  0  0  0
    1.7630   11.5725   83.8757 C   0  0  0  0  0  0  0  0  0  0  0  0
    0.5522   12.2155   83.7014 C   0  0  0  0  0  0  0  0  0  0  0  0
    0.4893   13.5999   83.5779 C   0  0  0  0  0  0  0  0  0  0  0  0
    1.6185   14.3748   83.6244 C   0  0  0  0  0  0  0  0  0  0  0  0
    2.8355   13.7443   83.7983 C   0  0  0  0  0  0  0  0  0  0  0  0
    2.8956   12.3731   83.9201 C   0  0  0  0  0  0  0  0  0  0  0  0
    4.0220   14.5873   83.8461 C   0  0  0  0  0  0  0  0  0  0  0  0
    4.3762   15.1667   82.7910 O   0  0  0  0  0  0  0  0  0  0  0  0
    4.7461   14.7400   85.0559 N   0  0  0  0  0  0  0  0  0  0  0  0
    4.3064   14.0301   86.2362 C   0  0  0  0  0  0  0  0  0  0  0  0
    5.9123   15.5981   85.1005 C   0  0  0  0  0  0  0  0  0  0  0  0
  1  9  1  0
 12  1  1  0
  2  8  1  0
 12  2  1  0
  2 14  2  0
  3  4  2  0
  3 12  1  0
  4  5  1  0
  4 15  1  0
  5  6  1  0
  5  8  2  0
  6  7  2  0
  7 13  1  0
  8 13  1  0
  9 11  2  3
 11 10  1  0
 15 16  2  0
 15 20  1  0
 16 17  1  0
 17 18  2  0
 18 19  1  0
 19 20  2  0
 19 21  1  0
 21 22  2  0
 21 23  1  0
 23 24  1  0
 23 25  1  0
M  END
$$$$
