
     RDKit          3D

 25 27  0  0  0  0  0  0  0  0999 V2000
    4.3471    6.9863   83.7305 C   0  0  0  0  0  0  0  0  0  0  0  0
    2.0021    7.1214   84.1878 C   0  0  0  0  0  0  0  0  0  0  0  0
    3.1672    9.0878   83.8588 C   0  0  0  0  0  0  0  0  0  0  0  0
    2.0015    9.8178   84.0553 C   0  0  0  0  0  0  0  0  0  0  0  0
    0.8008    9.1822   84.3256 C   0  0  0  0  0  0  0  0  0  0  0  0
   -0.4965    9.5557   84.5617 C   0  0  0  0  0  0  0  0  0  0  0  0
   -1.2769    8.4252   84.7708 C   0  0  0  0  0  0  0  0  0  0  0  0
    0.8049    7.7902   84.3933 C   0  0  0  0  0  0  0  0  0  0  0  0
    5.4973    7.4458   84.5487 C   0  0  0  0  0  0  0  0  0  0  0  0
    7.8948    8.0179   84.7639 C   0  0  0  0  0  0  0  0  0  0  0  0
    6.7536    7.2129   84.2595 C   0  0  0  0  0  0  0  0  0  0  0  0
    3.1491    7.7460   83.9285 N   0  0  0  0  0  0  0  0  0  0  0  0
   -0.4505    7.3867   84.6598 N   0  0  0  0  0  0  0  0  0  0  0  0
    1.9898    5.8782   84.2521 O   0  0  0  0  0  0  0  0  0  0  0  0
    2.0015   11.2730   83.9973 C   0  0  0  0  0  0  0  0  0  0  0  0
    2.9216   12.0333   84.6940 C   0  0  0  0  0  0  0  0  0  0  0  0
    2.8975   13.4227   84.6274 C   0  0  0  0  0  0  0  0  0  0  0  0
    1.9665   14.0873   83.8730 C   0  0  0  0  0  0  0  0  0  0  0  0
    1.0409   13.3389   83.1714 C   0  0  0  0  0  0  0  0  0  0  0  0
    1.0664   11.9630   83.2389 C   0  0  0  0  0  0  0  0  0  0  0  0
    0.0619   14.0659   82.3753 C   0  0  0  0  0  0  0  0  0  0  0  0
    0.4230   14.5100   81.2588 O   0  0  0  0  0  0  0  0  0  0  0  0
   -1.2570   14.2587   82.8598 N   0  0  0  0  0  0  0  0  0  0  0  0
   -1.6107   13.7498   84.1661 C   0  0  0  0  0  0  0  0  0  0  0  0
   -2.2326   14.9592   82.0500 C   0  0  0  0  0  0  0  0  0  0  0  0
  1  9  1  0
 12  1  1  0
  2  8  1  0
 12  2  1  0
  2 14  2  0
  3  4  2  0
  3 12  1  0
  4  5  1  0
  4 15  1  0
  5  6  1  0
  5  8  2  0
  6  7  2  0
  7 13  1  0
  8 13  1  0
  9 11  2  3
 11 10  1  0
 15 16  2  0
 15 20  1  0
 16 17  1  0
 17 18  2  0
 18 19  1  0
 19 20  2  0
 19 21  1  0
 21 22  2  0
 21 23  1  0
 23 24  1  0
 23 25  1  0
M  END
$$$$
