
     RDKit          3D

 25 27  0  0  0  0  0  0  0  0999 V2000
    4.2832    7.4043   83.3392 C   0  0  0  0  0  0  0  0  0  0  0  0
    2.0050    7.3862   84.0712 C   0  0  0  0  0  0  0  0  0  0  0  0
    2.9963    9.4249   83.6318 C   0  0  0  0  0  0  0  0  0  0  0  0
    1.8182   10.0776   83.9734 C   0  0  0  0  0  0  0  0  0  0  0  0
    0.7006    9.3648   84.3752 C   0  0  0  0  0  0  0  0  0  0  0  0
   -0.5806    9.6530   84.7672 C   0  0  0  0  0  0  0  0  0  0  0  0
   -1.2578    8.4738   85.0526 C   0  0  0  0  0  0  0  0  0  0  0  0
    0.8006    7.9757   84.4246 C   0  0  0  0  0  0  0  0  0  0  0  0
    5.4198    7.6897   84.2502 C   0  0  0  0  0  0  0  0  0  0  0  0
    7.6477    8.7092   84.5956 C   0  0  0  0  0  0  0  0  0  0  0  0
    6.6535    7.8899   83.8573 C   0  0  0  0  0  0  0  0  0  0  0  0
    3.0715    8.0844   83.6863 N   0  0  0  0  0  0  0  0  0  0  0  0
   -0.3864    7.4910   84.8321 N   0  0  0  0  0  0  0  0  0  0  0  0
    2.0790    6.1445   84.1210 O   0  0  0  0  0  0  0  0  0  0  0  0
    1.7194   11.5301   83.9338 C   0  0  0  0  0  0  0  0  0  0  0  0
    0.5107   12.1855   84.0729 C   0  0  0  0  0  0  0  0  0  0  0  0
    0.4410   13.5742   84.0255 C   0  0  0  0  0  0  0  0  0  0  0  0
    1.5612   14.3413   83.8403 C   0  0  0  0  0  0  0  0  0  0  0  0
    2.7761   13.6984   83.6998 C   0  0  0  0  0  0  0  0  0  0  0  0
    2.8429   12.3230   83.7470 C   0  0  0  0  0  0  0  0  0  0  0  0
    3.9533   14.5333   83.5055 C   0  0  0  0  0  0  0  0  0  0  0  0
    4.1875   14.9620   82.3498 O   0  0  0  0  0  0  0  0  0  0  0  0
    4.8013   14.8446   84.5989 N   0  0  0  0  0  0  0  0  0  0  0  0
    5.9881   15.6376   84.3683 C   0  0  0  0  0  0  0  0  0  0  0  0
    4.4750   14.3710   85.9283 C   0  0  0  0  0  0  0  0  0  0  0  0
  1  9  1  0
 12  1  1  0
  2  8  1  0
 12  2  1  0
  2 14  2  0
  3  4  2  0
  3 12  1  0
  4  5  1  0
  4 15  1  0
  5  6  1  0
  5  8  2  0
  6  7  2  0
  7 13  1  0
  8 13  1  0
  9 11  2  3
 11 10  1  0
 15 16  2  0
 15 20  1  0
 16 17  1  0
 17 18  2  0
 18 19  1  0
 19 20  2  0
 19 21  1  0
 21 22  2  0
 21 23  1  0
 23 24  1  0
 23 25  1  0
M  END
$$$$
