
     RDKit          3D

 25 27  0  0  0  0  0  0  0  0999 V2000
    4.5512    7.4195   84.3422 C   0  0  0  0  0  0  0  0  0  0  0  0
    2.1587    7.4564   84.3767 C   0  0  0  0  0  0  0  0  0  0  0  0
    3.2821    9.4711   84.2708 C   0  0  0  0  0  0  0  0  0  0  0  0
    2.0711   10.1522   84.2614 C   0  0  0  0  0  0  0  0  0  0  0  0
    0.8686    9.4664   84.3106 C   0  0  0  0  0  0  0  0  0  0  0  0
   -0.4642    9.7855   84.3147 C   0  0  0  0  0  0  0  0  0  0  0  0
   -1.2224    8.6227   84.3756 C   0  0  0  0  0  0  0  0  0  0  0  0
    0.9176    8.0749   84.3701 C   0  0  0  0  0  0  0  0  0  0  0  0
    5.1550    7.2308   82.9994 C   0  0  0  0  0  0  0  0  0  0  0  0
    7.0858    6.6619   81.5604 C   0  0  0  0  0  0  0  0  0  0  0  0
    6.4410    7.2694   82.7521 C   0  0  0  0  0  0  0  0  0  0  0  0
    3.3070    8.1289   84.3286 N   0  0  0  0  0  0  0  0  0  0  0  0
   -0.3475    7.6189   84.4072 N   0  0  0  0  0  0  0  0  0  0  0  0
    2.1861    6.2129   84.4307 O   0  0  0  0  0  0  0  0  0  0  0  0
    2.0218   11.6069   84.2124 C   0  0  0  0  0  0  0  0  0  0  0  0
    0.9981   12.2835   83.5767 C   0  0  0  0  0  0  0  0  0  0  0  0
    0.9763   13.6741   83.5381 C   0  0  0  0  0  0  0  0  0  0  0  0
    1.9627   14.4222   84.1254 C   0  0  0  0  0  0  0  0  0  0  0  0
    2.9921   13.7579   84.7644 C   0  0  0  0  0  0  0  0  0  0  0  0
    3.0119   12.3807   84.8013 C   0  0  0  0  0  0  0  0  0  0  0  0
    4.0286   14.5727   85.3827 C   0  0  0  0  0  0  0  0  0  0  0  0
    3.9923   14.7278   86.6273 O   0  0  0  0  0  0  0  0  0  0  0  0
    5.0430   15.1674   84.5897 N   0  0  0  0  0  0  0  0  0  0  0  0
    6.1848   15.7705   85.2400 C   0  0  0  0  0  0  0  0  0  0  0  0
    4.9299   15.1656   83.1456 C   0  0  0  0  0  0  0  0  0  0  0  0
  1  9  1  0
 12  1  1  0
  2  8  1  0
 12  2  1  0
  2 14  2  0
  3  4  2  0
  3 12  1  0
  4  5  1  0
  4 15  1  0
  5  6  1  0
  5  8  2  0
  6  7  2  0
  7 13  1  0
  8 13  1  0
  9 11  2  3
 11 10  1  0
 15 16  2  0
 15 20  1  0
 16 17  1  0
 17 18  2  0
 18 19  1  0
 19 20  2  0
 19 21  1  0
 21 22  2  0
 21 23  1  0
 23 24  1  0
 23 25  1  0
M  END
$$$$
