
     RDKit          3D

 14 13  0  0  0  0  0  0  0  0999 V2000
   48.1120   82.2703  263.5890 C   0  0  0  0  0  0  0  0  0  0  0  0
   46.8383   82.9389  263.9355 C   0  0  0  0  0  0  0  0  0  0  0  0
   45.6012   82.1496  264.2038 C   0  0  0  0  0  0  0  0  0  0  0  0
   55.7916   77.6037  262.5609 C   0  0  0  0  0  0  0  0  0  0  0  0
   54.8054   78.7077  262.8725 C   0  0  0  0  0  0  0  0  0  0  0  0
   53.6457   78.1875  263.7081 C   0  0  0  0  0  0  0  0  0  0  0  0
   51.3930   78.8542  264.0326 C   0  0  0  0  0  0  0  0  0  0  0  0
   50.5708   79.9305  264.7285 C   0  0  0  0  0  0  0  0  0  0  0  0
   49.2296   80.1082  264.0535 C   0  0  0  0  0  0  0  0  0  0  0  0
   48.4403   81.2386  264.6200 C   0  0  0  0  0  0  0  0  0  0  0  0
   56.9154   78.0339  261.7812 N   0  0  0  0  0  4  0  0  0  0  0  0
   52.7796   79.2626  264.1189 N   0  0  0  0  0  4  0  0  0  0  0  0
   46.7800   84.1474  264.0079 O   0  0  0  0  0  0  0  0  0  0  0  0
   44.3178   83.3123  264.7504 S   0  0  0  0  0  0  0  0  0  0  0  0
  1  2  1  0
 10  1  1  0
  2  3  1  0
  2 13  2  0
  3 14  1  0
  5  4  1  0
  4 11  1  0
  6  5  1  0
 12  6  1  0
  8  7  1  0
  7 12  1  0
  9  8  1  0
  9 10  1  0
M  CHG  2  11   1  12   1
M  END
$$$$
