
     RDKit          3D

 14 13  0  0  0  0  0  0  0  0999 V2000
   63.2746  109.5642  275.2238 C   0  0  0  0  0  0  0  0  0  0  0  0
   62.4508  110.1704  274.1547 C   0  0  0  0  0  0  0  0  0  0  0  0
   61.3267  109.4173  273.5265 C   0  0  0  0  0  0  0  0  0  0  0  0
   72.0777  107.6446  278.5518 C   0  0  0  0  0  0  0  0  0  0  0  0
   71.0621  108.5858  277.9425 C   0  0  0  0  0  0  0  0  0  0  0  0
   69.7391  107.8780  277.6924 C   0  0  0  0  0  0  0  0  0  0  0  0
   67.5047  108.0989  276.9290 C   0  0  0  0  0  0  0  0  0  0  0  0
   66.7255  108.9170  275.9082 C   0  0  0  0  0  0  0  0  0  0  0  0
   65.3670  108.3066  275.6483 C   0  0  0  0  0  0  0  0  0  0  0  0
   64.5666  109.0746  274.6526 C   0  0  0  0  0  0  0  0  0  0  0  0
   73.4080  108.1776  278.5963 N   0  0  0  0  0  4  0  0  0  0  0  0
   68.7618  108.7841  277.1460 N   0  0  0  0  0  4  0  0  0  0  0  0
   62.6778  111.2973  273.7700 O   0  0  0  0  0  0  0  0  0  0  0  0
   60.1143  109.0559  274.8293 S   0  0  0  0  0  0  0  0  0  0  0  0
  1  2  1  0
 10  1  1  0
  2  3  1  0
  2 13  2  0
  3 14  1  0
  5  4  1  0
  4 11  1  0
  6  5  1  0
 12  6  1  0
  8  7  1  0
  7 12  1  0
  9  8  1  0
  9 10  1  0
M  CHG  2  11   1  12   1
M  END
$$$$
