
     RDKit          3D

 14 13  0  0  0  0  0  0  0  0999 V2000
   67.3938  109.9312  273.3909 C   0  0  0  0  0  0  0  0  0  0  0  0
   67.8255  111.2799  272.9620 C   0  0  0  0  0  0  0  0  0  0  0  0
   69.2125  111.7643  273.2208 C   0  0  0  0  0  0  0  0  0  0  0  0
   62.6804  104.7029  279.0953 C   0  0  0  0  0  0  0  0  0  0  0  0
   62.3945  105.8760  278.1839 C   0  0  0  0  0  0  0  0  0  0  0  0
   63.4439  106.9651  278.3460 C   0  0  0  0  0  0  0  0  0  0  0  0
   64.0043  107.5031  276.1053 C   0  0  0  0  0  0  0  0  0  0  0  0
   64.7968  108.7953  275.9619 C   0  0  0  0  0  0  0  0  0  0  0  0
   65.6420  108.7758  274.7084 C   0  0  0  0  0  0  0  0  0  0  0  0
   66.3913  110.0464  274.4940 C   0  0  0  0  0  0  0  0  0  0  0  0
   61.5149  104.1738  279.7416 N   0  0  0  0  0  4  0  0  0  0  0  0
   64.4553  106.8663  277.3252 N   0  0  0  0  0  4  0  0  0  0  0  0
   67.0532  112.0176  272.3888 O   0  0  0  0  0  0  0  0  0  0  0  0
   70.3494  110.6839  272.3053 S   0  0  0  0  0  0  0  0  0  0  0  0
  1  2  1  0
 10  1  1  0
  2  3  1  0
  2 13  2  0
  3 14  1  0
  5  4  1  0
  4 11  1  0
  6  5  1  0
 12  6  1  0
  8  7  1  0
  7 12  1  0
  9  8  1  0
  9 10  1  0
M  CHG  2  11   1  12   1
M  END
$$$$
