
     RDKit          3D

 14 13  0  0  0  0  0  0  0  0999 V2000
   63.4012  109.5945  276.0092 C   0  0  0  0  0  0  0  0  0  0  0  0
   62.3075  109.8071  275.0356 C   0  0  0  0  0  0  0  0  0  0  0  0
   61.0380  109.0281  275.1197 C   0  0  0  0  0  0  0  0  0  0  0  0
   71.8315  109.5493  273.2338 C   0  0  0  0  0  0  0  0  0  0  0  0
   71.3735  108.5454  274.2687 C   0  0  0  0  0  0  0  0  0  0  0  0
   70.0450  108.9587  274.8834 C   0  0  0  0  0  0  0  0  0  0  0  0
   68.0565  107.8872  275.6061 C   0  0  0  0  0  0  0  0  0  0  0  0
   67.1310  109.0957  275.5679 C   0  0  0  0  0  0  0  0  0  0  0  0
   65.6889  108.6791  275.7479 C   0  0  0  0  0  0  0  0  0  0  0  0
   64.7234  109.7330  275.3252 C   0  0  0  0  0  0  0  0  0  0  0  0
   72.8151  109.0368  272.3250 N   0  0  0  0  0  4  0  0  0  0  0  0
   68.9963  108.0424  274.5154 N   0  0  0  0  0  4  0  0  0  0  0  0
   62.4267  110.6240  274.1482 O   0  0  0  0  0  0  0  0  0  0  0  0
   60.4195  108.8051  273.4270 S   0  0  0  0  0  0  0  0  0  0  0  0
  1  2  1  0
 10  1  1  0
  2  3  1  0
  2 13  2  0
  3 14  1  0
  5  4  1  0
  4 11  1  0
  6  5  1  0
 12  6  1  0
  8  7  1  0
  7 12  1  0
  9  8  1  0
  9 10  1  0
M  CHG  2  11   1  12   1
M  END
$$$$
