
     RDKit          3D

 14 13  0  0  0  0  0  0  0  0999 V2000
   62.8287  109.6027  275.6707 C   0  0  0  0  0  0  0  0  0  0  0  0
   61.9271  110.4424  274.8513 C   0  0  0  0  0  0  0  0  0  0  0  0
   60.4949  110.0735  274.6566 C   0  0  0  0  0  0  0  0  0  0  0  0
   72.2826  107.9267  276.4963 C   0  0  0  0  0  0  0  0  0  0  0  0
   70.8542  107.8955  276.9932 C   0  0  0  0  0  0  0  0  0  0  0  0
   69.9004  108.4709  275.9573 C   0  0  0  0  0  0  0  0  0  0  0  0
   67.6498  109.0176  275.4470 C   0  0  0  0  0  0  0  0  0  0  0  0
   66.2370  108.8936  276.0012 C   0  0  0  0  0  0  0  0  0  0  0  0
   65.2340  109.5478  275.0782 C   0  0  0  0  0  0  0  0  0  0  0  0
   64.1577  110.2728  275.8114 C   0  0  0  0  0  0  0  0  0  0  0  0
   73.2076  107.2381  277.3486 N   0  0  0  0  0  4  0  0  0  0  0  0
   68.5384  108.4226  276.4234 N   0  0  0  0  0  4  0  0  0  0  0  0
   62.3413  111.4510  274.3218 O   0  0  0  0  0  0  0  0  0  0  0  0
   60.4508  108.5574  273.6580 S   0  0  0  0  0  0  0  0  0  0  0  0
  1  2  1  0
 10  1  1  0
  2  3  1  0
  2 13  2  0
  3 14  1  0
  5  4  1  0
  4 11  1  0
  6  5  1  0
 12  6  1  0
  8  7  1  0
  7 12  1  0
  9  8  1  0
  9 10  1  0
M  CHG  2  11   1  12   1
M  END
$$$$
