
     RDKit          3D

 14 13  0  0  0  0  0  0  0  0999 V2000
   63.6830  109.3446  274.7047 C   0  0  0  0  0  0  0  0  0  0  0  0
   62.3889  110.0246  274.9332 C   0  0  0  0  0  0  0  0  0  0  0  0
   61.2164  109.7687  274.0472 C   0  0  0  0  0  0  0  0  0  0  0  0
   72.3392  107.3444  278.9459 C   0  0  0  0  0  0  0  0  0  0  0  0
   71.0850  108.1901  278.9636 C   0  0  0  0  0  0  0  0  0  0  0  0
   70.1216  107.7655  277.8657 C   0  0  0  0  0  0  0  0  0  0  0  0
   68.0601  108.2080  276.7800 C   0  0  0  0  0  0  0  0  0  0  0  0
   66.8028  109.0565  276.9133 C   0  0  0  0  0  0  0  0  0  0  0  0
   65.8220  108.7487  275.8046 C   0  0  0  0  0  0  0  0  0  0  0  0
   64.6029  109.6050  275.8542 C   0  0  0  0  0  0  0  0  0  0  0  0
   73.4253  107.9340  278.2188 N   0  0  0  0  0  4  0  0  0  0  0  0
   68.9488  108.6016  277.8535 N   0  0  0  0  0  4  0  0  0  0  0  0
   62.2603  110.8057  275.8511 O   0  0  0  0  0  0  0  0  0  0  0  0
   60.3232  108.3381  274.7206 S   0  0  0  0  0  0  0  0  0  0  0  0
  1  2  1  0
 10  1  1  0
  2  3  1  0
  2 13  2  0
  3 14  1  0
  5  4  1  0
  4 11  1  0
  6  5  1  0
 12  6  1  0
  8  7  1  0
  7 12  1  0
  9  8  1  0
  9 10  1  0
M  CHG  2  11   1  12   1
M  END
$$$$
