
     RDKit          3D

 14 13  0  0  0  0  0  0  0  0999 V2000
   43.0183   88.0573  248.2611 C   0  0  0  0  0  0  0  0  0  0  0  0
   43.3508   87.0284  249.2711 C   0  0  0  0  0  0  0  0  0  0  0  0
   42.4788   86.8052  250.4607 C   0  0  0  0  0  0  0  0  0  0  0  0
   49.6590   93.0214  244.7634 C   0  0  0  0  0  0  0  0  0  0  0  0
   49.1419   91.9538  245.7022 C   0  0  0  0  0  0  0  0  0  0  0  0
   47.6379   92.0747  245.8951 C   0  0  0  0  0  0  0  0  0  0  0  0
   45.8782   91.3920  247.3309 C   0  0  0  0  0  0  0  0  0  0  0  0
   44.7733   90.7041  246.5406 C   0  0  0  0  0  0  0  0  0  0  0  0
   43.6235   90.3163  247.4424 C   0  0  0  0  0  0  0  0  0  0  0  0
   43.9673   89.2067  248.3764 C   0  0  0  0  0  0  0  0  0  0  0  0
   51.0827   93.0032  244.5934 N   0  0  0  0  0  4  0  0  0  0  0  0
   47.1338   91.0074  246.7206 N   0  0  0  0  0  4  0  0  0  0  0  0
   44.3443   86.3452  249.1463 O   0  0  0  0  0  0  0  0  0  0  0  0
   43.3380   87.4915  251.9058 S   0  0  0  0  0  0  0  0  0  0  0  0
  1  2  1  0
 10  1  1  0
  2  3  1  0
  2 13  2  0
  3 14  1  0
  5  4  1  0
  4 11  1  0
  6  5  1  0
 12  6  1  0
  8  7  1  0
  7 12  1  0
  9  8  1  0
  9 10  1  0
M  CHG  2  11   1  12   1
M  END
$$$$
