
     RDKit          3D

 14 13  0  0  0  0  0  0  0  0999 V2000
   63.2899  109.1613  274.4854 C   0  0  0  0  0  0  0  0  0  0  0  0
   62.2951  110.2360  274.2744 C   0  0  0  0  0  0  0  0  0  0  0  0
   60.9242  110.1427  274.8552 C   0  0  0  0  0  0  0  0  0  0  0  0
   72.5231  108.0842  277.6460 C   0  0  0  0  0  0  0  0  0  0  0  0
   71.2362  108.8754  277.7268 C   0  0  0  0  0  0  0  0  0  0  0  0
   70.1302  108.2071  276.9244 C   0  0  0  0  0  0  0  0  0  0  0  0
   67.8877  108.3574  276.1674 C   0  0  0  0  0  0  0  0  0  0  0  0
   66.5943  109.1177  276.4272 C   0  0  0  0  0  0  0  0  0  0  0  0
   65.5010  108.6635  275.4869 C   0  0  0  0  0  0  0  0  0  0  0  0
   64.4053  109.6639  275.3447 C   0  0  0  0  0  0  0  0  0  0  0  0
   72.6468  107.0745  278.6565 N   0  0  0  0  0  4  0  0  0  0  0  0
   68.9057  108.9616  277.0013 N   0  0  0  0  0  4  0  0  0  0  0  0
   62.5808  111.2166  273.6219 O   0  0  0  0  0  0  0  0  0  0  0  0
   60.0049  108.9069  273.8932 S   0  0  0  0  0  0  0  0  0  0  0  0
  1  2  1  0
 10  1  1  0
  2  3  1  0
  2 13  2  0
  3 14  1  0
  5  4  1  0
  4 11  1  0
  6  5  1  0
 12  6  1  0
  8  7  1  0
  7 12  1  0
  9  8  1  0
  9 10  1  0
M  CHG  2  11   1  12   1
M  END
$$$$
