
     RDKit          3D

 14 13  0  0  0  0  0  0  0  0999 V2000
   69.3509  108.2974  274.7667 C   0  0  0  0  0  0  0  0  0  0  0  0
   70.2215  109.2605  274.0570 C   0  0  0  0  0  0  0  0  0  0  0  0
   71.4076  109.8674  274.7281 C   0  0  0  0  0  0  0  0  0  0  0  0
   60.4869  109.4503  274.9349 C   0  0  0  0  0  0  0  0  0  0  0  0
   61.9644  109.5146  275.2530 C   0  0  0  0  0  0  0  0  0  0  0  0
   62.4644  108.1893  275.8072 C   0  0  0  0  0  0  0  0  0  0  0  0
   64.6356  109.1048  275.5386 C   0  0  0  0  0  0  0  0  0  0  0  0
   65.8832  108.6749  276.2984 C   0  0  0  0  0  0  0  0  0  0  0  0
   66.9463  108.1675  275.3507 C   0  0  0  0  0  0  0  0  0  0  0  0
   68.1748  109.0117  275.3512 C   0  0  0  0  0  0  0  0  0  0  0  0
   60.0292  110.5149  274.0904 N   0  0  0  0  0  4  0  0  0  0  0  0
   63.8134  107.9237  275.3776 N   0  0  0  0  0  4  0  0  0  0  0  0
   69.9831  109.5733  272.9105 O   0  0  0  0  0  0  0  0  0  0  0  0
   70.8384  110.5987  276.2898 S   0  0  0  0  0  0  0  0  0  0  0  0
  1  2  1  0
 10  1  1  0
  2  3  1  0
  2 13  2  0
  3 14  1  0
  5  4  1  0
  4 11  1  0
  6  5  1  0
 12  6  1  0
  8  7  1  0
  7 12  1  0
  9  8  1  0
  9 10  1  0
M  CHG  2  11   1  12   1
M  END
$$$$
