
     RDKit          3D

 14 13  0  0  0  0  0  0  0  0999 V2000
   63.5599  109.8014  275.3071 C   0  0  0  0  0  0  0  0  0  0  0  0
   62.5303  109.1516  274.4663 C   0  0  0  0  0  0  0  0  0  0  0  0
   61.2623  108.6366  275.0600 C   0  0  0  0  0  0  0  0  0  0  0  0
   72.5353  107.4536  277.9084 C   0  0  0  0  0  0  0  0  0  0  0  0
   71.0819  107.0345  277.8875 C   0  0  0  0  0  0  0  0  0  0  0  0
   70.1817  108.1961  277.4948 C   0  0  0  0  0  0  0  0  0  0  0  0
   68.3884  108.9097  276.1166 C   0  0  0  0  0  0  0  0  0  0  0  0
   66.9871  108.3164  276.1709 C   0  0  0  0  0  0  0  0  0  0  0  0
   65.9491  109.3428  275.7775 C   0  0  0  0  0  0  0  0  0  0  0  0
   64.5657  108.7883  275.7510 C   0  0  0  0  0  0  0  0  0  0  0  0
   73.4157  106.4643  278.4582 N   0  0  0  0  0  4  0  0  0  0  0  0
   69.3125  107.8328  276.4052 N   0  0  0  0  0  4  0  0  0  0  0  0
   62.7020  109.0272  273.2729 O   0  0  0  0  0  0  0  0  0  0  0  0
   59.9638  109.8609  274.7246 S   0  0  0  0  0  0  0  0  0  0  0  0
  1  2  1  0
 10  1  1  0
  2  3  1  0
  2 13  2  0
  3 14  1  0
  5  4  1  0
  4 11  1  0
  6  5  1  0
 12  6  1  0
  8  7  1  0
  7 12  1  0
  9  8  1  0
  9 10  1  0
M  CHG  2  11   1  12   1
M  END
$$$$
