
     RDKit          3D

 14 13  0  0  0  0  0  0  0  0999 V2000
   63.0498  109.7093  274.6312 C   0  0  0  0  0  0  0  0  0  0  0  0
   61.8079  110.4238  275.0006 C   0  0  0  0  0  0  0  0  0  0  0  0
   60.5453  109.6807  275.2822 C   0  0  0  0  0  0  0  0  0  0  0  0
   70.6885  107.7779  279.2498 C   0  0  0  0  0  0  0  0  0  0  0  0
   70.1310  106.7782  278.2607 C   0  0  0  0  0  0  0  0  0  0  0  0
   69.5281  107.4792  277.0529 C   0  0  0  0  0  0  0  0  0  0  0  0
   67.6537  108.6552  276.1997 C   0  0  0  0  0  0  0  0  0  0  0  0
   66.2740  109.1526  276.6091 C   0  0  0  0  0  0  0  0  0  0  0  0
   65.3194  109.1266  275.4370 C   0  0  0  0  0  0  0  0  0  0  0  0
   64.1060  109.9637  275.6582 C   0  0  0  0  0  0  0  0  0  0  0  0
   71.3736  107.1773  280.3569 N   0  0  0  0  0  4  0  0  0  0  0  0
   68.2624  108.0827  277.3823 N   0  0  0  0  0  4  0  0  0  0  0  0
   61.7970  111.6331  275.0814 O   0  0  0  0  0  0  0  0  0  0  0  0
   60.4374  108.3139  274.0914 S   0  0  0  0  0  0  0  0  0  0  0  0
  1  2  1  0
 10  1  1  0
  2  3  1  0
  2 13  2  0
  3 14  1  0
  5  4  1  0
  4 11  1  0
  6  5  1  0
 12  6  1  0
  8  7  1  0
  7 12  1  0
  9  8  1  0
  9 10  1  0
M  CHG  2  11   1  12   1
M  END
$$$$
