
     RDKit          3D

 14 13  0  0  0  0  0  0  0  0999 V2000
   63.2153  109.2569  275.4854 C   0  0  0  0  0  0  0  0  0  0  0  0
   62.3152  109.8186  274.4541 C   0  0  0  0  0  0  0  0  0  0  0  0
   60.8364  109.8396  274.6497 C   0  0  0  0  0  0  0  0  0  0  0  0
   71.8573  106.8910  278.1755 C   0  0  0  0  0  0  0  0  0  0  0  0
   71.0926  108.0389  277.5544 C   0  0  0  0  0  0  0  0  0  0  0  0
   69.9491  107.5317  276.6889 C   0  0  0  0  0  0  0  0  0  0  0  0
   67.9704  108.8389  276.7117 C   0  0  0  0  0  0  0  0  0  0  0  0
   66.8940  108.4994  275.6896 C   0  0  0  0  0  0  0  0  0  0  0  0
   65.6553  109.3380  275.9090 C   0  0  0  0  0  0  0  0  0  0  0  0
   64.5821  109.0594  274.9128 C   0  0  0  0  0  0  0  0  0  0  0  0
   73.1353  107.2662  278.7065 N   0  0  0  0  0  4  0  0  0  0  0  0
   69.2478  108.6240  276.0645 N   0  0  0  0  0  4  0  0  0  0  0  0
   62.7688  110.2744  273.4266 O   0  0  0  0  0  0  0  0  0  0  0  0
   60.1257  108.5463  273.5914 S   0  0  0  0  0  0  0  0  0  0  0  0
  1  2  1  0
 10  1  1  0
  2  3  1  0
  2 13  2  0
  3 14  1  0
  5  4  1  0
  4 11  1  0
  6  5  1  0
 12  6  1  0
  8  7  1  0
  7 12  1  0
  9  8  1  0
  9 10  1  0
M  CHG  2  11   1  12   1
M  END
$$$$
