
     RDKit          3D

 14 13  0  0  0  0  0  0  0  0999 V2000
   62.2498  108.2455  275.8820 C   0  0  0  0  0  0  0  0  0  0  0  0
   61.3268  108.8757  274.9124 C   0  0  0  0  0  0  0  0  0  0  0  0
   60.6228  110.1508  275.2345 C   0  0  0  0  0  0  0  0  0  0  0  0
   70.4783  107.7315  278.3271 C   0  0  0  0  0  0  0  0  0  0  0  0
   70.1059  107.9307  276.8745 C   0  0  0  0  0  0  0  0  0  0  0  0
   69.0023  108.9673  276.7283 C   0  0  0  0  0  0  0  0  0  0  0  0
   66.9444  109.4530  275.6541 C   0  0  0  0  0  0  0  0  0  0  0  0
   65.9162  108.6036  276.3888 C   0  0  0  0  0  0  0  0  0  0  0  0
   64.5246  109.1691  276.2169 C   0  0  0  0  0  0  0  0  0  0  0  0
   63.6512  108.3121  275.3656 C   0  0  0  0  0  0  0  0  0  0  0  0
   71.3761  106.6360  278.5501 N   0  0  0  0  0  4  0  0  0  0  0  0
   68.1651  108.6764  275.5929 N   0  0  0  0  0  4  0  0  0  0  0  0
   61.1273  108.3620  273.8328 O   0  0  0  0  0  0  0  0  0  0  0  0
   61.2339  111.4186  274.0869 S   0  0  0  0  0  0  0  0  0  0  0  0
  1  2  1  0
 10  1  1  0
  2  3  1  0
  2 13  2  0
  3 14  1  0
  5  4  1  0
  4 11  1  0
  6  5  1  0
 12  6  1  0
  8  7  1  0
  7 12  1  0
  9  8  1  0
  9 10  1  0
M  CHG  2  11   1  12   1
M  END
$$$$
