
     RDKit          3D

 14 13  0  0  0  0  0  0  0  0999 V2000
   68.7615  109.4766  276.0543 C   0  0  0  0  0  0  0  0  0  0  0  0
   70.2180  109.3865  275.8100 C   0  0  0  0  0  0  0  0  0  0  0  0
   70.8553  110.1099  274.6716 C   0  0  0  0  0  0  0  0  0  0  0  0
   60.1153  109.8647  275.7957 C   0  0  0  0  0  0  0  0  0  0  0  0
   60.8107  108.6468  275.2287 C   0  0  0  0  0  0  0  0  0  0  0  0
   62.1991  108.9970  274.7156 C   0  0  0  0  0  0  0  0  0  0  0  0
   64.3387  108.0578  275.1212 C   0  0  0  0  0  0  0  0  0  0  0  0
   65.5654  108.9071  275.4250 C   0  0  0  0  0  0  0  0  0  0  0  0
   66.7916  108.0416  275.6068 C   0  0  0  0  0  0  0  0  0  0  0  0
   68.0258  108.6580  275.0424 C   0  0  0  0  0  0  0  0  0  0  0  0
   58.8263  109.5863  276.3586 N   0  0  0  0  0  4  0  0  0  0  0  0
   63.2028  108.7324  275.7142 N   0  0  0  0  0  4  0  0  0  0  0  0
   70.9216  108.7189  276.5370 O   0  0  0  0  0  0  0  0  0  0  0  0
   71.5475  108.8618  273.5487 S   0  0  0  0  0  0  0  0  0  0  0  0
  1  2  1  0
 10  1  1  0
  2  3  1  0
  2 13  2  0
  3 14  1  0
  5  4  1  0
  4 11  1  0
  6  5  1  0
 12  6  1  0
  8  7  1  0
  7 12  1  0
  9  8  1  0
  9 10  1  0
M  CHG  2  11   1  12   1
M  END
$$$$
