
     RDKit          3D

 14 13  0  0  0  0  0  0  0  0999 V2000
   63.8723  108.7441  276.1444 C   0  0  0  0  0  0  0  0  0  0  0  0
   62.8383  109.5853  275.5021 C   0  0  0  0  0  0  0  0  0  0  0  0
   61.5650  108.9926  274.9993 C   0  0  0  0  0  0  0  0  0  0  0  0
   72.6523  106.5822  279.1866 C   0  0  0  0  0  0  0  0  0  0  0  0
   71.6779  107.7053  278.9081 C   0  0  0  0  0  0  0  0  0  0  0  0
   70.5378  107.2343  278.0182 C   0  0  0  0  0  0  0  0  0  0  0  0
   68.5211  107.8346  276.9240 C   0  0  0  0  0  0  0  0  0  0  0  0
   67.5636  109.0049  276.7448 C   0  0  0  0  0  0  0  0  0  0  0  0
   66.3385  108.5872  275.9633 C   0  0  0  0  0  0  0  0  0  0  0  0
   65.1704  109.4842  276.1927 C   0  0  0  0  0  0  0  0  0  0  0  0
   73.7418  106.9584  280.0395 N   0  0  0  0  0  4  0  0  0  0  0  0
   69.5826  108.2896  277.7977 N   0  0  0  0  0  4  0  0  0  0  0  0
   63.0109  110.7782  275.3738 O   0  0  0  0  0  0  0  0  0  0  0  0
   61.8294  108.5160  273.2671 S   0  0  0  0  0  0  0  0  0  0  0  0
  1  2  1  0
 10  1  1  0
  2  3  1  0
  2 13  2  0
  3 14  1  0
  5  4  1  0
  4 11  1  0
  6  5  1  0
 12  6  1  0
  8  7  1  0
  7 12  1  0
  9  8  1  0
  9 10  1  0
M  CHG  2  11   1  12   1
M  END
$$$$
