
     RDKit          3D

 46 51  0  0  0  0  0  0  0  0999 V2000
   16.1751  -13.3163  -11.2011 C   0  0  0  0  0  0  0  0  0  0  0  0
   15.9408  -14.0534  -12.3594 C   0  0  0  0  0  0  0  0  0  0  0  0
   14.6886  -14.0889  -12.9348 C   0  0  0  0  0  0  0  0  0  0  0  0
   13.6811  -13.3669  -12.3186 C   0  0  0  0  0  0  0  0  0  0  0  0
   13.9281  -12.6392  -11.1689 C   0  0  0  0  0  0  0  0  0  0  0  0
   15.1751  -12.5964  -10.5850 C   0  0  0  0  0  0  0  0  0  0  0  0
   15.3812  -11.8159   -9.3742 C   0  0  0  0  0  0  0  0  0  0  0  0
   14.9115  -10.5369   -9.1912 C   0  0  0  0  0  0  0  0  0  0  0  0
   15.1438   -9.8463   -8.0019 C   0  0  0  0  0  0  0  0  0  0  0  0
   14.6619   -8.5024   -7.7889 C   0  0  0  0  0  0  0  0  0  0  0  0
   14.0113   -7.9713   -8.7369 O   0  0  0  0  0  0  0  0  0  0  0  0
   14.9206   -7.8426   -6.5737 N   0  0  0  0  0  0  0  0  0  0  0  0
   15.5785   -8.3946   -5.6298 C   0  0  0  0  0  0  0  0  0  0  0  0
   16.1292   -9.7505   -5.7003 C   0  0  0  0  0  0  0  0  0  0  0  0
   15.8545  -10.4391   -6.9802 C   0  0  0  0  0  0  0  0  0  0  0  0
   16.3067  -11.7076   -7.1921 N   0  0  0  0  0  0  0  0  0  0  0  0
   16.0985  -12.3947   -8.3244 C   0  0  0  0  0  0  0  0  0  0  0  0
   16.6263  -13.7456   -8.4674 C   0  0  0  0  0  0  0  0  0  0  0  0
   17.9795  -13.9853   -8.5521 C   0  0  0  0  0  0  0  0  0  0  0  0
   18.4607  -15.2952   -8.6868 C   0  0  0  0  0  0  0  0  0  0  0  0
   15.7517  -14.8050   -8.5168 C   0  0  0  0  0  0  0  0  0  0  0  0
   16.2473  -16.1031   -8.6515 C   0  0  0  0  0  0  0  0  0  0  0  0
   17.5809  -16.3596   -8.7364 C   0  0  0  0  0  0  0  0  0  0  0  0
   18.1557  -17.7208   -8.8743 C   0  0  0  0  0  0  0  0  0  0  0  0
   18.7182  -18.2571   -7.6822 N   0  0  1  0  0  4  0  0  0  0  0  0
   17.8909  -19.2733   -7.0617 C   0  0  0  0  0  0  0  0  0  0  0  0
   17.9758  -20.5903   -7.8017 C   0  0  0  0  0  0  0  0  0  0  0  0
   20.0514  -18.7409   -7.9526 C   0  0  0  0  0  0  0  0  0  0  0  0
   20.3083  -20.0838   -7.2905 C   0  0  0  0  0  0  0  0  0  0  0  0
   19.3809  -21.0894   -7.9573 C   0  0  1  0  0  0  0  0  0  0  0  0
   19.5259  -22.4160   -7.3926 N   0  0  0  0  0  0  0  0  0  0  0  0
   19.0774  -23.5709   -8.0547 C   0  0  0  0  0  0  0  0  0  0  0  0
   18.1880  -23.4513   -8.9346 O   0  0  0  0  0  0  0  0  0  0  0  0
   19.5619  -24.8761   -7.7976 N   0  0  0  0  0  0  0  0  0  0  0  0
   18.8648  -26.0618   -8.1426 C   0  0  0  0  0  0  0  0  0  0  0  0
   19.3650  -27.3366   -8.0219 C   0  0  0  0  0  0  0  0  0  0  0  0
   17.5851  -25.9365   -8.6403 C   0  0  0  0  0  0  0  0  0  0  0  0
   16.8347  -27.0536   -9.0038 C   0  0  0  0  0  0  0  0  0  0  0  0
   17.3814  -28.3032   -8.8633 C   0  0  0  0  0  0  0  0  0  0  0  0
   16.3970  -29.6832   -9.3356 Cl  0  0  0  0  0  0  0  0  0  0  0  0
   18.6605  -28.4617   -8.3680 C   0  0  0  0  0  0  0  0  0  0  0  0
   19.1589  -29.7879   -8.2484 N   0  0  0  0  0  0  0  0  0  0  0  0
   19.2321  -30.4808   -7.0121 C   0  0  0  0  0  0  0  0  0  0  0  0
   18.3912  -30.1231   -6.1173 O   0  0  0  0  0  0  0  0  0  0  0  0
   20.2171  -31.5626   -6.7440 C   0  0  0  0  0  0  0  0  0  0  0  0
   19.5739  -32.7944   -6.1916 C   0  0  0  0  0  0  0  0  0  0  0  0
  1  2  2  0
  1  6  1  0
  2  3  1  0
  3  4  2  0
  4  5  1  0
  5  6  2  0
  6  7  1  0
  7  8  2  0
  7 17  1  0
  8  9  1  0
  9 10  1  0
  9 15  2  0
 10 11  2  0
 10 12  1  0
 12 13  2  0
 13 14  1  0
 14 15  1  0
 15 16  1  0
 16 17  2  0
 17 18  1  0
 18 19  2  0
 18 21  1  0
 19 20  1  0
 20 23  2  0
 21 22  2  0
 22 23  1  0
 23 24  1  0
 25 24  1  6
 25 26  1  0
 25 28  1  0
 26 27  1  0
 27 30  1  0
 28 29  1  0
 29 30  1  0
 30 31  1  1
 31 32  1  0
 32 33  2  0
 32 34  1  0
 34 35  1  0
 35 36  2  0
 35 37  1  0
 36 41  1  0
 37 38  2  0
 38 39  1  0
 39 40  1  0
 39 41  2  0
 41 42  1  0
 42 43  1  0
 43 44  2  0
 43 45  1  0
 45 46  1  0
M  CHG  1  25   1
M  END
$$$$
