
     RDKit          3D

 46 51  0  0  0  0  0  0  0  0999 V2000
   14.3708  -14.3666   -9.1981 C   0  0  0  0  0  0  0  0  0  0  0  0
   13.8054  -15.4524   -9.8623 C   0  0  0  0  0  0  0  0  0  0  0  0
   13.8827  -15.5616  -11.2343 C   0  0  0  0  0  0  0  0  0  0  0  0
   14.5409  -14.5551  -11.9197 C   0  0  0  0  0  0  0  0  0  0  0  0
   15.0979  -13.4828  -11.2471 C   0  0  0  0  0  0  0  0  0  0  0  0
   15.0267  -13.3630   -9.8766 C   0  0  0  0  0  0  0  0  0  0  0  0
   15.6287  -12.2134   -9.2180 C   0  0  0  0  0  0  0  0  0  0  0  0
   15.3337  -10.9062   -9.5249 C   0  0  0  0  0  0  0  0  0  0  0  0
   15.9475   -9.8507   -8.8508 C   0  0  0  0  0  0  0  0  0  0  0  0
   15.6545   -8.4710   -9.1578 C   0  0  0  0  0  0  0  0  0  0  0  0
   14.8067   -8.2567  -10.0739 O   0  0  0  0  0  0  0  0  0  0  0  0
   16.2984   -7.4375   -8.4532 N   0  0  0  0  0  0  0  0  0  0  0  0
   17.1504   -7.6737   -7.5330 C   0  0  0  0  0  0  0  0  0  0  0  0
   17.5486   -9.0193   -7.1121 C   0  0  0  0  0  0  0  0  0  0  0  0
   16.8687  -10.1018   -7.8564 C   0  0  0  0  0  0  0  0  0  0  0  0
   17.1397  -11.4079   -7.5755 N   0  0  0  0  0  0  0  0  0  0  0  0
   16.5653  -12.4418   -8.2070 C   0  0  0  0  0  0  0  0  0  0  0  0
   16.9215  -13.8081   -7.8463 C   0  0  0  0  0  0  0  0  0  0  0  0
   17.3196  -14.7233   -8.7947 C   0  0  0  0  0  0  0  0  0  0  0  0
   17.6592  -16.0309   -8.4201 C   0  0  0  0  0  0  0  0  0  0  0  0
   16.8601  -14.1906   -6.5273 C   0  0  0  0  0  0  0  0  0  0  0  0
   17.2014  -15.4966   -6.1711 C   0  0  0  0  0  0  0  0  0  0  0  0
   17.5972  -16.4147   -7.0940 C   0  0  0  0  0  0  0  0  0  0  0  0
   17.9752  -17.8114   -6.7641 C   0  0  0  0  0  0  0  0  0  0  0  0
   19.2755  -18.1975   -7.1941 N   0  0  1  0  0  4  0  0  0  0  0  0
   20.0456  -18.8706   -6.1664 C   0  0  0  0  0  0  0  0  0  0  0  0
   19.5872  -20.2993   -5.9715 C   0  0  0  0  0  0  0  0  0  0  0  0
   19.1707  -18.9929   -8.3946 C   0  0  0  0  0  0  0  0  0  0  0  0
   20.0981  -20.1954   -8.3562 C   0  0  0  0  0  0  0  0  0  0  0  0
   19.6012  -21.1008   -7.2385 C   0  0  1  0  0  0  0  0  0  0  0  0
   20.4247  -22.2843   -7.0947 N   0  0  0  0  0  0  0  0  0  0  0  0
   20.1526  -23.4804   -7.7794 C   0  0  0  0  0  0  0  0  0  0  0  0
   19.0763  -23.5731   -8.4216 O   0  0  0  0  0  0  0  0  0  0  0  0
   21.0155  -24.6028   -7.7972 N   0  0  0  0  0  0  0  0  0  0  0  0
   20.6696  -25.8586   -8.3575 C   0  0  0  0  0  0  0  0  0  0  0  0
   19.4886  -26.1379   -9.0033 C   0  0  0  0  0  0  0  0  0  0  0  0
   21.5819  -26.8868   -8.2498 C   0  0  0  0  0  0  0  0  0  0  0  0
   21.3163  -28.1512   -8.7731 C   0  0  0  0  0  0  0  0  0  0  0  0
   20.1220  -28.3766   -9.4081 C   0  0  0  0  0  0  0  0  0  0  0  0
   19.8309  -29.9881  -10.0521 Cl  0  0  0  0  0  0  0  0  0  0  0  0
   19.1877  -27.3675   -9.5320 C   0  0  0  0  0  0  0  0  0  0  0  0
   17.9739  -27.6753  -10.2053 N   0  0  0  0  0  0  0  0  0  0  0  0
   16.7017  -27.2445   -9.7472 C   0  0  0  0  0  0  0  0  0  0  0  0
   16.6869  -26.6322   -8.6245 O   0  0  0  0  0  0  0  0  0  0  0  0
   15.4434  -27.4770  -10.5057 C   0  0  0  0  0  0  0  0  0  0  0  0
   14.2453  -26.9200   -9.8056 C   0  0  0  0  0  0  0  0  0  0  0  0
  1  2  2  0
  1  6  1  0
  2  3  1  0
  3  4  2  0
  4  5  1  0
  5  6  2  0
  6  7  1  0
  7  8  2  0
  7 17  1  0
  8  9  1  0
  9 10  1  0
  9 15  2  0
 10 11  2  0
 10 12  1  0
 12 13  2  0
 13 14  1  0
 14 15  1  0
 15 16  1  0
 16 17  2  0
 17 18  1  0
 18 19  2  0
 18 21  1  0
 19 20  1  0
 20 23  2  0
 21 22  2  0
 22 23  1  0
 23 24  1  0
 25 24  1  1
 25 26  1  0
 25 28  1  0
 26 27  1  0
 27 30  1  0
 28 29  1  0
 29 30  1  0
 30 31  1  1
 31 32  1  0
 32 33  2  0
 32 34  1  0
 34 35  1  0
 35 36  2  0
 35 37  1  0
 36 41  1  0
 37 38  2  0
 38 39  1  0
 39 40  1  0
 39 41  2  0
 41 42  1  0
 42 43  1  0
 43 44  2  0
 43 45  1  0
 45 46  1  0
M  CHG  1  25   1
M  END
$$$$
