
     RDKit          3D

 46 51  0  0  0  0  0  0  0  0999 V2000
   17.1747  -13.5780  -10.0893 C   0  0  0  0  0  0  0  0  0  0  0  0
   16.9840  -14.4075  -11.1918 C   0  0  0  0  0  0  0  0  0  0  0  0
   15.8128  -14.3624  -11.9175 C   0  0  0  0  0  0  0  0  0  0  0  0
   14.8414  -13.4650  -11.5086 C   0  0  0  0  0  0  0  0  0  0  0  0
   15.0444  -12.6473  -10.4121 C   0  0  0  0  0  0  0  0  0  0  0  0
   16.2104  -12.6837   -9.6793 C   0  0  0  0  0  0  0  0  0  0  0  0
   16.3728  -11.8022   -8.5328 C   0  0  0  0  0  0  0  0  0  0  0  0
   16.1282  -10.4497   -8.5585 C   0  0  0  0  0  0  0  0  0  0  0  0
   16.3025   -9.6631   -7.4199 C   0  0  0  0  0  0  0  0  0  0  0  0
   16.0537   -8.2413   -7.4246 C   0  0  0  0  0  0  0  0  0  0  0  0
   15.6651   -7.7325   -8.5173 O   0  0  0  0  0  0  0  0  0  0  0  0
   16.2439   -7.4861   -6.2530 N   0  0  0  0  0  0  0  0  0  0  0  0
   16.6363   -8.0172   -5.1610 C   0  0  0  0  0  0  0  0  0  0  0  0
   16.9281   -9.4443   -5.0036 C   0  0  0  0  0  0  0  0  0  0  0  0
   16.7267  -10.2332   -6.2386 C   0  0  0  0  0  0  0  0  0  0  0  0
   16.9607  -11.5762   -6.2452 N   0  0  0  0  0  0  0  0  0  0  0  0
   16.8018  -12.3560   -7.3242 C   0  0  0  0  0  0  0  0  0  0  0  0
   17.0833  -13.7836   -7.2423 C   0  0  0  0  0  0  0  0  0  0  0  0
   18.3500  -14.2543   -6.9784 C   0  0  0  0  0  0  0  0  0  0  0  0
   18.5929  -15.6330   -6.9026 C   0  0  0  0  0  0  0  0  0  0  0  0
   16.0588  -14.6805   -7.4312 C   0  0  0  0  0  0  0  0  0  0  0  0
   16.3176  -16.0501   -7.3527 C   0  0  0  0  0  0  0  0  0  0  0  0
   17.5625  -16.5340   -7.0927 C   0  0  0  0  0  0  0  0  0  0  0  0
   17.8858  -17.9790   -6.9936 C   0  0  0  0  0  0  0  0  0  0  0  0
   17.8638  -18.6838   -8.2296 N   0  0  1  0  0  4  0  0  0  0  0  0
   19.1219  -19.3317   -8.5454 C   0  0  0  0  0  0  0  0  0  0  0  0
   19.3224  -20.5892   -7.7280 C   0  0  0  0  0  0  0  0  0  0  0  0
   16.7627  -19.6177   -8.2334 C   0  0  0  0  0  0  0  0  0  0  0  0
   17.1672  -20.9631   -8.8114 C   0  0  0  0  0  0  0  0  0  0  0  0
   18.1904  -21.5635   -7.8583 C   0  0  1  0  0  0  0  0  0  0  0  0
   18.6658  -22.8530   -8.3175 N   0  0  0  0  0  0  0  0  0  0  0  0
   17.9470  -23.6397   -9.2329 C   0  0  0  0  0  0  0  0  0  0  0  0
   16.6990  -23.5039   -9.2911 O   0  0  0  0  0  0  0  0  0  0  0  0
   18.5362  -24.5866  -10.1052 N   0  0  0  0  0  0  0  0  0  0  0  0
   17.7979  -25.5217  -10.8740 C   0  0  0  0  0  0  0  0  0  0  0  0
   16.6011  -25.2621  -11.4987 C   0  0  0  0  0  0  0  0  0  0  0  0
   18.3114  -26.7940  -11.0102 C   0  0  0  0  0  0  0  0  0  0  0  0
   17.6452  -27.7709  -11.7486 C   0  0  0  0  0  0  0  0  0  0  0  0
   16.4539  -27.4592  -12.3518 C   0  0  0  0  0  0  0  0  0  0  0  0
   15.6493  -28.7244  -13.2728 Cl  0  0  0  0  0  0  0  0  0  0  0  0
   15.9136  -26.1940  -12.2340 C   0  0  0  0  0  0  0  0  0  0  0  0
   14.6767  -25.9445  -12.8893 N   0  0  0  0  0  0  0  0  0  0  0  0
   14.5391  -25.9139  -14.3014 C   0  0  0  0  0  0  0  0  0  0  0  0
   15.5942  -26.1774  -14.9743 O   0  0  0  0  0  0  0  0  0  0  0  0
   13.2571  -25.5974  -14.9862 C   0  0  0  0  0  0  0  0  0  0  0  0
   13.3264  -25.8321  -16.4613 C   0  0  0  0  0  0  0  0  0  0  0  0
  1  2  2  0
  1  6  1  0
  2  3  1  0
  3  4  2  0
  4  5  1  0
  5  6  2  0
  6  7  1  0
  7  8  2  0
  7 17  1  0
  8  9  1  0
  9 10  1  0
  9 15  2  0
 10 11  2  0
 10 12  1  0
 12 13  2  0
 13 14  1  0
 14 15  1  0
 15 16  1  0
 16 17  2  0
 17 18  1  0
 18 19  2  0
 18 21  1  0
 19 20  1  0
 20 23  2  0
 21 22  2  0
 22 23  1  0
 23 24  1  0
 25 24  1  1
 25 26  1  0
 25 28  1  0
 26 27  1  0
 27 30  1  0
 28 29  1  0
 29 30  1  0
 30 31  1  6
 31 32  1  0
 32 33  2  0
 32 34  1  0
 34 35  1  0
 35 36  2  0
 35 37  1  0
 36 41  1  0
 37 38  2  0
 38 39  1  0
 39 40  1  0
 39 41  2  0
 41 42  1  0
 42 43  1  0
 43 44  2  0
 43 45  1  0
 45 46  1  0
M  CHG  1  25   1
M  END
$$$$
