
     RDKit          3D

 46 51  0  0  0  0  0  0  0  0999 V2000
   19.6243  -15.2027   -7.4497 C   0  0  0  0  0  0  0  0  0  0  0  0
   20.1198  -16.4961   -7.3031 C   0  0  0  0  0  0  0  0  0  0  0  0
   19.3255  -17.5062   -6.8038 C   0  0  0  0  0  0  0  0  0  0  0  0
   18.0246  -17.1844   -6.4571 C   0  0  0  0  0  0  0  0  0  0  0  0
   17.5459  -15.8958   -6.6082 C   0  0  0  0  0  0  0  0  0  0  0  0
   18.3304  -14.8785   -7.1058 C   0  0  0  0  0  0  0  0  0  0  0  0
   17.7778  -13.5394   -7.2436 C   0  0  0  0  0  0  0  0  0  0  0  0
   18.3318  -12.4143   -6.6804 C   0  0  0  0  0  0  0  0  0  0  0  0
   17.7500  -11.1587   -6.8551 C   0  0  0  0  0  0  0  0  0  0  0  0
   18.3131   -9.9646   -6.2715 C   0  0  0  0  0  0  0  0  0  0  0  0
   19.3698  -10.1060   -5.5877 O   0  0  0  0  0  0  0  0  0  0  0  0
   17.6920   -8.7185   -6.4725 N   0  0  0  0  0  0  0  0  0  0  0  0
   16.6271   -8.5963   -7.1649 C   0  0  0  0  0  0  0  0  0  0  0  0
   15.9421   -9.7152   -7.8171 C   0  0  0  0  0  0  0  0  0  0  0  0
   16.5993  -11.0228   -7.6021 C   0  0  0  0  0  0  0  0  0  0  0  0
   16.0745  -12.1567   -8.1473 N   0  0  0  0  0  0  0  0  0  0  0  0
   16.6121  -13.3755   -7.9957 C   0  0  0  0  0  0  0  0  0  0  0  0
   15.9780  -14.5356   -8.6089 C   0  0  0  0  0  0  0  0  0  0  0  0
   15.6315  -14.5472   -9.9414 C   0  0  0  0  0  0  0  0  0  0  0  0
   15.0248  -15.6777  -10.5067 C   0  0  0  0  0  0  0  0  0  0  0  0
   15.7220  -15.6448   -7.8382 C   0  0  0  0  0  0  0  0  0  0  0  0
   15.1169  -16.7621   -8.4165 C   0  0  0  0  0  0  0  0  0  0  0  0
   14.7677  -16.7922   -9.7313 C   0  0  0  0  0  0  0  0  0  0  0  0
   14.1286  -17.9571  -10.3923 C   0  0  0  0  0  0  0  0  0  0  0  0
   14.8475  -19.1797  -10.2777 N   0  0  1  0  0  4  0  0  0  0  0  0
   14.0180  -20.3004   -9.8800 C   0  0  0  0  0  0  0  0  0  0  0  0
   13.1698  -20.8019  -11.0282 C   0  0  0  0  0  0  0  0  0  0  0  0
   15.5516  -19.4432  -11.5104 C   0  0  0  0  0  0  0  0  0  0  0  0
   15.4388  -20.9009  -11.9229 C   0  0  0  0  0  0  0  0  0  0  0  0
   13.9733  -21.1570  -12.2432 C   0  0  1  0  0  0  0  0  0  0  0  0
   13.7380  -22.5314  -12.6374 N   0  0  0  0  0  0  0  0  0  0  0  0
   14.4142  -23.1346  -13.7109 C   0  0  0  0  0  0  0  0  0  0  0  0
   14.9133  -22.3963  -14.5971 O   0  0  0  0  0  0  0  0  0  0  0  0
   14.5751  -24.5325  -13.8672 N   0  0  0  0  0  0  0  0  0  0  0  0
   14.7423  -25.1751  -15.1201 C   0  0  0  0  0  0  0  0  0  0  0  0
   14.9601  -24.5322  -16.3156 C   0  0  0  0  0  0  0  0  0  0  0  0
   14.6817  -26.5522  -15.1525 C   0  0  0  0  0  0  0  0  0  0  0  0
   14.8348  -27.2580  -16.3448 C   0  0  0  0  0  0  0  0  0  0  0  0
   15.0500  -26.5676  -17.5098 C   0  0  0  0  0  0  0  0  0  0  0  0
   15.2368  -27.5010  -18.9898 Cl  0  0  0  0  0  0  0  0  0  0  0  0
   15.1157  -25.1883  -17.5102 C   0  0  0  0  0  0  0  0  0  0  0  0
   15.3441  -24.5421  -18.7559 N   0  0  0  0  0  0  0  0  0  0  0  0
   14.4579  -23.5788  -19.3043 C   0  0  0  0  0  0  0  0  0  0  0  0
   13.2138  -23.7648  -19.0739 O   0  0  0  0  0  0  0  0  0  0  0  0
   14.9194  -22.4122  -20.1035 C   0  0  0  0  0  0  0  0  0  0  0  0
   14.3355  -22.3981  -21.4800 C   0  0  0  0  0  0  0  0  0  0  0  0
  1  2  2  0
  1  6  1  0
  2  3  1  0
  3  4  2  0
  4  5  1  0
  5  6  2  0
  6  7  1  0
  7  8  2  0
  7 17  1  0
  8  9  1  0
  9 10  1  0
  9 15  2  0
 10 11  2  0
 10 12  1  0
 12 13  2  0
 13 14  1  0
 14 15  1  0
 15 16  1  0
 16 17  2  0
 17 18  1  0
 18 19  2  0
 18 21  1  0
 19 20  1  0
 20 23  2  0
 21 22  2  0
 22 23  1  0
 23 24  1  0
 25 24  1  6
 25 26  1  0
 25 28  1  0
 26 27  1  0
 27 30  1  0
 28 29  1  0
 29 30  1  0
 30 31  1  1
 31 32  1  0
 32 33  2  0
 32 34  1  0
 34 35  1  0
 35 36  2  0
 35 37  1  0
 36 41  1  0
 37 38  2  0
 38 39  1  0
 39 40  1  0
 39 41  2  0
 41 42  1  0
 42 43  1  0
 43 44  2  0
 43 45  1  0
 45 46  1  0
M  CHG  1  25   1
M  END
$$$$
