
     RDKit          3D

 46 51  0  0  0  0  0  0  0  0999 V2000
   16.5212  -12.6579   -4.8940 C   0  0  0  0  0  0  0  0  0  0  0  0
   15.8886  -13.2111   -3.7832 C   0  0  0  0  0  0  0  0  0  0  0  0
   14.5397  -13.0231   -3.5701 C   0  0  0  0  0  0  0  0  0  0  0  0
   13.8448  -12.2678   -4.4990 C   0  0  0  0  0  0  0  0  0  0  0  0
   14.4858  -11.7248   -5.5974 C   0  0  0  0  0  0  0  0  0  0  0  0
   15.8331  -11.9058   -5.8206 C   0  0  0  0  0  0  0  0  0  0  0  0
   16.4592  -11.3113   -6.9920 C   0  0  0  0  0  0  0  0  0  0  0  0
   16.3164   -9.9941   -7.3586 C   0  0  0  0  0  0  0  0  0  0  0  0
   16.9482   -9.4887   -8.4948 C   0  0  0  0  0  0  0  0  0  0  0  0
   16.8106   -8.1100   -8.8994 C   0  0  0  0  0  0  0  0  0  0  0  0
   16.0854   -7.3700   -8.1711 O   0  0  0  0  0  0  0  0  0  0  0  0
   17.4649   -7.6431  -10.0540 N   0  0  0  0  0  0  0  0  0  0  0  0
   18.1916   -8.4046  -10.7754 C   0  0  0  0  0  0  0  0  0  0  0  0
   18.4242   -9.8230  -10.4916 C   0  0  0  0  0  0  0  0  0  0  0  0
   17.7336  -10.3083   -9.2769 C   0  0  0  0  0  0  0  0  0  0  0  0
   17.8555  -11.6090   -8.8871 N   0  0  0  0  0  0  0  0  0  0  0  0
   17.2600  -12.1214   -7.8007 C   0  0  0  0  0  0  0  0  0  0  0  0
   17.4397  -13.5277   -7.4633 C   0  0  0  0  0  0  0  0  0  0  0  0
   18.6707  -14.0320   -7.1083 C   0  0  0  0  0  0  0  0  0  0  0  0
   18.8153  -15.3887   -6.7858 C   0  0  0  0  0  0  0  0  0  0  0  0
   16.3534  -14.3694   -7.4986 C   0  0  0  0  0  0  0  0  0  0  0  0
   16.5145  -15.7178   -7.1750 C   0  0  0  0  0  0  0  0  0  0  0  0
   17.7228  -16.2342   -6.8217 C   0  0  0  0  0  0  0  0  0  0  0  0
   17.9430  -17.6575   -6.4638 C   0  0  0  0  0  0  0  0  0  0  0  0
   19.0834  -18.2575   -7.0675 N   0  0  1  0  0  4  0  0  0  0  0  0
   19.4354  -19.5385   -6.4867 C   0  0  0  0  0  0  0  0  0  0  0  0
   18.5014  -20.6358   -6.9482 C   0  0  0  0  0  0  0  0  0  0  0  0
   18.8812  -18.3516   -8.4940 C   0  0  0  0  0  0  0  0  0  0  0  0
   19.3361  -19.6943   -9.0399 C   0  0  0  0  0  0  0  0  0  0  0  0
   18.4169  -20.7488   -8.4408 C   0  0  1  0  0  0  0  0  0  0  0  0
   18.7670  -22.0843   -8.8807 N   0  0  0  0  0  0  0  0  0  0  0  0
   17.8232  -23.1210   -8.9695 C   0  0  0  0  0  0  0  0  0  0  0  0
   16.6158  -22.8546   -8.7443 O   0  0  0  0  0  0  0  0  0  0  0  0
   18.1397  -24.4612   -9.2986 N   0  0  0  0  0  0  0  0  0  0  0  0
   17.1767  -25.4947   -9.4226 C   0  0  0  0  0  0  0  0  0  0  0  0
   16.0963  -25.6725   -8.5913 C   0  0  0  0  0  0  0  0  0  0  0  0
   17.3281  -26.3978  -10.4533 C   0  0  0  0  0  0  0  0  0  0  0  0
   16.4249  -27.4429  -10.6418 C   0  0  0  0  0  0  0  0  0  0  0  0
   15.3639  -27.5749   -9.7834 C   0  0  0  0  0  0  0  0  0  0  0  0
   14.2506  -28.9093  -10.0603 Cl  0  0  0  0  0  0  0  0  0  0  0  0
   15.1849  -26.6868   -8.7414 C   0  0  0  0  0  0  0  0  0  0  0  0
   14.0604  -26.8859   -7.8944 N   0  0  0  0  0  0  0  0  0  0  0  0
   14.1729  -27.1503   -6.5047 C   0  0  0  0  0  0  0  0  0  0  0  0
   15.1881  -26.6413   -5.9166 O   0  0  0  0  0  0  0  0  0  0  0  0
   13.1848  -27.9671   -5.7504 C   0  0  0  0  0  0  0  0  0  0  0  0
   12.4720  -27.1739   -4.7022 C   0  0  0  0  0  0  0  0  0  0  0  0
  1  2  2  0
  1  6  1  0
  2  3  1  0
  3  4  2  0
  4  5  1  0
  5  6  2  0
  6  7  1  0
  7  8  2  0
  7 17  1  0
  8  9  1  0
  9 10  1  0
  9 15  2  0
 10 11  2  0
 10 12  1  0
 12 13  2  0
 13 14  1  0
 14 15  1  0
 15 16  1  0
 16 17  2  0
 17 18  1  0
 18 19  2  0
 18 21  1  0
 19 20  1  0
 20 23  2  0
 21 22  2  0
 22 23  1  0
 23 24  1  0
 25 24  1  1
 25 26  1  0
 25 28  1  0
 26 27  1  0
 27 30  1  0
 28 29  1  0
 29 30  1  0
 30 31  1  1
 31 32  1  0
 32 33  2  0
 32 34  1  0
 34 35  1  0
 35 36  2  0
 35 37  1  0
 36 41  1  0
 37 38  2  0
 38 39  1  0
 39 40  1  0
 39 41  2  0
 41 42  1  0
 42 43  1  0
 43 44  2  0
 43 45  1  0
 45 46  1  0
M  CHG  1  25   1
M  END
$$$$
