
     RDKit          3D

 46 51  0  0  0  0  0  0  0  0999 V2000
   15.0063  -14.7387   -9.4968 C   0  0  0  0  0  0  0  0  0  0  0  0
   14.6911  -15.7764  -10.3707 C   0  0  0  0  0  0  0  0  0  0  0  0
   14.7473  -15.5939  -11.7360 C   0  0  0  0  0  0  0  0  0  0  0  0
   15.1274  -14.3461  -12.1991 C   0  0  0  0  0  0  0  0  0  0  0  0
   15.4378  -13.3249  -11.3198 C   0  0  0  0  0  0  0  0  0  0  0  0
   15.3850  -13.4956   -9.9538 C   0  0  0  0  0  0  0  0  0  0  0  0
   15.7205  -12.3875   -9.0722 C   0  0  0  0  0  0  0  0  0  0  0  0
   15.2029  -11.1198   -9.1947 C   0  0  0  0  0  0  0  0  0  0  0  0
   15.5667  -10.1034   -8.3115 C   0  0  0  0  0  0  0  0  0  0  0  0
   15.0374   -8.7651   -8.4227 C   0  0  0  0  0  0  0  0  0  0  0  0
   14.2190   -8.5503   -9.3650 O   0  0  0  0  0  0  0  0  0  0  0  0
   15.4332   -7.7700   -7.5104 N   0  0  0  0  0  0  0  0  0  0  0  0
   16.2595   -8.0059   -6.5670 C   0  0  0  0  0  0  0  0  0  0  0  0
   16.8789   -9.3122   -6.3292 C   0  0  0  0  0  0  0  0  0  0  0  0
   16.4594  -10.3543   -7.2915 C   0  0  0  0  0  0  0  0  0  0  0  0
   16.9548  -11.6207   -7.1965 N   0  0  0  0  0  0  0  0  0  0  0  0
   16.6231  -12.6164   -8.0308 C   0  0  0  0  0  0  0  0  0  0  0  0
   17.2087  -13.9399   -7.8592 C   0  0  0  0  0  0  0  0  0  0  0  0
   17.0402  -14.6571   -6.6961 C   0  0  0  0  0  0  0  0  0  0  0  0
   17.6124  -15.9295   -6.5582 C   0  0  0  0  0  0  0  0  0  0  0  0
   17.9449  -14.4849   -8.8842 C   0  0  0  0  0  0  0  0  0  0  0  0
   18.5082  -15.7530   -8.7306 C   0  0  0  0  0  0  0  0  0  0  0  0
   18.3524  -16.4767   -7.5890 C   0  0  0  0  0  0  0  0  0  0  0  0
   18.9260  -17.8295   -7.3808 C   0  0  0  0  0  0  0  0  0  0  0  0
   18.0550  -18.7582   -6.7454 N   0  0  1  0  0  4  0  0  0  0  0  0
   17.1564  -19.4272   -7.6658 C   0  0  0  0  0  0  0  0  0  0  0  0
   17.8685  -20.5003   -8.4600 C   0  0  0  0  0  0  0  0  0  0  0  0
   18.8323  -19.6991   -5.9739 C   0  0  0  0  0  0  0  0  0  0  0  0
   18.3258  -21.1212   -6.1440 C   0  0  0  0  0  0  0  0  0  0  0  0
   18.5689  -21.5058   -7.5961 C   0  0  1  0  0  0  0  0  0  0  0  0
   18.1074  -22.8488   -7.8845 N   0  0  0  0  0  0  0  0  0  0  0  0
   18.9399  -23.8265   -8.4542 C   0  0  0  0  0  0  0  0  0  0  0  0
   20.1684  -23.5827   -8.5579 O   0  0  0  0  0  0  0  0  0  0  0  0
   18.4872  -25.0823   -8.9259 N   0  0  0  0  0  0  0  0  0  0  0  0
   19.2698  -26.2647   -8.9055 C   0  0  0  0  0  0  0  0  0  0  0  0
   20.6065  -26.3228   -8.5894 C   0  0  0  0  0  0  0  0  0  0  0  0
   18.6511  -27.4539   -9.2280 C   0  0  0  0  0  0  0  0  0  0  0  0
   19.3516  -28.6591   -9.2324 C   0  0  0  0  0  0  0  0  0  0  0  0
   20.6842  -28.6612   -8.9093 C   0  0  0  0  0  0  0  0  0  0  0  0
   21.5269  -30.2059   -8.9289 Cl  0  0  0  0  0  0  0  0  0  0  0  0
   21.3323  -27.4868   -8.5819 C   0  0  0  0  0  0  0  0  0  0  0  0
   22.7138  -27.5679   -8.2556 N   0  0  0  0  0  0  0  0  0  0  0  0
   23.7443  -27.1341   -9.1296 C   0  0  0  0  0  0  0  0  0  0  0  0
   24.6840  -27.9732   -9.3499 O   0  0  0  0  0  0  0  0  0  0  0  0
   23.7576  -25.7897   -9.7660 C   0  0  0  0  0  0  0  0  0  0  0  0
   24.9182  -25.6094  -10.6916 C   0  0  0  0  0  0  0  0  0  0  0  0
  1  2  2  0
  1  6  1  0
  2  3  1  0
  3  4  2  0
  4  5  1  0
  5  6  2  0
  6  7  1  0
  7  8  2  0
  7 17  1  0
  8  9  1  0
  9 10  1  0
  9 15  2  0
 10 11  2  0
 10 12  1  0
 12 13  2  0
 13 14  1  0
 14 15  1  0
 15 16  1  0
 16 17  2  0
 17 18  1  0
 18 19  2  0
 18 21  1  0
 19 20  1  0
 20 23  2  0
 21 22  2  0
 22 23  1  0
 23 24  1  0
 25 24  1  6
 25 26  1  0
 25 28  1  0
 26 27  1  0
 27 30  1  0
 28 29  1  0
 29 30  1  0
 30 31  1  1
 31 32  1  0
 32 33  2  0
 32 34  1  0
 34 35  1  0
 35 36  2  0
 35 37  1  0
 36 41  1  0
 37 38  2  0
 38 39  1  0
 39 40  1  0
 39 41  2  0
 41 42  1  0
 42 43  1  0
 43 44  2  0
 43 45  1  0
 45 46  1  0
M  CHG  1  25   1
M  END
$$$$
