
     RDKit          3D

 46 51  0  0  0  0  0  0  0  0999 V2000
   12.9604  -11.0358  -10.1721 C   0  0  0  0  0  0  0  0  0  0  0  0
   12.3749  -11.4031  -11.3813 C   0  0  0  0  0  0  0  0  0  0  0  0
   13.1309  -11.9473  -12.3975 C   0  0  0  0  0  0  0  0  0  0  0  0
   14.4859  -12.1127  -12.1682 C   0  0  0  0  0  0  0  0  0  0  0  0
   15.0539  -11.7436  -10.9626 C   0  0  0  0  0  0  0  0  0  0  0  0
   14.3085  -11.1988   -9.9401 C   0  0  0  0  0  0  0  0  0  0  0  0
   14.9559  -10.8263   -8.6912 C   0  0  0  0  0  0  0  0  0  0  0  0
   14.8993   -9.5692   -8.1376 C   0  0  0  0  0  0  0  0  0  0  0  0
   15.5425   -9.2812   -6.9340 C   0  0  0  0  0  0  0  0  0  0  0  0
   15.4982   -7.9683   -6.3358 C   0  0  0  0  0  0  0  0  0  0  0  0
   14.8427   -7.0794   -6.9556 O   0  0  0  0  0  0  0  0  0  0  0  0
   16.1630   -7.7219   -5.1207 N   0  0  0  0  0  0  0  0  0  0  0  0
   16.8188   -8.6310   -4.5109 C   0  0  0  0  0  0  0  0  0  0  0  0
   16.9530  -10.0074   -4.9947 C   0  0  0  0  0  0  0  0  0  0  0  0
   16.2524  -10.2605   -6.2726 C   0  0  0  0  0  0  0  0  0  0  0  0
   16.2896  -11.4964   -6.8468 N   0  0  0  0  0  0  0  0  0  0  0  0
   15.6813  -11.8011   -8.0020 C   0  0  0  0  0  0  0  0  0  0  0  0
   15.7809  -13.1489   -8.5474 C   0  0  0  0  0  0  0  0  0  0  0  0
   14.7396  -14.0444   -8.4502 C   0  0  0  0  0  0  0  0  0  0  0  0
   14.8609  -15.3342   -8.9860 C   0  0  0  0  0  0  0  0  0  0  0  0
   16.9417  -13.5336   -9.1753 C   0  0  0  0  0  0  0  0  0  0  0  0
   17.0464  -14.8218   -9.7031 C   0  0  0  0  0  0  0  0  0  0  0  0
   16.0282  -15.7202   -9.6169 C   0  0  0  0  0  0  0  0  0  0  0  0
   16.0894  -17.0973  -10.1669 C   0  0  0  0  0  0  0  0  0  0  0  0
   16.3285  -18.1169   -9.2036 N   0  0  1  0  0  4  0  0  0  0  0  0
   15.1389  -18.8678   -8.8525 C   0  0  0  0  0  0  0  0  0  0  0  0
   14.7618  -19.8542   -9.9361 C   0  0  0  0  0  0  0  0  0  0  0  0
   17.3908  -18.9785   -9.6660 C   0  0  0  0  0  0  0  0  0  0  0  0
   17.0740  -20.4440   -9.4218 C   0  0  0  0  0  0  0  0  0  0  0  0
   15.8774  -20.7888  -10.2965 C   0  0  1  0  0  0  0  0  0  0  0  0
   15.4698  -22.1700  -10.1353 N   0  0  0  0  0  0  0  0  0  0  0  0
   16.2435  -23.2445  -10.6044 C   0  0  0  0  0  0  0  0  0  0  0  0
   16.8255  -23.1268  -11.7121 O   0  0  0  0  0  0  0  0  0  0  0  0
   16.4161  -24.4659   -9.9093 N   0  0  0  0  0  0  0  0  0  0  0  0
   16.4837  -25.7336  -10.5409 C   0  0  0  0  0  0  0  0  0  0  0  0
   16.2552  -25.9647  -11.8767 C   0  0  0  0  0  0  0  0  0  0  0  0
   16.8012  -26.8265   -9.7625 C   0  0  0  0  0  0  0  0  0  0  0  0
   16.8861  -28.1066  -10.3079 C   0  0  0  0  0  0  0  0  0  0  0  0
   16.6485  -28.2819  -11.6469 C   0  0  0  0  0  0  0  0  0  0  0  0
   16.7667  -29.9155  -12.2902 Cl  0  0  0  0  0  0  0  0  0  0  0  0
   16.3282  -27.2075  -12.4529 C   0  0  0  0  0  0  0  0  0  0  0  0
   16.0980  -27.4665  -13.8318 N   0  0  0  0  0  0  0  0  0  0  0  0
   16.7590  -26.7657  -14.8739 C   0  0  0  0  0  0  0  0  0  0  0  0
   17.3733  -25.6977  -14.5307 O   0  0  0  0  0  0  0  0  0  0  0  0
   16.7550  -27.2217  -16.2897 C   0  0  0  0  0  0  0  0  0  0  0  0
   15.8815  -26.3741  -17.1584 C   0  0  0  0  0  0  0  0  0  0  0  0
  1  2  2  0
  1  6  1  0
  2  3  1  0
  3  4  2  0
  4  5  1  0
  5  6  2  0
  6  7  1  0
  7  8  2  0
  7 17  1  0
  8  9  1  0
  9 10  1  0
  9 15  2  0
 10 11  2  0
 10 12  1  0
 12 13  2  0
 13 14  1  0
 14 15  1  0
 15 16  1  0
 16 17  2  0
 17 18  1  0
 18 19  2  0
 18 21  1  0
 19 20  1  0
 20 23  2  0
 21 22  2  0
 22 23  1  0
 23 24  1  0
 25 24  1  6
 25 26  1  0
 25 28  1  0
 26 27  1  0
 27 30  1  0
 28 29  1  0
 29 30  1  0
 30 31  1  1
 31 32  1  0
 32 33  2  0
 32 34  1  0
 34 35  1  0
 35 36  2  0
 35 37  1  0
 36 41  1  0
 37 38  2  0
 38 39  1  0
 39 40  1  0
 39 41  2  0
 41 42  1  0
 42 43  1  0
 43 44  2  0
 43 45  1  0
 45 46  1  0
M  CHG  1  25   1
M  END
$$$$
