
     RDKit          3D

 46 51  0  0  0  0  0  0  0  0999 V2000
   14.6373  -11.4156  -10.1237 C   0  0  0  0  0  0  0  0  0  0  0  0
   14.4082  -10.9189  -11.4046 C   0  0  0  0  0  0  0  0  0  0  0  0
   15.2925  -10.0390  -11.9913 C   0  0  0  0  0  0  0  0  0  0  0  0
   16.4095   -9.6725  -11.2605 C   0  0  0  0  0  0  0  0  0  0  0  0
   16.6243  -10.1738   -9.9897 C   0  0  0  0  0  0  0  0  0  0  0  0
   15.7477  -11.0533   -9.3932 C   0  0  0  0  0  0  0  0  0  0  0  0
   16.0203  -11.5501   -8.0529 C   0  0  0  0  0  0  0  0  0  0  0  0
   16.3564  -10.7499   -6.9868 C   0  0  0  0  0  0  0  0  0  0  0  0
   16.6026  -11.2934   -5.7261 C   0  0  0  0  0  0  0  0  0  0  0  0
   16.9589  -10.4725   -4.5934 C   0  0  0  0  0  0  0  0  0  0  0  0
   17.0382   -9.2246   -4.7941 O   0  0  0  0  0  0  0  0  0  0  0  0
   17.2000  -11.0634   -3.3397 N   0  0  0  0  0  0  0  0  0  0  0  0
   17.1151  -12.3236   -3.1572 C   0  0  0  0  0  0  0  0  0  0  0  0
   16.7644  -13.2810   -4.2093 C   0  0  0  0  0  0  0  0  0  0  0  0
   16.5124  -12.6542   -5.5252 C   0  0  0  0  0  0  0  0  0  0  0  0
   16.1772  -13.4206   -6.6016 N   0  0  0  0  0  0  0  0  0  0  0  0
   15.9354  -12.9256   -7.8238 C   0  0  0  0  0  0  0  0  0  0  0  0
   15.5905  -13.8214   -8.9204 C   0  0  0  0  0  0  0  0  0  0  0  0
   16.3920  -13.9396  -10.0336 C   0  0  0  0  0  0  0  0  0  0  0  0
   16.0380  -14.8110  -11.0733 C   0  0  0  0  0  0  0  0  0  0  0  0
   14.4385  -14.5671   -8.8395 C   0  0  0  0  0  0  0  0  0  0  0  0
   14.1003  -15.4299   -9.8836 C   0  0  0  0  0  0  0  0  0  0  0  0
   14.8797  -15.5602  -10.9912 C   0  0  0  0  0  0  0  0  0  0  0  0
   14.5659  -16.4671  -12.1232 C   0  0  0  0  0  0  0  0  0  0  0  0
   15.6979  -16.9354  -12.8472 N   0  0  1  0  0  4  0  0  0  0  0  0
   16.5540  -17.8128  -12.0730 C   0  0  0  0  0  0  0  0  0  0  0  0
   15.9566  -19.1961  -11.9354 C   0  0  0  0  0  0  0  0  0  0  0  0
   15.2622  -17.5565  -14.0757 C   0  0  0  0  0  0  0  0  0  0  0  0
   16.0130  -18.8481  -14.3508 C   0  0  0  0  0  0  0  0  0  0  0  0
   15.6231  -19.8278  -13.2535 C   0  0  1  0  0  0  0  0  0  0  0  0
   16.2953  -21.1027  -13.4029 N   0  0  0  0  0  0  0  0  0  0  0  0
   16.2606  -22.0949  -12.4089 C   0  0  0  0  0  0  0  0  0  0  0  0
   15.2886  -22.1131  -11.6125 O   0  0  0  0  0  0  0  0  0  0  0  0
   17.2554  -23.0878  -12.2386 N   0  0  0  0  0  0  0  0  0  0  0  0
   17.0757  -24.2649  -11.4685 C   0  0  0  0  0  0  0  0  0  0  0  0
   16.0084  -24.5108  -10.6377 C   0  0  0  0  0  0  0  0  0  0  0  0
   18.0424  -25.2445  -11.5515 C   0  0  0  0  0  0  0  0  0  0  0  0
   17.9396  -26.4297  -10.8249 C   0  0  0  0  0  0  0  0  0  0  0  0
   16.8539  -26.6246  -10.0104 C   0  0  0  0  0  0  0  0  0  0  0  0
   16.7675  -28.1355   -9.1124 Cl  0  0  0  0  0  0  0  0  0  0  0  0
   15.8691  -25.6625   -9.9056 C   0  0  0  0  0  0  0  0  0  0  0  0
   14.7723  -25.9365   -9.0433 N   0  0  0  0  0  0  0  0  0  0  0  0
   14.8182  -25.7306   -7.6399 C   0  0  0  0  0  0  0  0  0  0  0  0
   15.9129  -25.2581   -7.1773 O   0  0  0  0  0  0  0  0  0  0  0  0
   13.6773  -26.0366   -6.7360 C   0  0  0  0  0  0  0  0  0  0  0  0
   14.1267  -26.4322   -5.3657 C   0  0  0  0  0  0  0  0  0  0  0  0
  1  2  2  0
  1  6  1  0
  2  3  1  0
  3  4  2  0
  4  5  1  0
  5  6  2  0
  6  7  1  0
  7  8  2  0
  7 17  1  0
  8  9  1  0
  9 10  1  0
  9 15  2  0
 10 11  2  0
 10 12  1  0
 12 13  2  0
 13 14  1  0
 14 15  1  0
 15 16  1  0
 16 17  2  0
 17 18  1  0
 18 19  2  0
 18 21  1  0
 19 20  1  0
 20 23  2  0
 21 22  2  0
 22 23  1  0
 23 24  1  0
 25 24  1  1
 25 26  1  0
 25 28  1  0
 26 27  1  0
 27 30  1  0
 28 29  1  0
 29 30  1  0
 30 31  1  6
 31 32  1  0
 32 33  2  0
 32 34  1  0
 34 35  1  0
 35 36  2  0
 35 37  1  0
 36 41  1  0
 37 38  2  0
 38 39  1  0
 39 40  1  0
 39 41  2  0
 41 42  1  0
 42 43  1  0
 43 44  2  0
 43 45  1  0
 45 46  1  0
M  CHG  1  25   1
M  END
$$$$
