
     RDKit          3D

 46 51  0  0  0  0  0  0  0  0999 V2000
   15.5217  -13.3594  -11.1661 C   0  0  0  0  0  0  0  0  0  0  0  0
   15.0661  -13.9167  -12.3585 C   0  0  0  0  0  0  0  0  0  0  0  0
   13.8151  -13.6110  -12.8503 C   0  0  0  0  0  0  0  0  0  0  0  0
   13.0362  -12.7335  -12.1158 C   0  0  0  0  0  0  0  0  0  0  0  0
   13.5016  -12.1876  -10.9335 C   0  0  0  0  0  0  0  0  0  0  0  0
   14.7496  -12.4858  -10.4323 C   0  0  0  0  0  0  0  0  0  0  0  0
   15.1906  -11.8847   -9.1826 C   0  0  0  0  0  0  0  0  0  0  0  0
   15.0959  -10.5436   -8.8956 C   0  0  0  0  0  0  0  0  0  0  0  0
   15.5367  -10.0341   -7.6743 C   0  0  0  0  0  0  0  0  0  0  0  0
   15.4488   -8.6297   -7.3527 C   0  0  0  0  0  0  0  0  0  0  0  0
   14.9482   -7.8713   -8.2348 O   0  0  0  0  0  0  0  0  0  0  0  0
   15.9072   -8.1590   -6.1087 N   0  0  0  0  0  0  0  0  0  0  0  0
   16.4090   -8.9392   -5.2324 C   0  0  0  0  0  0  0  0  0  0  0  0
   16.5630  -10.3846   -5.4157 C   0  0  0  0  0  0  0  0  0  0  0  0
   16.0798  -10.8737   -6.7254 C   0  0  0  0  0  0  0  0  0  0  0  0
   16.1599  -12.1978   -7.0397 N   0  0  0  0  0  0  0  0  0  0  0  0
   15.7445  -12.7147   -8.2049 C   0  0  0  0  0  0  0  0  0  0  0  0
   15.8762  -14.1436   -8.4592 C   0  0  0  0  0  0  0  0  0  0  0  0
   17.1097  -14.7481   -8.5533 C   0  0  0  0  0  0  0  0  0  0  0  0
   17.2079  -16.1254   -8.7961 C   0  0  0  0  0  0  0  0  0  0  0  0
   14.7414  -14.9054   -8.6065 C   0  0  0  0  0  0  0  0  0  0  0  0
   14.8567  -16.2755   -8.8482 C   0  0  0  0  0  0  0  0  0  0  0  0
   16.0667  -16.8905   -8.9442 C   0  0  0  0  0  0  0  0  0  0  0  0
   16.2404  -18.3430   -9.1938 C   0  0  0  0  0  0  0  0  0  0  0  0
   17.3587  -18.9334   -8.5414 N   0  0  1  0  0  4  0  0  0  0  0  0
   16.9983  -19.7130   -7.3733 C   0  0  0  0  0  0  0  0  0  0  0  0
   16.4018  -21.0496   -7.7569 C   0  0  0  0  0  0  0  0  0  0  0  0
   18.1179  -19.7103   -9.4926 C   0  0  0  0  0  0  0  0  0  0  0  0
   18.5528  -21.0444   -8.9107 C   0  0  0  0  0  0  0  0  0  0  0  0
   17.2870  -21.8518   -8.6628 C   0  0  1  0  0  0  0  0  0  0  0  0
   17.5774  -23.1500   -8.0882 N   0  0  0  0  0  0  0  0  0  0  0  0
   18.8273  -23.7753   -8.2301 C   0  0  0  0  0  0  0  0  0  0  0  0
   19.5168  -23.5149   -9.2482 O   0  0  0  0  0  0  0  0  0  0  0  0
   19.3720  -24.6894   -7.2962 N   0  0  0  0  0  0  0  0  0  0  0  0
   19.6727  -26.0424   -7.5955 C   0  0  0  0  0  0  0  0  0  0  0  0
   20.0697  -26.5107   -8.8256 C   0  0  0  0  0  0  0  0  0  0  0  0
   19.5594  -26.9687   -6.5805 C   0  0  0  0  0  0  0  0  0  0  0  0
   19.8357  -28.3181   -6.7945 C   0  0  0  0  0  0  0  0  0  0  0  0
   20.2282  -28.7325   -8.0413 C   0  0  0  0  0  0  0  0  0  0  0  0
   20.5655  -30.4451   -8.2641 Cl  0  0  0  0  0  0  0  0  0  0  0  0
   20.3508  -27.8293   -9.0785 C   0  0  0  0  0  0  0  0  0  0  0  0
   20.7649  -28.3326  -10.3421 N   0  0  0  0  0  0  0  0  0  0  0  0
   19.9164  -28.3683  -11.4791 C   0  0  0  0  0  0  0  0  0  0  0  0
   18.6702  -28.1875  -11.2556 O   0  0  0  0  0  0  0  0  0  0  0  0
   20.4177  -28.6003  -12.8602 C   0  0  0  0  0  0  0  0  0  0  0  0
   19.3199  -28.5804  -13.8753 C   0  0  0  0  0  0  0  0  0  0  0  0
  1  2  2  0
  1  6  1  0
  2  3  1  0
  3  4  2  0
  4  5  1  0
  5  6  2  0
  6  7  1  0
  7  8  2  0
  7 17  1  0
  8  9  1  0
  9 10  1  0
  9 15  2  0
 10 11  2  0
 10 12  1  0
 12 13  2  0
 13 14  1  0
 14 15  1  0
 15 16  1  0
 16 17  2  0
 17 18  1  0
 18 19  2  0
 18 21  1  0
 19 20  1  0
 20 23  2  0
 21 22  2  0
 22 23  1  0
 23 24  1  0
 25 24  1  6
 25 26  1  0
 25 28  1  0
 26 27  1  0
 27 30  1  0
 28 29  1  0
 29 30  1  0
 30 31  1  1
 31 32  1  0
 32 33  2  0
 32 34  1  0
 34 35  1  0
 35 36  2  0
 35 37  1  0
 36 41  1  0
 37 38  2  0
 38 39  1  0
 39 40  1  0
 39 41  2  0
 41 42  1  0
 42 43  1  0
 43 44  2  0
 43 45  1  0
 45 46  1  0
M  CHG  1  25   1
M  END
$$$$
