
     RDKit          3D

 46 51  0  0  0  0  0  0  0  0999 V2000
   17.5732  -17.9923  -10.8309 C   0  0  0  0  0  0  0  0  0  0  0  0
   17.2861  -18.6967  -11.9977 C   0  0  0  0  0  0  0  0  0  0  0  0
   15.9878  -18.8346  -12.4401 C   0  0  0  0  0  0  0  0  0  0  0  0
   14.9886  -18.2482  -11.6826 C   0  0  0  0  0  0  0  0  0  0  0  0
   15.2882  -17.5516  -10.5262 C   0  0  0  0  0  0  0  0  0  0  0  0
   16.5816  -17.4074  -10.0744 C   0  0  0  0  0  0  0  0  0  0  0  0
   16.8424  -16.6653   -8.8501 C   0  0  0  0  0  0  0  0  0  0  0  0
   17.5344  -17.1694   -7.7746 C   0  0  0  0  0  0  0  0  0  0  0  0
   17.7506  -16.4007   -6.6311 C   0  0  0  0  0  0  0  0  0  0  0  0
   18.4724  -16.9102   -5.4896 C   0  0  0  0  0  0  0  0  0  0  0  0
   18.9071  -18.0970   -5.5712 O   0  0  0  0  0  0  0  0  0  0  0  0
   18.6661  -16.1000   -4.3560 N   0  0  0  0  0  0  0  0  0  0  0  0
   18.2201  -14.9060   -4.2926 C   0  0  0  0  0  0  0  0  0  0  0  0
   17.4708  -14.2540   -5.3696 C   0  0  0  0  0  0  0  0  0  0  0  0
   17.2700  -15.1106   -6.5587 C   0  0  0  0  0  0  0  0  0  0  0  0
   16.5881  -14.6396   -7.6411 N   0  0  0  0  0  0  0  0  0  0  0  0
   16.3655  -15.3558   -8.7524 C   0  0  0  0  0  0  0  0  0  0  0  0
   15.6185  -14.7736   -9.8600 C   0  0  0  0  0  0  0  0  0  0  0  0
   14.2919  -14.4280   -9.7318 C   0  0  0  0  0  0  0  0  0  0  0  0
   13.5974  -13.8671  -10.8127 C   0  0  0  0  0  0  0  0  0  0  0  0
   16.2549  -14.5631  -11.0602 C   0  0  0  0  0  0  0  0  0  0  0  0
   15.5488  -14.0039  -12.1268 C   0  0  0  0  0  0  0  0  0  0  0  0
   14.2378  -13.6558  -12.0189 C   0  0  0  0  0  0  0  0  0  0  0  0
   13.4470  -13.0536  -13.1209 C   0  0  0  0  0  0  0  0  0  0  0  0
   12.0548  -13.3460  -13.0884 N   0  0  1  0  0  4  0  0  0  0  0  0
   11.2475  -12.3850  -13.8143 C   0  0  0  0  0  0  0  0  0  0  0  0
   11.3475  -12.5891  -15.3102 C   0  0  0  0  0  0  0  0  0  0  0  0
   11.8336  -14.6945  -13.5545 C   0  0  0  0  0  0  0  0  0  0  0  0
   10.6413  -14.7779  -14.4922 C   0  0  0  0  0  0  0  0  0  0  0  0
   11.0037  -13.9840  -15.7389 C   0  0  1  0  0  0  0  0  0  0  0  0
    9.9268  -13.9784  -16.7084 N   0  0  0  0  0  0  0  0  0  0  0  0
    8.8550  -14.8847  -16.6507 C   0  0  0  0  0  0  0  0  0  0  0  0
    8.9921  -15.9344  -15.9733 O   0  0  0  0  0  0  0  0  0  0  0  0
    7.6161  -14.6972  -17.3100 N   0  0  0  0  0  0  0  0  0  0  0  0
    6.8298  -15.7547  -17.8336 C   0  0  0  0  0  0  0  0  0  0  0  0
    7.2568  -17.0511  -17.9977 C   0  0  0  0  0  0  0  0  0  0  0  0
    5.5349  -15.4700  -18.2121 C   0  0  0  0  0  0  0  0  0  0  0  0
    4.6987  -16.4541  -18.7369 C   0  0  0  0  0  0  0  0  0  0  0  0
    5.1748  -17.7321  -18.8798 C   0  0  0  0  0  0  0  0  0  0  0  0
    4.0833  -18.9403  -19.5471 Cl  0  0  0  0  0  0  0  0  0  0  0  0
    6.4669  -18.0487  -18.5102 C   0  0  0  0  0  0  0  0  0  0  0  0
    6.8889  -19.3951  -18.6853 N   0  0  0  0  0  0  0  0  0  0  0  0
    8.0863  -19.7517  -19.3583 C   0  0  0  0  0  0  0  0  0  0  0  0
    8.7355  -18.7903  -19.8968 O   0  0  0  0  0  0  0  0  0  0  0  0
    8.5818  -21.1513  -19.4485 C   0  0  0  0  0  0  0  0  0  0  0  0
    8.4503  -21.7141  -20.8277 C   0  0  0  0  0  0  0  0  0  0  0  0
  1  2  2  0
  1  6  1  0
  2  3  1  0
  3  4  2  0
  4  5  1  0
  5  6  2  0
  6  7  1  0
  7  8  2  0
  7 17  1  0
  8  9  1  0
  9 10  1  0
  9 15  2  0
 10 11  2  0
 10 12  1  0
 12 13  2  0
 13 14  1  0
 14 15  1  0
 15 16  1  0
 16 17  2  0
 17 18  1  0
 18 19  2  0
 18 21  1  0
 19 20  1  0
 20 23  2  0
 21 22  2  0
 22 23  1  0
 23 24  1  0
 25 24  1  6
 25 26  1  0
 25 28  1  0
 26 27  1  0
 27 30  1  0
 28 29  1  0
 29 30  1  0
 30 31  1  6
 31 32  1  0
 32 33  2  0
 32 34  1  0
 34 35  1  0
 35 36  2  0
 35 37  1  0
 36 41  1  0
 37 38  2  0
 38 39  1  0
 39 40  1  0
 39 41  2  0
 41 42  1  0
 42 43  1  0
 43 44  2  0
 43 45  1  0
 45 46  1  0
M  CHG  1  25   1
M  END
$$$$
