
     RDKit          3D

 46 51  0  0  0  0  0  0  0  0999 V2000
   16.8080  -14.0175   -5.6478 C   0  0  0  0  0  0  0  0  0  0  0  0
   16.9760  -14.3435   -4.3041 C   0  0  0  0  0  0  0  0  0  0  0  0
   16.9561  -13.3673   -3.3309 C   0  0  0  0  0  0  0  0  0  0  0  0
   16.7634  -12.0594   -3.7411 C   0  0  0  0  0  0  0  0  0  0  0  0
   16.5978  -11.7502   -5.0788 C   0  0  0  0  0  0  0  0  0  0  0  0
   16.6160  -12.7171   -6.0599 C   0  0  0  0  0  0  0  0  0  0  0  0
   16.4380  -12.3378   -7.4535 C   0  0  0  0  0  0  0  0  0  0  0  0
   15.7981  -11.1932   -7.8661 C   0  0  0  0  0  0  0  0  0  0  0  0
   15.6649  -10.8894   -9.2209 C   0  0  0  0  0  0  0  0  0  0  0  0
   14.9954   -9.6946   -9.6766 C   0  0  0  0  0  0  0  0  0  0  0  0
   14.5300   -8.9246   -8.7853 O   0  0  0  0  0  0  0  0  0  0  0  0
   14.8828   -9.4284  -11.0535 N   0  0  0  0  0  0  0  0  0  0  0  0
   15.3584  -10.2169  -11.9369 C   0  0  0  0  0  0  0  0  0  0  0  0
   16.0619  -11.4642  -11.6271 C   0  0  0  0  0  0  0  0  0  0  0  0
   16.1770  -11.7390  -10.1782 C   0  0  0  0  0  0  0  0  0  0  0  0
   16.8057  -12.8654   -9.7374 N   0  0  0  0  0  0  0  0  0  0  0  0
   16.9480  -13.1824   -8.4425 C   0  0  0  0  0  0  0  0  0  0  0  0
   17.6288  -14.4134   -8.0617 C   0  0  0  0  0  0  0  0  0  0  0  0
   17.1800  -15.6450   -8.4829 C   0  0  0  0  0  0  0  0  0  0  0  0
   17.8554  -16.8137   -8.1040 C   0  0  0  0  0  0  0  0  0  0  0  0
   18.7466  -14.3419   -7.2647 C   0  0  0  0  0  0  0  0  0  0  0  0
   19.4073  -15.5152   -6.8961 C   0  0  0  0  0  0  0  0  0  0  0  0
   18.9790  -16.7410   -7.3027 C   0  0  0  0  0  0  0  0  0  0  0  0
   19.6500  -18.0147   -6.9426 C   0  0  0  0  0  0  0  0  0  0  0  0
   19.3333  -19.1175   -7.7841 N   0  0  1  0  0  4  0  0  0  0  0  0
   20.4998  -19.8500   -8.2370 C   0  0  0  0  0  0  0  0  0  0  0  0
   21.0648  -20.7303   -7.1437 C   0  0  0  0  0  0  0  0  0  0  0  0
   18.3846  -19.9773   -7.1168 C   0  0  0  0  0  0  0  0  0  0  0  0
   18.7354  -21.4451   -7.2905 C   0  0  0  0  0  0  0  0  0  0  0  0
   20.0532  -21.6731   -6.5643 C   0  0  1  0  0  0  0  0  0  0  0  0
   20.5010  -23.0467   -6.6749 N   0  0  0  0  0  0  0  0  0  0  0  0
   19.6101  -24.1329   -6.6755 C   0  0  0  0  0  0  0  0  0  0  0  0
   18.6039  -24.0845   -5.9241 O   0  0  0  0  0  0  0  0  0  0  0  0
   19.7676  -25.2926   -7.4723 N   0  0  0  0  0  0  0  0  0  0  0  0
   19.1648  -26.5422   -7.1795 C   0  0  0  0  0  0  0  0  0  0  0  0
   18.0749  -26.7219   -6.3611 C   0  0  0  0  0  0  0  0  0  0  0  0
   19.7080  -27.6715   -7.7546 C   0  0  0  0  0  0  0  0  0  0  0  0
   19.1742  -28.9368   -7.5154 C   0  0  0  0  0  0  0  0  0  0  0  0
   18.0860  -29.0604   -6.6904 C   0  0  0  0  0  0  0  0  0  0  0  0
   17.4473  -30.6772   -6.4176 Cl  0  0  0  0  0  0  0  0  0  0  0  0
   17.5193  -27.9486   -6.0993 C   0  0  0  0  0  0  0  0  0  0  0  0
   16.3915  -28.1547   -5.2585 N   0  0  0  0  0  0  0  0  0  0  0  0
   16.4967  -28.5918   -3.9124 C   0  0  0  0  0  0  0  0  0  0  0  0
   17.5550  -29.2457   -3.6155 O   0  0  0  0  0  0  0  0  0  0  0  0
   15.4546  -28.3207   -2.8862 C   0  0  0  0  0  0  0  0  0  0  0  0
   15.8476  -28.8157   -1.5310 C   0  0  0  0  0  0  0  0  0  0  0  0
  1  2  2  0
  1  6  1  0
  2  3  1  0
  3  4  2  0
  4  5  1  0
  5  6  2  0
  6  7  1  0
  7  8  2  0
  7 17  1  0
  8  9  1  0
  9 10  1  0
  9 15  2  0
 10 11  2  0
 10 12  1  0
 12 13  2  0
 13 14  1  0
 14 15  1  0
 15 16  1  0
 16 17  2  0
 17 18  1  0
 18 19  2  0
 18 21  1  0
 19 20  1  0
 20 23  2  0
 21 22  2  0
 22 23  1  0
 23 24  1  0
 25 24  1  1
 25 26  1  0
 25 28  1  0
 26 27  1  0
 27 30  1  0
 28 29  1  0
 29 30  1  0
 30 31  1  6
 31 32  1  0
 32 33  2  0
 32 34  1  0
 34 35  1  0
 35 36  2  0
 35 37  1  0
 36 41  1  0
 37 38  2  0
 38 39  1  0
 39 40  1  0
 39 41  2  0
 41 42  1  0
 42 43  1  0
 43 44  2  0
 43 45  1  0
 45 46  1  0
M  CHG  1  25   1
M  END
$$$$
