
     RDKit          3D

 46 51  0  0  0  0  0  0  0  0999 V2000
   16.7787  -12.7571   -4.1296 C   0  0  0  0  0  0  0  0  0  0  0  0
   17.0812  -13.9100   -3.4089 C   0  0  0  0  0  0  0  0  0  0  0  0
   16.5211  -15.1235   -3.7467 C   0  0  0  0  0  0  0  0  0  0  0  0
   15.6522  -15.1488   -4.8240 C   0  0  0  0  0  0  0  0  0  0  0  0
   15.3610  -13.9963   -5.5306 C   0  0  0  0  0  0  0  0  0  0  0  0
   15.9146  -12.7783   -5.2022 C   0  0  0  0  0  0  0  0  0  0  0  0
   15.5736  -11.5953   -5.9780 C   0  0  0  0  0  0  0  0  0  0  0  0
   15.0235  -10.4542   -5.4439 C   0  0  0  0  0  0  0  0  0  0  0  0
   14.7232   -9.3539   -6.2466 C   0  0  0  0  0  0  0  0  0  0  0  0
   14.1436   -8.1468   -5.7076 C   0  0  0  0  0  0  0  0  0  0  0  0
   13.9178   -8.1279   -4.4616 O   0  0  0  0  0  0  0  0  0  0  0  0
   13.8554   -7.0612   -6.5547 N   0  0  0  0  0  0  0  0  0  0  0  0
   14.0901   -7.0994   -7.8084 C   0  0  0  0  0  0  0  0  0  0  0  0
   14.6743   -8.2532   -8.4969 C   0  0  0  0  0  0  0  0  0  0  0  0
   14.9748   -9.3916   -7.6015 C   0  0  0  0  0  0  0  0  0  0  0  0
   15.5205  -10.5367   -8.1008 N   0  0  0  0  0  0  0  0  0  0  0  0
   15.8191  -11.6088   -7.3532 C   0  0  0  0  0  0  0  0  0  0  0  0
   16.3939  -12.7957   -7.9735 C   0  0  0  0  0  0  0  0  0  0  0  0
   15.7942  -13.4075   -9.0514 C   0  0  0  0  0  0  0  0  0  0  0  0
   16.3699  -14.5469   -9.6309 C   0  0  0  0  0  0  0  0  0  0  0  0
   17.5635  -13.3146   -7.4711 C   0  0  0  0  0  0  0  0  0  0  0  0
   18.1235  -14.4499   -8.0597 C   0  0  0  0  0  0  0  0  0  0  0  0
   17.5457  -15.0680   -9.1253 C   0  0  0  0  0  0  0  0  0  0  0  0
   18.1051  -16.2722   -9.7881 C   0  0  0  0  0  0  0  0  0  0  0  0
   17.1979  -17.3608   -9.9173 N   0  0  1  0  0  4  0  0  0  0  0  0
   17.4114  -18.1493  -11.1151 C   0  0  0  0  0  0  0  0  0  0  0  0
   18.6177  -19.0528  -10.9808 C   0  0  0  0  0  0  0  0  0  0  0  0
   17.2449  -18.1726   -8.7241 C   0  0  0  0  0  0  0  0  0  0  0  0
   17.2486  -19.6559   -9.0520 C   0  0  0  0  0  0  0  0  0  0  0  0
   18.5549  -19.9446   -9.7773 C   0  0  1  0  0  0  0  0  0  0  0  0
   18.6656  -21.3384  -10.1579 N   0  0  0  0  0  0  0  0  0  0  0  0
   17.6149  -22.2541   -9.9821 C   0  0  0  0  0  0  0  0  0  0  0  0
   17.2451  -22.5262   -8.8122 O   0  0  0  0  0  0  0  0  0  0  0  0
   16.9349  -22.9004  -11.0425 N   0  0  0  0  0  0  0  0  0  0  0  0
   16.7308  -24.3018  -11.1147 C   0  0  0  0  0  0  0  0  0  0  0  0
   16.6619  -25.0319  -12.2775 C   0  0  0  0  0  0  0  0  0  0  0  0
   16.5873  -24.9950   -9.9315 C   0  0  0  0  0  0  0  0  0  0  0  0
   16.3821  -26.3738   -9.9179 C   0  0  0  0  0  0  0  0  0  0  0  0
   16.3214  -27.0543  -11.1068 C   0  0  0  0  0  0  0  0  0  0  0  0
   16.0603  -28.7932  -11.0400 Cl  0  0  0  0  0  0  0  0  0  0  0  0
   16.4612  -26.3886  -12.3084 C   0  0  0  0  0  0  0  0  0  0  0  0
   16.3897  -27.1614  -13.4996 N   0  0  0  0  0  0  0  0  0  0  0  0
   15.4496  -26.9098  -14.5325 C   0  0  0  0  0  0  0  0  0  0  0  0
   14.6777  -25.9054  -14.3568 O   0  0  0  0  0  0  0  0  0  0  0  0
   15.3450  -27.7468  -15.7576 C   0  0  0  0  0  0  0  0  0  0  0  0
   15.6233  -26.9691  -17.0041 C   0  0  0  0  0  0  0  0  0  0  0  0
  1  2  2  0
  1  6  1  0
  2  3  1  0
  3  4  2  0
  4  5  1  0
  5  6  2  0
  6  7  1  0
  7  8  2  0
  7 17  1  0
  8  9  1  0
  9 10  1  0
  9 15  2  0
 10 11  2  0
 10 12  1  0
 12 13  2  0
 13 14  1  0
 14 15  1  0
 15 16  1  0
 16 17  2  0
 17 18  1  0
 18 19  2  0
 18 21  1  0
 19 20  1  0
 20 23  2  0
 21 22  2  0
 22 23  1  0
 23 24  1  0
 25 24  1  1
 25 26  1  0
 25 28  1  0
 26 27  1  0
 27 30  1  0
 28 29  1  0
 29 30  1  0
 30 31  1  6
 31 32  1  0
 32 33  2  0
 32 34  1  0
 34 35  1  0
 35 36  2  0
 35 37  1  0
 36 41  1  0
 37 38  2  0
 38 39  1  0
 39 40  1  0
 39 41  2  0
 41 42  1  0
 42 43  1  0
 43 44  2  0
 43 45  1  0
 45 46  1  0
M  CHG  1  25   1
M  END
$$$$
