
     RDKit          3D

 46 51  0  0  0  0  0  0  0  0999 V2000
   16.6464  -14.7561  -10.4724 C   0  0  0  0  0  0  0  0  0  0  0  0
   16.3913  -15.8885  -11.2421 C   0  0  0  0  0  0  0  0  0  0  0  0
   15.1677  -16.5211  -11.1870 C   0  0  0  0  0  0  0  0  0  0  0  0
   14.2099  -15.9880  -10.3417 C   0  0  0  0  0  0  0  0  0  0  0  0
   14.4770  -14.8628   -9.5834 C   0  0  0  0  0  0  0  0  0  0  0  0
   15.6959  -14.2226   -9.6301 C   0  0  0  0  0  0  0  0  0  0  0  0
   15.9256  -13.0423   -8.8104 C   0  0  0  0  0  0  0  0  0  0  0  0
   15.3043  -11.8321   -9.0087 C   0  0  0  0  0  0  0  0  0  0  0  0
   15.5700  -10.7406   -8.1820 C   0  0  0  0  0  0  0  0  0  0  0  0
   14.9310   -9.4605   -8.3731 C   0  0  0  0  0  0  0  0  0  0  0  0
   14.1091   -9.3692   -9.3323 O   0  0  0  0  0  0  0  0  0  0  0  0
   15.2300   -8.3859   -7.5158 N   0  0  0  0  0  0  0  0  0  0  0  0
   16.0615   -8.4975   -6.5543 C   0  0  0  0  0  0  0  0  0  0  0  0
   16.7860   -9.7310   -6.2379 C   0  0  0  0  0  0  0  0  0  0  0  0
   16.4680  -10.8572   -7.1426 C   0  0  0  0  0  0  0  0  0  0  0  0
   17.0673  -12.0696   -6.9719 N   0  0  0  0  0  0  0  0  0  0  0  0
   16.8312  -13.1350   -7.7508 C   0  0  0  0  0  0  0  0  0  0  0  0
   17.5244  -14.3922   -7.4997 C   0  0  0  0  0  0  0  0  0  0  0  0
   17.4514  -15.0239   -6.2785 C   0  0  0  0  0  0  0  0  0  0  0  0
   18.1261  -16.2341   -6.0645 C   0  0  0  0  0  0  0  0  0  0  0  0
   18.2666  -14.9610   -8.5074 C   0  0  0  0  0  0  0  0  0  0  0  0
   18.9325  -16.1663   -8.2778 C   0  0  0  0  0  0  0  0  0  0  0  0
   18.8720  -16.8052   -7.0779 C   0  0  0  0  0  0  0  0  0  0  0  0
   19.5567  -18.0895   -6.7876 C   0  0  0  0  0  0  0  0  0  0  0  0
   19.8054  -18.9064   -7.9259 N   0  0  1  0  0  4  0  0  0  0  0  0
   21.0765  -19.6016   -7.8691 C   0  0  0  0  0  0  0  0  0  0  0  0
   21.0259  -20.7802   -6.9216 C   0  0  0  0  0  0  0  0  0  0  0  0
   18.7022  -19.8183   -8.1160 C   0  0  0  0  0  0  0  0  0  0  0  0
   19.1816  -21.2183   -8.4594 C   0  0  0  0  0  0  0  0  0  0  0  0
   19.9216  -21.7437   -7.2379 C   0  0  1  0  0  0  0  0  0  0  0  0
   20.4433  -23.0781   -7.4542 N   0  0  0  0  0  0  0  0  0  0  0  0
   19.6129  -24.2079   -7.5408 C   0  0  0  0  0  0  0  0  0  0  0  0
   18.3940  -24.0798   -7.2627 O   0  0  0  0  0  0  0  0  0  0  0  0
   20.0574  -25.4965   -7.9236 N   0  0  0  0  0  0  0  0  0  0  0  0
   19.2816  -26.6753   -7.7849 C   0  0  0  0  0  0  0  0  0  0  0  0
   18.0230  -26.7333   -7.2350 C   0  0  0  0  0  0  0  0  0  0  0  0
   19.8241  -27.8614   -8.2320 C   0  0  0  0  0  0  0  0  0  0  0  0
   19.1256  -29.0635   -8.1300 C   0  0  0  0  0  0  0  0  0  0  0  0
   17.8727  -29.0657   -7.5729 C   0  0  0  0  0  0  0  0  0  0  0  0
   17.0297  -30.6065   -7.4648 Cl  0  0  0  0  0  0  0  0  0  0  0  0
   17.3022  -27.8944   -7.1157 C   0  0  0  0  0  0  0  0  0  0  0  0
   15.9990  -27.9746   -6.5528 N   0  0  0  0  0  0  0  0  0  0  0  0
   15.7541  -27.9418   -5.1553 C   0  0  0  0  0  0  0  0  0  0  0  0
   16.7866  -27.9970   -4.4028 O   0  0  0  0  0  0  0  0  0  0  0  0
   14.3890  -27.8491   -4.5716 C   0  0  0  0  0  0  0  0  0  0  0  0
   14.3078  -28.4671   -3.2123 C   0  0  0  0  0  0  0  0  0  0  0  0
  1  2  2  0
  1  6  1  0
  2  3  1  0
  3  4  2  0
  4  5  1  0
  5  6  2  0
  6  7  1  0
  7  8  2  0
  7 17  1  0
  8  9  1  0
  9 10  1  0
  9 15  2  0
 10 11  2  0
 10 12  1  0
 12 13  2  0
 13 14  1  0
 14 15  1  0
 15 16  1  0
 16 17  2  0
 17 18  1  0
 18 19  2  0
 18 21  1  0
 19 20  1  0
 20 23  2  0
 21 22  2  0
 22 23  1  0
 23 24  1  0
 25 24  1  1
 25 26  1  0
 25 28  1  0
 26 27  1  0
 27 30  1  0
 28 29  1  0
 29 30  1  0
 30 31  1  6
 31 32  1  0
 32 33  2  0
 32 34  1  0
 34 35  1  0
 35 36  2  0
 35 37  1  0
 36 41  1  0
 37 38  2  0
 38 39  1  0
 39 40  1  0
 39 41  2  0
 41 42  1  0
 42 43  1  0
 43 44  2  0
 43 45  1  0
 45 46  1  0
M  CHG  1  25   1
M  END
$$$$
