
     RDKit          3D

 46 51  0  0  0  0  0  0  0  0999 V2000
   16.3451  -12.2632   -9.4762 C   0  0  0  0  0  0  0  0  0  0  0  0
   15.9764  -10.9373   -9.6906 C   0  0  0  0  0  0  0  0  0  0  0  0
   15.1448  -10.2821   -8.8076 C   0  0  0  0  0  0  0  0  0  0  0  0
   14.6949  -10.9911   -7.7071 C   0  0  0  0  0  0  0  0  0  0  0  0
   15.0693  -12.3071   -7.5068 C   0  0  0  0  0  0  0  0  0  0  0  0
   15.8995  -12.9720   -8.3823 C   0  0  0  0  0  0  0  0  0  0  0  0
   16.2620  -14.3577   -8.1254 C   0  0  0  0  0  0  0  0  0  0  0  0
   16.9787  -14.7776   -7.0300 C   0  0  0  0  0  0  0  0  0  0  0  0
   17.2899  -16.1245   -6.8443 C   0  0  0  0  0  0  0  0  0  0  0  0
   18.0428  -16.5874   -5.7031 C   0  0  0  0  0  0  0  0  0  0  0  0
   18.4119  -15.7100   -4.8676 O   0  0  0  0  0  0  0  0  0  0  0  0
   18.3354  -17.9556   -5.5565 N   0  0  0  0  0  0  0  0  0  0  0  0
   17.9546  -18.8249   -6.4096 C   0  0  0  0  0  0  0  0  0  0  0  0
   17.1851  -18.5063   -7.6149 C   0  0  0  0  0  0  0  0  0  0  0  0
   16.8807  -17.0665   -7.7640 C   0  0  0  0  0  0  0  0  0  0  0  0
   16.1720  -16.6188   -8.8390 N   0  0  0  0  0  0  0  0  0  0  0  0
   15.8590  -15.3312   -9.0428 C   0  0  0  0  0  0  0  0  0  0  0  0
   15.1034  -14.9409  -10.2263 C   0  0  0  0  0  0  0  0  0  0  0  0
   13.9143  -14.2538  -10.1279 C   0  0  0  0  0  0  0  0  0  0  0  0
   13.2087  -13.8882  -11.2828 C   0  0  0  0  0  0  0  0  0  0  0  0
   15.5914  -15.2650  -11.4699 C   0  0  0  0  0  0  0  0  0  0  0  0
   14.8763  -14.8938  -12.6099 C   0  0  0  0  0  0  0  0  0  0  0  0
   13.6999  -14.2145  -12.5326 C   0  0  0  0  0  0  0  0  0  0  0  0
   12.9072  -13.7932  -13.7143 C   0  0  0  0  0  0  0  0  0  0  0  0
   12.5632  -14.8437  -14.6104 N   0  0  1  0  0  4  0  0  0  0  0  0
   11.4722  -15.6719  -14.1351 C   0  0  0  0  0  0  0  0  0  0  0  0
   10.1363  -14.9788  -14.2919 C   0  0  0  0  0  0  0  0  0  0  0  0
   12.2905  -14.2937  -15.9173 C   0  0  0  0  0  0  0  0  0  0  0  0
   11.0628  -14.9266  -16.5496 C   0  0  0  0  0  0  0  0  0  0  0  0
    9.8692  -14.5246  -15.6955 C   0  0  1  0  0  0  0  0  0  0  0  0
    8.6316  -15.0877  -16.1964 N   0  0  0  0  0  0  0  0  0  0  0  0
    8.6017  -16.0740  -17.1962 C   0  0  0  0  0  0  0  0  0  0  0  0
    9.1116  -15.8111  -18.3144 O   0  0  0  0  0  0  0  0  0  0  0  0
    8.0307  -17.3591  -17.0315 N   0  0  0  0  0  0  0  0  0  0  0  0
    7.3888  -18.0794  -18.0707 C   0  0  0  0  0  0  0  0  0  0  0  0
    7.9940  -18.5023  -19.2302 C   0  0  0  0  0  0  0  0  0  0  0  0
    6.0527  -18.3827  -17.9160 C   0  0  0  0  0  0  0  0  0  0  0  0
    5.3499  -19.0865  -18.8927 C   0  0  0  0  0  0  0  0  0  0  0  0
    6.0018  -19.4852  -20.0312 C   0  0  0  0  0  0  0  0  0  0  0  0
    5.0737  -20.3704  -21.2361 Cl  0  0  0  0  0  0  0  0  0  0  0  0
    7.3394  -19.1967  -20.2157 C   0  0  0  0  0  0  0  0  0  0  0  0
    7.9479  -19.6447  -21.4201 N   0  0  0  0  0  0  0  0  0  0  0  0
    8.3338  -20.9926  -21.6398 C   0  0  0  0  0  0  0  0  0  0  0  0
    8.4090  -21.7319  -20.5989 O   0  0  0  0  0  0  0  0  0  0  0  0
    8.6390  -21.5410  -22.9883 C   0  0  0  0  0  0  0  0  0  0  0  0
    9.9681  -22.2243  -23.0378 C   0  0  0  0  0  0  0  0  0  0  0  0
  1  2  2  0
  1  6  1  0
  2  3  1  0
  3  4  2  0
  4  5  1  0
  5  6  2  0
  6  7  1  0
  7  8  2  0
  7 17  1  0
  8  9  1  0
  9 10  1  0
  9 15  2  0
 10 11  2  0
 10 12  1  0
 12 13  2  0
 13 14  1  0
 14 15  1  0
 15 16  1  0
 16 17  2  0
 17 18  1  0
 18 19  2  0
 18 21  1  0
 19 20  1  0
 20 23  2  0
 21 22  2  0
 22 23  1  0
 23 24  1  0
 25 24  1  1
 25 26  1  0
 25 28  1  0
 26 27  1  0
 27 30  1  0
 28 29  1  0
 29 30  1  0
 30 31  1  6
 31 32  1  0
 32 33  2  0
 32 34  1  0
 34 35  1  0
 35 36  2  0
 35 37  1  0
 36 41  1  0
 37 38  2  0
 38 39  1  0
 39 40  1  0
 39 41  2  0
 41 42  1  0
 42 43  1  0
 43 44  2  0
 43 45  1  0
 45 46  1  0
M  CHG  1  25   1
M  END
$$$$
