
     RDKit          3D

 46 51  0  0  0  0  0  0  0  0999 V2000
   17.1938  -11.4841   -9.7712 C   0  0  0  0  0  0  0  0  0  0  0  0
   17.5234  -11.4635  -11.1242 C   0  0  0  0  0  0  0  0  0  0  0  0
   16.5423  -11.4107  -12.0912 C   0  0  0  0  0  0  0  0  0  0  0  0
   15.2257  -11.3789  -11.6651 C   0  0  0  0  0  0  0  0  0  0  0  0
   14.9130  -11.3997  -10.3182 C   0  0  0  0  0  0  0  0  0  0  0  0
   15.8848  -11.4526   -9.3432 C   0  0  0  0  0  0  0  0  0  0  0  0
   15.5016  -11.4737   -7.9395 C   0  0  0  0  0  0  0  0  0  0  0  0
   14.7760  -10.4823   -7.3226 C   0  0  0  0  0  0  0  0  0  0  0  0
   14.4406  -10.5680   -5.9714 C   0  0  0  0  0  0  0  0  0  0  0  0
   13.6816   -9.5381   -5.3029 C   0  0  0  0  0  0  0  0  0  0  0  0
   13.3279   -8.5433   -6.0024 O   0  0  0  0  0  0  0  0  0  0  0  0
   13.3667   -9.6651   -3.9377 N   0  0  0  0  0  0  0  0  0  0  0  0
   13.7322  -10.6755   -3.2494 C   0  0  0  0  0  0  0  0  0  0  0  0
   14.5057  -11.7968   -3.7889 C   0  0  0  0  0  0  0  0  0  0  0  0
   14.8341  -11.6577   -5.2244 C   0  0  0  0  0  0  0  0  0  0  0  0
   15.5521  -12.6237   -5.8647 N   0  0  0  0  0  0  0  0  0  0  0  0
   15.8886  -12.5674   -7.1612 C   0  0  0  0  0  0  0  0  0  0  0  0
   16.6661  -13.6436   -7.7622 C   0  0  0  0  0  0  0  0  0  0  0  0
   16.2224  -14.3166   -8.8784 C   0  0  0  0  0  0  0  0  0  0  0  0
   16.9916  -15.3466   -9.4381 C   0  0  0  0  0  0  0  0  0  0  0  0
   17.8717  -13.9930   -7.2017 C   0  0  0  0  0  0  0  0  0  0  0  0
   18.6252  -15.0211   -7.7711 C   0  0  0  0  0  0  0  0  0  0  0  0
   18.2034  -15.6972   -8.8740 C   0  0  0  0  0  0  0  0  0  0  0  0
   18.9705  -16.7920   -9.5184 C   0  0  0  0  0  0  0  0  0  0  0  0
   18.2354  -17.5646  -10.4605 N   0  0  1  0  0  4  0  0  0  0  0  0
   19.0766  -18.3457  -11.3462 C   0  0  0  0  0  0  0  0  0  0  0  0
   19.6396  -19.5652  -10.6493 C   0  0  0  0  0  0  0  0  0  0  0  0
   17.2759  -18.3894   -9.7648 C   0  0  0  0  0  0  0  0  0  0  0  0
   17.2310  -19.7991  -10.3291 C   0  0  0  0  0  0  0  0  0  0  0  0
   18.5825  -20.4347  -10.0375 C   0  0  1  0  0  0  0  0  0  0  0  0
   18.6649  -21.7885  -10.5478 N   0  0  0  0  0  0  0  0  0  0  0  0
   18.0622  -22.8779   -9.8971 C   0  0  0  0  0  0  0  0  0  0  0  0
   17.6454  -22.7196   -8.7220 O   0  0  0  0  0  0  0  0  0  0  0  0
   17.8891  -24.1572  -10.4783 N   0  0  0  0  0  0  0  0  0  0  0  0
   17.3175  -25.2640   -9.8007 C   0  0  0  0  0  0  0  0  0  0  0  0
   17.1738  -25.3682   -8.4375 C   0  0  0  0  0  0  0  0  0  0  0  0
   16.8694  -26.3243  -10.5597 C   0  0  0  0  0  0  0  0  0  0  0  0
   16.2968  -27.4496   -9.9689 C   0  0  0  0  0  0  0  0  0  0  0  0
   16.1772  -27.5026   -8.6039 C   0  0  0  0  0  0  0  0  0  0  0  0
   15.4487  -28.9430   -7.9033 Cl  0  0  0  0  0  0  0  0  0  0  0  0
   16.6166  -26.4570   -7.8164 C   0  0  0  0  0  0  0  0  0  0  0  0
   16.4568  -26.5825   -6.4092 N   0  0  0  0  0  0  0  0  0  0  0  0
   17.4892  -27.0380   -5.5486 C   0  0  0  0  0  0  0  0  0  0  0  0
   18.5950  -27.3462   -6.1123 O   0  0  0  0  0  0  0  0  0  0  0  0
   17.3242  -27.1602   -4.0754 C   0  0  0  0  0  0  0  0  0  0  0  0
   18.5977  -26.8996   -3.3361 C   0  0  0  0  0  0  0  0  0  0  0  0
  1  2  2  0
  1  6  1  0
  2  3  1  0
  3  4  2  0
  4  5  1  0
  5  6  2  0
  6  7  1  0
  7  8  2  0
  7 17  1  0
  8  9  1  0
  9 10  1  0
  9 15  2  0
 10 11  2  0
 10 12  1  0
 12 13  2  0
 13 14  1  0
 14 15  1  0
 15 16  1  0
 16 17  2  0
 17 18  1  0
 18 19  2  0
 18 21  1  0
 19 20  1  0
 20 23  2  0
 21 22  2  0
 22 23  1  0
 23 24  1  0
 25 24  1  1
 25 26  1  0
 25 28  1  0
 26 27  1  0
 27 30  1  0
 28 29  1  0
 29 30  1  0
 30 31  1  6
 31 32  1  0
 32 33  2  0
 32 34  1  0
 34 35  1  0
 35 36  2  0
 35 37  1  0
 36 41  1  0
 37 38  2  0
 38 39  1  0
 39 40  1  0
 39 41  2  0
 41 42  1  0
 42 43  1  0
 43 44  2  0
 43 45  1  0
 45 46  1  0
M  CHG  1  25   1
M  END
$$$$
