
     RDKit          3D

 46 51  0  0  0  0  0  0  0  0999 V2000
   13.9433  -15.9837   -6.0866 C   0  0  0  0  0  0  0  0  0  0  0  0
   13.1146  -16.9729   -6.6108 C   0  0  0  0  0  0  0  0  0  0  0  0
   13.6202  -18.2053   -6.9657 C   0  0  0  0  0  0  0  0  0  0  0  0
   14.9755  -18.4178   -6.7805 C   0  0  0  0  0  0  0  0  0  0  0  0
   15.7864  -17.4266   -6.2587 C   0  0  0  0  0  0  0  0  0  0  0  0
   15.2924  -16.1914   -5.9008 C   0  0  0  0  0  0  0  0  0  0  0  0
   16.1895  -15.1827   -5.3572 C   0  0  0  0  0  0  0  0  0  0  0  0
   16.6503  -15.1771   -4.0620 C   0  0  0  0  0  0  0  0  0  0  0  0
   17.5118  -14.1790   -3.6070 C   0  0  0  0  0  0  0  0  0  0  0  0
   18.0062  -14.1523   -2.2511 C   0  0  0  0  0  0  0  0  0  0  0  0
   17.6219  -15.0838   -1.4839 O   0  0  0  0  0  0  0  0  0  0  0  0
   18.8728  -13.1254   -1.8344 N   0  0  0  0  0  0  0  0  0  0  0  0
   19.2489  -12.1950   -2.6226 C   0  0  0  0  0  0  0  0  0  0  0  0
   18.8311  -12.0900   -4.0230 C   0  0  0  0  0  0  0  0  0  0  0  0
   17.9199  -13.1720   -4.4554 C   0  0  0  0  0  0  0  0  0  0  0  0
   17.4459  -13.2053   -5.7331 N   0  0  0  0  0  0  0  0  0  0  0  0
   16.6173  -14.1517   -6.1972 C   0  0  0  0  0  0  0  0  0  0  0  0
   16.1535  -14.1042   -7.5780 C   0  0  0  0  0  0  0  0  0  0  0  0
   15.3306  -13.0960   -8.0274 C   0  0  0  0  0  0  0  0  0  0  0  0
   14.9010  -13.0729   -9.3618 C   0  0  0  0  0  0  0  0  0  0  0  0
   16.5491  -15.0888   -8.4519 C   0  0  0  0  0  0  0  0  0  0  0  0
   16.1121  -15.0512   -9.7773 C   0  0  0  0  0  0  0  0  0  0  0  0
   15.2991  -14.0630  -10.2397 C   0  0  0  0  0  0  0  0  0  0  0  0
   14.8134  -13.9767  -11.6394 C   0  0  0  0  0  0  0  0  0  0  0  0
   14.3928  -15.2129  -12.2048 N   0  0  1  0  0  4  0  0  0  0  0  0
   13.0675  -15.6192  -11.7797 C   0  0  0  0  0  0  0  0  0  0  0  0
   11.9882  -14.8262  -12.4837 C   0  0  0  0  0  0  0  0  0  0  0  0
   14.4990  -15.1469  -13.6432 C   0  0  0  0  0  0  0  0  0  0  0  0
   13.2886  -15.7606  -14.3261 C   0  0  0  0  0  0  0  0  0  0  0  0
   12.0940  -14.8845  -13.9781 C   0  0  1  0  0  0  0  0  0  0  0  0
   10.8674  -15.3842  -14.5660 N   0  0  0  0  0  0  0  0  0  0  0  0
   10.6291  -15.3581  -15.9502 C   0  0  0  0  0  0  0  0  0  0  0  0
   11.5126  -14.8755  -16.7026 O   0  0  0  0  0  0  0  0  0  0  0  0
    9.4494  -15.8425  -16.5653 N   0  0  0  0  0  0  0  0  0  0  0  0
    9.2256  -15.8339  -17.9655 C   0  0  0  0  0  0  0  0  0  0  0  0
    9.7550  -14.9197  -18.8451 C   0  0  0  0  0  0  0  0  0  0  0  0
    8.4134  -16.8140  -18.4954 C   0  0  0  0  0  0  0  0  0  0  0  0
    8.1432  -16.8730  -19.8617 C   0  0  0  0  0  0  0  0  0  0  0  0
    8.6971  -15.9360  -20.6957 C   0  0  0  0  0  0  0  0  0  0  0  0
    8.3273  -16.0503  -22.4123 Cl  0  0  0  0  0  0  0  0  0  0  0  0
    9.5144  -14.9419  -20.1955 C   0  0  0  0  0  0  0  0  0  0  0  0
   10.0543  -14.0077  -21.1214 N   0  0  0  0  0  0  0  0  0  0  0  0
    9.7398  -12.6240  -21.1002 C   0  0  0  0  0  0  0  0  0  0  0  0
    9.1467  -12.1990  -20.0499 O   0  0  0  0  0  0  0  0  0  0  0  0
   10.0678  -11.6990  -22.2179 C   0  0  0  0  0  0  0  0  0  0  0  0
   11.1177  -10.7024  -21.8429 C   0  0  0  0  0  0  0  0  0  0  0  0
  1  2  2  0
  1  6  1  0
  2  3  1  0
  3  4  2  0
  4  5  1  0
  5  6  2  0
  6  7  1  0
  7  8  2  0
  7 17  1  0
  8  9  1  0
  9 10  1  0
  9 15  2  0
 10 11  2  0
 10 12  1  0
 12 13  2  0
 13 14  1  0
 14 15  1  0
 15 16  1  0
 16 17  2  0
 17 18  1  0
 18 19  2  0
 18 21  1  0
 19 20  1  0
 20 23  2  0
 21 22  2  0
 22 23  1  0
 23 24  1  0
 25 24  1  1
 25 26  1  0
 25 28  1  0
 26 27  1  0
 27 30  1  0
 28 29  1  0
 29 30  1  0
 30 31  1  6
 31 32  1  0
 32 33  2  0
 32 34  1  0
 34 35  1  0
 35 36  2  0
 35 37  1  0
 36 41  1  0
 37 38  2  0
 38 39  1  0
 39 40  1  0
 39 41  2  0
 41 42  1  0
 42 43  1  0
 43 44  2  0
 43 45  1  0
 45 46  1  0
M  CHG  1  25   1
M  END
$$$$
