
     RDKit          3D

 14 15  0  0  0  0  0  0  0  0999 V2000
   -8.1078  -15.0144  -13.5521 C   0  0  0  0  0  0  0  0  0  0  0  0
  -11.6062  -17.7640  -17.1553 C   0  0  0  0  0  0  0  0  0  0  0  0
  -10.8794  -17.3074  -16.0763 C   0  0  0  0  0  0  0  0  0  0  0  0
   -9.5714  -16.9109  -16.2272 C   0  0  0  0  0  0  0  0  0  0  0  0
   -9.0167  -16.9858  -17.4871 C   0  0  0  0  0  0  0  0  0  0  0  0
   -9.7558  -17.4490  -18.5788 C   0  0  0  0  0  0  0  0  0  0  0  0
  -11.0627  -17.8435  -18.4199 C   0  0  0  0  0  0  0  0  0  0  0  0
   -7.6452  -16.5808  -17.6977 C   0  0  0  0  0  0  0  0  0  0  0  0
   -6.9033  -16.9724  -18.7993 O   0  0  0  0  0  0  0  0  0  0  0  0
   -7.0880  -15.8418  -16.8545 O   0  0  0  0  0  0  0  0  0  0  0  0
   -8.7787  -16.4313  -15.1406 N   0  0  0  0  0  0  0  0  0  0  0  0
   -7.7507  -16.9873  -14.5106 C   0  0  0  0  0  0  0  0  0  0  0  0
   -7.3049  -16.1335  -13.5131 C   0  0  0  0  0  0  0  0  0  0  0  0
   -9.0145  -15.2235  -14.5704 C   0  0  0  0  0  0  0  0  0  0  0  0
  1 13  1  0
 14  1  2  0
  3  2  2  0
  2  7  1  0
  4  3  1  0
  4  5  2  0
 11  4  1  0
  5  6  1  0
  5  8  1  0
  6  7  2  0
  8  9  1  0
  8 10  2  0
 11 12  1  0
 11 14  1  0
 12 13  2  0
M  END
$$$$
