
     RDKit          3D

 14 15  0  0  0  0  0  0  0  0999 V2000
   -4.4906  -15.9657    0.1907 C   0  0  0  0  0  0  0  0  0  0  0  0
   -1.1687  -20.3774    1.9162 C   0  0  0  0  0  0  0  0  0  0  0  0
   -2.2275  -19.5224    1.6953 C   0  0  0  0  0  0  0  0  0  0  0  0
   -2.0269  -18.1653    1.6003 C   0  0  0  0  0  0  0  0  0  0  0  0
   -0.7383  -17.6936    1.7330 C   0  0  0  0  0  0  0  0  0  0  0  0
    0.3329  -18.5626    1.9568 C   0  0  0  0  0  0  0  0  0  0  0  0
    0.1243  -19.9178    2.0506 C   0  0  0  0  0  0  0  0  0  0  0  0
   -0.4752  -16.2753    1.6410 C   0  0  0  0  0  0  0  0  0  0  0  0
    0.1043  -15.6857    0.5302 O   0  0  0  0  0  0  0  0  0  0  0  0
   -0.7794  -15.5320    2.6014 O   0  0  0  0  0  0  0  0  0  0  0  0
   -3.0910  -17.2407    1.3724 N   0  0  0  0  0  0  0  0  0  0  0  0
   -3.8895  -16.6152    2.2292 C   0  0  0  0  0  0  0  0  0  0  0  0
   -4.7762  -15.8108    1.5298 C   0  0  0  0  0  0  0  0  0  0  0  0
   -3.4411  -16.8580    0.1193 C   0  0  0  0  0  0  0  0  0  0  0  0
  1 13  1  0
 14  1  2  0
  3  2  2  0
  2  7  1  0
  4  3  1  0
  4  5  2  0
 11  4  1  0
  5  6  1  0
  5  8  1  0
  6  7  2  0
  8  9  1  0
  8 10  2  0
 11 12  1  0
 11 14  1  0
 12 13  2  0
M  END
$$$$
