
     RDKit          3D

 14 15  0  0  0  0  0  0  0  0999 V2000
  -10.5691  -15.3835  -14.8255 C   0  0  0  0  0  0  0  0  0  0  0  0
   -5.4295  -16.2680  -12.2392 C   0  0  0  0  0  0  0  0  0  0  0  0
   -6.6466  -15.7290  -12.5984 C   0  0  0  0  0  0  0  0  0  0  0  0
   -7.1493  -15.9111  -13.8653 C   0  0  0  0  0  0  0  0  0  0  0  0
   -6.3981  -16.6465  -14.7571 C   0  0  0  0  0  0  0  0  0  0  0  0
   -5.1648  -17.1916  -14.3902 C   0  0  0  0  0  0  0  0  0  0  0  0
   -4.6691  -17.0053  -13.1220 C   0  0  0  0  0  0  0  0  0  0  0  0
   -6.8830  -16.8663  -16.1010 C   0  0  0  0  0  0  0  0  0  0  0  0
   -6.5688  -17.9930  -16.8419 O   0  0  0  0  0  0  0  0  0  0  0  0
   -7.6220  -16.0076  -16.6339 O   0  0  0  0  0  0  0  0  0  0  0  0
   -8.4041  -15.3729  -14.2838 N   0  0  0  0  0  0  0  0  0  0  0  0
   -8.7460  -14.1315  -14.6080 C   0  0  0  0  0  0  0  0  0  0  0  0
  -10.0889  -14.0982  -14.9517 C   0  0  0  0  0  0  0  0  0  0  0  0
   -9.5044  -16.1557  -14.4098 C   0  0  0  0  0  0  0  0  0  0  0  0
  1 13  1  0
 14  1  2  0
  3  2  2  0
  2  7  1  0
  4  3  1  0
  4  5  2  0
 11  4  1  0
  5  6  1  0
  5  8  1  0
  6  7  2  0
  8  9  1  0
  8 10  2  0
 11 12  1  0
 11 14  1  0
 12 13  2  0
M  END
$$$$
