
     RDKit          3D

 14 15  0  0  0  0  0  0  0  0999 V2000
   -8.4549  -30.5331  -14.9382 C   0  0  0  0  0  0  0  0  0  0  0  0
  -10.7216  -32.7365  -19.6994 C   0  0  0  0  0  0  0  0  0  0  0  0
  -10.0657  -32.4859  -18.5129 C   0  0  0  0  0  0  0  0  0  0  0  0
  -10.6321  -31.6798  -17.5535 C   0  0  0  0  0  0  0  0  0  0  0  0
  -11.8705  -31.1352  -17.8186 C   0  0  0  0  0  0  0  0  0  0  0  0
  -12.5329  -31.3911  -19.0222 C   0  0  0  0  0  0  0  0  0  0  0  0
  -11.9603  -32.1978  -19.9761 C   0  0  0  0  0  0  0  0  0  0  0  0
  -12.5081  -30.2811  -16.8422 C   0  0  0  0  0  0  0  0  0  0  0  0
  -11.8011  -29.4453  -15.9944 O   0  0  0  0  0  0  0  0  0  0  0  0
  -13.7564  -30.2858  -16.7461 O   0  0  0  0  0  0  0  0  0  0  0  0
   -9.9919  -31.3911  -16.3101 N   0  0  0  0  0  0  0  0  0  0  0  0
  -10.3215  -31.7318  -15.0699 C   0  0  0  0  0  0  0  0  0  0  0  0
   -9.3865  -31.2150  -14.1860 C   0  0  0  0  0  0  0  0  0  0  0  0
   -8.8528  -30.6572  -16.2531 C   0  0  0  0  0  0  0  0  0  0  0  0
  1 13  1  0
 14  1  2  0
  3  2  2  0
  2  7  1  0
  4  3  1  0
  4  5  2  0
 11  4  1  0
  5  6  1  0
  5  8  1  0
  6  7  2  0
  8  9  1  0
  8 10  2  0
 11 12  1  0
 11 14  1  0
 12 13  2  0
M  END
$$$$
