
     RDKit          3D

 14 15  0  0  0  0  0  0  0  0999 V2000
  -13.0044  -30.7505  -20.0549 C   0  0  0  0  0  0  0  0  0  0  0  0
   -8.7757  -31.0790  -16.0123 C   0  0  0  0  0  0  0  0  0  0  0  0
   -9.4414  -30.7935  -17.1854 C   0  0  0  0  0  0  0  0  0  0  0  0
  -10.8132  -30.7013  -17.2103 C   0  0  0  0  0  0  0  0  0  0  0  0
  -11.4942  -30.9030  -16.0287 C   0  0  0  0  0  0  0  0  0  0  0  0
  -10.8167  -31.1923  -14.8413 C   0  0  0  0  0  0  0  0  0  0  0  0
   -9.4454  -31.2828  -14.8245 C   0  0  0  0  0  0  0  0  0  0  0  0
  -12.9369  -30.8169  -16.0026 C   0  0  0  0  0  0  0  0  0  0  0  0
  -13.7263  -31.6186  -15.1956 O   0  0  0  0  0  0  0  0  0  0  0  0
  -13.5144  -29.9840  -16.7376 O   0  0  0  0  0  0  0  0  0  0  0  0
  -11.5468  -30.4080  -18.3999 N   0  0  0  0  0  0  0  0  0  0  0  0
  -11.5230  -29.3392  -19.1874 C   0  0  0  0  0  0  0  0  0  0  0  0
  -12.4190  -29.5156  -20.2308 C   0  0  0  0  0  0  0  0  0  0  0  0
  -12.4464  -31.2843  -18.9119 C   0  0  0  0  0  0  0  0  0  0  0  0
  1 13  1  0
 14  1  2  0
  3  2  2  0
  2  7  1  0
  4  3  1  0
  4  5  2  0
 11  4  1  0
  5  6  1  0
  5  8  1  0
  6  7  2  0
  8  9  1  0
  8 10  2  0
 11 12  1  0
 11 14  1  0
 12 13  2  0
M  END
$$$$
