
     RDKit          3D

 14 15  0  0  0  0  0  0  0  0999 V2000
  -11.2032  -33.2588   -1.0197 C   0  0  0  0  0  0  0  0  0  0  0  0
   -6.5666  -35.0273    2.1454 C   0  0  0  0  0  0  0  0  0  0  0  0
   -7.4758  -34.1958    1.5267 C   0  0  0  0  0  0  0  0  0  0  0  0
   -8.7163  -34.6611    1.1584 C   0  0  0  0  0  0  0  0  0  0  0  0
   -9.0162  -35.9794    1.4281 C   0  0  0  0  0  0  0  0  0  0  0  0
   -8.0926  -36.8198    2.0554 C   0  0  0  0  0  0  0  0  0  0  0  0
   -6.8547  -36.3473    2.4204 C   0  0  0  0  0  0  0  0  0  0  0  0
  -10.3069  -36.5164    1.0606 C   0  0  0  0  0  0  0  0  0  0  0  0
  -11.5033  -35.9278    1.4340 O   0  0  0  0  0  0  0  0  0  0  0  0
  -10.3628  -37.5613    0.3732 O   0  0  0  0  0  0  0  0  0  0  0  0
   -9.6909  -33.8387    0.5157 N   0  0  0  0  0  0  0  0  0  0  0  0
  -10.1538  -32.6366    0.8377 C   0  0  0  0  0  0  0  0  0  0  0  0
  -11.0990  -32.2413   -0.0966 C   0  0  0  0  0  0  0  0  0  0  0  0
  -10.3193  -34.2386   -0.6177 C   0  0  0  0  0  0  0  0  0  0  0  0
  1 13  1  0
 14  1  2  0
  3  2  2  0
  2  7  1  0
  4  3  1  0
  4  5  2  0
 11  4  1  0
  5  6  1  0
  5  8  1  0
  6  7  2  0
  8  9  1  0
  8 10  2  0
 11 12  1  0
 11 14  1  0
 12 13  2  0
M  END
$$$$
