
     RDKit          3D

 14 15  0  0  0  0  0  0  0  0999 V2000
  -12.0377  -31.6283  -20.2814 C   0  0  0  0  0  0  0  0  0  0  0  0
   -8.2233  -31.2430  -16.0243 C   0  0  0  0  0  0  0  0  0  0  0  0
   -8.9397  -31.1353  -17.1973 C   0  0  0  0  0  0  0  0  0  0  0  0
  -10.3136  -31.0813  -17.1792 C   0  0  0  0  0  0  0  0  0  0  0  0
  -10.9446  -31.1384  -15.9548 C   0  0  0  0  0  0  0  0  0  0  0  0
  -10.2159  -31.2476  -14.7675 C   0  0  0  0  0  0  0  0  0  0  0  0
   -8.8428  -31.3010  -14.7938 C   0  0  0  0  0  0  0  0  0  0  0  0
  -12.3874  -31.0853  -15.8825 C   0  0  0  0  0  0  0  0  0  0  0  0
  -13.0687  -30.4286  -14.8716 O   0  0  0  0  0  0  0  0  0  0  0  0
  -13.0666  -31.6543  -16.7669 O   0  0  0  0  0  0  0  0  0  0  0  0
  -11.0986  -30.9698  -18.3669 N   0  0  0  0  0  0  0  0  0  0  0  0
  -11.7965  -29.9476  -18.8476 C   0  0  0  0  0  0  0  0  0  0  0  0
  -12.3967  -30.3199  -20.0408 C   0  0  0  0  0  0  0  0  0  0  0  0
  -11.2321  -32.0088  -19.2283 C   0  0  0  0  0  0  0  0  0  0  0  0
  1 13  1  0
 14  1  2  0
  3  2  2  0
  2  7  1  0
  4  3  1  0
  4  5  2  0
 11  4  1  0
  5  6  1  0
  5  8  1  0
  6  7  2  0
  8  9  1  0
  8 10  2  0
 11 12  1  0
 11 14  1  0
 12 13  2  0
M  END
$$$$
