
     RDKit          3D

 14 15  0  0  0  0  0  0  0  0999 V2000
   -4.6099  -19.2902    5.3097 C   0  0  0  0  0  0  0  0  0  0  0  0
   -0.2923  -19.7401    1.5607 C   0  0  0  0  0  0  0  0  0  0  0  0
   -1.0921  -19.6852    2.6824 C   0  0  0  0  0  0  0  0  0  0  0  0
   -2.1296  -18.7862    2.7622 C   0  0  0  0  0  0  0  0  0  0  0  0
   -2.3400  -17.9479    1.6882 C   0  0  0  0  0  0  0  0  0  0  0  0
   -1.5277  -18.0059    0.5526 C   0  0  0  0  0  0  0  0  0  0  0  0
   -0.4926  -18.9072    0.4803 C   0  0  0  0  0  0  0  0  0  0  0  0
   -3.4178  -16.9853    1.7234 C   0  0  0  0  0  0  0  0  0  0  0  0
   -3.2128  -15.6191    1.6298 O   0  0  0  0  0  0  0  0  0  0  0  0
   -4.5966  -17.3894    1.8436 O   0  0  0  0  0  0  0  0  0  0  0  0
   -2.9846  -18.6918    3.9021 N   0  0  0  0  0  0  0  0  0  0  0  0
   -3.0428  -17.7788    4.8643 C   0  0  0  0  0  0  0  0  0  0  0  0
   -4.0445  -18.1176    5.7612 C   0  0  0  0  0  0  0  0  0  0  0  0
   -3.9347  -19.6261    4.1546 C   0  0  0  0  0  0  0  0  0  0  0  0
  1 13  1  0
 14  1  2  0
  3  2  2  0
  2  7  1  0
  4  3  1  0
  4  5  2  0
 11  4  1  0
  5  6  1  0
  5  8  1  0
  6  7  2  0
  8  9  1  0
  8 10  2  0
 11 12  1  0
 11 14  1  0
 12 13  2  0
M  END
$$$$
