
     RDKit          3D

 14 15  0  0  0  0  0  0  0  0999 V2000
   -0.9905  -19.8273    3.3268 C   0  0  0  0  0  0  0  0  0  0  0  0
   -4.7685  -16.9725   -0.1034 C   0  0  0  0  0  0  0  0  0  0  0  0
   -4.2491  -17.8388    0.8350 C   0  0  0  0  0  0  0  0  0  0  0  0
   -3.0634  -17.5565    1.4717 C   0  0  0  0  0  0  0  0  0  0  0  0
   -2.4173  -16.3846    1.1406 C   0  0  0  0  0  0  0  0  0  0  0  0
   -2.9463  -15.5085    0.1890 C   0  0  0  0  0  0  0  0  0  0  0  0
   -4.1319  -15.7977   -0.4431 C   0  0  0  0  0  0  0  0  0  0  0  0
   -1.1678  -16.0424    1.7818 C   0  0  0  0  0  0  0  0  0  0  0  0
   -0.0448  -15.6389    1.0795 O   0  0  0  0  0  0  0  0  0  0  0  0
   -1.0808  -16.1089    3.0290 O   0  0  0  0  0  0  0  0  0  0  0  0
   -2.4861  -18.4220    2.4499 N   0  0  0  0  0  0  0  0  0  0  0  0
   -2.9110  -18.7605    3.6615 C   0  0  0  0  0  0  0  0  0  0  0  0
   -2.0045  -19.6359    4.2399 C   0  0  0  0  0  0  0  0  0  0  0  0
   -1.3125  -19.0633    2.2244 C   0  0  0  0  0  0  0  0  0  0  0  0
  1 13  1  0
 14  1  2  0
  3  2  2  0
  2  7  1  0
  4  3  1  0
  4  5  2  0
 11  4  1  0
  5  6  1  0
  5  8  1  0
  6  7  2  0
  8  9  1  0
  8 10  2  0
 11 12  1  0
 11 14  1  0
 12 13  2  0
M  END
$$$$
