
     RDKit          3D

 14 15  0  0  0  0  0  0  0  0999 V2000
    1.1011  -22.8729    1.9803 C   0  0  0  0  0  0  0  0  0  0  0  0
   -0.6514  -17.3984    2.1422 C   0  0  0  0  0  0  0  0  0  0  0  0
   -0.1935  -18.6435    1.7667 C   0  0  0  0  0  0  0  0  0  0  0  0
   -0.6869  -19.7819    2.3596 C   0  0  0  0  0  0  0  0  0  0  0  0
   -1.6489  -19.6347    3.3360 C   0  0  0  0  0  0  0  0  0  0  0  0
   -2.1111  -18.3715    3.7145 C   0  0  0  0  0  0  0  0  0  0  0  0
   -1.6131  -17.2383    3.1172 C   0  0  0  0  0  0  0  0  0  0  0  0
   -2.1992  -20.8007    3.9895 C   0  0  0  0  0  0  0  0  0  0  0  0
   -1.8509  -21.1805    5.2746 O   0  0  0  0  0  0  0  0  0  0  0  0
   -3.0304  -21.5104    3.3787 O   0  0  0  0  0  0  0  0  0  0  0  0
   -0.2442  -21.0924    2.0047 N   0  0  0  0  0  0  0  0  0  0  0  0
   -0.8013  -22.0095    1.2228 C   0  0  0  0  0  0  0  0  0  0  0  0
    0.0084  -23.1344    1.1826 C   0  0  0  0  0  0  0  0  0  0  0  0
    0.9208  -21.5995    2.4790 C   0  0  0  0  0  0  0  0  0  0  0  0
  1 13  1  0
 14  1  2  0
  3  2  2  0
  2  7  1  0
  4  3  1  0
  4  5  2  0
 11  4  1  0
  5  6  1  0
  5  8  1  0
  6  7  2  0
  8  9  1  0
  8 10  2  0
 11 12  1  0
 11 14  1  0
 12 13  2  0
M  END
$$$$
