
     RDKit          3D

 14 15  0  0  0  0  0  0  0  0999 V2000
   -9.3683  -13.5847  -13.2046 C   0  0  0  0  0  0  0  0  0  0  0  0
   -4.1347  -15.8868  -12.8394 C   0  0  0  0  0  0  0  0  0  0  0  0
   -5.2322  -15.0559  -12.9172 C   0  0  0  0  0  0  0  0  0  0  0  0
   -6.2986  -15.3740  -13.7249 C   0  0  0  0  0  0  0  0  0  0  0  0
   -6.2317  -16.5452  -14.4489 C   0  0  0  0  0  0  0  0  0  0  0  0
   -5.1180  -17.3855  -14.3681 C   0  0  0  0  0  0  0  0  0  0  0  0
   -4.0560  -17.0606  -13.5585 C   0  0  0  0  0  0  0  0  0  0  0  0
   -7.3271  -16.9242  -15.3126 C   0  0  0  0  0  0  0  0  0  0  0  0
   -8.6456  -16.9532  -14.8907 O   0  0  0  0  0  0  0  0  0  0  0  0
   -7.0894  -17.2438  -16.4995 O   0  0  0  0  0  0  0  0  0  0  0  0
   -7.4564  -14.5458  -13.8384 N   0  0  0  0  0  0  0  0  0  0  0  0
   -7.8718  -13.7749  -14.8365 C   0  0  0  0  0  0  0  0  0  0  0  0
   -9.0614  -13.1589  -14.4786 C   0  0  0  0  0  0  0  0  0  0  0  0
   -8.3571  -14.4446  -12.8295 C   0  0  0  0  0  0  0  0  0  0  0  0
  1 13  1  0
 14  1  2  0
  3  2  2  0
  2  7  1  0
  4  3  1  0
  4  5  2  0
 11  4  1  0
  5  6  1  0
  5  8  1  0
  6  7  2  0
  8  9  1  0
  8 10  2  0
 11 12  1  0
 11 14  1  0
 12 13  2  0
M  END
$$$$
