
     RDKit          3D

 14 15  0  0  0  0  0  0  0  0999 V2000
   -6.0290  -17.1311    4.1103 C   0  0  0  0  0  0  0  0  0  0  0  0
   -1.0999  -19.2100    2.0772 C   0  0  0  0  0  0  0  0  0  0  0  0
   -2.3859  -19.0043    2.5296 C   0  0  0  0  0  0  0  0  0  0  0  0
   -3.0659  -17.8515    2.2139 C   0  0  0  0  0  0  0  0  0  0  0  0
   -2.4202  -16.9154    1.4345 C   0  0  0  0  0  0  0  0  0  0  0  0
   -1.1167  -17.1267    0.9775 C   0  0  0  0  0  0  0  0  0  0  0  0
   -0.4436  -18.2815    1.2972 C   0  0  0  0  0  0  0  0  0  0  0  0
   -3.0922  -15.6871    1.0753 C   0  0  0  0  0  0  0  0  0  0  0  0
   -3.0060  -14.5306    1.8318 O   0  0  0  0  0  0  0  0  0  0  0  0
   -3.7882  -15.6509    0.0352 O   0  0  0  0  0  0  0  0  0  0  0  0
   -4.3981  -17.5935    2.6586 N   0  0  0  0  0  0  0  0  0  0  0  0
   -5.5395  -17.5432    1.9821 C   0  0  0  0  0  0  0  0  0  0  0  0
   -6.5795  -17.2572    2.8534 C   0  0  0  0  0  0  0  0  0  0  0  0
   -4.6742  -17.3443    3.9629 C   0  0  0  0  0  0  0  0  0  0  0  0
  1 13  1  0
 14  1  2  0
  3  2  2  0
  2  7  1  0
  4  3  1  0
  4  5  2  0
 11  4  1  0
  5  6  1  0
  5  8  1  0
  6  7  2  0
  8  9  1  0
  8 10  2  0
 11 12  1  0
 11 14  1  0
 12 13  2  0
M  END
$$$$
