
     RDKit          3D

 14 15  0  0  0  0  0  0  0  0999 V2000
   -5.7823  -17.4836    1.8957 C   0  0  0  0  0  0  0  0  0  0  0  0
   -1.0949  -20.5176    3.6839 C   0  0  0  0  0  0  0  0  0  0  0  0
   -1.9637  -19.8137    2.8774 C   0  0  0  0  0  0  0  0  0  0  0  0
   -2.8761  -18.9403    3.4212 C   0  0  0  0  0  0  0  0  0  0  0  0
   -2.8909  -18.7949    4.7920 C   0  0  0  0  0  0  0  0  0  0  0  0
   -2.0091  -19.5098    5.6070 C   0  0  0  0  0  0  0  0  0  0  0  0
   -1.1000  -20.3808    5.0559 C   0  0  0  0  0  0  0  0  0  0  0  0
   -3.8313  -17.8891    5.4122 C   0  0  0  0  0  0  0  0  0  0  0  0
   -4.8659  -18.3167    6.2270 O   0  0  0  0  0  0  0  0  0  0  0  0
   -3.7187  -16.6581    5.2134 O   0  0  0  0  0  0  0  0  0  0  0  0
   -3.7955  -18.1895    2.6274 N   0  0  0  0  0  0  0  0  0  0  0  0
   -3.5795  -17.2977    1.6677 C   0  0  0  0  0  0  0  0  0  0  0  0
   -4.7948  -16.8348    1.1868 C   0  0  0  0  0  0  0  0  0  0  0  0
   -5.1365  -18.3188    2.7835 C   0  0  0  0  0  0  0  0  0  0  0  0
  1 13  1  0
 14  1  2  0
  3  2  2  0
  2  7  1  0
  4  3  1  0
  4  5  2  0
 11  4  1  0
  5  6  1  0
  5  8  1  0
  6  7  2  0
  8  9  1  0
  8 10  2  0
 11 12  1  0
 11 14  1  0
 12 13  2  0
M  END
$$$$
