
     RDKit          3D

 14 15  0  0  0  0  0  0  0  0999 V2000
   -9.1494  -37.9386    3.8973 C   0  0  0  0  0  0  0  0  0  0  0  0
   -8.3858  -33.4394    0.2554 C   0  0  0  0  0  0  0  0  0  0  0  0
   -8.1369  -34.5164    1.0793 C   0  0  0  0  0  0  0  0  0  0  0  0
   -9.0906  -35.4879    1.2732 C   0  0  0  0  0  0  0  0  0  0  0  0
  -10.2959  -35.3474    0.6189 C   0  0  0  0  0  0  0  0  0  0  0  0
  -10.5452  -34.2546   -0.2156 C   0  0  0  0  0  0  0  0  0  0  0  0
   -9.5869  -33.2877   -0.4044 C   0  0  0  0  0  0  0  0  0  0  0  0
  -11.3310  -36.3418    0.7899 C   0  0  0  0  0  0  0  0  0  0  0  0
  -12.1067  -36.8114   -0.2565 O   0  0  0  0  0  0  0  0  0  0  0  0
  -11.5485  -36.8100    1.9305 O   0  0  0  0  0  0  0  0  0  0  0  0
   -8.8796  -36.6210    2.1163 N   0  0  0  0  0  0  0  0  0  0  0  0
   -8.0832  -37.6727    1.9657 C   0  0  0  0  0  0  0  0  0  0  0  0
   -8.2236  -38.5171    3.0566 C   0  0  0  0  0  0  0  0  0  0  0  0
   -9.5415  -36.7630    3.2916 C   0  0  0  0  0  0  0  0  0  0  0  0
  1 13  1  0
 14  1  2  0
  3  2  2  0
  2  7  1  0
  4  3  1  0
  4  5  2  0
 11  4  1  0
  5  6  1  0
  5  8  1  0
  6  7  2  0
  8  9  1  0
  8 10  2  0
 11 12  1  0
 11 14  1  0
 12 13  2  0
M  END
$$$$
