
     RDKit          3D

 14 15  0  0  0  0  0  0  0  0999 V2000
  -10.4870  -14.9365  -13.9980 C   0  0  0  0  0  0  0  0  0  0  0  0
   -5.2079  -14.3175  -11.9878 C   0  0  0  0  0  0  0  0  0  0  0  0
   -6.4831  -14.2099  -12.5007 C   0  0  0  0  0  0  0  0  0  0  0  0
   -6.9459  -15.1132  -13.4285 C   0  0  0  0  0  0  0  0  0  0  0  0
   -6.0951  -16.1231  -13.8245 C   0  0  0  0  0  0  0  0  0  0  0  0
   -4.8031  -16.2296  -13.3029 C   0  0  0  0  0  0  0  0  0  0  0  0
   -4.3478  -15.3228  -12.3759 C   0  0  0  0  0  0  0  0  0  0  0  0
   -6.5345  -17.0978  -14.7974 C   0  0  0  0  0  0  0  0  0  0  0  0
   -7.1946  -16.7540  -15.9650 O   0  0  0  0  0  0  0  0  0  0  0  0
   -6.3156  -18.3128  -14.5895 O   0  0  0  0  0  0  0  0  0  0  0  0
   -8.2578  -15.0432  -13.9881 N   0  0  0  0  0  0  0  0  0  0  0  0
   -8.6554  -15.0074  -15.2544 C   0  0  0  0  0  0  0  0  0  0  0  0
  -10.0396  -14.9406  -15.3012 C   0  0  0  0  0  0  0  0  0  0  0  0
   -9.3622  -15.0008  -13.2020 C   0  0  0  0  0  0  0  0  0  0  0  0
  1 13  1  0
 14  1  2  0
  3  2  2  0
  2  7  1  0
  4  3  1  0
  4  5  2  0
 11  4  1  0
  5  6  1  0
  5  8  1  0
  6  7  2  0
  8  9  1  0
  8 10  2  0
 11 12  1  0
 11 14  1  0
 12 13  2  0
M  END
$$$$
