
     RDKit          3D

 14 15  0  0  0  0  0  0  0  0999 V2000
   -5.2114  -16.4803   -0.4982 C   0  0  0  0  0  0  0  0  0  0  0  0
   -1.4936  -19.6435    2.4743 C   0  0  0  0  0  0  0  0  0  0  0  0
   -2.1670  -18.8714    1.5516 C   0  0  0  0  0  0  0  0  0  0  0  0
   -2.9634  -17.8264    1.9574 C   0  0  0  0  0  0  0  0  0  0  0  0
   -3.0636  -17.5801    3.3101 C   0  0  0  0  0  0  0  0  0  0  0  0
   -2.3799  -18.3644    4.2429 C   0  0  0  0  0  0  0  0  0  0  0  0
   -1.5858  -19.4072    3.8295 C   0  0  0  0  0  0  0  0  0  0  0  0
   -3.8882  -16.4930    3.7873 C   0  0  0  0  0  0  0  0  0  0  0  0
   -5.1517  -16.2281    3.2866 O   0  0  0  0  0  0  0  0  0  0  0  0
   -3.4545  -15.7474    4.6947 O   0  0  0  0  0  0  0  0  0  0  0  0
   -3.6799  -16.9991    1.0401 N   0  0  0  0  0  0  0  0  0  0  0  0
   -3.5312  -15.7146    0.7384 C   0  0  0  0  0  0  0  0  0  0  0  0
   -4.4686  -15.3542   -0.2177 C   0  0  0  0  0  0  0  0  0  0  0  0
   -4.7026  -17.4876    0.2951 C   0  0  0  0  0  0  0  0  0  0  0  0
  1 13  1  0
 14  1  2  0
  3  2  2  0
  2  7  1  0
  4  3  1  0
  4  5  2  0
 11  4  1  0
  5  6  1  0
  5  8  1  0
  6  7  2  0
  8  9  1  0
  8 10  2  0
 11 12  1  0
 11 14  1  0
 12 13  2  0
M  END
$$$$
