
     RDKit          3D

 14 15  0  0  0  0  0  0  0  0999 V2000
   -2.0968  -17.4087    0.7327 C   0  0  0  0  0  0  0  0  0  0  0  0
    0.6593  -22.4521    0.9373 C   0  0  0  0  0  0  0  0  0  0  0  0
   -0.1857  -21.4032    0.6429 C   0  0  0  0  0  0  0  0  0  0  0  0
   -0.6322  -20.5611    1.6340 C   0  0  0  0  0  0  0  0  0  0  0  0
   -0.2078  -20.8014    2.9234 C   0  0  0  0  0  0  0  0  0  0  0  0
    0.6487  -21.8653    3.2188 C   0  0  0  0  0  0  0  0  0  0  0  0
    1.0907  -22.7027    2.2227 C   0  0  0  0  0  0  0  0  0  0  0  0
   -0.6492  -19.9446    4.0007 C   0  0  0  0  0  0  0  0  0  0  0  0
    0.0198  -19.8460    5.2090 O   0  0  0  0  0  0  0  0  0  0  0  0
   -1.6821  -19.2534    3.8500 O   0  0  0  0  0  0  0  0  0  0  0  0
   -1.5075  -19.4621    1.3783 N   0  0  0  0  0  0  0  0  0  0  0  0
   -2.8194  -19.3460    1.5470 C   0  0  0  0  0  0  0  0  0  0  0  0
   -3.2241  -18.0790    1.1552 C   0  0  0  0  0  0  0  0  0  0  0  0
   -1.0447  -18.2883    0.8809 C   0  0  0  0  0  0  0  0  0  0  0  0
  1 13  1  0
 14  1  2  0
  3  2  2  0
  2  7  1  0
  4  3  1  0
  4  5  2  0
 11  4  1  0
  5  6  1  0
  5  8  1  0
  6  7  2  0
  8  9  1  0
  8 10  2  0
 11 12  1  0
 11 14  1  0
 12 13  2  0
M  END
$$$$
