
     RDKit          3D

 25 27  0  0  0  0  0  0  0  0999 V2000
   20.7671   28.3674   11.2634 C   0  0  0  0  0  0  0  0  0  0  0  0
   19.7354   27.4207   11.6568 C   0  0  0  0  0  0  0  0  0  0  0  0
   17.4084   26.7369   11.8978 C   0  0  0  0  0  0  0  0  0  0  0  0
   18.3918   27.6419   11.5196 C   0  0  0  0  0  0  0  0  0  0  0  0
   20.0993   26.1891   12.2196 C   0  0  0  0  0  0  0  0  0  0  0  0
   19.1817   25.2625   12.6093 C   0  0  0  0  0  0  0  0  0  0  0  0
   17.8343   25.5455   12.4443 C   0  0  0  0  0  0  0  0  0  0  0  0
   15.9928   27.0257   11.7264 C   0  0  0  0  0  0  0  0  0  0  0  0
   13.2865   27.5463   11.4562 C   0  0  0  0  0  0  0  0  0  0  0  0
   13.7229   26.8506   12.5441 C   0  0  0  0  0  0  0  0  0  0  0  0
   15.0776   26.6003   12.6618 C   0  0  0  0  0  0  0  0  0  0  0  0
   14.1727   27.9840   10.5065 C   0  0  0  0  0  0  0  0  0  0  0  0
   15.5262   27.7259   10.6377 C   0  0  0  0  0  0  0  0  0  0  0  0
   21.9944   28.1423   11.5130 O   0  0  0  0  0  0  0  0  0  0  0  0
   20.4553   29.5696   10.5920 N   0  0  0  0  0  0  0  0  0  0  0  0
   21.4492   30.5616   10.3669 N   0  0  0  0  0  0  0  0  0  0  0  0
   20.6648   32.0023    9.9112 S   0  0  1  0  0  6  0  0  0  0  0  0
   21.6754   32.9129    9.2669 O   0  0  0  0  0  0  0  0  0  0  0  0
   19.6264   31.6672    8.8652 O   0  0  0  0  0  0  0  0  0  0  0  0
   19.8713   32.7952   11.2346 C   0  0  0  0  0  0  0  0  0  0  0  0
   20.6363   33.3392   12.2489 C   0  0  0  0  0  0  0  0  0  0  0  0
   20.0739   33.9919   13.3371 C   0  0  0  0  0  0  0  0  0  0  0  0
   18.7055   34.1188   13.4395 C   0  0  0  0  0  0  0  0  0  0  0  0
   17.9527   33.5682   12.4152 C   0  0  0  0  0  0  0  0  0  0  0  0
   18.5045   32.9203   11.3341 C   0  0  0  0  0  0  0  0  0  0  0  0
  2  1  1  0
  1 14  2  0
  1 15  1  0
  4  2  2  0
  2  5  1  0
  3  4  1  0
  3  7  2  0
  8  3  1  0
  6  5  2  0
  7  6  1  0
 11  8  2  0
  8 13  1  0
 10  9  2  0
  9 12  1  0
 10 11  1  0
 12 13  2  0
 15 16  1  0
 17 16  1  1
 17 18  2  0
 17 19  2  0
 17 20  1  0
 20 21  2  0
 20 25  1  0
 21 22  1  0
 22 23  2  0
 23 24  1  0
 24 25  2  0
M  END
$$$$
