
     RDKit          3D

 25 27  0  0  0  0  0  0  0  0999 V2000
   16.6484   23.3868   22.1544 C   0  0  0  0  0  0  0  0  0  0  0  0
   17.5425   24.3181   22.8244 C   0  0  0  0  0  0  0  0  0  0  0  0
   18.5381   26.5227   23.1224 C   0  0  0  0  0  0  0  0  0  0  0  0
   17.6822   25.6358   22.4821 C   0  0  0  0  0  0  0  0  0  0  0  0
   18.3322   23.8761   23.8953 C   0  0  0  0  0  0  0  0  0  0  0  0
   19.1889   24.6977   24.5614 C   0  0  0  0  0  0  0  0  0  0  0  0
   19.2858   26.0236   24.1671 C   0  0  0  0  0  0  0  0  0  0  0  0
   18.6443   27.9156   22.7158 C   0  0  0  0  0  0  0  0  0  0  0  0
   18.7827   30.5695   21.9372 C   0  0  0  0  0  0  0  0  0  0  0  0
   17.5653   29.9599   22.0029 C   0  0  0  0  0  0  0  0  0  0  0  0
   17.5161   28.6345   22.3937 C   0  0  0  0  0  0  0  0  0  0  0  0
   19.9254   29.8810   22.2517 C   0  0  0  0  0  0  0  0  0  0  0  0
   19.8607   28.5544   22.6414 C   0  0  0  0  0  0  0  0  0  0  0  0
   16.4809   22.2051   22.5955 O   0  0  0  0  0  0  0  0  0  0  0  0
   15.9320   23.7497   20.9933 N   0  0  0  0  0  0  0  0  0  0  0  0
   15.0096   22.8501   20.3910 N   0  0  0  0  0  0  0  0  0  0  0  0
   15.0293   23.1194   18.7100 S   0  0  1  0  0  6  0  0  0  0  0  0
   13.7629   22.5574   18.1217 O   0  0  0  0  0  0  0  0  0  0  0  0
   15.0173   24.6112   18.4679 O   0  0  0  0  0  0  0  0  0  0  0  0
   16.4259   22.4501   17.9281 C   0  0  0  0  0  0  0  0  0  0  0  0
   17.5930   23.1891   17.8881 C   0  0  0  0  0  0  0  0  0  0  0  0
   18.7513   22.7191   17.2847 C   0  0  0  0  0  0  0  0  0  0  0  0
   18.7708   21.4738   16.6947 C   0  0  0  0  0  0  0  0  0  0  0  0
   17.5933   20.7456   16.7430 C   0  0  0  0  0  0  0  0  0  0  0  0
   16.4422   21.2062   17.3397 C   0  0  0  0  0  0  0  0  0  0  0  0
  2  1  1  0
  1 14  2  0
  1 15  1  0
  4  2  2  0
  2  5  1  0
  3  4  1  0
  3  7  2  0
  8  3  1  0
  6  5  2  0
  7  6  1  0
 11  8  2  0
  8 13  1  0
 10  9  2  0
  9 12  1  0
 10 11  1  0
 12 13  2  0
 15 16  1  0
 17 16  1  1
 17 18  2  0
 17 19  2  0
 17 20  1  0
 20 21  2  0
 20 25  1  0
 21 22  1  0
 22 23  2  0
 23 24  1  0
 24 25  2  0
M  END
$$$$
