
     RDKit          3D

 25 27  0  0  0  0  0  0  0  0999 V2000
   16.2272   23.5031   22.1026 C   0  0  0  0  0  0  0  0  0  0  0  0
   17.1974   22.8740   21.2202 C   0  0  0  0  0  0  0  0  0  0  0  0
   17.8098   21.6577   19.1989 C   0  0  0  0  0  0  0  0  0  0  0  0
   16.8817   22.2593   20.0390 C   0  0  0  0  0  0  0  0  0  0  0  0
   18.5559   22.8740   21.5672 C   0  0  0  0  0  0  0  0  0  0  0  0
   19.5113   22.3009   20.7852 C   0  0  0  0  0  0  0  0  0  0  0  0
   19.1282   21.6931   19.5991 C   0  0  0  0  0  0  0  0  0  0  0  0
   17.4162   21.0194   17.9521 C   0  0  0  0  0  0  0  0  0  0  0  0
   16.6500   19.8619   15.5560 C   0  0  0  0  0  0  0  0  0  0  0  0
   16.4872   21.2045   15.7263 C   0  0  0  0  0  0  0  0  0  0  0  0
   16.8755   21.7645   16.9294 C   0  0  0  0  0  0  0  0  0  0  0  0
   17.1856   19.0918   16.5555 C   0  0  0  0  0  0  0  0  0  0  0  0
   17.5699   19.6664   17.7547 C   0  0  0  0  0  0  0  0  0  0  0  0
   16.5975   24.1194   23.1525 O   0  0  0  0  0  0  0  0  0  0  0  0
   14.8416   23.4583   21.8357 N   0  0  0  0  0  0  0  0  0  0  0  0
   13.9226   24.2245   22.6046 N   0  0  0  0  0  0  0  0  0  0  0  0
   12.3995   23.4692   22.5150 S   0  0  1  0  0  6  0  0  0  0  0  0
   12.5335   22.0617   23.0314 O   0  0  0  0  0  0  0  0  0  0  0  0
   11.4516   24.2009   23.4373 O   0  0  0  0  0  0  0  0  0  0  0  0
   11.7249   23.4811   20.9167 C   0  0  0  0  0  0  0  0  0  0  0  0
   11.7381   22.3166   20.1726 C   0  0  0  0  0  0  0  0  0  0  0  0
   11.2138   22.2475   18.8892 C   0  0  0  0  0  0  0  0  0  0  0  0
   10.6525   23.3635   18.3073 C   0  0  0  0  0  0  0  0  0  0  0  0
   10.6470   24.5227   19.0658 C   0  0  0  0  0  0  0  0  0  0  0  0
   11.1651   24.5973   20.3383 C   0  0  0  0  0  0  0  0  0  0  0  0
  2  1  1  0
  1 14  2  0
  1 15  1  0
  4  2  2  0
  2  5  1  0
  3  4  1  0
  3  7  2  0
  8  3  1  0
  6  5  2  0
  7  6  1  0
 11  8  2  0
  8 13  1  0
 10  9  2  0
  9 12  1  0
 10 11  1  0
 12 13  2  0
 15 16  1  0
 17 16  1  6
 17 18  2  0
 17 19  2  0
 17 20  1  0
 20 21  2  0
 20 25  1  0
 21 22  1  0
 22 23  2  0
 23 24  1  0
 24 25  2  0
M  END
$$$$
