
     RDKit          3D

 25 27  0  0  0  0  0  0  0  0999 V2000
    5.3977   13.1263   18.3937 C   0  0  0  0  0  0  0  0  0  0  0  0
    5.2364   12.8892   16.9678 C   0  0  0  0  0  0  0  0  0  0  0  0
    5.7739   13.3240   14.6306 C   0  0  0  0  0  0  0  0  0  0  0  0
    5.9310   13.5509   15.9918 C   0  0  0  0  0  0  0  0  0  0  0  0
    4.3173   11.9289   16.5218 C   0  0  0  0  0  0  0  0  0  0  0  0
    4.1193   11.6623   15.2018 C   0  0  0  0  0  0  0  0  0  0  0  0
    4.8542   12.3667   14.2601 C   0  0  0  0  0  0  0  0  0  0  0  0
    6.5422   14.0576   13.6365 C   0  0  0  0  0  0  0  0  0  0  0  0
    8.0569   15.4464   11.7803 C   0  0  0  0  0  0  0  0  0  0  0  0
    8.6525   14.9997   12.9221 C   0  0  0  0  0  0  0  0  0  0  0  0
    7.8802   14.3083   13.8371 C   0  0  0  0  0  0  0  0  0  0  0  0
    6.7259   15.2129   11.5506 C   0  0  0  0  0  0  0  0  0  0  0  0
    5.9652   14.5192   12.4758 C   0  0  0  0  0  0  0  0  0  0  0  0
    4.9420   12.3043   19.2516 O   0  0  0  0  0  0  0  0  0  0  0  0
    6.0620   14.2705   18.8861 N   0  0  0  0  0  0  0  0  0  0  0  0
    5.9281   14.6668   20.2455 N   0  0  0  0  0  0  0  0  0  0  0  0
    7.4894   14.8462   20.9003 S   0  0  1  0  0  6  0  0  0  0  0  0
    8.2956   15.7221   19.9791 O   0  0  0  0  0  0  0  0  0  0  0  0
    7.3698   15.5693   22.2221 O   0  0  0  0  0  0  0  0  0  0  0  0
    8.2918   13.3329   21.1759 C   0  0  0  0  0  0  0  0  0  0  0  0
    8.0141   12.6250   22.3299 C   0  0  0  0  0  0  0  0  0  0  0  0
    8.6129   11.4062   22.6176 C   0  0  0  0  0  0  0  0  0  0  0  0
    9.5220   10.8549   21.7408 C   0  0  0  0  0  0  0  0  0  0  0  0
    9.7897   11.5766   20.5890 C   0  0  0  0  0  0  0  0  0  0  0  0
    9.1993   12.7851   20.2984 C   0  0  0  0  0  0  0  0  0  0  0  0
  2  1  1  0
  1 14  2  0
  1 15  1  0
  4  2  2  0
  2  5  1  0
  3  4  1  0
  3  7  2  0
  8  3  1  0
  6  5  2  0
  7  6  1  0
 11  8  2  0
  8 13  1  0
 10  9  2  0
  9 12  1  0
 10 11  1  0
 12 13  2  0
 15 16  1  0
 17 16  1  6
 17 18  2  0
 17 19  2  0
 17 20  1  0
 20 21  2  0
 20 25  1  0
 21 22  1  0
 22 23  2  0
 23 24  1  0
 24 25  2  0
M  END
$$$$
