
     RDKit          3D

 25 27  0  0  0  0  0  0  0  0999 V2000
   19.2451   31.9126   10.6457 C   0  0  0  0  0  0  0  0  0  0  0  0
   19.9745   30.6548   10.6039 C   0  0  0  0  0  0  0  0  0  0  0  0
   20.1685   28.2558   10.9873 C   0  0  0  0  0  0  0  0  0  0  0  0
   19.4694   29.4552   11.0267 C   0  0  0  0  0  0  0  0  0  0  0  0
   21.2850   30.6268   10.1064 C   0  0  0  0  0  0  0  0  0  0  0  0
   22.0198   29.4829   10.0429 C   0  0  0  0  0  0  0  0  0  0  0  0
   21.4520   28.2982   10.4869 C   0  0  0  0  0  0  0  0  0  0  0  0
   19.5793   27.0084   11.4496 C   0  0  0  0  0  0  0  0  0  0  0  0
   18.5117   24.6217   12.3618 C   0  0  0  0  0  0  0  0  0  0  0  0
   19.7873   24.9537   12.7092 C   0  0  0  0  0  0  0  0  0  0  0  0
   20.3032   26.1493   12.2442 C   0  0  0  0  0  0  0  0  0  0  0  0
   17.7644   25.4558   11.5715 C   0  0  0  0  0  0  0  0  0  0  0  0
   18.2942   26.6497   11.1135 C   0  0  0  0  0  0  0  0  0  0  0  0
   19.7899   33.0001   10.2717 O   0  0  0  0  0  0  0  0  0  0  0  0
   17.9102   31.9825   11.0998 N   0  0  0  0  0  0  0  0  0  0  0  0
   17.1677   33.1921   11.0075 N   0  0  0  0  0  0  0  0  0  0  0  0
   15.7350   33.0032   11.9076 S   0  0  1  0  0  6  0  0  0  0  0  0
   16.1021   32.5963   13.3095 O   0  0  0  0  0  0  0  0  0  0  0  0
   15.0467   34.3461   11.9921 O   0  0  0  0  0  0  0  0  0  0  0  0
   14.6306   31.8666   11.2017 C   0  0  0  0  0  0  0  0  0  0  0  0
   14.4576   30.6346   11.8035 C   0  0  0  0  0  0  0  0  0  0  0  0
   13.5893   29.6757   11.3002 C   0  0  0  0  0  0  0  0  0  0  0  0
   12.8585   29.9308   10.1600 C   0  0  0  0  0  0  0  0  0  0  0  0
   13.0432   31.1698    9.5686 C   0  0  0  0  0  0  0  0  0  0  0  0
   13.9023   32.1242   10.0629 C   0  0  0  0  0  0  0  0  0  0  0  0
  2  1  1  0
  1 14  2  0
  1 15  1  0
  4  2  2  0
  2  5  1  0
  3  4  1  0
  3  7  2  0
  8  3  1  0
  6  5  2  0
  7  6  1  0
 11  8  2  0
  8 13  1  0
 10  9  2  0
  9 12  1  0
 10 11  1  0
 12 13  2  0
 15 16  1  0
 17 16  1  6
 17 18  2  0
 17 19  2  0
 17 20  1  0
 20 21  2  0
 20 25  1  0
 21 22  1  0
 22 23  2  0
 23 24  1  0
 24 25  2  0
M  END
$$$$
