
     RDKit          3D

 25 27  0  0  0  0  0  0  0  0999 V2000
   14.9333   23.3127   18.7063 C   0  0  0  0  0  0  0  0  0  0  0  0
   15.9551   22.6437   17.9163 C   0  0  0  0  0  0  0  0  0  0  0  0
   18.0331   21.3911   17.6865 C   0  0  0  0  0  0  0  0  0  0  0  0
   17.0579   22.0278   18.4431 C   0  0  0  0  0  0  0  0  0  0  0  0
   15.8409   22.6063   16.5194 C   0  0  0  0  0  0  0  0  0  0  0  0
   16.7639   21.9979   15.7254 C   0  0  0  0  0  0  0  0  0  0  0  0
   17.8603   21.3909   16.3191 C   0  0  0  0  0  0  0  0  0  0  0  0
   19.1854   20.7505   18.3019 C   0  0  0  0  0  0  0  0  0  0  0  0
   21.3804   19.5781   19.5168 C   0  0  0  0  0  0  0  0  0  0  0  0
   20.9008   20.7560   20.0074 C   0  0  0  0  0  0  0  0  0  0  0  0
   19.8042   21.3262   19.3877 C   0  0  0  0  0  0  0  0  0  0  0  0
   20.7864   18.9790   18.4364 C   0  0  0  0  0  0  0  0  0  0  0  0
   19.6891   19.5616   17.8262 C   0  0  0  0  0  0  0  0  0  0  0  0
   13.9435   23.8863   18.1490 O   0  0  0  0  0  0  0  0  0  0  0  0
   14.9937   23.3554   20.1161 N   0  0  0  0  0  0  0  0  0  0  0  0
   13.8733   23.7763   20.8846 N   0  0  0  0  0  0  0  0  0  0  0  0
   14.2832   23.6465   22.5319 S   0  0  1  0  0  6  0  0  0  0  0  0
   13.0266   23.7852   23.3489 O   0  0  0  0  0  0  0  0  0  0  0  0
   14.8312   22.2593   22.7771 O   0  0  0  0  0  0  0  0  0  0  0  0
   15.4773   24.8018   23.0311 C   0  0  0  0  0  0  0  0  0  0  0  0
   16.8061   24.4235   23.0649 C   0  0  0  0  0  0  0  0  0  0  0  0
   17.8179   25.2927   23.4490 C   0  0  0  0  0  0  0  0  0  0  0  0
   17.5193   26.5870   23.8161 C   0  0  0  0  0  0  0  0  0  0  0  0
   16.1832   26.9507   23.7771 C   0  0  0  0  0  0  0  0  0  0  0  0
   15.1760   26.0936   23.3972 C   0  0  0  0  0  0  0  0  0  0  0  0
  2  1  1  0
  1 14  2  0
  1 15  1  0
  4  2  2  0
  2  5  1  0
  3  4  1  0
  3  7  2  0
  8  3  1  0
  6  5  2  0
  7  6  1  0
 11  8  2  0
  8 13  1  0
 10  9  2  0
  9 12  1  0
 10 11  1  0
 12 13  2  0
 15 16  1  0
 17 16  1  6
 17 18  2  0
 17 19  2  0
 17 20  1  0
 20 21  2  0
 20 25  1  0
 21 22  1  0
 22 23  2  0
 23 24  1  0
 24 25  2  0
M  END
$$$$
