
     RDKit          3D

 25 27  0  0  0  0  0  0  0  0999 V2000
   14.6750   22.9924   18.7292 C   0  0  0  0  0  0  0  0  0  0  0  0
   15.9068   22.5768   18.0770 C   0  0  0  0  0  0  0  0  0  0  0  0
   18.1597   21.6474   18.1054 C   0  0  0  0  0  0  0  0  0  0  0  0
   16.9838   22.0419   18.7304 C   0  0  0  0  0  0  0  0  0  0  0  0
   16.0408   22.7185   16.6885 C   0  0  0  0  0  0  0  0  0  0  0  0
   17.1680   22.3502   16.0203 C   0  0  0  0  0  0  0  0  0  0  0  0
   18.2258   21.8139   16.7389 C   0  0  0  0  0  0  0  0  0  0  0  0
   19.2734   21.0823   18.8519 C   0  0  0  0  0  0  0  0  0  0  0  0
   21.4076   19.9705   20.2220 C   0  0  0  0  0  0  0  0  0  0  0  0
   21.1334   19.5395   18.9582 C   0  0  0  0  0  0  0  0  0  0  0  0
   20.0639   20.1063   18.2900 C   0  0  0  0  0  0  0  0  0  0  0  0
   20.6391   20.9413   20.8100 C   0  0  0  0  0  0  0  0  0  0  0  0
   19.5715   21.4997   20.1287 C   0  0  0  0  0  0  0  0  0  0  0  0
   13.8889   23.8269   18.1770 O   0  0  0  0  0  0  0  0  0  0  0  0
   14.2992   22.4923   19.9949 N   0  0  0  0  0  0  0  0  0  0  0  0
   13.0500   22.8410   20.5786 N   0  0  0  0  0  0  0  0  0  0  0  0
   13.3313   23.3046   22.1924 S   0  0  1  0  0  6  0  0  0  0  0  0
   12.0765   23.0569   22.9859 O   0  0  0  0  0  0  0  0  0  0  0  0
   14.4100   22.4119   22.7618 O   0  0  0  0  0  0  0  0  0  0  0  0
   13.8478   24.9534   22.3486 C   0  0  0  0  0  0  0  0  0  0  0  0
   15.0348   25.3450   21.7590 C   0  0  0  0  0  0  0  0  0  0  0  0
   15.5108   26.6466   21.8370 C   0  0  0  0  0  0  0  0  0  0  0  0
   14.7970   27.6072   22.5204 C   0  0  0  0  0  0  0  0  0  0  0  0
   13.6097   27.1990   23.1058 C   0  0  0  0  0  0  0  0  0  0  0  0
   13.1328   25.9104   23.0317 C   0  0  0  0  0  0  0  0  0  0  0  0
  2  1  1  0
  1 14  2  0
  1 15  1  0
  4  2  2  0
  2  5  1  0
  3  4  1  0
  3  7  2  0
  8  3  1  0
  6  5  2  0
  7  6  1  0
 11  8  2  0
  8 13  1  0
 10  9  2  0
  9 12  1  0
 10 11  1  0
 12 13  2  0
 15 16  1  0
 17 16  1  6
 17 18  2  0
 17 19  2  0
 17 20  1  0
 20 21  2  0
 20 25  1  0
 21 22  1  0
 22 23  2  0
 23 24  1  0
 24 25  2  0
M  END
$$$$
