
     RDKit          3D

 25 27  0  0  0  0  0  0  0  0999 V2000
   17.8396   26.0394   20.3679 C   0  0  0  0  0  0  0  0  0  0  0  0
   18.5203   27.2091   20.9009 C   0  0  0  0  0  0  0  0  0  0  0  0
   19.5047   28.4924   22.7242 C   0  0  0  0  0  0  0  0  0  0  0  0
   18.8563   27.3736   22.2173 C   0  0  0  0  0  0  0  0  0  0  0  0
   18.8711   28.2610   20.0428 C   0  0  0  0  0  0  0  0  0  0  0  0
   19.5071   29.3819   20.4805 C   0  0  0  0  0  0  0  0  0  0  0  0
   19.8211   29.4896   21.8270 C   0  0  0  0  0  0  0  0  0  0  0  0
   19.8391   28.6123   24.1351 C   0  0  0  0  0  0  0  0  0  0  0  0
   20.4218   28.8089   26.8351 C   0  0  0  0  0  0  0  0  0  0  0  0
   19.2622   28.2054   26.4487 C   0  0  0  0  0  0  0  0  0  0  0  0
   18.9884   28.1167   25.0963 C   0  0  0  0  0  0  0  0  0  0  0  0
   21.2904   29.3128   25.9021 C   0  0  0  0  0  0  0  0  0  0  0  0
   21.0030   29.2166   24.5515 C   0  0  0  0  0  0  0  0  0  0  0  0
   17.5434   25.9581   19.1331 O   0  0  0  0  0  0  0  0  0  0  0  0
   17.4798   24.9501   21.1908 N   0  0  0  0  0  0  0  0  0  0  0  0
   16.7787   23.8320   20.6604 N   0  0  0  0  0  0  0  0  0  0  0  0
   16.3557   22.8105   21.9550 S   0  0  1  0  0  6  0  0  0  0  0  0
   15.8417   21.5130   21.3910 O   0  0  0  0  0  0  0  0  0  0  0  0
   17.6077   22.4972   22.7415 O   0  0  0  0  0  0  0  0  0  0  0  0
   15.1962   23.5198   23.0331 C   0  0  0  0  0  0  0  0  0  0  0  0
   15.5268   23.6798   24.3654 C   0  0  0  0  0  0  0  0  0  0  0  0
   14.6540   24.2426   25.2865 C   0  0  0  0  0  0  0  0  0  0  0  0
   13.4046   24.6672   24.8895 C   0  0  0  0  0  0  0  0  0  0  0  0
   13.0882   24.4998   23.5513 C   0  0  0  0  0  0  0  0  0  0  0  0
   13.9491   23.9428   22.6337 C   0  0  0  0  0  0  0  0  0  0  0  0
  2  1  1  0
  1 14  2  0
  1 15  1  0
  4  2  2  0
  2  5  1  0
  3  4  1  0
  3  7  2  0
  8  3  1  0
  6  5  2  0
  7  6  1  0
 11  8  2  0
  8 13  1  0
 10  9  2  0
  9 12  1  0
 10 11  1  0
 12 13  2  0
 15 16  1  0
 17 16  1  6
 17 18  2  0
 17 19  2  0
 17 20  1  0
 20 21  2  0
 20 25  1  0
 21 22  1  0
 22 23  2  0
 23 24  1  0
 24 25  2  0
M  END
$$$$
