
     RDKit          3D

 25 27  0  0  0  0  0  0  0  0999 V2000
   19.6962   28.5613   25.9590 C   0  0  0  0  0  0  0  0  0  0  0  0
   21.0576   28.0596   26.0598 C   0  0  0  0  0  0  0  0  0  0  0  0
   23.2228   27.4787   25.1035 C   0  0  0  0  0  0  0  0  0  0  0  0
   21.9237   27.9598   25.0049 C   0  0  0  0  0  0  0  0  0  0  0  0
   21.5536   27.6384   27.3018 C   0  0  0  0  0  0  0  0  0  0  0  0
   22.8171   27.1579   27.4609 C   0  0  0  0  0  0  0  0  0  0  0  0
   23.6475   27.0812   26.3529 C   0  0  0  0  0  0  0  0  0  0  0  0
   24.1008   27.3967   23.9462 C   0  0  0  0  0  0  0  0  0  0  0  0
   25.7678   27.3042   21.7369 C   0  0  0  0  0  0  0  0  0  0  0  0
   25.2538   28.5038   22.1306 C   0  0  0  0  0  0  0  0  0  0  0  0
   24.4235   28.5301   23.2359 C   0  0  0  0  0  0  0  0  0  0  0  0
   25.4657   26.1568   22.4233 C   0  0  0  0  0  0  0  0  0  0  0  0
   24.6329   26.1986   23.5281 C   0  0  0  0  0  0  0  0  0  0  0  0
   19.0735   28.9814   26.9861 O   0  0  0  0  0  0  0  0  0  0  0  0
   19.0097   28.6043   24.7261 N   0  0  0  0  0  0  0  0  0  0  0  0
   17.6900   29.1279   24.6406 N   0  0  0  0  0  0  0  0  0  0  0  0
   16.8456   28.2427   23.4565 S   0  0  1  0  0  6  0  0  0  0  0  0
   15.4444   28.7846   23.3643 O   0  0  0  0  0  0  0  0  0  0  0  0
   17.5115   28.4810   22.1207 O   0  0  0  0  0  0  0  0  0  0  0  0
   16.8306   26.5351   23.7627 C   0  0  0  0  0  0  0  0  0  0  0  0
   15.9911   26.0345   24.7398 C   0  0  0  0  0  0  0  0  0  0  0  0
   15.9207   24.6808   25.0385 C   0  0  0  0  0  0  0  0  0  0  0  0
   16.7038   23.7769   24.3537 C   0  0  0  0  0  0  0  0  0  0  0  0
   17.5399   24.2943   23.3778 C   0  0  0  0  0  0  0  0  0  0  0  0
   17.6139   25.6350   23.0772 C   0  0  0  0  0  0  0  0  0  0  0  0
  2  1  1  0
  1 14  2  0
  1 15  1  0
  4  2  2  0
  2  5  1  0
  3  4  1  0
  3  7  2  0
  8  3  1  0
  6  5  2  0
  7  6  1  0
 11  8  2  0
  8 13  1  0
 10  9  2  0
  9 12  1  0
 10 11  1  0
 12 13  2  0
 15 16  1  0
 17 16  1  1
 17 18  2  0
 17 19  2  0
 17 20  1  0
 20 21  2  0
 20 25  1  0
 21 22  1  0
 22 23  2  0
 23 24  1  0
 24 25  2  0
M  END
$$$$
