
     RDKit          3D

 25 27  0  0  0  0  0  0  0  0999 V2000
   17.0958   23.7098   21.4852 C   0  0  0  0  0  0  0  0  0  0  0  0
   17.1560   25.0031   22.1481 C   0  0  0  0  0  0  0  0  0  0  0  0
   16.1695   26.8118   23.4502 C   0  0  0  0  0  0  0  0  0  0  0  0
   16.1100   25.5758   22.8195 C   0  0  0  0  0  0  0  0  0  0  0  0
   18.3455   25.7449   22.1193 C   0  0  0  0  0  0  0  0  0  0  0  0
   18.4646   26.9611   22.7185 C   0  0  0  0  0  0  0  0  0  0  0  0
   17.3682   27.4887   23.3838 C   0  0  0  0  0  0  0  0  0  0  0  0
   15.0243   27.3715   24.1517 C   0  0  0  0  0  0  0  0  0  0  0  0
   12.8834   28.4540   25.5348 C   0  0  0  0  0  0  0  0  0  0  0  0
   14.1219   28.4791   26.1037 C   0  0  0  0  0  0  0  0  0  0  0  0
   15.1785   27.9338   25.3980 C   0  0  0  0  0  0  0  0  0  0  0  0
   12.6965   27.9011   24.2946 C   0  0  0  0  0  0  0  0  0  0  0  0
   13.7639   27.3589   23.5999 C   0  0  0  0  0  0  0  0  0  0  0  0
   18.0704   23.2842   20.7866 O   0  0  0  0  0  0  0  0  0  0  0  0
   15.9616   22.8753   21.5864 N   0  0  0  0  0  0  0  0  0  0  0  0
   15.9279   21.6049   20.9478 N   0  0  0  0  0  0  0  0  0  0  0  0
   14.3318   21.3148   20.4313 S   0  0  1  0  0  6  0  0  0  0  0  0
   14.1745   19.8405   20.1719 O   0  0  0  0  0  0  0  0  0  0  0  0
   13.3941   21.6780   21.5597 O   0  0  0  0  0  0  0  0  0  0  0  0
   13.8883   22.2406   19.0327 C   0  0  0  0  0  0  0  0  0  0  0  0
   14.3628   21.8556   17.7932 C   0  0  0  0  0  0  0  0  0  0  0  0
   14.0481   22.5433   16.6292 C   0  0  0  0  0  0  0  0  0  0  0  0
   13.2352   23.6550   16.6778 C   0  0  0  0  0  0  0  0  0  0  0  0
   12.7679   24.0282   17.9273 C   0  0  0  0  0  0  0  0  0  0  0  0
   13.0764   23.3505   19.0844 C   0  0  0  0  0  0  0  0  0  0  0  0
  2  1  1  0
  1 14  2  0
  1 15  1  0
  4  2  2  0
  2  5  1  0
  3  4  1  0
  3  7  2  0
  8  3  1  0
  6  5  2  0
  7  6  1  0
 11  8  2  0
  8 13  1  0
 10  9  2  0
  9 12  1  0
 10 11  1  0
 12 13  2  0
 15 16  1  0
 17 16  1  1
 17 18  2  0
 17 19  2  0
 17 20  1  0
 20 21  2  0
 20 25  1  0
 21 22  1  0
 22 23  2  0
 23 24  1  0
 24 25  2  0
M  END
$$$$
