
     RDKit          3D

 25 27  0  0  0  0  0  0  0  0999 V2000
   14.6577   23.1230   18.6461 C   0  0  0  0  0  0  0  0  0  0  0  0
   15.7942   22.5360   17.9538 C   0  0  0  0  0  0  0  0  0  0  0  0
   17.9989   21.4978   17.9137 C   0  0  0  0  0  0  0  0  0  0  0  0
   16.9141   22.0563   18.5772 C   0  0  0  0  0  0  0  0  0  0  0  0
   15.7820   22.4381   16.5552 C   0  0  0  0  0  0  0  0  0  0  0  0
   16.8147   21.9010   15.8497 C   0  0  0  0  0  0  0  0  0  0  0  0
   17.9226   21.4318   16.5392 C   0  0  0  0  0  0  0  0  0  0  0  0
   19.1643   21.0018   18.6298 C   0  0  0  0  0  0  0  0  0  0  0  0
   21.3896   20.0126   19.9479 C   0  0  0  0  0  0  0  0  0  0  0  0
   20.9615   19.3930   18.8118 C   0  0  0  0  0  0  0  0  0  0  0  0
   19.8487   19.9012   18.1675 C   0  0  0  0  0  0  0  0  0  0  0  0
   20.7298   21.1111   20.4344 C   0  0  0  0  0  0  0  0  0  0  0  0
   19.6170   21.6088   19.7786 C   0  0  0  0  0  0  0  0  0  0  0  0
   13.6794   23.6176   18.0000 O   0  0  0  0  0  0  0  0  0  0  0  0
   14.5898   23.1701   20.0555 N   0  0  0  0  0  0  0  0  0  0  0  0
   13.3807   23.5172   20.7192 N   0  0  0  0  0  0  0  0  0  0  0  0
   13.7136   23.6633   22.3824 S   0  0  1  0  0  6  0  0  0  0  0  0
   12.4471   24.0662   23.0891 O   0  0  0  0  0  0  0  0  0  0  0  0
   14.1119   22.3034   22.9083 O   0  0  0  0  0  0  0  0  0  0  0  0
   14.9966   24.7793   22.7261 C   0  0  0  0  0  0  0  0  0  0  0  0
   14.7389   26.1362   22.6766 C   0  0  0  0  0  0  0  0  0  0  0  0
   15.7126   27.0889   22.9430 C   0  0  0  0  0  0  0  0  0  0  0  0
   16.9931   26.7000   23.2718 C   0  0  0  0  0  0  0  0  0  0  0  0
   17.2355   25.3369   23.3170 C   0  0  0  0  0  0  0  0  0  0  0  0
   16.2745   24.3879   23.0540 C   0  0  0  0  0  0  0  0  0  0  0  0
  2  1  1  0
  1 14  2  0
  1 15  1  0
  4  2  2  0
  2  5  1  0
  3  4  1  0
  3  7  2  0
  8  3  1  0
  6  5  2  0
  7  6  1  0
 11  8  2  0
  8 13  1  0
 10  9  2  0
  9 12  1  0
 10 11  1  0
 12 13  2  0
 15 16  1  0
 17 16  1  6
 17 18  2  0
 17 19  2  0
 17 20  1  0
 20 21  2  0
 20 25  1  0
 21 22  1  0
 22 23  2  0
 23 24  1  0
 24 25  2  0
M  END
$$$$
