
     RDKit          3D

 25 27  0  0  0  0  0  0  0  0999 V2000
   17.0326   23.5456   18.5869 C   0  0  0  0  0  0  0  0  0  0  0  0
   17.4898   22.4584   17.7357 C   0  0  0  0  0  0  0  0  0  0  0  0
   18.1423   20.1415   17.3533 C   0  0  0  0  0  0  0  0  0  0  0  0
   17.7041   21.1776   18.1677 C   0  0  0  0  0  0  0  0  0  0  0  0
   17.7407   22.6969   16.3771 C   0  0  0  0  0  0  0  0  0  0  0  0
   18.1714   21.7225   15.5299 C   0  0  0  0  0  0  0  0  0  0  0  0
   18.3702   20.4436   16.0280 C   0  0  0  0  0  0  0  0  0  0  0  0
   18.3517   18.7968   17.8678 C   0  0  0  0  0  0  0  0  0  0  0  0
   18.8067   16.2354   18.8169 C   0  0  0  0  0  0  0  0  0  0  0  0
   19.7285   16.8119   17.9947 C   0  0  0  0  0  0  0  0  0  0  0  0
   19.4840   18.0912   17.5308 C   0  0  0  0  0  0  0  0  0  0  0  0
   17.6684   16.9118   19.1714 C   0  0  0  0  0  0  0  0  0  0  0  0
   17.4371   18.1922   18.6992 C   0  0  0  0  0  0  0  0  0  0  0  0
   16.6330   24.6461   18.0884 O   0  0  0  0  0  0  0  0  0  0  0  0
   17.0122   23.4295   19.9938 N   0  0  0  0  0  0  0  0  0  0  0  0
   16.7419   24.5568   20.8177 N   0  0  0  0  0  0  0  0  0  0  0  0
   15.6405   24.0779   22.0245 S   0  0  1  0  0  6  0  0  0  0  0  0
   16.0269   22.7050   22.5057 O   0  0  0  0  0  0  0  0  0  0  0  0
   15.7788   25.0231   23.1958 O   0  0  0  0  0  0  0  0  0  0  0  0
   13.9898   24.1058   21.4917 C   0  0  0  0  0  0  0  0  0  0  0  0
   13.4643   25.2822   20.9918 C   0  0  0  0  0  0  0  0  0  0  0  0
   12.1545   25.3808   20.5429 C   0  0  0  0  0  0  0  0  0  0  0  0
   11.3219   24.2834   20.5839 C   0  0  0  0  0  0  0  0  0  0  0  0
   11.8633   23.1120   21.0877 C   0  0  0  0  0  0  0  0  0  0  0  0
   13.1607   23.0082   21.5340 C   0  0  0  0  0  0  0  0  0  0  0  0
  2  1  1  0
  1 14  2  0
  1 15  1  0
  4  2  2  0
  2  5  1  0
  3  4  1  0
  3  7  2  0
  8  3  1  0
  6  5  2  0
  7  6  1  0
 11  8  2  0
  8 13  1  0
 10  9  2  0
  9 12  1  0
 10 11  1  0
 12 13  2  0
 15 16  1  0
 17 16  1  6
 17 18  2  0
 17 19  2  0
 17 20  1  0
 20 21  2  0
 20 25  1  0
 21 22  1  0
 22 23  2  0
 23 24  1  0
 24 25  2  0
M  END
$$$$
