
     RDKit          3D

 25 27  0  0  0  0  0  0  0  0999 V2000
   14.3847   23.2537   18.8309 C   0  0  0  0  0  0  0  0  0  0  0  0
   15.5581   22.9233   18.0373 C   0  0  0  0  0  0  0  0  0  0  0  0
   17.7932   21.9890   17.7706 C   0  0  0  0  0  0  0  0  0  0  0  0
   16.6733   22.3018   18.5302 C   0  0  0  0  0  0  0  0  0  0  0  0
   15.5894   23.2478   16.6736 C   0  0  0  0  0  0  0  0  0  0  0  0
   16.6579   22.9669   15.8786 C   0  0  0  0  0  0  0  0  0  0  0  0
   17.7590   22.3354   16.4371 C   0  0  0  0  0  0  0  0  0  0  0  0
   18.9517   21.3251   18.3487 C   0  0  0  0  0  0  0  0  0  0  0  0
   21.1179   20.0321   19.4907 C   0  0  0  0  0  0  0  0  0  0  0  0
   19.8745   19.8305   20.0118 C   0  0  0  0  0  0  0  0  0  0  0  0
   18.8052   20.4847   19.4283 C   0  0  0  0  0  0  0  0  0  0  0  0
   21.2972   20.8632   18.4155 C   0  0  0  0  0  0  0  0  0  0  0  0
   20.2172   21.5114   17.8417 C   0  0  0  0  0  0  0  0  0  0  0  0
   13.5069   24.0667   18.3978 O   0  0  0  0  0  0  0  0  0  0  0  0
   14.1691   22.6913   20.1078 N   0  0  0  0  0  0  0  0  0  0  0  0
   12.9519   22.9130   20.8095 N   0  0  0  0  0  0  0  0  0  0  0  0
   13.3367   23.4148   22.3902 S   0  0  1  0  0  6  0  0  0  0  0  0
   12.0754   23.4141   23.2116 O   0  0  0  0  0  0  0  0  0  0  0  0
   14.2725   22.3950   22.9976 O   0  0  0  0  0  0  0  0  0  0  0  0
   14.1103   24.9667   22.4442 C   0  0  0  0  0  0  0  0  0  0  0  0
   15.4765   25.0305   22.6425 C   0  0  0  0  0  0  0  0  0  0  0  0
   16.1658   26.2342   22.6932 C   0  0  0  0  0  0  0  0  0  0  0  0
   15.4921   27.4271   22.5440 C   0  0  0  0  0  0  0  0  0  0  0  0
   14.1233   27.3464   22.3463 C   0  0  0  0  0  0  0  0  0  0  0  0
   13.4347   26.1562   22.2950 C   0  0  0  0  0  0  0  0  0  0  0  0
  2  1  1  0
  1 14  2  0
  1 15  1  0
  4  2  2  0
  2  5  1  0
  3  4  1  0
  3  7  2  0
  8  3  1  0
  6  5  2  0
  7  6  1  0
 11  8  2  0
  8 13  1  0
 10  9  2  0
  9 12  1  0
 10 11  1  0
 12 13  2  0
 15 16  1  0
 17 16  1  6
 17 18  2  0
 17 19  2  0
 17 20  1  0
 20 21  2  0
 20 25  1  0
 21 22  1  0
 22 23  2  0
 23 24  1  0
 24 25  2  0
M  END
$$$$
