
     RDKit          3D

 25 27  0  0  0  0  0  0  0  0999 V2000
   15.9787   24.2379   22.0306 C   0  0  0  0  0  0  0  0  0  0  0  0
   17.4203   24.0798   22.1423 C   0  0  0  0  0  0  0  0  0  0  0  0
   19.5578   23.1705   21.4046 C   0  0  0  0  0  0  0  0  0  0  0  0
   18.1815   23.3213   21.2948 C   0  0  0  0  0  0  0  0  0  0  0  0
   18.1136   24.7292   23.1736 C   0  0  0  0  0  0  0  0  0  0  0  0
   19.4609   24.6195   23.3323 C   0  0  0  0  0  0  0  0  0  0  0  0
   20.1774   23.8357   22.4405 C   0  0  0  0  0  0  0  0  0  0  0  0
   20.3170   22.3514   20.4721 C   0  0  0  0  0  0  0  0  0  0  0  0
   21.7214   20.8092   18.6507 C   0  0  0  0  0  0  0  0  0  0  0  0
   20.6044   21.4721   18.2371 C   0  0  0  0  0  0  0  0  0  0  0  0
   19.9164   22.2370   19.1607 C   0  0  0  0  0  0  0  0  0  0  0  0
   22.1468   20.9026   19.9504 C   0  0  0  0  0  0  0  0  0  0  0  0
   21.4478   21.6723   20.8640 C   0  0  0  0  0  0  0  0  0  0  0  0
   15.2977   24.7396   22.9813 O   0  0  0  0  0  0  0  0  0  0  0  0
   15.2758   23.8447   20.8712 N   0  0  0  0  0  0  0  0  0  0  0  0
   13.8825   24.0975   20.7384 N   0  0  0  0  0  0  0  0  0  0  0  0
   13.2181   22.8879   19.7415 S   0  0  1  0  0  6  0  0  0  0  0  0
   13.2797   21.5761   20.4769 O   0  0  0  0  0  0  0  0  0  0  0  0
   11.7592   23.2098   19.5123 O   0  0  0  0  0  0  0  0  0  0  0  0
   14.0007   22.7701   18.1977 C   0  0  0  0  0  0  0  0  0  0  0  0
   14.8604   21.7148   17.9584 C   0  0  0  0  0  0  0  0  0  0  0  0
   15.5193   21.5513   16.7477 C   0  0  0  0  0  0  0  0  0  0  0  0
   15.3308   22.4574   15.7266 C   0  0  0  0  0  0  0  0  0  0  0  0
   14.4665   23.5094   15.9821 C   0  0  0  0  0  0  0  0  0  0  0  0
   13.8106   23.6766   17.1800 C   0  0  0  0  0  0  0  0  0  0  0  0
  2  1  1  0
  1 14  2  0
  1 15  1  0
  4  2  2  0
  2  5  1  0
  3  4  1  0
  3  7  2  0
  8  3  1  0
  6  5  2  0
  7  6  1  0
 11  8  2  0
  8 13  1  0
 10  9  2  0
  9 12  1  0
 10 11  1  0
 12 13  2  0
 15 16  1  0
 17 16  1  1
 17 18  2  0
 17 19  2  0
 17 20  1  0
 20 21  2  0
 20 25  1  0
 21 22  1  0
 22 23  2  0
 23 24  1  0
 24 25  2  0
M  END
$$$$
