
     RDKit          3D

 25 27  0  0  0  0  0  0  0  0999 V2000
   17.0012   24.1633   21.2925 C   0  0  0  0  0  0  0  0  0  0  0  0
   17.2285   23.0639   20.3677 C   0  0  0  0  0  0  0  0  0  0  0  0
   17.5275   22.1514   18.1276 C   0  0  0  0  0  0  0  0  0  0  0  0
   17.3121   23.2031   19.0088 C   0  0  0  0  0  0  0  0  0  0  0  0
   17.3751   21.7594   20.8603 C   0  0  0  0  0  0  0  0  0  0  0  0
   17.5879   20.6892   20.0468 C   0  0  0  0  0  0  0  0  0  0  0  0
   17.6630   20.8948   18.6775 C   0  0  0  0  0  0  0  0  0  0  0  0
   17.6092   22.3591   16.6899 C   0  0  0  0  0  0  0  0  0  0  0  0
   17.8140   22.7137   13.9512 C   0  0  0  0  0  0  0  0  0  0  0  0
   18.7039   21.8969   14.5829 C   0  0  0  0  0  0  0  0  0  0  0  0
   18.5858   21.7322   15.9506 C   0  0  0  0  0  0  0  0  0  0  0  0
   16.8294   23.3526   14.6591 C   0  0  0  0  0  0  0  0  0  0  0  0
   16.7235   23.1782   16.0281 C   0  0  0  0  0  0  0  0  0  0  0  0
   17.2085   25.3690   20.9427 O   0  0  0  0  0  0  0  0  0  0  0  0
   16.5439   23.9433   22.6100 N   0  0  0  0  0  0  0  0  0  0  0  0
   16.9013   24.8263   23.6661 N   0  0  0  0  0  0  0  0  0  0  0  0
   15.7908   26.1167   23.6753 S   0  0  1  0  0  6  0  0  0  0  0  0
   16.5599   27.4078   23.7609 O   0  0  0  0  0  0  0  0  0  0  0  0
   15.0522   26.1169   22.3566 O   0  0  0  0  0  0  0  0  0  0  0  0
   14.6246   26.0043   24.9548 C   0  0  0  0  0  0  0  0  0  0  0  0
   14.8593   26.6760   26.1395 C   0  0  0  0  0  0  0  0  0  0  0  0
   13.9714   26.6370   27.2057 C   0  0  0  0  0  0  0  0  0  0  0  0
   12.8041   25.9108   27.1111 C   0  0  0  0  0  0  0  0  0  0  0  0
   12.5834   25.2431   25.9175 C   0  0  0  0  0  0  0  0  0  0  0  0
   13.4598   25.2781   24.8573 C   0  0  0  0  0  0  0  0  0  0  0  0
  2  1  1  0
  1 14  2  0
  1 15  1  0
  4  2  2  0
  2  5  1  0
  3  4  1  0
  3  7  2  0
  8  3  1  0
  6  5  2  0
  7  6  1  0
 11  8  2  0
  8 13  1  0
 10  9  2  0
  9 12  1  0
 10 11  1  0
 12 13  2  0
 15 16  1  0
 17 16  1  6
 17 18  2  0
 17 19  2  0
 17 20  1  0
 20 21  2  0
 20 25  1  0
 21 22  1  0
 22 23  2  0
 23 24  1  0
 24 25  2  0
M  END
$$$$
