
     RDKit          3D

 25 27  0  0  0  0  0  0  0  0999 V2000
   17.0246   22.6163   19.4199 C   0  0  0  0  0  0  0  0  0  0  0  0
   18.2659   22.1862   20.0442 C   0  0  0  0  0  0  0  0  0  0  0  0
   20.0357   22.3992   21.7063 C   0  0  0  0  0  0  0  0  0  0  0  0
   18.8493   22.8109   21.1130 C   0  0  0  0  0  0  0  0  0  0  0  0
   18.9418   21.0629   19.5471 C   0  0  0  0  0  0  0  0  0  0  0  0
   20.1074   20.6118   20.0861 C   0  0  0  0  0  0  0  0  0  0  0  0
   20.6490   21.2881   21.1688 C   0  0  0  0  0  0  0  0  0  0  0  0
   20.6095   23.1022   22.8435 C   0  0  0  0  0  0  0  0  0  0  0  0
   21.7599   24.4324   24.9826 C   0  0  0  0  0  0  0  0  0  0  0  0
   22.5644   23.9282   24.0045 C   0  0  0  0  0  0  0  0  0  0  0  0
   21.9719   23.2671   22.9444 C   0  0  0  0  0  0  0  0  0  0  0  0
   20.3990   24.2849   24.9114 C   0  0  0  0  0  0  0  0  0  0  0  0
   19.8199   23.6207   23.8440 C   0  0  0  0  0  0  0  0  0  0  0  0
   16.8676   22.5528   18.1588 O   0  0  0  0  0  0  0  0  0  0  0  0
   15.9465   23.1198   20.1797 N   0  0  0  0  0  0  0  0  0  0  0  0
   14.8894   23.8429   19.5612 N   0  0  0  0  0  0  0  0  0  0  0  0
   13.9373   24.5408   20.7880 S   0  0  1  0  0  6  0  0  0  0  0  0
   14.8364   24.9129   21.9365 O   0  0  0  0  0  0  0  0  0  0  0  0
   13.3352   25.8194   20.2524 O   0  0  0  0  0  0  0  0  0  0  0  0
   12.6472   23.5101   21.3200 C   0  0  0  0  0  0  0  0  0  0  0  0
   12.8564   22.6737   22.4001 C   0  0  0  0  0  0  0  0  0  0  0  0
   11.8716   21.8245   22.8856 C   0  0  0  0  0  0  0  0  0  0  0  0
   10.6290   21.7904   22.2908 C   0  0  0  0  0  0  0  0  0  0  0  0
   10.4351   22.6343   21.2095 C   0  0  0  0  0  0  0  0  0  0  0  0
   11.4073   23.4782   20.7238 C   0  0  0  0  0  0  0  0  0  0  0  0
  2  1  1  0
  1 14  2  0
  1 15  1  0
  4  2  2  0
  2  5  1  0
  3  4  1  0
  3  7  2  0
  8  3  1  0
  6  5  2  0
  7  6  1  0
 11  8  2  0
  8 13  1  0
 10  9  2  0
  9 12  1  0
 10 11  1  0
 12 13  2  0
 15 16  1  0
 17 16  1  6
 17 18  2  0
 17 19  2  0
 17 20  1  0
 20 21  2  0
 20 25  1  0
 21 22  1  0
 22 23  2  0
 23 24  1  0
 24 25  2  0
M  END
$$$$
