
     RDKit          3D

 25 27  0  0  0  0  0  0  0  0999 V2000
   17.8030   22.4284   21.3349 C   0  0  0  0  0  0  0  0  0  0  0  0
   18.6115   21.2512   21.0591 C   0  0  0  0  0  0  0  0  0  0  0  0
   20.3016   20.0401   19.7874 C   0  0  0  0  0  0  0  0  0  0  0  0
   19.5319   21.1661   20.0499 C   0  0  0  0  0  0  0  0  0  0  0  0
   18.4676   20.1062   21.8555 C   0  0  0  0  0  0  0  0  0  0  0  0
   19.1931   18.9736   21.6472 C   0  0  0  0  0  0  0  0  0  0  0  0
   20.1107   18.9492   20.6077 C   0  0  0  0  0  0  0  0  0  0  0  0
   21.2675   20.0071   18.6999 C   0  0  0  0  0  0  0  0  0  0  0  0
   23.1208   20.0054   16.6423 C   0  0  0  0  0  0  0  0  0  0  0  0
   22.9155   21.1525   17.3495 C   0  0  0  0  0  0  0  0  0  0  0  0
   21.9862   21.1341   18.3732 C   0  0  0  0  0  0  0  0  0  0  0  0
   22.4208   18.8659   16.9430 C   0  0  0  0  0  0  0  0  0  0  0  0
   21.4936   18.8625   17.9706 C   0  0  0  0  0  0  0  0  0  0  0  0
   17.6692   22.8698   22.5209 O   0  0  0  0  0  0  0  0  0  0  0  0
   17.1354   23.1287   20.3068 N   0  0  0  0  0  0  0  0  0  0  0  0
   16.2890   24.2327   20.6028 N   0  0  0  0  0  0  0  0  0  0  0  0
   14.7227   23.8619   20.0481 S   0  0  1  0  0  6  0  0  0  0  0  0
   14.2861   22.5677   20.6806 O   0  0  0  0  0  0  0  0  0  0  0  0
   13.7804   24.9411   20.5298 O   0  0  0  0  0  0  0  0  0  0  0  0
   14.6143   23.7739   18.3189 C   0  0  0  0  0  0  0  0  0  0  0  0
   15.2997   24.6987   17.5542 C   0  0  0  0  0  0  0  0  0  0  0  0
   15.2647   24.6895   16.1666 C   0  0  0  0  0  0  0  0  0  0  0  0
   14.5287   23.7362   15.4968 C   0  0  0  0  0  0  0  0  0  0  0  0
   13.8473   22.8166   16.2773 C   0  0  0  0  0  0  0  0  0  0  0  0
   13.8782   22.8207   17.6529 C   0  0  0  0  0  0  0  0  0  0  0  0
  2  1  1  0
  1 14  2  0
  1 15  1  0
  4  2  2  0
  2  5  1  0
  3  4  1  0
  3  7  2  0
  8  3  1  0
  6  5  2  0
  7  6  1  0
 11  8  2  0
  8 13  1  0
 10  9  2  0
  9 12  1  0
 10 11  1  0
 12 13  2  0
 15 16  1  0
 17 16  1  6
 17 18  2  0
 17 19  2  0
 17 20  1  0
 20 21  2  0
 20 25  1  0
 21 22  1  0
 22 23  2  0
 23 24  1  0
 24 25  2  0
M  END
$$$$
