
     RDKit          3D

 25 27  0  0  0  0  0  0  0  0999 V2000
   18.3017   22.4622   21.2539 C   0  0  0  0  0  0  0  0  0  0  0  0
   18.4248   22.0830   19.8551 C   0  0  0  0  0  0  0  0  0  0  0  0
   17.6188   22.0141   17.5560 C   0  0  0  0  0  0  0  0  0  0  0  0
   17.4998   22.3789   18.8909 C   0  0  0  0  0  0  0  0  0  0  0  0
   19.5495   21.3645   19.4255 C   0  0  0  0  0  0  0  0  0  0  0  0
   19.7219   20.9792   18.1315 C   0  0  0  0  0  0  0  0  0  0  0  0
   18.7485   21.3093   17.2005 C   0  0  0  0  0  0  0  0  0  0  0  0
   16.6029   22.3580   16.5729 C   0  0  0  0  0  0  0  0  0  0  0  0
   14.6243   23.0041   14.7464 C   0  0  0  0  0  0  0  0  0  0  0  0
   14.2680   22.6555   16.0151 C   0  0  0  0  0  0  0  0  0  0  0  0
   15.2698   22.3361   16.9130 C   0  0  0  0  0  0  0  0  0  0  0  0
   15.9437   23.0356   14.3762 C   0  0  0  0  0  0  0  0  0  0  0  0
   16.9358   22.7134   15.2860 C   0  0  0  0  0  0  0  0  0  0  0  0
   19.2680   22.2992   22.0657 O   0  0  0  0  0  0  0  0  0  0  0  0
   17.1135   23.0238   21.7696 N   0  0  0  0  0  0  0  0  0  0  0  0
   17.0023   23.3656   23.1457 N   0  0  0  0  0  0  0  0  0  0  0  0
   17.1276   25.0580   23.2821 S   0  0  1  0  0  6  0  0  0  0  0  0
   18.5680   25.4108   23.5396 O   0  0  0  0  0  0  0  0  0  0  0  0
   16.7420   25.6711   21.9555 O   0  0  0  0  0  0  0  0  0  0  0  0
   16.0981   25.7217   24.5106 C   0  0  0  0  0  0  0  0  0  0  0  0
   14.8344   25.1911   24.6879 C   0  0  0  0  0  0  0  0  0  0  0  0
   13.9562   25.6661   25.6521 C   0  0  0  0  0  0  0  0  0  0  0  0
   14.3278   26.7042   26.4788 C   0  0  0  0  0  0  0  0  0  0  0  0
   15.5972   27.2253   26.2886 C   0  0  0  0  0  0  0  0  0  0  0  0
   16.4721   26.7585   25.3346 C   0  0  0  0  0  0  0  0  0  0  0  0
  2  1  1  0
  1 14  2  0
  1 15  1  0
  4  2  2  0
  2  5  1  0
  3  4  1  0
  3  7  2  0
  8  3  1  0
  6  5  2  0
  7  6  1  0
 11  8  2  0
  8 13  1  0
 10  9  2  0
  9 12  1  0
 10 11  1  0
 12 13  2  0
 15 16  1  0
 17 16  1  6
 17 18  2  0
 17 19  2  0
 17 20  1  0
 20 21  2  0
 20 25  1  0
 21 22  1  0
 22 23  2  0
 23 24  1  0
 24 25  2  0
M  END
$$$$
