
     RDKit          3D

 22 24  0  0  0  0  0  0  0  0999 V2000
  -22.0332   19.6650  136.4933 O   0  0  0  0  0  1  0  0  0  0  0  0
  -21.4144   18.7253  135.6989 C   0  0  0  0  0  0  0  0  0  0  0  0
  -21.2393   18.9839  134.4926 O   0  0  0  0  0  0  0  0  0  0  0  0
  -20.9880   17.4599  136.3078 C   0  0  0  0  0  0  0  0  0  0  0  0
  -21.1150   17.2337  137.5543 N   0  0  0  0  0  0  0  0  0  0  0  0
  -20.3991   16.4441  135.4166 C   0  0  0  0  0  0  0  0  0  0  0  0
  -19.2939   16.9324  134.7178 O   0  0  0  0  0  0  0  0  0  0  0  0
  -19.9910   15.1995  136.0790 C   0  0  0  0  0  0  0  0  0  0  0  0
  -19.4723   14.2291  135.4732 O   0  0  0  0  0  0  0  0  0  0  0  0
  -20.1936   15.0709  137.5173 C   0  0  0  0  0  0  0  0  0  0  0  0
  -20.7293   16.0435  138.2129 C   0  0  0  0  0  0  0  0  0  0  0  0
  -20.9233   15.8904  139.6612 C   0  0  0  0  0  0  0  0  0  0  0  0
  -21.6462   16.8755  140.3539 C   0  0  0  0  0  0  0  0  0  0  0  0
  -20.4542   14.8544  140.4116 C   0  0  0  0  0  0  0  0  0  0  0  0
  -20.6750   14.7692  141.7899 C   0  0  0  0  0  0  0  0  0  0  0  0
  -21.3852   15.7580  142.4070 C   0  0  0  0  0  0  0  0  0  0  0  0
  -21.8838   16.8277  141.7050 C   0  0  0  0  0  0  0  0  0  0  0  0
  -22.6517   17.8928  142.3842 C   0  0  0  0  0  0  0  0  0  0  0  0
  -22.5499   18.2694  143.6684 N   0  0  0  0  0  0  0  0  0  0  0  0
  -23.4011   19.2595  143.9156 N   0  0  0  0  0  0  0  0  0  0  0  0
  -24.0452   19.5142  142.7902 N   0  0  0  0  0  0  0  0  0  0  0  0
  -23.5929   18.6802  141.8420 N   0  0  0  0  0  0  0  0  0  0  0  0
  1  2  1  0
  2  3  2  0
  2  4  1  0
  4  5  2  0
  4  6  1  0
  5 11  1  0
  6  7  1  0
  6  8  1  0
  8  9  2  0
  8 10  1  0
 10 11  2  0
 11 12  1  0
 12 13  2  0
 12 14  1  0
 13 17  1  0
 14 15  2  0
 15 16  1  0
 16 17  2  0
 17 18  1  0
 18 19  2  0
 18 22  1  0
 19 20  1  0
 20 21  2  0
 21 22  1  0
M  CHG  1   1  -1
M  END
$$$$
