
     RDKit          3D

 22 24  0  0  0  0  0  0  0  0999 V2000
  -22.5165   18.6312  136.3297 O   0  0  0  0  0  1  0  0  0  0  0  0
  -21.5870   17.8827  135.6419 C   0  0  0  0  0  0  0  0  0  0  0  0
  -21.3869   18.1367  134.4386 O   0  0  0  0  0  0  0  0  0  0  0  0
  -20.8726   16.8182  136.3564 C   0  0  0  0  0  0  0  0  0  0  0  0
  -21.0446   16.6065  137.6001 N   0  0  0  0  0  0  0  0  0  0  0  0
  -19.9356   15.9899  135.5762 C   0  0  0  0  0  0  0  0  0  0  0  0
  -18.9581   16.7563  134.9398 O   0  0  0  0  0  0  0  0  0  0  0  0
  -19.2496   14.9417  136.3412 C   0  0  0  0  0  0  0  0  0  0  0  0
  -18.4193   14.1457  135.8368 O   0  0  0  0  0  0  0  0  0  0  0  0
  -19.5396   14.8076  137.7640 C   0  0  0  0  0  0  0  0  0  0  0  0
  -20.3952   15.6037  138.3563 C   0  0  0  0  0  0  0  0  0  0  0  0
  -20.6708   15.4489  139.7911 C   0  0  0  0  0  0  0  0  0  0  0  0
  -21.3831   16.4610  140.4553 C   0  0  0  0  0  0  0  0  0  0  0  0
  -20.2890   14.3870  140.5545 C   0  0  0  0  0  0  0  0  0  0  0  0
  -20.5845   14.3018  141.9187 C   0  0  0  0  0  0  0  0  0  0  0  0
  -21.2800   15.3176  142.5080 C   0  0  0  0  0  0  0  0  0  0  0  0
  -21.6924   16.4142  141.7918 C   0  0  0  0  0  0  0  0  0  0  0  0
  -22.4452   17.5084  142.4409 C   0  0  0  0  0  0  0  0  0  0  0  0
  -22.2383   18.0163  143.6660 N   0  0  0  0  0  0  0  0  0  0  0  0
  -23.1122   18.9889  143.9031 N   0  0  0  0  0  0  0  0  0  0  0  0
  -23.8757   19.1014  142.8304 N   0  0  0  0  0  0  0  0  0  0  0  0
  -23.4750   18.1964  141.9251 N   0  0  0  0  0  0  0  0  0  0  0  0
  1  2  1  0
  2  3  2  0
  2  4  1  0
  4  5  2  0
  4  6  1  0
  5 11  1  0
  6  7  1  0
  6  8  1  0
  8  9  2  0
  8 10  1  0
 10 11  2  0
 11 12  1  0
 12 13  2  0
 12 14  1  0
 13 17  1  0
 14 15  2  0
 15 16  1  0
 16 17  2  0
 17 18  1  0
 18 19  2  0
 18 22  1  0
 19 20  1  0
 20 21  2  0
 21 22  1  0
M  CHG  1   1  -1
M  END
$$$$
