
     RDKit          3D

 22 24  0  0  0  0  0  0  0  0999 V2000
  -22.7656   18.7420  136.3437 O   0  0  0  0  0  1  0  0  0  0  0  0
  -21.8629   18.0509  135.5661 C   0  0  0  0  0  0  0  0  0  0  0  0
  -21.7701   18.3401  134.3576 O   0  0  0  0  0  0  0  0  0  0  0  0
  -21.0494   17.0035  136.1947 C   0  0  0  0  0  0  0  0  0  0  0  0
  -21.0768   16.7891  137.4495 N   0  0  0  0  0  0  0  0  0  0  0  0
  -20.1869   16.1958  135.3136 C   0  0  0  0  0  0  0  0  0  0  0  0
  -19.3040   16.9834  134.5733 O   0  0  0  0  0  0  0  0  0  0  0  0
  -19.3964   15.1640  135.9957 C   0  0  0  0  0  0  0  0  0  0  0  0
  -18.6097   14.3866  135.4006 O   0  0  0  0  0  0  0  0  0  0  0  0
  -19.5228   15.0248  137.4417 C   0  0  0  0  0  0  0  0  0  0  0  0
  -20.3247   15.8020  138.1270 C   0  0  0  0  0  0  0  0  0  0  0  0
  -20.4351   15.6424  139.5834 C   0  0  0  0  0  0  0  0  0  0  0  0
  -19.3203   15.9447  140.3826 C   0  0  0  0  0  0  0  0  0  0  0  0
  -21.5477   15.2175  140.2452 C   0  0  0  0  0  0  0  0  0  0  0  0
  -21.5859   15.0873  141.6371 C   0  0  0  0  0  0  0  0  0  0  0  0
  -20.4700   15.3964  142.3597 C   0  0  0  0  0  0  0  0  0  0  0  0
  -19.3184   15.8298  141.7504 C   0  0  0  0  0  0  0  0  0  0  0  0
  -18.1159   16.1617  142.5436 C   0  0  0  0  0  0  0  0  0  0  0  0
  -17.5007   15.3802  143.4448 N   0  0  0  0  0  0  0  0  0  0  0  0
  -16.4527   16.0194  143.9537 N   0  0  0  0  0  0  0  0  0  0  0  0
  -16.3994   17.2076  143.3778 N   0  0  0  0  0  0  0  0  0  0  0  0
  -17.4168   17.3063  142.5091 N   0  0  0  0  0  0  0  0  0  0  0  0
  1  2  1  0
  2  3  2  0
  2  4  1  0
  4  5  2  0
  4  6  1  0
  5 11  1  0
  6  7  1  0
  6  8  1  0
  8  9  2  0
  8 10  1  0
 10 11  2  0
 11 12  1  0
 12 13  2  0
 12 14  1  0
 13 17  1  0
 14 15  2  0
 15 16  1  0
 16 17  2  0
 17 18  1  0
 18 19  2  0
 18 22  1  0
 19 20  1  0
 20 21  2  0
 21 22  1  0
M  CHG  1   1  -1
M  END
$$$$
