
     RDKit          3D

 22 24  0  0  0  0  0  0  0  0999 V2000
  -20.9167   19.8643  137.0354 O   0  0  0  0  0  1  0  0  0  0  0  0
  -20.7532   18.9347  136.0322 C   0  0  0  0  0  0  0  0  0  0  0  0
  -20.6114   19.3372  134.8615 O   0  0  0  0  0  0  0  0  0  0  0  0
  -20.7532   17.5103  136.3858 C   0  0  0  0  0  0  0  0  0  0  0  0
  -20.8413   17.1141  137.5926 N   0  0  0  0  0  0  0  0  0  0  0  0
  -20.6464   16.5388  135.2823 C   0  0  0  0  0  0  0  0  0  0  0  0
  -19.5066   16.7473  134.5043 O   0  0  0  0  0  0  0  0  0  0  0  0
  -20.6514   15.1298  135.6939 C   0  0  0  0  0  0  0  0  0  0  0  0
  -20.5684   14.1711  134.8867 O   0  0  0  0  0  0  0  0  0  0  0  0
  -20.7579   14.8138  137.1135 C   0  0  0  0  0  0  0  0  0  0  0  0
  -20.8479   15.7637  138.0114 C   0  0  0  0  0  0  0  0  0  0  0  0
  -20.9543   15.4202  139.4360 C   0  0  0  0  0  0  0  0  0  0  0  0
  -20.8519   16.4476  140.3882 C   0  0  0  0  0  0  0  0  0  0  0  0
  -21.1481   14.1649  139.9292 C   0  0  0  0  0  0  0  0  0  0  0  0
  -21.2406   13.9062  141.3004 C   0  0  0  0  0  0  0  0  0  0  0  0
  -21.1332   14.9468  142.1771 C   0  0  0  0  0  0  0  0  0  0  0  0
  -20.9374   16.2341  141.7415 C   0  0  0  0  0  0  0  0  0  0  0  0
  -20.8225   17.3533  142.7005 C   0  0  0  0  0  0  0  0  0  0  0  0
  -21.5629   17.5533  143.8020 N   0  0  0  0  0  0  0  0  0  0  0  0
  -21.1688   18.6656  144.4129 N   0  0  0  0  0  0  0  0  0  0  0  0
  -20.1780   19.1747  143.7019 N   0  0  0  0  0  0  0  0  0  0  0  0
  -19.9565   18.3765  142.6469 N   0  0  0  0  0  0  0  0  0  0  0  0
  1  2  1  0
  2  3  2  0
  2  4  1  0
  4  5  2  0
  4  6  1  0
  5 11  1  0
  6  7  1  0
  6  8  1  0
  8  9  2  0
  8 10  1  0
 10 11  2  0
 11 12  1  0
 12 13  2  0
 12 14  1  0
 13 17  1  0
 14 15  2  0
 15 16  1  0
 16 17  2  0
 17 18  1  0
 18 19  2  0
 18 22  1  0
 19 20  1  0
 20 21  2  0
 21 22  1  0
M  CHG  1   1  -1
M  END
$$$$
