
     RDKit          3D

 22 24  0  0  0  0  0  0  0  0999 V2000
  -17.3955   16.9753  137.2092 O   0  0  0  0  0  1  0  0  0  0  0  0
  -18.7050   17.1411  137.6028 C   0  0  0  0  0  0  0  0  0  0  0  0
  -18.9390   17.4465  138.7879 O   0  0  0  0  0  0  0  0  0  0  0  0
  -19.7680   16.9508  136.6090 C   0  0  0  0  0  0  0  0  0  0  0  0
  -21.0005   17.0591  136.9093 N   0  0  0  0  0  0  0  0  0  0  0  0
  -19.3567   16.6253  135.2314 C   0  0  0  0  0  0  0  0  0  0  0  0
  -18.5608   15.4802  135.1751 O   0  0  0  0  0  0  0  0  0  0  0  0
  -20.4604   16.4461  134.2805 C   0  0  0  0  0  0  0  0  0  0  0  0
  -20.2926   16.1660  133.0678 O   0  0  0  0  0  0  0  0  0  0  0  0
  -21.8298   16.5989  134.7580 C   0  0  0  0  0  0  0  0  0  0  0  0
  -22.0790   16.8908  136.0107 C   0  0  0  0  0  0  0  0  0  0  0  0
  -23.4673   17.0397  136.4680 C   0  0  0  0  0  0  0  0  0  0  0  0
  -23.7036   17.5496  137.7553 C   0  0  0  0  0  0  0  0  0  0  0  0
  -24.5732   16.7203  135.7391 C   0  0  0  0  0  0  0  0  0  0  0  0
  -25.8700   16.8872  136.2355 C   0  0  0  0  0  0  0  0  0  0  0  0
  -26.0355   17.3875  137.4945 C   0  0  0  0  0  0  0  0  0  0  0  0
  -24.9603   17.7280  138.2778 C   0  0  0  0  0  0  0  0  0  0  0  0
  -25.1519   18.2691  139.6401 C   0  0  0  0  0  0  0  0  0  0  0  0
  -24.5444   19.3382  140.1783 N   0  0  0  0  0  0  0  0  0  0  0  0
  -24.9709   19.5182  141.4238 N   0  0  0  0  0  0  0  0  0  0  0  0
  -25.8495   18.5650  141.6801 N   0  0  0  0  0  0  0  0  0  0  0  0
  -25.9689   17.7912  140.5910 N   0  0  0  0  0  0  0  0  0  0  0  0
  1  2  1  0
  2  3  2  0
  2  4  1  0
  4  5  2  0
  4  6  1  0
  5 11  1  0
  6  7  1  0
  6  8  1  0
  8  9  2  0
  8 10  1  0
 10 11  2  0
 11 12  1  0
 12 13  2  0
 12 14  1  0
 13 17  1  0
 14 15  2  0
 15 16  1  0
 16 17  2  0
 17 18  1  0
 18 19  2  0
 18 22  1  0
 19 20  1  0
 20 21  2  0
 21 22  1  0
M  CHG  1   1  -1
M  END
$$$$
