
     RDKit          3D

 22 24  0  0  0  0  0  0  0  0999 V2000
  -18.8903   16.9358  138.7649 O   0  0  0  0  0  1  0  0  0  0  0  0
  -18.5865   16.8606  137.4235 C   0  0  0  0  0  0  0  0  0  0  0  0
  -17.3883   16.8267  137.0829 O   0  0  0  0  0  0  0  0  0  0  0  0
  -19.6872   16.8238  136.4536 C   0  0  0  0  0  0  0  0  0  0  0  0
  -20.9052   16.9265  136.8101 N   0  0  0  0  0  0  0  0  0  0  0  0
  -19.3320   16.6616  135.0322 C   0  0  0  0  0  0  0  0  0  0  0  0
  -18.5742   15.5117  134.8056 O   0  0  0  0  0  0  0  0  0  0  0  0
  -20.4718   16.6315  134.1076 C   0  0  0  0  0  0  0  0  0  0  0  0
  -20.3529   16.5002  132.8642 O   0  0  0  0  0  0  0  0  0  0  0  0
  -21.8191   16.7599  134.6503 C   0  0  0  0  0  0  0  0  0  0  0  0
  -22.0176   16.9001  135.9378 C   0  0  0  0  0  0  0  0  0  0  0  0
  -23.3847   17.0277  136.4607 C   0  0  0  0  0  0  0  0  0  0  0  0
  -23.5623   17.3733  137.8104 C   0  0  0  0  0  0  0  0  0  0  0  0
  -24.5235   16.8365  135.7375 C   0  0  0  0  0  0  0  0  0  0  0  0
  -25.7973   16.9742  136.2981 C   0  0  0  0  0  0  0  0  0  0  0  0
  -25.9054   17.3121  137.6161 C   0  0  0  0  0  0  0  0  0  0  0  0
  -24.7949   17.5179  138.3970 C   0  0  0  0  0  0  0  0  0  0  0  0
  -24.9243   17.8835  139.8235 C   0  0  0  0  0  0  0  0  0  0  0  0
  -24.2259   17.3809  140.8535 N   0  0  0  0  0  0  0  0  0  0  0  0
  -24.6200   17.9533  141.9861 N   0  0  0  0  0  0  0  0  0  0  0  0
  -25.5689   18.8202  141.6790 N   0  0  0  0  0  0  0  0  0  0  0  0
  -25.7644   18.7860  140.3524 N   0  0  0  0  0  0  0  0  0  0  0  0
  1  2  1  0
  2  3  2  0
  2  4  1  0
  4  5  2  0
  4  6  1  0
  5 11  1  0
  6  7  1  0
  6  8  1  0
  8  9  2  0
  8 10  1  0
 10 11  2  0
 11 12  1  0
 12 13  2  0
 12 14  1  0
 13 17  1  0
 14 15  2  0
 15 16  1  0
 16 17  2  0
 17 18  1  0
 18 19  2  0
 18 22  1  0
 19 20  1  0
 20 21  2  0
 21 22  1  0
M  CHG  1   1  -1
M  END
$$$$
