
     RDKit          3D

 22 24  0  0  0  0  0  0  0  0999 V2000
  -22.6629   18.8971  136.1478 O   0  0  0  0  0  1  0  0  0  0  0  0
  -21.7209   18.1182  135.5129 C   0  0  0  0  0  0  0  0  0  0  0  0
  -21.4926   18.3217  134.3050 O   0  0  0  0  0  0  0  0  0  0  0  0
  -21.0269   17.0822  136.2868 C   0  0  0  0  0  0  0  0  0  0  0  0
  -21.2314   16.9194  137.5329 N   0  0  0  0  0  0  0  0  0  0  0  0
  -20.0714   16.2233  135.5642 C   0  0  0  0  0  0  0  0  0  0  0  0
  -19.0765   16.9637  134.9238 O   0  0  0  0  0  0  0  0  0  0  0  0
  -19.4071   15.2055  136.3872 C   0  0  0  0  0  0  0  0  0  0  0  0
  -18.5652   14.3900  135.9361 O   0  0  0  0  0  0  0  0  0  0  0  0
  -19.7340   15.1274  137.8061 C   0  0  0  0  0  0  0  0  0  0  0  0
  -20.6034   15.9466  138.3444 C   0  0  0  0  0  0  0  0  0  0  0  0
  -20.9164   15.8484  139.7765 C   0  0  0  0  0  0  0  0  0  0  0  0
  -21.7495   16.8204  140.3543 C   0  0  0  0  0  0  0  0  0  0  0  0
  -20.4608   14.8762  140.6154 C   0  0  0  0  0  0  0  0  0  0  0  0
  -20.7978   14.8410  141.9723 C   0  0  0  0  0  0  0  0  0  0  0  0
  -21.6117   15.8141  142.4756 C   0  0  0  0  0  0  0  0  0  0  0  0
  -22.1028   16.8203  141.6808 C   0  0  0  0  0  0  0  0  0  0  0  0
  -22.9837   17.8689  142.2372 C   0  0  0  0  0  0  0  0  0  0  0  0
  -22.7879   18.5772  143.3603 N   0  0  0  0  0  0  0  0  0  0  0  0
  -23.7934   19.4279  143.5367 N   0  0  0  0  0  0  0  0  0  0  0  0
  -24.6299   19.2624  142.5272 N   0  0  0  0  0  0  0  0  0  0  0  0
  -24.1425   18.3067  141.7220 N   0  0  0  0  0  0  0  0  0  0  0  0
  1  2  1  0
  2  3  2  0
  2  4  1  0
  4  5  2  0
  4  6  1  0
  5 11  1  0
  6  7  1  0
  6  8  1  0
  8  9  2  0
  8 10  1  0
 10 11  2  0
 11 12  1  0
 12 13  2  0
 12 14  1  0
 13 17  1  0
 14 15  2  0
 15 16  1  0
 16 17  2  0
 17 18  1  0
 18 19  2  0
 18 22  1  0
 19 20  1  0
 20 21  2  0
 21 22  1  0
M  CHG  1   1  -1
M  END
$$$$
