
     RDKit          3D

 22 24  0  0  0  0  0  0  0  0999 V2000
  -18.5462   17.8202  138.4933 O   0  0  0  0  0  1  0  0  0  0  0  0
  -18.3870   17.3943  137.1932 C   0  0  0  0  0  0  0  0  0  0  0  0
  -17.2380   17.1392  136.7841 O   0  0  0  0  0  0  0  0  0  0  0  0
  -19.5778   17.2594  136.3460 C   0  0  0  0  0  0  0  0  0  0  0  0
  -20.7559   17.3873  136.8116 N   0  0  0  0  0  0  0  0  0  0  0  0
  -19.3627   16.9668  134.9173 C   0  0  0  0  0  0  0  0  0  0  0  0
  -18.6130   15.8056  134.7238 O   0  0  0  0  0  0  0  0  0  0  0  0
  -20.5878   16.8426  134.1185 C   0  0  0  0  0  0  0  0  0  0  0  0
  -20.5908   16.5959  132.8869 O   0  0  0  0  0  0  0  0  0  0  0  0
  -21.8766   17.0128  134.7790 C   0  0  0  0  0  0  0  0  0  0  0  0
  -21.9487   17.2719  136.0613 C   0  0  0  0  0  0  0  0  0  0  0  0
  -23.2591   17.4392  136.7044 C   0  0  0  0  0  0  0  0  0  0  0  0
  -23.3059   17.7163  138.0806 C   0  0  0  0  0  0  0  0  0  0  0  0
  -24.4622   17.3479  136.0717 C   0  0  0  0  0  0  0  0  0  0  0  0
  -25.6762   17.5184  136.7448 C   0  0  0  0  0  0  0  0  0  0  0  0
  -25.6568   17.7859  138.0831 C   0  0  0  0  0  0  0  0  0  0  0  0
  -24.4762   17.8901  138.7765 C   0  0  0  0  0  0  0  0  0  0  0  0
  -24.4677   18.1802  140.2260 C   0  0  0  0  0  0  0  0  0  0  0  0
  -25.3799   17.7965  141.1328 N   0  0  0  0  0  0  0  0  0  0  0  0
  -25.0352   18.2451  142.3352 N   0  0  0  0  0  0  0  0  0  0  0  0
  -23.9042   18.9142  142.1957 N   0  0  0  0  0  0  0  0  0  0  0  0
  -23.5458   18.8810  140.9035 N   0  0  0  0  0  0  0  0  0  0  0  0
  1  2  1  0
  2  3  2  0
  2  4  1  0
  4  5  2  0
  4  6  1  0
  5 11  1  0
  6  7  1  0
  6  8  1  0
  8  9  2  0
  8 10  1  0
 10 11  2  0
 11 12  1  0
 12 13  2  0
 12 14  1  0
 13 17  1  0
 14 15  2  0
 15 16  1  0
 16 17  2  0
 17 18  1  0
 18 19  2  0
 18 22  1  0
 19 20  1  0
 20 21  2  0
 21 22  1  0
M  CHG  1   1  -1
M  END
$$$$
