
     RDKit          3D

 22 24  0  0  0  0  0  0  0  0999 V2000
  -19.3389   19.2984  134.1620 O   0  0  0  0  0  1  0  0  0  0  0  0
  -20.2796   19.3439  135.1671 C   0  0  0  0  0  0  0  0  0  0  0  0
  -20.6446   20.4559  135.5945 O   0  0  0  0  0  0  0  0  0  0  0  0
  -20.8113   18.0803  135.6911 C   0  0  0  0  0  0  0  0  0  0  0  0
  -21.6393   18.0452  136.6577 N   0  0  0  0  0  0  0  0  0  0  0  0
  -20.3490   16.8346  135.0528 C   0  0  0  0  0  0  0  0  0  0  0  0
  -18.9588   16.7131  135.0786 O   0  0  0  0  0  0  0  0  0  0  0  0
  -20.9128   15.6024  135.6169 C   0  0  0  0  0  0  0  0  0  0  0  0
  -20.6294   14.4536  135.1956 O   0  0  0  0  0  0  0  0  0  0  0  0
  -21.8536   15.7048  136.7263 C   0  0  0  0  0  0  0  0  0  0  0  0
  -22.1947   16.8711  137.2164 C   0  0  0  0  0  0  0  0  0  0  0  0
  -23.1446   16.9487  138.3345 C   0  0  0  0  0  0  0  0  0  0  0  0
  -23.9569   18.0884  138.4531 C   0  0  0  0  0  0  0  0  0  0  0  0
  -23.3133   15.9922  139.2900 C   0  0  0  0  0  0  0  0  0  0  0  0
  -24.2379   16.1291  140.3303 C   0  0  0  0  0  0  0  0  0  0  0  0
  -24.9990   17.2603  140.3922 C   0  0  0  0  0  0  0  0  0  0  0  0
  -24.8752   18.2598  139.4589 C   0  0  0  0  0  0  0  0  0  0  0  0
  -25.7052   19.4807  139.5361 C   0  0  0  0  0  0  0  0  0  0  0  0
  -25.8233   20.4384  138.6032 N   0  0  0  0  0  0  0  0  0  0  0  0
  -26.6593   21.3798  139.0283 N   0  0  0  0  0  0  0  0  0  0  0  0
  -27.0741   21.0231  140.2312 N   0  0  0  0  0  0  0  0  0  0  0  0
  -26.4942   19.8573  140.5537 N   0  0  0  0  0  0  0  0  0  0  0  0
  1  2  1  0
  2  3  2  0
  2  4  1  0
  4  5  2  0
  4  6  1  0
  5 11  1  0
  6  7  1  0
  6  8  1  0
  8  9  2  0
  8 10  1  0
 10 11  2  0
 11 12  1  0
 12 13  2  0
 12 14  1  0
 13 17  1  0
 14 15  2  0
 15 16  1  0
 16 17  2  0
 17 18  1  0
 18 19  2  0
 18 22  1  0
 19 20  1  0
 20 21  2  0
 21 22  1  0
M  CHG  1   1  -1
M  END
$$$$
