
     RDKit          3D

 22 24  0  0  0  0  0  0  0  0999 V2000
  -21.5615   19.7127  135.2889 O   0  0  0  0  0  1  0  0  0  0  0  0
  -21.2747   18.4642  134.7830 C   0  0  0  0  0  0  0  0  0  0  0  0
  -21.4737   18.2497  133.5717 O   0  0  0  0  0  0  0  0  0  0  0  0
  -20.7471   17.4404  135.6926 C   0  0  0  0  0  0  0  0  0  0  0  0
  -20.5541   17.6711  136.9298 N   0  0  0  0  0  0  0  0  0  0  0  0
  -20.4434   16.1168  135.1193 C   0  0  0  0  0  0  0  0  0  0  0  0
  -19.5418   16.1964  134.0569 O   0  0  0  0  0  0  0  0  0  0  0  0
  -19.9190   15.1329  136.0740 C   0  0  0  0  0  0  0  0  0  0  0  0
  -19.6076   13.9578  135.7583 O   0  0  0  0  0  0  0  0  0  0  0  0
  -19.7459   15.5294  137.4665 C   0  0  0  0  0  0  0  0  0  0  0  0
  -20.0504   16.7394  137.8665 C   0  0  0  0  0  0  0  0  0  0  0  0
  -19.8672   17.1154  139.2749 C   0  0  0  0  0  0  0  0  0  0  0  0
  -20.5764   16.4092  140.2605 C   0  0  0  0  0  0  0  0  0  0  0  0
  -19.0521   18.1111  139.7227 C   0  0  0  0  0  0  0  0  0  0  0  0
  -18.9233   18.4182  141.0810 C   0  0  0  0  0  0  0  0  0  0  0  0
  -19.6388   17.6960  141.9917 C   0  0  0  0  0  0  0  0  0  0  0  0
  -20.4770   16.6804  141.6024 C   0  0  0  0  0  0  0  0  0  0  0  0
  -21.2471   15.9049  142.5979 C   0  0  0  0  0  0  0  0  0  0  0  0
  -21.4510   14.5783  142.6074 N   0  0  0  0  0  0  0  0  0  0  0  0
  -22.1920   14.2447  143.6588 N   0  0  0  0  0  0  0  0  0  0  0  0
  -22.4604   15.3573  144.3194 N   0  0  0  0  0  0  0  0  0  0  0  0
  -21.8848   16.3842  143.6766 N   0  0  0  0  0  0  0  0  0  0  0  0
  1  2  1  0
  2  3  2  0
  2  4  1  0
  4  5  2  0
  4  6  1  0
  5 11  1  0
  6  7  1  0
  6  8  1  0
  8  9  2  0
  8 10  1  0
 10 11  2  0
 11 12  1  0
 12 13  2  0
 12 14  1  0
 13 17  1  0
 14 15  2  0
 15 16  1  0
 16 17  2  0
 17 18  1  0
 18 19  2  0
 18 22  1  0
 19 20  1  0
 20 21  2  0
 21 22  1  0
M  CHG  1   1  -1
M  END
$$$$
