
     RDKit          3D

 22 24  0  0  0  0  0  0  0  0999 V2000
  -20.8555   19.6763  135.7326 O   0  0  0  0  0  1  0  0  0  0  0  0
  -19.8423   18.9115  136.2671 C   0  0  0  0  0  0  0  0  0  0  0  0
  -18.7242   19.4347  136.4369 O   0  0  0  0  0  0  0  0  0  0  0  0
  -20.1237   17.5134  136.6136 C   0  0  0  0  0  0  0  0  0  0  0  0
  -20.3267   17.1431  137.8147 N   0  0  0  0  0  0  0  0  0  0  0  0
  -20.1642   16.5372  135.5098 C   0  0  0  0  0  0  0  0  0  0  0  0
  -18.9792   16.5252  134.7724 O   0  0  0  0  0  0  0  0  0  0  0  0
  -20.4495   15.1553  135.9142 C   0  0  0  0  0  0  0  0  0  0  0  0
  -20.5212   14.1968  135.1058 O   0  0  0  0  0  0  0  0  0  0  0  0
  -20.6629   14.8676  137.3277 C   0  0  0  0  0  0  0  0  0  0  0  0
  -20.6029   15.8190  138.2266 C   0  0  0  0  0  0  0  0  0  0  0  0
  -20.8215   15.5043  139.6450 C   0  0  0  0  0  0  0  0  0  0  0  0
  -21.4518   16.4593  140.4596 C   0  0  0  0  0  0  0  0  0  0  0  0
  -20.4596   14.3419  140.2568 C   0  0  0  0  0  0  0  0  0  0  0  0
  -20.6978   14.1057  141.6144 C   0  0  0  0  0  0  0  0  0  0  0  0
  -21.3145   15.0727  142.3543 C   0  0  0  0  0  0  0  0  0  0  0  0
  -21.7030   16.2650  141.7950 C   0  0  0  0  0  0  0  0  0  0  0  0
  -22.3703   17.3050  142.6064 C   0  0  0  0  0  0  0  0  0  0  0  0
  -22.1587   17.5781  143.9034 N   0  0  0  0  0  0  0  0  0  0  0  0
  -22.9437   18.5797  144.2861 N   0  0  0  0  0  0  0  0  0  0  0  0
  -23.6553   18.9453  143.2343 N   0  0  0  0  0  0  0  0  0  0  0  0
  -23.3113   18.1687  142.1960 N   0  0  0  0  0  0  0  0  0  0  0  0
  1  2  1  0
  2  3  2  0
  2  4  1  0
  4  5  2  0
  4  6  1  0
  5 11  1  0
  6  7  1  0
  6  8  1  0
  8  9  2  0
  8 10  1  0
 10 11  2  0
 11 12  1  0
 12 13  2  0
 12 14  1  0
 13 17  1  0
 14 15  2  0
 15 16  1  0
 16 17  2  0
 17 18  1  0
 18 19  2  0
 18 22  1  0
 19 20  1  0
 20 21  2  0
 21 22  1  0
M  CHG  1   1  -1
M  END
$$$$
