
     RDKit          3D

 22 24  0  0  0  0  0  0  0  0999 V2000
  -17.5462   18.5750  137.5041 O   0  0  0  0  0  1  0  0  0  0  0  0
  -18.1707   18.0894  136.3765 C   0  0  0  0  0  0  0  0  0  0  0  0
  -17.7668   18.4670  135.2599 O   0  0  0  0  0  0  0  0  0  0  0  0
  -19.2848   17.1480  136.5394 C   0  0  0  0  0  0  0  0  0  0  0  0
  -19.6446   16.7188  137.6828 N   0  0  0  0  0  0  0  0  0  0  0  0
  -19.9841   16.7089  135.3183 C   0  0  0  0  0  0  0  0  0  0  0  0
  -19.1156   16.1286  134.3927 O   0  0  0  0  0  0  0  0  0  0  0  0
  -21.0890   15.7684  135.5407 C   0  0  0  0  0  0  0  0  0  0  0  0
  -21.7917   15.2926  134.6148 O   0  0  0  0  0  0  0  0  0  0  0  0
  -21.3966   15.3571  136.9054 C   0  0  0  0  0  0  0  0  0  0  0  0
  -20.7046   15.8138  137.9200 C   0  0  0  0  0  0  0  0  0  0  0  0
  -21.0336   15.3846  139.2861 C   0  0  0  0  0  0  0  0  0  0  0  0
  -21.0191   16.3394  140.3162 C   0  0  0  0  0  0  0  0  0  0  0  0
  -21.3595   14.1137  139.6534 C   0  0  0  0  0  0  0  0  0  0  0  0
  -21.6628   13.7716  140.9751 C   0  0  0  0  0  0  0  0  0  0  0  0
  -21.6317   14.7441  141.9323 C   0  0  0  0  0  0  0  0  0  0  0  0
  -21.3105   16.0432  141.6245 C   0  0  0  0  0  0  0  0  0  0  0  0
  -21.2801   17.0881  142.6697 C   0  0  0  0  0  0  0  0  0  0  0  0
  -20.7304   16.9946  143.8906 N   0  0  0  0  0  0  0  0  0  0  0  0
  -20.9004   18.1363  144.5491 N   0  0  0  0  0  0  0  0  0  0  0  0
  -21.5579   18.9572  143.7491 N   0  0  0  0  0  0  0  0  0  0  0  0
  -21.7967   18.3237  142.5911 N   0  0  0  0  0  0  0  0  0  0  0  0
  1  2  1  0
  2  3  2  0
  2  4  1  0
  4  5  2  0
  4  6  1  0
  5 11  1  0
  6  7  1  0
  6  8  1  0
  8  9  2  0
  8 10  1  0
 10 11  2  0
 11 12  1  0
 12 13  2  0
 12 14  1  0
 13 17  1  0
 14 15  2  0
 15 16  1  0
 16 17  2  0
 17 18  1  0
 18 19  2  0
 18 22  1  0
 19 20  1  0
 20 21  2  0
 21 22  1  0
M  CHG  1   1  -1
M  END
$$$$
