
     RDKit          3D

 22 24  0  0  0  0  0  0  0  0999 V2000
  -21.5521   18.4143  134.5663 O   0  0  0  0  0  1  0  0  0  0  0  0
  -21.5984   18.2993  135.9381 C   0  0  0  0  0  0  0  0  0  0  0  0
  -22.2012   19.1726  136.5913 O   0  0  0  0  0  0  0  0  0  0  0  0
  -20.9355   17.1530  136.5710 C   0  0  0  0  0  0  0  0  0  0  0  0
  -21.0619   16.9008  137.8126 N   0  0  0  0  0  0  0  0  0  0  0  0
  -20.1065   16.2902  135.7101 C   0  0  0  0  0  0  0  0  0  0  0  0
  -19.1043   17.0066  135.0541 O   0  0  0  0  0  0  0  0  0  0  0  0
  -19.4682   15.1601  136.3956 C   0  0  0  0  0  0  0  0  0  0  0  0
  -18.7290   14.3257  135.8169 O   0  0  0  0  0  0  0  0  0  0  0  0
  -19.6971   14.9864  137.8253 C   0  0  0  0  0  0  0  0  0  0  0  0
  -20.4570   15.8191  138.4930 C   0  0  0  0  0  0  0  0  0  0  0  0
  -20.6727   15.6233  139.9331 C   0  0  0  0  0  0  0  0  0  0  0  0
  -21.0066   16.7352  140.7236 C   0  0  0  0  0  0  0  0  0  0  0  0
  -20.5758   14.4320  140.5872 C   0  0  0  0  0  0  0  0  0  0  0  0
  -20.7943   14.3146  141.9635 C   0  0  0  0  0  0  0  0  0  0  0  0
  -21.1160   15.4319  142.6784 C   0  0  0  0  0  0  0  0  0  0  0  0
  -21.2285   16.6608  142.0762 C   0  0  0  0  0  0  0  0  0  0  0  0
  -21.5776   17.8640  142.8608 C   0  0  0  0  0  0  0  0  0  0  0  0
  -21.5521   17.9939  144.1964 N   0  0  0  0  0  0  0  0  0  0  0  0
  -21.9314   19.2212  144.5364 N   0  0  0  0  0  0  0  0  0  0  0  0
  -22.1986   19.8737  143.4188 N   0  0  0  0  0  0  0  0  0  0  0  0
  -21.9847   19.0495  142.3824 N   0  0  0  0  0  0  0  0  0  0  0  0
  1  2  1  0
  2  3  2  0
  2  4  1  0
  4  5  2  0
  4  6  1  0
  5 11  1  0
  6  7  1  0
  6  8  1  0
  8  9  2  0
  8 10  1  0
 10 11  2  0
 11 12  1  0
 12 13  2  0
 12 14  1  0
 13 17  1  0
 14 15  2  0
 15 16  1  0
 16 17  2  0
 17 18  1  0
 18 19  2  0
 18 22  1  0
 19 20  1  0
 20 21  2  0
 21 22  1  0
M  CHG  1   1  -1
M  END
$$$$
