
     RDKit          3D

 22 24  0  0  0  0  0  0  0  0999 V2000
  -22.0651   19.3029  136.3230 O   0  0  0  0  0  1  0  0  0  0  0  0
  -21.4002   18.4369  135.4834 C   0  0  0  0  0  0  0  0  0  0  0  0
  -21.3068   18.7286  134.2755 O   0  0  0  0  0  0  0  0  0  0  0  0
  -20.8304   17.2078  136.0479 C   0  0  0  0  0  0  0  0  0  0  0  0
  -20.8832   16.9491  137.2934 N   0  0  0  0  0  0  0  0  0  0  0  0
  -20.1854   16.2687  135.1126 C   0  0  0  0  0  0  0  0  0  0  0  0
  -19.1618   16.8726  134.3807 O   0  0  0  0  0  0  0  0  0  0  0  0
  -19.6335   15.0576  135.7317 C   0  0  0  0  0  0  0  0  0  0  0  0
  -19.0508   14.1521  135.0853 O   0  0  0  0  0  0  0  0  0  0  0  0
  -19.7628   14.8855  137.1740 C   0  0  0  0  0  0  0  0  0  0  0  0
  -20.3589   15.7901  137.9108 C   0  0  0  0  0  0  0  0  0  0  0  0
  -20.4769   15.5942  139.3621 C   0  0  0  0  0  0  0  0  0  0  0  0
  -21.3945   16.3807  140.0777 C   0  0  0  0  0  0  0  0  0  0  0  0
  -19.7595   14.6969  140.0947 C   0  0  0  0  0  0  0  0  0  0  0  0
  -19.9210   14.5608  141.4771 C   0  0  0  0  0  0  0  0  0  0  0  0
  -20.8290   15.3540  142.1168 C   0  0  0  0  0  0  0  0  0  0  0  0
  -21.5819   16.2770  141.4336 C   0  0  0  0  0  0  0  0  0  0  0  0
  -22.5624   17.1307  142.1372 C   0  0  0  0  0  0  0  0  0  0  0  0
  -22.3988   17.7440  143.3198 N   0  0  0  0  0  0  0  0  0  0  0  0
  -23.4980   18.4230  143.6303 N   0  0  0  0  0  0  0  0  0  0  0  0
  -24.3620   18.2432  142.6467 N   0  0  0  0  0  0  0  0  0  0  0  0
  -23.7979   17.4505  141.7233 N   0  0  0  0  0  0  0  0  0  0  0  0
  1  2  1  0
  2  3  2  0
  2  4  1  0
  4  5  2  0
  4  6  1  0
  5 11  1  0
  6  7  1  0
  6  8  1  0
  8  9  2  0
  8 10  1  0
 10 11  2  0
 11 12  1  0
 12 13  2  0
 12 14  1  0
 13 17  1  0
 14 15  2  0
 15 16  1  0
 16 17  2  0
 17 18  1  0
 18 19  2  0
 18 22  1  0
 19 20  1  0
 20 21  2  0
 21 22  1  0
M  CHG  1   1  -1
M  END
$$$$
