
     RDKit          3D

 22 24  0  0  0  0  0  0  0  0999 V2000
  -18.7851   17.0200  138.6519 O   0  0  0  0  0  1  0  0  0  0  0  0
  -18.5072   17.0692  137.3038 C   0  0  0  0  0  0  0  0  0  0  0  0
  -17.3178   17.1496  136.9410 O   0  0  0  0  0  0  0  0  0  0  0  0
  -19.6242   17.0246  136.3529 C   0  0  0  0  0  0  0  0  0  0  0  0
  -20.8362   17.1252  136.7297 N   0  0  0  0  0  0  0  0  0  0  0  0
  -19.2928   16.8572  134.9264 C   0  0  0  0  0  0  0  0  0  0  0  0
  -18.5353   15.7086  134.6921 O   0  0  0  0  0  0  0  0  0  0  0  0
  -20.4480   16.8194  134.0216 C   0  0  0  0  0  0  0  0  0  0  0  0
  -20.3500   16.6829  132.7769 O   0  0  0  0  0  0  0  0  0  0  0  0
  -21.7863   16.9463  134.5866 C   0  0  0  0  0  0  0  0  0  0  0  0
  -21.9632   17.0915  135.8766 C   0  0  0  0  0  0  0  0  0  0  0  0
  -23.3216   17.2173  136.4222 C   0  0  0  0  0  0  0  0  0  0  0  0
  -23.4777   17.5959  137.7658 C   0  0  0  0  0  0  0  0  0  0  0  0
  -24.4716   16.9946  135.7263 C   0  0  0  0  0  0  0  0  0  0  0  0
  -25.7361   17.1325  136.3075 C   0  0  0  0  0  0  0  0  0  0  0  0
  -25.8232   17.5033  137.6181 C   0  0  0  0  0  0  0  0  0  0  0  0
  -24.7006   17.7419  138.3719 C   0  0  0  0  0  0  0  0  0  0  0  0
  -24.8073   18.1430  139.7908 C   0  0  0  0  0  0  0  0  0  0  0  0
  -24.8807   17.3312  140.8572 N   0  0  0  0  0  0  0  0  0  0  0  0
  -24.9668   18.0549  141.9683 N   0  0  0  0  0  0  0  0  0  0  0  0
  -24.9484   19.3271  141.6112 N   0  0  0  0  0  0  0  0  0  0  0  0
  -24.8506   19.3934  140.2750 N   0  0  0  0  0  0  0  0  0  0  0  0
  1  2  1  0
  2  3  2  0
  2  4  1  0
  4  5  2  0
  4  6  1  0
  5 11  1  0
  6  7  1  0
  6  8  1  0
  8  9  2  0
  8 10  1  0
 10 11  2  0
 11 12  1  0
 12 13  2  0
 12 14  1  0
 13 17  1  0
 14 15  2  0
 15 16  1  0
 16 17  2  0
 17 18  1  0
 18 19  2  0
 18 22  1  0
 19 20  1  0
 20 21  2  0
 21 22  1  0
M  CHG  1   1  -1
M  END
$$$$
