
     RDKit          3D

 22 24  0  0  0  0  0  0  0  0999 V2000
  -18.6561   17.2170  138.8118 O   0  0  0  0  0  1  0  0  0  0  0  0
  -18.4146   16.9459  137.4832 C   0  0  0  0  0  0  0  0  0  0  0  0
  -17.2367   16.7829  137.1107 O   0  0  0  0  0  0  0  0  0  0  0  0
  -19.5552   16.8609  136.5636 C   0  0  0  0  0  0  0  0  0  0  0  0
  -20.7571   16.9840  136.9653 N   0  0  0  0  0  0  0  0  0  0  0  0
  -19.2602   16.6249  135.1388 C   0  0  0  0  0  0  0  0  0  0  0  0
  -18.5120   15.4635  134.9403 O   0  0  0  0  0  0  0  0  0  0  0  0
  -20.4378   16.5490  134.2659 C   0  0  0  0  0  0  0  0  0  0  0  0
  -20.3714   16.3534  133.0270 O   0  0  0  0  0  0  0  0  0  0  0  0
  -21.7612   16.7077  134.8574 C   0  0  0  0  0  0  0  0  0  0  0  0
  -21.9053   16.9145  136.1431 C   0  0  0  0  0  0  0  0  0  0  0  0
  -23.2492   17.0713  136.7158 C   0  0  0  0  0  0  0  0  0  0  0  0
  -23.4044   17.8568  137.8698 C   0  0  0  0  0  0  0  0  0  0  0  0
  -24.3862   16.5103  136.2170 C   0  0  0  0  0  0  0  0  0  0  0  0
  -25.6373   16.7002  136.8124 C   0  0  0  0  0  0  0  0  0  0  0  0
  -25.7243   17.4747  137.9329 C   0  0  0  0  0  0  0  0  0  0  0  0
  -24.6144   18.0670  138.4831 C   0  0  0  0  0  0  0  0  0  0  0  0
  -24.7208   18.9038  139.6971 C   0  0  0  0  0  0  0  0  0  0  0  0
  -25.3696   18.6022  140.8327 N   0  0  0  0  0  0  0  0  0  0  0  0
  -25.2437   19.5998  141.7013 N   0  0  0  0  0  0  0  0  0  0  0  0
  -24.5152   20.5370  141.1205 N   0  0  0  0  0  0  0  0  0  0  0  0
  -24.1881   20.1201  139.8882 N   0  0  0  0  0  0  0  0  0  0  0  0
  1  2  1  0
  2  3  2  0
  2  4  1  0
  4  5  2  0
  4  6  1  0
  5 11  1  0
  6  7  1  0
  6  8  1  0
  8  9  2  0
  8 10  1  0
 10 11  2  0
 11 12  1  0
 12 13  2  0
 12 14  1  0
 13 17  1  0
 14 15  2  0
 15 16  1  0
 16 17  2  0
 17 18  1  0
 18 19  2  0
 18 22  1  0
 19 20  1  0
 20 21  2  0
 21 22  1  0
M  CHG  1   1  -1
M  END
$$$$
