
     RDKit          3D

 24 26  0  0  0  0  0  0  0  0999 V2000
  -15.4997   23.5515  -19.0215 C   0  0  0  0  0  0  0  0  0  0  0  0
  -15.2034   23.4526  -17.6179 C   0  0  0  0  0  0  0  0  0  0  0  0
  -14.5173   24.4010  -15.5247 C   0  0  0  0  0  0  0  0  0  0  0  0
  -14.7962   24.5266  -16.8780 C   0  0  0  0  0  0  0  0  0  0  0  0
  -15.3287   22.2320  -16.9707 C   0  0  0  0  0  0  0  0  0  0  0  0
  -15.0570   22.1055  -15.6481 C   0  0  0  0  0  0  0  0  0  0  0  0
  -14.6475   23.1819  -14.9005 C   0  0  0  0  0  0  0  0  0  0  0  0
  -20.9872   20.0203  -19.4393 C   0  0  0  0  0  0  0  0  0  0  0  0
  -22.2944   20.1708  -19.0092 C   0  0  0  0  0  0  0  0  0  0  0  0
  -14.6415   25.7590  -17.4072 F   0  0  0  0  0  0  0  0  0  0  0  0
  -15.7901   24.7089  -19.4801 O   0  0  0  0  0  0  0  0  0  0  0  0
  -15.5176   22.5358  -19.9893 N   0  0  0  0  0  0  0  0  0  0  0  0
  -15.8768   22.7878  -21.2823 N   0  0  0  0  0  0  0  0  0  0  0  0
  -16.8638   21.6103  -22.0090 S   0  0  2  0  0  6  0  0  0  0  0  0
  -16.4189   20.2113  -21.7295 O   0  0  0  0  0  0  0  0  0  0  0  0
  -16.9345   21.8746  -23.5042 O   0  0  0  0  0  0  0  0  0  0  0  0
  -18.5103   21.7422  -21.4316 C   0  0  0  0  0  0  0  0  0  0  0  0
  -19.0823   20.7710  -20.6351 C   0  0  0  0  0  0  0  0  0  0  0  0
  -20.3812   20.9578  -20.2295 C   0  0  0  0  0  0  0  0  0  0  0  0
  -23.0328   21.2883  -19.3717 C   0  0  0  0  0  0  0  0  0  0  0  0
  -22.4210   22.2470  -20.1766 C   0  0  0  0  0  0  0  0  0  0  0  0
  -21.1159   22.0792  -20.5958 C   0  0  0  0  0  0  0  0  0  0  0  0
  -20.5332   23.0435  -21.3925 C   0  0  0  0  0  0  0  0  0  0  0  0
  -19.2314   22.8596  -21.8009 C   0  0  0  0  0  0  0  0  0  0  0  0
  1  2  1  0
  1 11  2  0
 12  1  1  0
  2  4  1  0
  2  5  2  0
  4  3  2  0
  3  7  1  0
  4 10  1  0
  5  6  1  0
  6  7  2  0
  8  9  2  0
 19  8  1  0
  9 20  1  0
 13 12  1  0
 14 13  1  1
 14 15  2  0
 14 16  2  0
 17 14  1  0
 18 17  1  0
 17 24  2  0
 18 19  2  0
 19 22  1  0
 20 21  2  0
 21 22  1  0
 22 23  2  0
 23 24  1  0
M  END
$$$$
