
     RDKit          3D

 24 26  0  0  0  0  0  0  0  0999 V2000
   -7.3831   16.1966  -17.3512 C   0  0  0  0  0  0  0  0  0  0  0  0
   -7.7542   15.2426  -16.3413 C   0  0  0  0  0  0  0  0  0  0  0  0
   -7.4137   13.2052  -15.1230 C   0  0  0  0  0  0  0  0  0  0  0  0
   -7.0312   14.1079  -16.1047 C   0  0  0  0  0  0  0  0  0  0  0  0
   -8.8842   15.4622  -15.5669 C   0  0  0  0  0  0  0  0  0  0  0  0
   -9.2611   14.5821  -14.6065 C   0  0  0  0  0  0  0  0  0  0  0  0
   -8.5376   13.4404  -14.3652 C   0  0  0  0  0  0  0  0  0  0  0  0
  -10.7277   16.0601  -23.6550 C   0  0  0  0  0  0  0  0  0  0  0  0
  -10.6359   15.3837  -24.8594 C   0  0  0  0  0  0  0  0  0  0  0  0
   -5.9161   13.7968  -16.7995 F   0  0  0  0  0  0  0  0  0  0  0  0
   -6.1455   16.2695  -17.6633 O   0  0  0  0  0  0  0  0  0  0  0  0
   -8.2024   17.0843  -18.0647 N   0  0  0  0  0  0  0  0  0  0  0  0
   -7.6812   18.1472  -18.7449 N   0  0  0  0  0  0  0  0  0  0  0  0
   -8.7186   18.8659  -19.8834 S   0  0  2  0  0  6  0  0  0  0  0  0
   -8.3687   20.2864  -20.1883 O   0  0  0  0  0  0  0  0  0  0  0  0
  -10.1527   18.7476  -19.3937 O   0  0  0  0  0  0  0  0  0  0  0  0
   -8.6685   17.9959  -21.4007 C   0  0  0  0  0  0  0  0  0  0  0  0
   -9.7821   17.3619  -21.9134 C   0  0  0  0  0  0  0  0  0  0  0  0
   -9.6496   16.7019  -23.1106 C   0  0  0  0  0  0  0  0  0  0  0  0
   -9.4355   15.3380  -25.5539 C   0  0  0  0  0  0  0  0  0  0  0  0
   -8.3336   15.9899  -25.0045 C   0  0  0  0  0  0  0  0  0  0  0  0
   -8.4446   16.6595  -23.8018 C   0  0  0  0  0  0  0  0  0  0  0  0
   -7.3380   17.2971  -23.2793 C   0  0  0  0  0  0  0  0  0  0  0  0
   -7.4672   17.9597  -22.0794 C   0  0  0  0  0  0  0  0  0  0  0  0
  1  2  1  0
  1 11  2  0
 12  1  1  0
  2  4  1  0
  2  5  2  0
  4  3  2  0
  3  7  1  0
  4 10  1  0
  5  6  1  0
  6  7  2  0
  8  9  2  0
 19  8  1  0
  9 20  1  0
 13 12  1  0
 14 13  1  1
 14 15  2  0
 14 16  2  0
 17 14  1  0
 18 17  1  0
 17 24  2  0
 18 19  2  0
 19 22  1  0
 20 21  2  0
 21 22  1  0
 22 23  2  0
 23 24  1  0
M  END
$$$$
