
     RDKit          3D

 24 26  0  0  0  0  0  0  0  0999 V2000
  -16.9895   27.9532  -10.9523 C   0  0  0  0  0  0  0  0  0  0  0  0
  -16.0686   27.0347  -11.5656 C   0  0  0  0  0  0  0  0  0  0  0  0
  -14.9416   24.9208  -11.6768 C   0  0  0  0  0  0  0  0  0  0  0  0
  -15.8362   25.7857  -11.0632 C   0  0  0  0  0  0  0  0  0  0  0  0
  -15.3800   27.4095  -12.7101 C   0  0  0  0  0  0  0  0  0  0  0  0
  -14.5047   26.5667  -13.3125 C   0  0  0  0  0  0  0  0  0  0  0  0
  -14.2680   25.3107  -12.8113 C   0  0  0  0  0  0  0  0  0  0  0  0
  -24.4261   28.9780  -10.4123 C   0  0  0  0  0  0  0  0  0  0  0  0
  -25.5152   28.1406  -10.5827 C   0  0  0  0  0  0  0  0  0  0  0  0
  -16.4520   25.3201   -9.9556 F   0  0  0  0  0  0  0  0  0  0  0  0
  -17.1580   27.8594   -9.6885 O   0  0  0  0  0  0  0  0  0  0  0  0
  -17.7520   28.9658  -11.5537 N   0  0  0  0  0  0  0  0  0  0  0  0
  -18.5186   29.8183  -10.8122 N   0  0  0  0  0  0  0  0  0  0  0  0
  -19.7502   30.6220  -11.6642 S   0  0  2  0  0  6  0  0  0  0  0  0
  -19.3467   31.0269  -13.0450 O   0  0  0  0  0  0  0  0  0  0  0  0
  -20.2136   31.8220  -10.8545 O   0  0  0  0  0  0  0  0  0  0  0  0
  -21.1581   29.5962  -11.8292 C   0  0  0  0  0  0  0  0  0  0  0  0
  -22.2569   29.7302  -11.0049 C   0  0  0  0  0  0  0  0  0  0  0  0
  -23.3168   28.8802  -11.2064 C   0  0  0  0  0  0  0  0  0  0  0  0
  -25.5110   27.1694  -11.5738 C   0  0  0  0  0  0  0  0  0  0  0  0
  -24.3838   27.0648  -12.3860 C   0  0  0  0  0  0  0  0  0  0  0  0
  -23.3069   27.9093  -12.2008 C   0  0  0  0  0  0  0  0  0  0  0  0
  -22.2027   27.7848  -13.0188 C   0  0  0  0  0  0  0  0  0  0  0  0
  -21.1384   28.6352  -12.8196 C   0  0  0  0  0  0  0  0  0  0  0  0
  1  2  1  0
  1 11  2  0
 12  1  1  0
  2  4  1  0
  2  5  2  0
  4  3  2  0
  3  7  1  0
  4 10  1  0
  5  6  1  0
  6  7  2  0
  8  9  2  0
 19  8  1  0
  9 20  1  0
 13 12  1  0
 14 13  1  1
 14 15  2  0
 14 16  2  0
 17 14  1  0
 18 17  1  0
 17 24  2  0
 18 19  2  0
 19 22  1  0
 20 21  2  0
 21 22  1  0
 22 23  2  0
 23 24  1  0
M  END
$$$$
