
     RDKit          3D

 24 26  0  0  0  0  0  0  0  0999 V2000
  -17.2160   26.1676  -22.8482 C   0  0  0  0  0  0  0  0  0  0  0  0
  -16.5770   24.9204  -22.5257 C   0  0  0  0  0  0  0  0  0  0  0  0
  -16.4528   22.5261  -22.5810 C   0  0  0  0  0  0  0  0  0  0  0  0
  -17.0919   23.7137  -22.9067 C   0  0  0  0  0  0  0  0  0  0  0  0
  -15.3933   24.9187  -21.8022 C   0  0  0  0  0  0  0  0  0  0  0  0
  -14.7659   23.7598  -21.4821 C   0  0  0  0  0  0  0  0  0  0  0  0
  -15.2796   22.5448  -21.8627 C   0  0  0  0  0  0  0  0  0  0  0  0
  -23.8700   25.9719  -22.7877 C   0  0  0  0  0  0  0  0  0  0  0  0
  -24.8492   25.0164  -22.5762 C   0  0  0  0  0  0  0  0  0  0  0  0
  -18.2371   23.6008  -23.6129 F   0  0  0  0  0  0  0  0  0  0  0  0
  -17.1060   27.1195  -22.0020 O   0  0  0  0  0  0  0  0  0  0  0  0
  -17.9637   26.5030  -23.9870 N   0  0  0  0  0  0  0  0  0  0  0  0
  -18.5909   27.7106  -24.0992 N   0  0  0  0  0  0  0  0  0  0  0  0
  -19.8020   27.7971  -25.2886 S   0  0  2  0  0  6  0  0  0  0  0  0
  -19.2966   27.5234  -26.6680 O   0  0  0  0  0  0  0  0  0  0  0  0
  -20.4780   29.1563  -25.2121 O   0  0  0  0  0  0  0  0  0  0  0  0
  -21.0643   26.6276  -24.9712 C   0  0  0  0  0  0  0  0  0  0  0  0
  -21.9838   26.8061  -23.9575 C   0  0  0  0  0  0  0  0  0  0  0  0
  -22.9391   25.8353  -23.7804 C   0  0  0  0  0  0  0  0  0  0  0  0
  -24.9134   23.8827  -23.3738 C   0  0  0  0  0  0  0  0  0  0  0  0
  -23.9679   23.7378  -24.3868 C   0  0  0  0  0  0  0  0  0  0  0  0
  -22.9986   24.7018  -24.5824 C   0  0  0  0  0  0  0  0  0  0  0  0
  -22.0738   24.5343  -25.5927 C   0  0  0  0  0  0  0  0  0  0  0  0
  -21.1147   25.5054  -25.7731 C   0  0  0  0  0  0  0  0  0  0  0  0
  1  2  1  0
  1 11  2  0
 12  1  1  0
  2  4  1  0
  2  5  2  0
  4  3  2  0
  3  7  1  0
  4 10  1  0
  5  6  1  0
  6  7  2  0
  8  9  2  0
 19  8  1  0
  9 20  1  0
 13 12  1  0
 14 13  1  1
 14 15  2  0
 14 16  2  0
 17 14  1  0
 18 17  1  0
 17 24  2  0
 18 19  2  0
 19 22  1  0
 20 21  2  0
 21 22  1  0
 22 23  2  0
 23 24  1  0
M  END
$$$$
