
     RDKit          3D

 24 26  0  0  0  0  0  0  0  0999 V2000
  -18.1415   27.1484  -11.9470 C   0  0  0  0  0  0  0  0  0  0  0  0
  -17.0153   26.4224  -11.4249 C   0  0  0  0  0  0  0  0  0  0  0  0
  -15.6487   24.4581  -11.2667 C   0  0  0  0  0  0  0  0  0  0  0  0
  -16.7431   25.1336  -11.7872 C   0  0  0  0  0  0  0  0  0  0  0  0
  -16.1606   27.0335  -10.5189 C   0  0  0  0  0  0  0  0  0  0  0  0
  -15.0900   26.3762  -10.0081 C   0  0  0  0  0  0  0  0  0  0  0  0
  -14.8125   25.0810  -10.3692 C   0  0  0  0  0  0  0  0  0  0  0  0
  -21.3551   30.3687   -6.7747 C   0  0  0  0  0  0  0  0  0  0  0  0
  -22.2314   30.0893   -5.7401 C   0  0  0  0  0  0  0  0  0  0  0  0
  -17.5089   24.4454  -12.6606 F   0  0  0  0  0  0  0  0  0  0  0  0
  -18.8897   26.5445  -12.7894 O   0  0  0  0  0  0  0  0  0  0  0  0
  -18.5515   28.4591  -11.6598 N   0  0  0  0  0  0  0  0  0  0  0  0
  -19.5214   29.0806  -12.3928 N   0  0  0  0  0  0  0  0  0  0  0  0
  -20.1210   30.5277  -11.7332 S   0  0  2  0  0  6  0  0  0  0  0  0
  -20.9059   31.3422  -12.7098 O   0  0  0  0  0  0  0  0  0  0  0  0
  -18.9646   31.3281  -11.1564 O   0  0  0  0  0  0  0  0  0  0  0  0
  -21.1823   30.1976  -10.3817 C   0  0  0  0  0  0  0  0  0  0  0  0
  -20.7971   30.4372   -9.0782 C   0  0  0  0  0  0  0  0  0  0  0  0
  -21.6954   30.1467   -8.0807 C   0  0  0  0  0  0  0  0  0  0  0  0
  -23.4916   29.5713   -6.0025 C   0  0  0  0  0  0  0  0  0  0  0  0
  -23.8443   29.3429   -7.3310 C   0  0  0  0  0  0  0  0  0  0  0  0
  -22.9564   29.6279   -8.3496 C   0  0  0  0  0  0  0  0  0  0  0  0
  -23.3303   29.3925   -9.6568 C   0  0  0  0  0  0  0  0  0  0  0  0
  -22.4324   29.6826  -10.6593 C   0  0  0  0  0  0  0  0  0  0  0  0
  1  2  1  0
  1 11  2  0
 12  1  1  0
  2  4  1  0
  2  5  2  0
  4  3  2  0
  3  7  1  0
  4 10  1  0
  5  6  1  0
  6  7  2  0
  8  9  2  0
 19  8  1  0
  9 20  1  0
 13 12  1  0
 14 13  1  6
 14 15  2  0
 14 16  2  0
 17 14  1  0
 18 17  1  0
 17 24  2  0
 18 19  2  0
 19 22  1  0
 20 21  2  0
 21 22  1  0
 22 23  2  0
 23 24  1  0
M  END
$$$$
