
     RDKit          3D

 24 26  0  0  0  0  0  0  0  0999 V2000
  -17.3693   24.9175  -23.6824 C   0  0  0  0  0  0  0  0  0  0  0  0
  -17.8939   26.2520  -23.7918 C   0  0  0  0  0  0  0  0  0  0  0  0
  -19.7116   27.8130  -23.8932 C   0  0  0  0  0  0  0  0  0  0  0  0
  -19.2345   26.5146  -23.7861 C   0  0  0  0  0  0  0  0  0  0  0  0
  -17.0250   27.3272  -23.9084 C   0  0  0  0  0  0  0  0  0  0  0  0
  -17.4878   28.5977  -24.0134 C   0  0  0  0  0  0  0  0  0  0  0  0
  -18.8342   28.8664  -24.0080 C   0  0  0  0  0  0  0  0  0  0  0  0
  -16.8598   22.6287  -16.9793 C   0  0  0  0  0  0  0  0  0  0  0  0
  -17.7345   22.1405  -16.0236 C   0  0  0  0  0  0  0  0  0  0  0  0
  -20.1664   25.5436  -23.6776 F   0  0  0  0  0  0  0  0  0  0  0  0
  -17.7786   24.0545  -24.5321 O   0  0  0  0  0  0  0  0  0  0  0  0
  -16.4484   24.4089  -22.7542 N   0  0  0  0  0  0  0  0  0  0  0  0
  -15.7404   23.2681  -23.0025 N   0  0  0  0  0  0  0  0  0  0  0  0
  -14.8612   22.6526  -21.6845 S   0  0  2  0  0  6  0  0  0  0  0  0
  -13.9619   23.6633  -21.0499 O   0  0  0  0  0  0  0  0  0  0  0  0
  -14.0793   21.4298  -22.1358 O   0  0  0  0  0  0  0  0  0  0  0  0
  -15.9427   22.0815  -20.4331 C   0  0  0  0  0  0  0  0  0  0  0  0
  -15.9430   22.6285  -19.1659 C   0  0  0  0  0  0  0  0  0  0  0  0
  -16.8258   22.1162  -18.2469 C   0  0  0  0  0  0  0  0  0  0  0  0
  -18.6092   21.1076  -16.3290 C   0  0  0  0  0  0  0  0  0  0  0  0
  -18.5794   20.5812  -17.6187 C   0  0  0  0  0  0  0  0  0  0  0  0
  -17.6997   21.0814  -18.5585 C   0  0  0  0  0  0  0  0  0  0  0  0
  -17.6902   20.5425  -19.8287 C   0  0  0  0  0  0  0  0  0  0  0  0
  -16.8066   21.0536  -20.7525 C   0  0  0  0  0  0  0  0  0  0  0  0
  1  2  1  0
  1 11  2  0
 12  1  1  0
  2  4  1  0
  2  5  2  0
  4  3  2  0
  3  7  1  0
  4 10  1  0
  5  6  1  0
  6  7  2  0
  8  9  2  0
 19  8  1  0
  9 20  1  0
 13 12  1  0
 14 13  1  6
 14 15  2  0
 14 16  2  0
 17 14  1  0
 18 17  1  0
 17 24  2  0
 18 19  2  0
 19 22  1  0
 20 21  2  0
 21 22  1  0
 22 23  2  0
 23 24  1  0
M  END
$$$$
