
     RDKit          3D

 24 26  0  0  0  0  0  0  0  0999 V2000
  -17.4214   22.3891  -19.2997 C   0  0  0  0  0  0  0  0  0  0  0  0
  -18.6191   21.6177  -19.1036 C   0  0  0  0  0  0  0  0  0  0  0  0
  -20.4464   20.2965  -19.9200 C   0  0  0  0  0  0  0  0  0  0  0  0
  -19.2928   21.0355  -20.1397 C   0  0  0  0  0  0  0  0  0  0  0  0
  -19.1269   21.4454  -17.8242 C   0  0  0  0  0  0  0  0  0  0  0  0
  -20.2541   20.7238  -17.6058 C   0  0  0  0  0  0  0  0  0  0  0  0
  -20.9346   20.1368  -18.6437 C   0  0  0  0  0  0  0  0  0  0  0  0
  -18.1087   27.3522  -21.6493 C   0  0  0  0  0  0  0  0  0  0  0  0
  -18.7996   28.4089  -22.2172 C   0  0  0  0  0  0  0  0  0  0  0  0
  -18.8865   21.1398  -21.4230 F   0  0  0  0  0  0  0  0  0  0  0  0
  -17.1613   23.2981  -18.4393 O   0  0  0  0  0  0  0  0  0  0  0  0
  -16.4693   22.2879  -20.3252 N   0  0  0  0  0  0  0  0  0  0  0  0
  -15.3518   23.0723  -20.3419 N   0  0  0  0  0  0  0  0  0  0  0  0
  -14.7726   23.4859  -21.8854 S   0  0  2  0  0  6  0  0  0  0  0  0
  -14.8784   22.3710  -22.8749 O   0  0  0  0  0  0  0  0  0  0  0  0
  -13.3391   23.9765  -21.7637 O   0  0  0  0  0  0  0  0  0  0  0  0
  -15.6746   24.8332  -22.5433 C   0  0  0  0  0  0  0  0  0  0  0  0
  -16.5583   25.5626  -21.7738 C   0  0  0  0  0  0  0  0  0  0  0  0
  -17.2238   26.6030  -22.3747 C   0  0  0  0  0  0  0  0  0  0  0  0
  -18.6111   28.7400  -23.5515 C   0  0  0  0  0  0  0  0  0  0  0  0
  -17.7109   27.9805  -24.2959 C   0  0  0  0  0  0  0  0  0  0  0  0
  -17.0310   26.9300  -23.7116 C   0  0  0  0  0  0  0  0  0  0  0  0
  -16.1450   26.1935  -24.4709 C   0  0  0  0  0  0  0  0  0  0  0  0
  -15.4760   25.1499  -23.8719 C   0  0  0  0  0  0  0  0  0  0  0  0
  1  2  1  0
  1 11  2  0
 12  1  1  0
  2  4  1  0
  2  5  2  0
  4  3  2  0
  3  7  1  0
  4 10  1  0
  5  6  1  0
  6  7  2  0
  8  9  2  0
 19  8  1  0
  9 20  1  0
 13 12  1  0
 14 13  1  1
 14 15  2  0
 14 16  2  0
 17 14  1  0
 18 17  1  0
 17 24  2  0
 18 19  2  0
 19 22  1  0
 20 21  2  0
 21 22  1  0
 22 23  2  0
 23 24  1  0
M  END
$$$$
