
     RDKit          3D

 24 26  0  0  0  0  0  0  0  0999 V2000
   -9.2876   18.0508  -22.1359 C   0  0  0  0  0  0  0  0  0  0  0  0
   -8.8421   17.2433  -23.2392 C   0  0  0  0  0  0  0  0  0  0  0  0
   -8.0591   16.9767  -25.4902 C   0  0  0  0  0  0  0  0  0  0  0  0
   -8.4855   17.7812  -24.4433 C   0  0  0  0  0  0  0  0  0  0  0  0
   -8.7637   15.8654  -23.0980 C   0  0  0  0  0  0  0  0  0  0  0  0
   -8.3474   15.0760  -24.1192 C   0  0  0  0  0  0  0  0  0  0  0  0
   -7.9880   15.6120  -25.3310 C   0  0  0  0  0  0  0  0  0  0  0  0
   -5.7373   15.6072  -16.8835 C   0  0  0  0  0  0  0  0  0  0  0  0
   -5.2445   14.3604  -16.5380 C   0  0  0  0  0  0  0  0  0  0  0  0
   -8.5242   19.1084  -24.6882 F   0  0  0  0  0  0  0  0  0  0  0  0
   -9.1416   19.3167  -22.2384 O   0  0  0  0  0  0  0  0  0  0  0  0
   -9.8757   17.6424  -20.9293 N   0  0  0  0  0  0  0  0  0  0  0  0
  -10.3478   18.5476  -20.0227 N   0  0  0  0  0  0  0  0  0  0  0  0
   -9.4426   18.6877  -18.5910 S   0  0  2  0  0  6  0  0  0  0  0  0
  -10.2486   19.1634  -17.4259 O   0  0  0  0  0  0  0  0  0  0  0  0
   -8.2521   19.5987  -18.8425 O   0  0  0  0  0  0  0  0  0  0  0  0
   -8.7613   17.1412  -18.1369 C   0  0  0  0  0  0  0  0  0  0  0  0
   -7.4657   17.0236  -17.6763 C   0  0  0  0  0  0  0  0  0  0  0  0
   -7.0148   15.7695  -17.3442 C   0  0  0  0  0  0  0  0  0  0  0  0
   -6.0415   13.2301  -16.6510 C   0  0  0  0  0  0  0  0  0  0  0  0
   -7.3439   13.3889  -17.1198 C   0  0  0  0  0  0  0  0  0  0  0  0
   -7.8176   14.6409  -17.4594 C   0  0  0  0  0  0  0  0  0  0  0  0
   -9.1114   14.7709  -17.9212 C   0  0  0  0  0  0  0  0  0  0  0  0
   -9.5667   16.0266  -18.2550 C   0  0  0  0  0  0  0  0  0  0  0  0
  1  2  1  0
  1 11  2  0
 12  1  1  0
  2  4  1  0
  2  5  2  0
  4  3  2  0
  3  7  1  0
  4 10  1  0
  5  6  1  0
  6  7  2  0
  8  9  2  0
 19  8  1  0
  9 20  1  0
 13 12  1  0
 14 13  1  6
 14 15  2  0
 14 16  2  0
 17 14  1  0
 18 17  1  0
 17 24  2  0
 18 19  2  0
 19 22  1  0
 20 21  2  0
 21 22  1  0
 22 23  2  0
 23 24  1  0
M  END
$$$$
