
     RDKit          3D

 24 26  0  0  0  0  0  0  0  0999 V2000
  -16.5403   24.6110  -21.2614 C   0  0  0  0  0  0  0  0  0  0  0  0
  -15.5064   23.7396  -21.7510 C   0  0  0  0  0  0  0  0  0  0  0  0
  -14.2163   21.7202  -21.6572 C   0  0  0  0  0  0  0  0  0  0  0  0
  -15.2200   22.5405  -21.1624 C   0  0  0  0  0  0  0  0  0  0  0  0
  -14.7601   24.1099  -22.8602 C   0  0  0  0  0  0  0  0  0  0  0  0
  -13.7783   23.3107  -23.3465 C   0  0  0  0  0  0  0  0  0  0  0  0
  -13.4868   22.1048  -22.7584 C   0  0  0  0  0  0  0  0  0  0  0  0
  -23.5917   26.5978  -23.5338 C   0  0  0  0  0  0  0  0  0  0  0  0
  -24.5408   26.1299  -24.4264 C   0  0  0  0  0  0  0  0  0  0  0  0
  -15.8840   22.0837  -20.0792 F   0  0  0  0  0  0  0  0  0  0  0  0
  -16.9954   24.3811  -20.0892 O   0  0  0  0  0  0  0  0  0  0  0  0
  -17.1400   25.7074  -21.8991 N   0  0  0  0  0  0  0  0  0  0  0  0
  -18.1402   26.4207  -21.3031 N   0  0  0  0  0  0  0  0  0  0  0  0
  -18.7744   27.7001  -22.2249 S   0  0  2  0  0  6  0  0  0  0  0  0
  -17.7501   28.3832  -23.0718 O   0  0  0  0  0  0  0  0  0  0  0  0
  -19.4651   28.6866  -21.2974 O   0  0  0  0  0  0  0  0  0  0  0  0
  -20.0220   27.1225  -23.3074 C   0  0  0  0  0  0  0  0  0  0  0  0
  -21.3525   27.1047  -22.9411 C   0  0  0  0  0  0  0  0  0  0  0  0
  -22.2627   26.6331  -23.8551 C   0  0  0  0  0  0  0  0  0  0  0  0
  -24.1657   25.6794  -25.6841 C   0  0  0  0  0  0  0  0  0  0  0  0
  -22.8133   25.7129  -26.0175 C   0  0  0  0  0  0  0  0  0  0  0  0
  -21.8812   26.1832  -25.1135 C   0  0  0  0  0  0  0  0  0  0  0  0
  -20.5479   26.2058  -25.4685 C   0  0  0  0  0  0  0  0  0  0  0  0
  -19.6328   26.6779  -24.5547 C   0  0  0  0  0  0  0  0  0  0  0  0
  1  2  1  0
  1 11  2  0
 12  1  1  0
  2  4  1  0
  2  5  2  0
  4  3  2  0
  3  7  1  0
  4 10  1  0
  5  6  1  0
  6  7  2  0
  8  9  2  0
 19  8  1  0
  9 20  1  0
 13 12  1  0
 14 13  1  1
 14 15  2  0
 14 16  2  0
 17 14  1  0
 18 17  1  0
 17 24  2  0
 18 19  2  0
 19 22  1  0
 20 21  2  0
 21 22  1  0
 22 23  2  0
 23 24  1  0
M  END
$$$$
