
     RDKit          3D

 24 26  0  0  0  0  0  0  0  0999 V2000
   -7.7284   14.5067  -15.5928 C   0  0  0  0  0  0  0  0  0  0  0  0
   -7.4552   14.9956  -14.2683 C   0  0  0  0  0  0  0  0  0  0  0  0
   -7.5444   14.8069  -11.8792 C   0  0  0  0  0  0  0  0  0  0  0  0
   -7.8216   14.3102  -13.1448 C   0  0  0  0  0  0  0  0  0  0  0  0
   -6.7966   16.2051  -14.1017 C   0  0  0  0  0  0  0  0  0  0  0  0
   -6.5240   16.6936  -12.8663 C   0  0  0  0  0  0  0  0  0  0  0  0
   -6.8902   16.0084  -11.7343 C   0  0  0  0  0  0  0  0  0  0  0  0
   -8.7749   20.6253  -18.1925 C   0  0  0  0  0  0  0  0  0  0  0  0
   -9.5709   21.7317  -18.4347 C   0  0  0  0  0  0  0  0  0  0  0  0
   -8.4664   13.1249  -13.1924 F   0  0  0  0  0  0  0  0  0  0  0  0
   -7.4314   13.2885  -15.8417 O   0  0  0  0  0  0  0  0  0  0  0  0
   -8.2888   15.1893  -16.6830 N   0  0  0  0  0  0  0  0  0  0  0  0
   -8.1596   14.7235  -17.9600 N   0  0  0  0  0  0  0  0  0  0  0  0
   -7.3911   15.7790  -19.0483 S   0  0  2  0  0  6  0  0  0  0  0  0
   -7.1503   15.1705  -20.3918 O   0  0  0  0  0  0  0  0  0  0  0  0
   -6.0936   16.2730  -18.4297 O   0  0  0  0  0  0  0  0  0  0  0  0
   -8.3612   17.2117  -19.3086 C   0  0  0  0  0  0  0  0  0  0  0  0
   -8.1439   18.3765  -18.6008 C   0  0  0  0  0  0  0  0  0  0  0  0
   -8.9552   19.4514  -18.8707 C   0  0  0  0  0  0  0  0  0  0  0  0
  -10.5837   21.6791  -19.3818 C   0  0  0  0  0  0  0  0  0  0  0  0
  -10.7725   20.4860  -20.0760 C   0  0  0  0  0  0  0  0  0  0  0  0
   -9.9681   19.3929  -19.8204 C   0  0  0  0  0  0  0  0  0  0  0  0
  -10.1759   18.2229  -20.5219 C   0  0  0  0  0  0  0  0  0  0  0  0
   -9.3646   17.1434  -20.2540 C   0  0  0  0  0  0  0  0  0  0  0  0
  1  2  1  0
  1 11  2  0
 12  1  1  0
  2  4  1  0
  2  5  2  0
  4  3  2  0
  3  7  1  0
  4 10  1  0
  5  6  1  0
  6  7  2  0
  8  9  2  0
 19  8  1  0
  9 20  1  0
 13 12  1  0
 14 13  1  1
 14 15  2  0
 14 16  2  0
 17 14  1  0
 18 17  1  0
 17 24  2  0
 18 19  2  0
 19 22  1  0
 20 21  2  0
 21 22  1  0
 22 23  2  0
 23 24  1  0
M  END
$$$$
