
     RDKit          3D

 24 26  0  0  0  0  0  0  0  0999 V2000
  -13.7807   21.8443  -20.4690 C   0  0  0  0  0  0  0  0  0  0  0  0
  -14.3341   21.9388  -19.1451 C   0  0  0  0  0  0  0  0  0  0  0  0
  -15.9607   22.7504  -17.5810 C   0  0  0  0  0  0  0  0  0  0  0  0
  -15.4493   22.6780  -18.8687 C   0  0  0  0  0  0  0  0  0  0  0  0
  -13.7299   21.2628  -18.0951 C   0  0  0  0  0  0  0  0  0  0  0  0
  -14.2271   21.3314  -16.8352 C   0  0  0  0  0  0  0  0  0  0  0  0
  -15.3475   22.0729  -16.5526 C   0  0  0  0  0  0  0  0  0  0  0  0
   -9.7332   16.6275  -19.4002 C   0  0  0  0  0  0  0  0  0  0  0  0
   -8.7505   16.4015  -18.4516 C   0  0  0  0  0  0  0  0  0  0  0  0
  -16.1146   23.3742  -19.8149 F   0  0  0  0  0  0  0  0  0  0  0  0
  -13.5700   22.9380  -21.0965 O   0  0  0  0  0  0  0  0  0  0  0  0
  -13.4279   20.6961  -21.1939 N   0  0  0  0  0  0  0  0  0  0  0  0
  -12.9813   20.7738  -22.4818 N   0  0  0  0  0  0  0  0  0  0  0  0
  -11.9786   19.4973  -22.9858 S   0  0  2  0  0  6  0  0  0  0  0  0
  -11.2501   19.7846  -24.2585 O   0  0  0  0  0  0  0  0  0  0  0  0
  -12.8089   18.2295  -23.1035 O   0  0  0  0  0  0  0  0  0  0  0  0
  -10.7638   19.1509  -21.7749 C   0  0  0  0  0  0  0  0  0  0  0  0
  -10.7634   17.9694  -21.0615 C   0  0  0  0  0  0  0  0  0  0  0  0
   -9.7715   17.7837  -20.1297 C   0  0  0  0  0  0  0  0  0  0  0  0
   -7.7677   17.3516  -18.2129 C   0  0  0  0  0  0  0  0  0  0  0  0
   -7.8013   18.5316  -18.9530 C   0  0  0  0  0  0  0  0  0  0  0  0
   -8.7897   18.7389  -19.8949 C   0  0  0  0  0  0  0  0  0  0  0  0
   -8.8005   19.9163  -20.6145 C   0  0  0  0  0  0  0  0  0  0  0  0
   -9.7932   20.1059  -21.5493 C   0  0  0  0  0  0  0  0  0  0  0  0
  1  2  1  0
  1 11  2  0
 12  1  1  0
  2  4  1  0
  2  5  2  0
  4  3  2  0
  3  7  1  0
  4 10  1  0
  5  6  1  0
  6  7  2  0
  8  9  2  0
 19  8  1  0
  9 20  1  0
 13 12  1  0
 14 13  1  1
 14 15  2  0
 14 16  2  0
 17 14  1  0
 18 17  1  0
 17 24  2  0
 18 19  2  0
 19 22  1  0
 20 21  2  0
 21 22  1  0
 22 23  2  0
 23 24  1  0
M  END
$$$$
