
     RDKit          3D

 24 26  0  0  0  0  0  0  0  0999 V2000
  -15.8207   22.6900  -18.4381 C   0  0  0  0  0  0  0  0  0  0  0  0
  -16.6441   22.4635  -17.2811 C   0  0  0  0  0  0  0  0  0  0  0  0
  -18.6971   21.7917  -16.2394 C   0  0  0  0  0  0  0  0  0  0  0  0
  -17.9261   22.0009  -17.3739 C   0  0  0  0  0  0  0  0  0  0  0  0
  -16.1385   22.7173  -16.0144 C   0  0  0  0  0  0  0  0  0  0  0  0
  -16.8891   22.5140  -14.9034 C   0  0  0  0  0  0  0  0  0  0  0  0
  -18.1780   22.0492  -14.9916 C   0  0  0  0  0  0  0  0  0  0  0  0
  -20.0626   25.0104  -23.2913 C   0  0  0  0  0  0  0  0  0  0  0  0
  -20.7714   26.1682  -23.5628 C   0  0  0  0  0  0  0  0  0  0  0  0
  -18.5161   21.7220  -18.5559 F   0  0  0  0  0  0  0  0  0  0  0  0
  -14.7239   23.3229  -18.2632 O   0  0  0  0  0  0  0  0  0  0  0  0
  -16.0506   22.3079  -19.7684 N   0  0  0  0  0  0  0  0  0  0  0  0
  -15.1247   22.5335  -20.7462 N   0  0  0  0  0  0  0  0  0  0  0  0
  -15.7183   22.4899  -22.3383 S   0  0  2  0  0  6  0  0  0  0  0  0
  -16.5938   21.3100  -22.6109 O   0  0  0  0  0  0  0  0  0  0  0  0
  -14.5479   22.5394  -23.3069 O   0  0  0  0  0  0  0  0  0  0  0  0
  -16.6712   23.9167  -22.6816 C   0  0  0  0  0  0  0  0  0  0  0  0
  -18.0397   23.8550  -22.8497 C   0  0  0  0  0  0  0  0  0  0  0  0
  -18.7060   25.0257  -23.1176 C   0  0  0  0  0  0  0  0  0  0  0  0
  -20.1182   27.3880  -23.6671 C   0  0  0  0  0  0  0  0  0  0  0  0
  -18.7363   27.4101  -23.4912 C   0  0  0  0  0  0  0  0  0  0  0  0
  -18.0464   26.2446  -23.2210 C   0  0  0  0  0  0  0  0  0  0  0  0
  -16.6779   26.2939  -23.0510 C   0  0  0  0  0  0  0  0  0  0  0  0
  -16.0067   25.1223  -22.7823 C   0  0  0  0  0  0  0  0  0  0  0  0
  1  2  1  0
  1 11  2  0
 12  1  1  0
  2  4  1  0
  2  5  2  0
  4  3  2  0
  3  7  1  0
  4 10  1  0
  5  6  1  0
  6  7  2  0
  8  9  2  0
 19  8  1  0
  9 20  1  0
 13 12  1  0
 14 13  1  1
 14 15  2  0
 14 16  2  0
 17 14  1  0
 18 17  1  0
 17 24  2  0
 18 19  2  0
 19 22  1  0
 20 21  2  0
 21 22  1  0
 22 23  2  0
 23 24  1  0
M  END
$$$$
