
     RDKit          3D

 24 26  0  0  0  0  0  0  0  0999 V2000
  -16.2547   23.1554  -18.8232 C   0  0  0  0  0  0  0  0  0  0  0  0
  -15.3998   23.0867  -17.6689 C   0  0  0  0  0  0  0  0  0  0  0  0
  -14.9583   23.4213  -15.3356 C   0  0  0  0  0  0  0  0  0  0  0  0
  -15.8056   23.4996  -16.4315 C   0  0  0  0  0  0  0  0  0  0  0  0
  -14.1119   22.5863  -17.7932 C   0  0  0  0  0  0  0  0  0  0  0  0
  -13.2810   22.5083  -16.7243 C   0  0  0  0  0  0  0  0  0  0  0  0
  -13.6843   22.9220  -15.4788 C   0  0  0  0  0  0  0  0  0  0  0  0
  -20.2560   17.3071  -19.1297 C   0  0  0  0  0  0  0  0  0  0  0  0
  -21.2970   16.8194  -18.3584 C   0  0  0  0  0  0  0  0  0  0  0  0
  -17.0369   24.0023  -16.1989 F   0  0  0  0  0  0  0  0  0  0  0  0
  -17.0227   24.1722  -18.9251 O   0  0  0  0  0  0  0  0  0  0  0  0
  -16.3734   22.2448  -19.8839 N   0  0  0  0  0  0  0  0  0  0  0  0
  -17.2379   22.4621  -20.9182 N   0  0  0  0  0  0  0  0  0  0  0  0
  -17.8713   21.0634  -21.6471 S   0  0  2  0  0  6  0  0  0  0  0  0
  -16.8563   19.9827  -21.8341 O   0  0  0  0  0  0  0  0  0  0  0  0
  -18.5195   21.4415  -22.9689 O   0  0  0  0  0  0  0  0  0  0  0  0
  -19.1567   20.3865  -20.6717 C   0  0  0  0  0  0  0  0  0  0  0  0
  -19.1611   19.0595  -20.2925 C   0  0  0  0  0  0  0  0  0  0  0  0
  -20.2116   18.6148  -19.5277 C   0  0  0  0  0  0  0  0  0  0  0  0
  -22.3343   17.6525  -17.9642 C   0  0  0  0  0  0  0  0  0  0  0  0
  -22.2949   18.9859  -18.3665 C   0  0  0  0  0  0  0  0  0  0  0  0
  -21.2479   19.4540  -19.1359 C   0  0  0  0  0  0  0  0  0  0  0  0
  -21.2327   20.7789  -19.5211 C   0  0  0  0  0  0  0  0  0  0  0  0
  -20.1811   21.2281  -20.2878 C   0  0  0  0  0  0  0  0  0  0  0  0
  1  2  1  0
  1 11  2  0
 12  1  1  0
  2  4  1  0
  2  5  2  0
  4  3  2  0
  3  7  1  0
  4 10  1  0
  5  6  1  0
  6  7  2  0
  8  9  2  0
 19  8  1  0
  9 20  1  0
 13 12  1  0
 14 13  1  1
 14 15  2  0
 14 16  2  0
 17 14  1  0
 18 17  1  0
 17 24  2  0
 18 19  2  0
 19 22  1  0
 20 21  2  0
 21 22  1  0
 22 23  2  0
 23 24  1  0
M  END
$$$$
