
     RDKit          3D

 24 26  0  0  0  0  0  0  0  0999 V2000
  -17.5084   25.3298  -23.0089 C   0  0  0  0  0  0  0  0  0  0  0  0
  -18.6151   25.6198  -23.8801 C   0  0  0  0  0  0  0  0  0  0  0  0
  -19.5749   25.9303  -26.0558 C   0  0  0  0  0  0  0  0  0  0  0  0
  -18.4888   25.6473  -25.2401 C   0  0  0  0  0  0  0  0  0  0  0  0
  -19.8659   25.8844  -23.3416 C   0  0  0  0  0  0  0  0  0  0  0  0
  -20.9297   26.1614  -24.1357 C   0  0  0  0  0  0  0  0  0  0  0  0
  -20.8077   26.1902  -25.5029 C   0  0  0  0  0  0  0  0  0  0  0  0
  -16.4774   22.2743  -16.7314 C   0  0  0  0  0  0  0  0  0  0  0  0
  -17.3194   21.8517  -15.7170 C   0  0  0  0  0  0  0  0  0  0  0  0
  -17.3184   25.4049  -25.8679 F   0  0  0  0  0  0  0  0  0  0  0  0
  -17.2046   26.2098  -22.1329 O   0  0  0  0  0  0  0  0  0  0  0  0
  -16.6898   24.1908  -22.9780 N   0  0  0  0  0  0  0  0  0  0  0  0
  -15.5715   24.1362  -22.1964 N   0  0  0  0  0  0  0  0  0  0  0  0
  -15.1342   22.5858  -21.6541 S   0  0  2  0  0  6  0  0  0  0  0  0
  -13.7243   22.5063  -21.1651 O   0  0  0  0  0  0  0  0  0  0  0  0
  -15.3863   21.5806  -22.7660 O   0  0  0  0  0  0  0  0  0  0  0  0
  -16.1587   22.0836  -20.3274 C   0  0  0  0  0  0  0  0  0  0  0  0
  -15.8675   22.4109  -19.0186 C   0  0  0  0  0  0  0  0  0  0  0  0
  -16.7278   21.9727  -18.0417 C   0  0  0  0  0  0  0  0  0  0  0  0
  -18.4517   21.1032  -16.0051 C   0  0  0  0  0  0  0  0  0  0  0  0
  -18.7123   20.7927  -17.3381 C   0  0  0  0  0  0  0  0  0  0  0  0
  -17.8605   21.2232  -18.3362 C   0  0  0  0  0  0  0  0  0  0  0  0
  -18.1413   20.9021  -19.6486 C   0  0  0  0  0  0  0  0  0  0  0  0
  -17.2811   21.3397  -20.6304 C   0  0  0  0  0  0  0  0  0  0  0  0
  1  2  1  0
  1 11  2  0
 12  1  1  0
  2  4  1  0
  2  5  2  0
  4  3  2  0
  3  7  1  0
  4 10  1  0
  5  6  1  0
  6  7  2  0
  8  9  2  0
 19  8  1  0
  9 20  1  0
 13 12  1  0
 14 13  1  6
 14 15  2  0
 14 16  2  0
 17 14  1  0
 18 17  1  0
 17 24  2  0
 18 19  2  0
 19 22  1  0
 20 21  2  0
 21 22  1  0
 22 23  2  0
 23 24  1  0
M  END
$$$$
