
     RDKit          3D

 24 26  0  0  0  0  0  0  0  0999 V2000
  -16.2168   22.7390  -18.8196 C   0  0  0  0  0  0  0  0  0  0  0  0
  -17.1648   22.1112  -17.9392 C   0  0  0  0  0  0  0  0  0  0  0  0
  -17.8375   21.2859  -15.7903 C   0  0  0  0  0  0  0  0  0  0  0  0
  -16.9030   21.8942  -16.6160 C   0  0  0  0  0  0  0  0  0  0  0  0
  -18.3964   21.7028  -18.4299 C   0  0  0  0  0  0  0  0  0  0  0  0
  -19.3122   21.1079  -17.6258 C   0  0  0  0  0  0  0  0  0  0  0  0
  -19.0537   20.8878  -16.2954 C   0  0  0  0  0  0  0  0  0  0  0  0
  -20.0116   25.1277  -24.7743 C   0  0  0  0  0  0  0  0  0  0  0  0
  -20.8818   26.1014  -25.2339 C   0  0  0  0  0  0  0  0  0  0  0  0
  -15.7375   22.2518  -16.0359 F   0  0  0  0  0  0  0  0  0  0  0  0
  -14.9803   22.6566  -18.5057 O   0  0  0  0  0  0  0  0  0  0  0  0
  -16.4560   23.4487  -20.0059 N   0  0  0  0  0  0  0  0  0  0  0  0
  -15.4327   23.8565  -20.8127 N   0  0  0  0  0  0  0  0  0  0  0  0
  -15.6894   23.6481  -22.4799 S   0  0  2  0  0  6  0  0  0  0  0  0
  -16.2359   22.3022  -22.8304 O   0  0  0  0  0  0  0  0  0  0  0  0
  -14.3911   23.9226  -23.2211 O   0  0  0  0  0  0  0  0  0  0  0  0
  -16.8311   24.8298  -23.0816 C   0  0  0  0  0  0  0  0  0  0  0  0
  -18.0033   24.4566  -23.7073 C   0  0  0  0  0  0  0  0  0  0  0  0
  -18.8395   25.4527  -24.1488 C   0  0  0  0  0  0  0  0  0  0  0  0
  -20.5854   27.4471  -25.0708 C   0  0  0  0  0  0  0  0  0  0  0  0
  -19.3929   27.7846  -24.4344 C   0  0  0  0  0  0  0  0  0  0  0  0
  -18.5374   26.7990  -23.9826 C   0  0  0  0  0  0  0  0  0  0  0  0
  -17.3625   27.1601  -23.3555 C   0  0  0  0  0  0  0  0  0  0  0  0
  -16.5219   26.1642  -22.9117 C   0  0  0  0  0  0  0  0  0  0  0  0
  1  2  1  0
  1 11  2  0
 12  1  1  0
  2  4  1  0
  2  5  2  0
  4  3  2  0
  3  7  1  0
  4 10  1  0
  5  6  1  0
  6  7  2  0
  8  9  2  0
 19  8  1  0
  9 20  1  0
 13 12  1  0
 14 13  1  1
 14 15  2  0
 14 16  2  0
 17 14  1  0
 18 17  1  0
 17 24  2  0
 18 19  2  0
 19 22  1  0
 20 21  2  0
 21 22  1  0
 22 23  2  0
 23 24  1  0
M  END
$$$$
