
     RDKit          3D

 24 26  0  0  0  0  0  0  0  0999 V2000
  -18.5923   24.3768  -22.9684 C   0  0  0  0  0  0  0  0  0  0  0  0
  -18.5714   25.7832  -23.2675 C   0  0  0  0  0  0  0  0  0  0  0  0
  -17.4186   27.8448  -23.6824 C   0  0  0  0  0  0  0  0  0  0  0  0
  -17.4078   26.4879  -23.3932 C   0  0  0  0  0  0  0  0  0  0  0  0
  -19.7646   26.4698  -23.4388 C   0  0  0  0  0  0  0  0  0  0  0  0
  -19.7790   27.7961  -23.7216 C   0  0  0  0  0  0  0  0  0  0  0  0
  -18.6122   28.5084  -23.8488 C   0  0  0  0  0  0  0  0  0  0  0  0
  -18.0998   21.3185  -16.9232 C   0  0  0  0  0  0  0  0  0  0  0  0
  -18.0535   21.7572  -15.6110 C   0  0  0  0  0  0  0  0  0  0  0  0
  -16.1922   25.9189  -23.2465 F   0  0  0  0  0  0  0  0  0  0  0  0
  -19.7334   23.8360  -22.7690 O   0  0  0  0  0  0  0  0  0  0  0  0
  -17.5142   23.4855  -22.8602 N   0  0  0  0  0  0  0  0  0  0  0  0
  -17.7089   22.1545  -22.6262 N   0  0  0  0  0  0  0  0  0  0  0  0
  -16.4669   21.3745  -21.7672 S   0  0  2  0  0  6  0  0  0  0  0  0
  -15.1041   21.6560  -22.3120 O   0  0  0  0  0  0  0  0  0  0  0  0
  -16.7465   19.8808  -21.7352 O   0  0  0  0  0  0  0  0  0  0  0  0
  -16.4579   21.8854  -20.0937 C   0  0  0  0  0  0  0  0  0  0  0  0
  -17.3313   21.3550  -19.1660 C   0  0  0  0  0  0  0  0  0  0  0  0
  -17.2532   21.8168  -17.8749 C   0  0  0  0  0  0  0  0  0  0  0  0
  -17.1376   22.7242  -15.2217 C   0  0  0  0  0  0  0  0  0  0  0  0
  -16.2724   23.2358  -16.1866 C   0  0  0  0  0  0  0  0  0  0  0  0
  -16.3338   22.7856  -17.4907 C   0  0  0  0  0  0  0  0  0  0  0  0
  -15.4656   23.3085  -18.4271 C   0  0  0  0  0  0  0  0  0  0  0  0
  -15.5410   22.8479  -19.7223 C   0  0  0  0  0  0  0  0  0  0  0  0
  1  2  1  0
  1 11  2  0
 12  1  1  0
  2  4  1  0
  2  5  2  0
  4  3  2  0
  3  7  1  0
  4 10  1  0
  5  6  1  0
  6  7  2  0
  8  9  2  0
 19  8  1  0
  9 20  1  0
 13 12  1  0
 14 13  1  6
 14 15  2  0
 14 16  2  0
 17 14  1  0
 18 17  1  0
 17 24  2  0
 18 19  2  0
 19 22  1  0
 20 21  2  0
 21 22  1  0
 22 23  2  0
 23 24  1  0
M  END
$$$$
