
     RDKit          3D

 24 26  0  0  0  0  0  0  0  0999 V2000
  -16.2742   22.1419  -18.7110 C   0  0  0  0  0  0  0  0  0  0  0  0
  -15.7359   23.0700  -17.7536 C   0  0  0  0  0  0  0  0  0  0  0  0
  -14.5253   23.5825  -15.7478 C   0  0  0  0  0  0  0  0  0  0  0  0
  -15.0330   22.6635  -16.6549 C   0  0  0  0  0  0  0  0  0  0  0  0
  -15.9251   24.4327  -17.9321 C   0  0  0  0  0  0  0  0  0  0  0  0
  -15.4303   25.3337  -17.0476 C   0  0  0  0  0  0  0  0  0  0  0  0
  -14.7233   24.9300  -15.9421 C   0  0  0  0  0  0  0  0  0  0  0  0
  -20.5363   25.5603  -22.9501 C   0  0  0  0  0  0  0  0  0  0  0  0
  -21.7930   26.1246  -22.8124 C   0  0  0  0  0  0  0  0  0  0  0  0
  -14.7911   21.3629  -16.3852 F   0  0  0  0  0  0  0  0  0  0  0  0
  -16.5564   20.9666  -18.2947 O   0  0  0  0  0  0  0  0  0  0  0  0
  -16.5430   22.3421  -20.0734 N   0  0  0  0  0  0  0  0  0  0  0  0
  -16.6227   21.2955  -20.9467 N   0  0  0  0  0  0  0  0  0  0  0  0
  -17.2533   21.6700  -22.4800 S   0  0  2  0  0  6  0  0  0  0  0  0
  -17.4425   20.4702  -23.3506 O   0  0  0  0  0  0  0  0  0  0  0  0
  -16.3551   22.6971  -23.1498 O   0  0  0  0  0  0  0  0  0  0  0  0
  -18.8175   22.4402  -22.3335 C   0  0  0  0  0  0  0  0  0  0  0  0
  -19.0253   23.7468  -22.7266 C   0  0  0  0  0  0  0  0  0  0  0  0
  -20.2862   24.2695  -22.5735 C   0  0  0  0  0  0  0  0  0  0  0  0
  -22.8434   25.3884  -22.2831 C   0  0  0  0  0  0  0  0  0  0  0  0
  -22.5949   24.0728  -21.8976 C   0  0  0  0  0  0  0  0  0  0  0  0
  -21.3345   23.5273  -22.0428 C   0  0  0  0  0  0  0  0  0  0  0  0
  -21.1147   22.2219  -21.6532 C   0  0  0  0  0  0  0  0  0  0  0  0
  -19.8521   21.6947  -21.8052 C   0  0  0  0  0  0  0  0  0  0  0  0
  1  2  1  0
  1 11  2  0
 12  1  1  0
  2  4  1  0
  2  5  2  0
  4  3  2  0
  3  7  1  0
  4 10  1  0
  5  6  1  0
  6  7  2  0
  8  9  2  0
 19  8  1  0
  9 20  1  0
 13 12  1  0
 14 13  1  1
 14 15  2  0
 14 16  2  0
 17 14  1  0
 18 17  1  0
 17 24  2  0
 18 19  2  0
 19 22  1  0
 20 21  2  0
 21 22  1  0
 22 23  2  0
 23 24  1  0
M  END
$$$$
