
     RDKit          3D

 32 36  0  0  0  0  0  0  0  0999 V2000
   -6.2926   -1.0963   16.6000 O   0  0  0  0  0  0  0  0  0  0  0  0
   -7.2644   -1.8881   15.9560 C   0  0  2  0  0  0  0  0  0  0  0  0
   -7.0746   -1.7030   14.4998 C   0  0  0  0  0  0  0  0  0  0  0  0
   -7.8936   -2.2870   13.5512 C   0  0  0  0  0  0  0  0  0  0  0  0
   -7.6588   -2.0805   12.1938 C   0  0  0  0  0  0  0  0  0  0  0  0
   -6.6433   -1.3187   11.7751 N   0  0  0  0  0  0  0  0  0  0  0  0
   -5.8283   -0.7378   12.6709 C   0  0  0  0  0  0  0  0  0  0  0  0
   -6.0410   -0.9275   14.0285 C   0  0  0  0  0  0  0  0  0  0  0  0
   -8.6165   -1.4921   16.4018 C   0  0  0  0  0  0  0  0  0  0  0  0
   -9.1062   -0.2470   16.0708 N   0  0  0  0  0  0  0  0  0  0  0  0
  -10.3188   -0.1491   16.5694 C   0  0  0  0  0  0  0  0  0  0  0  0
  -10.5966   -1.3210   17.2095 C   0  0  0  0  0  0  0  0  0  0  0  0
   -9.4941   -2.1659   17.0903 N   0  0  0  0  0  0  0  0  0  0  0  0
   -9.5289   -3.5001   17.6129 C   0  0  0  0  0  0  0  0  0  0  0  0
   -9.6329   -3.6516   19.0612 C   0  0  0  0  0  0  0  0  0  0  0  0
  -10.1350   -4.7779   19.6658 C   0  0  0  0  0  0  0  0  0  0  0  0
  -10.8092   -5.8910   18.9463 C   0  0  0  0  0  0  0  0  0  0  0  0
  -10.0730   -4.8448   21.0624 C   0  0  0  0  0  0  0  0  0  0  0  0
   -9.5415   -3.8435   21.8294 C   0  0  0  0  0  0  0  0  0  0  0  0
   -9.0955   -2.6393   19.8647 C   0  0  0  0  0  0  0  0  0  0  0  0
   -9.0373   -2.7080   21.2389 C   0  0  0  0  0  0  0  0  0  0  0  0
   -8.4358   -1.6073   22.0526 C   0  0  0  0  0  0  0  0  0  0  0  0
  -11.8038   -1.5085   17.8071 C   0  0  0  0  0  0  0  0  0  0  0  0
  -12.7602   -0.5286   17.7783 C   0  0  0  0  0  0  0  0  0  0  0  0
  -12.4575    0.6515   17.1264 C   0  0  0  0  0  0  0  0  0  0  0  0
  -11.2516    0.8909   16.5062 C   0  0  0  0  0  0  0  0  0  0  0  0
  -14.0852   -0.7143   18.3988 C   0  0  0  0  0  0  0  0  0  0  0  0
  -14.5316   -1.8333   19.0625 C   0  0  0  0  0  0  0  0  0  0  0  0
  -15.7970   -1.6327   19.5037 N   0  0  0  0  0  0  0  0  0  0  0  0
  -16.5849   -2.6164   20.2600 C   0  0  0  0  0  0  0  0  0  0  0  0
  -16.1225   -0.4265   19.1234 N   0  0  0  0  0  0  0  0  0  0  0  0
  -15.1400    0.1747   18.4583 C   0  0  0  0  0  0  0  0  0  0  0  0
  2  1  1  1
  2  3  1  0
  2  9  1  0
  3  4  2  0
  3  8  1  0
  4  5  1  0
  5  6  2  0
  6  7  1  0
  7  8  2  0
  9 10  2  0
  9 13  1  0
 10 11  1  0
 11 12  2  0
 11 26  1  0
 12 13  1  0
 12 23  1  0
 13 14  1  0
 14 15  1  0
 15 16  2  0
 15 20  1  0
 16 17  1  0
 16 18  1  0
 18 19  2  0
 19 21  1  0
 20 21  2  0
 21 22  1  0
 23 24  2  0
 24 25  1  0
 24 27  1  0
 25 26  2  0
 27 28  2  0
 27 32  1  0
 28 29  1  0
 29 30  1  0
 29 31  1  0
 31 32  2  0
M  END
$$$$
