
     RDKit          3D

 32 36  0  0  0  0  0  0  0  0999 V2000
   -3.2203   -2.1453   16.3769 O   0  0  0  0  0  0  0  0  0  0  0  0
   -4.4077   -1.8360   15.6838 C   0  0  2  0  0  0  0  0  0  0  0  0
   -4.2273   -0.4873   15.1012 C   0  0  0  0  0  0  0  0  0  0  0  0
   -5.2709    0.2578   14.5841 C   0  0  0  0  0  0  0  0  0  0  0  0
   -5.0358    1.5192   14.0421 C   0  0  0  0  0  0  0  0  0  0  0  0
   -3.8048    2.0391   14.0072 N   0  0  0  0  0  0  0  0  0  0  0  0
   -2.7688    1.3407   14.5004 C   0  0  0  0  0  0  0  0  0  0  0  0
   -2.9765    0.0823   15.0459 C   0  0  0  0  0  0  0  0  0  0  0  0
   -5.5625   -1.9013   16.6036 C   0  0  0  0  0  0  0  0  0  0  0  0
   -5.5755   -1.1192   17.7385 N   0  0  0  0  0  0  0  0  0  0  0  0
   -6.7048   -1.3509   18.3705 C   0  0  0  0  0  0  0  0  0  0  0  0
   -7.4025   -2.2701   17.6433 C   0  0  0  0  0  0  0  0  0  0  0  0
   -6.6535   -2.6088   16.5173 N   0  0  0  0  0  0  0  0  0  0  0  0
   -7.1730   -3.5098   15.5310 C   0  0  0  0  0  0  0  0  0  0  0  0
   -7.8480   -2.9249   14.3762 C   0  0  0  0  0  0  0  0  0  0  0  0
   -7.9713   -3.5703   13.1702 C   0  0  0  0  0  0  0  0  0  0  0  0
   -7.2802   -4.8394   12.8192 C   0  0  0  0  0  0  0  0  0  0  0  0
   -8.7413   -2.9496   12.1800 C   0  0  0  0  0  0  0  0  0  0  0  0
   -9.3604   -1.7438   12.3698 C   0  0  0  0  0  0  0  0  0  0  0  0
   -8.4880   -1.6921   14.5482 C   0  0  0  0  0  0  0  0  0  0  0  0
   -9.2440   -1.0836   13.5711 C   0  0  0  0  0  0  0  0  0  0  0  0
   -9.9242    0.2262   13.8101 C   0  0  0  0  0  0  0  0  0  0  0  0
   -8.6303   -2.6847   18.0560 C   0  0  0  0  0  0  0  0  0  0  0  0
   -9.1879   -2.1898   19.2048 C   0  0  0  0  0  0  0  0  0  0  0  0
   -8.4635   -1.2613   19.9274 C   0  0  0  0  0  0  0  0  0  0  0  0
   -7.2179   -0.8090   19.5531 C   0  0  0  0  0  0  0  0  0  0  0  0
  -10.5267   -2.6055   19.6630 C   0  0  0  0  0  0  0  0  0  0  0  0
  -11.2158   -3.7302   19.2727 C   0  0  0  0  0  0  0  0  0  0  0  0
  -12.4093   -3.7839   19.9120 N   0  0  0  0  0  0  0  0  0  0  0  0
  -13.4022   -4.8541   19.7412 C   0  0  0  0  0  0  0  0  0  0  0  0
  -12.4563   -2.7241   20.6735 N   0  0  0  0  0  0  0  0  0  0  0  0
  -11.3591   -1.9794   20.5694 C   0  0  0  0  0  0  0  0  0  0  0  0
  2  1  1  1
  2  3  1  0
  2  9  1  0
  3  4  2  0
  3  8  1  0
  4  5  1  0
  5  6  2  0
  6  7  1  0
  7  8  2  0
  9 10  2  0
  9 13  1  0
 10 11  1  0
 11 12  2  0
 11 26  1  0
 12 13  1  0
 12 23  1  0
 13 14  1  0
 14 15  1  0
 15 16  2  0
 15 20  1  0
 16 17  1  0
 16 18  1  0
 18 19  2  0
 19 21  1  0
 20 21  2  0
 21 22  1  0
 23 24  2  0
 24 25  1  0
 24 27  1  0
 25 26  2  0
 27 28  2  0
 27 32  1  0
 28 29  1  0
 29 30  1  0
 29 31  1  0
 31 32  2  0
M  END
$$$$
