
     RDKit          3D

 32 36  0  0  0  0  0  0  0  0999 V2000
   -2.8618    0.0424   14.9945 O   0  0  0  0  0  0  0  0  0  0  0  0
   -2.9618   -0.5820   13.7351 C   0  0  2  0  0  0  0  0  0  0  0  0
   -1.7195   -0.2627   12.9964 C   0  0  0  0  0  0  0  0  0  0  0  0
   -1.3982   -0.8312   11.7776 C   0  0  0  0  0  0  0  0  0  0  0  0
   -0.2092   -0.4952   11.1346 C   0  0  0  0  0  0  0  0  0  0  0  0
    0.6466    0.3785   11.6742 N   0  0  0  0  0  0  0  0  0  0  0  0
    0.3649    0.9480   12.8576 C   0  0  0  0  0  0  0  0  0  0  0  0
   -0.8129    0.6305   13.5181 C   0  0  0  0  0  0  0  0  0  0  0  0
   -4.1721   -0.1099   13.0307 C   0  0  0  0  0  0  0  0  0  0  0  0
   -4.3849    1.2426   12.8722 N   0  0  0  0  0  0  0  0  0  0  0  0
   -5.5101    1.3950   12.2094 C   0  0  0  0  0  0  0  0  0  0  0  0
   -6.0060    0.1515   11.9486 C   0  0  0  0  0  0  0  0  0  0  0  0
   -5.1347   -0.7966   12.4829 N   0  0  0  0  0  0  0  0  0  0  0  0
   -5.3698   -2.1986   12.2998 C   0  0  0  0  0  0  0  0  0  0  0  0
   -5.6517   -2.9936   13.4915 C   0  0  0  0  0  0  0  0  0  0  0  0
   -6.7407   -2.7773   14.2999 C   0  0  0  0  0  0  0  0  0  0  0  0
   -7.6526   -1.6078   14.1900 C   0  0  0  0  0  0  0  0  0  0  0  0
   -6.9606   -3.6819   15.3448 C   0  0  0  0  0  0  0  0  0  0  0  0
   -6.1408   -4.7516   15.5839 C   0  0  0  0  0  0  0  0  0  0  0  0
   -4.8258   -4.0925   13.7548 C   0  0  0  0  0  0  0  0  0  0  0  0
   -5.0445   -4.9800   14.7848 C   0  0  0  0  0  0  0  0  0  0  0  0
   -4.1430   -6.1506   15.0139 C   0  0  0  0  0  0  0  0  0  0  0  0
   -7.1638    0.0058   11.2501 C   0  0  0  0  0  0  0  0  0  0  0  0
   -7.8517    1.0998   10.7968 C   0  0  0  0  0  0  0  0  0  0  0  0
   -7.3330    2.3502   11.0737 C   0  0  0  0  0  0  0  0  0  0  0  0
   -6.1657    2.5517   11.7761 C   0  0  0  0  0  0  0  0  0  0  0  0
   -9.0974    0.9695   10.0181 C   0  0  0  0  0  0  0  0  0  0  0  0
   -9.4447   -0.0750    9.1932 C   0  0  0  0  0  0  0  0  0  0  0  0
  -10.6674    0.1507    8.6545 N   0  0  0  0  0  0  0  0  0  0  0  0
  -11.3557   -0.7618    7.7304 C   0  0  0  0  0  0  0  0  0  0  0  0
  -11.0629    1.3002    9.1317 N   0  0  0  0  0  0  0  0  0  0  0  0
  -10.1675    1.8397    9.9540 C   0  0  0  0  0  0  0  0  0  0  0  0
  2  1  1  1
  2  3  1  0
  2  9  1  0
  3  4  2  0
  3  8  1  0
  4  5  1  0
  5  6  2  0
  6  7  1  0
  7  8  2  0
  9 10  2  0
  9 13  1  0
 10 11  1  0
 11 12  2  0
 11 26  1  0
 12 13  1  0
 12 23  1  0
 13 14  1  0
 14 15  1  0
 15 16  2  0
 15 20  1  0
 16 17  1  0
 16 18  1  0
 18 19  2  0
 19 21  1  0
 20 21  2  0
 21 22  1  0
 23 24  2  0
 24 25  1  0
 24 27  1  0
 25 26  2  0
 27 28  2  0
 27 32  1  0
 28 29  1  0
 29 30  1  0
 29 31  1  0
 31 32  2  0
M  END
$$$$
