
     RDKit          3D

 32 36  0  0  0  0  0  0  0  0999 V2000
  -10.0020   -0.5493   12.5410 O   0  0  0  0  0  0  0  0  0  0  0  0
   -9.3236   -0.8970   13.7264 C   0  0  2  0  0  0  0  0  0  0  0  0
   -9.9200   -0.0918   14.8158 C   0  0  0  0  0  0  0  0  0  0  0  0
   -9.4084   -0.0620   16.1000 C   0  0  0  0  0  0  0  0  0  0  0  0
  -10.0198    0.7106   17.0846 C   0  0  0  0  0  0  0  0  0  0  0  0
  -11.1089    1.4378   16.8169 N   0  0  0  0  0  0  0  0  0  0  0  0
  -11.6318    1.4301   15.5796 C   0  0  0  0  0  0  0  0  0  0  0  0
  -11.0415    0.6692   14.5812 C   0  0  0  0  0  0  0  0  0  0  0  0
   -7.8750   -0.6489   13.5720 C   0  0  0  0  0  0  0  0  0  0  0  0
   -7.4268    0.6256   13.2992 N   0  0  0  0  0  0  0  0  0  0  0  0
   -6.1149    0.5802   13.2240 C   0  0  0  0  0  0  0  0  0  0  0  0
   -5.7341   -0.7102   13.4481 C   0  0  0  0  0  0  0  0  0  0  0  0
   -6.8756   -1.4796   13.6682 N   0  0  0  0  0  0  0  0  0  0  0  0
   -6.7736   -2.8705   13.9991 C   0  0  0  0  0  0  0  0  0  0  0  0
   -6.7628   -3.2250   15.4153 C   0  0  0  0  0  0  0  0  0  0  0  0
   -6.4027   -4.4672   15.8773 C   0  0  0  0  0  0  0  0  0  0  0  0
   -6.1711   -5.6537   15.0113 C   0  0  0  0  0  0  0  0  0  0  0  0
   -6.3224   -4.6437   17.2633 C   0  0  0  0  0  0  0  0  0  0  0  0
   -6.5881   -3.6397   18.1549 C   0  0  0  0  0  0  0  0  0  0  0  0
   -7.0316   -2.2133   16.3445 C   0  0  0  0  0  0  0  0  0  0  0  0
   -6.9527   -2.3909   17.7078 C   0  0  0  0  0  0  0  0  0  0  0  0
   -7.2317   -1.2725   18.6601 C   0  0  0  0  0  0  0  0  0  0  0  0
   -4.4166   -1.0476   13.4498 C   0  0  0  0  0  0  0  0  0  0  0  0
   -3.4505   -0.1028   13.2273 C   0  0  0  0  0  0  0  0  0  0  0  0
   -3.8580    1.1979   13.0003 C   0  0  0  0  0  0  0  0  0  0  0  0
   -5.1777    1.5910   12.9884 C   0  0  0  0  0  0  0  0  0  0  0  0
   -2.0143   -0.4374   13.2458 C   0  0  0  0  0  0  0  0  0  0  0  0
   -1.0140    0.1974   12.5469 C   0  0  0  0  0  0  0  0  0  0  0  0
    0.1794   -0.3822   12.8222 N   0  0  0  0  0  0  0  0  0  0  0  0
    1.4669    0.0443   12.2558 C   0  0  0  0  0  0  0  0  0  0  0  0
   -0.0761   -1.3464   13.6652 N   0  0  0  0  0  0  0  0  0  0  0  0
   -1.3708   -1.4299   13.9582 C   0  0  0  0  0  0  0  0  0  0  0  0
  2  1  1  6
  2  3  1  0
  2  9  1  0
  3  4  2  0
  3  8  1  0
  4  5  1  0
  5  6  2  0
  6  7  1  0
  7  8  2  0
  9 10  2  0
  9 13  1  0
 10 11  1  0
 11 12  2  0
 11 26  1  0
 12 13  1  0
 12 23  1  0
 13 14  1  0
 14 15  1  0
 15 16  2  0
 15 20  1  0
 16 17  1  0
 16 18  1  0
 18 19  2  0
 19 21  1  0
 20 21  2  0
 21 22  1  0
 23 24  2  0
 24 25  1  0
 24 27  1  0
 25 26  2  0
 27 28  2  0
 27 32  1  0
 28 29  1  0
 29 30  1  0
 29 31  1  0
 31 32  2  0
M  END
$$$$
