
     RDKit          3D

 32 36  0  0  0  0  0  0  0  0999 V2000
   -8.1091   -2.5725   20.1245 O   0  0  0  0  0  0  0  0  0  0  0  0
   -8.8798   -2.2717   18.9836 C   0  0  2  0  0  0  0  0  0  0  0  0
  -10.0299   -3.2034   18.9831 C   0  0  0  0  0  0  0  0  0  0  0  0
  -11.2974   -2.8384   18.5686 C   0  0  0  0  0  0  0  0  0  0  0  0
  -12.3416   -3.7597   18.5987 C   0  0  0  0  0  0  0  0  0  0  0  0
  -12.1482   -5.0114   19.0261 N   0  0  0  0  0  0  0  0  0  0  0  0
  -10.9291   -5.3978   19.4368 C   0  0  0  0  0  0  0  0  0  0  0  0
   -9.8723   -4.4994   19.4163 C   0  0  0  0  0  0  0  0  0  0  0  0
   -8.0523   -2.3991   17.7658 C   0  0  0  0  0  0  0  0  0  0  0  0
   -7.3760   -3.5748   17.5209 N   0  0  0  0  0  0  0  0  0  0  0  0
   -6.7336   -3.4364   16.3821 C   0  0  0  0  0  0  0  0  0  0  0  0
   -7.0007   -2.1856   15.9082 C   0  0  0  0  0  0  0  0  0  0  0  0
   -7.8459   -1.5391   16.8088 N   0  0  0  0  0  0  0  0  0  0  0  0
   -8.3494   -0.2257   16.5333 C   0  0  0  0  0  0  0  0  0  0  0  0
   -9.7535   -0.1114   16.1502 C   0  0  0  0  0  0  0  0  0  0  0  0
  -10.2928   -0.7596   15.0661 C   0  0  0  0  0  0  0  0  0  0  0  0
   -9.5007   -1.4907   14.0418 C   0  0  0  0  0  0  0  0  0  0  0  0
  -11.6756   -0.6597   14.8748 C   0  0  0  0  0  0  0  0  0  0  0  0
  -12.4906    0.0505   15.7142 C   0  0  0  0  0  0  0  0  0  0  0  0
  -10.6049    0.6104   16.9947 C   0  0  0  0  0  0  0  0  0  0  0  0
  -11.9651    0.7075   16.8026 C   0  0  0  0  0  0  0  0  0  0  0  0
  -12.8356    1.4759   17.7446 C   0  0  0  0  0  0  0  0  0  0  0  0
   -6.4775   -1.7737   14.7223 C   0  0  0  0  0  0  0  0  0  0  0  0
   -5.6757   -2.6028   13.9838 C   0  0  0  0  0  0  0  0  0  0  0  0
   -5.4162   -3.8648   14.4831 C   0  0  0  0  0  0  0  0  0  0  0  0
   -5.9210   -4.3298   15.6770 C   0  0  0  0  0  0  0  0  0  0  0  0
   -5.1138   -2.1894   12.6844 C   0  0  0  0  0  0  0  0  0  0  0  0
   -5.6775   -1.3117   11.7878 C   0  0  0  0  0  0  0  0  0  0  0  0
   -4.8678   -1.1704   10.7106 N   0  0  0  0  0  0  0  0  0  0  0  0
   -5.1522   -0.3034    9.5583 C   0  0  0  0  0  0  0  0  0  0  0  0
   -3.8354   -1.9382   10.9348 N   0  0  0  0  0  0  0  0  0  0  0  0
   -3.9235   -2.5739   12.0998 C   0  0  0  0  0  0  0  0  0  0  0  0
  2  1  1  1
  2  3  1  0
  2  9  1  0
  3  4  2  0
  3  8  1  0
  4  5  1  0
  5  6  2  0
  6  7  1  0
  7  8  2  0
  9 10  2  0
  9 13  1  0
 10 11  1  0
 11 12  2  0
 11 26  1  0
 12 13  1  0
 12 23  1  0
 13 14  1  0
 14 15  1  0
 15 16  2  0
 15 20  1  0
 16 17  1  0
 16 18  1  0
 18 19  2  0
 19 21  1  0
 20 21  2  0
 21 22  1  0
 23 24  2  0
 24 25  1  0
 24 27  1  0
 25 26  2  0
 27 28  2  0
 27 32  1  0
 28 29  1  0
 29 30  1  0
 29 31  1  0
 31 32  2  0
M  END
$$$$
