
     RDKit          3D

 32 36  0  0  0  0  0  0  0  0999 V2000
   -6.8804    0.7761   15.4232 O   0  0  0  0  0  0  0  0  0  0  0  0
   -7.5235   -0.4720   15.3018 C   0  0  2  0  0  0  0  0  0  0  0  0
   -7.5851   -0.7857   13.8566 C   0  0  0  0  0  0  0  0  0  0  0  0
   -6.7191   -0.2393   12.9275 C   0  0  0  0  0  0  0  0  0  0  0  0
   -6.8326   -0.5685   11.5789 C   0  0  0  0  0  0  0  0  0  0  0  0
   -7.7745   -1.4144   11.1498 N   0  0  0  0  0  0  0  0  0  0  0  0
   -8.6323   -1.9620   12.0264 C   0  0  0  0  0  0  0  0  0  0  0  0
   -8.5401   -1.6506   13.3751 C   0  0  0  0  0  0  0  0  0  0  0  0
   -8.8636   -0.4133   15.9221 C   0  0  0  0  0  0  0  0  0  0  0  0
   -9.6978    0.6481   15.6442 N   0  0  0  0  0  0  0  0  0  0  0  0
  -10.8201    0.4570   16.3018 C   0  0  0  0  0  0  0  0  0  0  0  0
  -10.7000   -0.7149   16.9894 C   0  0  0  0  0  0  0  0  0  0  0  0
   -9.4407   -1.2550   16.7325 N   0  0  0  0  0  0  0  0  0  0  0  0
   -9.0609   -2.5271   17.2728 C   0  0  0  0  0  0  0  0  0  0  0  0
   -8.3772   -2.5319   18.5627 C   0  0  0  0  0  0  0  0  0  0  0  0
   -8.0260   -3.6833   19.2239 C   0  0  0  0  0  0  0  0  0  0  0  0
   -8.4581   -5.0491   18.8251 C   0  0  0  0  0  0  0  0  0  0  0  0
   -7.2720   -3.5521   20.3956 C   0  0  0  0  0  0  0  0  0  0  0  0
   -6.8835   -2.3384   20.8950 C   0  0  0  0  0  0  0  0  0  0  0  0
   -7.9708   -1.3014   19.0918 C   0  0  0  0  0  0  0  0  0  0  0  0
   -7.2299   -1.1761   20.2458 C   0  0  0  0  0  0  0  0  0  0  0  0
   -6.8038    0.1613   20.7608 C   0  0  0  0  0  0  0  0  0  0  0  0
  -11.7305   -1.1754   17.7481 C   0  0  0  0  0  0  0  0  0  0  0  0
  -12.9039   -0.4747   17.8366 C   0  0  0  0  0  0  0  0  0  0  0  0
  -13.0037    0.7108   17.1339 C   0  0  0  0  0  0  0  0  0  0  0  0
  -11.9909    1.2201   16.3522 C   0  0  0  0  0  0  0  0  0  0  0  0
  -14.0445   -0.9625   18.6341 C   0  0  0  0  0  0  0  0  0  0  0  0
  -15.1489   -0.2373   19.0168 C   0  0  0  0  0  0  0  0  0  0  0  0
  -15.9903   -1.0227   19.7319 N   0  0  0  0  0  0  0  0  0  0  0  0
  -17.2736   -0.5788   20.2945 C   0  0  0  0  0  0  0  0  0  0  0  0
  -15.4224   -2.1973   19.7897 N   0  0  0  0  0  0  0  0  0  0  0  0
  -14.2560   -2.2252   19.1512 C   0  0  0  0  0  0  0  0  0  0  0  0
  2  1  1  6
  2  3  1  0
  2  9  1  0
  3  4  2  0
  3  8  1  0
  4  5  1  0
  5  6  2  0
  6  7  1  0
  7  8  2  0
  9 10  2  0
  9 13  1  0
 10 11  1  0
 11 12  2  0
 11 26  1  0
 12 13  1  0
 12 23  1  0
 13 14  1  0
 14 15  1  0
 15 16  2  0
 15 20  1  0
 16 17  1  0
 16 18  1  0
 18 19  2  0
 19 21  1  0
 20 21  2  0
 21 22  1  0
 23 24  2  0
 24 25  1  0
 24 27  1  0
 25 26  2  0
 27 28  2  0
 27 32  1  0
 28 29  1  0
 29 30  1  0
 29 31  1  0
 31 32  2  0
M  END
$$$$
