
     RDKit          3D

 32 36  0  0  0  0  0  0  0  0999 V2000
   -6.9749   -1.9014   10.2533 O   0  0  0  0  0  0  0  0  0  0  0  0
   -6.3308   -1.0238   11.1483 C   0  0  2  0  0  0  0  0  0  0  0  0
   -4.9486   -0.8403   10.6515 C   0  0  0  0  0  0  0  0  0  0  0  0
   -4.4984   -1.3723    9.4573 C   0  0  0  0  0  0  0  0  0  0  0  0
   -3.1826   -1.1706    9.0473 C   0  0  0  0  0  0  0  0  0  0  0  0
   -2.3264   -0.4635    9.7915 N   0  0  0  0  0  0  0  0  0  0  0  0
   -2.7317    0.0659   10.9575 C   0  0  0  0  0  0  0  0  0  0  0  0
   -4.0372   -0.1202   11.3881 C   0  0  0  0  0  0  0  0  0  0  0  0
   -6.3673   -1.5800   12.5169 C   0  0  0  0  0  0  0  0  0  0  0  0
   -5.8369   -2.8287   12.7599 N   0  0  0  0  0  0  0  0  0  0  0  0
   -5.9811   -3.0814   14.0421 C   0  0  0  0  0  0  0  0  0  0  0  0
   -6.5957   -2.0031   14.6077 C   0  0  0  0  0  0  0  0  0  0  0  0
   -6.8340   -1.0544   13.6143 N   0  0  0  0  0  0  0  0  0  0  0  0
   -7.4120    0.2175   13.9342 C   0  0  0  0  0  0  0  0  0  0  0  0
   -8.8584    0.3535   13.7893 C   0  0  0  0  0  0  0  0  0  0  0  0
   -9.4560    0.8862   12.6734 C   0  0  0  0  0  0  0  0  0  0  0  0
   -8.7261    1.5640   11.5691 C   0  0  0  0  0  0  0  0  0  0  0  0
  -10.8537    0.8538   12.6101 C   0  0  0  0  0  0  0  0  0  0  0  0
  -11.6284    0.3216   13.6051 C   0  0  0  0  0  0  0  0  0  0  0  0
   -9.6696   -0.1840   14.7954 C   0  0  0  0  0  0  0  0  0  0  0  0
  -11.0449   -0.2131   14.7302 C   0  0  0  0  0  0  0  0  0  0  0  0
  -11.8675   -0.8159   15.8237 C   0  0  0  0  0  0  0  0  0  0  0  0
   -6.8547   -1.9815   15.9426 C   0  0  0  0  0  0  0  0  0  0  0  0
   -6.5051   -3.0372   16.7419 C   0  0  0  0  0  0  0  0  0  0  0  0
   -5.8854   -4.1202   16.1485 C   0  0  0  0  0  0  0  0  0  0  0  0
   -5.6010   -4.1914   14.8030 C   0  0  0  0  0  0  0  0  0  0  0  0
   -6.7541   -3.0300   18.1956 C   0  0  0  0  0  0  0  0  0  0  0  0
   -6.4192   -4.0189   19.0910 C   0  0  0  0  0  0  0  0  0  0  0  0
   -6.7976   -3.6561   20.3405 N   0  0  0  0  0  0  0  0  0  0  0  0
   -6.5901   -4.4699   21.5468 C   0  0  0  0  0  0  0  0  0  0  0  0
   -7.3501   -2.4789   20.2203 N   0  0  0  0  0  0  0  0  0  0  0  0
   -7.3538   -2.0499   18.9613 C   0  0  0  0  0  0  0  0  0  0  0  0
  2  1  1  6
  2  3  1  0
  2  9  1  0
  3  4  2  0
  3  8  1  0
  4  5  1  0
  5  6  2  0
  6  7  1  0
  7  8  2  0
  9 10  2  0
  9 13  1  0
 10 11  1  0
 11 12  2  0
 11 26  1  0
 12 13  1  0
 12 23  1  0
 13 14  1  0
 14 15  1  0
 15 16  2  0
 15 20  1  0
 16 17  1  0
 16 18  1  0
 18 19  2  0
 19 21  1  0
 20 21  2  0
 21 22  1  0
 23 24  2  0
 24 25  1  0
 24 27  1  0
 25 26  2  0
 27 28  2  0
 27 32  1  0
 28 29  1  0
 29 30  1  0
 29 31  1  0
 31 32  2  0
M  END
$$$$
