
     RDKit          3D

 32 36  0  0  0  0  0  0  0  0999 V2000
  -12.5860   -0.9650   14.2076 O   0  0  0  0  0  0  0  0  0  0  0  0
  -11.8111   -1.0471   15.3819 C   0  0  2  0  0  0  0  0  0  0  0  0
  -11.8614    0.2851   16.0249 C   0  0  0  0  0  0  0  0  0  0  0  0
  -11.7366    1.4687   15.3211 C   0  0  0  0  0  0  0  0  0  0  0  0
  -11.7848    2.6922   15.9851 C   0  0  0  0  0  0  0  0  0  0  0  0
  -11.9514    2.7546   17.3099 N   0  0  0  0  0  0  0  0  0  0  0  0
  -12.0747    1.6233   18.0233 C   0  0  0  0  0  0  0  0  0  0  0  0
  -12.0304    0.3920   17.3858 C   0  0  0  0  0  0  0  0  0  0  0  0
  -10.4314   -1.4597   15.0501 C   0  0  0  0  0  0  0  0  0  0  0  0
  -10.0415   -1.5368   13.7303 N   0  0  0  0  0  0  0  0  0  0  0  0
   -8.7806   -1.9086   13.7073 C   0  0  0  0  0  0  0  0  0  0  0  0
   -8.3738   -2.0648   14.9998 C   0  0  0  0  0  0  0  0  0  0  0  0
   -9.4454   -1.7729   15.8424 N   0  0  0  0  0  0  0  0  0  0  0  0
   -9.2874   -1.7882   17.2670 C   0  0  0  0  0  0  0  0  0  0  0  0
   -8.7695   -3.0117   17.8721 C   0  0  0  0  0  0  0  0  0  0  0  0
   -7.9557   -3.0179   18.9784 C   0  0  0  0  0  0  0  0  0  0  0  0
   -7.3423   -1.8041   19.5799 C   0  0  0  0  0  0  0  0  0  0  0  0
   -7.6225   -4.2604   19.5295 C   0  0  0  0  0  0  0  0  0  0  0  0
   -8.0702   -5.4453   19.0108 C   0  0  0  0  0  0  0  0  0  0  0  0
   -9.2145   -4.2348   17.3572 C   0  0  0  0  0  0  0  0  0  0  0  0
   -8.8836   -5.4558   17.9015 C   0  0  0  0  0  0  0  0  0  0  0  0
   -9.4002   -6.7352   17.3255 C   0  0  0  0  0  0  0  0  0  0  0  0
   -7.0935   -2.4294   15.2781 C   0  0  0  0  0  0  0  0  0  0  0  0
   -6.1913   -2.6461   14.2708 C   0  0  0  0  0  0  0  0  0  0  0  0
   -6.6247   -2.4844   12.9687 C   0  0  0  0  0  0  0  0  0  0  0  0
   -7.9088   -2.1168   12.6339 C   0  0  0  0  0  0  0  0  0  0  0  0
   -4.7915   -3.0204   14.5455 C   0  0  0  0  0  0  0  0  0  0  0  0
   -4.0550   -2.6854   15.6578 C   0  0  0  0  0  0  0  0  0  0  0  0
   -2.8115   -3.2154   15.5634 N   0  0  0  0  0  0  0  0  0  0  0  0
   -1.7587   -3.0646   16.5780 C   0  0  0  0  0  0  0  0  0  0  0  0
   -2.7807   -3.8577   14.4268 N   0  0  0  0  0  0  0  0  0  0  0  0
   -3.9355   -3.7788   13.7717 C   0  0  0  0  0  0  0  0  0  0  0  0
  2  1  1  6
  2  3  1  0
  2  9  1  0
  3  4  2  0
  3  8  1  0
  4  5  1  0
  5  6  2  0
  6  7  1  0
  7  8  2  0
  9 10  2  0
  9 13  1  0
 10 11  1  0
 11 12  2  0
 11 26  1  0
 12 13  1  0
 12 23  1  0
 13 14  1  0
 14 15  1  0
 15 16  2  0
 15 20  1  0
 16 17  1  0
 16 18  1  0
 18 19  2  0
 19 21  1  0
 20 21  2  0
 21 22  1  0
 23 24  2  0
 24 25  1  0
 24 27  1  0
 25 26  2  0
 27 28  2  0
 27 32  1  0
 28 29  1  0
 29 30  1  0
 29 31  1  0
 31 32  2  0
M  END
$$$$
