
     RDKit          3D

 32 36  0  0  0  0  0  0  0  0999 V2000
   -6.6134   -2.1103   10.3238 O   0  0  0  0  0  0  0  0  0  0  0  0
   -6.2827   -1.2134   11.3593 C   0  0  2  0  0  0  0  0  0  0  0  0
   -4.8688   -0.8248   11.1571 C   0  0  0  0  0  0  0  0  0  0  0  0
   -4.1874   -1.0427    9.9739 C   0  0  0  0  0  0  0  0  0  0  0  0
   -2.8540   -0.6606    9.8476 C   0  0  0  0  0  0  0  0  0  0  0  0
   -2.2021   -0.0780   10.8589 N   0  0  0  0  0  0  0  0  0  0  0  0
   -2.8348    0.1470   12.0222 C   0  0  0  0  0  0  0  0  0  0  0  0
   -4.1630   -0.2239   12.1733 C   0  0  0  0  0  0  0  0  0  0  0  0
   -6.5081   -1.8516   12.6730 C   0  0  0  0  0  0  0  0  0  0  0  0
   -6.1638   -3.1735   12.8570 N   0  0  0  0  0  0  0  0  0  0  0  0
   -6.4496   -3.4914   14.1003 C   0  0  0  0  0  0  0  0  0  0  0  0
   -6.9690   -2.3819   14.7000 C   0  0  0  0  0  0  0  0  0  0  0  0
   -6.9977   -1.3446   13.7691 N   0  0  0  0  0  0  0  0  0  0  0  0
   -7.4350   -0.0317   14.1427 C   0  0  0  0  0  0  0  0  0  0  0  0
   -8.8529    0.2757   13.9797 C   0  0  0  0  0  0  0  0  0  0  0  0
   -9.4026    0.6818   12.7885 C   0  0  0  0  0  0  0  0  0  0  0  0
   -8.6177    1.0475   11.5795 C   0  0  0  0  0  0  0  0  0  0  0  0
  -10.7930    0.8326   12.7357 C   0  0  0  0  0  0  0  0  0  0  0  0
  -11.6055    0.5958   13.8114 C   0  0  0  0  0  0  0  0  0  0  0  0
   -9.7020    0.0407   15.0674 C   0  0  0  0  0  0  0  0  0  0  0  0
  -11.0697    0.1913   15.0121 C   0  0  0  0  0  0  0  0  0  0  0  0
  -11.9366   -0.0904   16.1973 C   0  0  0  0  0  0  0  0  0  0  0  0
   -7.3379   -2.4170   16.0085 C   0  0  0  0  0  0  0  0  0  0  0  0
   -7.1960   -3.5618   16.7467 C   0  0  0  0  0  0  0  0  0  0  0  0
   -6.6698   -4.6747   16.1193 C   0  0  0  0  0  0  0  0  0  0  0  0
   -6.2811   -4.6914   14.7983 C   0  0  0  0  0  0  0  0  0  0  0  0
   -7.5672   -3.6205   18.1728 C   0  0  0  0  0  0  0  0  0  0  0  0
   -8.4193   -2.7679   18.8354 C   0  0  0  0  0  0  0  0  0  0  0  0
   -8.5243   -3.1394   20.1343 N   0  0  0  0  0  0  0  0  0  0  0  0
   -9.3568   -2.4567   21.1349 C   0  0  0  0  0  0  0  0  0  0  0  0
   -7.7595   -4.1893   20.2700 N   0  0  0  0  0  0  0  0  0  0  0  0
   -7.1601   -4.5268   19.1317 C   0  0  0  0  0  0  0  0  0  0  0  0
  2  1  1  6
  2  3  1  0
  2  9  1  0
  3  4  2  0
  3  8  1  0
  4  5  1  0
  5  6  2  0
  6  7  1  0
  7  8  2  0
  9 10  2  0
  9 13  1  0
 10 11  1  0
 11 12  2  0
 11 26  1  0
 12 13  1  0
 12 23  1  0
 13 14  1  0
 14 15  1  0
 15 16  2  0
 15 20  1  0
 16 17  1  0
 16 18  1  0
 18 19  2  0
 19 21  1  0
 20 21  2  0
 21 22  1  0
 23 24  2  0
 24 25  1  0
 24 27  1  0
 25 26  2  0
 27 28  2  0
 27 32  1  0
 28 29  1  0
 29 30  1  0
 29 31  1  0
 31 32  2  0
M  END
$$$$
