
     RDKit          3D

 32 36  0  0  0  0  0  0  0  0999 V2000
   -5.1518   -1.1380   15.6169 O   0  0  0  0  0  0  0  0  0  0  0  0
   -6.4810   -1.3788   15.2151 C   0  0  2  0  0  0  0  0  0  0  0  0
   -6.8010   -0.3833   14.1674 C   0  0  0  0  0  0  0  0  0  0  0  0
   -8.0881    0.0462   13.9016 C   0  0  0  0  0  0  0  0  0  0  0  0
   -8.3260    0.9807   12.8965 C   0  0  0  0  0  0  0  0  0  0  0  0
   -7.3246    1.4832   12.1675 N   0  0  0  0  0  0  0  0  0  0  0  0
   -6.0626    1.0861   12.3996 C   0  0  0  0  0  0  0  0  0  0  0  0
   -5.7991    0.1567   13.3951 C   0  0  0  0  0  0  0  0  0  0  0  0
   -7.3870   -1.2818   16.3785 C   0  0  0  0  0  0  0  0  0  0  0  0
   -7.2763   -0.2131   17.2418 N   0  0  0  0  0  0  0  0  0  0  0  0
   -8.1940   -0.3546   18.1726 C   0  0  0  0  0  0  0  0  0  0  0  0
   -8.8814   -1.5012   17.9020 C   0  0  0  0  0  0  0  0  0  0  0  0
   -8.3488   -2.0787   16.7503 N   0  0  0  0  0  0  0  0  0  0  0  0
   -8.9227   -3.2659   16.1887 C   0  0  0  0  0  0  0  0  0  0  0  0
   -8.0994   -4.4716   16.1821 C   0  0  0  0  0  0  0  0  0  0  0  0
   -8.1406   -5.4163   17.1781 C   0  0  0  0  0  0  0  0  0  0  0  0
   -8.8642   -5.2512   18.4667 C   0  0  0  0  0  0  0  0  0  0  0  0
   -7.3876   -6.5818   16.9958 C   0  0  0  0  0  0  0  0  0  0  0  0
   -6.6251   -6.8048   15.8812 C   0  0  0  0  0  0  0  0  0  0  0  0
   -7.3120   -4.7192   15.0517 C   0  0  0  0  0  0  0  0  0  0  0  0
   -6.5713   -5.8669   14.8763 C   0  0  0  0  0  0  0  0  0  0  0  0
   -5.7598   -6.0933   13.6410 C   0  0  0  0  0  0  0  0  0  0  0  0
   -9.9130   -1.8885   18.6992 C   0  0  0  0  0  0  0  0  0  0  0  0
  -10.2803   -1.1385   19.7846 C   0  0  0  0  0  0  0  0  0  0  0  0
   -9.5696    0.0182   20.0418 C   0  0  0  0  0  0  0  0  0  0  0  0
   -8.5183    0.4540   19.2665 C   0  0  0  0  0  0  0  0  0  0  0  0
  -11.4090   -1.5238   20.6521 C   0  0  0  0  0  0  0  0  0  0  0  0
  -12.4099   -2.4173   20.3492 C   0  0  0  0  0  0  0  0  0  0  0  0
  -13.2652   -2.5225   21.3949 N   0  0  0  0  0  0  0  0  0  0  0  0
  -14.4488   -3.3936   21.4230 C   0  0  0  0  0  0  0  0  0  0  0  0
  -12.8068   -1.7178   22.3156 N   0  0  0  0  0  0  0  0  0  0  0  0
  -11.6979   -1.0918   21.9314 C   0  0  0  0  0  0  0  0  0  0  0  0
  2  1  1  1
  2  3  1  0
  2  9  1  0
  3  4  2  0
  3  8  1  0
  4  5  1  0
  5  6  2  0
  6  7  1  0
  7  8  2  0
  9 10  2  0
  9 13  1  0
 10 11  1  0
 11 12  2  0
 11 26  1  0
 12 13  1  0
 12 23  1  0
 13 14  1  0
 14 15  1  0
 15 16  2  0
 15 20  1  0
 16 17  1  0
 16 18  1  0
 18 19  2  0
 19 21  1  0
 20 21  2  0
 21 22  1  0
 23 24  2  0
 24 25  1  0
 24 27  1  0
 25 26  2  0
 27 28  2  0
 27 32  1  0
 28 29  1  0
 29 30  1  0
 29 31  1  0
 31 32  2  0
M  END
$$$$
