
     RDKit          3D

 32 36  0  0  0  0  0  0  0  0999 V2000
   -5.3768   -1.3393   15.7589 O   0  0  0  0  0  0  0  0  0  0  0  0
   -6.3983   -2.2052   16.1981 C   0  0  2  0  0  0  0  0  0  0  0  0
   -6.1781   -3.5060   15.5271 C   0  0  0  0  0  0  0  0  0  0  0  0
   -4.9227   -3.9837   15.1992 C   0  0  0  0  0  0  0  0  0  0  0  0
   -4.7810   -5.2136   14.5609 C   0  0  0  0  0  0  0  0  0  0  0  0
   -5.8463   -5.9590   14.2502 N   0  0  0  0  0  0  0  0  0  0  0  0
   -7.0800   -5.5233   14.5540 C   0  0  0  0  0  0  0  0  0  0  0  0
   -7.2480   -4.3020   15.1901 C   0  0  0  0  0  0  0  0  0  0  0  0
   -7.7216   -1.6272   15.8840 C   0  0  0  0  0  0  0  0  0  0  0  0
   -7.8967   -0.9206   14.7137 N   0  0  0  0  0  0  0  0  0  0  0  0
   -9.1509   -0.5292   14.6671 C   0  0  0  0  0  0  0  0  0  0  0  0
   -9.7663   -0.9840   15.7962 C   0  0  0  0  0  0  0  0  0  0  0  0
   -8.8339   -1.6836   16.5607 N   0  0  0  0  0  0  0  0  0  0  0  0
   -9.2196   -2.3353   17.7777 C   0  0  0  0  0  0  0  0  0  0  0  0
   -9.1987   -1.5395   19.0014 C   0  0  0  0  0  0  0  0  0  0  0  0
   -8.0394   -1.1596   19.6322 C   0  0  0  0  0  0  0  0  0  0  0  0
   -6.6845   -1.6595   19.2776 C   0  0  0  0  0  0  0  0  0  0  0  0
   -8.1524   -0.3008   20.7315 C   0  0  0  0  0  0  0  0  0  0  0  0
   -9.3564    0.1609   21.1905 C   0  0  0  0  0  0  0  0  0  0  0  0
  -10.4190   -1.0569   19.4884 C   0  0  0  0  0  0  0  0  0  0  0  0
  -10.5265   -0.2129   20.5712 C   0  0  0  0  0  0  0  0  0  0  0  0
  -11.8532    0.2908   21.0420 C   0  0  0  0  0  0  0  0  0  0  0  0
  -11.0881   -0.7403   16.0043 C   0  0  0  0  0  0  0  0  0  0  0  0
  -11.8240   -0.0364   15.0886 C   0  0  0  0  0  0  0  0  0  0  0  0
  -11.1807    0.4170   13.9529 C   0  0  0  0  0  0  0  0  0  0  0  0
   -9.8460    0.1971   13.6950 C   0  0  0  0  0  0  0  0  0  0  0  0
  -13.2634    0.2226   15.2789 C   0  0  0  0  0  0  0  0  0  0  0  0
  -14.1513    0.6651   14.3261 C   0  0  0  0  0  0  0  0  0  0  0  0
  -15.3886    0.7778   14.8668 N   0  0  0  0  0  0  0  0  0  0  0  0
  -16.5845    1.2179   14.1344 C   0  0  0  0  0  0  0  0  0  0  0  0
  -15.2684    0.4166   16.1160 N   0  0  0  0  0  0  0  0  0  0  0  0
  -14.0210    0.0724   16.4235 C   0  0  0  0  0  0  0  0  0  0  0  0
  2  1  1  6
  2  3  1  0
  2  9  1  0
  3  4  2  0
  3  8  1  0
  4  5  1  0
  5  6  2  0
  6  7  1  0
  7  8  2  0
  9 10  2  0
  9 13  1  0
 10 11  1  0
 11 12  2  0
 11 26  1  0
 12 13  1  0
 12 23  1  0
 13 14  1  0
 14 15  1  0
 15 16  2  0
 15 20  1  0
 16 17  1  0
 16 18  1  0
 18 19  2  0
 19 21  1  0
 20 21  2  0
 21 22  1  0
 23 24  2  0
 24 25  1  0
 24 27  1  0
 25 26  2  0
 27 28  2  0
 27 32  1  0
 28 29  1  0
 29 30  1  0
 29 31  1  0
 31 32  2  0
M  END
$$$$
