
     RDKit          3D

 32 36  0  0  0  0  0  0  0  0999 V2000
   -0.0262    0.1413   12.8903 O   0  0  0  0  0  0  0  0  0  0  0  0
   -0.9488   -0.4825   12.0268 C   0  0  2  0  0  0  0  0  0  0  0  0
   -0.5658   -0.1105   10.6463 C   0  0  0  0  0  0  0  0  0  0  0  0
   -0.0868    1.1413   10.3067 C   0  0  0  0  0  0  0  0  0  0  0  0
    0.2500    1.4330    8.9870 C   0  0  0  0  0  0  0  0  0  0  0  0
    0.1199    0.5183    8.0210 N   0  0  0  0  0  0  0  0  0  0  0  0
   -0.3436   -0.7071    8.3173 C   0  0  0  0  0  0  0  0  0  0  0  0
   -0.6858   -1.0229    9.6240 C   0  0  0  0  0  0  0  0  0  0  0  0
   -2.3237   -0.0576   12.3629 C   0  0  0  0  0  0  0  0  0  0  0  0
   -2.5516    1.2284   12.8032 N   0  0  0  0  0  0  0  0  0  0  0  0
   -3.8426    1.3543   13.0179 C   0  0  0  0  0  0  0  0  0  0  0  0
   -4.4286    0.1603   12.7155 C   0  0  0  0  0  0  0  0  0  0  0  0
   -3.4390   -0.7288   12.2988 N   0  0  0  0  0  0  0  0  0  0  0  0
   -3.7755   -2.0480   11.8506 C   0  0  0  0  0  0  0  0  0  0  0  0
   -3.6900   -3.1309   12.8261 C   0  0  0  0  0  0  0  0  0  0  0  0
   -4.7334   -3.4918   13.6430 C   0  0  0  0  0  0  0  0  0  0  0  0
   -5.9978   -2.7220   13.7847 C   0  0  0  0  0  0  0  0  0  0  0  0
   -4.5611   -4.6208   14.4519 C   0  0  0  0  0  0  0  0  0  0  0  0
   -3.4092   -5.3601   14.4570 C   0  0  0  0  0  0  0  0  0  0  0  0
   -2.5207   -3.8999   12.8484 C   0  0  0  0  0  0  0  0  0  0  0  0
   -2.3543   -5.0097   13.6466 C   0  0  0  0  0  0  0  0  0  0  0  0
   -1.0917   -5.8101   13.6206 C   0  0  0  0  0  0  0  0  0  0  0  0
   -5.7755    0.0079   12.8271 C   0  0  0  0  0  0  0  0  0  0  0  0
   -6.5665    1.0454   13.2435 C   0  0  0  0  0  0  0  0  0  0  0  0
   -5.9524    2.2455   13.5467 C   0  0  0  0  0  0  0  0  0  0  0  0
   -4.5942    2.4514   13.4503 C   0  0  0  0  0  0  0  0  0  0  0  0
   -8.0314    0.9138   13.3517 C   0  0  0  0  0  0  0  0  0  0  0  0
   -8.8981    1.8211   13.9154 C   0  0  0  0  0  0  0  0  0  0  0  0
  -10.1695    1.3617   13.8233 N   0  0  0  0  0  0  0  0  0  0  0  0
  -11.3551    2.0770   14.3166 C   0  0  0  0  0  0  0  0  0  0  0  0
  -10.0905    0.2053   13.2217 N   0  0  0  0  0  0  0  0  0  0  0  0
   -8.8377   -0.1179   12.9135 C   0  0  0  0  0  0  0  0  0  0  0  0
  2  1  1  1
  2  3  1  0
  2  9  1  0
  3  4  2  0
  3  8  1  0
  4  5  1  0
  5  6  2  0
  6  7  1  0
  7  8  2  0
  9 10  2  0
  9 13  1  0
 10 11  1  0
 11 12  2  0
 11 26  1  0
 12 13  1  0
 12 23  1  0
 13 14  1  0
 14 15  1  0
 15 16  2  0
 15 20  1  0
 16 17  1  0
 16 18  1  0
 18 19  2  0
 19 21  1  0
 20 21  2  0
 21 22  1  0
 23 24  2  0
 24 25  1  0
 24 27  1  0
 25 26  2  0
 27 28  2  0
 27 32  1  0
 28 29  1  0
 29 30  1  0
 29 31  1  0
 31 32  2  0
M  END
$$$$
