
     RDKit          3D

 32 36  0  0  0  0  0  0  0  0999 V2000
   -5.8284   -0.9852   14.6366 O   0  0  0  0  0  0  0  0  0  0  0  0
   -6.4498   -1.7570   15.6388 C   0  0  2  0  0  0  0  0  0  0  0  0
   -6.3360   -3.1733   15.2241 C   0  0  0  0  0  0  0  0  0  0  0  0
   -5.7509   -4.1465   16.0129 C   0  0  0  0  0  0  0  0  0  0  0  0
   -5.6671   -5.4622   15.5631 C   0  0  0  0  0  0  0  0  0  0  0  0
   -6.1459   -5.8164   14.3664 N   0  0  0  0  0  0  0  0  0  0  0  0
   -6.7194   -4.8949   13.5752 C   0  0  0  0  0  0  0  0  0  0  0  0
   -6.8155   -3.5778   14.0000 C   0  0  0  0  0  0  0  0  0  0  0  0
   -7.8550   -1.3314   15.8071 C   0  0  0  0  0  0  0  0  0  0  0  0
   -8.6295   -1.0812   14.6948 N   0  0  0  0  0  0  0  0  0  0  0  0
   -9.8277   -0.7361   15.1118 C   0  0  0  0  0  0  0  0  0  0  0  0
   -9.8142   -0.7682   16.4753 C   0  0  0  0  0  0  0  0  0  0  0  0
   -8.5426   -1.1512   16.8993 N   0  0  0  0  0  0  0  0  0  0  0  0
   -8.2550   -1.3358   18.2913 C   0  0  0  0  0  0  0  0  0  0  0  0
   -9.1999   -2.1280   19.0729 C   0  0  0  0  0  0  0  0  0  0  0  0
   -9.2791   -3.4969   18.9953 C   0  0  0  0  0  0  0  0  0  0  0  0
   -8.5695   -4.3260   17.9850 C   0  0  0  0  0  0  0  0  0  0  0  0
  -10.1462   -4.1461   19.8814 C   0  0  0  0  0  0  0  0  0  0  0  0
  -10.9042   -3.4746   20.8022 C   0  0  0  0  0  0  0  0  0  0  0  0
   -9.9850   -1.4612   20.0207 C   0  0  0  0  0  0  0  0  0  0  0  0
  -10.8381   -2.1033   20.8903 C   0  0  0  0  0  0  0  0  0  0  0  0
  -11.6426   -1.3472   21.8986 C   0  0  0  0  0  0  0  0  0  0  0  0
  -10.9385   -0.4723   17.1810 C   0  0  0  0  0  0  0  0  0  0  0  0
  -12.1013   -0.1375   16.5394 C   0  0  0  0  0  0  0  0  0  0  0  0
  -12.0926   -0.1090   15.1580 C   0  0  0  0  0  0  0  0  0  0  0  0
  -10.9821   -0.4001   14.3975 C   0  0  0  0  0  0  0  0  0  0  0  0
  -13.3403    0.1659   17.2797 C   0  0  0  0  0  0  0  0  0  0  0  0
  -14.4342    0.8508   16.8042 C   0  0  0  0  0  0  0  0  0  0  0  0
  -15.3844    0.9264   17.7672 N   0  0  0  0  0  0  0  0  0  0  0  0
  -16.6896    1.5825   17.6048 C   0  0  0  0  0  0  0  0  0  0  0  0
  -14.8919    0.3075   18.8064 N   0  0  0  0  0  0  0  0  0  0  0  0
  -13.6720   -0.1703   18.5772 C   0  0  0  0  0  0  0  0  0  0  0  0
  2  1  1  6
  2  3  1  0
  2  9  1  0
  3  4  2  0
  3  8  1  0
  4  5  1  0
  5  6  2  0
  6  7  1  0
  7  8  2  0
  9 10  2  0
  9 13  1  0
 10 11  1  0
 11 12  2  0
 11 26  1  0
 12 13  1  0
 12 23  1  0
 13 14  1  0
 14 15  1  0
 15 16  2  0
 15 20  1  0
 16 17  1  0
 16 18  1  0
 18 19  2  0
 19 21  1  0
 20 21  2  0
 21 22  1  0
 23 24  2  0
 24 25  1  0
 24 27  1  0
 25 26  2  0
 27 28  2  0
 27 32  1  0
 28 29  1  0
 29 30  1  0
 29 31  1  0
 31 32  2  0
M  END
$$$$
