
     RDKit          3D

 32 36  0  0  0  0  0  0  0  0999 V2000
   -7.7231    0.7565   12.0089 O   0  0  0  0  0  0  0  0  0  0  0  0
   -7.0639   -0.2989   12.6704 C   0  0  2  0  0  0  0  0  0  0  0  0
   -7.1457   -1.4809   11.7832 C   0  0  0  0  0  0  0  0  0  0  0  0
   -6.8952   -2.7697   12.2171 C   0  0  0  0  0  0  0  0  0  0  0  0
   -6.9814   -3.8410   11.3311 C   0  0  0  0  0  0  0  0  0  0  0  0
   -7.3054   -3.6536   10.0479 N   0  0  0  0  0  0  0  0  0  0  0  0
   -7.5538   -2.4141    9.5941 C   0  0  0  0  0  0  0  0  0  0  0  0
   -7.4750   -1.3302   10.4563 C   0  0  0  0  0  0  0  0  0  0  0  0
   -7.6893   -0.5399   13.9875 C   0  0  0  0  0  0  0  0  0  0  0  0
   -9.0535   -0.7170   14.0724 N   0  0  0  0  0  0  0  0  0  0  0  0
   -9.3515   -0.9252   15.3359 C   0  0  0  0  0  0  0  0  0  0  0  0
   -8.1877   -0.8820   16.0458 C   0  0  0  0  0  0  0  0  0  0  0  0
   -7.1368   -0.6342   15.1639 N   0  0  0  0  0  0  0  0  0  0  0  0
   -5.7801   -0.6031   15.6252 C   0  0  0  0  0  0  0  0  0  0  0  0
   -4.9764   -1.8061   15.4292 C   0  0  0  0  0  0  0  0  0  0  0  0
   -3.6707   -1.7776   15.0042 C   0  0  0  0  0  0  0  0  0  0  0  0
   -2.9729   -0.5624   14.5066 C   0  0  0  0  0  0  0  0  0  0  0  0
   -2.9756   -2.9917   14.9678 C   0  0  0  0  0  0  0  0  0  0  0  0
   -3.5440   -4.1824   15.3320 C   0  0  0  0  0  0  0  0  0  0  0  0
   -5.5383   -3.0346   15.7953 C   0  0  0  0  0  0  0  0  0  0  0  0
   -4.8516   -4.2277   15.7571 C   0  0  0  0  0  0  0  0  0  0  0  0
   -5.4910   -5.5124   16.1767 C   0  0  0  0  0  0  0  0  0  0  0  0
   -8.1947   -1.0871   17.3903 C   0  0  0  0  0  0  0  0  0  0  0  0
   -9.3652   -1.3398   18.0550 C   0  0  0  0  0  0  0  0  0  0  0  0
  -10.5328   -1.3771   17.3171 C   0  0  0  0  0  0  0  0  0  0  0  0
  -10.5797   -1.1765   15.9556 C   0  0  0  0  0  0  0  0  0  0  0  0
   -9.3981   -1.5878   19.5084 C   0  0  0  0  0  0  0  0  0  0  0  0
  -10.5144   -1.6168   20.3115 C   0  0  0  0  0  0  0  0  0  0  0  0
  -10.1547   -1.8831   21.5905 N   0  0  0  0  0  0  0  0  0  0  0  0
  -11.0922   -1.9957   22.7169 C   0  0  0  0  0  0  0  0  0  0  0  0
   -8.8554   -2.0139   21.5778 N   0  0  0  0  0  0  0  0  0  0  0  0
   -8.3440   -1.8491   20.3612 C   0  0  0  0  0  0  0  0  0  0  0  0
  2  1  1  6
  2  3  1  0
  2  9  1  0
  3  4  2  0
  3  8  1  0
  4  5  1  0
  5  6  2  0
  6  7  1  0
  7  8  2  0
  9 10  2  0
  9 13  1  0
 10 11  1  0
 11 12  2  0
 11 26  1  0
 12 13  1  0
 12 23  1  0
 13 14  1  0
 14 15  1  0
 15 16  2  0
 15 20  1  0
 16 17  1  0
 16 18  1  0
 18 19  2  0
 19 21  1  0
 20 21  2  0
 21 22  1  0
 23 24  2  0
 24 25  1  0
 24 27  1  0
 25 26  2  0
 27 28  2  0
 27 32  1  0
 28 29  1  0
 29 30  1  0
 29 31  1  0
 31 32  2  0
M  END
$$$$
