
     RDKit          3D

 32 36  0  0  0  0  0  0  0  0999 V2000
   -7.6199   -1.2581    9.3950 O   0  0  0  0  0  0  0  0  0  0  0  0
   -6.9694   -0.7824   10.5512 C   0  0  2  0  0  0  0  0  0  0  0  0
   -7.7465    0.3809   11.0345 C   0  0  0  0  0  0  0  0  0  0  0  0
   -7.7326    0.8042   12.3508 C   0  0  0  0  0  0  0  0  0  0  0  0
   -8.4922    1.9028   12.7460 C   0  0  0  0  0  0  0  0  0  0  0  0
   -9.2492    2.5719   11.8707 N   0  0  0  0  0  0  0  0  0  0  0  0
   -9.2858    2.1858   10.5847 C   0  0  0  0  0  0  0  0  0  0  0  0
   -8.5382    1.0950   10.1656 C   0  0  0  0  0  0  0  0  0  0  0  0
   -5.5689   -0.4314   10.2358 C   0  0  0  0  0  0  0  0  0  0  0  0
   -5.3031    0.4860    9.2421 N   0  0  0  0  0  0  0  0  0  0  0  0
   -3.9982    0.6296    9.1698 C   0  0  0  0  0  0  0  0  0  0  0  0
   -3.4413   -0.1875   10.1091 C   0  0  0  0  0  0  0  0  0  0  0  0
   -4.4638   -0.8572   10.7795 N   0  0  0  0  0  0  0  0  0  0  0  0
   -4.1743   -1.7378   11.8728 C   0  0  0  0  0  0  0  0  0  0  0  0
   -4.6258   -1.3312   13.2003 C   0  0  0  0  0  0  0  0  0  0  0  0
   -5.2093   -2.1955   14.0940 C   0  0  0  0  0  0  0  0  0  0  0  0
   -5.6331   -3.5836   13.7698 C   0  0  0  0  0  0  0  0  0  0  0  0
   -5.4912   -1.7083   15.3754 C   0  0  0  0  0  0  0  0  0  0  0  0
   -5.2123   -0.4240   15.7579 C   0  0  0  0  0  0  0  0  0  0  0  0
   -4.3507   -0.0220   13.6119 C   0  0  0  0  0  0  0  0  0  0  0  0
   -4.6305    0.4544   14.8733 C   0  0  0  0  0  0  0  0  0  0  0  0
   -4.2999    1.8572   15.2712 C   0  0  0  0  0  0  0  0  0  0  0  0
   -2.0917   -0.2271   10.2727 C   0  0  0  0  0  0  0  0  0  0  0  0
   -1.2688    0.5493    9.5009 C   0  0  0  0  0  0  0  0  0  0  0  0
   -1.8533    1.3683    8.5539 C   0  0  0  0  0  0  0  0  0  0  0  0
   -3.2129    1.4452    8.3489 C   0  0  0  0  0  0  0  0  0  0  0  0
    0.1960    0.5422    9.6727 C   0  0  0  0  0  0  0  0  0  0  0  0
    0.9166   -0.2379   10.5469 C   0  0  0  0  0  0  0  0  0  0  0  0
    2.2394    0.0244   10.4151 N   0  0  0  0  0  0  0  0  0  0  0  0
    3.3034   -0.6320   11.1880 C   0  0  0  0  0  0  0  0  0  0  0  0
    2.3329    0.9394    9.4880 N   0  0  0  0  0  0  0  0  0  0  0  0
    1.1447    1.2904    9.0044 C   0  0  0  0  0  0  0  0  0  0  0  0
  2  1  1  6
  2  3  1  0
  2  9  1  0
  3  4  2  0
  3  8  1  0
  4  5  1  0
  5  6  2  0
  6  7  1  0
  7  8  2  0
  9 10  2  0
  9 13  1  0
 10 11  1  0
 11 12  2  0
 11 26  1  0
 12 13  1  0
 12 23  1  0
 13 14  1  0
 14 15  1  0
 15 16  2  0
 15 20  1  0
 16 17  1  0
 16 18  1  0
 18 19  2  0
 19 21  1  0
 20 21  2  0
 21 22  1  0
 23 24  2  0
 24 25  1  0
 24 27  1  0
 25 26  2  0
 27 28  2  0
 27 32  1  0
 28 29  1  0
 29 30  1  0
 29 31  1  0
 31 32  2  0
M  END
$$$$
