
     RDKit          3D

 32 36  0  0  0  0  0  0  0  0999 V2000
   -7.5050    0.9115   17.2769 O   0  0  0  0  0  0  0  0  0  0  0  0
   -8.2506   -0.1721   16.7711 C   0  0  2  0  0  0  0  0  0  0  0  0
   -8.8665    0.2829   15.5044 C   0  0  0  0  0  0  0  0  0  0  0  0
   -8.7162   -0.3911   14.3066 C   0  0  0  0  0  0  0  0  0  0  0  0
   -9.3153    0.0921   13.1457 C   0  0  0  0  0  0  0  0  0  0  0  0
  -10.0455    1.2118   13.1582 N   0  0  0  0  0  0  0  0  0  0  0  0
  -10.2102    1.8910   14.3052 C   0  0  0  0  0  0  0  0  0  0  0  0
   -9.6242    1.4305   15.4752 C   0  0  0  0  0  0  0  0  0  0  0  0
   -9.2577   -0.6009   17.7639 C   0  0  0  0  0  0  0  0  0  0  0  0
   -9.4538    0.1487   18.9038 N   0  0  0  0  0  0  0  0  0  0  0  0
  -10.4009   -0.4327   19.6063 C   0  0  0  0  0  0  0  0  0  0  0  0
  -10.8030   -1.5398   18.9185 C   0  0  0  0  0  0  0  0  0  0  0  0
  -10.0587   -1.6287   17.7431 N   0  0  0  0  0  0  0  0  0  0  0  0
  -10.3156   -2.6636   16.7853 C   0  0  0  0  0  0  0  0  0  0  0  0
   -9.8092   -3.9992   17.0877 C   0  0  0  0  0  0  0  0  0  0  0  0
   -8.4950   -4.3613   16.9206 C   0  0  0  0  0  0  0  0  0  0  0  0
   -7.4710   -3.5258   16.2388 C   0  0  0  0  0  0  0  0  0  0  0  0
   -8.1147   -5.6357   17.3563 C   0  0  0  0  0  0  0  0  0  0  0  0
   -8.9925   -6.5157   17.9294 C   0  0  0  0  0  0  0  0  0  0  0  0
  -10.6902   -4.9150   17.6744 C   0  0  0  0  0  0  0  0  0  0  0  0
  -10.3126   -6.1688   18.1010 C   0  0  0  0  0  0  0  0  0  0  0  0
  -11.2881   -7.1048   18.7396 C   0  0  0  0  0  0  0  0  0  0  0  0
  -11.7969   -2.3292   19.4071 C   0  0  0  0  0  0  0  0  0  0  0  0
  -12.4108   -2.0296   20.5941 C   0  0  0  0  0  0  0  0  0  0  0  0
  -11.9869   -0.9049   21.2757 C   0  0  0  0  0  0  0  0  0  0  0  0
  -10.9861   -0.0735   20.8246 C   0  0  0  0  0  0  0  0  0  0  0  0
  -13.5060   -2.8559   21.1354 C   0  0  0  0  0  0  0  0  0  0  0  0
  -14.4687   -2.4576   22.0334 C   0  0  0  0  0  0  0  0  0  0  0  0
  -15.3124   -3.4862   22.2904 N   0  0  0  0  0  0  0  0  0  0  0  0
  -16.4649   -3.4155   23.1999 C   0  0  0  0  0  0  0  0  0  0  0  0
  -14.8833   -4.4898   21.5734 N   0  0  0  0  0  0  0  0  0  0  0  0
  -13.8057   -4.1753   20.8600 C   0  0  0  0  0  0  0  0  0  0  0  0
  2  1  1  1
  2  3  1  0
  2  9  1  0
  3  4  2  0
  3  8  1  0
  4  5  1  0
  5  6  2  0
  6  7  1  0
  7  8  2  0
  9 10  2  0
  9 13  1  0
 10 11  1  0
 11 12  2  0
 11 26  1  0
 12 13  1  0
 12 23  1  0
 13 14  1  0
 14 15  1  0
 15 16  2  0
 15 20  1  0
 16 17  1  0
 16 18  1  0
 18 19  2  0
 19 21  1  0
 20 21  2  0
 21 22  1  0
 23 24  2  0
 24 25  1  0
 24 27  1  0
 25 26  2  0
 27 28  2  0
 27 32  1  0
 28 29  1  0
 29 30  1  0
 29 31  1  0
 31 32  2  0
M  END
$$$$
