
     RDKit          3D

 32 36  0  0  0  0  0  0  0  0999 V2000
  -12.1830   -2.1628   17.3241 O   0  0  0  0  0  0  0  0  0  0  0  0
  -11.1216   -1.2476   17.4719 C   0  0  2  0  0  0  0  0  0  0  0  0
  -11.5752    0.0354   16.8895 C   0  0  0  0  0  0  0  0  0  0  0  0
  -10.7249    1.0995   16.6519 C   0  0  0  0  0  0  0  0  0  0  0  0
  -11.2140    2.2849   16.1081 C   0  0  0  0  0  0  0  0  0  0  0  0
  -12.5082    2.4248   15.8041 N   0  0  0  0  0  0  0  0  0  0  0  0
  -13.3610    1.4105   16.0236 C   0  0  0  0  0  0  0  0  0  0  0  0
  -12.8989    0.2194   16.5640 C   0  0  0  0  0  0  0  0  0  0  0  0
   -9.9081   -1.7684   16.8086 C   0  0  0  0  0  0  0  0  0  0  0  0
   -9.9279   -2.0250   15.4545 N   0  0  0  0  0  0  0  0  0  0  0  0
   -8.7358   -2.4619   15.1132 C   0  0  0  0  0  0  0  0  0  0  0  0
   -7.9664   -2.4811   16.2392 C   0  0  0  0  0  0  0  0  0  0  0  0
   -8.7359   -2.0339   17.3122 N   0  0  0  0  0  0  0  0  0  0  0  0
   -8.1630   -1.8846   18.6176 C   0  0  0  0  0  0  0  0  0  0  0  0
   -8.9898   -2.2600   19.7608 C   0  0  0  0  0  0  0  0  0  0  0  0
   -9.4256   -1.3599   20.7021 C   0  0  0  0  0  0  0  0  0  0  0  0
   -8.9641    0.0506   20.7963 C   0  0  0  0  0  0  0  0  0  0  0  0
  -10.3074   -1.8262   21.6838 C   0  0  0  0  0  0  0  0  0  0  0  0
  -10.7387   -3.1242   21.7364 C   0  0  0  0  0  0  0  0  0  0  0  0
   -9.4421   -3.5826   19.8343 C   0  0  0  0  0  0  0  0  0  0  0  0
  -10.3090   -4.0382   20.8025 C   0  0  0  0  0  0  0  0  0  0  0  0
  -10.7782   -5.4576   20.8274 C   0  0  0  0  0  0  0  0  0  0  0  0
   -6.6662   -2.8752   16.1767 C   0  0  0  0  0  0  0  0  0  0  0  0
   -6.1062   -3.2590   14.9872 C   0  0  0  0  0  0  0  0  0  0  0  0
   -6.9038   -3.2341   13.8592 C   0  0  0  0  0  0  0  0  0  0  0  0
   -8.2243   -2.8436   13.8689 C   0  0  0  0  0  0  0  0  0  0  0  0
   -4.6932   -3.6693   14.8876 C   0  0  0  0  0  0  0  0  0  0  0  0
   -3.7245   -3.5196   15.8526 C   0  0  0  0  0  0  0  0  0  0  0  0
   -2.5484   -4.0234   15.4065 N   0  0  0  0  0  0  0  0  0  0  0  0
   -1.2981   -4.0385   16.1791 C   0  0  0  0  0  0  0  0  0  0  0  0
   -2.7834   -4.4701   14.2020 N   0  0  0  0  0  0  0  0  0  0  0  0
   -4.0486   -4.2878   13.8346 C   0  0  0  0  0  0  0  0  0  0  0  0
  2  1  1  6
  2  3  1  0
  2  9  1  0
  3  4  2  0
  3  8  1  0
  4  5  1  0
  5  6  2  0
  6  7  1  0
  7  8  2  0
  9 10  2  0
  9 13  1  0
 10 11  1  0
 11 12  2  0
 11 26  1  0
 12 13  1  0
 12 23  1  0
 13 14  1  0
 14 15  1  0
 15 16  2  0
 15 20  1  0
 16 17  1  0
 16 18  1  0
 18 19  2  0
 19 21  1  0
 20 21  2  0
 21 22  1  0
 23 24  2  0
 24 25  1  0
 24 27  1  0
 25 26  2  0
 27 28  2  0
 27 32  1  0
 28 29  1  0
 29 30  1  0
 29 31  1  0
 31 32  2  0
M  END
$$$$
