
     RDKit          3D

 32 36  0  0  0  0  0  0  0  0999 V2000
   -3.2284   -2.7689   15.8028 O   0  0  0  0  0  0  0  0  0  0  0  0
   -4.6092   -2.6443   16.0554 C   0  0  2  0  0  0  0  0  0  0  0  0
   -5.1254   -4.0083   16.3084 C   0  0  0  0  0  0  0  0  0  0  0  0
   -5.5124   -4.4491   17.5605 C   0  0  0  0  0  0  0  0  0  0  0  0
   -5.9835   -5.7481   17.7360 C   0  0  0  0  0  0  0  0  0  0  0  0
   -6.0731   -6.5968   16.7072 N   0  0  0  0  0  0  0  0  0  0  0  0
   -5.7042   -6.2003   15.4780 C   0  0  0  0  0  0  0  0  0  0  0  0
   -5.2320   -4.9116   15.2766 C   0  0  0  0  0  0  0  0  0  0  0  0
   -5.2769   -1.9941   14.9085 C   0  0  0  0  0  0  0  0  0  0  0  0
   -4.8868   -2.3085   13.6245 N   0  0  0  0  0  0  0  0  0  0  0  0
   -5.6360   -1.6129   12.7977 C   0  0  0  0  0  0  0  0  0  0  0  0
   -6.4941   -0.8654   13.5495 C   0  0  0  0  0  0  0  0  0  0  0  0
   -6.2472   -1.1242   14.8969 N   0  0  0  0  0  0  0  0  0  0  0  0
   -7.0508   -0.5248   15.9213 C   0  0  0  0  0  0  0  0  0  0  0  0
   -8.0131   -1.3819   16.6076 C   0  0  0  0  0  0  0  0  0  0  0  0
   -8.8803   -2.2180   15.9480 C   0  0  0  0  0  0  0  0  0  0  0  0
   -9.0925   -2.2209   14.4761 C   0  0  0  0  0  0  0  0  0  0  0  0
   -9.6715   -3.0725   16.7243 C   0  0  0  0  0  0  0  0  0  0  0  0
   -9.6120   -3.0994   18.0915 C   0  0  0  0  0  0  0  0  0  0  0  0
   -7.9696   -1.4247   18.0059 C   0  0  0  0  0  0  0  0  0  0  0  0
   -8.7506   -2.2660   18.7667 C   0  0  0  0  0  0  0  0  0  0  0  0
   -8.6538   -2.2877   20.2585 C   0  0  0  0  0  0  0  0  0  0  0  0
   -7.4078   -0.0564   12.9492 C   0  0  0  0  0  0  0  0  0  0  0  0
   -7.4840    0.0235   11.5842 C   0  0  0  0  0  0  0  0  0  0  0  0
   -6.6042   -0.7405   10.8416 C   0  0  0  0  0  0  0  0  0  0  0  0
   -5.6616   -1.5746   11.4000 C   0  0  0  0  0  0  0  0  0  0  0  0
   -8.4799    0.8754   10.9078 C   0  0  0  0  0  0  0  0  0  0  0  0
   -9.3181    1.7895   11.5025 C   0  0  0  0  0  0  0  0  0  0  0  0
  -10.0867    2.3897   10.5618 N   0  0  0  0  0  0  0  0  0  0  0  0
  -11.0917    3.4259   10.8391 C   0  0  0  0  0  0  0  0  0  0  0  0
   -9.7344    1.8617    9.4205 N   0  0  0  0  0  0  0  0  0  0  0  0
   -8.7768    0.9495    9.5613 C   0  0  0  0  0  0  0  0  0  0  0  0
  2  1  1  6
  2  3  1  0
  2  9  1  0
  3  4  2  0
  3  8  1  0
  4  5  1  0
  5  6  2  0
  6  7  1  0
  7  8  2  0
  9 10  2  0
  9 13  1  0
 10 11  1  0
 11 12  2  0
 11 26  1  0
 12 13  1  0
 12 23  1  0
 13 14  1  0
 14 15  1  0
 15 16  2  0
 15 20  1  0
 16 17  1  0
 16 18  1  0
 18 19  2  0
 19 21  1  0
 20 21  2  0
 21 22  1  0
 23 24  2  0
 24 25  1  0
 24 27  1  0
 25 26  2  0
 27 28  2  0
 27 32  1  0
 28 29  1  0
 29 30  1  0
 29 31  1  0
 31 32  2  0
M  END
$$$$
