
     RDKit          3D

 32 36  0  0  0  0  0  0  0  0999 V2000
  -12.1912    0.1834   16.4811 O   0  0  0  0  0  0  0  0  0  0  0  0
  -11.2515   -0.8057   16.8341 C   0  0  2  0  0  0  0  0  0  0  0  0
  -10.9684   -0.6351   18.2769 C   0  0  0  0  0  0  0  0  0  0  0  0
   -9.9060   -1.2476   18.9156 C   0  0  0  0  0  0  0  0  0  0  0  0
   -9.6963   -1.0535   20.2789 C   0  0  0  0  0  0  0  0  0  0  0  0
  -10.5100   -0.2766   21.0007 N   0  0  0  0  0  0  0  0  0  0  0  0
  -11.5520    0.3321   20.4108 C   0  0  0  0  0  0  0  0  0  0  0  0
  -11.7825    0.1553   19.0543 C   0  0  0  0  0  0  0  0  0  0  0  0
  -10.0373   -0.6700   16.0028 C   0  0  0  0  0  0  0  0  0  0  0  0
   -9.5128    0.5815   15.7609 N   0  0  0  0  0  0  0  0  0  0  0  0
   -8.4401    0.4280   15.0163 C   0  0  0  0  0  0  0  0  0  0  0  0
   -8.2845   -0.9078   14.7889 C   0  0  0  0  0  0  0  0  0  0  0  0
   -9.3170   -1.5919   15.4287 N   0  0  0  0  0  0  0  0  0  0  0  0
   -9.3696   -3.0242   15.4170 C   0  0  0  0  0  0  0  0  0  0  0  0
   -9.0683   -3.7175   16.6660 C   0  0  0  0  0  0  0  0  0  0  0  0
   -7.8010   -3.8139   17.1864 C   0  0  0  0  0  0  0  0  0  0  0  0
   -6.5628   -3.4084   16.4696 C   0  0  0  0  0  0  0  0  0  0  0  0
   -7.6627   -4.4038   18.4479 C   0  0  0  0  0  0  0  0  0  0  0  0
   -8.7274   -4.8804   19.1640 C   0  0  0  0  0  0  0  0  0  0  0  0
  -10.1425   -4.2127   17.4144 C   0  0  0  0  0  0  0  0  0  0  0  0
  -10.0025   -4.7937   18.6551 C   0  0  0  0  0  0  0  0  0  0  0  0
  -11.1844   -5.2910   19.4241 C   0  0  0  0  0  0  0  0  0  0  0  0
   -7.2327   -1.3623   14.0562 C   0  0  0  0  0  0  0  0  0  0  0  0
   -6.3133   -0.4917   13.5343 C   0  0  0  0  0  0  0  0  0  0  0  0
   -6.4909    0.8573   13.7749 C   0  0  0  0  0  0  0  0  0  0  0  0
   -7.5375    1.3683   14.5096 C   0  0  0  0  0  0  0  0  0  0  0  0
   -5.1517   -0.9595   12.7553 C   0  0  0  0  0  0  0  0  0  0  0  0
   -4.3554   -2.0445   13.0394 C   0  0  0  0  0  0  0  0  0  0  0  0
   -3.3926   -2.1691   12.0942 N   0  0  0  0  0  0  0  0  0  0  0  0
   -2.3688   -3.2236   12.0769 C   0  0  0  0  0  0  0  0  0  0  0  0
   -3.5878   -1.1902   11.2521 N   0  0  0  0  0  0  0  0  0  0  0  0
   -4.6259   -0.4317   11.5927 C   0  0  0  0  0  0  0  0  0  0  0  0
  2  1  1  6
  2  3  1  0
  2  9  1  0
  3  4  2  0
  3  8  1  0
  4  5  1  0
  5  6  2  0
  6  7  1  0
  7  8  2  0
  9 10  2  0
  9 13  1  0
 10 11  1  0
 11 12  2  0
 11 26  1  0
 12 13  1  0
 12 23  1  0
 13 14  1  0
 14 15  1  0
 15 16  2  0
 15 20  1  0
 16 17  1  0
 16 18  1  0
 18 19  2  0
 19 21  1  0
 20 21  2  0
 21 22  1  0
 23 24  2  0
 24 25  1  0
 24 27  1  0
 25 26  2  0
 27 28  2  0
 27 32  1  0
 28 29  1  0
 29 30  1  0
 29 31  1  0
 31 32  2  0
M  END
$$$$
