
     RDKit          3D

 32 36  0  0  0  0  0  0  0  0999 V2000
   -8.3604   -1.9864   14.6933 O   0  0  0  0  0  0  0  0  0  0  0  0
   -7.9579   -2.0796   16.0407 C   0  0  2  0  0  0  0  0  0  0  0  0
   -6.5840   -2.6304   16.0425 C   0  0  0  0  0  0  0  0  0  0  0  0
   -5.8308   -2.7851   14.8933 C   0  0  0  0  0  0  0  0  0  0  0  0
   -4.5452   -3.3170   14.9594 C   0  0  0  0  0  0  0  0  0  0  0  0
   -4.0094   -3.6898   16.1259 N   0  0  0  0  0  0  0  0  0  0  0  0
   -4.7151   -3.5538   17.2607 C   0  0  0  0  0  0  0  0  0  0  0  0
   -5.9975   -3.0264   17.2220 C   0  0  0  0  0  0  0  0  0  0  0  0
   -8.9048   -2.9276   16.7944 C   0  0  0  0  0  0  0  0  0  0  0  0
   -9.1670   -4.2091   16.3600 N   0  0  0  0  0  0  0  0  0  0  0  0
  -10.0206   -4.7493   17.2015 C   0  0  0  0  0  0  0  0  0  0  0  0
  -10.2965   -3.8203   18.1613 C   0  0  0  0  0  0  0  0  0  0  0  0
   -9.5725   -2.6623   17.8816 N   0  0  0  0  0  0  0  0  0  0  0  0
   -9.6151   -1.5354   18.7663 C   0  0  0  0  0  0  0  0  0  0  0  0
  -10.3616   -0.3616   18.3232 C   0  0  0  0  0  0  0  0  0  0  0  0
   -9.7593    0.7829   17.8612 C   0  0  0  0  0  0  0  0  0  0  0  0
   -8.2989    1.0541   17.9323 C   0  0  0  0  0  0  0  0  0  0  0  0
  -10.5880    1.7923   17.3580 C   0  0  0  0  0  0  0  0  0  0  0  0
  -11.9514    1.6790   17.3149 C   0  0  0  0  0  0  0  0  0  0  0  0
  -11.7572   -0.4557   18.2713 C   0  0  0  0  0  0  0  0  0  0  0  0
  -12.5696    0.5402   17.7765 C   0  0  0  0  0  0  0  0  0  0  0  0
  -14.0558    0.3842   17.7249 C   0  0  0  0  0  0  0  0  0  0  0  0
  -11.1439   -4.1180   19.1826 C   0  0  0  0  0  0  0  0  0  0  0  0
  -11.7344   -5.3507   19.2672 C   0  0  0  0  0  0  0  0  0  0  0  0
  -11.4429   -6.2763   18.2835 C   0  0  0  0  0  0  0  0  0  0  0  0
  -10.5926   -6.0251   17.2298 C   0  0  0  0  0  0  0  0  0  0  0  0
  -12.6394   -5.7070   20.3759 C   0  0  0  0  0  0  0  0  0  0  0  0
  -13.0599   -4.8794   21.3909 C   0  0  0  0  0  0  0  0  0  0  0  0
  -13.8930   -5.5540   22.2197 N   0  0  0  0  0  0  0  0  0  0  0  0
  -14.5373   -4.9779   23.4086 C   0  0  0  0  0  0  0  0  0  0  0  0
  -13.9837   -6.7619   21.7317 N   0  0  0  0  0  0  0  0  0  0  0  0
  -13.2569   -6.9158   20.6285 C   0  0  0  0  0  0  0  0  0  0  0  0
  2  1  1  6
  2  3  1  0
  2  9  1  0
  3  4  2  0
  3  8  1  0
  4  5  1  0
  5  6  2  0
  6  7  1  0
  7  8  2  0
  9 10  2  0
  9 13  1  0
 10 11  1  0
 11 12  2  0
 11 26  1  0
 12 13  1  0
 12 23  1  0
 13 14  1  0
 14 15  1  0
 15 16  2  0
 15 20  1  0
 16 17  1  0
 16 18  1  0
 18 19  2  0
 19 21  1  0
 20 21  2  0
 21 22  1  0
 23 24  2  0
 24 25  1  0
 24 27  1  0
 25 26  2  0
 27 28  2  0
 27 32  1  0
 28 29  1  0
 29 30  1  0
 29 31  1  0
 31 32  2  0
M  END
$$$$
