
     RDKit          3D

 23 24  0  0  0  0  0  0  0  0999 V2000
   -7.1275  -34.3497  -15.4626 C   0  0  1  0  0  0  0  0  0  0  0  0
   -7.0353  -35.7683  -14.9784 C   0  0  1  0  0  0  0  0  0  0  0  0
   -6.2839  -36.6388  -15.9662 C   0  0  2  0  0  0  0  0  0  0  0  0
   -4.9280  -35.9848  -16.1061 C   0  0  1  0  0  0  0  0  0  0  0  0
   -5.1275  -34.6199  -16.6588 C   0  0  1  0  0  0  0  0  0  0  0  0
   -4.8325  -34.6914  -18.1644 C   0  0  0  0  0  0  0  0  0  0  0  0
   -6.9737  -33.4225  -14.4413 O   0  0  0  0  0  0  0  0  0  0  0  0
   -6.3945  -35.8729  -13.7473 O   0  0  0  0  0  0  0  0  0  0  0  0
   -6.9894  -36.6085  -17.1666 O   0  0  0  0  0  0  0  0  0  0  0  0
   -4.3823  -35.8756  -14.8342 O   0  0  0  0  0  0  0  0  0  0  0  0
   -6.2831  -34.0071  -16.4659 O   0  0  0  0  0  0  0  0  0  0  0  0
   -4.4087  -33.4694  -18.6491 O   0  0  0  0  0  0  0  0  0  0  0  0
   -8.3968  -31.7401  -13.6907 C   0  0  0  0  0  0  0  0  0  0  0  0
   -7.3707  -32.1473  -14.7645 C   0  0  1  0  0  0  0  0  0  0  0  0
   -6.3011  -31.1161  -14.7232 C   0  0  2  0  0  0  0  0  0  0  0  0
   -6.6146  -30.2191  -15.8842 C   0  0  1  0  0  0  0  0  0  0  0  0
   -7.8088  -30.8369  -16.5300 C   0  0  1  0  0  0  0  0  0  0  0  0
   -7.5773  -31.0739  -18.0283 C   0  0  0  0  0  0  0  0  0  0  0  0
   -8.4824  -32.7020  -12.7018 O   0  0  0  0  0  0  0  0  0  0  0  0
   -8.0431  -32.0611  -15.9639 O   0  0  0  0  0  0  0  0  0  0  0  0
   -5.0222  -31.5773  -14.8492 O   0  0  0  0  0  0  0  0  0  0  0  0
   -6.9581  -28.9373  -15.4673 O   0  0  0  0  0  0  0  0  0  0  0  0
   -8.6839  -31.7492  -18.5124 O   0  0  0  0  0  0  0  0  0  0  0  0
  1  2  1  0
  1  7  1  1
  1 11  1  0
  2  3  1  0
  2  8  1  1
  3  4  1  0
  3  9  1  6
  5  4  1  0
  4 10  1  1
  5  6  1  6
 11  5  1  0
  6 12  1  0
 14  7  1  0
 14 13  1  1
 13 19  1  0
 14 15  1  0
 20 14  1  0
 16 15  1  0
 15 21  1  6
 17 16  1  0
 16 22  1  1
 17 18  1  6
 17 20  1  0
 23 18  1  0
M  END
$$$$
