
     RDKit          3D

 23 24  0  0  0  0  0  0  0  0999 V2000
   -7.2137  -33.3228  -16.3972 C   0  0  1  0  0  0  0  0  0  0  0  0
   -7.9507  -34.4260  -17.1011 C   0  0  1  0  0  0  0  0  0  0  0  0
   -7.0410  -35.6071  -17.3758 C   0  0  2  0  0  0  0  0  0  0  0  0
   -6.5295  -36.0269  -16.0165 C   0  0  1  0  0  0  0  0  0  0  0  0
   -5.7568  -34.8946  -15.4429 C   0  0  1  0  0  0  0  0  0  0  0  0
   -4.2690  -35.1930  -15.6801 C   0  0  0  0  0  0  0  0  0  0  0  0
   -7.9812  -32.7011  -15.4221 O   0  0  0  0  0  0  0  0  0  0  0  0
   -9.0415  -34.8908  -16.3721 O   0  0  0  0  0  0  0  0  0  0  0  0
   -6.0065  -35.1534  -18.1906 O   0  0  0  0  0  0  0  0  0  0  0  0
   -7.6334  -36.2678  -15.2096 O   0  0  0  0  0  0  0  0  0  0  0  0
   -6.0265  -33.6621  -15.8385 O   0  0  0  0  0  0  0  0  0  0  0  0
   -3.7824  -36.0833  -14.7430 O   0  0  0  0  0  0  0  0  0  0  0  0
   -8.3736  -30.4255  -15.1275 C   0  0  0  0  0  0  0  0  0  0  0  0
   -7.3999  -31.5888  -14.8624 C   0  0  1  0  0  0  0  0  0  0  0  0
   -7.2120  -31.6401  -13.3889 C   0  0  2  0  0  0  0  0  0  0  0  0
   -5.8909  -30.9648  -13.1663 C   0  0  1  0  0  0  0  0  0  0  0  0
   -5.4019  -30.6264  -14.5342 C   0  0  1  0  0  0  0  0  0  0  0  0
   -3.9853  -31.1653  -14.7735 C   0  0  0  0  0  0  0  0  0  0  0  0
   -8.6164  -30.2856  -16.4810 O   0  0  0  0  0  0  0  0  0  0  0  0
   -6.2161  -31.2185  -15.4619 O   0  0  0  0  0  0  0  0  0  0  0  0
   -7.1736  -32.8874  -12.8351 O   0  0  0  0  0  0  0  0  0  0  0  0
   -6.0311  -29.7820  -12.4479 O   0  0  0  0  0  0  0  0  0  0  0  0
   -3.6474  -30.8643  -16.0812 O   0  0  0  0  0  0  0  0  0  0  0  0
  1  2  1  0
  1  7  1  1
  1 11  1  0
  2  3  1  0
  2  8  1  1
  3  4  1  0
  3  9  1  6
  5  4  1  0
  4 10  1  1
  5  6  1  6
 11  5  1  0
  6 12  1  0
 14  7  1  0
 14 13  1  1
 13 19  1  0
 14 15  1  0
 20 14  1  0
 16 15  1  0
 15 21  1  6
 17 16  1  0
 16 22  1  1
 17 18  1  1
 17 20  1  0
 23 18  1  0
M  END
$$$$
