
     RDKit          3D

 23 24  0  0  0  0  0  0  0  0999 V2000
   -6.7169  -34.1588  -14.6146 C   0  0  1  0  0  0  0  0  0  0  0  0
   -5.9996  -34.8745  -13.5061 C   0  0  1  0  0  0  0  0  0  0  0  0
   -5.2639  -36.0942  -14.0246 C   0  0  2  0  0  0  0  0  0  0  0  0
   -4.3186  -35.5590  -15.0760 C   0  0  1  0  0  0  0  0  0  0  0  0
   -5.1303  -34.9401  -16.1560 C   0  0  1  0  0  0  0  0  0  0  0  0
   -5.2240  -35.9633  -17.2976 C   0  0  0  0  0  0  0  0  0  0  0  0
   -6.6523  -32.7778  -14.4925 O   0  0  0  0  0  0  0  0  0  0  0  0
   -5.0728  -34.0636  -12.8574 O   0  0  0  0  0  0  0  0  0  0  0  0
   -6.2143  -36.9464  -14.5817 O   0  0  0  0  0  0  0  0  0  0  0  0
   -3.5436  -34.5733  -14.4798 O   0  0  0  0  0  0  0  0  0  0  0  0
   -6.3387  -34.4830  -15.8751 O   0  0  0  0  0  0  0  0  0  0  0  0
   -5.4871  -35.3437  -18.5036 O   0  0  0  0  0  0  0  0  0  0  0  0
   -8.5534  -31.4354  -14.4378 C   0  0  0  0  0  0  0  0  0  0  0  0
   -7.4897  -32.0908  -15.3381 C   0  0  1  0  0  0  0  0  0  0  0  0
   -6.8577  -30.9830  -16.1012 C   0  0  2  0  0  0  0  0  0  0  0  0
   -7.5129  -31.0487  -17.4492 C   0  0  1  0  0  0  0  0  0  0  0  0
   -8.4309  -32.2216  -17.3687 C   0  0  1  0  0  0  0  0  0  0  0  0
   -8.1852  -33.2070  -18.5189 C   0  0  0  0  0  0  0  0  0  0  0  0
   -9.0627  -32.3481  -13.5332 O   0  0  0  0  0  0  0  0  0  0  0  0
   -8.1920  -32.9002  -16.2040 O   0  0  0  0  0  0  0  0  0  0  0  0
   -5.5039  -31.0636  -16.2595 O   0  0  0  0  0  0  0  0  0  0  0  0
   -8.2756  -29.9145  -17.7076 O   0  0  0  0  0  0  0  0  0  0  0  0
   -8.8728  -34.3694  -18.2171 O   0  0  0  0  0  0  0  0  0  0  0  0
  1  2  1  0
  1  7  1  1
  1 11  1  0
  2  3  1  0
  2  8  1  6
  3  4  1  0
  3  9  1  6
  5  4  1  0
  4 10  1  1
  5  6  1  6
 11  5  1  0
  6 12  1  0
 14  7  1  0
 14 13  1  1
 13 19  1  0
 14 15  1  0
 20 14  1  0
 16 15  1  0
 15 21  1  6
 17 16  1  0
 16 22  1  1
 17 18  1  6
 17 20  1  0
 23 18  1  0
M  END
$$$$
