
     RDKit          3D

 23 24  0  0  0  0  0  0  0  0999 V2000
   -6.6629  -32.7712  -14.3604 C   0  0  1  0  0  0  0  0  0  0  0  0
   -7.3940  -31.7821  -13.4986 C   0  0  1  0  0  0  0  0  0  0  0  0
   -6.9612  -30.3616  -13.8035 C   0  0  2  0  0  0  0  0  0  0  0  0
   -7.2526  -30.1750  -15.2752 C   0  0  1  0  0  0  0  0  0  0  0  0
   -6.4271  -31.1476  -16.0373 C   0  0  1  0  0  0  0  0  0  0  0  0
   -5.2018  -30.3878  -16.5667 C   0  0  0  0  0  0  0  0  0  0  0  0
   -7.4738  -33.8131  -14.7885 O   0  0  0  0  0  0  0  0  0  0  0  0
   -8.7748  -31.8492  -13.6606 O   0  0  0  0  0  0  0  0  0  0  0  0
   -5.5960  -30.2783  -13.5408 O   0  0  0  0  0  0  0  0  0  0  0  0
   -8.5934  -30.4726  -15.4779 O   0  0  0  0  0  0  0  0  0  0  0  0
   -6.0316  -32.2623  -15.4463 O   0  0  0  0  0  0  0  0  0  0  0  0
   -4.5167  -31.1357  -17.5042 O   0  0  0  0  0  0  0  0  0  0  0  0
   -5.4600  -34.9641  -14.5916 C   0  0  0  0  0  0  0  0  0  0  0  0
   -6.7967  -34.8687  -15.3502 C   0  0  1  0  0  0  0  0  0  0  0  0
   -7.4488  -36.1961  -15.2029 C   0  0  2  0  0  0  0  0  0  0  0  0
   -7.1757  -36.8833  -16.5082 C   0  0  1  0  0  0  0  0  0  0  0  0
   -6.4335  -35.8758  -17.3200 C   0  0  1  0  0  0  0  0  0  0  0  0
   -7.0955  -35.6581  -18.6871 C   0  0  0  0  0  0  0  0  0  0  0  0
   -4.5396  -35.7065  -15.3073 O   0  0  0  0  0  0  0  0  0  0  0  0
   -6.4547  -34.6711  -16.6701 O   0  0  0  0  0  0  0  0  0  0  0  0
   -8.7961  -36.1782  -14.9822 O   0  0  0  0  0  0  0  0  0  0  0  0
   -6.3598  -37.9977  -16.3434 O   0  0  0  0  0  0  0  0  0  0  0  0
   -6.5866  -34.4807  -19.2063 O   0  0  0  0  0  0  0  0  0  0  0  0
  1  2  1  0
  1  7  1  6
  1 11  1  0
  2  3  1  0
  2  8  1  6
  3  4  1  0
  3  9  1  6
  5  4  1  0
  4 10  1  1
  5  6  1  1
 11  5  1  0
  6 12  1  0
 14  7  1  0
 14 13  1  1
 13 19  1  0
 14 15  1  0
 20 14  1  0
 16 15  1  0
 15 21  1  6
 17 16  1  0
 16 22  1  1
 17 18  1  6
 17 20  1  0
 23 18  1  0
M  END
$$$$
