
     RDKit          3D

 23 24  0  0  0  0  0  0  0  0999 V2000
   -7.2164  -32.7512  -14.3390 C   0  0  1  0  0  0  0  0  0  0  0  0
   -8.0180  -31.7583  -13.5472 C   0  0  1  0  0  0  0  0  0  0  0  0
   -7.1416  -30.6392  -13.0203 C   0  0  2  0  0  0  0  0  0  0  0  0
   -6.5129  -30.0268  -14.2513 C   0  0  1  0  0  0  0  0  0  0  0  0
   -5.6872  -31.0683  -14.9159 C   0  0  1  0  0  0  0  0  0  0  0  0
   -4.2278  -30.8217  -14.5060 C   0  0  0  0  0  0  0  0  0  0  0  0
   -7.8912  -33.2145  -15.4599 O   0  0  0  0  0  0  0  0  0  0  0  0
   -9.0415  -31.1806  -14.2929 O   0  0  0  0  0  0  0  0  0  0  0  0
   -6.1819  -31.2180  -12.1935 O   0  0  0  0  0  0  0  0  0  0  0  0
   -7.5415  -29.6590  -15.1082 O   0  0  0  0  0  0  0  0  0  0  0  0
   -5.9856  -32.3434  -14.7335 O   0  0  0  0  0  0  0  0  0  0  0  0
   -3.3524  -31.4284  -15.3853 O   0  0  0  0  0  0  0  0  0  0  0  0
   -6.9744  -35.2335  -14.7511 C   0  0  0  0  0  0  0  0  0  0  0  0
   -7.4077  -34.3959  -15.9687 C   0  0  1  0  0  0  0  0  0  0  0  0
   -8.3960  -35.2246  -16.7072 C   0  0  2  0  0  0  0  0  0  0  0  0
   -7.6083  -35.8033  -17.8454 C   0  0  1  0  0  0  0  0  0  0  0  0
   -6.2438  -35.2190  -17.6989 C   0  0  1  0  0  0  0  0  0  0  0  0
   -5.7787  -34.5459  -18.9970 C   0  0  0  0  0  0  0  0  0  0  0  0
   -5.6906  -34.9040  -14.3588 O   0  0  0  0  0  0  0  0  0  0  0  0
   -6.2716  -34.2484  -16.7340 O   0  0  0  0  0  0  0  0  0  0  0  0
   -9.4781  -34.5590  -17.2073 O   0  0  0  0  0  0  0  0  0  0  0  0
   -7.5033  -37.1869  -17.7488 O   0  0  0  0  0  0  0  0  0  0  0  0
   -4.6822  -33.7625  -18.6828 O   0  0  0  0  0  0  0  0  0  0  0  0
  1  2  1  0
  1  7  1  6
  1 11  1  0
  2  3  1  0
  2  8  1  6
  3  4  1  0
  3  9  1  1
  5  4  1  0
  4 10  1  6
  5  6  1  1
 11  5  1  0
  6 12  1  0
 14  7  1  0
 14 13  1  1
 13 19  1  0
 14 15  1  0
 20 14  1  0
 16 15  1  0
 15 21  1  6
 17 16  1  0
 16 22  1  1
 17 18  1  6
 17 20  1  0
 23 18  1  0
M  END
$$$$
