
     RDKit          3D

 23 24  0  0  0  0  0  0  0  0999 V2000
   -6.9348  -32.6885  -14.2729 C   0  0  1  0  0  0  0  0  0  0  0  0
   -7.5637  -31.5089  -13.5882 C   0  0  1  0  0  0  0  0  0  0  0  0
   -6.9737  -30.2047  -14.0870 C   0  0  2  0  0  0  0  0  0  0  0  0
   -7.2242  -30.2109  -15.5779 C   0  0  1  0  0  0  0  0  0  0  0  0
   -6.5010  -31.3693  -16.1637 C   0  0  1  0  0  0  0  0  0  0  0  0
   -5.1931  -30.8326  -16.7639 C   0  0  0  0  0  0  0  0  0  0  0  0
   -7.8498  -33.6902  -14.5657 O   0  0  0  0  0  0  0  0  0  0  0  0
   -8.9414  -31.4518  -13.7783 O   0  0  0  0  0  0  0  0  0  0  0  0
   -5.6110  -30.2291  -13.8001 O   0  0  0  0  0  0  0  0  0  0  0  0
   -8.5870  -30.3907  -15.7730 O   0  0  0  0  0  0  0  0  0  0  0  0
   -6.2378  -32.4185  -15.4034 O   0  0  0  0  0  0  0  0  0  0  0  0
   -4.4426  -31.8512  -17.3180 O   0  0  0  0  0  0  0  0  0  0  0  0
   -6.9294  -35.6647  -13.7453 C   0  0  0  0  0  0  0  0  0  0  0  0
   -7.2884  -34.8630  -15.0102 C   0  0  1  0  0  0  0  0  0  0  0  0
   -8.1855  -35.7371  -15.8102 C   0  0  2  0  0  0  0  0  0  0  0  0
   -7.2890  -36.3080  -16.8691 C   0  0  1  0  0  0  0  0  0  0  0  0
   -5.9606  -35.6755  -16.6236 C   0  0  1  0  0  0  0  0  0  0  0  0
   -5.4129  -35.0090  -17.8926 C   0  0  0  0  0  0  0  0  0  0  0  0
   -7.7900  -35.3590  -12.7079 O   0  0  0  0  0  0  0  0  0  0  0  0
   -6.0988  -34.6901  -15.6833 O   0  0  0  0  0  0  0  0  0  0  0  0
   -9.2440  -35.1169  -16.4096 O   0  0  0  0  0  0  0  0  0  0  0  0
   -7.1476  -37.6854  -16.7372 O   0  0  0  0  0  0  0  0  0  0  0  0
   -4.2504  -34.3468  -17.5389 O   0  0  0  0  0  0  0  0  0  0  0  0
  1  2  1  0
  1  7  1  6
  1 11  1  0
  2  3  1  0
  2  8  1  6
  3  4  1  0
  3  9  1  6
  5  4  1  0
  4 10  1  1
  5  6  1  1
 11  5  1  0
  6 12  1  0
 14  7  1  0
 14 13  1  1
 13 19  1  0
 14 15  1  0
 20 14  1  0
 16 15  1  0
 15 21  1  6
 17 16  1  0
 16 22  1  1
 17 18  1  6
 17 20  1  0
 23 18  1  0
M  END
$$$$
