
     RDKit          3D

 23 24  0  0  0  0  0  0  0  0999 V2000
   -6.8640  -33.0724  -14.6995 C   0  0  1  0  0  0  0  0  0  0  0  0
   -6.3836  -34.2638  -13.9214 C   0  0  1  0  0  0  0  0  0  0  0  0
   -6.3866  -35.5161  -14.7756 C   0  0  2  0  0  0  0  0  0  0  0  0
   -5.4890  -35.1885  -15.9472 C   0  0  1  0  0  0  0  0  0  0  0  0
   -6.0916  -34.0496  -16.6875 C   0  0  1  0  0  0  0  0  0  0  0  0
   -6.8313  -34.6354  -17.8993 C   0  0  0  0  0  0  0  0  0  0  0  0
   -6.1536  -31.9169  -14.4056 O   0  0  0  0  0  0  0  0  0  0  0  0
   -5.0953  -34.0931  -13.4228 O   0  0  0  0  0  0  0  0  0  0  0  0
   -7.6993  -35.7351  -15.1863 O   0  0  0  0  0  0  0  0  0  0  0  0
   -4.2618  -34.7887  -15.4357 O   0  0  0  0  0  0  0  0  0  0  0  0
   -6.8905  -33.2129  -16.0472 O   0  0  0  0  0  0  0  0  0  0  0  0
   -6.9455  -33.7042  -18.9130 O   0  0  0  0  0  0  0  0  0  0  0  0
   -6.3580  -30.2424  -12.8013 C   0  0  0  0  0  0  0  0  0  0  0  0
   -6.9356  -30.8282  -14.1032 C   0  0  1  0  0  0  0  0  0  0  0  0
   -6.9065  -29.7252  -15.0989 C   0  0  2  0  0  0  0  0  0  0  0  0
   -8.3199  -29.2227  -15.1277 C   0  0  1  0  0  0  0  0  0  0  0  0
   -9.0584  -30.1117  -14.1848 C   0  0  1  0  0  0  0  0  0  0  0  0
  -10.2944  -30.7323  -14.8494 C   0  0  0  0  0  0  0  0  0  0  0  0
   -6.2560  -31.2165  -11.8260 O   0  0  0  0  0  0  0  0  0  0  0  0
   -8.2439  -31.1469  -13.8117 O   0  0  0  0  0  0  0  0  0  0  0  0
   -6.5316  -30.0734  -16.3647 O   0  0  0  0  0  0  0  0  0  0  0  0
   -8.4124  -27.9164  -14.6590 O   0  0  0  0  0  0  0  0  0  0  0  0
  -11.0095  -31.3826  -13.8592 O   0  0  0  0  0  0  0  0  0  0  0  0
  1  2  1  0
  1  7  1  6
  1 11  1  0
  2  3  1  0
  2  8  1  6
  3  4  1  0
  3  9  1  6
  5  4  1  0
  4 10  1  1
  5  6  1  6
 11  5  1  0
  6 12  1  0
 14  7  1  0
 14 13  1  1
 13 19  1  0
 14 15  1  0
 20 14  1  0
 16 15  1  0
 15 21  1  6
 17 16  1  0
 16 22  1  1
 17 18  1  6
 17 20  1  0
 23 18  1  0
M  END
$$$$
