
     RDKit          3D

 23 24  0  0  0  0  0  0  0  0999 V2000
   -7.7650  -33.3284  -15.2225 C   0  0  1  0  0  0  0  0  0  0  0  0
   -7.9849  -34.5986  -14.4518 C   0  0  1  0  0  0  0  0  0  0  0  0
   -7.2157  -35.7529  -15.0632 C   0  0  2  0  0  0  0  0  0  0  0  0
   -5.7710  -35.3079  -15.0473 C   0  0  1  0  0  0  0  0  0  0  0  0
   -5.6516  -34.0933  -15.8950 C   0  0  1  0  0  0  0  0  0  0  0  0
   -5.1079  -34.5425  -17.2593 C   0  0  0  0  0  0  0  0  0  0  0  0
   -7.6520  -32.2149  -14.4017 O   0  0  0  0  0  0  0  0  0  0  0  0
   -7.5984  -34.4895  -13.1191 O   0  0  0  0  0  0  0  0  0  0  0  0
   -7.6823  -35.9193  -16.3649 O   0  0  0  0  0  0  0  0  0  0  0  0
   -5.4505  -34.9720  -13.7388 O   0  0  0  0  0  0  0  0  0  0  0  0
   -6.7122  -33.3247  -16.0759 O   0  0  0  0  0  0  0  0  0  0  0  0
   -6.0015  -34.2552  -18.2726 O   0  0  0  0  0  0  0  0  0  0  0  0
   -8.6220  -30.1454  -14.8435 C   0  0  0  0  0  0  0  0  0  0  0  0
   -7.3893  -31.0412  -15.0662 C   0  0  1  0  0  0  0  0  0  0  0  0
   -6.2236  -30.2694  -14.5619 C   0  0  2  0  0  0  0  0  0  0  0  0
   -5.5899  -29.7136  -15.8030 C   0  0  1  0  0  0  0  0  0  0  0  0
   -6.4123  -30.2537  -16.9241 C   0  0  1  0  0  0  0  0  0  0  0  0
   -5.5409  -30.9635  -17.9687 C   0  0  0  0  0  0  0  0  0  0  0  0
   -9.2594  -30.4703  -13.6608 O   0  0  0  0  0  0  0  0  0  0  0  0
   -7.2852  -31.1866  -16.4323 O   0  0  0  0  0  0  0  0  0  0  0  0
   -5.2904  -30.9836  -13.8668 O   0  0  0  0  0  0  0  0  0  0  0  0
   -5.6598  -28.3249  -15.8401 O   0  0  0  0  0  0  0  0  0  0  0  0
   -6.1101  -32.2027  -18.2041 O   0  0  0  0  0  0  0  0  0  0  0  0
  1  2  1  0
  1  7  1  1
  1 11  1  0
  2  3  1  0
  2  8  1  1
  3  4  1  0
  3  9  1  6
  5  4  1  0
  4 10  1  1
  5  6  1  6
 11  5  1  0
  6 12  1  0
 14  7  1  0
 14 13  1  6
 13 19  1  0
 14 15  1  0
 20 14  1  0
 16 15  1  0
 15 21  1  6
 17 16  1  0
 16 22  1  1
 17 18  1  6
 17 20  1  0
 23 18  1  0
M  END
$$$$
