
     RDKit          3D

 23 24  0  0  0  0  0  0  0  0999 V2000
   -7.3643  -32.8638  -15.5190 C   0  0  1  0  0  0  0  0  0  0  0  0
   -7.7246  -32.4491  -14.1212 C   0  0  1  0  0  0  0  0  0  0  0  0
   -7.5347  -33.5912  -13.1426 C   0  0  2  0  0  0  0  0  0  0  0  0
   -6.0792  -33.9778  -13.2756 C   0  0  1  0  0  0  0  0  0  0  0  0
   -5.8486  -34.4399  -14.6689 C   0  0  1  0  0  0  0  0  0  0  0  0
   -5.8671  -35.9754  -14.6477 C   0  0  0  0  0  0  0  0  0  0  0  0
   -6.7020  -31.8665  -16.2211 O   0  0  0  0  0  0  0  0  0  0  0  0
   -6.9660  -31.3729  -13.6700 O   0  0  0  0  0  0  0  0  0  0  0  0
   -8.3747  -34.6267  -13.5451 O   0  0  0  0  0  0  0  0  0  0  0  0
   -5.3206  -32.8365  -13.0528 O   0  0  0  0  0  0  0  0  0  0  0  0
   -6.6407  -34.0040  -15.6337 O   0  0  0  0  0  0  0  0  0  0  0  0
   -5.1925  -36.4983  -15.7337 O   0  0  0  0  0  0  0  0  0  0  0  0
   -7.8072  -31.6172  -18.2547 C   0  0  0  0  0  0  0  0  0  0  0  0
   -6.5318  -32.1284  -17.5593 C   0  0  1  0  0  0  0  0  0  0  0  0
   -5.3975  -31.4209  -18.2088 C   0  0  2  0  0  0  0  0  0  0  0  0
   -4.8399  -32.4302  -19.1686 C   0  0  1  0  0  0  0  0  0  0  0  0
   -5.6660  -33.6537  -18.9558 C   0  0  1  0  0  0  0  0  0  0  0  0
   -4.7896  -34.8807  -18.6714 C   0  0  0  0  0  0  0  0  0  0  0  0
   -8.8923  -32.4133  -17.9399 O   0  0  0  0  0  0  0  0  0  0  0  0
   -6.4651  -33.4714  -17.8592 O   0  0  0  0  0  0  0  0  0  0  0  0
   -4.4008  -31.0001  -17.3759 O   0  0  0  0  0  0  0  0  0  0  0  0
   -4.9932  -32.0245  -20.4902 O   0  0  0  0  0  0  0  0  0  0  0  0
   -5.6076  -35.9945  -18.7432 O   0  0  0  0  0  0  0  0  0  0  0  0
  1  2  1  0
  1  7  1  1
  1 11  1  0
  2  3  1  0
  2  8  1  1
  3  4  1  0
  3  9  1  6
  5  4  1  0
  4 10  1  6
  5  6  1  1
 11  5  1  0
  6 12  1  0
 14  7  1  0
 14 13  1  6
 13 19  1  0
 14 15  1  0
 20 14  1  0
 16 15  1  0
 15 21  1  1
 17 16  1  0
 16 22  1  6
 17 18  1  1
 17 20  1  0
 23 18  1  0
M  END
$$$$
