
     RDKit          3D

 23 24  0  0  0  0  0  0  0  0999 V2000
   -6.2818  -32.6804  -15.1502 C   0  0  1  0  0  0  0  0  0  0  0  0
   -6.8036  -31.2810  -14.9924 C   0  0  1  0  0  0  0  0  0  0  0  0
   -7.4682  -30.7952  -16.2653 C   0  0  2  0  0  0  0  0  0  0  0  0
   -8.5678  -31.7969  -16.5354 C   0  0  1  0  0  0  0  0  0  0  0  0
   -7.9400  -33.1268  -16.7486 C   0  0  1  0  0  0  0  0  0  0  0  0
   -7.8693  -33.3585  -18.2652 C   0  0  0  0  0  0  0  0  0  0  0  0
   -6.4671  -33.4542  -14.0131 O   0  0  0  0  0  0  0  0  0  0  0  0
   -7.7306  -31.1689  -13.9602 O   0  0  0  0  0  0  0  0  0  0  0  0
   -6.5042  -30.8149  -17.2704 O   0  0  0  0  0  0  0  0  0  0  0  0
   -9.3670  -31.8575  -15.4018 O   0  0  0  0  0  0  0  0  0  0  0  0
   -6.7588  -33.3776  -16.2100 O   0  0  0  0  0  0  0  0  0  0  0  0
   -6.6997  -34.0029  -18.6183 O   0  0  0  0  0  0  0  0  0  0  0  0
   -5.2804  -34.8727  -12.5992 C   0  0  0  0  0  0  0  0  0  0  0  0
   -5.8082  -34.6600  -14.0303 C   0  0  1  0  0  0  0  0  0  0  0  0
   -6.6522  -35.8442  -14.3375 C   0  0  2  0  0  0  0  0  0  0  0  0
   -5.7682  -36.7121  -15.1837 C   0  0  1  0  0  0  0  0  0  0  0  0
   -4.5057  -35.9328  -15.3377 C   0  0  1  0  0  0  0  0  0  0  0  0
   -4.1195  -35.7753  -16.8144 C   0  0  0  0  0  0  0  0  0  0  0  0
   -4.7833  -33.6932  -12.0775 O   0  0  0  0  0  0  0  0  0  0  0  0
   -4.6917  -34.6722  -14.8373 O   0  0  0  0  0  0  0  0  0  0  0  0
   -7.8100  -35.5922  -15.0158 O   0  0  0  0  0  0  0  0  0  0  0  0
   -5.4654  -37.9128  -14.5500 O   0  0  0  0  0  0  0  0  0  0  0  0
   -2.8884  -35.1443  -16.8513 O   0  0  0  0  0  0  0  0  0  0  0  0
  1  2  1  0
  1  7  1  1
  1 11  1  0
  2  3  1  0
  2  8  1  1
  3  4  1  0
  3  9  1  6
  5  4  1  0
  4 10  1  1
  5  6  1  6
 11  5  1  0
  6 12  1  0
 14  7  1  0
 14 13  1  1
 13 19  1  0
 14 15  1  0
 20 14  1  0
 16 15  1  0
 15 21  1  6
 17 16  1  0
 16 22  1  1
 17 18  1  6
 17 20  1  0
 23 18  1  0
M  END
$$$$
