
     RDKit          3D

 23 24  0  0  0  0  0  0  0  0999 V2000
   -7.2585  -32.5639  -15.6011 C   0  0  1  0  0  0  0  0  0  0  0  0
   -7.4970  -31.8609  -14.2956 C   0  0  1  0  0  0  0  0  0  0  0  0
   -7.3919  -32.8207  -13.1269 C   0  0  2  0  0  0  0  0  0  0  0  0
   -5.9998  -33.4019  -13.2265 C   0  0  1  0  0  0  0  0  0  0  0  0
   -5.8953  -34.1344  -14.5152 C   0  0  1  0  0  0  0  0  0  0  0  0
   -6.0910  -35.6263  -14.2075 C   0  0  0  0  0  0  0  0  0  0  0  0
   -6.5211  -31.8005  -16.4954 O   0  0  0  0  0  0  0  0  0  0  0  0
   -6.5965  -30.8228  -14.0746 O   0  0  0  0  0  0  0  0  0  0  0  0
   -8.3658  -33.8001  -13.3054 O   0  0  0  0  0  0  0  0  0  0  0  0
   -5.1033  -32.3418  -13.2420 O   0  0  0  0  0  0  0  0  0  0  0  0
   -6.6791  -33.7866  -15.5216 O   0  0  0  0  0  0  0  0  0  0  0  0
   -5.5416  -36.4170  -15.1977 O   0  0  0  0  0  0  0  0  0  0  0  0
   -7.2414  -31.4625  -18.6831 C   0  0  0  0  0  0  0  0  0  0  0  0
   -6.3987  -32.3504  -17.7487 C   0  0  1  0  0  0  0  0  0  0  0  0
   -5.0238  -32.3528  -18.3132 C   0  0  2  0  0  0  0  0  0  0  0  0
   -4.9309  -33.6612  -19.0413 C   0  0  1  0  0  0  0  0  0  0  0  0
   -6.2418  -34.3281  -18.7929 C   0  0  1  0  0  0  0  0  0  0  0  0
   -6.0542  -35.7417  -18.2262 C   0  0  0  0  0  0  0  0  0  0  0  0
   -8.3185  -30.9201  -18.0076 O   0  0  0  0  0  0  0  0  0  0  0  0
   -6.9400  -33.6127  -17.8576 O   0  0  0  0  0  0  0  0  0  0  0  0
   -4.0061  -32.2745  -17.4063 O   0  0  0  0  0  0  0  0  0  0  0  0
   -4.7869  -33.4789  -20.4128 O   0  0  0  0  0  0  0  0  0  0  0  0
   -7.2986  -36.1880  -17.8173 O   0  0  0  0  0  0  0  0  0  0  0  0
  1  2  1  0
  1  7  1  6
  1 11  1  0
  2  3  1  0
  2  8  1  1
  3  4  1  0
  3  9  1  6
  5  4  1  0
  4 10  1  6
  5  6  1  1
 11  5  1  0
  6 12  1  0
 14  7  1  0
 14 13  1  6
 13 19  1  0
 14 15  1  0
 20 14  1  0
 16 15  1  0
 15 21  1  1
 17 16  1  0
 16 22  1  6
 17 18  1  1
 17 20  1  0
 23 18  1  0
M  END
$$$$
