
     RDKit          3D

 23 24  0  0  0  0  0  0  0  0999 V2000
   -6.8953  -32.9561  -14.3326 C   0  0  1  0  0  0  0  0  0  0  0  0
   -7.2774  -31.8676  -13.3709 C   0  0  1  0  0  0  0  0  0  0  0  0
   -6.8007  -30.5129  -13.8560 C   0  0  2  0  0  0  0  0  0  0  0  0
   -7.4432  -30.3390  -15.2134 C   0  0  1  0  0  0  0  0  0  0  0  0
   -6.9430  -31.4184  -16.1038 C   0  0  1  0  0  0  0  0  0  0  0  0
   -5.8279  -30.8136  -16.9696 C   0  0  0  0  0  0  0  0  0  0  0  0
   -7.8878  -33.9148  -14.4806 O   0  0  0  0  0  0  0  0  0  0  0  0
   -8.6527  -31.7876  -13.1724 O   0  0  0  0  0  0  0  0  0  0  0  0
   -5.4126  -30.5721  -13.9542 O   0  0  0  0  0  0  0  0  0  0  0  0
   -8.8134  -30.4936  -15.0513 O   0  0  0  0  0  0  0  0  0  0  0  0
   -6.5196  -32.5518  -15.5705 O   0  0  0  0  0  0  0  0  0  0  0  0
   -4.6151  -31.4267  -16.7224 O   0  0  0  0  0  0  0  0  0  0  0  0
   -8.4846  -36.1143  -14.9553 C   0  0  0  0  0  0  0  0  0  0  0  0
   -7.5686  -34.9379  -15.3407 C   0  0  1  0  0  0  0  0  0  0  0  0
   -7.8294  -34.6676  -16.7787 C   0  0  2  0  0  0  0  0  0  0  0  0
   -6.6787  -35.3197  -17.4868 C   0  0  1  0  0  0  0  0  0  0  0  0
   -5.8221  -35.8673  -16.3953 C   0  0  1  0  0  0  0  0  0  0  0  0
   -4.3698  -35.3903  -16.5282 C   0  0  0  0  0  0  0  0  0  0  0  0
   -8.3427  -36.4308  -13.6173 O   0  0  0  0  0  0  0  0  0  0  0  0
   -6.2833  -35.4107  -15.1900 O   0  0  0  0  0  0  0  0  0  0  0  0
   -7.8855  -33.3516  -17.1381 O   0  0  0  0  0  0  0  0  0  0  0  0
   -7.0980  -36.3786  -18.2854 O   0  0  0  0  0  0  0  0  0  0  0  0
   -3.5814  -36.2707  -15.8084 O   0  0  0  0  0  0  0  0  0  0  0  0
  1  2  1  0
  1  7  1  6
  1 11  1  0
  2  3  1  0
  2  8  1  6
  3  4  1  0
  3  9  1  6
  5  4  1  0
  4 10  1  1
  5  6  1  1
 11  5  1  0
  6 12  1  0
 14  7  1  0
 14 13  1  1
 13 19  1  0
 14 15  1  0
 20 14  1  0
 16 15  1  0
 15 21  1  1
 17 16  1  0
 16 22  1  6
 17 18  1  6
 17 20  1  0
 23 18  1  0
M  END
$$$$
