
     RDKit          3D

 23 24  0  0  0  0  0  0  0  0999 V2000
   -6.1454  -34.2831  -16.1180 C   0  0  1  0  0  0  0  0  0  0  0  0
   -5.9269  -35.7628  -16.2535 C   0  0  1  0  0  0  0  0  0  0  0  0
   -5.4976  -36.3782  -14.9362 C   0  0  2  0  0  0  0  0  0  0  0  0
   -6.6112  -36.0427  -13.9704 C   0  0  1  0  0  0  0  0  0  0  0  0
   -6.6928  -34.5635  -13.8540 C   0  0  1  0  0  0  0  0  0  0  0  0
   -5.9605  -34.1678  -12.5633 C   0  0  0  0  0  0  0  0  0  0  0  0
   -7.2410  -33.8335  -16.8417 O   0  0  0  0  0  0  0  0  0  0  0  0
   -7.0672  -36.4348  -16.6843 O   0  0  0  0  0  0  0  0  0  0  0  0
   -4.3013  -35.7698  -14.5643 O   0  0  0  0  0  0  0  0  0  0  0  0
   -7.7970  -36.5131  -14.5184 O   0  0  0  0  0  0  0  0  0  0  0  0
   -6.2611  -33.8119  -14.8525 O   0  0  0  0  0  0  0  0  0  0  0  0
   -5.6167  -32.8301  -12.5739 O   0  0  0  0  0  0  0  0  0  0  0  0
   -7.5439  -32.4384  -18.6805 C   0  0  0  0  0  0  0  0  0  0  0  0
   -7.1921  -32.5032  -17.1826 C   0  0  1  0  0  0  0  0  0  0  0  0
   -8.1764  -31.6305  -16.4909 C   0  0  2  0  0  0  0  0  0  0  0  0
   -7.4220  -30.3583  -16.2394 C   0  0  1  0  0  0  0  0  0  0  0  0
   -6.0493  -30.6212  -16.7602 C   0  0  1  0  0  0  0  0  0  0  0  0
   -4.9799  -30.3216  -15.7014 C   0  0  0  0  0  0  0  0  0  0  0  0
   -6.7022  -33.2485  -19.4193 O   0  0  0  0  0  0  0  0  0  0  0  0
   -5.9355  -31.9480  -17.0779 O   0  0  0  0  0  0  0  0  0  0  0  0
   -8.6625  -32.1019  -15.3054 O   0  0  0  0  0  0  0  0  0  0  0  0
   -7.9610  -29.2903  -16.9491 O   0  0  0  0  0  0  0  0  0  0  0  0
   -3.8006  -30.9025  -16.1337 O   0  0  0  0  0  0  0  0  0  0  0  0
  1  2  1  0
  1  7  1  6
  1 11  1  0
  2  3  1  0
  2  8  1  1
  3  4  1  0
  3  9  1  1
  5  4  1  0
  4 10  1  6
  5  6  1  1
 11  5  1  0
  6 12  1  0
 14  7  1  0
 14 13  1  6
 13 19  1  0
 14 15  1  0
 20 14  1  0
 16 15  1  0
 15 21  1  1
 17 16  1  0
 16 22  1  6
 17 18  1  1
 17 20  1  0
 23 18  1  0
M  END
$$$$
