
     RDKit          3D

 23 24  0  0  0  0  0  0  0  0999 V2000
   -7.1134  -34.1792  -16.3729 C   0  0  1  0  0  0  0  0  0  0  0  0
   -7.7183  -35.5340  -16.6054 C   0  0  1  0  0  0  0  0  0  0  0  0
   -6.6471  -36.5858  -16.8158 C   0  0  2  0  0  0  0  0  0  0  0  0
   -5.8026  -36.5353  -15.5629 C   0  0  1  0  0  0  0  0  0  0  0  0
   -5.1952  -35.1824  -15.4686 C   0  0  1  0  0  0  0  0  0  0  0  0
   -3.7533  -35.2942  -15.9857 C   0  0  0  0  0  0  0  0  0  0  0  0
   -7.7917  -33.4464  -15.4090 O   0  0  0  0  0  0  0  0  0  0  0  0
   -8.5202  -35.9508  -15.5468 O   0  0  0  0  0  0  0  0  0  0  0  0
   -5.9133  -36.2119  -17.9390 O   0  0  0  0  0  0  0  0  0  0  0  0
   -6.6500  -36.7203  -14.4788 O   0  0  0  0  0  0  0  0  0  0  0  0
   -5.7954  -34.1620  -16.0573 O   0  0  0  0  0  0  0  0  0  0  0  0
   -3.1898  -34.0465  -16.1684 O   0  0  0  0  0  0  0  0  0  0  0  0
   -7.2441  -31.4393  -16.4535 C   0  0  0  0  0  0  0  0  0  0  0  0
   -7.2351  -32.2220  -15.1272 C   0  0  1  0  0  0  0  0  0  0  0  0
   -7.9864  -31.3884  -14.1527 C   0  0  2  0  0  0  0  0  0  0  0  0
   -6.9150  -30.7195  -13.3431 C   0  0  1  0  0  0  0  0  0  0  0  0
   -5.6353  -31.2627  -13.8836 C   0  0  1  0  0  0  0  0  0  0  0  0
   -4.7569  -31.8452  -12.7685 C   0  0  0  0  0  0  0  0  0  0  0  0
   -8.4753  -31.5363  -17.0740 O   0  0  0  0  0  0  0  0  0  0  0  0
   -5.9117  -32.2863  -14.7496 O   0  0  0  0  0  0  0  0  0  0  0  0
   -8.8246  -32.0626  -13.3119 O   0  0  0  0  0  0  0  0  0  0  0  0
   -6.9157  -29.3406  -13.5261 O   0  0  0  0  0  0  0  0  0  0  0  0
   -3.4908  -32.0271  -13.2965 O   0  0  0  0  0  0  0  0  0  0  0  0
  1  2  1  0
  1  7  1  1
  1 11  1  0
  2  3  1  0
  2  8  1  1
  3  4  1  0
  3  9  1  6
  5  4  1  0
  4 10  1  1
  5  6  1  6
 11  5  1  0
  6 12  1  0
 14  7  1  0
 14 13  1  6
 13 19  1  0
 14 15  1  0
 20 14  1  0
 16 15  1  0
 15 21  1  1
 17 16  1  0
 16 22  1  6
 17 18  1  1
 17 20  1  0
 23 18  1  0
M  END
$$$$
