
     RDKit          3D

 23 24  0  0  0  0  0  0  0  0999 V2000
   -6.4723  -32.9834  -14.2911 C   0  0  1  0  0  0  0  0  0  0  0  0
   -6.7777  -31.9053  -13.2911 C   0  0  1  0  0  0  0  0  0  0  0  0
   -6.7303  -30.5320  -13.9312 C   0  0  2  0  0  0  0  0  0  0  0  0
   -7.7461  -30.5901  -15.0494 C   0  0  1  0  0  0  0  0  0  0  0  0
   -7.3116  -31.6322  -16.0156 C   0  0  1  0  0  0  0  0  0  0  0  0
   -6.6226  -30.9107  -17.1833 C   0  0  0  0  0  0  0  0  0  0  0  0
   -7.2585  -34.1140  -14.1190 O   0  0  0  0  0  0  0  0  0  0  0  0
   -8.0314  -32.0579  -12.7060 O   0  0  0  0  0  0  0  0  0  0  0  0
   -5.4409  -30.3484  -14.4246 O   0  0  0  0  0  0  0  0  0  0  0  0
   -8.9590  -30.9748  -14.4939 O   0  0  0  0  0  0  0  0  0  0  0  0
   -6.5427  -32.6225  -15.5956 O   0  0  0  0  0  0  0  0  0  0  0  0
   -6.4899  -31.7438  -18.2769 O   0  0  0  0  0  0  0  0  0  0  0  0
   -7.0490  -36.4223  -13.9021 C   0  0  0  0  0  0  0  0  0  0  0  0
   -6.8416  -35.2123  -14.8319 C   0  0  1  0  0  0  0  0  0  0  0  0
   -7.6170  -35.5042  -16.0658 C   0  0  2  0  0  0  0  0  0  0  0  0
   -6.5811  -35.9717  -17.0453 C   0  0  1  0  0  0  0  0  0  0  0  0
   -5.2872  -35.8612  -16.3114 C   0  0  1  0  0  0  0  0  0  0  0  0
   -4.2610  -35.0397  -17.1030 C   0  0  0  0  0  0  0  0  0  0  0  0
   -6.6299  -36.1332  -12.6171 O   0  0  0  0  0  0  0  0  0  0  0  0
   -5.4961  -35.2052  -15.1281 O   0  0  0  0  0  0  0  0  0  0  0  0
   -8.2978  -34.4512  -16.6061 O   0  0  0  0  0  0  0  0  0  0  0  0
   -6.7699  -37.3036  -17.3989 O   0  0  0  0  0  0  0  0  0  0  0  0
   -3.1300  -34.9260  -16.3138 O   0  0  0  0  0  0  0  0  0  0  0  0
  1  2  1  0
  1  7  1  6
  1 11  1  0
  2  3  1  0
  2  8  1  6
  3  4  1  0
  3  9  1  6
  5  4  1  0
  4 10  1  1
  5  6  1  6
 11  5  1  0
  6 12  1  0
 14  7  1  0
 14 13  1  1
 13 19  1  0
 14 15  1  0
 20 14  1  0
 16 15  1  0
 15 21  1  6
 17 16  1  0
 16 22  1  1
 17 18  1  6
 17 20  1  0
 23 18  1  0
M  END
$$$$
