
     RDKit          3D

 23 24  0  0  0  0  0  0  0  0999 V2000
   -7.3922  -33.7087  -16.0870 C   0  0  1  0  0  0  0  0  0  0  0  0
   -8.1740  -34.8803  -16.6084 C   0  0  1  0  0  0  0  0  0  0  0  0
   -7.2603  -36.0358  -16.9659 C   0  0  2  0  0  0  0  0  0  0  0  0
   -6.5207  -36.3555  -15.6866 C   0  0  1  0  0  0  0  0  0  0  0  0
   -5.7257  -35.1608  -15.3010 C   0  0  1  0  0  0  0  0  0  0  0  0
   -4.2806  -35.4093  -15.7577 C   0  0  0  0  0  0  0  0  0  0  0  0
   -8.0271  -33.0652  -15.0340 O   0  0  0  0  0  0  0  0  0  0  0  0
   -9.1116  -35.3482  -15.6922 O   0  0  0  0  0  0  0  0  0  0  0  0
   -6.3912  -35.5864  -17.9571 O   0  0  0  0  0  0  0  0  0  0  0  0
   -7.4702  -36.5961  -14.7027 O   0  0  0  0  0  0  0  0  0  0  0  0
   -6.1162  -33.9653  -15.7091 O   0  0  0  0  0  0  0  0  0  0  0  0
   -3.4065  -34.5275  -15.1526 O   0  0  0  0  0  0  0  0  0  0  0  0
   -8.5351  -30.8123  -15.3267 C   0  0  0  0  0  0  0  0  0  0  0  0
   -7.5267  -31.8190  -14.7424 C   0  0  1  0  0  0  0  0  0  0  0  0
   -7.4165  -31.4980  -13.2954 C   0  0  2  0  0  0  0  0  0  0  0  0
   -6.1405  -30.7157  -13.1917 C   0  0  1  0  0  0  0  0  0  0  0  0
   -5.5938  -30.6950  -14.5793 C   0  0  1  0  0  0  0  0  0  0  0  0
   -4.1439  -31.1957  -14.6192 C   0  0  0  0  0  0  0  0  0  0  0  0
   -8.3898  -30.7093  -16.6974 O   0  0  0  0  0  0  0  0  0  0  0  0
   -6.3297  -31.5406  -15.3651 O   0  0  0  0  0  0  0  0  0  0  0  0
   -7.3531  -32.5680  -12.4498 O   0  0  0  0  0  0  0  0  0  0  0  0
   -6.3714  -29.4030  -12.7939 O   0  0  0  0  0  0  0  0  0  0  0  0
   -3.6968  -31.0542  -15.9211 O   0  0  0  0  0  0  0  0  0  0  0  0
  1  2  1  0
  1  7  1  1
  1 11  1  0
  2  3  1  0
  2  8  1  1
  3  4  1  0
  3  9  1  6
  5  4  1  0
  4 10  1  1
  5  6  1  6
 11  5  1  0
  6 12  1  0
 14  7  1  0
 14 13  1  6
 13 19  1  0
 14 15  1  0
 20 14  1  0
 16 15  1  0
 15 21  1  1
 17 16  1  0
 16 22  1  6
 17 18  1  1
 17 20  1  0
 23 18  1  0
M  END
$$$$
