
     RDKit          3D

 23 24  0  0  0  0  0  0  0  0999 V2000
   -6.7525  -32.8388  -14.4433 C   0  0  1  0  0  0  0  0  0  0  0  0
   -7.2856  -31.8485  -13.4479 C   0  0  1  0  0  0  0  0  0  0  0  0
   -6.5908  -30.5077  -13.5800 C   0  0  2  0  0  0  0  0  0  0  0  0
   -6.8373  -30.0824  -15.0096 C   0  0  1  0  0  0  0  0  0  0  0  0
   -6.2088  -31.0871  -15.9061 C   0  0  1  0  0  0  0  0  0  0  0  0
   -4.8603  -30.5099  -16.3613 C   0  0  0  0  0  0  0  0  0  0  0  0
   -7.7448  -33.6458  -14.9822 O   0  0  0  0  0  0  0  0  0  0  0  0
   -8.6537  -31.6333  -13.5874 O   0  0  0  0  0  0  0  0  0  0  0  0
   -5.2353  -30.7171  -13.3382 O   0  0  0  0  0  0  0  0  0  0  0  0
   -8.2097  -30.0940  -15.2195 O   0  0  0  0  0  0  0  0  0  0  0  0
   -6.0331  -32.3227  -15.4694 O   0  0  0  0  0  0  0  0  0  0  0  0
   -4.2311  -31.3547  -17.2548 O   0  0  0  0  0  0  0  0  0  0  0  0
   -7.6076  -35.9363  -14.5901 C   0  0  0  0  0  0  0  0  0  0  0  0
   -7.2842  -34.7970  -15.5745 C   0  0  1  0  0  0  0  0  0  0  0  0
   -7.9414  -35.1623  -16.8565 C   0  0  2  0  0  0  0  0  0  0  0  0
   -6.8252  -35.7121  -17.6947 C   0  0  1  0  0  0  0  0  0  0  0  0
   -5.6071  -35.5703  -16.8456 C   0  0  1  0  0  0  0  0  0  0  0  0
   -4.4909  -34.8212  -17.5855 C   0  0  0  0  0  0  0  0  0  0  0  0
   -6.5254  -36.7838  -14.4452 O   0  0  0  0  0  0  0  0  0  0  0  0
   -5.9163  -34.8307  -15.7359 O   0  0  0  0  0  0  0  0  0  0  0  0
   -8.5431  -34.1392  -17.5315 O   0  0  0  0  0  0  0  0  0  0  0  0
   -7.0075  -37.0624  -17.9744 O   0  0  0  0  0  0  0  0  0  0  0  0
   -3.3805  -34.8202  -16.7597 O   0  0  0  0  0  0  0  0  0  0  0  0
  1  2  1  0
  1  7  1  6
  1 11  1  0
  2  3  1  0
  2  8  1  6
  3  4  1  0
  3  9  1  6
  5  4  1  0
  4 10  1  6
  5  6  1  1
 11  5  1  0
  6 12  1  0
 14  7  1  0
 14 13  1  1
 13 19  1  0
 14 15  1  0
 20 14  1  0
 16 15  1  0
 15 21  1  6
 17 16  1  0
 16 22  1  1
 17 18  1  6
 17 20  1  0
 23 18  1  0
M  END
$$$$
