
     RDKit          3D

 28 30  0  0  0  0  0  0  0  0999 V2000
  -33.6401   44.4052    8.1604 C   0  0  0  0  0  0  0  0  0  0  0  0
  -33.4540   45.8993    8.2981 C   0  0  0  0  0  0  0  0  0  0  0  0
  -31.1490   45.8687    7.4912 C   0  0  0  0  0  0  0  0  0  0  0  0
  -29.6863   46.0694   11.1864 C   0  0  0  0  0  0  0  0  0  0  0  0
  -29.0554   45.3164   12.1789 C   0  0  0  0  0  0  0  0  0  0  0  0
  -30.5536   44.0274    5.9586 C   0  0  0  0  0  0  0  0  0  0  0  0
  -31.7130   44.7729    6.5736 C   0  0  1  0  0  0  0  0  0  0  0  0
  -32.5040   43.8194    7.4096 C   0  0  0  0  0  0  0  0  0  0  0  0
  -32.1313   46.3626    8.3419 N   0  0  0  0  0  0  0  0  0  0  0  0
  -31.7464   47.1533    9.7547 S   0  0  2  0  0  6  0  0  0  0  0  0
  -33.0075   47.8487   10.2677 O   0  0  0  0  0  0  0  0  0  0  0  0
  -30.8058   48.3048    9.4098 O   0  0  0  0  0  0  0  0  0  0  0  0
  -31.0528   46.1762   11.0319 C   0  0  0  0  0  0  0  0  0  0  0  0
  -27.6425   45.2955   12.2216 N   0  0  0  0  0  0  0  0  0  0  0  0
  -26.8097   45.9352   11.2976 C   0  0  0  0  0  0  0  0  0  0  0  0
  -27.2465   46.4480   10.2707 O   0  0  0  0  0  0  0  0  0  0  0  0
  -25.3545   45.9954   11.5672 C   0  0  0  0  0  0  0  0  0  0  0  0
  -24.5550   45.2559   10.6447 N   0  0  0  0  0  0  0  0  0  0  0  0
  -24.1637   43.9025   10.7910 C   0  0  0  0  0  0  0  0  0  0  0  0
  -24.4285   43.0715   11.7087 O   0  0  0  0  0  0  0  0  0  0  0  0
  -23.3072   43.5064    9.6171 C   0  0  0  0  0  0  0  0  0  0  0  0
  -23.2727   44.6827    8.7929 N   0  0  0  0  0  0  0  0  0  0  0  0
  -24.0064   45.7293    9.4188 C   0  0  0  0  0  0  0  0  0  0  0  0
  -24.1837   46.9137    9.0080 O   0  0  0  0  0  0  0  0  0  0  0  0
  -29.8967   44.6553   13.0349 C   0  0  0  0  0  0  0  0  0  0  0  0
  -31.2724   44.7396   12.9095 C   0  0  0  0  0  0  0  0  0  0  0  0
  -31.8656   45.5082   11.8969 C   0  0  0  0  0  0  0  0  0  0  0  0
  -33.7808   45.5760   11.7762 Br  0  0  0  0  0  0  0  0  0  0  0  0
  2  1  1  0
  1  8  1  0
  9  2  1  0
  3  7  1  0
  9  3  1  0
  4  5  2  0
 13  4  1  0
  5 14  1  0
  5 25  1  0
  7  6  1  1
  7  8  1  0
 10  9  1  6
 10 11  2  0
 10 12  2  0
 10 13  1  0
 13 27  2  0
 14 15  1  0
 15 16  2  0
 15 17  1  0
 17 18  1  0
 18 19  1  0
 18 23  1  0
 19 20  2  0
 19 21  1  0
 21 22  1  0
 22 23  1  0
 23 24  2  0
 25 26  2  0
 26 27  1  0
 27 28  1  0
M  END
$$$$
