
     RDKit          3D

 28 30  0  0  0  0  0  0  0  0999 V2000
  -31.7061   50.9173   11.5685 C   0  0  0  0  0  0  0  0  0  0  0  0
  -31.4680   49.8228   10.5530 C   0  0  0  0  0  0  0  0  0  0  0  0
  -33.8246   49.1985   10.4052 C   0  0  0  0  0  0  0  0  0  0  0  0
  -29.5886   46.3726    9.8355 C   0  0  0  0  0  0  0  0  0  0  0  0
  -28.6987   45.7618    8.9494 C   0  0  0  0  0  0  0  0  0  0  0  0
  -35.4588   50.9779   10.9119 C   0  0  0  0  0  0  0  0  0  0  0  0
  -34.0131   50.7148   10.5668 C   0  0  1  0  0  0  0  0  0  0  0  0
  -33.1593   51.1773   11.7030 C   0  0  0  0  0  0  0  0  0  0  0  0
  -32.4770   48.8574   10.4269 N   0  0  0  0  0  0  0  0  0  0  0  0
  -31.9727   47.3125   10.7848 S   0  0  2  0  0  6  0  0  0  0  0  0
  -33.2135   46.4523   11.0252 O   0  0  0  0  0  0  0  0  0  0  0  0
  -31.2790   47.3456   12.1440 O   0  0  0  0  0  0  0  0  0  0  0  0
  -30.9385   46.5359    9.6040 C   0  0  0  0  0  0  0  0  0  0  0  0
  -27.3368   45.6610    9.3151 N   0  0  0  0  0  0  0  0  0  0  0  0
  -26.8168   46.0416   10.5565 C   0  0  0  0  0  0  0  0  0  0  0  0
  -27.5296   46.4746   11.4580 O   0  0  0  0  0  0  0  0  0  0  0  0
  -25.3593   45.9183   10.7903 C   0  0  0  0  0  0  0  0  0  0  0  0
  -24.8628   44.5825   10.7122 N   0  0  0  0  0  0  0  0  0  0  0  0
  -24.0508   44.0626    9.6746 C   0  0  0  0  0  0  0  0  0  0  0  0
  -23.5850   44.6283    8.6423 O   0  0  0  0  0  0  0  0  0  0  0  0
  -23.7649   42.6101    9.9519 C   0  0  0  0  0  0  0  0  0  0  0  0
  -24.4173   42.3555   11.2065 N   0  0  0  0  0  0  0  0  0  0  0  0
  -25.0845   43.5325   11.6482 C   0  0  0  0  0  0  0  0  0  0  0  0
  -25.7801   43.6908   12.6942 O   0  0  0  0  0  0  0  0  0  0  0  0
  -29.2545   45.3095    7.7814 C   0  0  0  0  0  0  0  0  0  0  0  0
  -30.6047   45.4565    7.5157 C   0  0  0  0  0  0  0  0  0  0  0  0
  -31.4644   46.0769    8.4344 C   0  0  0  0  0  0  0  0  0  0  0  0
  -33.3262   46.2536    7.9992 Br  0  0  0  0  0  0  0  0  0  0  0  0
  2  1  1  0
  1  8  1  0
  9  2  1  0
  3  7  1  0
  9  3  1  0
  4  5  2  0
 13  4  1  0
  5 14  1  0
  5 25  1  0
  7  6  1  1
  7  8  1  0
 10  9  1  6
 10 11  2  0
 10 12  2  0
 10 13  1  0
 13 27  2  0
 14 15  1  0
 15 16  2  0
 15 17  1  0
 17 18  1  0
 18 19  1  0
 18 23  1  0
 19 20  2  0
 19 21  1  0
 21 22  1  0
 22 23  1  0
 23 24  2  0
 25 26  2  0
 26 27  1  0
 27 28  1  0
M  END
$$$$
