
     RDKit          3D

 28 30  0  0  0  0  0  0  0  0999 V2000
  -30.1006   49.1587    5.8793 C   0  0  0  0  0  0  0  0  0  0  0  0
  -30.9747   48.0282    6.3729 C   0  0  0  0  0  0  0  0  0  0  0  0
  -32.8611   49.4821    6.9138 C   0  0  0  0  0  0  0  0  0  0  0  0
  -30.0298   45.9564    9.4534 C   0  0  0  0  0  0  0  0  0  0  0  0
  -29.3814   44.7280    9.5968 C   0  0  0  0  0  0  0  0  0  0  0  0
  -33.0371   51.5716    5.6111 C   0  0  0  0  0  0  0  0  0  0  0  0
  -32.3817   50.2125    5.6498 C   0  0  1  0  0  0  0  0  0  0  0  0
  -30.9019   50.3987    5.7459 C   0  0  0  0  0  0  0  0  0  0  0  0
  -32.0538   48.3856    7.1937 N   0  0  0  0  0  0  0  0  0  0  0  0
  -31.9856   47.7171    8.7162 S   0  0  2  0  0  6  0  0  0  0  0  0
  -33.4066   47.6714    9.2781 O   0  0  0  0  0  0  0  0  0  0  0  0
  -31.2597   48.6999    9.6310 O   0  0  0  0  0  0  0  0  0  0  0  0
  -31.2529   46.1313    8.8402 C   0  0  0  0  0  0  0  0  0  0  0  0
  -28.1274   44.6931   10.2487 N   0  0  0  0  0  0  0  0  0  0  0  0
  -27.4234   45.8226   10.6788 C   0  0  0  0  0  0  0  0  0  0  0  0
  -27.7711   46.9618   10.3796 O   0  0  0  0  0  0  0  0  0  0  0  0
  -26.2197   45.6377   11.5220 C   0  0  0  0  0  0  0  0  0  0  0  0
  -25.0915   45.1073   10.8272 N   0  0  0  0  0  0  0  0  0  0  0  0
  -24.4650   45.6938    9.7005 C   0  0  0  0  0  0  0  0  0  0  0  0
  -24.7279   46.7711    9.0897 O   0  0  0  0  0  0  0  0  0  0  0  0
  -23.3296   44.8116    9.2518 C   0  0  0  0  0  0  0  0  0  0  0  0
  -23.3257   43.7321   10.2000 N   0  0  0  0  0  0  0  0  0  0  0  0
  -24.3897   43.9055   11.1292 C   0  0  0  0  0  0  0  0  0  0  0  0
  -24.7163   43.1522   12.0930 O   0  0  0  0  0  0  0  0  0  0  0  0
  -30.0479   43.6505    9.0750 C   0  0  0  0  0  0  0  0  0  0  0  0
  -31.2764   43.7889    8.4529 C   0  0  0  0  0  0  0  0  0  0  0  0
  -31.8934   45.0428    8.3301 C   0  0  0  0  0  0  0  0  0  0  0  0
  -33.5953   45.1642    7.4495 Br  0  0  0  0  0  0  0  0  0  0  0  0
  2  1  1  0
  1  8  1  0
  9  2  1  0
  3  7  1  0
  9  3  1  0
  4  5  2  0
 13  4  1  0
  5 14  1  0
  5 25  1  0
  7  6  1  1
  7  8  1  0
 10  9  1  6
 10 11  2  0
 10 12  2  0
 10 13  1  0
 13 27  2  0
 14 15  1  0
 15 16  2  0
 15 17  1  0
 17 18  1  0
 18 19  1  0
 18 23  1  0
 19 20  2  0
 19 21  1  0
 21 22  1  0
 22 23  1  0
 23 24  2  0
 25 26  2  0
 26 27  1  0
 27 28  1  0
M  END
$$$$
