
     RDKit          3D

 28 30  0  0  0  0  0  0  0  0999 V2000
  -31.2844   43.3268    7.4776 C   0  0  0  0  0  0  0  0  0  0  0  0
  -32.2441   44.3541    8.0342 C   0  0  0  0  0  0  0  0  0  0  0  0
  -31.7610   46.0082    6.3035 C   0  0  0  0  0  0  0  0  0  0  0  0
  -29.8040   46.1280   10.7394 C   0  0  0  0  0  0  0  0  0  0  0  0
  -29.2585   45.5871   11.9057 C   0  0  0  0  0  0  0  0  0  0  0  0
  -30.9996   45.1220    4.1289 C   0  0  0  0  0  0  0  0  0  0  0  0
  -31.6697   44.7483    5.4287 C   0  0  1  0  0  0  0  0  0  0  0  0
  -30.8159   43.7453    6.1349 C   0  0  0  0  0  0  0  0  0  0  0  0
  -32.0467   45.6802    7.6238 N   0  0  0  0  0  0  0  0  0  0  0  0
  -31.7115   46.7244    8.8755 S   0  0  2  0  0  6  0  0  0  0  0  0
  -32.9732   47.5375    9.1655 O   0  0  0  0  0  0  0  0  0  0  0  0
  -30.7132   47.7623    8.3696 O   0  0  0  0  0  0  0  0  0  0  0  0
  -31.1237   46.0018   10.3585 C   0  0  0  0  0  0  0  0  0  0  0  0
  -27.8859   45.7938   12.1736 N   0  0  0  0  0  0  0  0  0  0  0  0
  -27.0309   46.5727   11.3870 C   0  0  0  0  0  0  0  0  0  0  0  0
  -27.4501   47.3011   10.4916 O   0  0  0  0  0  0  0  0  0  0  0  0
  -25.5730   46.5162   11.6429 C   0  0  0  0  0  0  0  0  0  0  0  0
  -24.8654   45.5987   10.8096 N   0  0  0  0  0  0  0  0  0  0  0  0
  -24.3190   44.3592   11.2238 C   0  0  0  0  0  0  0  0  0  0  0  0
  -24.3424   43.7955   12.3571 O   0  0  0  0  0  0  0  0  0  0  0  0
  -23.6320   43.7065   10.0531 C   0  0  0  0  0  0  0  0  0  0  0  0
  -23.8544   44.6149    8.9623 N   0  0  0  0  0  0  0  0  0  0  0  0
  -24.5779   45.7506    9.4232 C   0  0  0  0  0  0  0  0  0  0  0  0
  -24.9407   46.7675    8.7619 O   0  0  0  0  0  0  0  0  0  0  0  0
  -30.1369   44.8908   12.6937 C   0  0  0  0  0  0  0  0  0  0  0  0
  -31.4675   44.7440   12.3427 C   0  0  0  0  0  0  0  0  0  0  0  0
  -31.9749   45.3041   11.1608 C   0  0  0  0  0  0  0  0  0  0  0  0
  -33.8299   45.0565   10.7311 Br  0  0  0  0  0  0  0  0  0  0  0  0
  2  1  1  0
  1  8  1  0
  9  2  1  0
  3  7  1  0
  9  3  1  0
  4  5  2  0
 13  4  1  0
  5 14  1  0
  5 25  1  0
  7  6  1  6
  7  8  1  0
 10  9  1  6
 10 11  2  0
 10 12  2  0
 10 13  1  0
 13 27  2  0
 14 15  1  0
 15 16  2  0
 15 17  1  0
 17 18  1  0
 18 19  1  0
 18 23  1  0
 19 20  2  0
 19 21  1  0
 21 22  1  0
 22 23  1  0
 23 24  2  0
 25 26  2  0
 26 27  1  0
 27 28  1  0
M  END
$$$$
