
     RDKit          3D

 28 30  0  0  0  0  0  0  0  0999 V2000
  -31.9220   43.0392    5.3302 C   0  0  0  0  0  0  0  0  0  0  0  0
  -30.9703   43.8961    6.1340 C   0  0  0  0  0  0  0  0  0  0  0  0
  -32.6512   44.5280    7.7894 C   0  0  0  0  0  0  0  0  0  0  0  0
  -29.1591   47.0005    8.4185 C   0  0  0  0  0  0  0  0  0  0  0  0
  -28.4963   47.6876    9.4377 C   0  0  0  0  0  0  0  0  0  0  0  0
  -34.4979   42.9268    8.1354 C   0  0  0  0  0  0  0  0  0  0  0  0
  -33.1137   43.0817    7.5539 C   0  0  1  0  0  0  0  0  0  0  0  0
  -33.1858   42.8442    6.0801 C   0  0  0  0  0  0  0  0  0  0  0  0
  -31.5525   44.8367    6.9956 N   0  0  0  0  0  0  0  0  0  0  0  0
  -31.1474   46.4109    6.6388 S   0  0  2  0  0  6  0  0  0  0  0  0
  -32.4085   47.1270    6.1548 O   0  0  0  0  0  0  0  0  0  0  0  0
  -30.2383   46.3979    5.4128 O   0  0  0  0  0  0  0  0  0  0  0  0
  -30.4030   47.3361    7.9259 C   0  0  0  0  0  0  0  0  0  0  0  0
  -27.2213   47.2336    9.8462 N   0  0  0  0  0  0  0  0  0  0  0  0
  -26.5038   46.2094    9.2196 C   0  0  0  0  0  0  0  0  0  0  0  0
  -26.8794   45.6979    8.1681 O   0  0  0  0  0  0  0  0  0  0  0  0
  -25.2509   45.7268    9.8452 C   0  0  0  0  0  0  0  0  0  0  0  0
  -25.4364   45.0600   11.0933 N   0  0  0  0  0  0  0  0  0  0  0  0
  -24.8871   43.8036   11.4482 C   0  0  0  0  0  0  0  0  0  0  0  0
  -24.1321   43.0286   10.7910 O   0  0  0  0  0  0  0  0  0  0  0  0
  -25.3401   43.4414   12.8382 C   0  0  0  0  0  0  0  0  0  0  0  0
  -26.1301   44.5664   13.2562 N   0  0  0  0  0  0  0  0  0  0  0  0
  -26.1972   45.5231   12.2045 C   0  0  0  0  0  0  0  0  0  0  0  0
  -26.8149   46.6282   12.1914 O   0  0  0  0  0  0  0  0  0  0  0  0
  -29.1708   48.7637    9.9521 C   0  0  0  0  0  0  0  0  0  0  0  0
  -30.4203   49.1291    9.4823 C   0  0  0  0  0  0  0  0  0  0  0  0
  -31.0511   48.4105    8.4558 C   0  0  0  0  0  0  0  0  0  0  0  0
  -32.7878   48.9683    7.8561 Br  0  0  0  0  0  0  0  0  0  0  0  0
  2  1  1  0
  1  8  1  0
  9  2  1  0
  3  7  1  0
  9  3  1  0
  4  5  2  0
 13  4  1  0
  5 14  1  0
  5 25  1  0
  7  6  1  6
  7  8  1  0
 10  9  1  1
 10 11  2  0
 10 12  2  0
 10 13  1  0
 13 27  2  0
 14 15  1  0
 15 16  2  0
 15 17  1  0
 17 18  1  0
 18 19  1  0
 18 23  1  0
 19 20  2  0
 19 21  1  0
 21 22  1  0
 22 23  1  0
 23 24  2  0
 25 26  2  0
 26 27  1  0
 27 28  1  0
M  END
$$$$
