
     RDKit          3D

 28 30  0  0  0  0  0  0  0  0999 V2000
  -33.0918   42.6458   10.6610 C   0  0  0  0  0  0  0  0  0  0  0  0
  -32.5302   44.0157   10.3547 C   0  0  0  0  0  0  0  0  0  0  0  0
  -33.9450   44.3557    8.3930 C   0  0  0  0  0  0  0  0  0  0  0  0
  -29.2705   46.2533    9.2914 C   0  0  0  0  0  0  0  0  0  0  0  0
  -28.5359   47.3895    9.6373 C   0  0  0  0  0  0  0  0  0  0  0  0
  -36.1026   43.1564    8.3826 C   0  0  0  0  0  0  0  0  0  0  0  0
  -34.9626   43.6037    9.2648 C   0  0  1  0  0  0  0  0  0  0  0  0
  -34.2940   42.3930    9.8313 C   0  0  0  0  0  0  0  0  0  0  0  0
  -32.7290   44.4952    9.0522 N   0  0  0  0  0  0  0  0  0  0  0  0
  -31.3152   44.7873    8.2243 S   0  0  2  0  0  6  0  0  0  0  0  0
  -31.6263   44.7535    6.7279 O   0  0  0  0  0  0  0  0  0  0  0  0
  -30.3897   43.5919    8.4347 O   0  0  0  0  0  0  0  0  0  0  0  0
  -30.4734   46.2721    8.6167 C   0  0  0  0  0  0  0  0  0  0  0  0
  -27.3149   47.2246   10.3306 N   0  0  0  0  0  0  0  0  0  0  0  0
  -26.9694   46.0909   11.0735 C   0  0  0  0  0  0  0  0  0  0  0  0
  -27.7537   45.1627   11.2510 O   0  0  0  0  0  0  0  0  0  0  0  0
  -25.6139   46.0085   11.6650 C   0  0  0  0  0  0  0  0  0  0  0  0
  -24.6711   45.2851   10.8746 N   0  0  0  0  0  0  0  0  0  0  0  0
  -24.2175   43.9678   11.1300 C   0  0  0  0  0  0  0  0  0  0  0  0
  -24.5342   43.1606   12.0524 O   0  0  0  0  0  0  0  0  0  0  0  0
  -23.2103   43.5799   10.0794 C   0  0  0  0  0  0  0  0  0  0  0  0
  -23.1535   44.7201    9.2071 N   0  0  0  0  0  0  0  0  0  0  0  0
  -24.0161   45.7416    9.6954 C   0  0  0  0  0  0  0  0  0  0  0  0
  -24.2170   46.8933    9.2095 O   0  0  0  0  0  0  0  0  0  0  0  0
  -29.0915   48.5831    9.2576 C   0  0  0  0  0  0  0  0  0  0  0  0
  -30.2967   48.6395    8.5796 C   0  0  0  0  0  0  0  0  0  0  0  0
  -31.0029   47.4726    8.2513 C   0  0  0  0  0  0  0  0  0  0  0  0
  -32.6726   47.6235    7.3154 Br  0  0  0  0  0  0  0  0  0  0  0  0
  2  1  1  0
  1  8  1  0
  9  2  1  0
  3  7  1  0
  9  3  1  0
  4  5  2  0
 13  4  1  0
  5 14  1  0
  5 25  1  0
  7  6  1  6
  7  8  1  0
 10  9  1  1
 10 11  2  0
 10 12  2  0
 10 13  1  0
 13 27  2  0
 14 15  1  0
 15 16  2  0
 15 17  1  0
 17 18  1  0
 18 19  1  0
 18 23  1  0
 19 20  2  0
 19 21  1  0
 21 22  1  0
 22 23  1  0
 23 24  2  0
 25 26  2  0
 26 27  1  0
 27 28  1  0
M  END
$$$$
