
     RDKit          3D

 28 30  0  0  0  0  0  0  0  0999 V2000
  -33.7891   45.3915    5.2201 C   0  0  0  0  0  0  0  0  0  0  0  0
  -33.5004   46.3446    6.3578 C   0  0  0  0  0  0  0  0  0  0  0  0
  -31.0989   46.4250    5.9204 C   0  0  0  0  0  0  0  0  0  0  0  0
  -29.9566   46.7078   10.0720 C   0  0  0  0  0  0  0  0  0  0  0  0
  -29.2032   47.5431   10.8995 C   0  0  0  0  0  0  0  0  0  0  0  0
  -30.3992   46.0015    3.5913 C   0  0  0  0  0  0  0  0  0  0  0  0
  -31.5809   46.3496    4.4633 C   0  0  1  0  0  0  0  0  0  0  0  0
  -32.5915   45.2535    4.3575 C   0  0  0  0  0  0  0  0  0  0  0  0
  -32.1722   46.4011    6.8036 N   0  0  0  0  0  0  0  0  0  0  0  0
  -31.9825   45.9604    8.3970 S   0  0  2  0  0  6  0  0  0  0  0  0
  -31.2948   44.5955    8.4329 O   0  0  0  0  0  0  0  0  0  0  0  0
  -33.3670   45.6901    8.9799 O   0  0  0  0  0  0  0  0  0  0  0  0
  -31.1119   47.0846    9.4194 C   0  0  0  0  0  0  0  0  0  0  0  0
  -28.0365   47.0252   11.5074 N   0  0  0  0  0  0  0  0  0  0  0  0
  -27.7102   45.6667   11.5724 C   0  0  0  0  0  0  0  0  0  0  0  0
  -28.4989   44.7887   11.2328 O   0  0  0  0  0  0  0  0  0  0  0  0
  -26.3699   45.2753   12.0671 C   0  0  0  0  0  0  0  0  0  0  0  0
  -25.3692   45.1968   11.0526 N   0  0  0  0  0  0  0  0  0  0  0  0
  -24.5654   44.0650   10.7713 C   0  0  0  0  0  0  0  0  0  0  0  0
  -24.5559   42.9179   11.3068 O   0  0  0  0  0  0  0  0  0  0  0  0
  -23.6189   44.3983    9.6480 C   0  0  0  0  0  0  0  0  0  0  0  0
  -23.9579   45.7478    9.2899 N   0  0  0  0  0  0  0  0  0  0  0  0
  -24.9929   46.2252   10.1422 C   0  0  0  0  0  0  0  0  0  0  0  0
  -25.5380   47.3680   10.1456 O   0  0  0  0  0  0  0  0  0  0  0  0
  -29.6872   48.8171   11.0411 C   0  0  0  0  0  0  0  0  0  0  0  0
  -30.8431   49.2295   10.4014 C   0  0  0  0  0  0  0  0  0  0  0  0
  -31.5706   48.3572    9.5781 C   0  0  0  0  0  0  0  0  0  0  0  0
  -33.1695   48.9928    8.7259 Br  0  0  0  0  0  0  0  0  0  0  0  0
  2  1  1  0
  1  8  1  0
  9  2  1  0
  3  7  1  0
  9  3  1  0
  4  5  2  0
 13  4  1  0
  5 14  1  0
  5 25  1  0
  7  6  1  6
  7  8  1  0
 10  9  1  6
 10 11  2  0
 10 12  2  0
 10 13  1  0
 13 27  2  0
 14 15  1  0
 15 16  2  0
 15 17  1  0
 17 18  1  0
 18 19  1  0
 18 23  1  0
 19 20  2  0
 19 21  1  0
 21 22  1  0
 22 23  1  0
 23 24  2  0
 25 26  2  0
 26 27  1  0
 27 28  1  0
M  END
$$$$
