
     RDKit          3D

 28 30  0  0  0  0  0  0  0  0999 V2000
  -29.5652   52.9818    7.3507 C   0  0  0  0  0  0  0  0  0  0  0  0
  -30.0188   52.0051    8.4119 C   0  0  0  0  0  0  0  0  0  0  0  0
  -27.7542   51.2793    8.9683 C   0  0  0  0  0  0  0  0  0  0  0  0
  -29.2119   47.4359   10.2642 C   0  0  0  0  0  0  0  0  0  0  0  0
  -29.4361   46.6156   11.3719 C   0  0  0  0  0  0  0  0  0  0  0  0
  -25.9519   52.9154    8.5577 C   0  0  0  0  0  0  0  0  0  0  0  0
  -27.4463   52.7611    8.7028 C   0  0  1  0  0  0  0  0  0  0  0  0
  -28.0941   53.1534    7.4144 C   0  0  0  0  0  0  0  0  0  0  0  0
  -29.1034   51.0067    8.7741 N   0  0  0  0  0  0  0  0  0  0  0  0
  -29.6493   49.4618    8.4830 S   0  0  2  0  0  6  0  0  0  0  0  0
  -28.6079   48.7450    7.6234 O   0  0  0  0  0  0  0  0  0  0  0  0
  -30.8729   49.5569    7.5755 O   0  0  0  0  0  0  0  0  0  0  0  0
  -30.0220   48.4876    9.8898 C   0  0  0  0  0  0  0  0  0  0  0  0
  -28.5224   45.5707   11.6403 N   0  0  0  0  0  0  0  0  0  0  0  0
  -27.1424   45.7410   11.7922 C   0  0  0  0  0  0  0  0  0  0  0  0
  -26.6128   46.8483   11.7522 O   0  0  0  0  0  0  0  0  0  0  0  0
  -26.2933   44.5466   12.0081 C   0  0  0  0  0  0  0  0  0  0  0  0
  -25.5016   44.1769   10.8796 N   0  0  0  0  0  0  0  0  0  0  0  0
  -24.0863   44.1361   10.8414 C   0  0  0  0  0  0  0  0  0  0  0  0
  -23.2384   44.3843   11.7481 O   0  0  0  0  0  0  0  0  0  0  0  0
  -23.6412   43.7222    9.4633 C   0  0  0  0  0  0  0  0  0  0  0  0
  -24.8676   43.4954    8.7498 N   0  0  0  0  0  0  0  0  0  0  0  0
  -25.9754   43.7836    9.5956 C   0  0  0  0  0  0  0  0  0  0  0  0
  -27.2088   43.7212    9.3167 O   0  0  0  0  0  0  0  0  0  0  0  0
  -30.5526   46.9174   12.1066 C   0  0  0  0  0  0  0  0  0  0  0  0
  -31.3879   47.9651   11.7603 C   0  0  0  0  0  0  0  0  0  0  0  0
  -31.1256   48.7653   10.6382 C   0  0  0  0  0  0  0  0  0  0  0  0
  -32.3295   50.1987   10.2110 Br  0  0  0  0  0  0  0  0  0  0  0  0
  2  1  1  0
  1  8  1  0
  9  2  1  0
  3  7  1  0
  9  3  1  0
  4  5  2  0
 13  4  1  0
  5 14  1  0
  5 25  1  0
  7  6  1  6
  7  8  1  0
 10  9  1  1
 10 11  2  0
 10 12  2  0
 10 13  1  0
 13 27  2  0
 14 15  1  0
 15 16  2  0
 15 17  1  0
 17 18  1  0
 18 19  1  0
 18 23  1  0
 19 20  2  0
 19 21  1  0
 21 22  1  0
 22 23  1  0
 23 24  2  0
 25 26  2  0
 26 27  1  0
 27 28  1  0
M  END
$$$$
