
     RDKit          3D

 28 30  0  0  0  0  0  0  0  0999 V2000
  -32.8317   48.0507   15.2360 C   0  0  0  0  0  0  0  0  0  0  0  0
  -32.1087   48.1970   13.9162 C   0  0  0  0  0  0  0  0  0  0  0  0
  -34.1292   47.9201   12.5724 C   0  0  0  0  0  0  0  0  0  0  0  0
  -29.3451   46.7939   11.2298 C   0  0  0  0  0  0  0  0  0  0  0  0
  -28.2712   47.1565   10.4141 C   0  0  0  0  0  0  0  0  0  0  0  0
  -36.2519   48.5839   13.6436 C   0  0  0  0  0  0  0  0  0  0  0  0
  -34.7505   48.7090   13.7354 C   0  0  1  0  0  0  0  0  0  0  0  0
  -34.2976   48.0913   15.0188 C   0  0  0  0  0  0  0  0  0  0  0  0
  -32.7719   47.7055   12.7828 N   0  0  0  0  0  0  0  0  0  0  0  0
  -31.9487   46.4882   12.0020 S   0  0  2  0  0  6  0  0  0  0  0  0
  -32.9680   45.6348   11.2471 O   0  0  0  0  0  0  0  0  0  0  0  0
  -31.3894   45.5421   13.0611 O   0  0  0  0  0  0  0  0  0  0  0  0
  -30.6731   46.9846   10.9095 C   0  0  0  0  0  0  0  0  0  0  0  0
  -26.9566   46.9020   10.8677 N   0  0  0  0  0  0  0  0  0  0  0  0
  -26.6408   46.2471   12.0626 C   0  0  0  0  0  0  0  0  0  0  0  0
  -27.5025   45.9128   12.8714 O   0  0  0  0  0  0  0  0  0  0  0  0
  -25.2212   45.9477   12.3613 C   0  0  0  0  0  0  0  0  0  0  0  0
  -24.5161   45.3181   11.2920 N   0  0  0  0  0  0  0  0  0  0  0  0
  -24.2695   43.9286   11.1704 C   0  0  0  0  0  0  0  0  0  0  0  0
  -24.6106   42.9707   11.9245 O   0  0  0  0  0  0  0  0  0  0  0  0
  -23.4740   43.6761    9.9166 C   0  0  0  0  0  0  0  0  0  0  0  0
  -23.3240   44.9772    9.3260 N   0  0  0  0  0  0  0  0  0  0  0  0
  -23.9346   45.9561   10.1594 C   0  0  0  0  0  0  0  0  0  0  0  0
  -23.9895   47.2087    9.9830 O   0  0  0  0  0  0  0  0  0  0  0  0
  -28.6130   47.7394    9.2221 C   0  0  0  0  0  0  0  0  0  0  0  0
  -29.9348   47.9463    8.8681 C   0  0  0  0  0  0  0  0  0  0  0  0
  -30.9843   47.5665    9.7180 C   0  0  0  0  0  0  0  0  0  0  0  0
  -32.7954   47.8888    9.1676 Br  0  0  0  0  0  0  0  0  0  0  0  0
  2  1  1  0
  1  8  1  0
  9  2  1  0
  3  7  1  0
  9  3  1  0
  4  5  2  0
 13  4  1  0
  5 14  1  0
  5 25  1  0
  7  6  1  6
  7  8  1  0
 10  9  1  1
 10 11  2  0
 10 12  2  0
 10 13  1  0
 13 27  2  0
 14 15  1  0
 15 16  2  0
 15 17  1  0
 17 18  1  0
 18 19  1  0
 18 23  1  0
 19 20  2  0
 19 21  1  0
 21 22  1  0
 22 23  1  0
 23 24  2  0
 25 26  2  0
 26 27  1  0
 27 28  1  0
M  END
$$$$
