
     RDKit          3D

 28 30  0  0  0  0  0  0  0  0999 V2000
  -28.3012   49.5597    3.6540 C   0  0  0  0  0  0  0  0  0  0  0  0
  -28.8591   49.3263    5.0397 C   0  0  0  0  0  0  0  0  0  0  0  0
  -29.6713   51.6155    5.2948 C   0  0  0  0  0  0  0  0  0  0  0  0
  -27.9415   48.6290    9.1992 C   0  0  0  0  0  0  0  0  0  0  0  0
  -28.3239   47.8010   10.2567 C   0  0  0  0  0  0  0  0  0  0  0  0
  -30.2372   52.8113    3.2107 C   0  0  0  0  0  0  0  0  0  0  0  0
  -29.9707   51.4463    3.7972 C   0  0  1  0  0  0  0  0  0  0  0  0
  -28.7596   50.8712    3.1367 C   0  0  0  0  0  0  0  0  0  0  0  0
  -29.0894   50.4677    5.8207 N   0  0  0  0  0  0  0  0  0  0  0  0
  -28.2028   50.5044    7.2286 S   0  0  2  0  0  6  0  0  0  0  0  0
  -28.1106   51.9579    7.6932 O   0  0  0  0  0  0  0  0  0  0  0  0
  -26.7616   50.1348    6.8883 O   0  0  0  0  0  0  0  0  0  0  0  0
  -28.7831   49.5026    8.5427 C   0  0  0  0  0  0  0  0  0  0  0  0
  -27.3556   46.9517   10.8396 N   0  0  0  0  0  0  0  0  0  0  0  0
  -25.9940   46.9612   10.5197 C   0  0  0  0  0  0  0  0  0  0  0  0
  -25.5219   47.7422    9.6979 O   0  0  0  0  0  0  0  0  0  0  0  0
  -25.0934   45.9978   11.1942 C   0  0  0  0  0  0  0  0  0  0  0  0
  -25.6181   44.6743   11.2944 N   0  0  0  0  0  0  0  0  0  0  0  0
  -25.1771   43.5526   10.5505 C   0  0  0  0  0  0  0  0  0  0  0  0
  -24.2569   43.4577    9.6862 O   0  0  0  0  0  0  0  0  0  0  0  0
  -26.0021   42.3516   10.9319 C   0  0  0  0  0  0  0  0  0  0  0  0
  -26.8920   42.8431   11.9473 N   0  0  0  0  0  0  0  0  0  0  0  0
  -26.6690   44.2343   12.1487 C   0  0  0  0  0  0  0  0  0  0  0  0
  -27.2709   45.0155   12.9427 O   0  0  0  0  0  0  0  0  0  0  0  0
  -29.6381   47.9002   10.6314 C   0  0  0  0  0  0  0  0  0  0  0  0
  -30.5108   48.7657    9.9951 C   0  0  0  0  0  0  0  0  0  0  0  0
  -30.0848   49.5809    8.9358 C   0  0  0  0  0  0  0  0  0  0  0  0
  -31.3497   50.7543    8.0932 Br  0  0  0  0  0  0  0  0  0  0  0  0
  2  1  1  0
  1  8  1  0
  9  2  1  0
  3  7  1  0
  9  3  1  0
  4  5  2  0
 13  4  1  0
  5 14  1  0
  5 25  1  0
  7  6  1  6
  7  8  1  0
 10  9  1  6
 10 11  2  0
 10 12  2  0
 10 13  1  0
 13 27  2  0
 14 15  1  0
 15 16  2  0
 15 17  1  0
 17 18  1  0
 18 19  1  0
 18 23  1  0
 19 20  2  0
 19 21  1  0
 21 22  1  0
 22 23  1  0
 23 24  2  0
 25 26  2  0
 26 27  1  0
 27 28  1  0
M  END
$$$$
