
     RDKit          3D

 28 30  0  0  0  0  0  0  0  0999 V2000
  -29.2427   49.2576    4.4233 C   0  0  0  0  0  0  0  0  0  0  0  0
  -29.4056   48.0917    5.3721 C   0  0  0  0  0  0  0  0  0  0  0  0
  -31.6772   47.5775    4.6370 C   0  0  0  0  0  0  0  0  0  0  0  0
  -30.1041   45.9283    8.9344 C   0  0  0  0  0  0  0  0  0  0  0  0
  -30.0530   44.7587    9.6957 C   0  0  0  0  0  0  0  0  0  0  0  0
  -32.2468   48.2191    2.3223 C   0  0  0  0  0  0  0  0  0  0  0  0
  -31.0985   47.9911    3.2750 C   0  0  1  0  0  0  0  0  0  0  0  0
  -30.3593   49.2784    3.4485 C   0  0  0  0  0  0  0  0  0  0  0  0
  -30.7199   47.6830    5.6395 N   0  0  0  0  0  0  0  0  0  0  0  0
  -31.1450   47.8063    7.2437 S   0  0  2  0  0  6  0  0  0  0  0  0
  -32.5121   48.4863    7.3211 O   0  0  0  0  0  0  0  0  0  0  0  0
  -30.1996   48.8042    7.9070 O   0  0  0  0  0  0  0  0  0  0  0  0
  -31.1780   46.3137    8.1592 C   0  0  0  0  0  0  0  0  0  0  0  0
  -28.8861   44.4864   10.4460 N   0  0  0  0  0  0  0  0  0  0  0  0
  -27.9725   45.4550   10.8746 C   0  0  0  0  0  0  0  0  0  0  0  0
  -27.9778   46.5997   10.4298 O   0  0  0  0  0  0  0  0  0  0  0  0
  -26.9666   45.0871   11.8977 C   0  0  0  0  0  0  0  0  0  0  0  0
  -25.6163   45.1353   11.4380 N   0  0  0  0  0  0  0  0  0  0  0  0
  -24.8115   44.0139   11.1202 C   0  0  0  0  0  0  0  0  0  0  0  0
  -25.0864   42.7784   11.1483 O   0  0  0  0  0  0  0  0  0  0  0  0
  -23.4460   44.4895   10.6988 C   0  0  0  0  0  0  0  0  0  0  0  0
  -23.5381   45.9222   10.7565 N   0  0  0  0  0  0  0  0  0  0  0  0
  -24.8313   46.3021   11.2136 C   0  0  0  0  0  0  0  0  0  0  0  0
  -25.2788   47.4699   11.4110 O   0  0  0  0  0  0  0  0  0  0  0  0
  -31.1731   43.9720    9.6349 C   0  0  0  0  0  0  0  0  0  0  0  0
  -32.2688   44.3273    8.8677 C   0  0  0  0  0  0  0  0  0  0  0  0
  -32.2786   45.5125    8.1171 C   0  0  0  0  0  0  0  0  0  0  0  0
  -33.8293   45.9416    7.0692 Br  0  0  0  0  0  0  0  0  0  0  0  0
  2  1  1  0
  1  8  1  0
  9  2  1  0
  3  7  1  0
  9  3  1  0
  4  5  2  0
 13  4  1  0
  5 14  1  0
  5 25  1  0
  7  6  1  6
  7  8  1  0
 10  9  1  6
 10 11  2  0
 10 12  2  0
 10 13  1  0
 13 27  2  0
 14 15  1  0
 15 16  2  0
 15 17  1  0
 17 18  1  0
 18 19  1  0
 18 23  1  0
 19 20  2  0
 19 21  1  0
 21 22  1  0
 22 23  1  0
 23 24  2  0
 25 26  2  0
 26 27  1  0
 27 28  1  0
M  END
$$$$
