
     RDKit          3D

 30 32  0  0  0  0  0  0  0  0999 V2000
  120.5015  142.8546  176.7015 C   0  0  0  0  0  0  0  0  0  0  0  0
  124.9231  145.7464  174.3763 C   0  0  0  0  0  0  0  0  0  0  0  0
  124.9914  145.6491  173.0125 C   0  0  0  0  0  0  0  0  0  0  0  0
  125.9531  144.8330  172.4370 C   0  0  0  0  0  0  0  0  0  0  0  0
  126.8025  144.1515  173.2531 C   0  0  0  0  0  0  0  0  0  0  0  0
  126.7218  144.2598  174.6453 C   0  0  0  0  0  0  0  0  0  0  0  0
  124.4573  145.3911  177.3347 C   0  0  0  0  0  0  0  0  0  0  0  0
  120.7432  145.5376  176.1731 C   0  0  0  0  0  0  0  0  0  0  0  0
  120.2843  144.7067  175.1797 C   0  0  0  0  0  0  0  0  0  0  0  0
  119.9209  145.2145  173.8488 C   0  0  0  0  0  0  0  0  0  0  0  0
  119.6721  147.0993  172.2882 C   0  0  0  0  0  0  0  0  0  0  0  0
  120.9659  143.7377  177.6901 C   0  0  0  0  0  0  0  0  0  0  0  0
  120.1703  143.3625  175.4644 C   0  0  0  0  0  0  0  0  0  0  0  0
  121.0953  145.0759  177.4489 C   0  0  0  0  0  0  0  0  0  0  0  0
  124.3637  145.5087  178.7017 C   0  0  0  0  0  0  0  0  0  0  0  0
  125.5497  145.4182  179.4072 C   0  0  0  0  0  0  0  0  0  0  0  0
  126.7695  145.2222  178.8086 C   0  0  0  0  0  0  0  0  0  0  0  0
  126.8383  145.1074  177.4393 C   0  0  0  0  0  0  0  0  0  0  0  0
  125.6733  145.1914  176.6829 C   0  0  0  0  0  0  0  0  0  0  0  0
  125.7713  145.0671  175.2368 C   0  0  0  0  0  0  0  0  0  0  0  0
  125.4852  145.5306  180.7535 F   0  0  0  0  0  0  0  0  0  0  0  0
  128.0184  144.9120  176.7858 F   0  0  0  0  0  0  0  0  0  0  0  0
  123.1665  145.7571  179.3778 N   0  0  0  0  0  0  0  0  0  0  0  0
  121.2950  143.2433  178.9394 O   0  0  0  0  0  0  0  0  0  0  0  0
  121.9189  147.5357  177.9424 O   0  0  0  0  0  0  0  0  0  0  0  0
  120.7042  146.4660  179.7104 O   0  0  0  0  0  0  0  0  0  0  0  0
  119.4901  144.4060  172.9889 O   0  0  0  0  0  0  0  0  0  0  0  0
  120.0408  146.5370  173.5292 O   0  0  0  0  0  0  0  0  0  0  0  0
  121.7158  146.1702  178.6115 S   0  0  1  0  0  6  0  0  0  0  0  0
  120.3553  141.1605  177.0526 Cl  0  0  0  0  0  0  0  0  0  0  0  0
 12  1  2  0
  1 13  1  0
  1 30  1  0
  2  3  2  0
 20  2  1  0
  3  4  1  0
  5  4  2  0
  6  5  1  0
 20  6  2  0
 15  7  2  0
  7 19  1  0
  8  9  1  0
 14  8  2  0
  9 10  1  0
  9 13  2  0
 10 27  2  0
 10 28  1  0
 28 11  1  0
 14 12  1  0
 12 24  1  0
 29 14  1  0
 15 16  1  0
 23 15  1  0
 16 17  2  0
 16 21  1  0
 17 18  1  0
 19 18  2  0
 18 22  1  0
 19 20  1  0
 29 23  1  1
 29 25  2  0
 29 26  2  0
M  END
$$$$
