
     RDKit          3D

 30 32  0  0  0  0  0  0  0  0999 V2000
  119.3372  147.3575  176.4528 C   0  0  0  0  0  0  0  0  0  0  0  0
  124.0018  141.0655  173.9023 C   0  0  0  0  0  0  0  0  0  0  0  0
  123.9757  140.2069  172.8365 C   0  0  0  0  0  0  0  0  0  0  0  0
  124.4039  140.6517  171.5953 C   0  0  0  0  0  0  0  0  0  0  0  0
  124.8388  141.9358  171.4776 C   0  0  0  0  0  0  0  0  0  0  0  0
  124.8603  142.8029  172.5749 C   0  0  0  0  0  0  0  0  0  0  0  0
  123.4781  143.2176  175.9651 C   0  0  0  0  0  0  0  0  0  0  0  0
  119.3955  144.7400  175.6274 C   0  0  0  0  0  0  0  0  0  0  0  0
  118.7087  145.6573  174.8693 C   0  0  0  0  0  0  0  0  0  0  0  0
  118.0086  145.2756  173.6342 C   0  0  0  0  0  0  0  0  0  0  0  0
  117.5166  143.5960  171.9060 C   0  0  0  0  0  0  0  0  0  0  0  0
  120.0289  146.3891  177.1989 C   0  0  0  0  0  0  0  0  0  0  0  0
  118.6907  146.9667  175.3007 C   0  0  0  0  0  0  0  0  0  0  0  0
  120.0701  145.0811  176.8079 C   0  0  0  0  0  0  0  0  0  0  0  0
  123.4922  144.0571  177.0544 C   0  0  0  0  0  0  0  0  0  0  0  0
  124.5344  144.9640  177.1156 C   0  0  0  0  0  0  0  0  0  0  0  0
  125.5166  145.0489  176.1604 C   0  0  0  0  0  0  0  0  0  0  0  0
  125.4817  144.1985  175.0794 C   0  0  0  0  0  0  0  0  0  0  0  0
  124.4537  143.2670  174.9704 C   0  0  0  0  0  0  0  0  0  0  0  0
  124.4380  142.3786  173.8186 C   0  0  0  0  0  0  0  0  0  0  0  0
  124.5714  145.8013  178.1772 F   0  0  0  0  0  0  0  0  0  0  0  0
  126.4269  144.2330  174.0980 F   0  0  0  0  0  0  0  0  0  0  0  0
  122.5027  144.0630  178.0408 N   0  0  0  0  0  0  0  0  0  0  0  0
  120.6891  146.7682  178.3538 O   0  0  0  0  0  0  0  0  0  0  0  0
  120.1367  143.7313  179.0763 O   0  0  0  0  0  0  0  0  0  0  0  0
  120.6838  142.4857  177.1028 O   0  0  0  0  0  0  0  0  0  0  0  0
  117.1938  146.0852  173.1250 O   0  0  0  0  0  0  0  0  0  0  0  0
  118.2233  144.0682  173.0328 O   0  0  0  0  0  0  0  0  0  0  0  0
  120.8523  143.8648  177.7259 S   0  0  1  0  0  6  0  0  0  0  0  0
  119.3100  149.0085  176.9898 Cl  0  0  0  0  0  0  0  0  0  0  0  0
 12  1  2  0
  1 13  1  0
  1 30  1  0
  2  3  2  0
 20  2  1  0
  3  4  1  0
  5  4  2  0
  6  5  1  0
 20  6  2  0
 15  7  2  0
  7 19  1  0
  8  9  1  0
 14  8  2  0
  9 10  1  0
  9 13  2  0
 10 27  2  0
 10 28  1  0
 28 11  1  0
 14 12  1  0
 12 24  1  0
 29 14  1  0
 15 16  1  0
 23 15  1  0
 16 17  2  0
 16 21  1  0
 17 18  1  0
 19 18  2  0
 18 22  1  0
 19 20  1  0
 29 23  1  1
 29 25  2  0
 29 26  2  0
M  END
$$$$
