
     RDKit          3D

 30 32  0  0  0  0  0  0  0  0999 V2000
  121.5098  153.2691  177.6145 C   0  0  0  0  0  0  0  0  0  0  0  0
  117.0279  148.3231  175.7746 C   0  0  0  0  0  0  0  0  0  0  0  0
  116.8739  146.9772  175.5775 C   0  0  0  0  0  0  0  0  0  0  0  0
  116.2627  146.5260  174.4179 C   0  0  0  0  0  0  0  0  0  0  0  0
  115.8335  147.4427  173.5084 C   0  0  0  0  0  0  0  0  0  0  0  0
  115.9970  148.8153  173.7221 C   0  0  0  0  0  0  0  0  0  0  0  0
  116.7581  151.2595  176.3887 C   0  0  0  0  0  0  0  0  0  0  0  0
  120.2834  155.3320  178.9472 C   0  0  0  0  0  0  0  0  0  0  0  0
  121.6551  155.2541  178.9679 C   0  0  0  0  0  0  0  0  0  0  0  0
  122.4783  156.2416  179.6808 C   0  0  0  0  0  0  0  0  0  0  0  0
  122.6438  158.2311  181.1177 C   0  0  0  0  0  0  0  0  0  0  0  0
  120.1100  153.3850  177.6169 C   0  0  0  0  0  0  0  0  0  0  0  0
  122.2522  154.2106  178.2930 C   0  0  0  0  0  0  0  0  0  0  0  0
  119.4786  154.4023  178.2743 C   0  0  0  0  0  0  0  0  0  0  0  0
  116.9265  152.6055  176.6149 C   0  0  0  0  0  0  0  0  0  0  0  0
  117.1224  153.3951  175.4966 C   0  0  0  0  0  0  0  0  0  0  0  0
  117.1528  152.8964  174.2179 C   0  0  0  0  0  0  0  0  0  0  0  0
  116.9819  151.5462  174.0162 C   0  0  0  0  0  0  0  0  0  0  0  0
  116.7813  150.7079  175.1086 C   0  0  0  0  0  0  0  0  0  0  0  0
  116.6030  149.2839  174.8702 C   0  0  0  0  0  0  0  0  0  0  0  0
  117.2907  154.7229  175.6917 F   0  0  0  0  0  0  0  0  0  0  0  0
  117.0016  150.9901  172.7720 F   0  0  0  0  0  0  0  0  0  0  0  0
  116.8601  153.1927  177.8810 N   0  0  0  0  0  0  0  0  0  0  0  0
  119.3518  152.4514  176.9335 O   0  0  0  0  0  0  0  0  0  0  0  0
  117.3697  154.8938  179.7854 O   0  0  0  0  0  0  0  0  0  0  0  0
  117.2613  155.7221  177.5386 O   0  0  0  0  0  0  0  0  0  0  0  0
  123.7294  156.1393  179.6267 O   0  0  0  0  0  0  0  0  0  0  0  0
  121.9162  157.2607  180.3957 O   0  0  0  0  0  0  0  0  0  0  0  0
  117.7727  154.5384  178.3484 S   0  0  1  0  0  6  0  0  0  0  0  0
  122.2690  151.9576  176.7668 Cl  0  0  0  0  0  0  0  0  0  0  0  0
 12  1  2  0
  1 13  1  0
  1 30  1  0
  2  3  2  0
 20  2  1  0
  3  4  1  0
  5  4  2  0
  6  5  1  0
 20  6  2  0
 15  7  2  0
  7 19  1  0
  8  9  1  0
 14  8  2  0
  9 10  1  0
  9 13  2  0
 10 27  2  0
 10 28  1  0
 28 11  1  0
 14 12  1  0
 12 24  1  0
 29 14  1  0
 15 16  1  0
 23 15  1  0
 16 17  2  0
 16 21  1  0
 17 18  1  0
 19 18  2  0
 18 22  1  0
 19 20  1  0
 29 23  1  6
 29 25  2  0
 29 26  2  0
M  END
$$$$
