
     RDKit          3D

 30 32  0  0  0  0  0  0  0  0999 V2000
  125.4886  142.7442  175.6243 C   0  0  0  0  0  0  0  0  0  0  0  0
  116.6858  147.5218  175.4866 C   0  0  0  0  0  0  0  0  0  0  0  0
  116.2676  148.8238  175.4236 C   0  0  0  0  0  0  0  0  0  0  0  0
  116.8264  149.7590  176.2809 C   0  0  0  0  0  0  0  0  0  0  0  0
  117.7785  149.3482  177.1621 C   0  0  0  0  0  0  0  0  0  0  0  0
  118.1969  148.0146  177.2162 C   0  0  0  0  0  0  0  0  0  0  0  0
  119.3883  145.3051  176.6992 C   0  0  0  0  0  0  0  0  0  0  0  0
  124.9577  145.2092  176.7097 C   0  0  0  0  0  0  0  0  0  0  0  0
  126.2271  144.9468  176.2538 C   0  0  0  0  0  0  0  0  0  0  0  0
  127.3021  145.9466  176.3314 C   0  0  0  0  0  0  0  0  0  0  0  0
  127.8628  148.3153  176.6839 C   0  0  0  0  0  0  0  0  0  0  0  0
  124.2038  143.0524  176.1009 C   0  0  0  0  0  0  0  0  0  0  0  0
  126.4739  143.7031  175.7125 C   0  0  0  0  0  0  0  0  0  0  0  0
  123.9176  144.2717  176.6459 C   0  0  0  0  0  0  0  0  0  0  0  0
  119.7894  143.9902  176.7397 C   0  0  0  0  0  0  0  0  0  0  0  0
  118.8149  143.0440  176.4800 C   0  0  0  0  0  0  0  0  0  0  0  0
  117.5109  143.3640  176.1943 C   0  0  0  0  0  0  0  0  0  0  0  0
  117.1329  144.6864  176.1594 C   0  0  0  0  0  0  0  0  0  0  0  0
  118.0757  145.6779  176.4136 C   0  0  0  0  0  0  0  0  0  0  0  0
  117.6524  147.0690  176.3710 C   0  0  0  0  0  0  0  0  0  0  0  0
  119.1835  141.7431  176.5136 F   0  0  0  0  0  0  0  0  0  0  0  0
  115.8544  145.0688  175.8819 F   0  0  0  0  0  0  0  0  0  0  0  0
  121.1069  143.5890  176.9754 N   0  0  0  0  0  0  0  0  0  0  0  0
  123.2024  142.1023  176.0118 O   0  0  0  0  0  0  0  0  0  0  0  0
  122.5040  144.7906  178.8150 O   0  0  0  0  0  0  0  0  0  0  0  0
  121.9118  146.0414  176.8578 O   0  0  0  0  0  0  0  0  0  0  0  0
  128.4127  145.6838  175.8058 O   0  0  0  0  0  0  0  0  0  0  0  0
  127.1208  147.1465  176.9582 O   0  0  0  0  0  0  0  0  0  0  0  0
  122.3789  144.6586  177.2917 S   0  0  1  0  0  6  0  0  0  0  0  0
  125.8072  141.1799  174.9412 Cl  0  0  0  0  0  0  0  0  0  0  0  0
 12  1  2  0
  1 13  1  0
  1 30  1  0
  2  3  2  0
 20  2  1  0
  3  4  1  0
  5  4  2  0
  6  5  1  0
 20  6  2  0
 15  7  2  0
  7 19  1  0
  8  9  1  0
 14  8  2  0
  9 10  1  0
  9 13  2  0
 10 27  2  0
 10 28  1  0
 28 11  1  0
 14 12  1  0
 12 24  1  0
 29 14  1  0
 15 16  1  0
 23 15  1  0
 16 17  2  0
 16 21  1  0
 17 18  1  0
 19 18  2  0
 18 22  1  0
 19 20  1  0
 29 23  1  1
 29 25  2  0
 29 26  2  0
M  END
$$$$
