
     RDKit          3D

 30 32  0  0  0  0  0  0  0  0999 V2000
  114.3052  153.2477  179.5982 C   0  0  0  0  0  0  0  0  0  0  0  0
  117.0177  154.9747  172.1143 C   0  0  0  0  0  0  0  0  0  0  0  0
  116.3510  155.4367  171.0116 C   0  0  0  0  0  0  0  0  0  0  0  0
  115.3347  156.3659  171.1722 C   0  0  0  0  0  0  0  0  0  0  0  0
  115.0323  156.7901  172.4293 C   0  0  0  0  0  0  0  0  0  0  0  0
  115.7215  156.3098  173.5477 C   0  0  0  0  0  0  0  0  0  0  0  0
  117.4615  155.5260  175.7929 C   0  0  0  0  0  0  0  0  0  0  0  0
  116.8971  152.5030  180.1115 C   0  0  0  0  0  0  0  0  0  0  0  0
  115.8992  151.5704  180.2609 C   0  0  0  0  0  0  0  0  0  0  0  0
  116.1820  150.1917  180.6857 C   0  0  0  0  0  0  0  0  0  0  0  0
  115.3461  147.9594  181.2920 C   0  0  0  0  0  0  0  0  0  0  0  0
  115.3544  154.1707  179.4564 C   0  0  0  0  0  0  0  0  0  0  0  0
  114.6040  151.9639  179.9988 C   0  0  0  0  0  0  0  0  0  0  0  0
  116.6510  153.8226  179.7077 C   0  0  0  0  0  0  0  0  0  0  0  0
  118.1486  155.0445  176.8826 C   0  0  0  0  0  0  0  0  0  0  0  0
  118.8504  153.8680  176.6936 C   0  0  0  0  0  0  0  0  0  0  0  0
  118.8811  153.1924  175.4989 C   0  0  0  0  0  0  0  0  0  0  0  0
  118.1858  153.6933  174.4226 C   0  0  0  0  0  0  0  0  0  0  0  0
  117.4633  154.8746  174.5603 C   0  0  0  0  0  0  0  0  0  0  0  0
  116.7362  155.3846  173.4082 C   0  0  0  0  0  0  0  0  0  0  0  0
  119.5349  153.3730  177.7500 F   0  0  0  0  0  0  0  0  0  0  0  0
  118.1767  153.0698  173.2106 F   0  0  0  0  0  0  0  0  0  0  0  0
  118.2042  155.7003  178.1151 N   0  0  0  0  0  0  0  0  0  0  0  0
  115.0704  155.4613  179.0474 O   0  0  0  0  0  0  0  0  0  0  0  0
  117.7340  156.0371  180.6539 O   0  0  0  0  0  0  0  0  0  0  0  0
  119.2712  154.3123  180.0154 O   0  0  0  0  0  0  0  0  0  0  0  0
  117.3718  149.7881  180.6794 O   0  0  0  0  0  0  0  0  0  0  0  0
  115.1861  149.3462  181.0843 O   0  0  0  0  0  0  0  0  0  0  0  0
  117.9460  154.9390  179.6037 S   0  0  1  0  0  6  0  0  0  0  0  0
  112.6715  153.7358  179.2700 Cl  0  0  0  0  0  0  0  0  0  0  0  0
 12  1  2  0
  1 13  1  0
  1 30  1  0
  2  3  2  0
 20  2  1  0
  3  4  1  0
  5  4  2  0
  6  5  1  0
 20  6  2  0
 15  7  2  0
  7 19  1  0
  8  9  1  0
 14  8  2  0
  9 10  1  0
  9 13  2  0
 10 27  2  0
 10 28  1  0
 28 11  1  0
 14 12  1  0
 12 24  1  0
 29 14  1  0
 15 16  1  0
 23 15  1  0
 16 17  2  0
 16 21  1  0
 17 18  1  0
 19 18  2  0
 18 22  1  0
 19 20  1  0
 29 23  1  6
 29 25  2  0
 29 26  2  0
M  END
$$$$
