
     RDKit          3D

 30 32  0  0  0  0  0  0  0  0999 V2000
  123.5079  151.5991  186.6543 C   0  0  0  0  0  0  0  0  0  0  0  0
  126.1668  151.6361  178.3699 C   0  0  0  0  0  0  0  0  0  0  0  0
  126.1793  150.5151  177.5843 C   0  0  0  0  0  0  0  0  0  0  0  0
  126.8522  149.3854  178.0233 C   0  0  0  0  0  0  0  0  0  0  0  0
  127.4820  149.4294  179.2289 C   0  0  0  0  0  0  0  0  0  0  0  0
  127.4615  150.5815  180.0219 C   0  0  0  0  0  0  0  0  0  0  0  0
  126.8740  152.8909  181.8034 C   0  0  0  0  0  0  0  0  0  0  0  0
  125.0868  150.7158  184.5896 C   0  0  0  0  0  0  0  0  0  0  0  0
  123.9355  150.0260  184.8836 C   0  0  0  0  0  0  0  0  0  0  0  0
  123.5293  148.8341  184.1249 C   0  0  0  0  0  0  0  0  0  0  0  0
  121.9652  146.9665  183.7849 C   0  0  0  0  0  0  0  0  0  0  0  0
  124.6924  152.2767  186.3214 C   0  0  0  0  0  0  0  0  0  0  0  0
  123.1563  150.4850  185.9242 C   0  0  0  0  0  0  0  0  0  0  0  0
  125.4937  151.8543  185.2991 C   0  0  0  0  0  0  0  0  0  0  0  0
  126.8443  154.0311  182.5717 C   0  0  0  0  0  0  0  0  0  0  0  0
  126.6997  155.2257  181.8902 C   0  0  0  0  0  0  0  0  0  0  0  0
  126.5893  155.3054  180.5242 C   0  0  0  0  0  0  0  0  0  0  0  0
  126.6216  154.1511  179.7763 C   0  0  0  0  0  0  0  0  0  0  0  0
  126.7655  152.9226  180.4139 C   0  0  0  0  0  0  0  0  0  0  0  0
  126.7970  151.7160  179.6020 C   0  0  0  0  0  0  0  0  0  0  0  0
  126.6676  156.3622  182.6228 F   0  0  0  0  0  0  0  0  0  0  0  0
  126.5170  154.1636  178.4174 F   0  0  0  0  0  0  0  0  0  0  0  0
  126.9023  154.0264  183.9678 N   0  0  0  0  0  0  0  0  0  0  0  0
  125.0544  153.4014  187.0406 O   0  0  0  0  0  0  0  0  0  0  0  0
  127.7071  152.9711  186.2080 O   0  0  0  0  0  0  0  0  0  0  0  0
  127.9380  151.6714  184.2072 O   0  0  0  0  0  0  0  0  0  0  0  0
  124.1718  148.5269  183.0898 O   0  0  0  0  0  0  0  0  0  0  0  0
  122.4758  148.0589  184.5184 O   0  0  0  0  0  0  0  0  0  0  0  0
  126.9745  152.6207  184.9064 S   0  0  1  0  0  6  0  0  0  0  0  0
  122.5214  152.1712  187.9637 Cl  0  0  0  0  0  0  0  0  0  0  0  0
 12  1  2  0
  1 13  1  0
  1 30  1  0
  2  3  2  0
 20  2  1  0
  3  4  1  0
  5  4  2  0
  6  5  1  0
 20  6  2  0
 15  7  2  0
  7 19  1  0
  8  9  1  0
 14  8  2  0
  9 10  1  0
  9 13  2  0
 10 27  2  0
 10 28  1  0
 28 11  1  0
 14 12  1  0
 12 24  1  0
 29 14  1  0
 15 16  1  0
 23 15  1  0
 16 17  2  0
 16 21  1  0
 17 18  1  0
 19 18  2  0
 18 22  1  0
 19 20  1  0
 29 23  1  6
 29 25  2  0
 29 26  2  0
M  END
$$$$
