
     RDKit          3D

 30 32  0  0  0  0  0  0  0  0999 V2000
  118.2058  155.9779  178.6124 C   0  0  0  0  0  0  0  0  0  0  0  0
  118.1200  150.4972  173.4230 C   0  0  0  0  0  0  0  0  0  0  0  0
  116.9180  149.8445  173.3685 C   0  0  0  0  0  0  0  0  0  0  0  0
  115.8902  150.2424  174.2094 C   0  0  0  0  0  0  0  0  0  0  0  0
  116.1126  151.2757  175.0666 C   0  0  0  0  0  0  0  0  0  0  0  0
  117.3458  151.9342  175.1122 C   0  0  0  0  0  0  0  0  0  0  0  0
  120.2888  152.5947  175.5107 C   0  0  0  0  0  0  0  0  0  0  0  0
  118.7385  153.2858  178.5410 C   0  0  0  0  0  0  0  0  0  0  0  0
  117.4392  153.6985  178.7128 C   0  0  0  0  0  0  0  0  0  0  0  0
  116.3331  152.7411  178.8581 C   0  0  0  0  0  0  0  0  0  0  0  0
  115.5365  150.4184  178.9995 C   0  0  0  0  0  0  0  0  0  0  0  0
  119.5203  155.5148  178.4377 C   0  0  0  0  0  0  0  0  0  0  0  0
  117.1922  155.0545  178.7464 C   0  0  0  0  0  0  0  0  0  0  0  0
  119.8085  154.1802  178.4004 C   0  0  0  0  0  0  0  0  0  0  0  0
  121.5072  153.2317  175.5439 C   0  0  0  0  0  0  0  0  0  0  0  0
  122.0959  153.4923  174.3200 C   0  0  0  0  0  0  0  0  0  0  0  0
  121.5242  153.1484  173.1202 C   0  0  0  0  0  0  0  0  0  0  0  0
  120.3046  152.5117  173.1120 C   0  0  0  0  0  0  0  0  0  0  0  0
  119.6699  152.2264  174.3171 C   0  0  0  0  0  0  0  0  0  0  0  0
  118.3811  151.5526  174.2830 C   0  0  0  0  0  0  0  0  0  0  0  0
  123.2950  154.1181  174.3249 F   0  0  0  0  0  0  0  0  0  0  0  0
  119.6854  152.1446  171.9547 F   0  0  0  0  0  0  0  0  0  0  0  0
  122.1282  153.6554  176.7216 N   0  0  0  0  0  0  0  0  0  0  0  0
  120.5474  156.4303  178.2940 O   0  0  0  0  0  0  0  0  0  0  0  0
  122.3114  154.3465  179.2254 O   0  0  0  0  0  0  0  0  0  0  0  0
  121.5208  152.1398  178.7242 O   0  0  0  0  0  0  0  0  0  0  0  0
  115.1618  153.1816  178.9711 O   0  0  0  0  0  0  0  0  0  0  0  0
  116.5498  151.3927  178.8728 O   0  0  0  0  0  0  0  0  0  0  0  0
  121.4067  153.5823  178.2502 S   0  0  1  0  0  6  0  0  0  0  0  0
  117.8868  157.6841  178.6558 Cl  0  0  0  0  0  0  0  0  0  0  0  0
 12  1  2  0
  1 13  1  0
  1 30  1  0
  2  3  2  0
 20  2  1  0
  3  4  1  0
  5  4  2  0
  6  5  1  0
 20  6  2  0
 15  7  2  0
  7 19  1  0
  8  9  1  0
 14  8  2  0
  9 10  1  0
  9 13  2  0
 10 27  2  0
 10 28  1  0
 28 11  1  0
 14 12  1  0
 12 24  1  0
 29 14  1  0
 15 16  1  0
 23 15  1  0
 16 17  2  0
 16 21  1  0
 17 18  1  0
 19 18  2  0
 18 22  1  0
 19 20  1  0
 29 23  1  6
 29 25  2  0
 29 26  2  0
M  END
$$$$
