
     RDKit          3D

 30 32  0  0  0  0  0  0  0  0999 V2000
  119.6103  146.5142  172.4998 C   0  0  0  0  0  0  0  0  0  0  0  0
  120.5036  141.8432  177.8845 C   0  0  0  0  0  0  0  0  0  0  0  0
  119.5279  140.9741  178.2927 C   0  0  0  0  0  0  0  0  0  0  0  0
  119.4205  139.7361  177.6781 C   0  0  0  0  0  0  0  0  0  0  0  0
  120.2948  139.4246  176.6829 C   0  0  0  0  0  0  0  0  0  0  0  0
  121.2872  140.3220  176.2753 C   0  0  0  0  0  0  0  0  0  0  0  0
  122.2028  143.8771  176.3945 C   0  0  0  0  0  0  0  0  0  0  0  0
  118.9490  146.3475  175.1589 C   0  0  0  0  0  0  0  0  0  0  0  0
  117.9622  146.1688  174.2196 C   0  0  0  0  0  0  0  0  0  0  0  0
  116.5694  145.8916  174.5996 C   0  0  0  0  0  0  0  0  0  0  0  0
  115.0174  145.8882  176.5078 C   0  0  0  0  0  0  0  0  0  0  0  0
  120.5897  146.6898  173.4911 C   0  0  0  0  0  0  0  0  0  0  0  0
  118.3142  146.2567  172.8895 C   0  0  0  0  0  0  0  0  0  0  0  0
  120.2830  146.6125  174.8199 C   0  0  0  0  0  0  0  0  0  0  0  0
  123.1724  144.7716  176.0058 C   0  0  0  0  0  0  0  0  0  0  0  0
  124.4059  144.2363  175.6828 C   0  0  0  0  0  0  0  0  0  0  0  0
  124.6815  142.8925  175.7361 C   0  0  0  0  0  0  0  0  0  0  0  0
  123.6955  142.0166  176.1279 C   0  0  0  0  0  0  0  0  0  0  0  0
  122.4363  142.5045  176.4637 C   0  0  0  0  0  0  0  0  0  0  0  0
  121.4100  141.5591  176.8750 C   0  0  0  0  0  0  0  0  0  0  0  0
  125.3773  145.0948  175.2972 F   0  0  0  0  0  0  0  0  0  0  0  0
  123.9063  140.6720  176.2012 F   0  0  0  0  0  0  0  0  0  0  0  0
  122.9535  146.1459  175.8808 N   0  0  0  0  0  0  0  0  0  0  0  0
  121.8969  146.9413  173.1148 O   0  0  0  0  0  0  0  0  0  0  0  0
  121.6731  148.3923  176.1883 O   0  0  0  0  0  0  0  0  0  0  0  0
  120.9105  146.4862  177.4257 O   0  0  0  0  0  0  0  0  0  0  0  0
  115.6734  145.9808  173.7233 O   0  0  0  0  0  0  0  0  0  0  0  0
  116.2309  145.5417  175.8757 O   0  0  0  0  0  0  0  0  0  0  0  0
  121.4400  146.8819  176.0540 S   0  0  1  0  0  6  0  0  0  0  0  0
  120.0459  146.6235  170.8225 Cl  0  0  0  0  0  0  0  0  0  0  0  0
 12  1  2  0
  1 13  1  0
  1 30  1  0
  2  3  2  0
 20  2  1  0
  3  4  1  0
  5  4  2  0
  6  5  1  0
 20  6  2  0
 15  7  2  0
  7 19  1  0
  8  9  1  0
 14  8  2  0
  9 10  1  0
  9 13  2  0
 10 27  2  0
 10 28  1  0
 28 11  1  0
 14 12  1  0
 12 24  1  0
 29 14  1  0
 15 16  1  0
 23 15  1  0
 16 17  2  0
 16 21  1  0
 17 18  1  0
 19 18  2  0
 18 22  1  0
 19 20  1  0
 29 23  1  6
 29 25  2  0
 29 26  2  0
M  END
$$$$
