
     RDKit          3D

 30 32  0  0  0  0  0  0  0  0999 V2000
  121.1834  146.2057  179.4242 C   0  0  0  0  0  0  0  0  0  0  0  0
  125.4259  139.4671  174.6528 C   0  0  0  0  0  0  0  0  0  0  0  0
  125.9703  138.2115  174.6193 C   0  0  0  0  0  0  0  0  0  0  0  0
  125.3503  137.1836  175.3127 C   0  0  0  0  0  0  0  0  0  0  0  0
  124.2136  137.4595  176.0081 C   0  0  0  0  0  0  0  0  0  0  0  0
  123.6677  138.7471  176.0341 C   0  0  0  0  0  0  0  0  0  0  0  0
  122.3999  141.3894  175.7436 C   0  0  0  0  0  0  0  0  0  0  0  0
  120.3707  146.9989  176.9249 C   0  0  0  0  0  0  0  0  0  0  0  0
  120.7319  147.9594  177.8387 C   0  0  0  0  0  0  0  0  0  0  0  0
  120.6951  149.3928  177.5143 C   0  0  0  0  0  0  0  0  0  0  0  0
  121.4012  151.6551  178.1724 C   0  0  0  0  0  0  0  0  0  0  0  0
  120.8068  145.2552  178.4610 C   0  0  0  0  0  0  0  0  0  0  0  0
  121.1367  147.5410  179.0885 C   0  0  0  0  0  0  0  0  0  0  0  0
  120.3980  145.6272  177.2120 C   0  0  0  0  0  0  0  0  0  0  0  0
  121.8754  142.6606  175.7591 C   0  0  0  0  0  0  0  0  0  0  0  0
  122.7282  143.6802  175.3774 C   0  0  0  0  0  0  0  0  0  0  0  0
  124.0309  143.4708  174.9984 C   0  0  0  0  0  0  0  0  0  0  0  0
  124.5337  142.1902  174.9907 C   0  0  0  0  0  0  0  0  0  0  0  0
  123.7164  141.1284  175.3663 C   0  0  0  0  0  0  0  0  0  0  0  0
  124.2704  139.7834  175.3501 C   0  0  0  0  0  0  0  0  0  0  0  0
  122.2367  144.9403  175.3841 F   0  0  0  0  0  0  0  0  0  0  0  0
  125.8179  141.9168  174.6248 F   0  0  0  0  0  0  0  0  0  0  0  0
  120.5474  142.9469  176.0859 N   0  0  0  0  0  0  0  0  0  0  0  0
  120.8560  143.9103  178.7812 O   0  0  0  0  0  0  0  0  0  0  0  0
  118.3517  144.3453  176.1435 O   0  0  0  0  0  0  0  0  0  0  0  0
  120.0735  145.0201  174.6185 O   0  0  0  0  0  0  0  0  0  0  0  0
  120.4195  149.7408  176.3389 O   0  0  0  0  0  0  0  0  0  0  0  0
  120.9523  150.3475  178.4566 O   0  0  0  0  0  0  0  0  0  0  0  0
  119.8743  144.4982  176.0350 S   0  0  1  0  0  6  0  0  0  0  0  0
  121.6943  145.6864  181.0004 Cl  0  0  0  0  0  0  0  0  0  0  0  0
 12  1  2  0
  1 13  1  0
  1 30  1  0
  2  3  2  0
 20  2  1  0
  3  4  1  0
  5  4  2  0
  6  5  1  0
 20  6  2  0
 15  7  2  0
  7 19  1  0
  8  9  1  0
 14  8  2  0
  9 10  1  0
  9 13  2  0
 10 27  2  0
 10 28  1  0
 28 11  1  0
 14 12  1  0
 12 24  1  0
 29 14  1  0
 15 16  1  0
 23 15  1  0
 16 17  2  0
 16 21  1  0
 17 18  1  0
 19 18  2  0
 18 22  1  0
 19 20  1  0
 29 23  1  6
 29 25  2  0
 29 26  2  0
M  END
$$$$
