
     RDKit          3D

 30 32  0  0  0  0  0  0  0  0999 V2000
  120.1214  145.6010  176.3105 C   0  0  0  0  0  0  0  0  0  0  0  0
  123.4344  144.3654  172.4363 C   0  0  0  0  0  0  0  0  0  0  0  0
  123.4862  145.1122  171.2902 C   0  0  0  0  0  0  0  0  0  0  0  0
  124.4020  144.7801  170.3038 C   0  0  0  0  0  0  0  0  0  0  0  0
  125.2241  143.7154  170.5098 C   0  0  0  0  0  0  0  0  0  0  0  0
  125.1609  142.9606  171.6857 C   0  0  0  0  0  0  0  0  0  0  0  0
  124.2010  143.0965  175.1687 C   0  0  0  0  0  0  0  0  0  0  0  0
  120.9515  144.4087  178.6397 C   0  0  0  0  0  0  0  0  0  0  0  0
  119.6112  144.6552  178.4642 C   0  0  0  0  0  0  0  0  0  0  0  0
  118.6158  144.2984  179.4854 C   0  0  0  0  0  0  0  0  0  0  0  0
  118.3242  143.4415  181.7724 C   0  0  0  0  0  0  0  0  0  0  0  0
  121.4825  145.3311  176.5284 C   0  0  0  0  0  0  0  0  0  0  0  0
  119.2143  145.2550  177.2879 C   0  0  0  0  0  0  0  0  0  0  0  0
  121.9181  144.7400  177.6801 C   0  0  0  0  0  0  0  0  0  0  0  0
  124.1260  142.3654  176.3310 C   0  0  0  0  0  0  0  0  0  0  0  0
  124.0237  140.9939  176.1868 C   0  0  0  0  0  0  0  0  0  0  0  0
  123.9959  140.3644  174.9671 C   0  0  0  0  0  0  0  0  0  0  0  0
  124.0723  141.1168  173.8178 C   0  0  0  0  0  0  0  0  0  0  0  0
  124.1765  142.5015  173.9082 C   0  0  0  0  0  0  0  0  0  0  0  0
  124.2559  143.2757  172.6792 C   0  0  0  0  0  0  0  0  0  0  0  0
  123.9484  140.2515  177.3149 F   0  0  0  0  0  0  0  0  0  0  0  0
  124.0497  140.5518  172.5776 F   0  0  0  0  0  0  0  0  0  0  0  0
  124.1967  142.9298  177.6073 N   0  0  0  0  0  0  0  0  0  0  0  0
  122.4040  145.6659  175.5526 O   0  0  0  0  0  0  0  0  0  0  0  0
  124.4110  145.5011  177.2577 O   0  0  0  0  0  0  0  0  0  0  0  0
  123.9215  144.7045  179.4648 O   0  0  0  0  0  0  0  0  0  0  0  0
  117.4770  144.8267  179.4318 O   0  0  0  0  0  0  0  0  0  0  0  0
  118.9002  143.4113  180.4843 O   0  0  0  0  0  0  0  0  0  0  0  0
  123.5755  144.4527  178.0035 S   0  0  1  0  0  6  0  0  0  0  0  0
  119.6138  146.3562  174.8317 Cl  0  0  0  0  0  0  0  0  0  0  0  0
 12  1  2  0
  1 13  1  0
  1 30  1  0
  2  3  2  0
 20  2  1  0
  3  4  1  0
  5  4  2  0
  6  5  1  0
 20  6  2  0
 15  7  2  0
  7 19  1  0
  8  9  1  0
 14  8  2  0
  9 10  1  0
  9 13  2  0
 10 27  2  0
 10 28  1  0
 28 11  1  0
 14 12  1  0
 12 24  1  0
 29 14  1  0
 15 16  1  0
 23 15  1  0
 16 17  2  0
 16 21  1  0
 17 18  1  0
 19 18  2  0
 18 22  1  0
 19 20  1  0
 29 23  1  6
 29 25  2  0
 29 26  2  0
M  END
$$$$
