
     RDKit          3D

 30 32  0  0  0  0  0  0  0  0999 V2000
  124.6124  154.3079  181.1279 C   0  0  0  0  0  0  0  0  0  0  0  0
  121.9842  153.6657  176.4668 C   0  0  0  0  0  0  0  0  0  0  0  0
  122.6032  153.4638  175.2626 C   0  0  0  0  0  0  0  0  0  0  0  0
  121.8361  153.3702  174.1117 C   0  0  0  0  0  0  0  0  0  0  0  0
  120.4842  153.4830  174.2187 C   0  0  0  0  0  0  0  0  0  0  0  0
  119.8642  153.6891  175.4555 C   0  0  0  0  0  0  0  0  0  0  0  0
  120.3713  155.0270  178.7647 C   0  0  0  0  0  0  0  0  0  0  0  0
  123.9022  156.3601  179.4485 C   0  0  0  0  0  0  0  0  0  0  0  0
  125.0604  155.6667  179.1924 C   0  0  0  0  0  0  0  0  0  0  0  0
  125.9241  155.9931  178.0484 C   0  0  0  0  0  0  0  0  0  0  0  0
  126.4471  157.4818  176.1616 C   0  0  0  0  0  0  0  0  0  0  0  0
  123.4358  155.0408  181.3544 C   0  0  0  0  0  0  0  0  0  0  0  0
  125.4001  154.6399  180.0475 C   0  0  0  0  0  0  0  0  0  0  0  0
  123.0637  156.0665  180.5328 C   0  0  0  0  0  0  0  0  0  0  0  0
  119.7779  155.2303  179.9886 C   0  0  0  0  0  0  0  0  0  0  0  0
  118.7639  154.3546  180.3310 C   0  0  0  0  0  0  0  0  0  0  0  0
  118.3478  153.3289  179.5189 C   0  0  0  0  0  0  0  0  0  0  0  0
  118.9564  153.1450  178.2989 C   0  0  0  0  0  0  0  0  0  0  0  0
  119.9825  153.9993  177.9068 C   0  0  0  0  0  0  0  0  0  0  0  0
  120.6108  153.7850  176.6123 C   0  0  0  0  0  0  0  0  0  0  0  0
  118.1636  154.5329  181.5298 F   0  0  0  0  0  0  0  0  0  0  0  0
  118.5891  152.1458  177.4478 F   0  0  0  0  0  0  0  0  0  0  0  0
  120.1786  156.2208  180.8889 N   0  0  0  0  0  0  0  0  0  0  0  0
  122.6309  154.7139  182.4309 O   0  0  0  0  0  0  0  0  0  0  0  0
  121.8511  157.7797  182.1349 O   0  0  0  0  0  0  0  0  0  0  0  0
  121.5227  158.1326  179.7869 O   0  0  0  0  0  0  0  0  0  0  0  0
  127.0052  155.3686  177.9081 O   0  0  0  0  0  0  0  0  0  0  0  0
  125.5788  156.9541  177.1412 O   0  0  0  0  0  0  0  0  0  0  0  0
  121.6684  157.0191  180.8152 S   0  0  1  0  0  6  0  0  0  0  0  0
  125.0469  153.0134  182.2004 Cl  0  0  0  0  0  0  0  0  0  0  0  0
 12  1  2  0
  1 13  1  0
  1 30  1  0
  2  3  2  0
 20  2  1  0
  3  4  1  0
  5  4  2  0
  6  5  1  0
 20  6  2  0
 15  7  2  0
  7 19  1  0
  8  9  1  0
 14  8  2  0
  9 10  1  0
  9 13  2  0
 10 27  2  0
 10 28  1  0
 28 11  1  0
 14 12  1  0
 12 24  1  0
 29 14  1  0
 15 16  1  0
 23 15  1  0
 16 17  2  0
 16 21  1  0
 17 18  1  0
 19 18  2  0
 18 22  1  0
 19 20  1  0
 29 23  1  1
 29 25  2  0
 29 26  2  0
M  END
$$$$
