
     RDKit          3D

 30 32  0  0  0  0  0  0  0  0999 V2000
  122.5587  156.4559  181.9489 C   0  0  0  0  0  0  0  0  0  0  0  0
  123.8359  151.3788  177.7911 C   0  0  0  0  0  0  0  0  0  0  0  0
  122.9612  150.9672  176.8218 C   0  0  0  0  0  0  0  0  0  0  0  0
  122.8140  151.7280  175.6723 C   0  0  0  0  0  0  0  0  0  0  0  0
  123.5492  152.8662  175.5456 C   0  0  0  0  0  0  0  0  0  0  0  0
  124.4395  153.2754  176.5437 C   0  0  0  0  0  0  0  0  0  0  0  0
  125.8078  154.2816  179.0031 C   0  0  0  0  0  0  0  0  0  0  0  0
  123.3344  157.2480  179.4375 C   0  0  0  0  0  0  0  0  0  0  0  0
  121.9991  157.0343  179.6805 C   0  0  0  0  0  0  0  0  0  0  0  0
  120.9806  157.2183  178.6364 C   0  0  0  0  0  0  0  0  0  0  0  0
  118.6169  157.2730  177.9586 C   0  0  0  0  0  0  0  0  0  0  0  0
  123.9139  156.6857  181.6599 C   0  0  0  0  0  0  0  0  0  0  0  0
  121.6296  156.6365  180.9478 C   0  0  0  0  0  0  0  0  0  0  0  0
  124.3226  157.0789  180.4173 C   0  0  0  0  0  0  0  0  0  0  0  0
  126.6787  154.6708  179.9937 C   0  0  0  0  0  0  0  0  0  0  0  0
  127.2638  153.6561  180.7287 C   0  0  0  0  0  0  0  0  0  0  0  0
  127.0120  152.3246  180.5088 C   0  0  0  0  0  0  0  0  0  0  0  0
  126.1369  151.9592  179.5121 C   0  0  0  0  0  0  0  0  0  0  0  0
  125.5213  152.9422  178.7433 C   0  0  0  0  0  0  0  0  0  0  0  0
  124.5998  152.5314  177.6952 C   0  0  0  0  0  0  0  0  0  0  0  0
  128.1246  154.0122  181.7094 F   0  0  0  0  0  0  0  0  0  0  0  0
  125.8453  150.6550  179.2444 F   0  0  0  0  0  0  0  0  0  0  0  0
  127.0216  156.0018  180.2448 N   0  0  0  0  0  0  0  0  0  0  0  0
  124.8574  156.5159  182.6571 O   0  0  0  0  0  0  0  0  0  0  0  0
  126.0651  157.7227  178.5407 O   0  0  0  0  0  0  0  0  0  0  0  0
  126.5764  158.4961  180.7511 O   0  0  0  0  0  0  0  0  0  0  0  0
  121.3546  157.4602  177.4616 O   0  0  0  0  0  0  0  0  0  0  0  0
  119.6461  157.1325  178.9142 O   0  0  0  0  0  0  0  0  0  0  0  0
  125.9717  157.3084  180.0149 S   0  0  1  0  0  6  0  0  0  0  0  0
  122.0856  155.9547  183.5426 Cl  0  0  0  0  0  0  0  0  0  0  0  0
 12  1  2  0
  1 13  1  0
  1 30  1  0
  2  3  2  0
 20  2  1  0
  3  4  1  0
  5  4  2  0
  6  5  1  0
 20  6  2  0
 15  7  2  0
  7 19  1  0
  8  9  1  0
 14  8  2  0
  9 10  1  0
  9 13  2  0
 10 27  2  0
 10 28  1  0
 28 11  1  0
 14 12  1  0
 12 24  1  0
 29 14  1  0
 15 16  1  0
 23 15  1  0
 16 17  2  0
 16 21  1  0
 17 18  1  0
 19 18  2  0
 18 22  1  0
 19 20  1  0
 29 23  1  6
 29 25  2  0
 29 26  2  0
M  END
$$$$
