
     RDKit          3D

 30 32  0  0  0  0  0  0  0  0999 V2000
  119.1442  153.4883  178.6697 C   0  0  0  0  0  0  0  0  0  0  0  0
  117.3964  148.9040  175.0398 C   0  0  0  0  0  0  0  0  0  0  0  0
  117.1835  147.6867  175.6287 C   0  0  0  0  0  0  0  0  0  0  0  0
  115.9998  147.4614  176.3142 C   0  0  0  0  0  0  0  0  0  0  0  0
  115.0831  148.4651  176.3788 C   0  0  0  0  0  0  0  0  0  0  0  0
  115.3131  149.7044  175.7725 C   0  0  0  0  0  0  0  0  0  0  0  0
  116.4593  152.4442  175.0750 C   0  0  0  0  0  0  0  0  0  0  0  0
  116.4042  153.4870  178.8386 C   0  0  0  0  0  0  0  0  0  0  0  0
  117.1231  152.7462  179.7455 C   0  0  0  0  0  0  0  0  0  0  0  0
  116.4666  151.9578  180.7983 C   0  0  0  0  0  0  0  0  0  0  0  0
  114.4137  151.2326  181.9429 C   0  0  0  0  0  0  0  0  0  0  0  0
  118.3729  154.2331  177.7623 C   0  0  0  0  0  0  0  0  0  0  0  0
  118.4980  152.7595  179.6439 C   0  0  0  0  0  0  0  0  0  0  0  0
  117.0086  154.2460  177.8269 C   0  0  0  0  0  0  0  0  0  0  0  0
  116.7006  153.6574  174.4741 C   0  0  0  0  0  0  0  0  0  0  0  0
  117.2433  153.6144  173.2028 C   0  0  0  0  0  0  0  0  0  0  0  0
  117.5369  152.4441  172.5480 C   0  0  0  0  0  0  0  0  0  0  0  0
  117.2867  151.2423  173.1693 C   0  0  0  0  0  0  0  0  0  0  0  0
  116.7410  151.2306  174.4493 C   0  0  0  0  0  0  0  0  0  0  0  0
  116.4854  149.9478  175.0857 C   0  0  0  0  0  0  0  0  0  0  0  0
  117.4904  154.7943  172.5894 F   0  0  0  0  0  0  0  0  0  0  0  0
  117.5559  150.0469  172.5724 F   0  0  0  0  0  0  0  0  0  0  0  0
  116.3842  154.8872  175.0568 N   0  0  0  0  0  0  0  0  0  0  0  0
  119.0082  154.9760  176.7836 O   0  0  0  0  0  0  0  0  0  0  0  0
  114.5712  154.6946  176.9158 O   0  0  0  0  0  0  0  0  0  0  0  0
  116.0339  156.5929  176.9657 O   0  0  0  0  0  0  0  0  0  0  0  0
  117.1797  151.2932  181.5910 O   0  0  0  0  0  0  0  0  0  0  0  0
  115.1075  151.9323  180.9323 O   0  0  0  0  0  0  0  0  0  0  0  0
  116.0366  155.0937  176.6996 S   0  0  1  0  0  6  0  0  0  0  0  0
  120.8763  153.5000  178.5480 Cl  0  0  0  0  0  0  0  0  0  0  0  0
 12  1  2  0
  1 13  1  0
  1 30  1  0
  2  3  2  0
 20  2  1  0
  3  4  1  0
  5  4  2  0
  6  5  1  0
 20  6  2  0
 15  7  2  0
  7 19  1  0
  8  9  1  0
 14  8  2  0
  9 10  1  0
  9 13  2  0
 10 27  2  0
 10 28  1  0
 28 11  1  0
 14 12  1  0
 12 24  1  0
 29 14  1  0
 15 16  1  0
 23 15  1  0
 16 17  2  0
 16 21  1  0
 17 18  1  0
 19 18  2  0
 18 22  1  0
 19 20  1  0
 29 23  1  6
 29 25  2  0
 29 26  2  0
M  END
$$$$
