
     RDKit          3D

 28 31  0  0  0  0  0  0  0  0999 V2000
  -15.0220 -102.9814   -3.3421 C   0  0  0  0  0  0  0  0  0  0  0  0
  -13.6914 -103.0724   -3.7498 C   0  0  0  0  0  0  0  0  0  0  0  0
  -12.9009 -104.1325   -3.3611 C   0  0  0  0  0  0  0  0  0  0  0  0
  -13.4114 -105.0935   -2.5802 N   0  0  0  0  0  0  0  0  0  0  0  0
  -15.4803 -103.9728   -2.5603 N   0  0  0  0  0  0  0  0  0  0  0  0
   -9.2778 -103.3198   -3.9409 C   0  0  0  0  0  0  0  0  0  0  0  0
  -10.6299 -103.3988   -3.3386 C   0  0  0  0  0  0  0  0  0  0  0  0
  -11.5546 -104.2015   -3.7881 N   0  0  0  0  0  0  0  0  0  0  0  0
  -14.7040 -105.0145   -2.1782 C   0  0  0  0  0  0  0  0  0  0  0  0
  -13.4459 -101.9791   -4.5212 C   0  0  0  0  0  0  0  0  0  0  0  0
  -14.6180 -101.2529   -4.5671 C   0  0  0  0  0  0  0  0  0  0  0  0
  -15.5651 -101.8828   -3.8413 N   0  0  0  0  0  0  0  0  0  0  0  0
  -16.8956 -101.4008   -3.6788 C   0  0  2  0  0  0  0  0  0  0  0  0
  -17.5545 -101.2244   -4.8929 O   0  0  0  0  0  0  0  0  0  0  0  0
  -16.9611 -100.0046   -3.0952 C   0  0  2  0  0  0  0  0  0  0  0  0
  -16.6869  -99.9972   -1.7320 O   0  0  0  0  0  0  0  0  0  0  0  0
  -18.4104  -99.6674   -3.3808 C   0  0  2  0  0  0  0  0  0  0  0  0
  -19.1663 -100.1357   -2.3083 O   0  0  0  0  0  0  0  0  0  0  0  0
  -18.6594 -100.4482   -4.6496 C   0  0  1  0  0  0  0  0  0  0  0  0
  -18.9560  -99.4548   -5.7482 C   0  0  2  0  0  0  0  0  0  0  0  0
  -18.2650  -98.2723   -5.4036 O   0  0  0  0  0  0  0  0  0  0  0  0
  -20.3959  -99.1894   -5.8901 C   0  0  0  0  0  0  0  0  0  0  0  0
  -21.2295  -99.9821   -6.6516 C   0  0  0  0  0  0  0  0  0  0  0  0
  -22.5825  -99.6979   -6.7600 C   0  0  0  0  0  0  0  0  0  0  0  0
  -23.1517  -98.6189   -6.1167 C   0  0  0  0  0  0  0  0  0  0  0  0
  -24.8735  -98.2694   -6.2633 Cl  0  0  0  0  0  0  0  0  0  0  0  0
  -22.3196  -97.8253   -5.3549 C   0  0  0  0  0  0  0  0  0  0  0  0
  -20.9696  -98.1086   -5.2467 C   0  0  0  0  0  0  0  0  0  0  0  0
  2  1  1  0
  1  5  2  0
  1 12  1  0
  3  2  2  0
  2 10  1  0
  3  4  1  0
  8  3  1  0
  4  9  2  0
  9  5  1  0
  7  6  1  0
  7  8  2  0
 10 11  2  0
 11 12  1  0
 13 12  1  6
 13 14  1  0
 13 15  1  0
 19 14  1  6
 15 16  1  1
 15 17  1  0
 17 18  1  1
 17 19  1  0
 19 20  1  0
 20 21  1  1
 20 22  1  0
 22 23  2  0
 22 28  1  0
 23 24  1  0
 24 25  2  0
 25 26  1  0
 25 27  1  0
 27 28  2  0
M  END
$$$$
