
     RDKit          3D

 28 31  0  0  0  0  0  0  0  0999 V2000
  -15.1909 -102.8858   -3.2614 C   0  0  0  0  0  0  0  0  0  0  0  0
  -13.8188 -102.9226   -3.5087 C   0  0  0  0  0  0  0  0  0  0  0  0
  -13.0480 -103.9806   -3.0770 C   0  0  0  0  0  0  0  0  0  0  0  0
  -13.6183 -104.9921   -2.4094 N   0  0  0  0  0  0  0  0  0  0  0  0
  -15.7084 -103.9264   -2.5880 N   0  0  0  0  0  0  0  0  0  0  0  0
   -9.6795 -103.3807   -4.6409 C   0  0  0  0  0  0  0  0  0  0  0  0
  -11.1098 -103.2620   -4.2699 C   0  0  0  0  0  0  0  0  0  0  0  0
  -11.6588 -103.9941   -3.3404 N   0  0  0  0  0  0  0  0  0  0  0  0
  -14.9515 -104.9660   -2.1638 C   0  0  0  0  0  0  0  0  0  0  0  0
  -13.5167 -101.7862   -4.1927 C   0  0  0  0  0  0  0  0  0  0  0  0
  -14.6969 -101.0885   -4.3464 C   0  0  0  0  0  0  0  0  0  0  0  0
  -15.7041 -101.7776   -3.7709 N   0  0  0  0  0  0  0  0  0  0  0  0
  -17.0588 -101.3381   -3.7485 C   0  0  2  0  0  0  0  0  0  0  0  0
  -17.6379 -101.3190   -5.0149 O   0  0  0  0  0  0  0  0  0  0  0  0
  -17.2137  -99.8921   -3.3249 C   0  0  2  0  0  0  0  0  0  0  0  0
  -17.0351  -99.7291   -1.9557 O   0  0  0  0  0  0  0  0  0  0  0  0
  -18.6508  -99.6489   -3.7392 C   0  0  2  0  0  0  0  0  0  0  0  0
  -19.4623 -100.0329   -2.6737 O   0  0  0  0  0  0  0  0  0  0  0  0
  -18.7836 -100.5691   -4.9294 C   0  0  1  0  0  0  0  0  0  0  0  0
  -19.0382  -99.7109   -6.1461 C   0  0  2  0  0  0  0  0  0  0  0  0
  -18.0460  -98.7060   -6.1308 O   0  0  0  0  0  0  0  0  0  0  0  0
  -20.3815  -99.1112   -6.1378 C   0  0  0  0  0  0  0  0  0  0  0  0
  -20.6131  -97.8044   -5.7613 C   0  0  0  0  0  0  0  0  0  0  0  0
  -21.8953  -97.2761   -5.7671 C   0  0  0  0  0  0  0  0  0  0  0  0
  -22.9883  -98.0268   -6.1465 C   0  0  0  0  0  0  0  0  0  0  0  0
  -24.6130  -97.3423   -6.1493 Cl  0  0  0  0  0  0  0  0  0  0  0  0
  -22.7584  -99.3336   -6.5233 C   0  0  0  0  0  0  0  0  0  0  0  0
  -21.4792  -99.8609   -6.5176 C   0  0  0  0  0  0  0  0  0  0  0  0
  2  1  1  0
  1  5  2  0
  1 12  1  0
  3  2  2  0
  2 10  1  0
  3  4  1  0
  8  3  1  0
  4  9  2  0
  9  5  1  0
  7  6  1  0
  7  8  2  0
 10 11  2  0
 11 12  1  0
 13 12  1  6
 13 14  1  0
 13 15  1  0
 19 14  1  6
 15 16  1  1
 15 17  1  0
 17 18  1  1
 17 19  1  0
 19 20  1  0
 20 21  1  1
 20 22  1  0
 22 23  2  0
 22 28  1  0
 23 24  1  0
 24 25  2  0
 25 26  1  0
 25 27  1  0
 27 28  2  0
M  END
$$$$
