
     RDKit          3D

 28 31  0  0  0  0  0  0  0  0999 V2000
  -15.2157 -102.7105   -3.4356 C   0  0  0  0  0  0  0  0  0  0  0  0
  -13.8767 -102.7881   -3.8176 C   0  0  0  0  0  0  0  0  0  0  0  0
  -13.0649 -103.8026   -3.3575 C   0  0  0  0  0  0  0  0  0  0  0  0
  -13.5627 -104.7315   -2.5307 N   0  0  0  0  0  0  0  0  0  0  0  0
  -15.6604 -103.6684   -2.6055 N   0  0  0  0  0  0  0  0  0  0  0  0
   -9.4816 -102.8986   -4.0677 C   0  0  0  0  0  0  0  0  0  0  0  0
  -10.8730 -102.8797   -3.5568 C   0  0  0  0  0  0  0  0  0  0  0  0
  -11.7105 -103.8589   -3.7597 N   0  0  0  0  0  0  0  0  0  0  0  0
  -14.8633 -104.6652   -2.1532 C   0  0  0  0  0  0  0  0  0  0  0  0
  -13.6474 -101.7338   -4.6463 C   0  0  0  0  0  0  0  0  0  0  0  0
  -14.8374 -101.0437   -4.7509 C   0  0  0  0  0  0  0  0  0  0  0  0
  -15.7793 -101.6572   -4.0046 N   0  0  0  0  0  0  0  0  0  0  0  0
  -17.1246 -101.2032   -3.8896 C   0  0  2  0  0  0  0  0  0  0  0  0
  -17.8120 -101.2497   -5.0998 O   0  0  0  0  0  0  0  0  0  0  0  0
  -17.2342  -99.7341   -3.5374 C   0  0  2  0  0  0  0  0  0  0  0  0
  -16.9357  -99.4959   -2.2004 O   0  0  0  0  0  0  0  0  0  0  0  0
  -18.7006  -99.4999   -3.8384 C   0  0  2  0  0  0  0  0  0  0  0  0
  -19.4179  -99.8148   -2.6862 O   0  0  0  0  0  0  0  0  0  0  0  0
  -18.9419 -100.4845   -4.9581 C   0  0  1  0  0  0  0  0  0  0  0  0
  -19.2973  -99.6936   -6.1950 C   0  0  2  0  0  0  0  0  0  0  0  0
  -18.2411  -98.7768   -6.3902 O   0  0  0  0  0  0  0  0  0  0  0  0
  -20.5788  -98.9844   -6.0578 C   0  0  0  0  0  0  0  0  0  0  0  0
  -21.7943  -99.5818   -6.3200 C   0  0  0  0  0  0  0  0  0  0  0  0
  -22.9810  -98.8784   -6.1785 C   0  0  0  0  0  0  0  0  0  0  0  0
  -23.0000  -97.5604   -5.7726 C   0  0  0  0  0  0  0  0  0  0  0  0
  -24.5162  -96.6781   -5.5969 Cl  0  0  0  0  0  0  0  0  0  0  0  0
  -21.7855  -96.9616   -5.5101 C   0  0  0  0  0  0  0  0  0  0  0  0
  -20.6013  -97.6633   -5.6512 C   0  0  0  0  0  0  0  0  0  0  0  0
  2  1  1  0
  1  5  2  0
  1 12  1  0
  3  2  2  0
  2 10  1  0
  3  4  1  0
  8  3  1  0
  4  9  2  0
  9  5  1  0
  7  6  1  0
  7  8  2  0
 10 11  2  0
 11 12  1  0
 13 12  1  6
 13 14  1  0
 13 15  1  0
 19 14  1  6
 15 16  1  1
 15 17  1  0
 17 18  1  1
 17 19  1  0
 19 20  1  0
 20 21  1  1
 20 22  1  0
 22 23  2  0
 22 28  1  0
 23 24  1  0
 24 25  2  0
 25 26  1  0
 25 27  1  0
 27 28  2  0
M  END
$$$$
