
     RDKit          3D

 28 31  0  0  0  0  0  0  0  0999 V2000
  -14.8806 -102.3844   -3.3204 C   0  0  0  0  0  0  0  0  0  0  0  0
  -13.5359 -102.4114   -3.6894 C   0  0  0  0  0  0  0  0  0  0  0  0
  -12.6930 -103.3997   -3.2282 C   0  0  0  0  0  0  0  0  0  0  0  0
  -13.1653 -104.3518   -2.4130 N   0  0  0  0  0  0  0  0  0  0  0  0
  -15.2989 -103.3636   -2.5016 N   0  0  0  0  0  0  0  0  0  0  0  0
   -8.9359 -103.5591   -3.1563 C   0  0  0  0  0  0  0  0  0  0  0  0
  -10.3661 -103.7088   -2.7967 C   0  0  0  0  0  0  0  0  0  0  0  0
  -11.3335 -103.4046   -3.6171 N   0  0  0  0  0  0  0  0  0  0  0  0
  -14.4711 -104.3347   -2.0482 C   0  0  0  0  0  0  0  0  0  0  0  0
  -13.3363 -101.3436   -4.5083 C   0  0  0  0  0  0  0  0  0  0  0  0
  -14.5491 -100.6956   -4.6201 C   0  0  0  0  0  0  0  0  0  0  0  0
  -15.4758 -101.3477   -3.8876 N   0  0  0  0  0  0  0  0  0  0  0  0
  -16.8375 -100.9429   -3.7831 C   0  0  2  0  0  0  0  0  0  0  0  0
  -17.5035 -100.9788   -5.0057 O   0  0  0  0  0  0  0  0  0  0  0  0
  -17.0031  -99.4887   -3.3928 C   0  0  2  0  0  0  0  0  0  0  0  0
  -16.7344  -99.2781   -2.0449 O   0  0  0  0  0  0  0  0  0  0  0  0
  -18.4717  -99.2959   -3.7120 C   0  0  2  0  0  0  0  0  0  0  0  0
  -19.1961  -99.6670   -2.5812 O   0  0  0  0  0  0  0  0  0  0  0  0
  -18.6610 -100.2564   -4.8622 C   0  0  1  0  0  0  0  0  0  0  0  0
  -19.0235  -99.4438   -6.0828 C   0  0  2  0  0  0  0  0  0  0  0  0
  -18.0215  -98.4565   -6.2073 O   0  0  0  0  0  0  0  0  0  0  0  0
  -20.3513  -98.8212   -5.9676 C   0  0  0  0  0  0  0  0  0  0  0  0
  -20.5257  -97.4790   -5.7007 C   0  0  0  0  0  0  0  0  0  0  0  0
  -21.7951  -96.9300   -5.5998 C   0  0  0  0  0  0  0  0  0  0  0  0
  -22.9318  -97.6944   -5.7604 C   0  0  0  0  0  0  0  0  0  0  0  0
  -24.5396  -96.9832   -5.6294 Cl  0  0  0  0  0  0  0  0  0  0  0  0
  -22.7592  -99.0366   -6.0273 C   0  0  0  0  0  0  0  0  0  0  0  0
  -21.4927  -99.5846   -6.1280 C   0  0  0  0  0  0  0  0  0  0  0  0
  2  1  1  0
  1  5  2  0
  1 12  1  0
  3  2  2  0
  2 10  1  0
  3  4  1  0
  8  3  1  0
  4  9  2  0
  9  5  1  0
  7  6  1  0
  7  8  2  0
 10 11  2  0
 11 12  1  0
 13 12  1  6
 13 14  1  0
 13 15  1  0
 19 14  1  6
 15 16  1  1
 15 17  1  0
 17 18  1  1
 17 19  1  0
 19 20  1  0
 20 21  1  1
 20 22  1  0
 22 23  2  0
 22 28  1  0
 23 24  1  0
 24 25  2  0
 25 26  1  0
 25 27  1  0
 27 28  2  0
M  END
$$$$
