
     RDKit          3D

 28 31  0  0  0  0  0  0  0  0999 V2000
  -15.2474 -102.5048   -3.2377 C   0  0  0  0  0  0  0  0  0  0  0  0
  -13.9034 -102.4049   -3.5963 C   0  0  0  0  0  0  0  0  0  0  0  0
  -13.0175 -103.4242   -3.3201 C   0  0  0  0  0  0  0  0  0  0  0  0
  -13.4467 -104.5301   -2.6982 N   0  0  0  0  0  0  0  0  0  0  0  0
  -15.6215 -103.6356   -2.6168 N   0  0  0  0  0  0  0  0  0  0  0  0
   -9.3363 -104.0595   -3.7805 C   0  0  0  0  0  0  0  0  0  0  0  0
  -10.7717 -104.2216   -3.4479 C   0  0  0  0  0  0  0  0  0  0  0  0
  -11.6597 -103.2984   -3.6941 N   0  0  0  0  0  0  0  0  0  0  0  0
  -14.7515 -104.6372   -2.3453 C   0  0  0  0  0  0  0  0  0  0  0  0
  -13.7518 -101.1965   -4.2023 C   0  0  0  0  0  0  0  0  0  0  0  0
  -14.9919 -100.5919   -4.2006 C   0  0  0  0  0  0  0  0  0  0  0  0
  -15.8882 -101.4077   -3.6075 N   0  0  0  0  0  0  0  0  0  0  0  0
  -17.2661 -101.0883   -3.4391 C   0  0  2  0  0  0  0  0  0  0  0  0
  -17.8208 -100.4920   -4.5688 O   0  0  0  0  0  0  0  0  0  0  0  0
  -17.5119 -100.0267   -2.3870 C   0  0  2  0  0  0  0  0  0  0  0  0
  -17.3693 -100.5287   -1.0982 O   0  0  0  0  0  0  0  0  0  0  0  0
  -18.9523  -99.6751   -2.6992 C   0  0  2  0  0  0  0  0  0  0  0  0
  -19.7608 -100.5536   -1.9810 O   0  0  0  0  0  0  0  0  0  0  0  0
  -19.0091  -99.9215   -4.1883 C   0  0  1  0  0  0  0  0  0  0  0  0
  -19.2891  -98.5986   -4.8614 C   0  0  2  0  0  0  0  0  0  0  0  0
  -19.2683  -97.6263   -3.8373 O   0  0  0  0  0  0  0  0  0  0  0  0
  -20.5845  -98.5874   -5.5584 C   0  0  0  0  0  0  0  0  0  0  0  0
  -20.6985  -98.3869   -6.9186 C   0  0  0  0  0  0  0  0  0  0  0  0
  -21.9390  -98.3836   -7.5384 C   0  0  0  0  0  0  0  0  0  0  0  0
  -23.1057  -98.5789   -6.8293 C   0  0  0  0  0  0  0  0  0  0  0  0
  -24.6762  -98.5722   -7.6303 Cl  0  0  0  0  0  0  0  0  0  0  0  0
  -22.9934  -98.7795   -5.4693 C   0  0  0  0  0  0  0  0  0  0  0  0
  -21.7558  -98.7829   -4.8506 C   0  0  0  0  0  0  0  0  0  0  0  0
  2  1  1  0
  1  5  2  0
  1 12  1  0
  3  2  2  0
  2 10  1  0
  3  4  1  0
  8  3  1  0
  4  9  2  0
  9  5  1  0
  7  6  1  0
  7  8  2  0
 10 11  2  0
 11 12  1  0
 13 12  1  6
 13 14  1  0
 13 15  1  0
 19 14  1  6
 15 16  1  1
 15 17  1  0
 17 18  1  1
 17 19  1  0
 19 20  1  0
 20 21  1  1
 20 22  1  0
 22 23  2  0
 22 28  1  0
 23 24  1  0
 24 25  2  0
 25 26  1  0
 25 27  1  0
 27 28  2  0
M  END
$$$$
