
     RDKit          3D

 28 31  0  0  0  0  0  0  0  0999 V2000
  -15.2114 -102.6121   -3.3556 C   0  0  0  0  0  0  0  0  0  0  0  0
  -13.8949 -102.7763   -3.7856 C   0  0  0  0  0  0  0  0  0  0  0  0
  -13.1024 -103.7829   -3.2769 C   0  0  0  0  0  0  0  0  0  0  0  0
  -13.5973 -104.6196   -2.3555 N   0  0  0  0  0  0  0  0  0  0  0  0
  -15.6542 -103.4796   -2.4306 N   0  0  0  0  0  0  0  0  0  0  0  0
   -9.5889 -103.0626   -4.4190 C   0  0  0  0  0  0  0  0  0  0  0  0
  -10.9647 -102.9148   -3.8876 C   0  0  0  0  0  0  0  0  0  0  0  0
  -11.7707 -103.9282   -3.7295 N   0  0  0  0  0  0  0  0  0  0  0  0
  -14.8760 -104.4686   -1.9306 C   0  0  0  0  0  0  0  0  0  0  0  0
  -13.6634 -101.8037   -4.7081 C   0  0  0  0  0  0  0  0  0  0  0  0
  -14.8298 -101.0754   -4.8200 C   0  0  0  0  0  0  0  0  0  0  0  0
  -15.7596 -101.5861   -3.9863 N   0  0  0  0  0  0  0  0  0  0  0  0
  -17.0801 -101.0687   -3.8533 C   0  0  2  0  0  0  0  0  0  0  0  0
  -17.8187 -101.1736   -5.0292 O   0  0  0  0  0  0  0  0  0  0  0  0
  -17.1172  -99.5746   -3.6069 C   0  0  2  0  0  0  0  0  0  0  0  0
  -16.7541  -99.2530   -2.3037 O   0  0  0  0  0  0  0  0  0  0  0  0
  -18.5845  -99.3011   -3.8673 C   0  0  2  0  0  0  0  0  0  0  0  0
  -19.2650  -99.5012   -2.6681 O   0  0  0  0  0  0  0  0  0  0  0  0
  -18.9107 -100.3531   -4.9009 C   0  0  1  0  0  0  0  0  0  0  0  0
  -19.2861  -99.6396   -6.1783 C   0  0  2  0  0  0  0  0  0  0  0  0
  -18.1397  -98.9158   -6.5736 O   0  0  0  0  0  0  0  0  0  0  0  0
  -20.4322  -98.7351   -5.9991 C   0  0  0  0  0  0  0  0  0  0  0  0
  -21.7301  -99.1885   -5.8845 C   0  0  0  0  0  0  0  0  0  0  0  0
  -22.7837  -98.3027   -5.7165 C   0  0  0  0  0  0  0  0  0  0  0  0
  -22.5839  -96.9394   -5.6568 C   0  0  0  0  0  0  0  0  0  0  0  0
  -23.9329  -95.8246   -5.4428 Cl  0  0  0  0  0  0  0  0  0  0  0  0
  -21.2868  -96.4844   -5.7712 C   0  0  0  0  0  0  0  0  0  0  0  0
  -20.2353  -97.3680   -5.9388 C   0  0  0  0  0  0  0  0  0  0  0  0
  2  1  1  0
  1  5  2  0
  1 12  1  0
  3  2  2  0
  2 10  1  0
  3  4  1  0
  8  3  1  0
  4  9  2  0
  9  5  1  0
  7  6  1  0
  7  8  2  0
 10 11  2  0
 11 12  1  0
 13 12  1  6
 13 14  1  0
 13 15  1  0
 19 14  1  6
 15 16  1  1
 15 17  1  0
 17 18  1  1
 17 19  1  0
 19 20  1  0
 20 21  1  1
 20 22  1  0
 22 23  2  0
 22 28  1  0
 23 24  1  0
 24 25  2  0
 25 26  1  0
 25 27  1  0
 27 28  2  0
M  END
$$$$
