
     RDKit          3D

 28 31  0  0  0  0  0  0  0  0999 V2000
  -15.0736 -102.7446   -3.3106 C   0  0  0  0  0  0  0  0  0  0  0  0
  -13.7124 -102.8147   -3.6064 C   0  0  0  0  0  0  0  0  0  0  0  0
  -12.9442 -103.8716   -3.1673 C   0  0  0  0  0  0  0  0  0  0  0  0
  -13.5065 -104.8496   -2.4453 N   0  0  0  0  0  0  0  0  0  0  0  0
  -15.5834 -103.7525   -2.5837 N   0  0  0  0  0  0  0  0  0  0  0  0
   -9.5327 -103.0595   -4.5346 C   0  0  0  0  0  0  0  0  0  0  0  0
  -10.9616 -102.9762   -4.1489 C   0  0  0  0  0  0  0  0  0  0  0  0
  -11.5662 -103.9193   -3.4806 N   0  0  0  0  0  0  0  0  0  0  0  0
  -14.8291 -104.7910   -2.1522 C   0  0  0  0  0  0  0  0  0  0  0  0
  -13.4167 -101.7075   -4.3393 C   0  0  0  0  0  0  0  0  0  0  0  0
  -14.5897 -100.9939   -4.4735 C   0  0  0  0  0  0  0  0  0  0  0  0
  -15.5864 -101.6449   -3.8385 N   0  0  0  0  0  0  0  0  0  0  0  0
  -16.9317 -101.1802   -3.7817 C   0  0  2  0  0  0  0  0  0  0  0  0
  -17.5356 -101.1299   -5.0356 O   0  0  0  0  0  0  0  0  0  0  0  0
  -17.0502  -99.7385   -3.3325 C   0  0  2  0  0  0  0  0  0  0  0  0
  -16.8411  -99.6009   -1.9647 O   0  0  0  0  0  0  0  0  0  0  0  0
  -18.4903  -99.4615   -3.7135 C   0  0  2  0  0  0  0  0  0  0  0  0
  -19.2875  -99.8471   -2.6379 O   0  0  0  0  0  0  0  0  0  0  0  0
  -18.6647 -100.3599   -4.9151 C   0  0  1  0  0  0  0  0  0  0  0  0
  -18.9271  -99.4776   -6.1128 C   0  0  2  0  0  0  0  0  0  0  0  0
  -17.9937  -98.4208   -6.0323 O   0  0  0  0  0  0  0  0  0  0  0  0
  -20.3013  -98.9531   -6.1322 C   0  0  0  0  0  0  0  0  0  0  0  0
  -21.3738  -99.6872   -6.5949 C   0  0  0  0  0  0  0  0  0  0  0  0
  -22.6549  -99.1564   -6.5966 C   0  0  0  0  0  0  0  0  0  0  0  0
  -22.9132  -97.8809   -6.1397 C   0  0  0  0  0  0  0  0  0  0  0  0
  -24.5470  -97.2187   -6.1476 Cl  0  0  0  0  0  0  0  0  0  0  0  0
  -21.8419  -97.1457   -5.6768 C   0  0  0  0  0  0  0  0  0  0  0  0
  -20.5636  -97.6751   -5.6750 C   0  0  0  0  0  0  0  0  0  0  0  0
  2  1  1  0
  1  5  2  0
  1 12  1  0
  3  2  2  0
  2 10  1  0
  3  4  1  0
  8  3  1  0
  4  9  2  0
  9  5  1  0
  7  6  1  0
  7  8  2  0
 10 11  2  0
 11 12  1  0
 13 12  1  6
 13 14  1  0
 13 15  1  0
 19 14  1  6
 15 16  1  1
 15 17  1  0
 17 18  1  1
 17 19  1  0
 19 20  1  0
 20 21  1  1
 20 22  1  0
 22 23  2  0
 22 28  1  0
 23 24  1  0
 24 25  2  0
 25 26  1  0
 25 27  1  0
 27 28  2  0
M  END
$$$$
