
     RDKit          3D

 28 31  0  0  0  0  0  0  0  0999 V2000
  -15.1433 -102.6292   -3.4346 C   0  0  0  0  0  0  0  0  0  0  0  0
  -13.7853 -102.6599   -3.7507 C   0  0  0  0  0  0  0  0  0  0  0  0
  -12.9806 -103.6947   -3.3248 C   0  0  0  0  0  0  0  0  0  0  0  0
  -13.5037 -104.6894   -2.5960 N   0  0  0  0  0  0  0  0  0  0  0  0
  -15.6131 -103.6522   -2.7018 N   0  0  0  0  0  0  0  0  0  0  0  0
   -9.7511 -103.3196   -5.2065 C   0  0  0  0  0  0  0  0  0  0  0  0
  -11.1350 -103.1075   -4.7194 C   0  0  0  0  0  0  0  0  0  0  0  0
  -11.6066 -103.7024   -3.6587 N   0  0  0  0  0  0  0  0  0  0  0  0
  -14.8229 -104.6691   -2.2831 C   0  0  0  0  0  0  0  0  0  0  0  0
  -13.5324 -101.5438   -4.4862 C   0  0  0  0  0  0  0  0  0  0  0  0
  -14.7274 -100.8640   -4.6018 C   0  0  0  0  0  0  0  0  0  0  0  0
  -15.6954 -101.5442   -3.9530 N   0  0  0  0  0  0  0  0  0  0  0  0
  -17.0524 -101.1184   -3.8755 C   0  0  2  0  0  0  0  0  0  0  0  0
  -17.7398 -101.2951   -5.0737 O   0  0  0  0  0  0  0  0  0  0  0  0
  -17.2021  -99.6266   -3.6599 C   0  0  2  0  0  0  0  0  0  0  0  0
  -16.9087  -99.2580   -2.3516 O   0  0  0  0  0  0  0  0  0  0  0  0
  -18.6747  -99.4612   -3.9757 C   0  0  2  0  0  0  0  0  0  0  0  0
  -19.3817  -99.6880   -2.7967 O   0  0  0  0  0  0  0  0  0  0  0  0
  -18.8901 -100.5511   -4.9989 C   0  0  1  0  0  0  0  0  0  0  0  0
  -19.2686  -99.8878   -6.3022 C   0  0  2  0  0  0  0  0  0  0  0  0
  -18.0712  -99.3631   -6.8364 O   0  0  0  0  0  0  0  0  0  0  0  0
  -20.2644  -98.8206   -6.1194 C   0  0  0  0  0  0  0  0  0  0  0  0
  -19.9166  -97.4969   -5.9465 C   0  0  0  0  0  0  0  0  0  0  0  0
  -20.8861  -96.5200   -5.7772 C   0  0  0  0  0  0  0  0  0  0  0  0
  -22.2313  -96.8247   -5.7741 C   0  0  0  0  0  0  0  0  0  0  0  0
  -23.4534  -95.5725   -5.5579 Cl  0  0  0  0  0  0  0  0  0  0  0  0
  -22.5807  -98.1478   -5.9469 C   0  0  0  0  0  0  0  0  0  0  0  0
  -21.6134  -99.1227   -6.1158 C   0  0  0  0  0  0  0  0  0  0  0  0
  2  1  1  0
  1  5  2  0
  1 12  1  0
  3  2  2  0
  2 10  1  0
  3  4  1  0
  8  3  1  0
  4  9  2  0
  9  5  1  0
  7  6  1  0
  7  8  2  0
 10 11  2  0
 11 12  1  0
 13 12  1  6
 13 14  1  0
 13 15  1  0
 19 14  1  6
 15 16  1  1
 15 17  1  0
 17 18  1  1
 17 19  1  0
 19 20  1  0
 20 21  1  1
 20 22  1  0
 22 23  2  0
 22 28  1  0
 23 24  1  0
 24 25  2  0
 25 26  1  0
 25 27  1  0
 27 28  2  0
M  END
$$$$
