
     RDKit          3D

 28 31  0  0  0  0  0  0  0  0999 V2000
  -15.0210 -102.6338   -3.2734 C   0  0  0  0  0  0  0  0  0  0  0  0
  -13.6454 -102.5632   -3.4920 C   0  0  0  0  0  0  0  0  0  0  0  0
  -12.8074 -103.5745   -3.0736 C   0  0  0  0  0  0  0  0  0  0  0  0
  -13.3147 -104.6442   -2.4472 N   0  0  0  0  0  0  0  0  0  0  0  0
  -15.4737 -103.7289   -2.6409 N   0  0  0  0  0  0  0  0  0  0  0  0
   -9.4471 -104.5922   -4.2393 C   0  0  0  0  0  0  0  0  0  0  0  0
  -10.8286 -104.0604   -4.3163 C   0  0  0  0  0  0  0  0  0  0  0  0
  -11.4161 -103.4789   -3.3073 N   0  0  0  0  0  0  0  0  0  0  0  0
  -14.6508 -104.7226   -2.2298 C   0  0  0  0  0  0  0  0  0  0  0  0
  -13.4144 -101.3880   -4.1371 C   0  0  0  0  0  0  0  0  0  0  0  0
  -14.6394 -100.7739   -4.2966 C   0  0  0  0  0  0  0  0  0  0  0  0
  -15.6042 -101.5514   -3.7625 N   0  0  0  0  0  0  0  0  0  0  0  0
  -16.9878 -101.2127   -3.7571 C   0  0  2  0  0  0  0  0  0  0  0  0
  -17.5273 -101.1383   -5.0388 O   0  0  0  0  0  0  0  0  0  0  0  0
  -17.2622  -99.8180   -3.2337 C   0  0  2  0  0  0  0  0  0  0  0  0
  -17.1385  -99.7477   -1.8505 O   0  0  0  0  0  0  0  0  0  0  0  0
  -18.6997  -99.6470   -3.6808 C   0  0  2  0  0  0  0  0  0  0  0  0
  -19.5132 -100.1682   -2.6770 O   0  0  0  0  0  0  0  0  0  0  0  0
  -18.7273 -100.4808   -4.9399 C   0  0  1  0  0  0  0  0  0  0  0  0
  -19.0069  -99.5525   -6.0983 C   0  0  2  0  0  0  0  0  0  0  0  0
  -18.0879  -98.4871   -5.9766 O   0  0  0  0  0  0  0  0  0  0  0  0
  -20.3883  -99.0469   -6.0906 C   0  0  0  0  0  0  0  0  0  0  0  0
  -21.4684  -99.8208   -6.4615 C   0  0  0  0  0  0  0  0  0  0  0  0
  -22.7561  -99.3066   -6.4405 C   0  0  0  0  0  0  0  0  0  0  0  0
  -23.0137  -98.0089   -6.0510 C   0  0  0  0  0  0  0  0  0  0  0  0
  -24.6560  -97.3682   -6.0291 Cl  0  0  0  0  0  0  0  0  0  0  0  0
  -21.9348  -97.2338   -5.6799 C   0  0  0  0  0  0  0  0  0  0  0  0
  -20.6499  -97.7466   -5.7007 C   0  0  0  0  0  0  0  0  0  0  0  0
  2  1  1  0
  1  5  2  0
  1 12  1  0
  3  2  2  0
  2 10  1  0
  3  4  1  0
  8  3  1  0
  4  9  2  0
  9  5  1  0
  7  6  1  0
  7  8  2  0
 10 11  2  0
 11 12  1  0
 13 12  1  6
 13 14  1  0
 13 15  1  0
 19 14  1  6
 15 16  1  1
 15 17  1  0
 17 18  1  1
 17 19  1  0
 19 20  1  0
 20 21  1  1
 20 22  1  0
 22 23  2  0
 22 28  1  0
 23 24  1  0
 24 25  2  0
 25 26  1  0
 25 27  1  0
 27 28  2  0
M  END
$$$$
