
     RDKit          3D

 28 31  0  0  0  0  0  0  0  0999 V2000
  -22.3808  -87.8239  -10.2034 C   0  0  0  0  0  0  0  0  0  0  0  0
  -23.6090  -87.2805  -10.5793 C   0  0  0  0  0  0  0  0  0  0  0  0
  -23.8474  -85.9268  -10.4768 C   0  0  0  0  0  0  0  0  0  0  0  0
  -22.8899  -85.1148  -10.0100 N   0  0  0  0  0  0  0  0  0  0  0  0
  -21.4584  -86.9629   -9.7426 N   0  0  0  0  0  0  0  0  0  0  0  0
  -27.4573  -84.8685  -10.4759 C   0  0  0  0  0  0  0  0  0  0  0  0
  -26.1029  -85.2821  -10.0376 C   0  0  0  0  0  0  0  0  0  0  0  0
  -25.1013  -85.4007  -10.8647 N   0  0  0  0  0  0  0  0  0  0  0  0
  -21.6922  -85.6330   -9.6417 C   0  0  0  0  0  0  0  0  0  0  0  0
  -24.3776  -88.3177  -11.0083 C   0  0  0  0  0  0  0  0  0  0  0  0
  -23.6111  -89.4583  -10.8863 C   0  0  0  0  0  0  0  0  0  0  0  0
  -22.3977  -89.1332  -10.3937 N   0  0  0  0  0  0  0  0  0  0  0  0
  -21.3606  -90.0772  -10.1444 C   0  0  2  0  0  0  0  0  0  0  0  0
  -21.1489  -90.9382  -11.2183 O   0  0  0  0  0  0  0  0  0  0  0  0
  -21.6924  -91.0547   -9.0359 C   0  0  2  0  0  0  0  0  0  0  0  0
  -21.5954  -90.4682   -7.7789 O   0  0  0  0  0  0  0  0  0  0  0  0
  -20.6068  -92.0873   -9.2617 C   0  0  2  0  0  0  0  0  0  0  0  0
  -19.4853  -91.6766   -8.5443 O   0  0  0  0  0  0  0  0  0  0  0  0
  -20.4049  -91.9939  -10.7556 C   0  0  1  0  0  0  0  0  0  0  0  0
  -20.8002  -93.3228  -11.3554 C   0  0  2  0  0  0  0  0  0  0  0  0
  -22.1519  -93.1909  -11.7425 O   0  0  0  0  0  0  0  0  0  0  0  0
  -20.6404  -94.4356  -10.4066 C   0  0  0  0  0  0  0  0  0  0  0  0
  -21.6725  -94.8958   -9.6154 C   0  0  0  0  0  0  0  0  0  0  0  0
  -21.4811  -95.9482   -8.7328 C   0  0  0  0  0  0  0  0  0  0  0  0
  -20.2603  -96.5776   -8.6069 C   0  0  0  0  0  0  0  0  0  0  0  0
  -20.0312  -97.9145   -7.4807 Cl  0  0  0  0  0  0  0  0  0  0  0  0
  -19.2274  -96.1186   -9.3974 C   0  0  0  0  0  0  0  0  0  0  0  0
  -19.4181  -95.0686  -10.2780 C   0  0  0  0  0  0  0  0  0  0  0  0
  2  1  1  0
  1  5  2  0
  1 12  1  0
  3  2  2  0
  2 10  1  0
  3  4  1  0
  8  3  1  0
  4  9  2  0
  9  5  1  0
  7  6  1  0
  7  8  2  0
 10 11  2  0
 11 12  1  0
 13 12  1  6
 13 14  1  0
 13 15  1  0
 19 14  1  6
 15 16  1  1
 15 17  1  0
 17 18  1  1
 17 19  1  0
 19 20  1  0
 20 21  1  1
 20 22  1  0
 22 23  2  0
 22 28  1  0
 23 24  1  0
 24 25  2  0
 25 26  1  0
 25 27  1  0
 27 28  2  0
M  END
$$$$
