
     RDKit          3D

 28 31  0  0  0  0  0  0  0  0999 V2000
  -15.2082 -102.6362   -3.1090 C   0  0  0  0  0  0  0  0  0  0  0  0
  -13.8356 -102.5210   -3.3276 C   0  0  0  0  0  0  0  0  0  0  0  0
  -12.9867 -103.5791   -3.0830 C   0  0  0  0  0  0  0  0  0  0  0  0
  -13.4802 -104.7383   -2.6284 N   0  0  0  0  0  0  0  0  0  0  0  0
  -15.6468 -103.8210   -2.6529 N   0  0  0  0  0  0  0  0  0  0  0  0
   -9.4888 -104.0343   -4.3972 C   0  0  0  0  0  0  0  0  0  0  0  0
  -10.9343 -104.2142   -4.1225 C   0  0  0  0  0  0  0  0  0  0  0  0
  -11.5987 -103.4368   -3.3128 N   0  0  0  0  0  0  0  0  0  0  0  0
  -14.8132 -104.8607   -2.4125 C   0  0  0  0  0  0  0  0  0  0  0  0
  -13.6192 -101.2569   -3.7812 C   0  0  0  0  0  0  0  0  0  0  0  0
  -14.8498 -100.6351   -3.8291 C   0  0  0  0  0  0  0  0  0  0  0  0
  -15.8036 -101.4948   -3.4149 N   0  0  0  0  0  0  0  0  0  0  0  0
  -17.1891 -101.1722   -3.3418 C   0  0  2  0  0  0  0  0  0  0  0  0
  -17.6916 -100.6872   -4.5467 O   0  0  0  0  0  0  0  0  0  0  0  0
  -17.4885 -100.0199   -2.4053 C   0  0  2  0  0  0  0  0  0  0  0  0
  -17.4056 -100.3995   -1.0703 O   0  0  0  0  0  0  0  0  0  0  0  0
  -18.9136  -99.7100   -2.8162 C   0  0  2  0  0  0  0  0  0  0  0  0
  -19.7522 -100.5248   -2.0586 O   0  0  0  0  0  0  0  0  0  0  0  0
  -18.8986 -100.0934   -4.2771 C   0  0  1  0  0  0  0  0  0  0  0  0
  -19.1509  -98.8405   -5.0823 C   0  0  2  0  0  0  0  0  0  0  0  0
  -18.9871  -97.7605   -4.1872 O   0  0  0  0  0  0  0  0  0  0  0  0
  -20.4956  -98.8186   -5.6782 C   0  0  0  0  0  0  0  0  0  0  0  0
  -21.6483  -98.8555   -4.9211 C   0  0  0  0  0  0  0  0  0  0  0  0
  -22.8981  -98.8331   -5.5215 C   0  0  0  0  0  0  0  0  0  0  0  0
  -23.0446  -98.7734   -6.8917 C   0  0  0  0  0  0  0  0  0  0  0  0
  -24.6399  -98.7455   -7.6417 Cl  0  0  0  0  0  0  0  0  0  0  0  0
  -21.8931  -98.7364   -7.6501 C   0  0  0  0  0  0  0  0  0  0  0  0
  -20.6460  -98.7588   -7.0512 C   0  0  0  0  0  0  0  0  0  0  0  0
  2  1  1  0
  1  5  2  0
  1 12  1  0
  3  2  2  0
  2 10  1  0
  3  4  1  0
  8  3  1  0
  4  9  2  0
  9  5  1  0
  7  6  1  0
  7  8  2  0
 10 11  2  0
 11 12  1  0
 13 12  1  6
 13 14  1  0
 13 15  1  0
 19 14  1  6
 15 16  1  1
 15 17  1  0
 17 18  1  1
 17 19  1  0
 19 20  1  0
 20 21  1  1
 20 22  1  0
 22 23  2  0
 22 28  1  0
 23 24  1  0
 24 25  2  0
 25 26  1  0
 25 27  1  0
 27 28  2  0
M  END
$$$$
