
     RDKit          3D

 28 31  0  0  0  0  0  0  0  0999 V2000
  -15.0791 -102.6915   -3.3081 C   0  0  0  0  0  0  0  0  0  0  0  0
  -13.7444 -102.7209   -3.7116 C   0  0  0  0  0  0  0  0  0  0  0  0
  -12.9003 -103.7296   -3.2992 C   0  0  0  0  0  0  0  0  0  0  0  0
  -13.3617 -104.6993   -2.4988 N   0  0  0  0  0  0  0  0  0  0  0  0
  -15.4867 -103.6889   -2.5061 N   0  0  0  0  0  0  0  0  0  0  0  0
   -9.1608 -103.4387   -3.2950 C   0  0  0  0  0  0  0  0  0  0  0  0
  -10.5497 -103.7575   -2.8868 C   0  0  0  0  0  0  0  0  0  0  0  0
  -11.5511 -103.7366   -3.7224 N   0  0  0  0  0  0  0  0  0  0  0  0
  -14.6578 -104.6800   -2.1007 C   0  0  0  0  0  0  0  0  0  0  0  0
  -13.5546 -101.6328   -4.5057 C   0  0  0  0  0  0  0  0  0  0  0  0
  -14.7632 -100.9705   -4.5690 C   0  0  0  0  0  0  0  0  0  0  0  0
  -15.6778 -101.6339   -3.8315 N   0  0  0  0  0  0  0  0  0  0  0  0
  -17.0323 -101.2192   -3.6815 C   0  0  2  0  0  0  0  0  0  0  0  0
  -17.7132 -101.1605   -4.8949 O   0  0  0  0  0  0  0  0  0  0  0  0
  -17.1725  -99.7939   -3.1884 C   0  0  2  0  0  0  0  0  0  0  0  0
  -16.8849  -99.6818   -1.8326 O   0  0  0  0  0  0  0  0  0  0  0  0
  -18.6419  -99.5597   -3.4745 C   0  0  2  0  0  0  0  0  0  0  0  0
  -19.3581  -99.9994   -2.3632 O   0  0  0  0  0  0  0  0  0  0  0  0
  -18.8585 -100.4346   -4.6864 C   0  0  1  0  0  0  0  0  0  0  0  0
  -19.2239  -99.5338   -5.8426 C   0  0  2  0  0  0  0  0  0  0  0  0
  -18.4157  -98.3830   -5.7126 O   0  0  0  0  0  0  0  0  0  0  0  0
  -20.6487  -99.1679   -5.8395 C   0  0  0  0  0  0  0  0  0  0  0  0
  -21.6135  -99.9186   -6.4788 C   0  0  0  0  0  0  0  0  0  0  0  0
  -22.9471  -99.5396   -6.4524 C   0  0  0  0  0  0  0  0  0  0  0  0
  -23.3664  -98.4041   -5.7912 C   0  0  0  0  0  0  0  0  0  0  0  0
  -25.0654  -97.9339   -5.7658 Cl  0  0  0  0  0  0  0  0  0  0  0  0
  -22.4030  -97.6523   -5.1515 C   0  0  0  0  0  0  0  0  0  0  0  0
  -21.0723  -98.0304   -5.1777 C   0  0  0  0  0  0  0  0  0  0  0  0
  2  1  1  0
  1  5  2  0
  1 12  1  0
  3  2  2  0
  2 10  1  0
  3  4  1  0
  8  3  1  0
  4  9  2  0
  9  5  1  0
  7  6  1  0
  7  8  2  0
 10 11  2  0
 11 12  1  0
 13 12  1  6
 13 14  1  0
 13 15  1  0
 19 14  1  6
 15 16  1  1
 15 17  1  0
 17 18  1  1
 17 19  1  0
 19 20  1  0
 20 21  1  1
 20 22  1  0
 22 23  2  0
 22 28  1  0
 23 24  1  0
 24 25  2  0
 25 26  1  0
 25 27  1  0
 27 28  2  0
M  END
$$$$
