
     RDKit          3D

 28 31  0  0  0  0  0  0  0  0999 V2000
  -15.1392 -102.7536   -3.4210 C   0  0  0  0  0  0  0  0  0  0  0  0
  -13.7940 -102.8391   -3.7791 C   0  0  0  0  0  0  0  0  0  0  0  0
  -13.0064 -103.8801   -3.3363 C   0  0  0  0  0  0  0  0  0  0  0  0
  -13.5341 -104.8274   -2.5500 N   0  0  0  0  0  0  0  0  0  0  0  0
  -15.6142 -103.7308   -2.6313 N   0  0  0  0  0  0  0  0  0  0  0  0
   -9.4164 -102.9837   -4.0226 C   0  0  0  0  0  0  0  0  0  0  0  0
  -10.8649 -102.8987   -3.7191 C   0  0  0  0  0  0  0  0  0  0  0  0
  -11.6452 -103.9439   -3.7136 N   0  0  0  0  0  0  0  0  0  0  0  0
  -14.8409 -104.7536   -2.1960 C   0  0  0  0  0  0  0  0  0  0  0  0
  -13.5330 -101.7624   -4.5685 C   0  0  0  0  0  0  0  0  0  0  0  0
  -14.7105 -101.0513   -4.6739 C   0  0  0  0  0  0  0  0  0  0  0  0
  -15.6759 -101.6741   -3.9664 N   0  0  0  0  0  0  0  0  0  0  0  0
  -17.0165 -101.2038   -3.8631 C   0  0  2  0  0  0  0  0  0  0  0  0
  -17.6646 -101.1548   -5.0948 O   0  0  0  0  0  0  0  0  0  0  0  0
  -17.1132  -99.7602   -3.4146 C   0  0  2  0  0  0  0  0  0  0  0  0
  -16.8548  -99.6193   -2.0556 O   0  0  0  0  0  0  0  0  0  0  0  0
  -18.5649  -99.4785   -3.7449 C   0  0  2  0  0  0  0  0  0  0  0  0
  -19.3247  -99.8576   -2.6403 O   0  0  0  0  0  0  0  0  0  0  0  0
  -18.7856 -100.3798   -4.9366 C   0  0  1  0  0  0  0  0  0  0  0  0
  -19.0870  -99.5001   -6.1269 C   0  0  2  0  0  0  0  0  0  0  0  0
  -18.1446  -98.4491   -6.0855 O   0  0  0  0  0  0  0  0  0  0  0  0
  -20.4577  -98.9668   -6.0969 C   0  0  0  0  0  0  0  0  0  0  0  0
  -21.5666  -99.7431   -6.3631 C   0  0  0  0  0  0  0  0  0  0  0  0
  -22.8429  -99.2022   -6.3245 C   0  0  0  0  0  0  0  0  0  0  0  0
  -23.0601  -97.8745   -6.0208 C   0  0  0  0  0  0  0  0  0  0  0  0
  -24.6884  -97.2000   -5.9752 Cl  0  0  0  0  0  0  0  0  0  0  0  0
  -21.9524  -97.0970   -5.7543 C   0  0  0  0  0  0  0  0  0  0  0  0
  -20.6789  -97.6365   -5.7928 C   0  0  0  0  0  0  0  0  0  0  0  0
  2  1  1  0
  1  5  2  0
  1 12  1  0
  3  2  2  0
  2 10  1  0
  3  4  1  0
  8  3  1  0
  4  9  2  0
  9  5  1  0
  7  6  1  0
  7  8  2  0
 10 11  2  0
 11 12  1  0
 13 12  1  6
 13 14  1  0
 13 15  1  0
 19 14  1  6
 15 16  1  1
 15 17  1  0
 17 18  1  1
 17 19  1  0
 19 20  1  0
 20 21  1  1
 20 22  1  0
 22 23  2  0
 22 28  1  0
 23 24  1  0
 24 25  2  0
 25 26  1  0
 25 27  1  0
 27 28  2  0
M  END
$$$$
