
     RDKit          3D

 28 31  0  0  0  0  0  0  0  0999 V2000
  -15.1683 -102.7144   -3.1652 C   0  0  0  0  0  0  0  0  0  0  0  0
  -13.7990 -102.7044   -3.4296 C   0  0  0  0  0  0  0  0  0  0  0  0
  -12.9897 -103.7428   -3.0212 C   0  0  0  0  0  0  0  0  0  0  0  0
  -13.5192 -104.7803   -2.3600 N   0  0  0  0  0  0  0  0  0  0  0  0
  -15.6442 -103.7795   -2.4993 N   0  0  0  0  0  0  0  0  0  0  0  0
   -9.7007 -103.3595   -4.7981 C   0  0  0  0  0  0  0  0  0  0  0  0
  -11.1188 -103.1964   -4.3985 C   0  0  0  0  0  0  0  0  0  0  0  0
  -11.6042 -103.7088   -3.3016 N   0  0  0  0  0  0  0  0  0  0  0  0
  -14.8495 -104.7998   -2.0979 C   0  0  0  0  0  0  0  0  0  0  0  0
  -13.5417 -101.5504   -4.1022 C   0  0  0  0  0  0  0  0  0  0  0  0
  -14.7452 -100.8886   -4.2324 C   0  0  0  0  0  0  0  0  0  0  0  0
  -15.7227 -101.6168   -3.6538 N   0  0  0  0  0  0  0  0  0  0  0  0
  -17.0903 -101.2209   -3.6092 C   0  0  2  0  0  0  0  0  0  0  0  0
  -17.6434 -101.0574   -4.8768 O   0  0  0  0  0  0  0  0  0  0  0  0
  -17.2976  -99.8450   -3.0106 C   0  0  2  0  0  0  0  0  0  0  0  0
  -17.1524  -99.8520   -1.6278 O   0  0  0  0  0  0  0  0  0  0  0  0
  -18.7325  -99.5907   -3.4258 C   0  0  2  0  0  0  0  0  0  0  0  0
  -19.5538 -100.1287   -2.4373 O   0  0  0  0  0  0  0  0  0  0  0  0
  -18.8127 -100.3560   -4.7254 C   0  0  1  0  0  0  0  0  0  0  0  0
  -19.0679  -99.3578   -5.8300 C   0  0  2  0  0  0  0  0  0  0  0  0
  -18.3487  -98.1940   -5.4797 O   0  0  0  0  0  0  0  0  0  0  0  0
  -20.4981  -99.0529   -5.9905 C   0  0  0  0  0  0  0  0  0  0  0  0
  -21.3854  -99.9263   -6.5846 C   0  0  0  0  0  0  0  0  0  0  0  0
  -22.7270  -99.6013   -6.7170 C   0  0  0  0  0  0  0  0  0  0  0  0
  -23.2312  -98.4000   -6.2644 C   0  0  0  0  0  0  0  0  0  0  0  0
  -24.9393  -97.9998   -6.4393 Cl  0  0  0  0  0  0  0  0  0  0  0  0
  -22.3454  -97.5256   -5.6702 C   0  0  0  0  0  0  0  0  0  0  0  0
  -21.0067  -97.8496   -5.5380 C   0  0  0  0  0  0  0  0  0  0  0  0
  2  1  1  0
  1  5  2  0
  1 12  1  0
  3  2  2  0
  2 10  1  0
  3  4  1  0
  8  3  1  0
  4  9  2  0
  9  5  1  0
  7  6  1  0
  7  8  2  0
 10 11  2  0
 11 12  1  0
 13 12  1  6
 13 14  1  0
 13 15  1  0
 19 14  1  6
 15 16  1  1
 15 17  1  0
 17 18  1  1
 17 19  1  0
 19 20  1  0
 20 21  1  1
 20 22  1  0
 22 23  2  0
 22 28  1  0
 23 24  1  0
 24 25  2  0
 25 26  1  0
 25 27  1  0
 27 28  2  0
M  END
$$$$
