
     RDKit          3D

 28 31  0  0  0  0  0  0  0  0999 V2000
  -22.0523  -89.4604  -10.0187 C   0  0  0  0  0  0  0  0  0  0  0  0
  -21.1956  -88.3626   -9.9409 C   0  0  0  0  0  0  0  0  0  0  0  0
  -21.6868  -87.0927   -9.7265 C   0  0  0  0  0  0  0  0  0  0  0  0
  -23.0056  -86.9025   -9.5899 N   0  0  0  0  0  0  0  0  0  0  0  0
  -23.3642  -89.2104   -9.8746 N   0  0  0  0  0  0  0  0  0  0  0  0
  -20.1640  -83.7357   -8.9633 C   0  0  0  0  0  0  0  0  0  0  0  0
  -21.0995  -84.8828   -9.0431 C   0  0  0  0  0  0  0  0  0  0  0  0
  -20.7972  -85.9963   -9.6515 N   0  0  0  0  0  0  0  0  0  0  0  0
  -23.8472  -87.9630   -9.6640 C   0  0  0  0  0  0  0  0  0  0  0  0
  -19.9339  -88.8417  -10.1120 C   0  0  0  0  0  0  0  0  0  0  0  0
  -20.0464  -90.2053  -10.2886 C   0  0  0  0  0  0  0  0  0  0  0  0
  -21.3468  -90.5601  -10.2279 N   0  0  0  0  0  0  0  0  0  0  0  0
  -21.8147  -91.8978  -10.3712 C   0  0  2  0  0  0  0  0  0  0  0  0
  -21.3703  -92.7341   -9.3501 O   0  0  0  0  0  0  0  0  0  0  0  0
  -21.2633  -92.5987  -11.5956 C   0  0  2  0  0  0  0  0  0  0  0  0
  -21.8706  -92.1565  -12.7657 O   0  0  0  0  0  0  0  0  0  0  0  0
  -21.6392  -94.0302  -11.2712 C   0  0  2  0  0  0  0  0  0  0  0  0
  -22.9305  -94.2407  -11.7499 O   0  0  0  0  0  0  0  0  0  0  0  0
  -21.5742  -94.0267   -9.7622 C   0  0  1  0  0  0  0  0  0  0  0  0
  -20.4739  -94.9754   -9.3487 C   0  0  2  0  0  0  0  0  0  0  0  0
  -19.5067  -94.9246  -10.3765 O   0  0  0  0  0  0  0  0  0  0  0  0
  -20.9602  -96.3514   -9.1640 C   0  0  0  0  0  0  0  0  0  0  0  0
  -20.8568  -97.3173  -10.1435 C   0  0  0  0  0  0  0  0  0  0  0  0
  -21.3279  -98.6040   -9.9301 C   0  0  0  0  0  0  0  0  0  0  0  0
  -21.9163  -98.9737   -8.7388 C   0  0  0  0  0  0  0  0  0  0  0  0
  -22.5109 -100.6133   -8.4811 Cl  0  0  0  0  0  0  0  0  0  0  0  0
  -22.0204  -98.0091   -7.7584 C   0  0  0  0  0  0  0  0  0  0  0  0
  -21.5505  -96.7251   -7.9711 C   0  0  0  0  0  0  0  0  0  0  0  0
  2  1  1  0
  1  5  2  0
  1 12  1  0
  3  2  2  0
  2 10  1  0
  3  4  1  0
  8  3  1  0
  4  9  2  0
  9  5  1  0
  7  6  1  0
  7  8  2  0
 10 11  2  0
 11 12  1  0
 13 12  1  1
 13 14  1  0
 13 15  1  0
 19 14  1  6
 15 16  1  6
 15 17  1  0
 17 18  1  1
 17 19  1  0
 19 20  1  0
 20 21  1  6
 20 22  1  0
 22 23  2  0
 22 28  1  0
 23 24  1  0
 24 25  2  0
 25 26  1  0
 25 27  1  0
 27 28  2  0
M  END
$$$$
