
     RDKit          3D

 28 31  0  0  0  0  0  0  0  0999 V2000
  -15.1157 -102.9531   -3.1863 C   0  0  0  0  0  0  0  0  0  0  0  0
  -13.7564 -103.0258   -3.4898 C   0  0  0  0  0  0  0  0  0  0  0  0
  -12.9853 -104.0786   -3.0460 C   0  0  0  0  0  0  0  0  0  0  0  0
  -13.5430 -105.0501   -2.3116 N   0  0  0  0  0  0  0  0  0  0  0  0
  -15.6209 -103.9544   -2.4471 N   0  0  0  0  0  0  0  0  0  0  0  0
   -9.4894 -102.9861   -3.7968 C   0  0  0  0  0  0  0  0  0  0  0  0
  -10.9645 -103.1127   -3.8700 C   0  0  0  0  0  0  0  0  0  0  0  0
  -11.6093 -104.1291   -3.3674 N   0  0  0  0  0  0  0  0  0  0  0  0
  -14.8638 -104.9889   -2.0108 C   0  0  0  0  0  0  0  0  0  0  0  0
  -13.4653 -101.9253   -4.2346 C   0  0  0  0  0  0  0  0  0  0  0  0
  -14.6392 -101.2130   -4.3680 C   0  0  0  0  0  0  0  0  0  0  0  0
  -15.6319 -101.8583   -3.7209 N   0  0  0  0  0  0  0  0  0  0  0  0
  -16.9769 -101.3932   -3.6600 C   0  0  2  0  0  0  0  0  0  0  0  0
  -17.5803 -101.3300   -4.9135 O   0  0  0  0  0  0  0  0  0  0  0  0
  -17.0945  -99.9559   -3.1965 C   0  0  2  0  0  0  0  0  0  0  0  0
  -16.8857  -99.8321   -1.8274 O   0  0  0  0  0  0  0  0  0  0  0  0
  -18.5342  -99.6741   -3.5753 C   0  0  2  0  0  0  0  0  0  0  0  0
  -19.3321 -100.0697   -2.5038 O   0  0  0  0  0  0  0  0  0  0  0  0
  -18.7088 -100.5603   -4.7858 C   0  0  1  0  0  0  0  0  0  0  0  0
  -18.9701  -99.6660   -5.9747 C   0  0  2  0  0  0  0  0  0  0  0  0
  -17.9744  -98.6652   -5.9379 O   0  0  0  0  0  0  0  0  0  0  0  0
  -20.3112  -99.0625   -5.9381 C   0  0  0  0  0  0  0  0  0  0  0  0
  -20.5318  -97.7568   -5.5512 C   0  0  0  0  0  0  0  0  0  0  0  0
  -21.8123  -97.2249   -5.5302 C   0  0  0  0  0  0  0  0  0  0  0  0
  -22.9145  -97.9707   -5.8922 C   0  0  0  0  0  0  0  0  0  0  0  0
  -24.5369  -97.2815   -5.8608 Cl  0  0  0  0  0  0  0  0  0  0  0  0
  -22.6956  -99.2763   -6.2793 C   0  0  0  0  0  0  0  0  0  0  0  0
  -21.4181  -99.8073   -6.3003 C   0  0  0  0  0  0  0  0  0  0  0  0
  2  1  1  0
  1  5  2  0
  1 12  1  0
  3  2  2  0
  2 10  1  0
  3  4  1  0
  8  3  1  0
  4  9  2  0
  9  5  1  0
  7  6  1  0
  7  8  2  0
 10 11  2  0
 11 12  1  0
 13 12  1  6
 13 14  1  0
 13 15  1  0
 19 14  1  6
 15 16  1  1
 15 17  1  0
 17 18  1  1
 17 19  1  0
 19 20  1  0
 20 21  1  1
 20 22  1  0
 22 23  2  0
 22 28  1  0
 23 24  1  0
 24 25  2  0
 25 26  1  0
 25 27  1  0
 27 28  2  0
M  END
$$$$
