
     RDKit          3D

 28 31  0  0  0  0  0  0  0  0999 V2000
  -15.1150 -102.6865   -3.3212 C   0  0  0  0  0  0  0  0  0  0  0  0
  -13.7622 -102.7548   -3.6530 C   0  0  0  0  0  0  0  0  0  0  0  0
  -12.9796 -103.8074   -3.2291 C   0  0  0  0  0  0  0  0  0  0  0  0
  -13.5197 -104.7828   -2.4869 N   0  0  0  0  0  0  0  0  0  0  0  0
  -15.6025 -103.6917   -2.5754 N   0  0  0  0  0  0  0  0  0  0  0  0
   -9.4413 -102.8322   -4.0661 C   0  0  0  0  0  0  0  0  0  0  0  0
  -10.8767 -102.7816   -3.6995 C   0  0  0  0  0  0  0  0  0  0  0  0
  -11.6104 -103.8533   -3.5791 N   0  0  0  0  0  0  0  0  0  0  0  0
  -14.8341 -104.7259   -2.1587 C   0  0  0  0  0  0  0  0  0  0  0  0
  -13.4892 -101.6509   -4.3996 C   0  0  0  0  0  0  0  0  0  0  0  0
  -14.6673 -100.9410   -4.5061 C   0  0  0  0  0  0  0  0  0  0  0  0
  -15.6448 -101.5910   -3.8410 N   0  0  0  0  0  0  0  0  0  0  0  0
  -16.9893 -101.1295   -3.7505 C   0  0  2  0  0  0  0  0  0  0  0  0
  -17.6101 -101.0375   -4.9938 O   0  0  0  0  0  0  0  0  0  0  0  0
  -17.1022  -99.7037   -3.2516 C   0  0  2  0  0  0  0  0  0  0  0  0
  -16.8747  -99.6119   -1.8830 O   0  0  0  0  0  0  0  0  0  0  0  0
  -18.5473  -99.4151   -3.6038 C   0  0  2  0  0  0  0  0  0  0  0  0
  -19.3299  -99.8371   -2.5311 O   0  0  0  0  0  0  0  0  0  0  0  0
  -18.7376 -100.2727   -4.8324 C   0  0  1  0  0  0  0  0  0  0  0  0
  -19.0163  -99.3509   -5.9961 C   0  0  2  0  0  0  0  0  0  0  0  0
  -18.1484  -98.2480   -5.8383 O   0  0  0  0  0  0  0  0  0  0  0  0
  -20.4175  -98.9046   -6.0346 C   0  0  0  0  0  0  0  0  0  0  0  0
  -20.8234  -97.6773   -5.5528 C   0  0  0  0  0  0  0  0  0  0  0  0
  -22.1549  -97.2936   -5.6075 C   0  0  0  0  0  0  0  0  0  0  0  0
  -23.1260  -98.1146   -6.1415 C   0  0  0  0  0  0  0  0  0  0  0  0
  -24.8152  -97.6138   -6.2046 Cl  0  0  0  0  0  0  0  0  0  0  0  0
  -22.7218  -99.3420   -6.6236 C   0  0  0  0  0  0  0  0  0  0  0  0
  -21.3933  -99.7251   -6.5692 C   0  0  0  0  0  0  0  0  0  0  0  0
  2  1  1  0
  1  5  2  0
  1 12  1  0
  3  2  2  0
  2 10  1  0
  3  4  1  0
  8  3  1  0
  4  9  2  0
  9  5  1  0
  7  6  1  0
  7  8  2  0
 10 11  2  0
 11 12  1  0
 13 12  1  6
 13 14  1  0
 13 15  1  0
 19 14  1  6
 15 16  1  1
 15 17  1  0
 17 18  1  1
 17 19  1  0
 19 20  1  0
 20 21  1  1
 20 22  1  0
 22 23  2  0
 22 28  1  0
 23 24  1  0
 24 25  2  0
 25 26  1  0
 25 27  1  0
 27 28  2  0
M  END
$$$$
