
     RDKit          3D

 26 29  0  0  0  0  0  0  0  0999 V2000
  -10.4953    0.5386   13.8656 C   0  0  0  0  0  0  0  0  0  0  0  0
  -10.3909    1.4386   12.8252 C   0  0  0  0  0  0  0  0  0  0  0  0
   -5.9499   -4.0977   16.4760 C   0  0  0  0  0  0  0  0  0  0  0  0
   -9.4560    1.1883   11.8451 C   0  0  0  0  0  0  0  0  0  0  0  0
   -8.6662    0.0709   11.9262 C   0  0  0  0  0  0  0  0  0  0  0  0
   -8.7954   -0.8257   12.9956 C   0  0  0  0  0  0  0  0  0  0  0  0
   -8.1556   -1.9562   13.3053 N   0  0  0  0  0  0  0  0  0  0  0  0
   -4.7264   -3.6533   16.9919 C   0  0  0  0  0  0  0  0  0  0  0  0
   -5.0386   -1.5853   16.0253 C   0  0  0  0  0  0  0  0  0  0  0  0
  -10.5229   -1.7770   15.9651 C   0  0  0  0  0  0  0  0  0  0  0  0
   -9.5081    0.0683   19.1348 C   0  0  0  0  0  0  0  0  0  0  0  0
  -10.0949   -1.4064   17.3147 C   0  0  0  0  0  0  0  0  0  0  0  0
   -9.8666   -0.1568   17.7916 C   0  0  0  0  0  0  0  0  0  0  0  0
   -9.3734   -0.9716   20.0203 C   0  0  0  0  0  0  0  0  0  0  0  0
   -9.9397   -2.4356   18.2766 C   0  0  0  0  0  0  0  0  0  0  0  0
   -9.4426   -3.3635   20.5554 C   0  0  0  0  0  0  0  0  0  0  0  0
   -7.8920   -4.7652   14.3674 O   0  0  0  0  0  0  0  0  0  0  0  0
   -8.0581   -3.6744   15.1311 C   0  0  1  0  0  0  0  0  0  0  0  0
   -6.7366   -3.2656   15.7164 C   0  0  0  0  0  0  0  0  0  0  0  0
   -4.2856   -2.4116   16.7637 N   0  0  0  0  0  0  0  0  0  0  0  0
   -6.2609   -1.9944   15.4967 C   0  0  0  0  0  0  0  0  0  0  0  0
   -8.6394   -2.4720   14.4717 C   0  0  0  0  0  0  0  0  0  0  0  0
   -9.6055   -1.6259   14.8722 N   0  0  0  0  0  0  0  0  0  0  0  0
   -9.7235   -0.5916   13.9818 C   0  0  0  0  0  0  0  0  0  0  0  0
   -9.9490    1.0621   16.9757 C   0  0  0  0  0  0  0  0  0  0  0  0
   -9.5949   -2.2325   19.5711 C   0  0  0  0  0  0  0  0  0  0  0  0
  1  2  2  0
 24  1  1  0
  4  2  1  0
  3  8  2  0
 19  3  1  0
  5  4  2  0
  6  5  1  0
  7  6  1  0
  6 24  2  0
 22  7  2  0
  8 20  1  0
  9 20  2  0
 21  9  1  0
 10 12  1  0
 23 10  1  0
 13 11  2  0
 11 14  1  0
 12 13  1  0
 12 15  2  0
 13 25  1  0
 26 14  2  0
 15 26  1  0
 26 16  1  0
 18 17  1  6
 18 19  1  0
 22 18  1  0
 19 21  2  0
 22 23  1  0
 23 24  1  0
M  END
$$$$
