
     RDKit          3D

 26 29  0  0  0  0  0  0  0  0999 V2000
   -4.2583    0.1551   12.2721 C   0  0  0  0  0  0  0  0  0  0  0  0
   -2.9408    0.5562   12.3539 C   0  0  0  0  0  0  0  0  0  0  0  0
   -7.0297   -2.0568   16.6983 C   0  0  0  0  0  0  0  0  0  0  0  0
   -2.1047   -0.1386   13.1997 C   0  0  0  0  0  0  0  0  0  0  0  0
   -2.5937   -1.1929   13.9266 C   0  0  0  0  0  0  0  0  0  0  0  0
   -3.9374   -1.5773   13.8225 C   0  0  0  0  0  0  0  0  0  0  0  0
   -4.6472   -2.5404   14.4157 N   0  0  0  0  0  0  0  0  0  0  0  0
   -6.9806   -2.0018   18.0965 C   0  0  0  0  0  0  0  0  0  0  0  0
   -6.7875   -4.2950   18.2074 C   0  0  0  0  0  0  0  0  0  0  0  0
   -7.1095   -1.1259   12.2602 C   0  0  0  0  0  0  0  0  0  0  0  0
   -9.5942    1.3428   13.7483 C   0  0  0  0  0  0  0  0  0  0  0  0
   -8.2775   -0.4730   12.8532 C   0  0  0  0  0  0  0  0  0  0  0  0
   -8.3888    0.8235   13.2377 C   0  0  0  0  0  0  0  0  0  0  0  0
  -10.7105    0.5552   13.8794 C   0  0  0  0  0  0  0  0  0  0  0  0
   -9.4630   -1.2331   13.0133 C   0  0  0  0  0  0  0  0  0  0  0  0
  -11.8625   -1.5976   13.6540 C   0  0  0  0  0  0  0  0  0  0  0  0
   -6.9484   -4.6924   14.2079 O   0  0  0  0  0  0  0  0  0  0  0  0
   -7.0030   -3.3943   14.5436 C   0  0  1  0  0  0  0  0  0  0  0  0
   -6.9559   -3.2601   16.0388 C   0  0  0  0  0  0  0  0  0  0  0  0
   -6.8610   -3.1121   18.8321 N   0  0  0  0  0  0  0  0  0  0  0  0
   -6.8333   -4.3863   16.8180 C   0  0  0  0  0  0  0  0  0  0  0  0
   -5.9419   -2.5090   13.9876 C   0  0  0  0  0  0  0  0  0  0  0  0
   -6.0100   -1.4972   13.1040 N   0  0  0  0  0  0  0  0  0  0  0  0
   -4.7853   -0.8955   12.9829 C   0  0  0  0  0  0  0  0  0  0  0  0
   -7.2882    1.7949   13.1812 C   0  0  0  0  0  0  0  0  0  0  0  0
  -10.6283   -0.7458   13.5034 C   0  0  0  0  0  0  0  0  0  0  0  0
  1  2  2  0
 24  1  1  0
  4  2  1  0
  3  8  2  0
 19  3  1  0
  5  4  2  0
  6  5  1  0
  7  6  1  0
  6 24  2  0
 22  7  2  0
  8 20  1  0
  9 20  2  0
 21  9  1  0
 10 12  1  0
 23 10  1  0
 13 11  2  0
 11 14  1  0
 12 13  1  0
 12 15  2  0
 13 25  1  0
 26 14  2  0
 15 26  1  0
 26 16  1  0
 18 17  1  1
 18 19  1  0
 22 18  1  0
 19 21  2  0
 22 23  1  0
 23 24  1  0
M  END
$$$$
