
     RDKit          3D

 26 29  0  0  0  0  0  0  0  0999 V2000
   -9.9283   -2.0323   20.2969 C   0  0  0  0  0  0  0  0  0  0  0  0
  -10.1225   -2.9384   21.3190 C   0  0  0  0  0  0  0  0  0  0  0  0
   -7.3748   -4.6056   15.6329 C   0  0  0  0  0  0  0  0  0  0  0  0
   -9.9048   -4.2718   21.0511 C   0  0  0  0  0  0  0  0  0  0  0  0
   -9.5078   -4.6590   19.7975 C   0  0  0  0  0  0  0  0  0  0  0  0
   -9.3187   -3.7151   18.7788 C   0  0  0  0  0  0  0  0  0  0  0  0
   -8.9529   -3.8315   17.4998 N   0  0  0  0  0  0  0  0  0  0  0  0
   -6.3129   -5.4318   15.2450 C   0  0  0  0  0  0  0  0  0  0  0  0
   -5.5567   -3.8198   13.7828 C   0  0  0  0  0  0  0  0  0  0  0  0
   -9.2603   -0.2913   17.7882 C   0  0  0  0  0  0  0  0  0  0  0  0
  -12.4700    1.7411   17.5664 C   0  0  0  0  0  0  0  0  0  0  0  0
  -10.4647    0.4134   17.3470 C   0  0  0  0  0  0  0  0  0  0  0  0
  -11.3763    1.0509   18.1240 C   0  0  0  0  0  0  0  0  0  0  0  0
  -12.6599    1.7969   16.2083 C   0  0  0  0  0  0  0  0  0  0  0  0
  -10.7162    0.5076   15.9554 C   0  0  0  0  0  0  0  0  0  0  0  0
  -11.9871    1.2380   13.9176 C   0  0  0  0  0  0  0  0  0  0  0  0
   -8.3371   -1.1762   15.0455 O   0  0  0  0  0  0  0  0  0  0  0  0
   -8.6451   -2.4182   15.4496 C   0  0  1  0  0  0  0  0  0  0  0  0
   -7.5312   -3.3563   15.0823 C   0  0  0  0  0  0  0  0  0  0  0  0
   -5.4211   -5.0347   14.3312 N   0  0  0  0  0  0  0  0  0  0  0  0
   -6.6011   -2.9721   14.1454 C   0  0  0  0  0  0  0  0  0  0  0  0
   -8.9194   -2.6061   16.9015 C   0  0  0  0  0  0  0  0  0  0  0  0
   -9.2712   -1.7246   17.8548 N   0  0  0  0  0  0  0  0  0  0  0  0
   -9.5307   -2.3806   19.0291 C   0  0  0  0  0  0  0  0  0  0  0  0
  -11.3321    1.0740   19.5922 C   0  0  0  0  0  0  0  0  0  0  0  0
  -11.7644    1.1679   15.4066 C   0  0  0  0  0  0  0  0  0  0  0  0
  1  2  2  0
 24  1  1  0
  4  2  1  0
  3  8  2  0
 19  3  1  0
  5  4  2  0
  6  5  1  0
  7  6  1  0
  6 24  2  0
 22  7  2  0
  8 20  1  0
  9 20  2  0
 21  9  1  0
 10 12  1  0
 23 10  1  0
 13 11  2  0
 11 14  1  0
 12 13  1  0
 12 15  2  0
 13 25  1  0
 26 14  2  0
 15 26  1  0
 26 16  1  0
 18 17  1  1
 18 19  1  0
 22 18  1  0
 19 21  2  0
 22 23  1  0
 23 24  1  0
M  END
$$$$
