
     RDKit          3D

 26 29  0  0  0  0  0  0  0  0999 V2000
   -8.9347   -1.4805   13.8108 C   0  0  0  0  0  0  0  0  0  0  0  0
   -9.9189   -0.8996   13.0381 C   0  0  0  0  0  0  0  0  0  0  0  0
   -3.6503    0.7938   14.3810 C   0  0  0  0  0  0  0  0  0  0  0  0
   -9.5322   -0.2044   11.9136 C   0  0  0  0  0  0  0  0  0  0  0  0
   -8.2022   -0.1083   11.5957 C   0  0  0  0  0  0  0  0  0  0  0  0
   -7.2247   -0.7094   12.4004 C   0  0  0  0  0  0  0  0  0  0  0  0
   -5.8926   -0.7542   12.3172 N   0  0  0  0  0  0  0  0  0  0  0  0
   -3.0543    2.0549   14.2583 C   0  0  0  0  0  0  0  0  0  0  0  0
   -1.8028    1.3197   12.4689 C   0  0  0  0  0  0  0  0  0  0  0  0
   -6.4497   -2.7540   15.2155 C   0  0  0  0  0  0  0  0  0  0  0  0
   -8.5024   -2.6018   18.4164 C   0  0  0  0  0  0  0  0  0  0  0  0
   -7.1372   -2.3447   16.4410 C   0  0  0  0  0  0  0  0  0  0  0  0
   -7.9416   -3.1046   17.2264 C   0  0  0  0  0  0  0  0  0  0  0  0
   -8.2581   -1.3168   18.8319 C   0  0  0  0  0  0  0  0  0  0  0  0
   -6.9240   -1.0293   16.9236 C   0  0  0  0  0  0  0  0  0  0  0  0
   -7.1997    0.8750   18.5356 C   0  0  0  0  0  0  0  0  0  0  0  0
   -3.2388   -2.4301   12.7834 O   0  0  0  0  0  0  0  0  0  0  0  0
   -3.9115   -1.6051   13.6004 C   0  0  1  0  0  0  0  0  0  0  0  0
   -3.3142   -0.2289   13.5270 C   0  0  0  0  0  0  0  0  0  0  0  0
   -2.1437    2.3042   13.3113 N   0  0  0  0  0  0  0  0  0  0  0  0
   -2.3759    0.0533   12.5625 C   0  0  0  0  0  0  0  0  0  0  0  0
   -5.3748   -1.4642   13.3604 C   0  0  0  0  0  0  0  0  0  0  0  0
   -6.4316   -1.8635   14.0906 N   0  0  0  0  0  0  0  0  0  0  0  0
   -7.5930   -1.4073   13.5254 C   0  0  0  0  0  0  0  0  0  0  0  0
   -8.3186   -4.4908   16.9191 C   0  0  0  0  0  0  0  0  0  0  0  0
   -7.4579   -0.5336   18.0660 C   0  0  0  0  0  0  0  0  0  0  0  0
  1  2  2  0
 24  1  1  0
  4  2  1  0
  3  8  2  0
 19  3  1  0
  5  4  2  0
  6  5  1  0
  7  6  1  0
  6 24  2  0
 22  7  2  0
  8 20  1  0
  9 20  2  0
 21  9  1  0
 10 12  1  0
 23 10  1  0
 13 11  2  0
 11 14  1  0
 12 13  1  0
 12 15  2  0
 13 25  1  0
 26 14  2  0
 15 26  1  0
 26 16  1  0
 18 17  1  6
 18 19  1  0
 22 18  1  0
 19 21  2  0
 22 23  1  0
 23 24  1  0
M  END
$$$$
