
     RDKit          3D

 26 29  0  0  0  0  0  0  0  0999 V2000
   -6.7352   -3.8553   16.6353 C   0  0  0  0  0  0  0  0  0  0  0  0
   -6.5136   -5.0264   15.9405 C   0  0  0  0  0  0  0  0  0  0  0  0
  -10.9656   -0.8863   15.2105 C   0  0  0  0  0  0  0  0  0  0  0  0
   -6.9105   -5.0814   14.6226 C   0  0  0  0  0  0  0  0  0  0  0  0
   -7.5057   -3.9904   14.0442 C   0  0  0  0  0  0  0  0  0  0  0  0
   -7.7177   -2.8139   14.7757 C   0  0  0  0  0  0  0  0  0  0  0  0
   -8.2719   -1.6419   14.4555 N   0  0  0  0  0  0  0  0  0  0  0  0
  -12.3591   -1.0164   15.1679 C   0  0  0  0  0  0  0  0  0  0  0  0
  -12.6098    1.2329   15.5994 C   0  0  0  0  0  0  0  0  0  0  0  0
   -7.2807   -1.0156   17.8223 C   0  0  0  0  0  0  0  0  0  0  0  0
   -9.4331    0.0757   20.7648 C   0  0  0  0  0  0  0  0  0  0  0  0
   -8.2930   -0.9006   18.8729 C   0  0  0  0  0  0  0  0  0  0  0  0
   -8.3707    0.0473   19.8408 C   0  0  0  0  0  0  0  0  0  0  0  0
  -10.4375   -0.8589   20.7248 C   0  0  0  0  0  0  0  0  0  0  0  0
   -9.3583   -1.8354   18.8847 C   0  0  0  0  0  0  0  0  0  0  0  0
  -11.4955   -2.8384   19.7376 C   0  0  0  0  0  0  0  0  0  0  0  0
   -8.5216    1.3848   14.5354 O   0  0  0  0  0  0  0  0  0  0  0  0
   -8.8947    0.5460   15.5141 C   0  0  1  0  0  0  0  0  0  0  0  0
  -10.3803    0.3330   15.4535 C   0  0  0  0  0  0  0  0  0  0  0  0
  -13.1617    0.0355   15.3611 N   0  0  0  0  0  0  0  0  0  0  0  0
  -11.2274    1.3982   15.6487 C   0  0  0  0  0  0  0  0  0  0  0  0
   -8.2564   -0.7997   15.5284 C   0  0  0  0  0  0  0  0  0  0  0  0
   -7.6682   -1.4873   16.5237 N   0  0  0  0  0  0  0  0  0  0  0  0
   -7.3272   -2.7416   16.0913 C   0  0  0  0  0  0  0  0  0  0  0  0
   -7.3722    1.1072   20.0351 C   0  0  0  0  0  0  0  0  0  0  0  0
  -10.3855   -1.8193   19.7681 C   0  0  0  0  0  0  0  0  0  0  0  0
  1  2  2  0
 24  1  1  0
  4  2  1  0
  3  8  2  0
 19  3  1  0
  5  4  2  0
  6  5  1  0
  7  6  1  0
  6 24  2  0
 22  7  2  0
  8 20  1  0
  9 20  2  0
 21  9  1  0
 10 12  1  0
 23 10  1  0
 13 11  2  0
 11 14  1  0
 12 13  1  0
 12 15  2  0
 13 25  1  0
 26 14  2  0
 15 26  1  0
 26 16  1  0
 18 17  1  6
 18 19  1  0
 22 18  1  0
 19 21  2  0
 22 23  1  0
 23 24  1  0
M  END
$$$$
