
     RDKit          3D

 26 29  0  0  0  0  0  0  0  0999 V2000
   -7.4844   -4.8715   17.0323 C   0  0  0  0  0  0  0  0  0  0  0  0
   -7.4090   -6.2209   16.7554 C   0  0  0  0  0  0  0  0  0  0  0  0
   -7.5562    0.3312   13.3138 C   0  0  0  0  0  0  0  0  0  0  0  0
   -6.6916   -6.6145   15.6474 C   0  0  0  0  0  0  0  0  0  0  0  0
   -6.0812   -5.6723   14.8608 C   0  0  0  0  0  0  0  0  0  0  0  0
   -6.1756   -4.3080   15.1675 C   0  0  0  0  0  0  0  0  0  0  0  0
   -5.6925   -3.2153   14.5708 N   0  0  0  0  0  0  0  0  0  0  0  0
   -8.1886    0.4612   12.0713 C   0  0  0  0  0  0  0  0  0  0  0  0
   -6.7502   -1.0830   11.1467 C   0  0  0  0  0  0  0  0  0  0  0  0
   -7.3132   -1.7720   17.3993 C   0  0  0  0  0  0  0  0  0  0  0  0
  -10.4559    0.3183   17.8850 C   0  0  0  0  0  0  0  0  0  0  0  0
   -8.6235   -1.1320   17.2758 C   0  0  0  0  0  0  0  0  0  0  0  0
   -9.2054   -0.2728   18.1501 C   0  0  0  0  0  0  0  0  0  0  0  0
  -11.1408    0.0477   16.7268 C   0  0  0  0  0  0  0  0  0  0  0  0
   -9.3796   -1.3703   16.1010 C   0  0  0  0  0  0  0  0  0  0  0  0
  -11.3480   -1.0958   14.5677 C   0  0  0  0  0  0  0  0  0  0  0  0
   -4.4760   -0.3949   14.6209 O   0  0  0  0  0  0  0  0  0  0  0  0
   -5.7694   -0.7160   14.7778 C   0  0  1  0  0  0  0  0  0  0  0  0
   -6.4951   -0.5267   13.4764 C   0  0  0  0  0  0  0  0  0  0  0  0
   -7.7832   -0.2412   11.0081 N   0  0  0  0  0  0  0  0  0  0  0  0
   -6.0980   -1.2369   12.3681 C   0  0  0  0  0  0  0  0  0  0  0  0
   -6.0687   -2.0956   15.2530 C   0  0  0  0  0  0  0  0  0  0  0  0
   -6.7968   -2.5312   16.2967 N   0  0  0  0  0  0  0  0  0  0  0  0
   -6.8867   -3.8979   16.2696 C   0  0  0  0  0  0  0  0  0  0  0  0
   -8.6179    0.1095   19.4412 C   0  0  0  0  0  0  0  0  0  0  0  0
  -10.5834   -0.8086   15.8343 C   0  0  0  0  0  0  0  0  0  0  0  0
  1  2  2  0
 24  1  1  0
  4  2  1  0
  3  8  2  0
 19  3  1  0
  5  4  2  0
  6  5  1  0
  7  6  1  0
  6 24  2  0
 22  7  2  0
  8 20  1  0
  9 20  2  0
 21  9  1  0
 10 12  1  0
 23 10  1  0
 13 11  2  0
 11 14  1  0
 12 13  1  0
 12 15  2  0
 13 25  1  0
 26 14  2  0
 15 26  1  0
 26 16  1  0
 18 17  1  6
 18 19  1  0
 22 18  1  0
 19 21  2  0
 22 23  1  0
 23 24  1  0
M  END
$$$$
