
     RDKit          3D

 26 29  0  0  0  0  0  0  0  0999 V2000
   -6.9444   -3.0042   14.1894 C   0  0  0  0  0  0  0  0  0  0  0  0
   -6.0782   -4.0780   14.1801 C   0  0  0  0  0  0  0  0  0  0  0  0
   -8.6967   -0.0120   20.2097 C   0  0  0  0  0  0  0  0  0  0  0  0
   -5.4712   -4.4293   15.3656 C   0  0  0  0  0  0  0  0  0  0  0  0
   -5.7377   -3.7157   16.5052 C   0  0  0  0  0  0  0  0  0  0  0  0
   -6.6226   -2.6291   16.4836 C   0  0  0  0  0  0  0  0  0  0  0  0
   -7.0350   -1.7845   17.4323 N   0  0  0  0  0  0  0  0  0  0  0  0
   -8.1201   -0.1136   21.4816 C   0  0  0  0  0  0  0  0  0  0  0  0
   -6.0131    0.0959   20.5733 C   0  0  0  0  0  0  0  0  0  0  0  0
   -8.9224   -0.6259   14.6384 C   0  0  0  0  0  0  0  0  0  0  0  0
  -12.6688   -0.9360   14.0462 C   0  0  0  0  0  0  0  0  0  0  0  0
  -10.3415   -0.9801   14.6896 C   0  0  0  0  0  0  0  0  0  0  0  0
  -11.3456   -0.4668   13.9349 C   0  0  0  0  0  0  0  0  0  0  0  0
  -12.9987   -1.9355   14.9271 C   0  0  0  0  0  0  0  0  0  0  0  0
  -10.7459   -2.0073   15.5784 C   0  0  0  0  0  0  0  0  0  0  0  0
  -12.3935   -3.5634   16.6579 C   0  0  0  0  0  0  0  0  0  0  0  0
   -9.7979    0.3693   17.7514 O   0  0  0  0  0  0  0  0  0  0  0  0
   -8.4613    0.2624   17.6994 C   0  0  1  0  0  0  0  0  0  0  0  0
   -7.9123    0.1474   19.0927 C   0  0  0  0  0  0  0  0  0  0  0  0
   -6.7947   -0.0592   21.6503 N   0  0  0  0  0  0  0  0  0  0  0  0
   -6.5531    0.2003   19.2934 C   0  0  0  0  0  0  0  0  0  0  0  0
   -7.9061   -0.8732   16.9114 C   0  0  0  0  0  0  0  0  0  0  0  0
   -8.0247   -1.1848   15.6082 N   0  0  0  0  0  0  0  0  0  0  0  0
   -7.2375   -2.2655   15.3097 C   0  0  0  0  0  0  0  0  0  0  0  0
  -11.1688    0.6171   12.9592 C   0  0  0  0  0  0  0  0  0  0  0  0
  -12.0151   -2.4672   15.6954 C   0  0  0  0  0  0  0  0  0  0  0  0
  1  2  2  0
 24  1  1  0
  4  2  1  0
  3  8  2  0
 19  3  1  0
  5  4  2  0
  6  5  1  0
  7  6  1  0
  6 24  2  0
 22  7  2  0
  8 20  1  0
  9 20  2  0
 21  9  1  0
 10 12  1  0
 23 10  1  0
 13 11  2  0
 11 14  1  0
 12 13  1  0
 12 15  2  0
 13 25  1  0
 26 14  2  0
 15 26  1  0
 26 16  1  0
 18 17  1  1
 18 19  1  0
 22 18  1  0
 19 21  2  0
 22 23  1  0
 23 24  1  0
M  END
$$$$
