
     RDKit          3D

 26 29  0  0  0  0  0  0  0  0999 V2000
   -9.8060   -0.5189   13.7634 C   0  0  0  0  0  0  0  0  0  0  0  0
  -10.6512    0.5704   13.7139 C   0  0  0  0  0  0  0  0  0  0  0  0
   -3.9915    0.0707   13.7187 C   0  0  0  0  0  0  0  0  0  0  0  0
  -10.2235    1.6904   13.0357 C   0  0  0  0  0  0  0  0  0  0  0  0
   -8.9901    1.6951   12.4375 C   0  0  0  0  0  0  0  0  0  0  0  0
   -8.1532    0.5729   12.5048 C   0  0  0  0  0  0  0  0  0  0  0  0
   -6.9302    0.3316   12.0260 N   0  0  0  0  0  0  0  0  0  0  0  0
   -3.0559    1.0751   13.9956 C   0  0  0  0  0  0  0  0  0  0  0  0
   -2.4918    1.2024   11.7653 C   0  0  0  0  0  0  0  0  0  0  0  0
   -7.6866   -2.8057   13.5411 C   0  0  0  0  0  0  0  0  0  0  0  0
   -5.8133   -4.5008   16.3870 C   0  0  0  0  0  0  0  0  0  0  0  0
   -7.1004   -3.1784   14.8292 C   0  0  0  0  0  0  0  0  0  0  0  0
   -6.3690   -4.2861   15.1109 C   0  0  0  0  0  0  0  0  0  0  0  0
   -5.9900   -3.5950   17.4028 C   0  0  0  0  0  0  0  0  0  0  0  0
   -7.2467   -2.2832   15.9181 C   0  0  0  0  0  0  0  0  0  0  0  0
   -6.9031   -1.4936   18.2760 C   0  0  0  0  0  0  0  0  0  0  0  0
   -4.9364   -1.8554   10.8054 O   0  0  0  0  0  0  0  0  0  0  0  0
   -5.1654   -1.4515   12.0644 C   0  0  1  0  0  0  0  0  0  0  0  0
   -4.1816   -0.3785   12.4341 C   0  0  0  0  0  0  0  0  0  0  0  0
   -2.3208    1.6271   13.0244 N   0  0  0  0  0  0  0  0  0  0  0  0
   -3.4136    0.2052   11.4544 C   0  0  0  0  0  0  0  0  0  0  0  0
   -6.5259   -0.9258   12.3668 C   0  0  0  0  0  0  0  0  0  0  0  0
   -7.5423   -1.4586   13.0684 N   0  0  0  0  0  0  0  0  0  0  0  0
   -8.5645   -0.5531   13.1767 C   0  0  0  0  0  0  0  0  0  0  0  0
   -6.1003   -5.3609   14.1460 C   0  0  0  0  0  0  0  0  0  0  0  0
   -6.7177   -2.4782   17.1502 C   0  0  0  0  0  0  0  0  0  0  0  0
  1  2  2  0
 24  1  1  0
  4  2  1  0
  3  8  2  0
 19  3  1  0
  5  4  2  0
  6  5  1  0
  7  6  1  0
  6 24  2  0
 22  7  2  0
  8 20  1  0
  9 20  2  0
 21  9  1  0
 10 12  1  0
 23 10  1  0
 13 11  2  0
 11 14  1  0
 12 13  1  0
 12 15  2  0
 13 25  1  0
 26 14  2  0
 15 26  1  0
 26 16  1  0
 18 17  1  6
 18 19  1  0
 22 18  1  0
 19 21  2  0
 22 23  1  0
 23 24  1  0
M  END
$$$$
