
     RDKit          3D

 26 29  0  0  0  0  0  0  0  0999 V2000
  -10.0771   -5.5430   17.6561 C   0  0  0  0  0  0  0  0  0  0  0  0
  -10.3127   -6.4447   18.6733 C   0  0  0  0  0  0  0  0  0  0  0  0
   -8.0866   -0.7396   18.7955 C   0  0  0  0  0  0  0  0  0  0  0  0
  -10.6889   -5.9494   19.9023 C   0  0  0  0  0  0  0  0  0  0  0  0
  -10.8174   -4.5965   20.0813 C   0  0  0  0  0  0  0  0  0  0  0  0
  -10.5712   -3.7045   19.0286 C   0  0  0  0  0  0  0  0  0  0  0  0
  -10.6155   -2.3723   18.9481 N   0  0  0  0  0  0  0  0  0  0  0  0
   -7.0524   -0.1512   19.5337 C   0  0  0  0  0  0  0  0  0  0  0  0
   -7.8089    1.9508   18.9700 C   0  0  0  0  0  0  0  0  0  0  0  0
   -9.7667   -3.2178   15.5902 C   0  0  0  0  0  0  0  0  0  0  0  0
   -6.0306   -2.9789   14.9071 C   0  0  0  0  0  0  0  0  0  0  0  0
   -8.4379   -2.8852   15.0749 C   0  0  0  0  0  0  0  0  0  0  0  0
   -7.2419   -3.3362   15.5303 C   0  0  0  0  0  0  0  0  0  0  0  0
   -6.0099   -2.1556   13.8092 C   0  0  0  0  0  0  0  0  0  0  0  0
   -8.3495   -2.0402   13.9405 C   0  0  0  0  0  0  0  0  0  0  0  0
   -7.1513   -0.7854   12.1264 C   0  0  0  0  0  0  0  0  0  0  0  0
  -11.2221    0.2498   17.4664 O   0  0  0  0  0  0  0  0  0  0  0  0
  -10.1370   -0.5256   17.3182 C   0  0  1  0  0  0  0  0  0  0  0  0
   -9.0041    0.0362   18.1286 C   0  0  0  0  0  0  0  0  0  0  0  0
   -6.9241    1.1775   19.6135 N   0  0  0  0  0  0  0  0  0  0  0  0
   -8.8499    1.3989   18.2267 C   0  0  0  0  0  0  0  0  0  0  0  0
  -10.2777   -1.9605   17.6923 C   0  0  0  0  0  0  0  0  0  0  0  0
  -10.0281   -3.0832   16.9947 N   0  0  0  0  0  0  0  0  0  0  0  0
  -10.1957   -4.1817   17.7958 C   0  0  0  0  0  0  0  0  0  0  0  0
   -7.0845   -4.2081   16.7022 C   0  0  0  0  0  0  0  0  0  0  0  0
   -7.1909   -1.6887   13.3321 C   0  0  0  0  0  0  0  0  0  0  0  0
  1  2  2  0
 24  1  1  0
  4  2  1  0
  3  8  2  0
 19  3  1  0
  5  4  2  0
  6  5  1  0
  7  6  1  0
  6 24  2  0
 22  7  2  0
  8 20  1  0
  9 20  2  0
 21  9  1  0
 10 12  1  0
 23 10  1  0
 13 11  2  0
 11 14  1  0
 12 13  1  0
 12 15  2  0
 13 25  1  0
 26 14  2  0
 15 26  1  0
 26 16  1  0
 18 17  1  1
 18 19  1  0
 22 18  1  0
 19 21  2  0
 22 23  1  0
 23 24  1  0
M  END
$$$$
