
     RDKit          3D

 26 29  0  0  0  0  0  0  0  0999 V2000
   -7.8165   -4.7553   15.9737 C   0  0  0  0  0  0  0  0  0  0  0  0
   -7.3028   -6.0339   16.0415 C   0  0  0  0  0  0  0  0  0  0  0  0
   -7.4411   -0.5766   12.6002 C   0  0  0  0  0  0  0  0  0  0  0  0
   -5.9760   -6.2156   15.7192 C   0  0  0  0  0  0  0  0  0  0  0  0
   -5.2121   -5.1406   15.3454 C   0  0  0  0  0  0  0  0  0  0  0  0
   -5.7621   -3.8528   15.2858 C   0  0  0  0  0  0  0  0  0  0  0  0
   -5.2460   -2.6678   14.9503 N   0  0  0  0  0  0  0  0  0  0  0  0
   -7.6548   -0.4592   11.2213 C   0  0  0  0  0  0  0  0  0  0  0  0
   -5.5444    0.4220   10.9415 C   0  0  0  0  0  0  0  0  0  0  0  0
   -8.5697   -1.7250   15.8305 C   0  0  0  0  0  0  0  0  0  0  0  0
   -9.1089   -1.2866   19.5721 C   0  0  0  0  0  0  0  0  0  0  0  0
   -9.0143   -1.8299   17.2209 C   0  0  0  0  0  0  0  0  0  0  0  0
   -8.5547   -1.1277   18.2871 C   0  0  0  0  0  0  0  0  0  0  0  0
  -10.1406   -2.1626   19.7998 C   0  0  0  0  0  0  0  0  0  0  0  0
  -10.0786   -2.7165   17.5208 C   0  0  0  0  0  0  0  0  0  0  0  0
  -11.7526   -3.8369   19.0186 C   0  0  0  0  0  0  0  0  0  0  0  0
   -4.7314    0.2192   14.8758 O   0  0  0  0  0  0  0  0  0  0  0  0
   -5.9523   -0.2813   14.6321 C   0  0  1  0  0  0  0  0  0  0  0  0
   -6.2502   -0.1851   13.1630 C   0  0  0  0  0  0  0  0  0  0  0  0
   -6.7124    0.0348   10.4114 N   0  0  0  0  0  0  0  0  0  0  0  0
   -5.2982    0.3193   12.3089 C   0  0  0  0  0  0  0  0  0  0  0  0
   -6.1960   -1.6930   15.0400 C   0  0  0  0  0  0  0  0  0  0  0  0
   -7.3178   -2.3128   15.4484 N   0  0  0  0  0  0  0  0  0  0  0  0
   -7.0839   -3.6535   15.6047 C   0  0  0  0  0  0  0  0  0  0  0  0
   -7.4470   -0.1649   18.2216 C   0  0  0  0  0  0  0  0  0  0  0  0
  -10.6201   -2.8789   18.7522 C   0  0  0  0  0  0  0  0  0  0  0  0
  1  2  2  0
 24  1  1  0
  4  2  1  0
  3  8  2  0
 19  3  1  0
  5  4  2  0
  6  5  1  0
  7  6  1  0
  6 24  2  0
 22  7  2  0
  8 20  1  0
  9 20  2  0
 21  9  1  0
 10 12  1  0
 23 10  1  0
 13 11  2  0
 11 14  1  0
 12 13  1  0
 12 15  2  0
 13 25  1  0
 26 14  2  0
 15 26  1  0
 26 16  1  0
 18 17  1  6
 18 19  1  0
 22 18  1  0
 19 21  2  0
 22 23  1  0
 23 24  1  0
M  END
$$$$
