
     RDKit          3D

 26 29  0  0  0  0  0  0  0  0999 V2000
   -6.7767   -0.7901   19.8903 C   0  0  0  0  0  0  0  0  0  0  0  0
   -6.4038    0.2508   20.7153 C   0  0  0  0  0  0  0  0  0  0  0  0
   -8.7460   -0.8515   13.2604 C   0  0  0  0  0  0  0  0  0  0  0  0
   -6.8606    1.5138   20.4096 C   0  0  0  0  0  0  0  0  0  0  0  0
   -7.6603    1.7021   19.3123 C   0  0  0  0  0  0  0  0  0  0  0  0
   -8.0226    0.6247   18.4924 C   0  0  0  0  0  0  0  0  0  0  0  0
   -8.7656    0.5453   17.3856 N   0  0  0  0  0  0  0  0  0  0  0  0
   -7.7302   -0.8070   12.2977 C   0  0  0  0  0  0  0  0  0  0  0  0
   -6.1399   -1.2008   13.9177 C   0  0  0  0  0  0  0  0  0  0  0  0
   -7.9349   -2.8861   17.8813 C   0  0  0  0  0  0  0  0  0  0  0  0
  -10.6582   -5.5440   17.8484 C   0  0  0  0  0  0  0  0  0  0  0  0
   -9.1065   -3.7193   18.1555 C   0  0  0  0  0  0  0  0  0  0  0  0
   -9.5391   -4.7906   17.4441 C   0  0  0  0  0  0  0  0  0  0  0  0
  -11.3608   -5.2236   18.9831 C   0  0  0  0  0  0  0  0  0  0  0  0
   -9.8729   -3.4402   19.3146 C   0  0  0  0  0  0  0  0  0  0  0  0
  -11.7335   -3.8174   20.9568 C   0  0  0  0  0  0  0  0  0  0  0  0
  -10.5629   -0.4210   15.3022 O   0  0  0  0  0  0  0  0  0  0  0  0
   -9.4881   -1.1358   15.6689 C   0  0  1  0  0  0  0  0  0  0  0  0
   -8.4514   -1.0760   14.5837 C   0  0  0  0  0  0  0  0  0  0  0  0
   -6.4473   -0.9806   12.6324 N   0  0  0  0  0  0  0  0  0  0  0  0
   -7.1252   -1.2513   14.9013 C   0  0  0  0  0  0  0  0  0  0  0  0
   -8.8190   -0.7429   16.9403 C   0  0  0  0  0  0  0  0  0  0  0  0
   -8.0884   -1.4612   17.8119 N   0  0  0  0  0  0  0  0  0  0  0  0
   -7.5762   -0.6421   18.7832 C   0  0  0  0  0  0  0  0  0  0  0  0
   -8.9145   -5.2570   16.1989 C   0  0  0  0  0  0  0  0  0  0  0  0
  -10.9514   -4.1566   19.7140 C   0  0  0  0  0  0  0  0  0  0  0  0
  1  2  2  0
 24  1  1  0
  4  2  1  0
  3  8  2  0
 19  3  1  0
  5  4  2  0
  6  5  1  0
  7  6  1  0
  6 24  2  0
 22  7  2  0
  8 20  1  0
  9 20  2  0
 21  9  1  0
 10 12  1  0
 23 10  1  0
 13 11  2  0
 11 14  1  0
 12 13  1  0
 12 15  2  0
 13 25  1  0
 26 14  2  0
 15 26  1  0
 26 16  1  0
 18 17  1  6
 18 19  1  0
 22 18  1  0
 19 21  2  0
 22 23  1  0
 23 24  1  0
M  END
$$$$
