
     RDKit          3D

 26 29  0  0  0  0  0  0  0  0999 V2000
   -8.4879    0.4531   20.2671 C   0  0  0  0  0  0  0  0  0  0  0  0
   -7.4401    0.9047   21.0426 C   0  0  0  0  0  0  0  0  0  0  0  0
   -7.4772   -2.6657   14.0065 C   0  0  0  0  0  0  0  0  0  0  0  0
   -6.1913    0.9737   20.4655 C   0  0  0  0  0  0  0  0  0  0  0  0
   -6.0233    0.5984   19.1579 C   0  0  0  0  0  0  0  0  0  0  0  0
   -7.1072    0.1435   18.3947 C   0  0  0  0  0  0  0  0  0  0  0  0
   -7.2047   -0.2807   17.1322 N   0  0  0  0  0  0  0  0  0  0  0  0
   -6.5842   -3.7259   13.8088 C   0  0  0  0  0  0  0  0  0  0  0  0
   -6.5975   -4.1938   16.0648 C   0  0  0  0  0  0  0  0  0  0  0  0
  -10.6093   -0.4826   18.1706 C   0  0  0  0  0  0  0  0  0  0  0  0
  -12.8056   -2.9077   20.1141 C   0  0  0  0  0  0  0  0  0  0  0  0
  -11.1762   -1.6444   18.8567 C   0  0  0  0  0  0  0  0  0  0  0  0
  -12.3457   -1.7058   19.5421 C   0  0  0  0  0  0  0  0  0  0  0  0
  -12.0863   -4.0713   20.0021 C   0  0  0  0  0  0  0  0  0  0  0  0
  -10.4812   -2.8770   18.7767 C   0  0  0  0  0  0  0  0  0  0  0  0
  -10.1343   -5.3253   19.2090 C   0  0  0  0  0  0  0  0  0  0  0  0
   -8.9597   -0.4219   14.4883 O   0  0  0  0  0  0  0  0  0  0  0  0
   -8.8986   -1.2407   15.5496 C   0  0  1  0  0  0  0  0  0  0  0  0
   -7.9415   -2.3624   15.2638 C   0  0  0  0  0  0  0  0  0  0  0  0
   -6.1561   -4.4740   14.8312 N   0  0  0  0  0  0  0  0  0  0  0  0
   -7.4862   -3.1464   16.2974 C   0  0  0  0  0  0  0  0  0  0  0  0
   -8.4912   -0.6332   16.8472 C   0  0  0  0  0  0  0  0  0  0  0  0
   -9.1899   -0.4077   17.9743 N   0  0  0  0  0  0  0  0  0  0  0  0
   -8.3601    0.0690   18.9545 C   0  0  0  0  0  0  0  0  0  0  0  0
  -13.2258   -0.5521   19.7707 C   0  0  0  0  0  0  0  0  0  0  0  0
  -10.9125   -4.0397   19.3227 C   0  0  0  0  0  0  0  0  0  0  0  0
  1  2  2  0
 24  1  1  0
  4  2  1  0
  3  8  2  0
 19  3  1  0
  5  4  2  0
  6  5  1  0
  7  6  1  0
  6 24  2  0
 22  7  2  0
  8 20  1  0
  9 20  2  0
 21  9  1  0
 10 12  1  0
 23 10  1  0
 13 11  2  0
 11 14  1  0
 12 13  1  0
 12 15  2  0
 13 25  1  0
 26 14  2  0
 15 26  1  0
 26 16  1  0
 18 17  1  6
 18 19  1  0
 22 18  1  0
 19 21  2  0
 22 23  1  0
 23 24  1  0
M  END
$$$$
