
     RDKit          3D

 26 29  0  0  0  0  0  0  0  0999 V2000
   -4.9786   -3.7069   17.0054 C   0  0  0  0  0  0  0  0  0  0  0  0
   -3.9729   -4.4830   16.4673 C   0  0  0  0  0  0  0  0  0  0  0  0
   -8.4817   -1.5719   13.3559 C   0  0  0  0  0  0  0  0  0  0  0  0
   -3.5858   -4.2311   15.1696 C   0  0  0  0  0  0  0  0  0  0  0  0
   -4.1987   -3.2331   14.4573 C   0  0  0  0  0  0  0  0  0  0  0  0
   -5.2179   -2.4609   15.0310 C   0  0  0  0  0  0  0  0  0  0  0  0
   -5.9638   -1.4594   14.5579 N   0  0  0  0  0  0  0  0  0  0  0  0
   -9.0984   -1.8122   12.1220 C   0  0  0  0  0  0  0  0  0  0  0  0
   -9.7852    0.3841   12.0064 C   0  0  0  0  0  0  0  0  0  0  0  0
   -7.1725   -1.6703   17.9053 C   0  0  0  0  0  0  0  0  0  0  0  0
  -10.4600   -2.8379   19.4255 C   0  0  0  0  0  0  0  0  0  0  0  0
   -8.4168   -2.3709   18.2258 C   0  0  0  0  0  0  0  0  0  0  0  0
   -9.2596   -2.1205   19.2594 C   0  0  0  0  0  0  0  0  0  0  0  0
  -10.8281   -3.8247   18.5455 C   0  0  0  0  0  0  0  0  0  0  0  0
   -8.8524   -3.3997   17.3537 C   0  0  0  0  0  0  0  0  0  0  0  0
  -10.4223   -5.1839   16.5455 C   0  0  0  0  0  0  0  0  0  0  0  0
   -7.4712    1.2841   15.2420 O   0  0  0  0  0  0  0  0  0  0  0  0
   -7.8800    0.0060   15.2481 C   0  0  1  0  0  0  0  0  0  0  0  0
   -8.5178   -0.3233   13.9288 C   0  0  0  0  0  0  0  0  0  0  0  0
   -9.7391   -0.8402   11.4641 N   0  0  0  0  0  0  0  0  0  0  0  0
   -9.1826    0.6581   13.2322 C   0  0  0  0  0  0  0  0  0  0  0  0
   -6.8438   -1.0319   15.5084 C   0  0  0  0  0  0  0  0  0  0  0  0
   -6.6144   -1.7985   16.5896 N   0  0  0  0  0  0  0  0  0  0  0  0
   -5.6160   -2.6984   16.3247 C   0  0  0  0  0  0  0  0  0  0  0  0
   -9.0086   -1.1133   20.2990 C   0  0  0  0  0  0  0  0  0  0  0  0
  -10.0043   -4.0974   17.5026 C   0  0  0  0  0  0  0  0  0  0  0  0
  1  2  2  0
 24  1  1  0
  4  2  1  0
  3  8  2  0
 19  3  1  0
  5  4  2  0
  6  5  1  0
  7  6  1  0
  6 24  2  0
 22  7  2  0
  8 20  1  0
  9 20  2  0
 21  9  1  0
 10 12  1  0
 23 10  1  0
 13 11  2  0
 11 14  1  0
 12 13  1  0
 12 15  2  0
 13 25  1  0
 26 14  2  0
 15 26  1  0
 26 16  1  0
 18 17  1  6
 18 19  1  0
 22 18  1  0
 19 21  2  0
 22 23  1  0
 23 24  1  0
M  END
$$$$
