
     RDKit          3D

 26 29  0  0  0  0  0  0  0  0999 V2000
   -8.5857    0.0197   20.0470 C   0  0  0  0  0  0  0  0  0  0  0  0
   -7.7009    0.6314   20.9109 C   0  0  0  0  0  0  0  0  0  0  0  0
   -6.3498   -2.3142   13.8544 C   0  0  0  0  0  0  0  0  0  0  0  0
   -6.4438    0.9380   20.4390 C   0  0  0  0  0  0  0  0  0  0  0  0
   -6.1085    0.6330   19.1453 C   0  0  0  0  0  0  0  0  0  0  0  0
   -7.0290    0.0113   18.2906 C   0  0  0  0  0  0  0  0  0  0  0  0
   -6.9488   -0.3904   17.0196 N   0  0  0  0  0  0  0  0  0  0  0  0
   -5.2117   -3.1055   13.6566 C   0  0  0  0  0  0  0  0  0  0  0  0
   -5.5040   -4.0900   15.7191 C   0  0  0  0  0  0  0  0  0  0  0  0
  -10.3317   -1.2259   17.7731 C   0  0  0  0  0  0  0  0  0  0  0  0
  -11.1398   -4.8926   18.3931 C   0  0  0  0  0  0  0  0  0  0  0  0
  -10.7283   -2.5135   18.3448 C   0  0  0  0  0  0  0  0  0  0  0  0
  -10.7923   -3.7111   17.7101 C   0  0  0  0  0  0  0  0  0  0  0  0
  -11.4301   -4.8812   19.7345 C   0  0  0  0  0  0  0  0  0  0  0  0
  -11.0388   -2.5680   19.7266 C   0  0  0  0  0  0  0  0  0  0  0  0
  -11.6968   -3.7016   21.8674 C   0  0  0  0  0  0  0  0  0  0  0  0
   -8.5515   -0.7778   14.2570 O   0  0  0  0  0  0  0  0  0  0  0  0
   -8.3117   -1.5967   15.2926 C   0  0  1  0  0  0  0  0  0  0  0  0
   -7.0826   -2.4133   15.0127 C   0  0  0  0  0  0  0  0  0  0  0  0
   -4.8027   -3.9788   14.5830 N   0  0  0  0  0  0  0  0  0  0  0  0
   -6.6410   -3.3184   15.9488 C   0  0  0  0  0  0  0  0  0  0  0  0
   -8.1240   -0.9601   16.6261 C   0  0  0  0  0  0  0  0  0  0  0  0
   -8.9383   -0.8928   17.6947 N   0  0  0  0  0  0  0  0  0  0  0  0
   -8.2878   -0.3009   18.7450 C   0  0  0  0  0  0  0  0  0  0  0  0
  -10.5306   -3.8964   16.2764 C   0  0  0  0  0  0  0  0  0  0  0  0
  -11.3749   -3.6976   20.3951 C   0  0  0  0  0  0  0  0  0  0  0  0
  1  2  2  0
 24  1  1  0
  4  2  1  0
  3  8  2  0
 19  3  1  0
  5  4  2  0
  6  5  1  0
  7  6  1  0
  6 24  2  0
 22  7  2  0
  8 20  1  0
  9 20  2  0
 21  9  1  0
 10 12  1  0
 23 10  1  0
 13 11  2  0
 11 14  1  0
 12 13  1  0
 12 15  2  0
 13 25  1  0
 26 14  2  0
 15 26  1  0
 26 16  1  0
 18 17  1  6
 18 19  1  0
 22 18  1  0
 19 21  2  0
 22 23  1  0
 23 24  1  0
M  END
$$$$
