
     RDKit          3D

 26 29  0  0  0  0  0  0  0  0999 V2000
  -10.0226    0.5102   17.2357 C   0  0  0  0  0  0  0  0  0  0  0  0
  -11.0262    1.4549   17.1769 C   0  0  0  0  0  0  0  0  0  0  0  0
   -6.4470   -0.3753   12.5998 C   0  0  0  0  0  0  0  0  0  0  0  0
  -11.5755    1.7391   15.9461 C   0  0  0  0  0  0  0  0  0  0  0  0
  -11.1192    1.0879   14.8295 C   0  0  0  0  0  0  0  0  0  0  0  0
  -10.0978    0.1325   14.9206 C   0  0  0  0  0  0  0  0  0  0  0  0
   -9.4827   -0.6184   14.0035 N   0  0  0  0  0  0  0  0  0  0  0  0
   -5.2886    0.3565   12.3114 C   0  0  0  0  0  0  0  0  0  0  0  0
   -4.0511   -1.0027   13.7006 C   0  0  0  0  0  0  0  0  0  0  0  0
   -7.8884   -1.7595   16.9812 C   0  0  0  0  0  0  0  0  0  0  0  0
   -7.8211   -5.5423   17.3906 C   0  0  0  0  0  0  0  0  0  0  0  0
   -8.1895   -3.1577   17.2914 C   0  0  0  0  0  0  0  0  0  0  0  0
   -7.4425   -4.2481   16.9843 C   0  0  0  0  0  0  0  0  0  0  0  0
   -8.9664   -5.7549   18.1163 C   0  0  0  0  0  0  0  0  0  0  0  0
   -9.3582   -3.4430   18.0407 C   0  0  0  0  0  0  0  0  0  0  0  0
  -10.9883   -4.9331   19.2339 C   0  0  0  0  0  0  0  0  0  0  0  0
   -8.1007   -2.8486   12.7063 O   0  0  0  0  0  0  0  0  0  0  0  0
   -7.6077   -2.2750   13.8147 C   0  0  1  0  0  0  0  0  0  0  0  0
   -6.4063   -1.4466   13.4594 C   0  0  0  0  0  0  0  0  0  0  0  0
   -4.1111    0.0387   12.8599 N   0  0  0  0  0  0  0  0  0  0  0  0
   -5.1839   -1.7524   14.0097 C   0  0  0  0  0  0  0  0  0  0  0  0
   -8.5322   -1.4015   14.5900 C   0  0  0  0  0  0  0  0  0  0  0  0
   -8.5826   -1.1151   15.9033 N   0  0  0  0  0  0  0  0  0  0  0  0
   -9.5392   -0.1637   16.1407 C   0  0  0  0  0  0  0  0  0  0  0  0
   -6.2010   -4.1996   16.2005 C   0  0  0  0  0  0  0  0  0  0  0  0
   -9.7336   -4.6830   18.4372 C   0  0  0  0  0  0  0  0  0  0  0  0
  1  2  2  0
 24  1  1  0
  4  2  1  0
  3  8  2  0
 19  3  1  0
  5  4  2  0
  6  5  1  0
  7  6  1  0
  6 24  2  0
 22  7  2  0
  8 20  1  0
  9 20  2  0
 21  9  1  0
 10 12  1  0
 23 10  1  0
 13 11  2  0
 11 14  1  0
 12 13  1  0
 12 15  2  0
 13 25  1  0
 26 14  2  0
 15 26  1  0
 26 16  1  0
 18 17  1  6
 18 19  1  0
 22 18  1  0
 19 21  2  0
 22 23  1  0
 23 24  1  0
M  END
$$$$
