
     RDKit          3D

 26 29  0  0  0  0  0  0  0  0999 V2000
   -7.8068   -4.7816   16.2721 C   0  0  0  0  0  0  0  0  0  0  0  0
   -7.1468   -5.9717   16.4986 C   0  0  0  0  0  0  0  0  0  0  0  0
   -8.0797    0.2598   12.6551 C   0  0  0  0  0  0  0  0  0  0  0  0
   -5.7939   -6.0195   16.2440 C   0  0  0  0  0  0  0  0  0  0  0  0
   -5.1481   -4.9031   15.7797 C   0  0  0  0  0  0  0  0  0  0  0  0
   -5.8456   -3.7077   15.5590 C   0  0  0  0  0  0  0  0  0  0  0  0
   -5.4605   -2.5096   15.1122 N   0  0  0  0  0  0  0  0  0  0  0  0
   -8.4752    0.1688   11.3149 C   0  0  0  0  0  0  0  0  0  0  0  0
   -6.6046   -1.0815   10.8192 C   0  0  0  0  0  0  0  0  0  0  0  0
   -8.9115   -1.9012   15.7685 C   0  0  0  0  0  0  0  0  0  0  0  0
  -10.2651    0.6973   18.1970 C   0  0  0  0  0  0  0  0  0  0  0  0
   -9.1368   -0.9958   16.8960 C   0  0  0  0  0  0  0  0  0  0  0  0
  -10.1282   -0.0790   17.0299 C   0  0  0  0  0  0  0  0  0  0  0  0
   -9.3971    0.5585   19.2510 C   0  0  0  0  0  0  0  0  0  0  0  0
   -8.2748   -1.0912   18.0170 C   0  0  0  0  0  0  0  0  0  0  0  0
   -7.4504   -0.4903   20.3105 C   0  0  0  0  0  0  0  0  0  0  0  0
   -5.2291    0.3145   14.5464 O   0  0  0  0  0  0  0  0  0  0  0  0
   -6.4329   -0.2771   14.5076 C   0  0  1  0  0  0  0  0  0  0  0  0
   -6.9185   -0.3343   13.0874 C   0  0  0  0  0  0  0  0  0  0  0  0
   -7.7402   -0.4954   10.4168 N   0  0  0  0  0  0  0  0  0  0  0  0
   -6.1813   -1.0109   12.1446 C   0  0  0  0  0  0  0  0  0  0  0  0
   -6.5240   -1.6570   15.0609 C   0  0  0  0  0  0  0  0  0  0  0  0
   -7.5812   -2.3653   15.4968 N   0  0  0  0  0  0  0  0  0  0  0  0
   -7.1954   -3.6422   15.8085 C   0  0  0  0  0  0  0  0  0  0  0  0
  -11.1281    0.2077   15.9926 C   0  0  0  0  0  0  0  0  0  0  0  0
   -8.3954   -0.3502   19.1448 C   0  0  0  0  0  0  0  0  0  0  0  0
  1  2  2  0
 24  1  1  0
  4  2  1  0
  3  8  2  0
 19  3  1  0
  5  4  2  0
  6  5  1  0
  7  6  1  0
  6 24  2  0
 22  7  2  0
  8 20  1  0
  9 20  2  0
 21  9  1  0
 10 12  1  0
 23 10  1  0
 13 11  2  0
 11 14  1  0
 12 13  1  0
 12 15  2  0
 13 25  1  0
 26 14  2  0
 15 26  1  0
 26 16  1  0
 18 17  1  6
 18 19  1  0
 22 18  1  0
 19 21  2  0
 22 23  1  0
 23 24  1  0
M  END
$$$$
