
     RDKit          3D

 26 29  0  0  0  0  0  0  0  0999 V2000
   -8.1365   -0.3490   20.6082 C   0  0  0  0  0  0  0  0  0  0  0  0
   -6.8899    0.2233   20.7549 C   0  0  0  0  0  0  0  0  0  0  0  0
  -10.8259   -0.3755   15.4438 C   0  0  0  0  0  0  0  0  0  0  0  0
   -6.5633    1.2808   19.9349 C   0  0  0  0  0  0  0  0  0  0  0  0
   -7.4690    1.7303   19.0093 C   0  0  0  0  0  0  0  0  0  0  0  0
   -8.7284    1.1284   18.8835 C   0  0  0  0  0  0  0  0  0  0  0  0
   -9.7632    1.3660   18.0734 N   0  0  0  0  0  0  0  0  0  0  0  0
  -10.4919   -0.2216   14.0927 C   0  0  0  0  0  0  0  0  0  0  0  0
  -11.7266    1.7204   13.9802 C   0  0  0  0  0  0  0  0  0  0  0  0
  -11.0709   -1.2823   20.0701 C   0  0  0  0  0  0  0  0  0  0  0  0
  -11.5297   -5.0389   19.6710 C   0  0  0  0  0  0  0  0  0  0  0  0
  -10.9978   -2.6833   19.6533 C   0  0  0  0  0  0  0  0  0  0  0  0
  -11.6453   -3.7407   20.2046 C   0  0  0  0  0  0  0  0  0  0  0  0
  -10.7533   -5.2891   18.5672 C   0  0  0  0  0  0  0  0  0  0  0  0
  -10.2134   -3.0065   18.5181 C   0  0  0  0  0  0  0  0  0  0  0  0
   -9.2448   -4.5419   16.7845 C   0  0  0  0  0  0  0  0  0  0  0  0
  -12.9670    1.3593   17.7945 O   0  0  0  0  0  0  0  0  0  0  0  0
  -12.0288    0.4392   17.5226 C   0  0  1  0  0  0  0  0  0  0  0  0
  -11.6297    0.5409   16.0782 C   0  0  0  0  0  0  0  0  0  0  0  0
  -10.9415    0.8162   13.3793 N   0  0  0  0  0  0  0  0  0  0  0  0
  -12.0785    1.5983   15.3227 C   0  0  0  0  0  0  0  0  0  0  0  0
  -10.7785    0.4922   18.3305 C   0  0  0  0  0  0  0  0  0  0  0  0
  -10.3407   -0.2920   19.3318 N   0  0  0  0  0  0  0  0  0  0  0  0
   -9.0709    0.0729   19.6940 C   0  0  0  0  0  0  0  0  0  0  0  0
  -12.4997   -3.6510   21.3963 C   0  0  0  0  0  0  0  0  0  0  0  0
  -10.0935   -4.2508   17.9954 C   0  0  0  0  0  0  0  0  0  0  0  0
  1  2  2  0
 24  1  1  0
  4  2  1  0
  3  8  2  0
 19  3  1  0
  5  4  2  0
  6  5  1  0
  7  6  1  0
  6 24  2  0
 22  7  2  0
  8 20  1  0
  9 20  2  0
 21  9  1  0
 10 12  1  0
 23 10  1  0
 13 11  2  0
 11 14  1  0
 12 13  1  0
 12 15  2  0
 13 25  1  0
 26 14  2  0
 15 26  1  0
 26 16  1  0
 18 17  1  1
 18 19  1  0
 22 18  1  0
 19 21  2  0
 22 23  1  0
 23 24  1  0
M  END
$$$$
