
     RDKit          3D

 26 29  0  0  0  0  0  0  0  0999 V2000
   -8.3544   -0.8919   19.8477 C   0  0  0  0  0  0  0  0  0  0  0  0
   -7.7542   -0.0174   20.7299 C   0  0  0  0  0  0  0  0  0  0  0  0
   -5.6728   -2.7171   15.4014 C   0  0  0  0  0  0  0  0  0  0  0  0
   -6.8519    0.8927   20.2251 C   0  0  0  0  0  0  0  0  0  0  0  0
   -6.5771    0.9067   18.8823 C   0  0  0  0  0  0  0  0  0  0  0  0
   -7.2028    0.0055   18.0101 C   0  0  0  0  0  0  0  0  0  0  0  0
   -7.1042   -0.1886   16.6926 N   0  0  0  0  0  0  0  0  0  0  0  0
   -4.7403   -3.7531   15.2677 C   0  0  0  0  0  0  0  0  0  0  0  0
   -6.2172   -4.9515   13.9672 C   0  0  0  0  0  0  0  0  0  0  0  0
   -9.5916   -2.5981   17.5393 C   0  0  0  0  0  0  0  0  0  0  0  0
  -13.3272   -2.2154   18.1566 C   0  0  0  0  0  0  0  0  0  0  0  0
  -10.9771   -2.1315   17.6069 C   0  0  0  0  0  0  0  0  0  0  0  0
  -12.0484   -2.8026   18.1002 C   0  0  0  0  0  0  0  0  0  0  0  0
  -13.5436   -0.9350   17.7122 C   0  0  0  0  0  0  0  0  0  0  0  0
  -11.2654   -0.8163   17.1646 C   0  0  0  0  0  0  0  0  0  0  0  0
  -12.7449    1.1642   16.7286 C   0  0  0  0  0  0  0  0  0  0  0  0
   -7.7813   -0.8367   13.9185 O   0  0  0  0  0  0  0  0  0  0  0  0
   -7.9555   -1.7297   14.9049 C   0  0  1  0  0  0  0  0  0  0  0  0
   -6.9072   -2.8006   14.8035 C   0  0  0  0  0  0  0  0  0  0  0  0
   -5.0187   -4.8516   14.5577 N   0  0  0  0  0  0  0  0  0  0  0  0
   -7.1684   -3.9399   14.0795 C   0  0  0  0  0  0  0  0  0  0  0  0
   -7.9202   -1.2086   16.2999 C   0  0  0  0  0  0  0  0  0  0  0  0
   -8.5331   -1.6371   17.4180 N   0  0  0  0  0  0  0  0  0  0  0  0
   -8.1062   -0.9087   18.4968 C   0  0  0  0  0  0  0  0  0  0  0  0
  -11.9949   -4.1834   18.5988 C   0  0  0  0  0  0  0  0  0  0  0  0
  -12.4908   -0.2402   17.2129 C   0  0  0  0  0  0  0  0  0  0  0  0
  1  2  2  0
 24  1  1  0
  4  2  1  0
  3  8  2  0
 19  3  1  0
  5  4  2  0
  6  5  1  0
  7  6  1  0
  6 24  2  0
 22  7  2  0
  8 20  1  0
  9 20  2  0
 21  9  1  0
 10 12  1  0
 23 10  1  0
 13 11  2  0
 11 14  1  0
 12 13  1  0
 12 15  2  0
 13 25  1  0
 26 14  2  0
 15 26  1  0
 26 16  1  0
 18 17  1  6
 18 19  1  0
 22 18  1  0
 19 21  2  0
 22 23  1  0
 23 24  1  0
M  END
$$$$
