
     RDKit          3D

 29 33  0  0  0  0  0  0  0  0999 V2000
   16.3640    9.6852  -11.0420 C   0  0  0  0  0  0  0  0  0  0  0  0
   16.3590   11.1332  -10.6475 C   0  0  0  0  0  0  0  0  0  0  0  0
   17.5637   11.6826  -11.4186 C   0  0  0  0  0  0  0  0  0  0  0  0
   18.7725   10.8447  -11.0686 C   0  0  0  0  0  0  0  0  0  0  0  0
   18.7270    9.6315  -10.5733 C   0  0  0  0  0  0  0  0  0  0  0  0
   17.4874    8.9010  -10.2908 C   0  0  0  0  0  0  0  0  0  0  0  0
   19.9355   11.6908  -11.4495 C   0  0  1  0  0  0  0  0  0  0  0  0
   20.9174   11.5460  -10.3026 C   0  0  0  0  0  0  0  0  0  0  0  0
   21.8288   10.3642  -10.5251 C   0  0  0  0  0  0  0  0  0  0  0  0
   21.1598    9.0890  -10.1574 C   0  0  0  0  0  0  0  0  0  0  0  0
   19.7278    7.5335   -9.7289 C   0  0  0  0  0  0  0  0  0  0  0  0
   18.5920    6.6903   -9.5150 C   0  0  0  0  0  0  0  0  0  0  0  0
   15.1558   11.7298  -11.2629 C   0  0  0  0  0  0  0  0  0  0  0  0
   13.8724   11.2486  -11.3548 C   0  0  0  0  0  0  0  0  0  0  0  0
   15.1666   12.9638  -11.8837 C   0  0  0  0  0  0  0  0  0  0  0  0
   11.7521   12.1150  -12.3464 C   0  0  0  0  0  0  0  0  0  0  0  0
   20.8065   11.9090  -13.7795 C   0  0  0  0  0  0  0  0  0  0  0  0
   19.7952   12.3073  -14.6383 C   0  0  0  0  0  0  0  0  0  0  0  0
   20.0994   13.0902  -15.7573 C   0  0  0  0  0  0  0  0  0  0  0  0
   21.4015   13.4560  -15.9930 C   0  0  0  0  0  0  0  0  0  0  0  0
   22.3924   13.0453  -15.1213 C   0  0  0  0  0  0  0  0  0  0  0  0
   22.1051   12.2824  -14.0282 C   0  0  0  0  0  0  0  0  0  0  0  0
   19.8441    8.7871  -10.1684 N   0  0  0  0  0  0  0  0  0  0  0  0
   21.8773    8.0484   -9.7212 N   0  0  0  0  0  0  0  0  0  0  0  0
   21.0166    7.1221   -9.4667 N   0  0  0  0  0  0  0  0  0  0  0  0
   13.1570   12.1737  -12.0092 N   0  0  0  0  0  0  0  0  0  0  0  0
   13.9229   13.2126  -12.3342 N   0  0  0  0  0  0  0  0  0  0  0  0
   20.5453   11.1366  -12.6350 N   0  0  0  0  0  0  0  0  0  0  0  0
   21.8401   14.4450  -17.3930 Cl  0  0  0  0  0  0  0  0  0  0  0  0
  2  1  1  0
  6  1  1  0
  3  2  1  0
  2 13  1  0
  4  3  1  0
  4  5  2  0
  7  4  1  0
  5  6  1  0
  5 23  1  0
  7  8  1  0
  7 28  1  6
  8  9  1  0
  9 10  1  0
 10 23  1  0
 10 24  2  0
 11 12  1  0
 23 11  1  0
 11 25  2  0
 13 14  2  0
 13 15  1  0
 14 26  1  0
 15 27  2  0
 26 16  1  0
 17 18  2  0
 17 22  1  0
 17 28  1  0
 18 19  1  0
 19 20  2  0
 20 21  1  0
 20 29  1  0
 21 22  2  0
 24 25  1  0
 26 27  1  0
M  END
$$$$
