
     RDKit          3D

 29 33  0  0  0  0  0  0  0  0999 V2000
   22.0115   10.3404  -12.8870 C   0  0  0  0  0  0  0  0  0  0  0  0
   20.8123   10.1303  -13.7647 C   0  0  0  0  0  0  0  0  0  0  0  0
   19.7223   10.9014  -13.0129 C   0  0  0  0  0  0  0  0  0  0  0  0
   19.6737   10.3883  -11.5915 C   0  0  0  0  0  0  0  0  0  0  0  0
   20.6478    9.7486  -10.9906 C   0  0  0  0  0  0  0  0  0  0  0  0
   21.9401    9.4410  -11.6115 C   0  0  0  0  0  0  0  0  0  0  0  0
   18.3394   10.8119  -11.0878 C   0  0  1  0  0  0  0  0  0  0  0  0
   17.8034    9.6072  -10.3381 C   0  0  0  0  0  0  0  0  0  0  0  0
   18.2477    9.6338   -8.8963 C   0  0  0  0  0  0  0  0  0  0  0  0
   19.6436    9.1446   -8.7518 C   0  0  0  0  0  0  0  0  0  0  0  0
   21.7059    8.5992   -9.0734 C   0  0  0  0  0  0  0  0  0  0  0  0
   23.0341    8.3402   -9.5377 C   0  0  0  0  0  0  0  0  0  0  0  0
   21.0724   10.8760  -15.0131 C   0  0  0  0  0  0  0  0  0  0  0  0
   22.1427   10.8252  -15.8727 C   0  0  0  0  0  0  0  0  0  0  0  0
   20.1908   11.8079  -15.5255 C   0  0  0  0  0  0  0  0  0  0  0  0
   22.7324   11.9996  -17.9947 C   0  0  0  0  0  0  0  0  0  0  0  0
   18.7047   13.2206  -10.5405 C   0  0  0  0  0  0  0  0  0  0  0  0
   19.9047   13.6641  -11.0717 C   0  0  0  0  0  0  0  0  0  0  0  0
   20.0387   14.9979  -11.4723 C   0  0  0  0  0  0  0  0  0  0  0  0
   18.9759   15.8558  -11.3336 C   0  0  0  0  0  0  0  0  0  0  0  0
   17.7893   15.3888  -10.8002 C   0  0  0  0  0  0  0  0  0  0  0  0
   17.6496   14.0906  -10.4073 C   0  0  0  0  0  0  0  0  0  0  0  0
   20.6538    9.1851   -9.6463 N   0  0  0  0  0  0  0  0  0  0  0  0
   20.0386    8.5460   -7.6233 N   0  0  0  0  0  0  0  0  0  0  0  0
   21.2714    8.2222   -7.8212 N   0  0  0  0  0  0  0  0  0  0  0  0
   21.8927   11.7007  -16.8560 N   0  0  0  0  0  0  0  0  0  0  0  0
   20.7207   12.3004  -16.6606 N   0  0  0  0  0  0  0  0  0  0  0  0
   18.5195   11.8863  -10.1404 N   0  0  0  0  0  0  0  0  0  0  0  0
   19.0924   17.5517  -11.8244 Cl  0  0  0  0  0  0  0  0  0  0  0  0
  2  1  1  0
  6  1  1  0
  3  2  1  0
  2 13  1  0
  4  3  1  0
  4  5  2  0
  7  4  1  0
  5  6  1  0
  5 23  1  0
  7  8  1  0
  7 28  1  1
  8  9  1  0
  9 10  1  0
 10 23  1  0
 10 24  2  0
 11 12  1  0
 23 11  1  0
 11 25  2  0
 13 14  2  0
 13 15  1  0
 14 26  1  0
 15 27  2  0
 26 16  1  0
 17 18  2  0
 17 22  1  0
 17 28  1  0
 18 19  1  0
 19 20  2  0
 20 21  1  0
 20 29  1  0
 21 22  2  0
 24 25  1  0
 26 27  1  0
M  END
$$$$
