
     RDKit          3D

 29 33  0  0  0  0  0  0  0  0999 V2000
   16.5576    9.1544  -11.2840 C   0  0  0  0  0  0  0  0  0  0  0  0
   15.9858   10.2442  -10.4251 C   0  0  0  0  0  0  0  0  0  0  0  0
   16.9717   11.3931  -10.6614 C   0  0  0  0  0  0  0  0  0  0  0  0
   18.3652   10.8918  -10.3566 C   0  0  0  0  0  0  0  0  0  0  0  0
   18.7213    9.6301  -10.3362 C   0  0  0  0  0  0  0  0  0  0  0  0
   17.8149    8.5117  -10.6152 C   0  0  0  0  0  0  0  0  0  0  0  0
   19.1675   12.1267  -10.1447 C   0  0  1  0  0  0  0  0  0  0  0  0
   20.0228   11.8338   -8.9268 C   0  0  0  0  0  0  0  0  0  0  0  0
   21.3201   11.1773   -9.3301 C   0  0  0  0  0  0  0  0  0  0  0  0
   21.1336    9.7258   -9.5895 C   0  0  0  0  0  0  0  0  0  0  0  0
   20.3376    7.7779  -10.0651 C   0  0  0  0  0  0  0  0  0  0  0  0
   19.5750    6.6212  -10.4218 C   0  0  0  0  0  0  0  0  0  0  0  0
   14.7107   10.6459  -11.0536 C   0  0  0  0  0  0  0  0  0  0  0  0
   13.5726   11.1759  -10.4960 C   0  0  0  0  0  0  0  0  0  0  0  0
   14.4757   10.5295  -12.4098 C   0  0  0  0  0  0  0  0  0  0  0  0
   11.3620   11.9003  -11.4005 C   0  0  0  0  0  0  0  0  0  0  0  0
   20.2933   13.5736  -11.8401 C   0  0  0  0  0  0  0  0  0  0  0  0
   21.4854   13.8657  -12.4821 C   0  0  0  0  0  0  0  0  0  0  0  0
   21.6822   15.1317  -13.0441 C   0  0  0  0  0  0  0  0  0  0  0  0
   20.6883   16.0744  -12.9524 C   0  0  0  0  0  0  0  0  0  0  0  0
   19.5081   15.7583  -12.3060 C   0  0  0  0  0  0  0  0  0  0  0  0
   19.3075   14.5270  -11.7556 C   0  0  0  0  0  0  0  0  0  0  0  0
   20.0271    9.0734  -10.0046 N   0  0  0  0  0  0  0  0  0  0  0  0
   22.1383    8.8668   -9.3887 N   0  0  0  0  0  0  0  0  0  0  0  0
   21.6570    7.7047   -9.6744 N   0  0  0  0  0  0  0  0  0  0  0  0
   12.7009   11.3627  -11.4965 N   0  0  0  0  0  0  0  0  0  0  0  0
   13.2306   10.9780  -12.6554 N   0  0  0  0  0  0  0  0  0  0  0  0
   20.0455   12.3106  -11.2759 N   0  0  0  0  0  0  0  0  0  0  0  0
   20.8859   17.6901  -13.6456 Cl  0  0  0  0  0  0  0  0  0  0  0  0
  2  1  1  0
  6  1  1  0
  3  2  1  0
  2 13  1  0
  4  3  1  0
  4  5  2  0
  7  4  1  0
  5  6  1  0
  5 23  1  0
  7  8  1  0
  7 28  1  6
  8  9  1  0
  9 10  1  0
 10 23  1  0
 10 24  2  0
 11 12  1  0
 23 11  1  0
 11 25  2  0
 13 14  2  0
 13 15  1  0
 14 26  1  0
 15 27  2  0
 26 16  1  0
 17 18  2  0
 17 22  1  0
 17 28  1  0
 18 19  1  0
 19 20  2  0
 20 21  1  0
 20 29  1  0
 21 22  2  0
 24 25  1  0
 26 27  1  0
M  END
$$$$
