
     RDKit          3D

 29 33  0  0  0  0  0  0  0  0999 V2000
   17.1478   11.7292  -10.8651 C   0  0  0  0  0  0  0  0  0  0  0  0
   18.0271   12.8883  -10.4965 C   0  0  0  0  0  0  0  0  0  0  0  0
   19.2328   12.6861  -11.4201 C   0  0  0  0  0  0  0  0  0  0  0  0
   19.7613   11.2853  -11.2096 C   0  0  0  0  0  0  0  0  0  0  0  0
   19.0758   10.2941  -10.6930 C   0  0  0  0  0  0  0  0  0  0  0  0
   17.6828   10.3978  -10.2469 C   0  0  0  0  0  0  0  0  0  0  0  0
   21.1486   11.3258  -11.7457 C   0  0  1  0  0  0  0  0  0  0  0  0
   21.9839   10.5734  -10.7275 C   0  0  0  0  0  0  0  0  0  0  0  0
   22.0096    9.0980  -11.0425 C   0  0  0  0  0  0  0  0  0  0  0  0
   20.7708    8.4237  -10.5739 C   0  0  0  0  0  0  0  0  0  0  0  0
   18.7603    7.9578   -9.9457 C   0  0  0  0  0  0  0  0  0  0  0  0
   17.3782    7.9138   -9.5788 C   0  0  0  0  0  0  0  0  0  0  0  0
   17.3338   14.1049  -10.9671 C   0  0  0  0  0  0  0  0  0  0  0  0
   15.9924   14.3905  -11.0440 C   0  0  0  0  0  0  0  0  0  0  0  0
   18.0077   15.2165  -11.4347 C   0  0  0  0  0  0  0  0  0  0  0  0
   14.6711   16.3672  -11.8035 C   0  0  0  0  0  0  0  0  0  0  0  0
   21.4379   11.2152  -14.2234 C   0  0  0  0  0  0  0  0  0  0  0  0
   21.8962   10.5046  -15.3206 C   0  0  0  0  0  0  0  0  0  0  0  0
   22.1150   11.1632  -16.5355 C   0  0  0  0  0  0  0  0  0  0  0  0
   21.8728   12.5114  -16.6271 C   0  0  0  0  0  0  0  0  0  0  0  0
   21.4163   13.1979  -15.5177 C   0  0  0  0  0  0  0  0  0  0  0  0
   21.2000   12.5643  -14.3298 C   0  0  0  0  0  0  0  0  0  0  0  0
   19.5326    8.9377  -10.4165 N   0  0  0  0  0  0  0  0  0  0  0  0
   20.7947    7.1363  -10.2136 N   0  0  0  0  0  0  0  0  0  0  0  0
   19.5910    6.8635   -9.8391 N   0  0  0  0  0  0  0  0  0  0  0  0
   15.8875   15.6306  -11.5411 N   0  0  0  0  0  0  0  0  0  0  0  0
   17.0930   16.1410  -11.7814 N   0  0  0  0  0  0  0  0  0  0  0  0
   21.1884   10.5925  -12.9887 N   0  0  0  0  0  0  0  0  0  0  0  0
   22.1331   13.3921  -18.1394 Cl  0  0  0  0  0  0  0  0  0  0  0  0
  2  1  1  0
  6  1  1  0
  3  2  1  0
  2 13  1  0
  4  3  1  0
  4  5  2  0
  7  4  1  0
  5  6  1  0
  5 23  1  0
  7  8  1  0
  7 28  1  6
  8  9  1  0
  9 10  1  0
 10 23  1  0
 10 24  2  0
 11 12  1  0
 23 11  1  0
 11 25  2  0
 13 14  2  0
 13 15  1  0
 14 26  1  0
 15 27  2  0
 26 16  1  0
 17 18  2  0
 17 22  1  0
 17 28  1  0
 18 19  1  0
 19 20  2  0
 20 21  1  0
 20 29  1  0
 21 22  2  0
 24 25  1  0
 26 27  1  0
M  END
$$$$
