
     RDKit          3D

 29 33  0  0  0  0  0  0  0  0999 V2000
   16.3700    9.4269  -11.0349 C   0  0  0  0  0  0  0  0  0  0  0  0
   15.9161   10.6013  -10.2182 C   0  0  0  0  0  0  0  0  0  0  0  0
   17.0071   11.6376  -10.5076 C   0  0  0  0  0  0  0  0  0  0  0  0
   18.3480   11.0149  -10.1908 C   0  0  0  0  0  0  0  0  0  0  0  0
   18.5793    9.7261  -10.1206 C   0  0  0  0  0  0  0  0  0  0  0  0
   17.5652    8.6917  -10.3478 C   0  0  0  0  0  0  0  0  0  0  0  0
   19.2692   12.1727  -10.0349 C   0  0  1  0  0  0  0  0  0  0  0  0
   20.1039   11.8468   -8.8111 C   0  0  0  0  0  0  0  0  0  0  0  0
   21.3268   11.0505   -9.1949 C   0  0  0  0  0  0  0  0  0  0  0  0
   20.9968    9.6151   -9.3932 C   0  0  0  0  0  0  0  0  0  0  0  0
   20.0096    7.7370   -9.7833 C   0  0  0  0  0  0  0  0  0  0  0  0
   19.1341    6.6471  -10.0875 C   0  0  0  0  0  0  0  0  0  0  0  0
   14.6800   11.1004  -10.8549 C   0  0  0  0  0  0  0  0  0  0  0  0
   14.3968   12.3254  -11.4081 C   0  0  0  0  0  0  0  0  0  0  0  0
   13.5428   10.3277  -10.9887 C   0  0  0  0  0  0  0  0  0  0  0  0
   12.3895   13.3196  -12.5091 C   0  0  0  0  0  0  0  0  0  0  0  0
   20.3208   13.3883  -11.9457 C   0  0  0  0  0  0  0  0  0  0  0  0
   19.2609   13.9943  -12.6001 C   0  0  0  0  0  0  0  0  0  0  0  0
   19.4748   15.1624  -13.3399 C   0  0  0  0  0  0  0  0  0  0  0  0
   20.7374   15.6970  -13.4099 C   0  0  0  0  0  0  0  0  0  0  0  0
   21.7783   15.0729  -12.7483 C   0  0  0  0  0  0  0  0  0  0  0  0
   21.5791   13.9344  -12.0249 C   0  0  0  0  0  0  0  0  0  0  0  0
   19.8278    9.0581   -9.7744 N   0  0  0  0  0  0  0  0  0  0  0  0
   21.9148    8.6705   -9.1633 N   0  0  0  0  0  0  0  0  0  0  0  0
   21.3194    7.5506   -9.3979 N   0  0  0  0  0  0  0  0  0  0  0  0
   13.1333   12.2686  -11.8508 N   0  0  0  0  0  0  0  0  0  0  0  0
   12.6057   11.0716  -11.6053 N   0  0  0  0  0  0  0  0  0  0  0  0
   20.1495   12.2239  -11.1780 N   0  0  0  0  0  0  0  0  0  0  0  0
   21.0621   17.1720  -14.3314 Cl  0  0  0  0  0  0  0  0  0  0  0  0
  2  1  1  0
  6  1  1  0
  3  2  1  0
  2 13  1  0
  4  3  1  0
  4  5  2  0
  7  4  1  0
  5  6  1  0
  5 23  1  0
  7  8  1  0
  7 28  1  6
  8  9  1  0
  9 10  1  0
 10 23  1  0
 10 24  2  0
 11 12  1  0
 23 11  1  0
 11 25  2  0
 13 14  2  0
 13 15  1  0
 14 26  1  0
 15 27  2  0
 26 16  1  0
 17 18  2  0
 17 22  1  0
 17 28  1  0
 18 19  1  0
 19 20  2  0
 20 21  1  0
 20 29  1  0
 21 22  2  0
 24 25  1  0
 26 27  1  0
M  END
$$$$
