
     RDKit          3D

 29 33  0  0  0  0  0  0  0  0999 V2000
   16.1773    9.6144  -11.1042 C   0  0  0  0  0  0  0  0  0  0  0  0
   15.8758   10.8822  -10.3599 C   0  0  0  0  0  0  0  0  0  0  0  0
   17.0256   11.7955  -10.7975 C   0  0  0  0  0  0  0  0  0  0  0  0
   18.3296   11.0852  -10.5123 C   0  0  0  0  0  0  0  0  0  0  0  0
   18.4596    9.7904  -10.3517 C   0  0  0  0  0  0  0  0  0  0  0  0
   17.3518    8.8330  -10.4327 C   0  0  0  0  0  0  0  0  0  0  0  0
   19.3502   12.1678  -10.5066 C   0  0  1  0  0  0  0  0  0  0  0  0
   20.2354   11.8649   -9.3128 C   0  0  0  0  0  0  0  0  0  0  0  0
   21.3612   10.9393   -9.7033 C   0  0  0  0  0  0  0  0  0  0  0  0
   20.9031    9.5268   -9.7641 C   0  0  0  0  0  0  0  0  0  0  0  0
   19.7428    7.7166   -9.9403 C   0  0  0  0  0  0  0  0  0  0  0  0
   18.7632    6.6865  -10.1017 C   0  0  0  0  0  0  0  0  0  0  0  0
   14.6447   11.4363  -10.9597 C   0  0  0  0  0  0  0  0  0  0  0  0
   13.7171   10.8509  -11.7867 C   0  0  0  0  0  0  0  0  0  0  0  0
   14.2281   12.7360  -10.7467 C   0  0  0  0  0  0  0  0  0  0  0  0
   11.6115   11.6330  -12.8750 C   0  0  0  0  0  0  0  0  0  0  0  0
   20.2242   13.0800  -12.6604 C   0  0  0  0  0  0  0  0  0  0  0  0
   20.1941   12.8116  -14.0190 C   0  0  0  0  0  0  0  0  0  0  0  0
   20.2501   13.8645  -14.9388 C   0  0  0  0  0  0  0  0  0  0  0  0
   20.3351   15.1567  -14.4831 C   0  0  0  0  0  0  0  0  0  0  0  0
   20.3641   15.3981  -13.1224 C   0  0  0  0  0  0  0  0  0  0  0  0
   20.3098   14.3783  -12.2189 C   0  0  0  0  0  0  0  0  0  0  0  0
   19.6699    9.0453  -10.0279 N   0  0  0  0  0  0  0  0  0  0  0  0
   21.7546    8.5267   -9.5138 N   0  0  0  0  0  0  0  0  0  0  0  0
   21.0559    7.4477   -9.6204 N   0  0  0  0  0  0  0  0  0  0  0  0
   12.7884   11.7810  -12.0479 N   0  0  0  0  0  0  0  0  0  0  0  0
   13.0825   12.9217  -11.4285 N   0  0  0  0  0  0  0  0  0  0  0  0
   20.1536   12.0558  -11.7009 N   0  0  0  0  0  0  0  0  0  0  0  0
   20.4086   16.5242  -15.6033 Cl  0  0  0  0  0  0  0  0  0  0  0  0
  2  1  1  0
  6  1  1  0
  3  2  1  0
  2 13  1  0
  4  3  1  0
  4  5  2  0
  7  4  1  0
  5  6  1  0
  5 23  1  0
  7  8  1  0
  7 28  1  6
  8  9  1  0
  9 10  1  0
 10 23  1  0
 10 24  2  0
 11 12  1  0
 23 11  1  0
 11 25  2  0
 13 14  2  0
 13 15  1  0
 14 26  1  0
 15 27  2  0
 26 16  1  0
 17 18  2  0
 17 22  1  0
 17 28  1  0
 18 19  1  0
 19 20  2  0
 20 21  1  0
 20 29  1  0
 21 22  2  0
 24 25  1  0
 26 27  1  0
M  END
$$$$
