
     RDKit          3D

 29 33  0  0  0  0  0  0  0  0999 V2000
   21.6877   10.6015  -13.2138 C   0  0  0  0  0  0  0  0  0  0  0  0
   20.4241   10.4378  -14.0068 C   0  0  0  0  0  0  0  0  0  0  0  0
   19.4229   11.2658  -13.1944 C   0  0  0  0  0  0  0  0  0  0  0  0
   19.4467   10.7700  -11.7662 C   0  0  0  0  0  0  0  0  0  0  0  0
   20.4291   10.0925  -11.2230 C   0  0  0  0  0  0  0  0  0  0  0  0
   21.6616    9.7194  -11.9245 C   0  0  0  0  0  0  0  0  0  0  0  0
   18.1697   11.2596  -11.1804 C   0  0  1  0  0  0  0  0  0  0  0  0
   17.6315   10.0886  -10.3807 C   0  0  0  0  0  0  0  0  0  0  0  0
   18.1723   10.1095   -8.9722 C   0  0  0  0  0  0  0  0  0  0  0  0
   19.5512    9.5582   -8.9145 C   0  0  0  0  0  0  0  0  0  0  0  0
   21.5605    8.9153   -9.3655 C   0  0  0  0  0  0  0  0  0  0  0  0
   22.8415    8.5908   -9.9137 C   0  0  0  0  0  0  0  0  0  0  0  0
   20.6332   11.1578  -15.2796 C   0  0  0  0  0  0  0  0  0  0  0  0
   20.2763   10.8188  -16.5620 C   0  0  0  0  0  0  0  0  0  0  0  0
   21.2747   12.3791  -15.3516 C   0  0  0  0  0  0  0  0  0  0  0  0
   20.5494   11.9046  -18.7928 C   0  0  0  0  0  0  0  0  0  0  0  0
   18.4800   13.6818  -10.6594 C   0  0  0  0  0  0  0  0  0  0  0  0
   19.6231   14.4577  -10.5583 C   0  0  0  0  0  0  0  0  0  0  0  0
   19.6004   15.7908  -10.9825 C   0  0  0  0  0  0  0  0  0  0  0  0
   18.4410   16.3175  -11.4957 C   0  0  0  0  0  0  0  0  0  0  0  0
   17.3137   15.5227  -11.5855 C   0  0  0  0  0  0  0  0  0  0  0  0
   17.3268   14.2225  -11.1749 C   0  0  0  0  0  0  0  0  0  0  0  0
   20.4998    9.5430   -9.8748 N   0  0  0  0  0  0  0  0  0  0  0  0
   19.9936    8.9536   -7.8070 N   0  0  0  0  0  0  0  0  0  0  0  0
   21.1944    8.5716   -8.0822 N   0  0  0  0  0  0  0  0  0  0  0  0
   20.6970   11.8120  -17.3573 N   0  0  0  0  0  0  0  0  0  0  0  0
   21.3002   12.7591  -16.6426 N   0  0  0  0  0  0  0  0  0  0  0  0
   18.4614   12.3343  -10.2615 N   0  0  0  0  0  0  0  0  0  0  0  0
   18.3583   17.9969  -12.0462 Cl  0  0  0  0  0  0  0  0  0  0  0  0
  2  1  1  0
  6  1  1  0
  3  2  1  0
  2 13  1  0
  4  3  1  0
  4  5  2  0
  7  4  1  0
  5  6  1  0
  5 23  1  0
  7  8  1  0
  7 28  1  1
  8  9  1  0
  9 10  1  0
 10 23  1  0
 10 24  2  0
 11 12  1  0
 23 11  1  0
 11 25  2  0
 13 14  2  0
 13 15  1  0
 14 26  1  0
 15 27  2  0
 26 16  1  0
 17 18  2  0
 17 22  1  0
 17 28  1  0
 18 19  1  0
 19 20  2  0
 20 21  1  0
 20 29  1  0
 21 22  2  0
 24 25  1  0
 26 27  1  0
M  END
$$$$
