
     RDKit          3D

 29 33  0  0  0  0  0  0  0  0999 V2000
   16.5471    9.2016  -11.1635 C   0  0  0  0  0  0  0  0  0  0  0  0
   15.9826   10.3798  -10.4248 C   0  0  0  0  0  0  0  0  0  0  0  0
   16.9557   11.4992  -10.8094 C   0  0  0  0  0  0  0  0  0  0  0  0
   18.3580   11.0436  -10.4750 C   0  0  0  0  0  0  0  0  0  0  0  0
   18.7238    9.7944  -10.3167 C   0  0  0  0  0  0  0  0  0  0  0  0
   17.8208    8.6466  -10.4488 C   0  0  0  0  0  0  0  0  0  0  0  0
   19.1548   12.2989  -10.4210 C   0  0  1  0  0  0  0  0  0  0  0  0
   20.0337   12.1522   -9.1936 C   0  0  0  0  0  0  0  0  0  0  0  0
   21.3285   11.4606   -9.5428 C   0  0  0  0  0  0  0  0  0  0  0  0
   21.1481    9.9880   -9.6307 C   0  0  0  0  0  0  0  0  0  0  0  0
   20.3583    7.9942   -9.8650 C   0  0  0  0  0  0  0  0  0  0  0  0
   19.5980    6.8002  -10.0726 C   0  0  0  0  0  0  0  0  0  0  0  0
   14.6936   10.6999  -11.0714 C   0  0  0  0  0  0  0  0  0  0  0  0
   13.9033   11.8193  -10.9735 C   0  0  0  0  0  0  0  0  0  0  0  0
   14.0565    9.8343  -11.9392 C   0  0  0  0  0  0  0  0  0  0  0  0
   11.7281   12.5119  -11.9826 C   0  0  0  0  0  0  0  0  0  0  0  0
   20.1839   13.5311  -12.3334 C   0  0  0  0  0  0  0  0  0  0  0  0
   20.8602   14.6291  -11.8277 C   0  0  0  0  0  0  0  0  0  0  0  0
   21.0230   15.7721  -12.6181 C   0  0  0  0  0  0  0  0  0  0  0  0
   20.5083   15.7932  -13.8907 C   0  0  0  0  0  0  0  0  0  0  0  0
   19.8370   14.6849  -14.3719 C   0  0  0  0  0  0  0  0  0  0  0  0
   19.6739   13.5667  -13.6088 C   0  0  0  0  0  0  0  0  0  0  0  0
   20.0393    9.2865   -9.9477 N   0  0  0  0  0  0  0  0  0  0  0  0
   22.1626    9.1631   -9.3514 N   0  0  0  0  0  0  0  0  0  0  0  0
   21.6849    7.9733   -9.4929 N   0  0  0  0  0  0  0  0  0  0  0  0
   12.8382   11.6124  -11.7599 N   0  0  0  0  0  0  0  0  0  0  0  0
   12.9163   10.4211  -12.3483 N   0  0  0  0  0  0  0  0  0  0  0  0
   20.0112   12.3564  -11.5819 N   0  0  0  0  0  0  0  0  0  0  0  0
   20.6861   17.2129  -14.9314 Cl  0  0  0  0  0  0  0  0  0  0  0  0
  2  1  1  0
  6  1  1  0
  3  2  1  0
  2 13  1  0
  4  3  1  0
  4  5  2  0
  7  4  1  0
  5  6  1  0
  5 23  1  0
  7  8  1  0
  7 28  1  6
  8  9  1  0
  9 10  1  0
 10 23  1  0
 10 24  2  0
 11 12  1  0
 23 11  1  0
 11 25  2  0
 13 14  2  0
 13 15  1  0
 14 26  1  0
 15 27  2  0
 26 16  1  0
 17 18  2  0
 17 22  1  0
 17 28  1  0
 18 19  1  0
 19 20  2  0
 20 21  1  0
 20 29  1  0
 21 22  2  0
 24 25  1  0
 26 27  1  0
M  END
$$$$
