
     RDKit          3D

 29 33  0  0  0  0  0  0  0  0999 V2000
   16.3750    9.4032  -11.1940 C   0  0  0  0  0  0  0  0  0  0  0  0
   16.0585   10.7661  -10.6511 C   0  0  0  0  0  0  0  0  0  0  0  0
   17.1659   11.6257  -11.2695 C   0  0  0  0  0  0  0  0  0  0  0  0
   18.4991   11.0032  -10.9212 C   0  0  0  0  0  0  0  0  0  0  0  0
   18.6732    9.7546  -10.5609 C   0  0  0  0  0  0  0  0  0  0  0  0
   17.5930    8.7693  -10.4487 C   0  0  0  0  0  0  0  0  0  0  0  0
   19.4860   12.0978  -11.1245 C   0  0  1  0  0  0  0  0  0  0  0  0
   20.4168   12.0126   -9.9300 C   0  0  0  0  0  0  0  0  0  0  0  0
   21.5575   11.0647  -10.2076 C   0  0  0  0  0  0  0  0  0  0  0  0
   21.1407    9.6497  -10.0261 C   0  0  0  0  0  0  0  0  0  0  0  0
   20.0309    7.8064   -9.8699 C   0  0  0  0  0  0  0  0  0  0  0  0
   19.0785    6.7395   -9.8300 C   0  0  0  0  0  0  0  0  0  0  0  0
   14.7931   11.1858  -11.2874 C   0  0  0  0  0  0  0  0  0  0  0  0
   14.4480   12.3757  -11.8809 C   0  0  0  0  0  0  0  0  0  0  0  0
   13.6900   10.3590  -11.3761 C   0  0  0  0  0  0  0  0  0  0  0  0
   12.3839   13.2382  -12.9878 C   0  0  0  0  0  0  0  0  0  0  0  0
   20.8612   12.8281  -13.0766 C   0  0  0  0  0  0  0  0  0  0  0  0
   22.1167   12.6663  -13.6390 C   0  0  0  0  0  0  0  0  0  0  0  0
   22.6747   13.6950  -14.4057 C   0  0  0  0  0  0  0  0  0  0  0  0
   21.9696   14.8580  -14.5926 C   0  0  0  0  0  0  0  0  0  0  0  0
   20.7188   14.9951  -14.0203 C   0  0  0  0  0  0  0  0  0  0  0  0
   20.1671   13.9977  -13.2719 C   0  0  0  0  0  0  0  0  0  0  0  0
   19.9151    9.1016  -10.1656 N   0  0  0  0  0  0  0  0  0  0  0  0
   22.0296    8.7243   -9.6499 N   0  0  0  0  0  0  0  0  0  0  0  0
   21.3609    7.6252   -9.5581 N   0  0  0  0  0  0  0  0  0  0  0  0
   13.1826   12.2465  -12.3025 N   0  0  0  0  0  0  0  0  0  0  0  0
   12.7125   11.0372  -12.0057 N   0  0  0  0  0  0  0  0  0  0  0  0
   20.2549   11.8158  -12.3135 N   0  0  0  0  0  0  0  0  0  0  0  0
   22.6291   16.1895  -15.5530 Cl  0  0  0  0  0  0  0  0  0  0  0  0
  2  1  1  0
  6  1  1  0
  3  2  1  0
  2 13  1  0
  4  3  1  0
  4  5  2  0
  7  4  1  0
  5  6  1  0
  5 23  1  0
  7  8  1  0
  7 28  1  6
  8  9  1  0
  9 10  1  0
 10 23  1  0
 10 24  2  0
 11 12  1  0
 23 11  1  0
 11 25  2  0
 13 14  2  0
 13 15  1  0
 14 26  1  0
 15 27  2  0
 26 16  1  0
 17 18  2  0
 17 22  1  0
 17 28  1  0
 18 19  1  0
 19 20  2  0
 20 21  1  0
 20 29  1  0
 21 22  2  0
 24 25  1  0
 26 27  1  0
M  END
$$$$
