
     RDKit          3D

 29 33  0  0  0  0  0  0  0  0999 V2000
   16.8234   10.9022  -10.6235 C   0  0  0  0  0  0  0  0  0  0  0  0
   17.4070   12.2800  -10.5063 C   0  0  0  0  0  0  0  0  0  0  0  0
   18.5898   12.2139  -11.4781 C   0  0  0  0  0  0  0  0  0  0  0  0
   19.4514   11.0316  -11.0960 C   0  0  0  0  0  0  0  0  0  0  0  0
   19.0481   10.0085  -10.3818 C   0  0  0  0  0  0  0  0  0  0  0  0
   17.6897    9.8564   -9.8509 C   0  0  0  0  0  0  0  0  0  0  0  0
   20.7656   11.3054  -11.7373 C   0  0  1  0  0  0  0  0  0  0  0  0
   21.7970   10.9515  -10.6830 C   0  0  0  0  0  0  0  0  0  0  0  0
   22.1696    9.4918  -10.7684 C   0  0  0  0  0  0  0  0  0  0  0  0
   21.1511    8.6346  -10.1076 C   0  0  0  0  0  0  0  0  0  0  0  0
   19.3400    7.8228   -9.2621 C   0  0  0  0  0  0  0  0  0  0  0  0
   18.0251    7.5186   -8.7873 C   0  0  0  0  0  0  0  0  0  0  0  0
   16.4208   13.2036  -11.1036 C   0  0  0  0  0  0  0  0  0  0  0  0
   16.5486   14.5182  -11.4812 C   0  0  0  0  0  0  0  0  0  0  0  0
   15.1212   12.8302  -11.3858 C   0  0  0  0  0  0  0  0  0  0  0  0
   15.0056   16.2005  -12.4905 C   0  0  0  0  0  0  0  0  0  0  0  0
   21.2211   10.8574  -14.1511 C   0  0  0  0  0  0  0  0  0  0  0  0
   22.4609   10.6620  -14.7373 C   0  0  0  0  0  0  0  0  0  0  0  0
   22.6952   11.1157  -16.0399 C   0  0  0  0  0  0  0  0  0  0  0  0
   21.6903   11.7524  -16.7253 C   0  0  0  0  0  0  0  0  0  0  0  0
   20.4622   11.9355  -16.1179 C   0  0  0  0  0  0  0  0  0  0  0  0
   20.2250   11.4964  -14.8490 C   0  0  0  0  0  0  0  0  0  0  0  0
   19.8318    8.8632   -9.9361 N   0  0  0  0  0  0  0  0  0  0  0  0
   21.5017    7.4679   -9.5565 N   0  0  0  0  0  0  0  0  0  0  0  0
   20.4157    6.9875   -9.0528 N   0  0  0  0  0  0  0  0  0  0  0  0
   15.3599   14.8993  -11.9685 N   0  0  0  0  0  0  0  0  0  0  0  0
   14.4899   13.8933  -11.9177 N   0  0  0  0  0  0  0  0  0  0  0  0
   20.9359   10.4039  -12.8521 N   0  0  0  0  0  0  0  0  0  0  0  0
   21.9339   12.3454  -18.3743 Cl  0  0  0  0  0  0  0  0  0  0  0  0
  2  1  1  0
  6  1  1  0
  3  2  1  0
  2 13  1  0
  4  3  1  0
  4  5  2  0
  7  4  1  0
  5  6  1  0
  5 23  1  0
  7  8  1  0
  7 28  1  6
  8  9  1  0
  9 10  1  0
 10 23  1  0
 10 24  2  0
 11 12  1  0
 23 11  1  0
 11 25  2  0
 13 14  2  0
 13 15  1  0
 14 26  1  0
 15 27  2  0
 26 16  1  0
 17 18  2  0
 17 22  1  0
 17 28  1  0
 18 19  1  0
 19 20  2  0
 20 21  1  0
 20 29  1  0
 21 22  2  0
 24 25  1  0
 26 27  1  0
M  END
$$$$
