
     RDKit          3D

 29 33  0  0  0  0  0  0  0  0999 V2000
   16.4260    9.4577  -11.3258 C   0  0  0  0  0  0  0  0  0  0  0  0
   15.9311   10.6084  -10.4991 C   0  0  0  0  0  0  0  0  0  0  0  0
   16.9599   11.6992  -10.8144 C   0  0  0  0  0  0  0  0  0  0  0  0
   18.3383   11.1472  -10.5289 C   0  0  0  0  0  0  0  0  0  0  0  0
   18.6376    9.8723  -10.4637 C   0  0  0  0  0  0  0  0  0  0  0  0
   17.6733    8.7864  -10.6667 C   0  0  0  0  0  0  0  0  0  0  0  0
   19.2017   12.3514  -10.3950 C   0  0  1  0  0  0  0  0  0  0  0  0
   20.0806   12.0711   -9.1911 C   0  0  0  0  0  0  0  0  0  0  0  0
   21.3337   11.3386   -9.6031 C   0  0  0  0  0  0  0  0  0  0  0  0
   21.0739    9.8876   -9.7931 C   0  0  0  0  0  0  0  0  0  0  0  0
   20.1765    7.9603  -10.1593 C   0  0  0  0  0  0  0  0  0  0  0  0
   19.3516    6.8262  -10.4424 C   0  0  0  0  0  0  0  0  0  0  0  0
   14.6563   11.0418  -11.1068 C   0  0  0  0  0  0  0  0  0  0  0  0
   14.1346   12.3012  -11.2760 C   0  0  0  0  0  0  0  0  0  0  0  0
   13.7380   10.1537  -11.6326 C   0  0  0  0  0  0  0  0  0  0  0  0
   12.0264   13.1968  -12.2675 C   0  0  0  0  0  0  0  0  0  0  0  0
   20.1176   13.6050  -12.3507 C   0  0  0  0  0  0  0  0  0  0  0  0
   19.1280   13.9211  -13.2670 C   0  0  0  0  0  0  0  0  0  0  0  0
   19.2272   15.0943  -14.0228 C   0  0  0  0  0  0  0  0  0  0  0  0
   20.3083   15.9223  -13.8477 C   0  0  0  0  0  0  0  0  0  0  0  0
   21.2825   15.5841  -12.9273 C   0  0  0  0  0  0  0  0  0  0  0  0
   21.1940   14.4429  -12.1863 C   0  0  0  0  0  0  0  0  0  0  0  0
   19.9267    9.2702  -10.1466 N   0  0  0  0  0  0  0  0  0  0  0  0
   22.0447    8.9922   -9.5845 N   0  0  0  0  0  0  0  0  0  0  0  0
   21.5028    7.8426   -9.8046 N   0  0  0  0  0  0  0  0  0  0  0  0
   12.9486   12.1520  -11.8818 N   0  0  0  0  0  0  0  0  0  0  0  0
   12.6960   10.8640  -12.1030 N   0  0  0  0  0  0  0  0  0  0  0  0
   20.0512   12.4462  -11.5585 N   0  0  0  0  0  0  0  0  0  0  0  0
   20.4821   17.4174  -14.7776 Cl  0  0  0  0  0  0  0  0  0  0  0  0
  2  1  1  0
  6  1  1  0
  3  2  1  0
  2 13  1  0
  4  3  1  0
  4  5  2  0
  7  4  1  0
  5  6  1  0
  5 23  1  0
  7  8  1  0
  7 28  1  6
  8  9  1  0
  9 10  1  0
 10 23  1  0
 10 24  2  0
 11 12  1  0
 23 11  1  0
 11 25  2  0
 13 14  2  0
 13 15  1  0
 14 26  1  0
 15 27  2  0
 26 16  1  0
 17 18  2  0
 17 22  1  0
 17 28  1  0
 18 19  1  0
 19 20  2  0
 20 21  1  0
 20 29  1  0
 21 22  2  0
 24 25  1  0
 26 27  1  0
M  END
$$$$
