
     RDKit          3D

 29 33  0  0  0  0  0  0  0  0999 V2000
   16.7224    9.5425  -11.9512 C   0  0  0  0  0  0  0  0  0  0  0  0
   15.9030   10.4442  -11.0749 C   0  0  0  0  0  0  0  0  0  0  0  0
   16.8355   11.6450  -10.8846 C   0  0  0  0  0  0  0  0  0  0  0  0
   18.1594   11.1381  -10.3589 C   0  0  0  0  0  0  0  0  0  0  0  0
   18.5881    9.9039  -10.4696 C   0  0  0  0  0  0  0  0  0  0  0  0
   17.8437    8.8275  -11.1310 C   0  0  0  0  0  0  0  0  0  0  0  0
   18.8092   12.3380   -9.7660 C   0  0  1  0  0  0  0  0  0  0  0  0
   19.3948   11.8572   -8.4521 C   0  0  0  0  0  0  0  0  0  0  0  0
   20.7909   11.3213   -8.6535 C   0  0  0  0  0  0  0  0  0  0  0  0
   20.7658    9.9348   -9.1881 C   0  0  0  0  0  0  0  0  0  0  0  0
   20.2289    8.0809  -10.1519 C   0  0  0  0  0  0  0  0  0  0  0  0
   19.6441    6.9849  -10.8615 C   0  0  0  0  0  0  0  0  0  0  0  0
   14.7720   10.9145  -11.9008 C   0  0  0  0  0  0  0  0  0  0  0  0
   13.4178   10.7825  -11.7122 C   0  0  0  0  0  0  0  0  0  0  0  0
   14.9462   11.6129  -13.0799 C   0  0  0  0  0  0  0  0  0  0  0  0
   11.4003   11.5062  -12.9910 C   0  0  0  0  0  0  0  0  0  0  0  0
   19.9842   14.0381  -11.1673 C   0  0  0  0  0  0  0  0  0  0  0  0
   20.3449   14.2498  -12.4879 C   0  0  0  0  0  0  0  0  0  0  0  0
   20.4006   15.5527  -12.9948 C   0  0  0  0  0  0  0  0  0  0  0  0
   20.0966   16.6110  -12.1748 C   0  0  0  0  0  0  0  0  0  0  0  0
   19.7401   16.3733  -10.8606 C   0  0  0  0  0  0  0  0  0  0  0  0
   19.6830   15.1070  -10.3582 C   0  0  0  0  0  0  0  0  0  0  0  0
   19.8245    9.3352   -9.9475 N   0  0  0  0  0  0  0  0  0  0  0  0
   21.7586    9.0833   -8.9106 N   0  0  0  0  0  0  0  0  0  0  0  0
   21.4325    7.9774   -9.4889 N   0  0  0  0  0  0  0  0  0  0  0  0
   12.8209   11.3854  -12.7494 N   0  0  0  0  0  0  0  0  0  0  0  0
   13.7285   11.8904  -13.5817 N   0  0  0  0  0  0  0  0  0  0  0  0
   19.8989   12.7466  -10.6203 N   0  0  0  0  0  0  0  0  0  0  0  0
   20.1514   18.2778  -12.7655 Cl  0  0  0  0  0  0  0  0  0  0  0  0
  2  1  1  0
  6  1  1  0
  3  2  1  0
  2 13  1  0
  4  3  1  0
  4  5  2  0
  7  4  1  0
  5  6  1  0
  5 23  1  0
  7  8  1  0
  7 28  1  6
  8  9  1  0
  9 10  1  0
 10 23  1  0
 10 24  2  0
 11 12  1  0
 23 11  1  0
 11 25  2  0
 13 14  2  0
 13 15  1  0
 14 26  1  0
 15 27  2  0
 26 16  1  0
 17 18  2  0
 17 22  1  0
 17 28  1  0
 18 19  1  0
 19 20  2  0
 20 21  1  0
 20 29  1  0
 21 22  2  0
 24 25  1  0
 26 27  1  0
M  END
$$$$
