
     RDKit          3D

 29 33  0  0  0  0  0  0  0  0999 V2000
   17.0127   11.8024  -10.0406 C   0  0  0  0  0  0  0  0  0  0  0  0
   17.7779   12.9424   -9.4346 C   0  0  0  0  0  0  0  0  0  0  0  0
   18.9171   13.1382  -10.4406 C   0  0  0  0  0  0  0  0  0  0  0  0
   19.6219   11.8130  -10.6220 C   0  0  0  0  0  0  0  0  0  0  0  0
   19.1032   10.6421  -10.3405 C   0  0  0  0  0  0  0  0  0  0  0  0
   17.7502   10.4443   -9.8110 C   0  0  0  0  0  0  0  0  0  0  0  0
   20.9448   12.1706  -11.2013 C   0  0  1  0  0  0  0  0  0  0  0  0
   21.9453   11.3102  -10.4535 C   0  0  0  0  0  0  0  0  0  0  0  0
   22.1171    9.9751  -11.1353 C   0  0  0  0  0  0  0  0  0  0  0  0
   21.0097    9.0458  -10.7905 C   0  0  0  0  0  0  0  0  0  0  0  0
   19.1276    8.1732  -10.1985 C   0  0  0  0  0  0  0  0  0  0  0  0
   17.7960    7.8546   -9.7837 C   0  0  0  0  0  0  0  0  0  0  0  0
   16.9098   14.1327   -9.5427 C   0  0  0  0  0  0  0  0  0  0  0  0
   17.2286   15.4689   -9.5425 C   0  0  0  0  0  0  0  0  0  0  0  0
   15.5368   14.0484   -9.6696 C   0  0  0  0  0  0  0  0  0  0  0  0
   15.9043   17.5777   -9.7135 C   0  0  0  0  0  0  0  0  0  0  0  0
   20.9574   12.7148  -13.6382 C   0  0  0  0  0  0  0  0  0  0  0  0
   19.8874   12.8253  -14.5110 C   0  0  0  0  0  0  0  0  0  0  0  0
   19.9153   13.7838  -15.5298 C   0  0  0  0  0  0  0  0  0  0  0  0
   21.0070   14.6070  -15.6543 C   0  0  0  0  0  0  0  0  0  0  0  0
   22.0622   14.4763  -14.7710 C   0  0  0  0  0  0  0  0  0  0  0  0
   22.0435   13.5452  -13.7750 C   0  0  0  0  0  0  0  0  0  0  0  0
   19.7374    9.3337  -10.4431 N   0  0  0  0  0  0  0  0  0  0  0  0
   21.2146    7.7246  -10.7722 N   0  0  0  0  0  0  0  0  0  0  0  0
   20.0869    7.2085  -10.4178 N   0  0  0  0  0  0  0  0  0  0  0  0
   16.0768   16.1427   -9.6655 N   0  0  0  0  0  0  0  0  0  0  0  0
   15.0490   15.3007   -9.7432 N   0  0  0  0  0  0  0  0  0  0  0  0
   20.9655   11.7784  -12.5905 N   0  0  0  0  0  0  0  0  0  0  0  0
   21.0929   15.8353  -16.9248 Cl  0  0  0  0  0  0  0  0  0  0  0  0
  2  1  1  0
  6  1  1  0
  3  2  1  0
  2 13  1  0
  4  3  1  0
  4  5  2  0
  7  4  1  0
  5  6  1  0
  5 23  1  0
  7  8  1  0
  7 28  1  6
  8  9  1  0
  9 10  1  0
 10 23  1  0
 10 24  2  0
 11 12  1  0
 23 11  1  0
 11 25  2  0
 13 14  2  0
 13 15  1  0
 14 26  1  0
 15 27  2  0
 26 16  1  0
 17 18  2  0
 17 22  1  0
 17 28  1  0
 18 19  1  0
 19 20  2  0
 20 21  1  0
 20 29  1  0
 21 22  2  0
 24 25  1  0
 26 27  1  0
M  END
$$$$
