
     RDKit          3D

 29 33  0  0  0  0  0  0  0  0999 V2000
   16.2989    9.5550  -10.8112 C   0  0  0  0  0  0  0  0  0  0  0  0
   16.0700   10.8709  -10.1270 C   0  0  0  0  0  0  0  0  0  0  0  0
   17.2011   11.7330  -10.6972 C   0  0  0  0  0  0  0  0  0  0  0  0
   18.5102   11.0151  -10.4588 C   0  0  0  0  0  0  0  0  0  0  0  0
   18.6305    9.7299  -10.2285 C   0  0  0  0  0  0  0  0  0  0  0  0
   17.5047    8.7919  -10.1749 C   0  0  0  0  0  0  0  0  0  0  0  0
   19.5459   12.0754  -10.5891 C   0  0  1  0  0  0  0  0  0  0  0  0
   20.5069   11.8269   -9.4423 C   0  0  0  0  0  0  0  0  0  0  0  0
   21.5880   10.8571   -9.8514 C   0  0  0  0  0  0  0  0  0  0  0  0
   21.1044    9.4530   -9.7942 C   0  0  0  0  0  0  0  0  0  0  0  0
   19.9060    7.6592   -9.7797 C   0  0  0  0  0  0  0  0  0  0  0  0
   18.9014    6.6411   -9.8104 C   0  0  0  0  0  0  0  0  0  0  0  0
   14.8092   11.4126  -10.6740 C   0  0  0  0  0  0  0  0  0  0  0  0
   13.6422   10.7746  -11.0175 C   0  0  0  0  0  0  0  0  0  0  0  0
   14.6233   12.7562  -10.9356 C   0  0  0  0  0  0  0  0  0  0  0  0
   11.4498   11.5282  -11.9423 C   0  0  0  0  0  0  0  0  0  0  0  0
   20.4258   12.8987  -12.7760 C   0  0  0  0  0  0  0  0  0  0  0  0
   19.5066   13.1066  -13.7912 C   0  0  0  0  0  0  0  0  0  0  0  0
   19.7010   14.1481  -14.7049 C   0  0  0  0  0  0  0  0  0  0  0  0
   20.8050   14.9554  -14.5853 C   0  0  0  0  0  0  0  0  0  0  0  0
   21.7079   14.7269  -13.5639 C   0  0  0  0  0  0  0  0  0  0  0  0
   21.5263   13.7144  -12.6688 C   0  0  0  0  0  0  0  0  0  0  0  0
   19.8483    8.9815   -9.9431 N   0  0  0  0  0  0  0  0  0  0  0  0
   21.9552    8.4528   -9.5419 N   0  0  0  0  0  0  0  0  0  0  0  0
   21.2337    7.3837   -9.5343 N   0  0  0  0  0  0  0  0  0  0  0  0
   12.8018   11.7174  -11.4656 N   0  0  0  0  0  0  0  0  0  0  0  0
   13.3786   12.9161  -11.4222 N   0  0  0  0  0  0  0  0  0  0  0  0
   20.2625   11.8759  -11.8264 N   0  0  0  0  0  0  0  0  0  0  0  0
   21.0982   16.2861  -15.7138 Cl  0  0  0  0  0  0  0  0  0  0  0  0
  2  1  1  0
  6  1  1  0
  3  2  1  0
  2 13  1  0
  4  3  1  0
  4  5  2  0
  7  4  1  0
  5  6  1  0
  5 23  1  0
  7  8  1  0
  7 28  1  6
  8  9  1  0
  9 10  1  0
 10 23  1  0
 10 24  2  0
 11 12  1  0
 23 11  1  0
 11 25  2  0
 13 14  2  0
 13 15  1  0
 14 26  1  0
 15 27  2  0
 26 16  1  0
 17 18  2  0
 17 22  1  0
 17 28  1  0
 18 19  1  0
 19 20  2  0
 20 21  1  0
 20 29  1  0
 21 22  2  0
 24 25  1  0
 26 27  1  0
M  END
$$$$
