
     RDKit          3D

 29 33  0  0  0  0  0  0  0  0999 V2000
   16.3001    9.8117  -11.1959 C   0  0  0  0  0  0  0  0  0  0  0  0
   16.0992   11.1662  -10.5816 C   0  0  0  0  0  0  0  0  0  0  0  0
   17.3160   11.9400  -11.0996 C   0  0  0  0  0  0  0  0  0  0  0  0
   18.5611   11.1623  -10.7378 C   0  0  0  0  0  0  0  0  0  0  0  0
   18.5903    9.8834  -10.4499 C   0  0  0  0  0  0  0  0  0  0  0  0
   17.4113    9.0115  -10.4435 C   0  0  0  0  0  0  0  0  0  0  0  0
   19.6629   12.1577  -10.8321 C   0  0  1  0  0  0  0  0  0  0  0  0
   20.5235   11.9061   -9.6088 C   0  0  0  0  0  0  0  0  0  0  0  0
   21.5734   10.8621   -9.8994 C   0  0  0  0  0  0  0  0  0  0  0  0
   21.0067    9.4902   -9.8240 C   0  0  0  0  0  0  0  0  0  0  0  0
   19.7088    7.7670   -9.8288 C   0  0  0  0  0  0  0  0  0  0  0  0
   18.6519    6.8050   -9.8944 C   0  0  0  0  0  0  0  0  0  0  0  0
   14.9141   11.7523  -11.2406 C   0  0  0  0  0  0  0  0  0  0  0  0
   14.7325   12.9911  -11.8056 C   0  0  0  0  0  0  0  0  0  0  0  0
   13.7239   11.0665  -11.3874 C   0  0  0  0  0  0  0  0  0  0  0  0
   12.8228   14.1256  -12.9439 C   0  0  0  0  0  0  0  0  0  0  0  0
   20.5440   12.7530  -13.0913 C   0  0  0  0  0  0  0  0  0  0  0  0
   20.9908   12.3397  -14.3357 C   0  0  0  0  0  0  0  0  0  0  0  0
   21.0486   13.2530  -15.3940 C   0  0  0  0  0  0  0  0  0  0  0  0
   20.6611   14.5537  -15.1868 C   0  0  0  0  0  0  0  0  0  0  0  0
   20.2196   14.9413  -13.9357 C   0  0  0  0  0  0  0  0  0  0  0  0
   20.1597   14.0580  -12.8986 C   0  0  0  0  0  0  0  0  0  0  0  0
   19.7394    9.0822  -10.0469 N   0  0  0  0  0  0  0  0  0  0  0  0
   21.7782    8.4566   -9.4713 N   0  0  0  0  0  0  0  0  0  0  0  0
   20.9975    7.4299   -9.4758 N   0  0  0  0  0  0  0  0  0  0  0  0
   13.4751   13.0264  -12.2677 N   0  0  0  0  0  0  0  0  0  0  0  0
   12.8551   11.8743  -12.0231 N   0  0  0  0  0  0  0  0  0  0  0  0
   20.4534   11.8668  -12.0046 N   0  0  0  0  0  0  0  0  0  0  0  0
   20.7148   15.7484  -16.4907 Cl  0  0  0  0  0  0  0  0  0  0  0  0
  2  1  1  0
  6  1  1  0
  3  2  1  0
  2 13  1  0
  4  3  1  0
  4  5  2  0
  7  4  1  0
  5  6  1  0
  5 23  1  0
  7  8  1  0
  7 28  1  6
  8  9  1  0
  9 10  1  0
 10 23  1  0
 10 24  2  0
 11 12  1  0
 23 11  1  0
 11 25  2  0
 13 14  2  0
 13 15  1  0
 14 26  1  0
 15 27  2  0
 26 16  1  0
 17 18  2  0
 17 22  1  0
 17 28  1  0
 18 19  1  0
 19 20  2  0
 20 21  1  0
 20 29  1  0
 21 22  2  0
 24 25  1  0
 26 27  1  0
M  END
$$$$
