
     RDKit          3D

 29 33  0  0  0  0  0  0  0  0999 V2000
   17.1182   11.3812  -10.5881 C   0  0  0  0  0  0  0  0  0  0  0  0
   17.9056   12.6542  -10.4791 C   0  0  0  0  0  0  0  0  0  0  0  0
   19.0557   12.4082  -11.4612 C   0  0  0  0  0  0  0  0  0  0  0  0
   19.7308   11.1090  -11.0842 C   0  0  0  0  0  0  0  0  0  0  0  0
   19.1832   10.1597  -10.3644 C   0  0  0  0  0  0  0  0  0  0  0  0
   17.8223   10.2164   -9.8211 C   0  0  0  0  0  0  0  0  0  0  0  0
   21.0656   11.1791  -11.7378 C   0  0  1  0  0  0  0  0  0  0  0  0
   22.0407   10.6733  -10.6919 C   0  0  0  0  0  0  0  0  0  0  0  0
   22.1860    9.1738  -10.7775 C   0  0  0  0  0  0  0  0  0  0  0  0
   21.0551    8.4820  -10.1059 C   0  0  0  0  0  0  0  0  0  0  0  0
   19.1493    7.9558   -9.2426 C   0  0  0  0  0  0  0  0  0  0  0  0
   17.8078    7.8555   -8.7556 C   0  0  0  0  0  0  0  0  0  0  0  0
   17.0660   13.7167  -11.0695 C   0  0  0  0  0  0  0  0  0  0  0  0
   17.3765   15.0122  -11.4048 C   0  0  0  0  0  0  0  0  0  0  0  0
   15.7359   13.5275  -11.3907 C   0  0  0  0  0  0  0  0  0  0  0  0
   16.0962   16.9115  -12.3963 C   0  0  0  0  0  0  0  0  0  0  0  0
   21.7136   10.5704  -14.0711 C   0  0  0  0  0  0  0  0  0  0  0  0
   23.0831   10.4482  -14.2398 C   0  0  0  0  0  0  0  0  0  0  0  0
   23.6626   10.7510  -15.4767 C   0  0  0  0  0  0  0  0  0  0  0  0
   22.8649   11.1679  -16.5134 C   0  0  0  0  0  0  0  0  0  0  0  0
   21.5011   11.2823  -16.3194 C   0  0  0  0  0  0  0  0  0  0  0  0
   20.9277   10.9891  -15.1175 C   0  0  0  0  0  0  0  0  0  0  0  0
   19.7875    8.9087   -9.9231 N   0  0  0  0  0  0  0  0  0  0  0  0
   21.2291    7.2759   -9.5554 N   0  0  0  0  0  0  0  0  0  0  0  0
   20.0873    6.9667   -9.0412 N   0  0  0  0  0  0  0  0  0  0  0  0
   16.2615   15.5612  -11.9060 N   0  0  0  0  0  0  0  0  0  0  0  0
   15.2648   14.6791  -11.9040 N   0  0  0  0  0  0  0  0  0  0  0  0
   21.0866   10.2614  -12.8521 N   0  0  0  0  0  0  0  0  0  0  0  0
   23.5468   11.5633  -18.0974 Cl  0  0  0  0  0  0  0  0  0  0  0  0
  2  1  1  0
  6  1  1  0
  3  2  1  0
  2 13  1  0
  4  3  1  0
  4  5  2  0
  7  4  1  0
  5  6  1  0
  5 23  1  0
  7  8  1  0
  7 28  1  6
  8  9  1  0
  9 10  1  0
 10 23  1  0
 10 24  2  0
 11 12  1  0
 23 11  1  0
 11 25  2  0
 13 14  2  0
 13 15  1  0
 14 26  1  0
 15 27  2  0
 26 16  1  0
 17 18  2  0
 17 22  1  0
 17 28  1  0
 18 19  1  0
 19 20  2  0
 20 21  1  0
 20 29  1  0
 21 22  2  0
 24 25  1  0
 26 27  1  0
M  END
$$$$
