
     RDKit          3D

 23 26  0  0  0  0  0  0  0  0999 V2000
   28.1300   21.3007   50.0761 C   0  0  0  0  0  0  0  0  0  0  0  0
   31.9274   14.4560   52.1813 C   0  0  0  0  0  0  0  0  0  0  0  0
   32.7767   16.2004   53.7044 C   0  0  0  0  0  0  0  0  0  0  0  0
   31.3590   16.6937   53.6306 C   0  0  0  0  0  0  0  0  0  0  0  0
   34.0696   14.0839   53.4116 C   0  0  0  0  0  0  0  0  0  0  0  0
   34.3967   12.9723   52.6796 C   0  0  0  0  0  0  0  0  0  0  0  0
   35.4965   12.2259   53.0195 C   0  0  0  0  0  0  0  0  0  0  0  0
   36.2865   12.5634   54.0817 C   0  0  0  0  0  0  0  0  0  0  0  0
   35.9598   13.6850   54.8235 C   0  0  0  0  0  0  0  0  0  0  0  0
   34.8621   14.4508   54.5039 C   0  0  0  0  0  0  0  0  0  0  0  0
   27.1915   20.8525   49.1654 C   0  0  0  0  0  0  0  0  0  0  0  0
   29.0063   20.4172   50.6706 C   0  0  0  0  0  0  0  0  0  0  0  0
   28.9006   19.0917   50.3171 C   0  0  0  0  0  0  0  0  0  0  0  0
   27.9524   18.6475   49.3988 C   0  0  0  0  0  0  0  0  0  0  0  0
   29.0508   16.8776   50.0129 C   0  0  0  0  0  0  0  0  0  0  0  0
   29.5771   17.9610   50.6872 C   0  0  0  0  0  0  0  0  0  0  0  0
   30.6812   17.8753   51.6386 C   0  0  0  0  0  0  0  0  0  0  0  0
   31.4768   15.7010   51.4430 C   0  0  0  0  0  0  0  0  0  0  0  0
   27.1089   19.5453   48.8362 N   0  0  0  0  0  0  0  0  0  0  0  0
   28.0570   17.3171   49.2284 N   0  0  0  0  0  0  0  0  0  0  0  0
   30.7772   16.6193   52.3266 N   0  0  1  0  0  4  0  0  0  0  0  0
   32.9537   14.8932   53.1057 N   0  0  0  0  0  0  0  0  0  0  0  0
   37.6783   11.5676   54.4631 Cl  0  0  0  0  0  0  0  0  0  0  0  0
  1 11  2  0
 12  1  1  0
  2 18  1  0
 22  2  1  0
  4  3  1  0
  3 22  1  0
 21  4  1  0
  5  6  2  0
  5 10  1  0
 22  5  1  0
  6  7  1  0
  7  8  2  0
  9  8  1  0
  8 23  1  0
 10  9  2  0
 19 11  1  0
 13 12  2  0
 13 14  1  0
 16 13  1  0
 14 19  2  0
 20 14  1  0
 16 15  2  0
 15 20  1  0
 17 16  1  0
 21 17  1  6
 18 21  1  0
M  CHG  1  21   1
M  END
$$$$
