
     RDKit          3D

 23 26  0  0  0  0  0  0  0  0999 V2000
   27.8111   21.0039   49.7960 C   0  0  0  0  0  0  0  0  0  0  0  0
   32.7828   16.3822   53.0610 C   0  0  0  0  0  0  0  0  0  0  0  0
   31.7195   14.8631   51.4344 C   0  0  0  0  0  0  0  0  0  0  0  0
   31.2462   16.1510   50.8214 C   0  0  0  0  0  0  0  0  0  0  0  0
   33.5657   14.0162   52.8874 C   0  0  0  0  0  0  0  0  0  0  0  0
   33.6555   12.8255   52.2145 C   0  0  0  0  0  0  0  0  0  0  0  0
   34.5088   11.8481   52.6601 C   0  0  0  0  0  0  0  0  0  0  0  0
   35.2827   12.0296   53.7711 C   0  0  0  0  0  0  0  0  0  0  0  0
   35.1953   13.2303   54.4535 C   0  0  0  0  0  0  0  0  0  0  0  0
   34.3474   14.2271   54.0278 C   0  0  0  0  0  0  0  0  0  0  0  0
   27.2193   20.6799   48.5894 C   0  0  0  0  0  0  0  0  0  0  0  0
   28.3627   20.0217   50.5914 C   0  0  0  0  0  0  0  0  0  0  0  0
   28.2952   18.7269   50.1309 C   0  0  0  0  0  0  0  0  0  0  0  0
   27.6972   18.4080   48.9141 C   0  0  0  0  0  0  0  0  0  0  0  0
   28.3885   16.5229   49.7419 C   0  0  0  0  0  0  0  0  0  0  0  0
   28.7209   17.5259   50.6302 C   0  0  0  0  0  0  0  0  0  0  0  0
   29.4165   17.3022   51.8942 C   0  0  0  0  0  0  0  0  0  0  0  0
   31.3568   16.8947   53.1060 C   0  0  0  0  0  0  0  0  0  0  0  0
   27.1662   19.4003   48.1609 N   0  0  0  0  0  0  0  0  0  0  0  0
   27.7624   17.0819   48.6970 N   0  0  0  0  0  0  0  0  0  0  0  0
   30.8372   17.1391   51.7704 N   0  0  1  0  0  4  0  0  0  0  0  0
   32.7103   15.0603   52.4727 N   0  0  0  0  0  0  0  0  0  0  0  0
   36.3532   10.7406   54.2879 Cl  0  0  0  0  0  0  0  0  0  0  0  0
  1 11  2  0
 12  1  1  0
  2 18  1  0
 22  2  1  0
  4  3  1  0
  3 22  1  0
 21  4  1  0
  5  6  2  0
  5 10  1  0
 22  5  1  0
  6  7  1  0
  7  8  2  0
  9  8  1  0
  8 23  1  0
 10  9  2  0
 19 11  1  0
 13 12  2  0
 13 14  1  0
 16 13  1  0
 14 19  2  0
 20 14  1  0
 16 15  2  0
 15 20  1  0
 17 16  1  0
 21 17  1  1
 18 21  1  0
M  CHG  1  21   1
M  END
$$$$
