
     RDKit          3D

 23 26  0  0  0  0  0  0  0  0999 V2000
   27.6799   20.7436   49.4937 C   0  0  0  0  0  0  0  0  0  0  0  0
   33.6122   16.7754   52.9336 C   0  0  0  0  0  0  0  0  0  0  0  0
   31.8712   15.0281   52.9302 C   0  0  0  0  0  0  0  0  0  0  0  0
   31.4740   15.6872   51.6393 C   0  0  0  0  0  0  0  0  0  0  0  0
   33.8816   14.7619   54.3878 C   0  0  0  0  0  0  0  0  0  0  0  0
   35.0986   15.1786   54.8610 C   0  0  0  0  0  0  0  0  0  0  0  0
   35.7724   14.4195   55.7840 C   0  0  0  0  0  0  0  0  0  0  0  0
   35.2582   13.2436   56.2519 C   0  0  0  0  0  0  0  0  0  0  0  0
   34.0296   12.8192   55.7768 C   0  0  0  0  0  0  0  0  0  0  0  0
   33.3332   13.5616   54.8508 C   0  0  0  0  0  0  0  0  0  0  0  0
   27.0861   20.1529   48.3939 C   0  0  0  0  0  0  0  0  0  0  0  0
   28.5075   20.0124   50.3196 C   0  0  0  0  0  0  0  0  0  0  0  0
   28.7084   18.6897   49.9986 C   0  0  0  0  0  0  0  0  0  0  0  0
   28.1066   18.1014   48.8888 C   0  0  0  0  0  0  0  0  0  0  0  0
   29.2835   16.5321   49.8209 C   0  0  0  0  0  0  0  0  0  0  0  0
   29.4417   17.6832   50.5662 C   0  0  0  0  0  0  0  0  0  0  0  0
   30.2688   17.7741   51.7659 C   0  0  0  0  0  0  0  0  0  0  0  0
   32.3746   17.6286   52.7372 C   0  0  0  0  0  0  0  0  0  0  0  0
   27.2999   18.8519   48.1015 N   0  0  0  0  0  0  0  0  0  0  0  0
   28.4627   16.8072   48.7976 N   0  0  0  0  0  0  0  0  0  0  0  0
   31.5398   17.1154   51.6632 N   0  0  1  0  0  4  0  0  0  0  0  0
   33.1400   15.5037   53.4424 N   0  0  0  0  0  0  0  0  0  0  0  0
   36.1696   12.3208   57.4318 Cl  0  0  0  0  0  0  0  0  0  0  0  0
  1 11  2  0
 12  1  1  0
  2 18  1  0
 22  2  1  0
  4  3  1  0
  3 22  1  0
 21  4  1  0
  5  6  2  0
  5 10  1  0
 22  5  1  0
  6  7  1  0
  7  8  2  0
  9  8  1  0
  8 23  1  0
 10  9  2  0
 19 11  1  0
 13 12  2  0
 13 14  1  0
 16 13  1  0
 14 19  2  0
 20 14  1  0
 16 15  2  0
 15 20  1  0
 17 16  1  0
 21 17  1  1
 18 21  1  0
M  CHG  1  21   1
M  END
$$$$
