
     RDKit          3D

 23 26  0  0  0  0  0  0  0  0999 V2000
   25.0998   12.3374   21.3132 C   0  0  0  0  0  0  0  0  0  0  0  0
   19.4587   18.0478   22.0447 C   0  0  0  0  0  0  0  0  0  0  0  0
   18.3695   15.9827   22.8404 C   0  0  0  0  0  0  0  0  0  0  0  0
   19.6753   15.7918   23.5595 C   0  0  0  0  0  0  0  0  0  0  0  0
   16.9754   17.8238   21.8898 C   0  0  0  0  0  0  0  0  0  0  0  0
   15.8049   17.1440   22.1051 C   0  0  0  0  0  0  0  0  0  0  0  0
   14.6076   17.7069   21.7419 C   0  0  0  0  0  0  0  0  0  0  0  0
   14.5473   18.9431   21.1637 C   0  0  0  0  0  0  0  0  0  0  0  0
   15.7268   19.6330   20.9446 C   0  0  0  0  0  0  0  0  0  0  0  0
   16.9410   19.0911   21.2993 C   0  0  0  0  0  0  0  0  0  0  0  0
   26.3007   13.0033   21.4728 C   0  0  0  0  0  0  0  0  0  0  0  0
   23.9046   12.9819   21.5537 C   0  0  0  0  0  0  0  0  0  0  0  0
   23.9676   14.2970   21.9529 C   0  0  0  0  0  0  0  0  0  0  0  0
   25.1814   14.9613   22.1117 C   0  0  0  0  0  0  0  0  0  0  0  0
   23.6460   16.4139   22.6109 C   0  0  0  0  0  0  0  0  0  0  0  0
   23.0198   15.2312   22.2725 C   0  0  0  0  0  0  0  0  0  0  0  0
   21.5719   15.0438   22.2683 C   0  0  0  0  0  0  0  0  0  0  0  0
   20.5151   17.0258   21.6734 C   0  0  0  0  0  0  0  0  0  0  0  0
   26.3343   14.2947   21.8663 N   0  0  0  0  0  0  0  0  0  0  0  0
   24.9695   16.2298   22.5066 N   0  0  0  0  0  0  0  0  0  0  0  0
   20.8273   16.1528   22.7933 N   0  0  1  0  0  4  0  0  0  0  0  0
   18.2359   17.2977   22.2478 N   0  0  0  0  0  0  0  0  0  0  0  0
   12.9851   19.6063   20.7234 Cl  0  0  0  0  0  0  0  0  0  0  0  0
  1 11  2  0
 12  1  1  0
  2 18  1  0
 22  2  1  0
  4  3  1  0
  3 22  1  0
 21  4  1  0
  5  6  2  0
  5 10  1  0
 22  5  1  0
  6  7  1  0
  7  8  2  0
  9  8  1  0
  8 23  1  0
 10  9  2  0
 19 11  1  0
 13 12  2  0
 13 14  1  0
 16 13  1  0
 14 19  2  0
 20 14  1  0
 16 15  2  0
 15 20  1  0
 17 16  1  0
 21 17  1  6
 18 21  1  0
M  CHG  1  21   1
M  END
$$$$
