
     RDKit          3D

 23 26  0  0  0  0  0  0  0  0999 V2000
   27.7579   19.6543   48.5810 C   0  0  0  0  0  0  0  0  0  0  0  0
   31.5576   14.1360   53.3302 C   0  0  0  0  0  0  0  0  0  0  0  0
   32.9328   15.5116   51.8134 C   0  0  0  0  0  0  0  0  0  0  0  0
   32.0393   16.6155   52.3048 C   0  0  0  0  0  0  0  0  0  0  0  0
   33.7673   13.2745   52.5454 C   0  0  0  0  0  0  0  0  0  0  0  0
   35.0637   13.5217   52.1756 C   0  0  0  0  0  0  0  0  0  0  0  0
   35.9856   12.5058   52.1844 C   0  0  0  0  0  0  0  0  0  0  0  0
   35.6440   11.2365   52.5564 C   0  0  0  0  0  0  0  0  0  0  0  0
   34.3361   10.9824   52.9306 C   0  0  0  0  0  0  0  0  0  0  0  0
   33.3920   11.9835   52.9305 C   0  0  0  0  0  0  0  0  0  0  0  0
   27.8798   20.9562   49.0295 C   0  0  0  0  0  0  0  0  0  0  0  0
   28.3102   18.6127   49.2963 C   0  0  0  0  0  0  0  0  0  0  0  0
   28.9762   18.9299   50.4577 C   0  0  0  0  0  0  0  0  0  0  0  0
   29.0951   20.2442   50.9033 C   0  0  0  0  0  0  0  0  0  0  0  0
   30.1260   19.0276   52.3777 C   0  0  0  0  0  0  0  0  0  0  0  0
   29.6319   18.1862   51.4012 C   0  0  0  0  0  0  0  0  0  0  0  0
   29.8024   16.7363   51.4073 C   0  0  0  0  0  0  0  0  0  0  0  0
   30.4702   14.8044   52.5123 C   0  0  0  0  0  0  0  0  0  0  0  0
   28.5393   21.2402   50.1733 N   0  0  0  0  0  0  0  0  0  0  0  0
   29.7875   20.2839   52.0561 N   0  0  0  0  0  0  0  0  0  0  0  0
   30.6656   16.2433   52.4426 N   0  0  1  0  0  4  0  0  0  0  0  0
   32.7771   14.2810   52.5615 N   0  0  0  0  0  0  0  0  0  0  0  0
   36.8699    9.9830   52.5463 Cl  0  0  0  0  0  0  0  0  0  0  0  0
  1 11  2  0
 12  1  1  0
  2 18  1  0
 22  2  1  0
  4  3  1  0
  3 22  1  0
 21  4  1  0
  5  6  2  0
  5 10  1  0
 22  5  1  0
  6  7  1  0
  7  8  2  0
  9  8  1  0
  8 23  1  0
 10  9  2  0
 19 11  1  0
 13 12  2  0
 13 14  1  0
 16 13  1  0
 14 19  2  0
 20 14  1  0
 16 15  2  0
 15 20  1  0
 17 16  1  0
 21 17  1  6
 18 21  1  0
M  CHG  1  21   1
M  END
$$$$
