
     RDKit          3D

 23 26  0  0  0  0  0  0  0  0999 V2000
   29.3503   19.9853   48.3081 C   0  0  0  0  0  0  0  0  0  0  0  0
   31.8237   14.2542   51.4733 C   0  0  0  0  0  0  0  0  0  0  0  0
   33.3798   15.4486   52.9687 C   0  0  0  0  0  0  0  0  0  0  0  0
   32.1381   16.2025   53.3539 C   0  0  0  0  0  0  0  0  0  0  0  0
   34.0409   13.2377   52.0136 C   0  0  0  0  0  0  0  0  0  0  0  0
   33.9281   12.2681   51.0515 C   0  0  0  0  0  0  0  0  0  0  0  0
   34.8703   11.2746   50.9647 C   0  0  0  0  0  0  0  0  0  0  0  0
   35.9329   11.2230   51.8217 C   0  0  0  0  0  0  0  0  0  0  0  0
   36.0506   12.2001   52.7946 C   0  0  0  0  0  0  0  0  0  0  0  0
   35.1195   13.2075   52.9033 C   0  0  0  0  0  0  0  0  0  0  0  0
   28.0692   20.3978   48.6241 C   0  0  0  0  0  0  0  0  0  0  0  0
   30.1231   19.3250   49.2401 C   0  0  0  0  0  0  0  0  0  0  0  0
   29.5640   19.1019   50.4773 C   0  0  0  0  0  0  0  0  0  0  0  0
   28.2725   19.5205   50.7884 C   0  0  0  0  0  0  0  0  0  0  0  0
   29.0251   18.5525   52.5809 C   0  0  0  0  0  0  0  0  0  0  0  0
   30.0141   18.4971   51.6195 C   0  0  0  0  0  0  0  0  0  0  0  0
   31.3222   17.8825   51.8256 C   0  0  0  0  0  0  0  0  0  0  0  0
   31.5216   15.6886   51.0865 C   0  0  0  0  0  0  0  0  0  0  0  0
   27.5444   20.1662   49.8467 N   0  0  0  0  0  0  0  0  0  0  0  0
   27.9660   19.1826   52.0540 N   0  0  0  0  0  0  0  0  0  0  0  0
   31.2752   16.5145   52.2573 N   0  0  1  0  0  4  0  0  0  0  0  0
   33.1058   14.2873   52.1472 N   0  0  0  0  0  0  0  0  0  0  0  0
   37.1024    9.9270   51.6572 Cl  0  0  0  0  0  0  0  0  0  0  0  0
  1 11  2  0
 12  1  1  0
  2 18  1  0
 22  2  1  0
  4  3  1  0
  3 22  1  0
 21  4  1  0
  5  6  2  0
  5 10  1  0
 22  5  1  0
  6  7  1  0
  7  8  2  0
  9  8  1  0
  8 23  1  0
 10  9  2  0
 19 11  1  0
 13 12  2  0
 13 14  1  0
 16 13  1  0
 14 19  2  0
 20 14  1  0
 16 15  2  0
 15 20  1  0
 17 16  1  0
 21 17  1  6
 18 21  1  0
M  CHG  1  21   1
M  END
$$$$
