
     RDKit          3D

 23 26  0  0  0  0  0  0  0  0999 V2000
   15.1421   17.7529   19.8759 C   0  0  0  0  0  0  0  0  0  0  0  0
   19.7889   13.4559   22.0023 C   0  0  0  0  0  0  0  0  0  0  0  0
   21.8230   14.6144   21.2248 C   0  0  0  0  0  0  0  0  0  0  0  0
   21.2782   15.7383   22.0606 C   0  0  0  0  0  0  0  0  0  0  0  0
   21.6844   12.1260   21.0641 C   0  0  0  0  0  0  0  0  0  0  0  0
   20.9299   11.0564   20.6578 C   0  0  0  0  0  0  0  0  0  0  0  0
   21.5402    9.8755   20.3183 C   0  0  0  0  0  0  0  0  0  0  0  0
   22.8976    9.7328   20.3742 C   0  0  0  0  0  0  0  0  0  0  0  0
   23.6632   10.8104   20.7840 C   0  0  0  0  0  0  0  0  0  0  0  0
   23.0761   12.0058   21.1301 C   0  0  0  0  0  0  0  0  0  0  0  0
   14.4841   18.5765   20.7702 C   0  0  0  0  0  0  0  0  0  0  0  0
   16.4608   17.4065   20.0829 C   0  0  0  0  0  0  0  0  0  0  0  0
   17.0763   17.9131   21.2043 C   0  0  0  0  0  0  0  0  0  0  0  0
   16.4069   18.7425   22.1009 C   0  0  0  0  0  0  0  0  0  0  0  0
   18.4178   18.5232   22.8912 C   0  0  0  0  0  0  0  0  0  0  0  0
   18.3366   17.7913   21.7237 C   0  0  0  0  0  0  0  0  0  0  0  0
   19.4426   17.0214   21.1618 C   0  0  0  0  0  0  0  0  0  0  0  0
   19.1797   14.7314   21.4543 C   0  0  0  0  0  0  0  0  0  0  0  0
   15.1121   19.0605   21.8634 N   0  0  0  0  0  0  0  0  0  0  0  0
   17.2266   19.0987   23.1064 N   0  0  0  0  0  0  0  0  0  0  0  0
   19.8617   15.9089   21.9660 N   0  0  1  0  0  4  0  0  0  0  0  0
   21.1126   13.3671   21.4200 N   0  0  0  0  0  0  0  0  0  0  0  0
   23.6155    8.1971   19.9264 Cl  0  0  0  0  0  0  0  0  0  0  0  0
  1 11  2  0
 12  1  1  0
  2 18  1  0
 22  2  1  0
  4  3  1  0
  3 22  1  0
 21  4  1  0
  5  6  2  0
  5 10  1  0
 22  5  1  0
  6  7  1  0
  7  8  2  0
  9  8  1  0
  8 23  1  0
 10  9  2  0
 19 11  1  0
 13 12  2  0
 13 14  1  0
 16 13  1  0
 14 19  2  0
 20 14  1  0
 16 15  2  0
 15 20  1  0
 17 16  1  0
 21 17  1  6
 18 21  1  0
M  CHG  1  21   1
M  END
$$$$
