
     RDKit          3D

 23 26  0  0  0  0  0  0  0  0999 V2000
   16.2243   20.1966   20.7279 C   0  0  0  0  0  0  0  0  0  0  0  0
   19.2963   13.1524   21.4187 C   0  0  0  0  0  0  0  0  0  0  0  0
   21.2684   14.5048   22.0238 C   0  0  0  0  0  0  0  0  0  0  0  0
   20.3227   15.0961   23.0311 C   0  0  0  0  0  0  0  0  0  0  0  0
   21.5710   12.4055   20.7055 C   0  0  0  0  0  0  0  0  0  0  0  0
   22.9377   12.4535   20.7966 C   0  0  0  0  0  0  0  0  0  0  0  0
   23.7025   11.5236   20.1388 C   0  0  0  0  0  0  0  0  0  0  0  0
   23.1331   10.5370   19.3849 C   0  0  0  0  0  0  0  0  0  0  0  0
   21.7535   10.4847   19.2902 C   0  0  0  0  0  0  0  0  0  0  0  0
   20.9634   11.4052   19.9398 C   0  0  0  0  0  0  0  0  0  0  0  0
   14.8783   20.0122   20.9838 C   0  0  0  0  0  0  0  0  0  0  0  0
   17.1463   19.2443   21.1086 C   0  0  0  0  0  0  0  0  0  0  0  0
   16.6666   18.1222   21.7440 C   0  0  0  0  0  0  0  0  0  0  0  0
   15.3090   17.9433   21.9985 C   0  0  0  0  0  0  0  0  0  0  0  0
   16.2937   16.1770   22.7905 C   0  0  0  0  0  0  0  0  0  0  0  0
   17.2625   16.9993   22.2510 C   0  0  0  0  0  0  0  0  0  0  0  0
   18.6886   16.6869   22.2420 C   0  0  0  0  0  0  0  0  0  0  0  0
   18.7020   14.5450   21.3415 C   0  0  0  0  0  0  0  0  0  0  0  0
   14.4340   18.9010   21.6097 N   0  0  0  0  0  0  0  0  0  0  0  0
   15.1037   16.7714   22.6265 N   0  0  0  0  0  0  0  0  0  0  0  0
   18.9993   15.3171   22.5369 N   0  0  1  0  0  4  0  0  0  0  0  0
   20.7330   13.3313   21.3646 N   0  0  0  0  0  0  0  0  0  0  0  0
   24.1670    9.3790   18.5697 Cl  0  0  0  0  0  0  0  0  0  0  0  0
  1 11  2  0
 12  1  1  0
  2 18  1  0
 22  2  1  0
  4  3  1  0
  3 22  1  0
 21  4  1  0
  5  6  2  0
  5 10  1  0
 22  5  1  0
  6  7  1  0
  7  8  2  0
  9  8  1  0
  8 23  1  0
 10  9  2  0
 19 11  1  0
 13 12  2  0
 13 14  1  0
 16 13  1  0
 14 19  2  0
 20 14  1  0
 16 15  2  0
 15 20  1  0
 17 16  1  0
 21 17  1  6
 18 21  1  0
M  CHG  1  21   1
M  END
$$$$
