
     RDKit          3D

 23 26  0  0  0  0  0  0  0  0999 V2000
   24.8582   11.5845   21.4161 C   0  0  0  0  0  0  0  0  0  0  0  0
   19.5943   17.7591   22.3791 C   0  0  0  0  0  0  0  0  0  0  0  0
   18.3919   15.6199   22.6285 C   0  0  0  0  0  0  0  0  0  0  0  0
   19.6475   15.2109   23.3459 C   0  0  0  0  0  0  0  0  0  0  0  0
   17.1175   17.6909   22.0595 C   0  0  0  0  0  0  0  0  0  0  0  0
   17.0096   19.0554   21.9870 C   0  0  0  0  0  0  0  0  0  0  0  0
   15.7996   19.6337   21.6983 C   0  0  0  0  0  0  0  0  0  0  0  0
   14.6830   18.8783   21.4776 C   0  0  0  0  0  0  0  0  0  0  0  0
   14.7874   17.5003   21.5497 C   0  0  0  0  0  0  0  0  0  0  0  0
   15.9892   16.8950   21.8376 C   0  0  0  0  0  0  0  0  0  0  0  0
   26.0791   12.0492   21.8685 C   0  0  0  0  0  0  0  0  0  0  0  0
   23.7317   12.3749   21.5048 C   0  0  0  0  0  0  0  0  0  0  0  0
   23.8825   13.6264   22.0562 C   0  0  0  0  0  0  0  0  0  0  0  0
   25.1158   14.0878   22.5100 C   0  0  0  0  0  0  0  0  0  0  0  0
   23.7111   15.7020   22.8809 C   0  0  0  0  0  0  0  0  0  0  0  0
   23.0180   14.6588   22.3006 C   0  0  0  0  0  0  0  0  0  0  0  0
   21.5877   14.6884   22.0092 C   0  0  0  0  0  0  0  0  0  0  0  0
   20.6345   16.8003   21.8342 C   0  0  0  0  0  0  0  0  0  0  0  0
   26.1994   13.2822   22.4061 N   0  0  0  0  0  0  0  0  0  0  0  0
   24.9944   15.3343   23.0012 N   0  0  0  0  0  0  0  0  0  0  0  0
   20.8527   15.6827   22.7381 N   0  0  1  0  0  4  0  0  0  0  0  0
   18.3371   17.0398   22.3469 N   0  0  0  0  0  0  0  0  0  0  0  0
   13.1666   19.6794   21.1125 Cl  0  0  0  0  0  0  0  0  0  0  0  0
  1 11  2  0
 12  1  1  0
  2 18  1  0
 22  2  1  0
  4  3  1  0
  3 22  1  0
 21  4  1  0
  5  6  2  0
  5 10  1  0
 22  5  1  0
  6  7  1  0
  7  8  2  0
  9  8  1  0
  8 23  1  0
 10  9  2  0
 19 11  1  0
 13 12  2  0
 13 14  1  0
 16 13  1  0
 14 19  2  0
 20 14  1  0
 16 15  2  0
 15 20  1  0
 17 16  1  0
 21 17  1  6
 18 21  1  0
M  CHG  1  21   1
M  END
$$$$
