
     RDKit          3D

 23 26  0  0  0  0  0  0  0  0999 V2000
   15.7774   19.0063   21.7194 C   0  0  0  0  0  0  0  0  0  0  0  0
   20.8753   14.0424   20.1602 C   0  0  0  0  0  0  0  0  0  0  0  0
   19.5011   13.0133   21.9313 C   0  0  0  0  0  0  0  0  0  0  0  0
   18.6270   14.2122   21.6922 C   0  0  0  0  0  0  0  0  0  0  0  0
   21.2019   11.6326   20.7323 C   0  0  0  0  0  0  0  0  0  0  0  0
   22.4026   11.5376   20.0780 C   0  0  0  0  0  0  0  0  0  0  0  0
   22.9993   10.3134   19.9131 C   0  0  0  0  0  0  0  0  0  0  0  0
   22.4233    9.1697   20.3889 C   0  0  0  0  0  0  0  0  0  0  0  0
   21.2110    9.2610   21.0501 C   0  0  0  0  0  0  0  0  0  0  0  0
   20.5913   10.4766   21.2289 C   0  0  0  0  0  0  0  0  0  0  0  0
   16.1786   20.2973   21.4303 C   0  0  0  0  0  0  0  0  0  0  0  0
   16.7087   18.0338   22.0170 C   0  0  0  0  0  0  0  0  0  0  0  0
   18.0329   18.4074   22.0117 C   0  0  0  0  0  0  0  0  0  0  0  0
   18.4296   19.7101   21.7194 C   0  0  0  0  0  0  0  0  0  0  0  0
   20.2617   18.6102   22.1070 C   0  0  0  0  0  0  0  0  0  0  0  0
   19.2020   17.7375   22.2513 C   0  0  0  0  0  0  0  0  0  0  0  0
   19.3449   16.3280   22.6042 C   0  0  0  0  0  0  0  0  0  0  0  0
   20.7323   15.2175   21.1072 C   0  0  0  0  0  0  0  0  0  0  0  0
   17.4855   20.6374   21.4317 N   0  0  0  0  0  0  0  0  0  0  0  0
   19.7695   19.8136   21.7812 N   0  0  0  0  0  0  0  0  0  0  0  0
   19.3443   15.4313   21.4835 N   0  0  1  0  0  4  0  0  0  0  0  0
   20.5440   12.8651   20.9369 N   0  0  0  0  0  0  0  0  0  0  0  0
   23.2380    7.6363   20.1454 Cl  0  0  0  0  0  0  0  0  0  0  0  0
  1 11  2  0
 12  1  1  0
  2 18  1  0
 22  2  1  0
  4  3  1  0
  3 22  1  0
 21  4  1  0
  5  6  2  0
  5 10  1  0
 22  5  1  0
  6  7  1  0
  7  8  2  0
  9  8  1  0
  8 23  1  0
 10  9  2  0
 19 11  1  0
 13 12  2  0
 13 14  1  0
 16 13  1  0
 14 19  2  0
 20 14  1  0
 16 15  2  0
 15 20  1  0
 17 16  1  0
 21 17  1  1
 18 21  1  0
M  CHG  1  21   1
M  END
$$$$
