
     RDKit          3D

 23 26  0  0  0  0  0  0  0  0999 V2000
   36.2189   12.8302   52.1066 C   0  0  0  0  0  0  0  0  0  0  0  0
   30.7601   18.2159   52.0326 C   0  0  0  0  0  0  0  0  0  0  0  0
   29.2882   16.4624   51.1146 C   0  0  0  0  0  0  0  0  0  0  0  0
   29.8821   15.6424   52.2253 C   0  0  0  0  0  0  0  0  0  0  0  0
   28.8640   18.8546   50.5366 C   0  0  0  0  0  0  0  0  0  0  0  0
   28.9833   20.1917   50.8135 C   0  0  0  0  0  0  0  0  0  0  0  0
   28.2278   21.1055   50.1234 C   0  0  0  0  0  0  0  0  0  0  0  0
   27.3474   20.7159   49.1542 C   0  0  0  0  0  0  0  0  0  0  0  0
   27.2239   19.3668   48.8714 C   0  0  0  0  0  0  0  0  0  0  0  0
   27.9698   18.4297   49.5489 C   0  0  0  0  0  0  0  0  0  0  0  0
   36.4406   12.2447   53.3392 C   0  0  0  0  0  0  0  0  0  0  0  0
   35.0327   13.4828   51.8447 C   0  0  0  0  0  0  0  0  0  0  0  0
   34.0987   13.5208   52.8543 C   0  0  0  0  0  0  0  0  0  0  0  0
   34.3290   12.9285   54.0936 C   0  0  0  0  0  0  0  0  0  0  0  0
   32.3441   13.8008   54.2183 C   0  0  0  0  0  0  0  0  0  0  0  0
   32.8458   14.0613   52.9589 C   0  0  0  0  0  0  0  0  0  0  0  0
   32.1237   14.7999   51.9271 C   0  0  0  0  0  0  0  0  0  0  0  0
   31.7621   17.0937   51.8455 C   0  0  0  0  0  0  0  0  0  0  0  0
   35.5064   12.2963   54.3131 N   0  0  0  0  0  0  0  0  0  0  0  0
   33.2663   13.1063   54.8992 N   0  0  0  0  0  0  0  0  0  0  0  0
   31.2824   15.8502   52.4262 N   0  0  1  0  0  4  0  0  0  0  0  0
   29.6192   17.8694   51.2097 N   0  0  0  0  0  0  0  0  0  0  0  0
   26.4117   21.9341   48.3087 Cl  0  0  0  0  0  0  0  0  0  0  0  0
  1 11  2  0
 12  1  1  0
  2 18  1  0
 22  2  1  0
  4  3  1  0
  3 22  1  0
 21  4  1  0
  5  6  2  0
  5 10  1  0
 22  5  1  0
  6  7  1  0
  7  8  2  0
  9  8  1  0
  8 23  1  0
 10  9  2  0
 19 11  1  0
 13 12  2  0
 13 14  1  0
 16 13  1  0
 14 19  2  0
 20 14  1  0
 16 15  2  0
 15 20  1  0
 17 16  1  0
 21 17  1  6
 18 21  1  0
M  CHG  1  21   1
M  END
$$$$
