
     RDKit          3D

 23 26  0  0  0  0  0  0  0  0999 V2000
   28.3649   21.2972   50.2609 C   0  0  0  0  0  0  0  0  0  0  0  0
   32.8629   16.2475   52.9715 C   0  0  0  0  0  0  0  0  0  0  0  0
   31.8055   14.9159   51.1846 C   0  0  0  0  0  0  0  0  0  0  0  0
   31.2960   16.2584   50.7409 C   0  0  0  0  0  0  0  0  0  0  0  0
   33.6915   13.9388   52.4980 C   0  0  0  0  0  0  0  0  0  0  0  0
   33.7641   12.8223   51.7063 C   0  0  0  0  0  0  0  0  0  0  0  0
   34.6458   11.8178   52.0157 C   0  0  0  0  0  0  0  0  0  0  0  0
   35.4654   11.8992   53.1055 C   0  0  0  0  0  0  0  0  0  0  0  0
   35.3954   13.0248   53.9076 C   0  0  0  0  0  0  0  0  0  0  0  0
   34.5198   14.0466   53.6197 C   0  0  0  0  0  0  0  0  0  0  0  0
   27.6708   21.1715   49.0720 C   0  0  0  0  0  0  0  0  0  0  0  0
   28.7911   20.1779   50.9446 C   0  0  0  0  0  0  0  0  0  0  0  0
   28.4957   18.9527   50.3927 C   0  0  0  0  0  0  0  0  0  0  0  0
   27.7958   18.8338   49.1944 C   0  0  0  0  0  0  0  0  0  0  0  0
   28.2174   16.8015   49.8335 C   0  0  0  0  0  0  0  0  0  0  0  0
   28.7484   17.6624   50.7729 C   0  0  0  0  0  0  0  0  0  0  0  0
   29.4603   17.2280   51.9712 C   0  0  0  0  0  0  0  0  0  0  0  0
   31.4275   16.7186   53.0980 C   0  0  0  0  0  0  0  0  0  0  0  0
   27.3936   19.9562   48.5522 N   0  0  0  0  0  0  0  0  0  0  0  0
   27.6382   17.5367   48.8742 N   0  0  0  0  0  0  0  0  0  0  0  0
   30.8818   17.1132   51.8095 N   0  0  1  0  0  4  0  0  0  0  0  0
   32.8083   15.0064   52.2261 N   0  0  0  0  0  0  0  0  0  0  0  0
   36.5703   10.5809   53.4453 Cl  0  0  0  0  0  0  0  0  0  0  0  0
  1 11  2  0
 12  1  1  0
  2 18  1  0
 22  2  1  0
  4  3  1  0
  3 22  1  0
 21  4  1  0
  5  6  2  0
  5 10  1  0
 22  5  1  0
  6  7  1  0
  7  8  2  0
  9  8  1  0
  8 23  1  0
 10  9  2  0
 19 11  1  0
 13 12  2  0
 13 14  1  0
 16 13  1  0
 14 19  2  0
 20 14  1  0
 16 15  2  0
 15 20  1  0
 17 16  1  0
 21 17  1  1
 18 21  1  0
M  CHG  1  21   1
M  END
$$$$
