
     RDKit          3D

 23 26  0  0  0  0  0  0  0  0999 V2000
   14.8217   18.8888   22.4582 C   0  0  0  0  0  0  0  0  0  0  0  0
   20.3692   13.2966   23.1194 C   0  0  0  0  0  0  0  0  0  0  0  0
   21.3466   14.6552   21.3075 C   0  0  0  0  0  0  0  0  0  0  0  0
   20.6719   15.7811   22.0393 C   0  0  0  0  0  0  0  0  0  0  0  0
   22.2418   12.3666   21.7522 C   0  0  0  0  0  0  0  0  0  0  0  0
   23.2982   12.5267   20.8937 C   0  0  0  0  0  0  0  0  0  0  0  0
   24.1453   11.4766   20.6446 C   0  0  0  0  0  0  0  0  0  0  0  0
   23.9638   10.2586   21.2358 C   0  0  0  0  0  0  0  0  0  0  0  0
   22.8984   10.0926   22.1033 C   0  0  0  0  0  0  0  0  0  0  0  0
   22.0340   11.1294   22.3704 C   0  0  0  0  0  0  0  0  0  0  0  0
   15.2491   20.2034   22.4412 C   0  0  0  0  0  0  0  0  0  0  0  0
   15.7190   17.8583   22.2719 C   0  0  0  0  0  0  0  0  0  0  0  0
   17.0369   18.1994   22.0721 C   0  0  0  0  0  0  0  0  0  0  0  0
   17.4601   19.5263   22.0561 C   0  0  0  0  0  0  0  0  0  0  0  0
   19.2449   18.3353   21.7202 C   0  0  0  0  0  0  0  0  0  0  0  0
   18.1765   17.4723   21.8590 C   0  0  0  0  0  0  0  0  0  0  0  0
   18.2840   16.0182   21.7835 C   0  0  0  0  0  0  0  0  0  0  0  0
   19.1339   14.0312   22.6370 C   0  0  0  0  0  0  0  0  0  0  0  0
   16.5491   20.5107   22.2426 N   0  0  0  0  0  0  0  0  0  0  0  0
   18.7872   19.5889   21.8440 N   0  0  0  0  0  0  0  0  0  0  0  0
   19.3706   15.4622   22.5386 N   0  0  1  0  0  4  0  0  0  0  0  0
   21.3412   13.4121   22.0512 N   0  0  0  0  0  0  0  0  0  0  0  0
   25.0826    8.9575   20.8753 Cl  0  0  0  0  0  0  0  0  0  0  0  0
  1 11  2  0
 12  1  1  0
  2 18  1  0
 22  2  1  0
  4  3  1  0
  3 22  1  0
 21  4  1  0
  5  6  2  0
  5 10  1  0
 22  5  1  0
  6  7  1  0
  7  8  2  0
  9  8  1  0
  8 23  1  0
 10  9  2  0
 19 11  1  0
 13 12  2  0
 13 14  1  0
 16 13  1  0
 14 19  2  0
 20 14  1  0
 16 15  2  0
 15 20  1  0
 17 16  1  0
 21 17  1  6
 18 21  1  0
M  CHG  1  21   1
M  END
$$$$
