
     RDKit          3D

 23 26  0  0  0  0  0  0  0  0999 V2000
   15.7471   19.8458   22.0908 C   0  0  0  0  0  0  0  0  0  0  0  0
   21.0494   14.4303   23.3257 C   0  0  0  0  0  0  0  0  0  0  0  0
   18.8466   14.6739   22.2427 C   0  0  0  0  0  0  0  0  0  0  0  0
   19.4881   15.8881   21.6321 C   0  0  0  0  0  0  0  0  0  0  0  0
   19.4982   12.4744   23.2299 C   0  0  0  0  0  0  0  0  0  0  0  0
   20.3155   11.6926   24.0041 C   0  0  0  0  0  0  0  0  0  0  0  0
   19.9785   10.3869   24.2562 C   0  0  0  0  0  0  0  0  0  0  0  0
   18.8355    9.8352   23.7508 C   0  0  0  0  0  0  0  0  0  0  0  0
   18.0074   10.6210   22.9686 C   0  0  0  0  0  0  0  0  0  0  0  0
   18.3222   11.9335   22.7004 C   0  0  0  0  0  0  0  0  0  0  0  0
   15.8332   20.6372   20.9605 C   0  0  0  0  0  0  0  0  0  0  0  0
   16.8483   19.1505   22.5442 C   0  0  0  0  0  0  0  0  0  0  0  0
   18.0152   19.2825   21.8274 C   0  0  0  0  0  0  0  0  0  0  0  0
   18.0944   20.0816   20.6894 C   0  0  0  0  0  0  0  0  0  0  0  0
   20.0762   19.2328   20.9513 C   0  0  0  0  0  0  0  0  0  0  0  0
   19.2726   18.7613   21.9698 C   0  0  0  0  0  0  0  0  0  0  0  0
   19.7276   17.8504   23.0161 C   0  0  0  0  0  0  0  0  0  0  0  0
   20.7247   15.8644   23.6949 C   0  0  0  0  0  0  0  0  0  0  0  0
   16.9913   20.7490   20.2749 N   0  0  0  0  0  0  0  0  0  0  0  0
   19.3377   20.0400   20.1771 N   0  0  0  0  0  0  0  0  0  0  0  0
   20.3132   16.6329   22.5315 N   0  0  1  0  0  4  0  0  0  0  0  0
   19.7902   13.8255   22.9415 N   0  0  0  0  0  0  0  0  0  0  0  0
   18.4623    8.1603   24.1109 Cl  0  0  0  0  0  0  0  0  0  0  0  0
  1 11  2  0
 12  1  1  0
  2 18  1  0
 22  2  1  0
  4  3  1  0
  3 22  1  0
 21  4  1  0
  5  6  2  0
  5 10  1  0
 22  5  1  0
  6  7  1  0
  7  8  2  0
  9  8  1  0
  8 23  1  0
 10  9  2  0
 19 11  1  0
 13 12  2  0
 13 14  1  0
 16 13  1  0
 14 19  2  0
 20 14  1  0
 16 15  2  0
 15 20  1  0
 17 16  1  0
 21 17  1  1
 18 21  1  0
M  CHG  1  21   1
M  END
$$$$
