
     RDKit          3D

 20 21  0  0  0  0  0  0  0  0999 V2000
   15.9172   11.8478   37.2101 C   0  0  0  0  0  0  0  0  0  0  0  0
   14.5252   12.0713   37.6793 C   0  0  0  0  0  0  0  0  0  0  0  0
   14.0509   13.2503   37.6544 O   0  0  0  0  0  0  0  0  0  0  0  0
   13.6788   11.0491   38.1587 N   0  0  0  0  0  0  0  0  0  0  0  0
   12.4913   11.2937   38.8909 C   0  0  0  0  0  0  0  0  0  0  0  0
   12.4037   12.3885   39.7111 C   0  0  0  0  0  0  0  0  0  0  0  0
   11.3873   10.4737   38.8262 C   0  0  0  0  0  0  0  0  0  0  0  0
   10.2365   10.7401   39.5578 C   0  0  0  0  0  0  0  0  0  0  0  0
   10.1732   11.8520   40.3802 C   0  0  0  0  0  0  0  0  0  0  0  0
    8.7282   12.1312   41.3549 Cl  0  0  0  0  0  0  0  0  0  0  0  0
   11.2645   12.6886   40.4599 C   0  0  0  0  0  0  0  0  0  0  0  0
   11.2609   14.1515   41.4052 S   0  0  2  0  0  6  0  0  0  0  0  0
   12.6974   14.5678   41.6493 O   0  0  0  0  0  0  0  0  0  0  0  0
   10.6929   13.8557   42.7967 O   0  0  0  0  0  0  0  0  0  0  0  0
   10.4282   15.4617   40.6956 N   0  0  0  0  0  0  0  0  0  0  0  0
   11.3184   16.0408   39.6738 C   0  0  0  0  0  0  0  0  0  0  0  0
   10.6227   16.9574   38.7301 C   0  0  0  0  0  0  0  0  0  0  0  0
    9.3188   17.2253   39.0453 O   0  0  0  0  0  0  0  0  0  0  0  0
    8.5583   16.1411   39.3709 C   0  0  0  0  0  0  0  0  0  0  0  0
    9.3040   14.9481   39.8942 C   0  0  0  0  0  0  0  0  0  0  0  0
  1  2  1  0
  2  3  2  0
  2  4  1  0
  4  5  1  0
  5  6  2  0
  5  7  1  0
  6 11  1  0
  7  8  2  0
  8  9  1  0
  9 10  1  0
  9 11  2  0
 11 12  1  0
 12 13  2  0
 12 14  2  0
 12 15  1  6
 15 16  1  0
 15 20  1  0
 16 17  1  0
 17 18  1  0
 18 19  1  0
 19 20  1  0
M  END
$$$$
