
     RDKit          3D

 20 21  0  0  0  0  0  0  0  0999 V2000
   12.2157   12.2190   34.8096 C   0  0  0  0  0  0  0  0  0  0  0  0
   11.7934   12.8380   36.0927 C   0  0  0  0  0  0  0  0  0  0  0  0
   10.7057   12.4573   36.6291 O   0  0  0  0  0  0  0  0  0  0  0  0
   12.5276   13.8356   36.7686 N   0  0  0  0  0  0  0  0  0  0  0  0
   12.2229   14.2814   38.0780 C   0  0  0  0  0  0  0  0  0  0  0  0
   11.7068   13.4064   38.9984 C   0  0  0  0  0  0  0  0  0  0  0  0
   12.4198   15.5789   38.4939 C   0  0  0  0  0  0  0  0  0  0  0  0
   12.1099   15.9861   39.7857 C   0  0  0  0  0  0  0  0  0  0  0  0
   11.5886   15.0834   40.6967 C   0  0  0  0  0  0  0  0  0  0  0  0
   11.1354   15.6396   42.3096 Cl  0  0  0  0  0  0  0  0  0  0  0  0
   11.3846   13.7790   40.3045 C   0  0  0  0  0  0  0  0  0  0  0  0
   10.8046   12.5493   41.3933 S   0  0  2  0  0  6  0  0  0  0  0  0
    9.9000   11.6117   40.6192 O   0  0  0  0  0  0  0  0  0  0  0  0
    9.8986   13.1915   42.4485 O   0  0  0  0  0  0  0  0  0  0  0  0
   12.0257   11.6264   42.1486 N   0  0  0  0  0  0  0  0  0  0  0  0
   11.6410   10.2095   42.0221 C   0  0  0  0  0  0  0  0  0  0  0  0
   12.7527    9.2636   42.3126 C   0  0  0  0  0  0  0  0  0  0  0  0
   13.8959    9.8480   42.7846 O   0  0  0  0  0  0  0  0  0  0  0  0
   14.3178   10.9502   42.1011 C   0  0  0  0  0  0  0  0  0  0  0  0
   13.2594   11.7013   41.3470 C   0  0  0  0  0  0  0  0  0  0  0  0
  1  2  1  0
  2  3  2  0
  2  4  1  0
  4  5  1  0
  5  6  2  0
  5  7  1  0
  6 11  1  0
  7  8  2  0
  8  9  1  0
  9 10  1  0
  9 11  2  0
 11 12  1  0
 12 13  2  0
 12 14  2  0
 12 15  1  1
 15 16  1  0
 15 20  1  0
 16 17  1  0
 17 18  1  0
 18 19  1  0
 19 20  1  0
M  END
$$$$
