
     RDKit          3D

 20 21  0  0  0  0  0  0  0  0999 V2000
   15.9932   12.6326   35.7536 C   0  0  0  0  0  0  0  0  0  0  0  0
   15.5275   12.2876   37.1218 C   0  0  0  0  0  0  0  0  0  0  0  0
   15.8987   11.1865   37.6371 O   0  0  0  0  0  0  0  0  0  0  0  0
   14.6881   13.1107   37.9022 N   0  0  0  0  0  0  0  0  0  0  0  0
   13.9339   12.6399   39.0047 C   0  0  0  0  0  0  0  0  0  0  0  0
   13.0291   13.4655   39.6202 C   0  0  0  0  0  0  0  0  0  0  0  0
   14.0585   11.3653   39.5099 C   0  0  0  0  0  0  0  0  0  0  0  0
   13.3045   10.9331   40.5940 C   0  0  0  0  0  0  0  0  0  0  0  0
   12.3979   11.7865   41.1992 C   0  0  0  0  0  0  0  0  0  0  0  0
   11.5034   11.2395   42.6193 Cl  0  0  0  0  0  0  0  0  0  0  0  0
   12.2539   13.0661   40.7102 C   0  0  0  0  0  0  0  0  0  0  0  0
   11.0900   14.1923   41.3510 S   0  0  2  0  0  6  0  0  0  0  0  0
   11.2817   15.5261   40.6576 O   0  0  0  0  0  0  0  0  0  0  0  0
   11.4046   14.4642   42.8254 O   0  0  0  0  0  0  0  0  0  0  0  0
    9.4601   13.7171   41.1746 N   0  0  0  0  0  0  0  0  0  0  0  0
    8.6533   14.6036   42.0320 C   0  0  0  0  0  0  0  0  0  0  0  0
    7.1966   14.5564   41.7315 C   0  0  0  0  0  0  0  0  0  0  0  0
    6.8282   13.6049   40.8204 O   0  0  0  0  0  0  0  0  0  0  0  0
    7.5927   13.5441   39.6926 C   0  0  0  0  0  0  0  0  0  0  0  0
    8.9953   14.0633   39.8203 C   0  0  0  0  0  0  0  0  0  0  0  0
  1  2  1  0
  2  3  2  0
  2  4  1  0
  4  5  1  0
  5  6  2  0
  5  7  1  0
  6 11  1  0
  7  8  2  0
  8  9  1  0
  9 10  1  0
  9 11  2  0
 11 12  1  0
 12 13  2  0
 12 14  2  0
 12 15  1  1
 15 16  1  0
 15 20  1  0
 16 17  1  0
 17 18  1  0
 18 19  1  0
 19 20  1  0
M  END
$$$$
