
     RDKit          3D

 20 21  0  0  0  0  0  0  0  0999 V2000
   16.2008   12.6540   36.7783 C   0  0  0  0  0  0  0  0  0  0  0  0
   14.8073   12.8944   37.2346 C   0  0  0  0  0  0  0  0  0  0  0  0
   14.0484   11.8959   37.4417 O   0  0  0  0  0  0  0  0  0  0  0  0
   14.2582   14.1749   37.4578 N   0  0  0  0  0  0  0  0  0  0  0  0
   13.1934   14.4252   38.3576 C   0  0  0  0  0  0  0  0  0  0  0  0
   12.9930   13.5971   39.4314 C   0  0  0  0  0  0  0  0  0  0  0  0
   12.3222   15.4816   38.2143 C   0  0  0  0  0  0  0  0  0  0  0  0
   11.2861   15.7003   39.1139 C   0  0  0  0  0  0  0  0  0  0  0  0
   11.1039   14.8487   40.1901 C   0  0  0  0  0  0  0  0  0  0  0  0
    9.7383   15.1040   41.2791 Cl  0  0  0  0  0  0  0  0  0  0  0  0
   11.9642   13.7859   40.3558 C   0  0  0  0  0  0  0  0  0  0  0  0
   11.8678   12.7011   41.7151 S   0  0  2  0  0  6  0  0  0  0  0  0
   11.3593   13.4777   42.9130 O   0  0  0  0  0  0  0  0  0  0  0  0
   13.2786   12.2501   42.1060 O   0  0  0  0  0  0  0  0  0  0  0  0
   10.8598   11.3439   41.4793 N   0  0  0  0  0  0  0  0  0  0  0  0
   11.6792   10.1449   41.7300 C   0  0  0  0  0  0  0  0  0  0  0  0
   10.8773    8.9041   41.9096 C   0  0  0  0  0  0  0  0  0  0  0  0
    9.5376    9.0463   41.6727 O   0  0  0  0  0  0  0  0  0  0  0  0
    8.9503   10.1320   42.2526 C   0  0  0  0  0  0  0  0  0  0  0  0
    9.8597   11.2861   42.5594 C   0  0  0  0  0  0  0  0  0  0  0  0
  1  2  1  0
  2  3  2  0
  2  4  1  0
  4  5  1  0
  5  6  2  0
  5  7  1  0
  6 11  1  0
  7  8  2  0
  8  9  1  0
  9 10  1  0
  9 11  2  0
 11 12  1  0
 12 13  2  0
 12 14  2  0
 12 15  1  6
 15 16  1  0
 15 20  1  0
 16 17  1  0
 17 18  1  0
 18 19  1  0
 19 20  1  0
M  END
$$$$
