
     RDKit          3D

 20 21  0  0  0  0  0  0  0  0999 V2000
   15.3733   12.4895   36.4258 C   0  0  0  0  0  0  0  0  0  0  0  0
   14.1500   12.8371   37.1943 C   0  0  0  0  0  0  0  0  0  0  0  0
   13.5424   11.9187   37.8293 O   0  0  0  0  0  0  0  0  0  0  0  0
   13.6065   14.1371   37.2698 N   0  0  0  0  0  0  0  0  0  0  0  0
   12.7508   14.5696   38.3122 C   0  0  0  0  0  0  0  0  0  0  0  0
   12.2972   13.6730   39.2447 C   0  0  0  0  0  0  0  0  0  0  0  0
   12.3352   15.8749   38.4493 C   0  0  0  0  0  0  0  0  0  0  0  0
   11.4942   16.2684   39.4830 C   0  0  0  0  0  0  0  0  0  0  0  0
   11.0488   15.3434   40.4118 C   0  0  0  0  0  0  0  0  0  0  0  0
    9.9241   15.8512   41.6739 Cl  0  0  0  0  0  0  0  0  0  0  0  0
   11.4527   14.0316   40.2967 C   0  0  0  0  0  0  0  0  0  0  0  0
   11.0106   12.8066   41.4533 S   0  0  2  0  0  6  0  0  0  0  0  0
    9.6760   12.2183   41.0417 O   0  0  0  0  0  0  0  0  0  0  0  0
   10.7513   13.4621   42.8133 O   0  0  0  0  0  0  0  0  0  0  0  0
   12.1377   11.5354   41.6176 N   0  0  0  0  0  0  0  0  0  0  0  0
   11.8894   10.9002   42.9240 C   0  0  0  0  0  0  0  0  0  0  0  0
   12.5422    9.5711   43.0722 C   0  0  0  0  0  0  0  0  0  0  0  0
   13.3746    9.2218   42.0444 O   0  0  0  0  0  0  0  0  0  0  0  0
   12.8743    9.4171   40.7908 C   0  0  0  0  0  0  0  0  0  0  0  0
   11.8039   10.4620   40.6655 C   0  0  0  0  0  0  0  0  0  0  0  0
  1  2  1  0
  2  3  2  0
  2  4  1  0
  4  5  1  0
  5  6  2  0
  5  7  1  0
  6 11  1  0
  7  8  2  0
  8  9  1  0
  9 10  1  0
  9 11  2  0
 11 12  1  0
 12 13  2  0
 12 14  2  0
 12 15  1  1
 15 16  1  0
 15 20  1  0
 16 17  1  0
 17 18  1  0
 18 19  1  0
 19 20  1  0
M  END
$$$$
