
     RDKit          3D

 20 21  0  0  0  0  0  0  0  0999 V2000
   16.2095   11.8511   36.8152 C   0  0  0  0  0  0  0  0  0  0  0  0
   14.8753   12.3733   37.2092 C   0  0  0  0  0  0  0  0  0  0  0  0
   13.9256   11.5500   37.3987 O   0  0  0  0  0  0  0  0  0  0  0  0
   14.5841   13.7420   37.3906 N   0  0  0  0  0  0  0  0  0  0  0  0
   13.4480   14.2154   38.0913 C   0  0  0  0  0  0  0  0  0  0  0  0
   12.9988   13.5483   39.2014 C   0  0  0  0  0  0  0  0  0  0  0  0
   12.7472   15.3385   37.7134 C   0  0  0  0  0  0  0  0  0  0  0  0
   11.6352   15.7776   38.4214 C   0  0  0  0  0  0  0  0  0  0  0  0
   11.2006   15.0856   39.5389 C   0  0  0  0  0  0  0  0  0  0  0  0
    9.7438   15.6202   40.3804 Cl  0  0  0  0  0  0  0  0  0  0  0  0
   11.8868   13.9600   39.9380 C   0  0  0  0  0  0  0  0  0  0  0  0
   11.4681   13.0618   41.3703 S   0  0  2  0  0  6  0  0  0  0  0  0
   11.1185   14.0462   42.4682 O   0  0  0  0  0  0  0  0  0  0  0  0
   12.7056   12.3194   41.8842 O   0  0  0  0  0  0  0  0  0  0  0  0
   10.1661   11.9746   41.1800 N   0  0  0  0  0  0  0  0  0  0  0  0
   10.7433   10.6274   41.0262 C   0  0  0  0  0  0  0  0  0  0  0  0
    9.7507    9.5323   41.2002 C   0  0  0  0  0  0  0  0  0  0  0  0
    8.4537    9.9472   41.3288 O   0  0  0  0  0  0  0  0  0  0  0  0
    8.2495   10.9757   42.2009 C   0  0  0  0  0  0  0  0  0  0  0  0
    9.4292   11.8695   42.4513 C   0  0  0  0  0  0  0  0  0  0  0  0
  1  2  1  0
  2  3  2  0
  2  4  1  0
  4  5  1  0
  5  6  2  0
  5  7  1  0
  6 11  1  0
  7  8  2  0
  8  9  1  0
  9 10  1  0
  9 11  2  0
 11 12  1  0
 12 13  2  0
 12 14  2  0
 12 15  1  6
 15 16  1  0
 15 20  1  0
 16 17  1  0
 17 18  1  0
 18 19  1  0
 19 20  1  0
M  END
$$$$
