
     RDKit          3D

 20 21  0  0  0  0  0  0  0  0999 V2000
   16.4326   12.1901   36.6841 C   0  0  0  0  0  0  0  0  0  0  0  0
   15.2273   12.1777   37.5530 C   0  0  0  0  0  0  0  0  0  0  0  0
   14.3766   13.1150   37.4359 O   0  0  0  0  0  0  0  0  0  0  0  0
   14.9565   11.1818   38.5152 N   0  0  0  0  0  0  0  0  0  0  0  0
   14.0123   11.3368   39.5594 C   0  0  0  0  0  0  0  0  0  0  0  0
   13.3590   12.5308   39.7226 C   0  0  0  0  0  0  0  0  0  0  0  0
   13.7020   10.3305   40.4463 C   0  0  0  0  0  0  0  0  0  0  0  0
   12.7712   10.5138   41.4615 C   0  0  0  0  0  0  0  0  0  0  0  0
   12.1255   11.7298   41.6062 C   0  0  0  0  0  0  0  0  0  0  0  0
   11.0005   11.9627   42.9463 Cl  0  0  0  0  0  0  0  0  0  0  0  0
   12.4177   12.7513   40.7296 C   0  0  0  0  0  0  0  0  0  0  0  0
   11.6084   14.2928   40.7784 S   0  0  2  0  0  6  0  0  0  0  0  0
   12.4447   15.2977   40.0121 O   0  0  0  0  0  0  0  0  0  0  0  0
   11.5897   14.8112   42.2198 O   0  0  0  0  0  0  0  0  0  0  0  0
   10.0287   14.2943   40.1316 N   0  0  0  0  0  0  0  0  0  0  0  0
    9.2363   15.2536   40.9212 C   0  0  0  0  0  0  0  0  0  0  0  0
    7.9493   15.6332   40.2776 C   0  0  0  0  0  0  0  0  0  0  0  0
    7.6450   14.9314   39.1435 O   0  0  0  0  0  0  0  0  0  0  0  0
    8.6592   14.8055   38.2405 C   0  0  0  0  0  0  0  0  0  0  0  0
   10.0501   14.9126   38.7948 C   0  0  0  0  0  0  0  0  0  0  0  0
  1  2  1  0
  2  3  2  0
  2  4  1  0
  4  5  1  0
  5  6  2  0
  5  7  1  0
  6 11  1  0
  7  8  2  0
  8  9  1  0
  9 10  1  0
  9 11  2  0
 11 12  1  0
 12 13  2  0
 12 14  2  0
 12 15  1  6
 15 16  1  0
 15 20  1  0
 16 17  1  0
 17 18  1  0
 18 19  1  0
 19 20  1  0
M  END
$$$$
