
     RDKit          3D

 20 21  0  0  0  0  0  0  0  0999 V2000
   14.9632   12.1587   35.9529 C   0  0  0  0  0  0  0  0  0  0  0  0
   13.9076   12.7245   36.8325 C   0  0  0  0  0  0  0  0  0  0  0  0
   12.8251   12.0763   36.9871 O   0  0  0  0  0  0  0  0  0  0  0  0
   14.0247   13.9514   37.5195 N   0  0  0  0  0  0  0  0  0  0  0  0
   13.1078   14.3875   38.5069 C   0  0  0  0  0  0  0  0  0  0  0  0
   12.4773   13.4728   39.3101 C   0  0  0  0  0  0  0  0  0  0  0  0
   12.8028   15.7138   38.7146 C   0  0  0  0  0  0  0  0  0  0  0  0
   11.8977   16.1103   39.6914 C   0  0  0  0  0  0  0  0  0  0  0  0
   11.2731   15.1670   40.4893 C   0  0  0  0  0  0  0  0  0  0  0  0
   10.0735   15.6882   41.6748 Cl  0  0  0  0  0  0  0  0  0  0  0  0
   11.5635   13.8337   40.3018 C   0  0  0  0  0  0  0  0  0  0  0  0
   10.8903   12.5752   41.3000 S   0  0  2  0  0  6  0  0  0  0  0  0
   10.0442   11.6713   40.4260 O   0  0  0  0  0  0  0  0  0  0  0  0
    9.9072   13.1914   42.3002 O   0  0  0  0  0  0  0  0  0  0  0  0
   12.0410   11.6171   42.1194 N   0  0  0  0  0  0  0  0  0  0  0  0
   11.2950   10.6852   42.9835 C   0  0  0  0  0  0  0  0  0  0  0  0
   12.1214    9.5582   43.4950 C   0  0  0  0  0  0  0  0  0  0  0  0
   13.4553    9.6456   43.2046 O   0  0  0  0  0  0  0  0  0  0  0  0
   13.7558    9.9648   41.9132 C   0  0  0  0  0  0  0  0  0  0  0  0
   12.6973   10.7146   41.1578 C   0  0  0  0  0  0  0  0  0  0  0  0
  1  2  1  0
  2  3  2  0
  2  4  1  0
  4  5  1  0
  5  6  2  0
  5  7  1  0
  6 11  1  0
  7  8  2  0
  8  9  1  0
  9 10  1  0
  9 11  2  0
 11 12  1  0
 12 13  2  0
 12 14  2  0
 12 15  1  1
 15 16  1  0
 15 20  1  0
 16 17  1  0
 17 18  1  0
 18 19  1  0
 19 20  1  0
M  END
$$$$
