
     RDKit          3D

 20 21  0  0  0  0  0  0  0  0999 V2000
   16.0189   12.2648   36.5506 C   0  0  0  0  0  0  0  0  0  0  0  0
   14.6449   12.5705   37.0265 C   0  0  0  0  0  0  0  0  0  0  0  0
   13.8479   11.6081   37.2600 O   0  0  0  0  0  0  0  0  0  0  0  0
   14.1546   13.8761   37.2410 N   0  0  0  0  0  0  0  0  0  0  0  0
   13.1031   14.1808   38.1396 C   0  0  0  0  0  0  0  0  0  0  0  0
   12.9157   13.4160   39.2617 C   0  0  0  0  0  0  0  0  0  0  0  0
   12.2324   15.2299   37.9480 C   0  0  0  0  0  0  0  0  0  0  0  0
   11.2095   15.5029   38.8479 C   0  0  0  0  0  0  0  0  0  0  0  0
   11.0403   14.7148   39.9734 C   0  0  0  0  0  0  0  0  0  0  0  0
    9.6906   15.0362   41.0647 Cl  0  0  0  0  0  0  0  0  0  0  0  0
   11.9003   13.6606   40.1878 C   0  0  0  0  0  0  0  0  0  0  0  0
   11.8204   12.6556   41.6081 S   0  0  2  0  0  6  0  0  0  0  0  0
   11.5440   13.5408   42.8067 O   0  0  0  0  0  0  0  0  0  0  0  0
   13.1995   12.0453   41.8768 O   0  0  0  0  0  0  0  0  0  0  0  0
   10.6344   11.4292   41.5530 N   0  0  0  0  0  0  0  0  0  0  0  0
   11.2859   10.2177   41.0240 C   0  0  0  0  0  0  0  0  0  0  0  0
   10.4945    8.9757   41.2383 C   0  0  0  0  0  0  0  0  0  0  0  0
    9.2430    9.1735   41.7539 O   0  0  0  0  0  0  0  0  0  0  0  0
    9.1736   10.0230   42.8186 C   0  0  0  0  0  0  0  0  0  0  0  0
   10.2783   11.0335   42.9265 C   0  0  0  0  0  0  0  0  0  0  0  0
  1  2  1  0
  2  3  2  0
  2  4  1  0
  4  5  1  0
  5  6  2  0
  5  7  1  0
  6 11  1  0
  7  8  2  0
  8  9  1  0
  9 10  1  0
  9 11  2  0
 11 12  1  0
 12 13  2  0
 12 14  2  0
 12 15  1  6
 15 16  1  0
 15 20  1  0
 16 17  1  0
 17 18  1  0
 18 19  1  0
 19 20  1  0
M  END
$$$$
