
     RDKit          3D

 20 21  0  0  0  0  0  0  0  0999 V2000
   15.6185   11.9735   37.0585 C   0  0  0  0  0  0  0  0  0  0  0  0
   14.3824   12.3965   37.7662 C   0  0  0  0  0  0  0  0  0  0  0  0
   13.6085   11.5044   38.2364 O   0  0  0  0  0  0  0  0  0  0  0  0
   14.0011   13.7418   37.9561 N   0  0  0  0  0  0  0  0  0  0  0  0
   12.8667   14.1365   38.7065 C   0  0  0  0  0  0  0  0  0  0  0  0
   12.6435   13.5990   39.9476 C   0  0  0  0  0  0  0  0  0  0  0  0
   11.9477   15.0548   38.2508 C   0  0  0  0  0  0  0  0  0  0  0  0
   10.8436   15.4211   39.0107 C   0  0  0  0  0  0  0  0  0  0  0  0
   10.6397   14.8630   40.2611 C   0  0  0  0  0  0  0  0  0  0  0  0
    9.1928   15.2892   41.1779 Cl  0  0  0  0  0  0  0  0  0  0  0  0
   11.5467   13.9434   40.7395 C   0  0  0  0  0  0  0  0  0  0  0  0
   11.4230   13.2392   42.3277 S   0  0  2  0  0  6  0  0  0  0  0  0
   10.9764   14.3160   43.2960 O   0  0  0  0  0  0  0  0  0  0  0  0
   12.8171   12.8268   42.8105 O   0  0  0  0  0  0  0  0  0  0  0  0
   10.3452   11.9209   42.4457 N   0  0  0  0  0  0  0  0  0  0  0  0
    9.3938   12.0354   41.3261 C   0  0  0  0  0  0  0  0  0  0  0  0
    8.6150   10.7917   41.0786 C   0  0  0  0  0  0  0  0  0  0  0  0
    8.7991    9.8039   42.0068 O   0  0  0  0  0  0  0  0  0  0  0  0
   10.0959    9.5460   42.3411 C   0  0  0  0  0  0  0  0  0  0  0  0
   11.0648   10.6737   42.1347 C   0  0  0  0  0  0  0  0  0  0  0  0
  1  2  1  0
  2  3  2  0
  2  4  1  0
  4  5  1  0
  5  6  2  0
  5  7  1  0
  6 11  1  0
  7  8  2  0
  8  9  1  0
  9 10  1  0
  9 11  2  0
 11 12  1  0
 12 13  2  0
 12 14  2  0
 12 15  1  6
 15 16  1  0
 15 20  1  0
 16 17  1  0
 17 18  1  0
 18 19  1  0
 19 20  1  0
M  END
$$$$
