
     RDKit          3D

 15 16  0  0  0  0  0  0  0  0999 V2000
   43.1538   14.7661   22.6914 N   0  0  0  0  0  4  0  0  0  0  0  0
   43.2567   14.1882   21.3725 C   0  0  2  0  0  0  0  0  0  0  0  0
   44.0855   15.1454   20.5491 C   0  0  0  0  0  0  0  0  0  0  0  0
   44.5556   16.2816   21.1753 O   0  0  0  0  0  1  0  0  0  0  0  0
   41.9322   14.1107   20.7123 C   0  0  0  0  0  0  0  0  0  0  0  0
   40.8706   13.4016   21.4439 C   0  0  0  0  0  0  0  0  0  0  0  0
   40.7920   12.1280   21.9501 C   0  0  0  0  0  0  0  0  0  0  0  0
   39.6284   13.9689   21.7711 C   0  0  0  0  0  0  0  0  0  0  0  0
   39.5808   11.9341   22.5474 N   0  0  0  0  0  0  0  0  0  0  0  0
   38.8731   13.0582   22.4363 C   0  0  0  0  0  0  0  0  0  0  0  0
   39.1027   15.2259   21.5233 C   0  0  0  0  0  0  0  0  0  0  0  0
   37.5902   13.3985   22.8597 C   0  0  0  0  0  0  0  0  0  0  0  0
   37.8220   15.5964   21.9342 C   0  0  0  0  0  0  0  0  0  0  0  0
   37.0768   14.6459   22.6121 C   0  0  0  0  0  0  0  0  0  0  0  0
   44.3373   14.9188   19.3483 O   0  0  0  0  0  0  0  0  0  0  0  0
  2  1  1  1
  2  3  1  0
  2  5  1  0
  3  4  1  0
  3 15  2  0
  5  6  1  0
  6  7  2  0
  6  8  1  0
  7  9  1  0
  8 10  2  0
  8 11  1  0
  9 10  1  0
 10 12  1  0
 11 13  2  0
 12 14  2  0
 13 14  1  0
M  CHG  2   1   1   4  -1
M  END
$$$$
