
     RDKit          3D

 15 16  0  0  0  0  0  0  0  0999 V2000
   37.1697   14.4178   24.0174 N   0  0  0  0  0  4  0  0  0  0  0  0
   38.0277   15.4906   23.5736 C   0  0  2  0  0  0  0  0  0  0  0  0
   37.2195   16.7612   23.6898 C   0  0  0  0  0  0  0  0  0  0  0  0
   35.8739   16.6366   23.9691 O   0  0  0  0  0  1  0  0  0  0  0  0
   38.3736   15.3472   22.1397 C   0  0  0  0  0  0  0  0  0  0  0  0
   39.3497   14.3005   21.7978 C   0  0  0  0  0  0  0  0  0  0  0  0
   39.2127   12.9571   21.5509 C   0  0  0  0  0  0  0  0  0  0  0  0
   40.7290   14.5267   21.6623 C   0  0  0  0  0  0  0  0  0  0  0  0
   40.4299   12.4027   21.2816 N   0  0  0  0  0  0  0  0  0  0  0  0
   41.3527   13.3622   21.3508 C   0  0  0  0  0  0  0  0  0  0  0  0
   41.4851   15.6788   21.7989 C   0  0  0  0  0  0  0  0  0  0  0  0
   42.7341   13.3423   21.1715 C   0  0  0  0  0  0  0  0  0  0  0  0
   42.8693   15.6910   21.6259 C   0  0  0  0  0  0  0  0  0  0  0  0
   43.4764   14.4876   21.3068 C   0  0  0  0  0  0  0  0  0  0  0  0
   37.7469   17.8820   23.5399 O   0  0  0  0  0  0  0  0  0  0  0  0
  2  1  1  6
  2  3  1  0
  2  5  1  0
  3  4  1  0
  3 15  2  0
  5  6  1  0
  6  7  2  0
  6  8  1  0
  7  9  1  0
  8 10  2  0
  8 11  1  0
  9 10  1  0
 10 12  1  0
 11 13  2  0
 12 14  2  0
 13 14  1  0
M  CHG  2   1   1   4  -1
M  END
$$$$
