
     RDKit          3D

 15 16  0  0  0  0  0  0  0  0999 V2000
   36.8320   17.2859   22.2162 N   0  0  0  0  0  4  0  0  0  0  0  0
   36.9055   16.1159   23.0587 C   0  0  2  0  0  0  0  0  0  0  0  0
   36.0512   16.4063   24.2699 C   0  0  0  0  0  0  0  0  0  0  0  0
   35.2816   17.5514   24.2465 O   0  0  0  0  0  1  0  0  0  0  0  0
   38.2821   15.8992   23.5628 C   0  0  0  0  0  0  0  0  0  0  0  0
   39.2896   15.4852   22.5736 C   0  0  0  0  0  0  0  0  0  0  0  0
   39.8777   16.1463   21.5241 C   0  0  0  0  0  0  0  0  0  0  0  0
   39.8698   14.2070   22.5313 C   0  0  0  0  0  0  0  0  0  0  0  0
   40.7592   15.3236   20.8857 N   0  0  0  0  0  0  0  0  0  0  0  0
   40.7519   14.1415   21.5017 C   0  0  0  0  0  0  0  0  0  0  0  0
   39.6783   13.0884   23.3247 C   0  0  0  0  0  0  0  0  0  0  0  0
   41.4492   12.9598   21.2606 C   0  0  0  0  0  0  0  0  0  0  0  0
   40.3610   11.8911   23.1085 C   0  0  0  0  0  0  0  0  0  0  0  0
   41.2554   11.8563   22.0516 C   0  0  0  0  0  0  0  0  0  0  0  0
   36.0398   15.6406   25.2550 O   0  0  0  0  0  0  0  0  0  0  0  0
  2  1  1  6
  2  3  1  0
  2  5  1  0
  3  4  1  0
  3 15  2  0
  5  6  1  0
  6  7  2  0
  6  8  1  0
  7  9  1  0
  8 10  2  0
  8 11  1  0
  9 10  1  0
 10 12  1  0
 11 13  2  0
 12 14  2  0
 13 14  1  0
M  CHG  2   1   1   4  -1
M  END
$$$$
