
     RDKit          3D

 15 16  0  0  0  0  0  0  0  0999 V2000
   43.8715   12.1348   20.9280 N   0  0  0  0  0  4  0  0  0  0  0  0
   42.9673   13.2601   20.9174 C   0  0  2  0  0  0  0  0  0  0  0  0
   43.7527   14.4452   21.4272 C   0  0  0  0  0  0  0  0  0  0  0  0
   44.9211   14.1867   22.1143 O   0  0  0  0  0  1  0  0  0  0  0  0
   41.8482   13.0623   21.8686 C   0  0  0  0  0  0  0  0  0  0  0  0
   40.7882   14.0829   21.8617 C   0  0  0  0  0  0  0  0  0  0  0  0
   40.8093   15.4328   21.6134 C   0  0  0  0  0  0  0  0  0  0  0  0
   39.4393   13.8162   22.1472 C   0  0  0  0  0  0  0  0  0  0  0  0
   39.5542   15.9529   21.7387 N   0  0  0  0  0  0  0  0  0  0  0  0
   38.7210   14.9649   22.0648 C   0  0  0  0  0  0  0  0  0  0  0  0
   38.7902   12.6399   22.4828 C   0  0  0  0  0  0  0  0  0  0  0  0
   37.3505   14.9447   22.3144 C   0  0  0  0  0  0  0  0  0  0  0  0
   37.4198   12.5874   22.7385 C   0  0  0  0  0  0  0  0  0  0  0  0
   36.7141   13.7755   22.6447 C   0  0  0  0  0  0  0  0  0  0  0  0
   43.3618   15.6144   21.2349 O   0  0  0  0  0  0  0  0  0  0  0  0
  2  1  1  1
  2  3  1  0
  2  5  1  0
  3  4  1  0
  3 15  2  0
  5  6  1  0
  6  7  2  0
  6  8  1  0
  7  9  1  0
  8 10  2  0
  8 11  1  0
  9 10  1  0
 10 12  1  0
 11 13  2  0
 12 14  2  0
 13 14  1  0
M  CHG  2   1   1   4  -1
M  END
$$$$
