
     RDKit          3D

 15 16  0  0  0  0  0  0  0  0999 V2000
   36.4315   14.8905   22.3756 N   0  0  0  0  0  4  0  0  0  0  0  0
   37.8176   14.8880   22.7788 C   0  0  2  0  0  0  0  0  0  0  0  0
   38.0189   16.1213   23.6273 C   0  0  0  0  0  0  0  0  0  0  0  0
   37.0758   17.1237   23.5273 O   0  0  0  0  0  1  0  0  0  0  0  0
   38.7195   15.0341   21.6120 C   0  0  0  0  0  0  0  0  0  0  0  0
   40.1377   14.7072   21.8292 C   0  0  0  0  0  0  0  0  0  0  0  0
   41.0421   15.1111   22.7796 C   0  0  0  0  0  0  0  0  0  0  0  0
   40.8795   13.8436   21.0070 C   0  0  0  0  0  0  0  0  0  0  0  0
   42.2550   14.5298   22.5507 N   0  0  0  0  0  0  0  0  0  0  0  0
   42.1530   13.7578   21.4688 C   0  0  0  0  0  0  0  0  0  0  0  0
   40.5253   13.1290   19.8750 C   0  0  0  0  0  0  0  0  0  0  0  0
   43.0786   12.9561   20.8044 C   0  0  0  0  0  0  0  0  0  0  0  0
   41.4290   12.3182   19.1879 C   0  0  0  0  0  0  0  0  0  0  0  0
   42.7201   12.2500   19.6847 C   0  0  0  0  0  0  0  0  0  0  0  0
   38.9996   16.2311   24.3907 O   0  0  0  0  0  0  0  0  0  0  0  0
  2  1  1  6
  2  3  1  0
  2  5  1  0
  3  4  1  0
  3 15  2  0
  5  6  1  0
  6  7  2  0
  6  8  1  0
  7  9  1  0
  8 10  2  0
  8 11  1  0
  9 10  1  0
 10 12  1  0
 11 13  2  0
 12 14  2  0
 13 14  1  0
M  CHG  2   1   1   4  -1
M  END
$$$$
