
     RDKit          3D

 15 16  0  0  0  0  0  0  0  0999 V2000
   37.3350   14.3112   21.7457 N   0  0  0  0  0  4  0  0  0  0  0  0
   38.1339   14.9448   22.7677 C   0  0  2  0  0  0  0  0  0  0  0  0
   37.3572   16.1551   23.2293 C   0  0  0  0  0  0  0  0  0  0  0  0
   37.7198   17.3807   22.7092 O   0  0  0  0  0  1  0  0  0  0  0  0
   39.4107   15.4557   22.2155 C   0  0  0  0  0  0  0  0  0  0  0  0
   40.5621   14.5406   22.2602 C   0  0  0  0  0  0  0  0  0  0  0  0
   41.1947   13.9043   23.2993 C   0  0  0  0  0  0  0  0  0  0  0  0
   41.2850   14.1318   21.1278 C   0  0  0  0  0  0  0  0  0  0  0  0
   42.2341   13.1562   22.8287 N   0  0  0  0  0  0  0  0  0  0  0  0
   42.2870   13.2972   21.5043 C   0  0  0  0  0  0  0  0  0  0  0  0
   41.1365   14.4418   19.7864 C   0  0  0  0  0  0  0  0  0  0  0  0
   43.1445   12.7660   20.5433 C   0  0  0  0  0  0  0  0  0  0  0  0
   41.9787   13.9263   18.8008 C   0  0  0  0  0  0  0  0  0  0  0  0
   42.9904   13.0764   19.2163 C   0  0  0  0  0  0  0  0  0  0  0  0
   36.4223   16.0526   24.0493 O   0  0  0  0  0  0  0  0  0  0  0  0
  2  1  1  6
  2  3  1  0
  2  5  1  0
  3  4  1  0
  3 15  2  0
  5  6  1  0
  6  7  2  0
  6  8  1  0
  7  9  1  0
  8 10  2  0
  8 11  1  0
  9 10  1  0
 10 12  1  0
 11 13  2  0
 12 14  2  0
 13 14  1  0
M  CHG  2   1   1   4  -1
M  END
$$$$
