
     RDKit          3D

 15 16  0  0  0  0  0  0  0  0999 V2000
   37.7029   13.7348   23.5052 N   0  0  0  0  0  4  0  0  0  0  0  0
   38.6902   14.6678   23.0166 C   0  0  2  0  0  0  0  0  0  0  0  0
   38.0539   16.0362   23.0791 C   0  0  0  0  0  0  0  0  0  0  0  0
   36.7371   16.1081   23.4852 O   0  0  0  0  0  1  0  0  0  0  0  0
   39.0069   14.4210   21.5901 C   0  0  0  0  0  0  0  0  0  0  0  0
   40.2826   13.7454   21.3047 C   0  0  0  0  0  0  0  0  0  0  0  0
   40.6159   12.4198   21.1778 C   0  0  0  0  0  0  0  0  0  0  0  0
   41.4991   14.4171   21.1027 C   0  0  0  0  0  0  0  0  0  0  0  0
   41.9486   12.2939   20.9145 N   0  0  0  0  0  0  0  0  0  0  0  0
   42.4848   13.5134   20.8697 C   0  0  0  0  0  0  0  0  0  0  0  0
   41.8127   15.7659   21.1144 C   0  0  0  0  0  0  0  0  0  0  0  0
   43.7879   13.9517   20.6449 C   0  0  0  0  0  0  0  0  0  0  0  0
   43.1075   16.2358   20.8931 C   0  0  0  0  0  0  0  0  0  0  0  0
   44.0907   15.2893   20.6566 C   0  0  0  0  0  0  0  0  0  0  0  0
   38.6933   17.0639   22.7760 O   0  0  0  0  0  0  0  0  0  0  0  0
  2  1  1  6
  2  3  1  0
  2  5  1  0
  3  4  1  0
  3 15  2  0
  5  6  1  0
  6  7  2  0
  6  8  1  0
  7  9  1  0
  8 10  2  0
  8 11  1  0
  9 10  1  0
 10 12  1  0
 11 13  2  0
 12 14  2  0
 13 14  1  0
M  CHG  2   1   1   4  -1
M  END
$$$$
