
     RDKit          3D

 15 16  0  0  0  0  0  0  0  0999 V2000
   38.1971   15.3365   24.2993 N   0  0  0  0  0  4  0  0  0  0  0  0
   38.1818   16.2435   23.1763 C   0  0  2  0  0  0  0  0  0  0  0  0
   36.8259   16.9088   23.1816 C   0  0  0  0  0  0  0  0  0  0  0  0
   36.7779   18.2538   23.4866 O   0  0  0  0  0  1  0  0  0  0  0  0
   38.2816   15.5129   21.8908 C   0  0  0  0  0  0  0  0  0  0  0  0
   39.5887   14.9184   21.5693 C   0  0  0  0  0  0  0  0  0  0  0  0
   40.6188   15.3362   20.7640 C   0  0  0  0  0  0  0  0  0  0  0  0
   40.0407   13.6913   22.0812 C   0  0  0  0  0  0  0  0  0  0  0  0
   41.6320   14.4228   20.7858 N   0  0  0  0  0  0  0  0  0  0  0  0
   41.2765   13.4205   21.5895 C   0  0  0  0  0  0  0  0  0  0  0  0
   39.4468   12.7849   22.9434 C   0  0  0  0  0  0  0  0  0  0  0  0
   41.9267   12.2449   21.9580 C   0  0  0  0  0  0  0  0  0  0  0  0
   40.0720   11.5995   23.3308 C   0  0  0  0  0  0  0  0  0  0  0  0
   41.3329   11.3526   22.8137 C   0  0  0  0  0  0  0  0  0  0  0  0
   35.7875   16.2686   22.9198 O   0  0  0  0  0  0  0  0  0  0  0  0
  2  1  1  1
  2  3  1  0
  2  5  1  0
  3  4  1  0
  3 15  2  0
  5  6  1  0
  6  7  2  0
  6  8  1  0
  7  9  1  0
  8 10  2  0
  8 11  1  0
  9 10  1  0
 10 12  1  0
 11 13  2  0
 12 14  2  0
 13 14  1  0
M  CHG  2   1   1   4  -1
M  END
$$$$
