
     RDKit          3D

 15 16  0  0  0  0  0  0  0  0999 V2000
   36.7068   14.4281   22.8522 N   0  0  0  0  0  4  0  0  0  0  0  0
   38.1299   14.4336   23.0944 C   0  0  2  0  0  0  0  0  0  0  0  0
   38.4876   15.8402   23.5127 C   0  0  0  0  0  0  0  0  0  0  0  0
   37.5561   16.8307   23.2773 O   0  0  0  0  0  1  0  0  0  0  0  0
   38.8902   14.1633   21.8514 C   0  0  0  0  0  0  0  0  0  0  0  0
   40.3196   13.8505   22.0068 C   0  0  0  0  0  0  0  0  0  0  0  0
   40.9891   12.9822   22.8329 C   0  0  0  0  0  0  0  0  0  0  0  0
   41.3425   14.4603   21.2627 C   0  0  0  0  0  0  0  0  0  0  0  0
   42.3320   13.0584   22.6048 N   0  0  0  0  0  0  0  0  0  0  0  0
   42.5446   13.9609   21.6471 C   0  0  0  0  0  0  0  0  0  0  0  0
   41.3021   15.4295   20.2745 C   0  0  0  0  0  0  0  0  0  0  0  0
   43.7123   14.4248   21.0453 C   0  0  0  0  0  0  0  0  0  0  0  0
   42.4533   15.9143   19.6533 C   0  0  0  0  0  0  0  0  0  0  0  0
   43.6644   15.3838   20.0661 C   0  0  0  0  0  0  0  0  0  0  0  0
   39.5829   16.0987   24.0513 O   0  0  0  0  0  0  0  0  0  0  0  0
  2  1  1  6
  2  3  1  0
  2  5  1  0
  3  4  1  0
  3 15  2  0
  5  6  1  0
  6  7  2  0
  6  8  1  0
  7  9  1  0
  8 10  2  0
  8 11  1  0
  9 10  1  0
 10 12  1  0
 11 13  2  0
 12 14  2  0
 13 14  1  0
M  CHG  2   1   1   4  -1
M  END
$$$$
