
     RDKit          3D

 15 16  0  0  0  0  0  0  0  0999 V2000
   44.3829   11.9589   21.6532 N   0  0  0  0  0  4  0  0  0  0  0  0
   43.3321   12.8393   21.2006 C   0  0  2  0  0  0  0  0  0  0  0  0
   43.7559   14.2398   21.5751 C   0  0  0  0  0  0  0  0  0  0  0  0
   44.7796   14.3717   22.4909 O   0  0  0  0  0  1  0  0  0  0  0  0
   42.0637   12.5815   21.9223 C   0  0  0  0  0  0  0  0  0  0  0  0
   40.8636   13.2626   21.4116 C   0  0  0  0  0  0  0  0  0  0  0  0
   40.4090   13.4988   20.1380 C   0  0  0  0  0  0  0  0  0  0  0  0
   39.8874   13.8533   22.2302 C   0  0  0  0  0  0  0  0  0  0  0  0
   39.2320   14.1875   20.1797 N   0  0  0  0  0  0  0  0  0  0  0  0
   38.9166   14.4027   21.4569 C   0  0  0  0  0  0  0  0  0  0  0  0
   39.7869   13.9538   23.6077 C   0  0  0  0  0  0  0  0  0  0  0  0
   37.8393   15.0530   22.0548 C   0  0  0  0  0  0  0  0  0  0  0  0
   38.7211   14.5984   24.2359 C   0  0  0  0  0  0  0  0  0  0  0  0
   37.7457   15.1472   23.4198 C   0  0  0  0  0  0  0  0  0  0  0  0
   43.2030   15.2407   21.0759 O   0  0  0  0  0  0  0  0  0  0  0  0
  2  1  1  1
  2  3  1  0
  2  5  1  0
  3  4  1  0
  3 15  2  0
  5  6  1  0
  6  7  2  0
  6  8  1  0
  7  9  1  0
  8 10  2  0
  8 11  1  0
  9 10  1  0
 10 12  1  0
 11 13  2  0
 12 14  2  0
 13 14  1  0
M  CHG  2   1   1   4  -1
M  END
$$$$
