
     RDKit          3D

 15 16  0  0  0  0  0  0  0  0999 V2000
   37.5798   14.5948   24.8221 N   0  0  0  0  0  4  0  0  0  0  0  0
   37.9198   15.4457   23.7065 C   0  0  2  0  0  0  0  0  0  0  0  0
   36.7008   16.2923   23.4267 C   0  0  0  0  0  0  0  0  0  0  0  0
   36.8318   17.3127   22.5070 O   0  0  0  0  0  1  0  0  0  0  0  0
   38.1667   14.6533   22.4788 C   0  0  0  0  0  0  0  0  0  0  0  0
   39.3940   13.8420   22.4526 C   0  0  0  0  0  0  0  0  0  0  0  0
   39.8300   12.8036   23.2375 C   0  0  0  0  0  0  0  0  0  0  0  0
   40.4351   14.0221   21.5275 C   0  0  0  0  0  0  0  0  0  0  0  0
   41.0563   12.3792   22.8162 N   0  0  0  0  0  0  0  0  0  0  0  0
   41.4230   13.1244   21.7735 C   0  0  0  0  0  0  0  0  0  0  0  0
   40.5881   14.9215   20.4857 C   0  0  0  0  0  0  0  0  0  0  0  0
   42.5675   13.1183   20.9792 C   0  0  0  0  0  0  0  0  0  0  0  0
   41.7219   14.9404   19.6731 C   0  0  0  0  0  0  0  0  0  0  0  0
   42.7114   14.0110   19.9481 C   0  0  0  0  0  0  0  0  0  0  0  0
   35.6154   16.0784   24.0036 O   0  0  0  0  0  0  0  0  0  0  0  0
  2  1  1  1
  2  3  1  0
  2  5  1  0
  3  4  1  0
  3 15  2  0
  5  6  1  0
  6  7  2  0
  6  8  1  0
  7  9  1  0
  8 10  2  0
  8 11  1  0
  9 10  1  0
 10 12  1  0
 11 13  2  0
 12 14  2  0
 13 14  1  0
M  CHG  2   1   1   4  -1
M  END
$$$$
