
     RDKit          3D

 15 16  0  0  0  0  0  0  0  0999 V2000
   37.9297   14.7571   24.7234 N   0  0  0  0  0  4  0  0  0  0  0  0
   38.0324   15.9855   23.9721 C   0  0  2  0  0  0  0  0  0  0  0  0
   36.6726   16.6400   24.0338 C   0  0  0  0  0  0  0  0  0  0  0  0
   36.5377   17.8839   23.4520 O   0  0  0  0  0  1  0  0  0  0  0  0
   38.3022   15.7211   22.5391 C   0  0  0  0  0  0  0  0  0  0  0  0
   39.6372   15.2009   22.2040 C   0  0  0  0  0  0  0  0  0  0  0  0
   40.8967   15.7242   22.3599 C   0  0  0  0  0  0  0  0  0  0  0  0
   39.8652   13.9552   21.5971 C   0  0  0  0  0  0  0  0  0  0  0  0
   41.8301   14.8525   21.8799 N   0  0  0  0  0  0  0  0  0  0  0  0
   41.1982   13.7749   21.4149 C   0  0  0  0  0  0  0  0  0  0  0  0
   38.9901   12.9651   21.1831 C   0  0  0  0  0  0  0  0  0  0  0  0
   41.6643   12.6042   20.8208 C   0  0  0  0  0  0  0  0  0  0  0  0
   39.4259   11.7824   20.5852 C   0  0  0  0  0  0  0  0  0  0  0  0
   40.7916   11.6272   20.4146 C   0  0  0  0  0  0  0  0  0  0  0  0
   35.7063   16.0784   24.5886 O   0  0  0  0  0  0  0  0  0  0  0  0
  2  1  1  1
  2  3  1  0
  2  5  1  0
  3  4  1  0
  3 15  2  0
  5  6  1  0
  6  7  2  0
  6  8  1  0
  7  9  1  0
  8 10  2  0
  8 11  1  0
  9 10  1  0
 10 12  1  0
 11 13  2  0
 12 14  2  0
 13 14  1  0
M  CHG  2   1   1   4  -1
M  END
$$$$
