
     RDKit          3D

 15 16  0  0  0  0  0  0  0  0999 V2000
   39.1940   15.5252   24.7025 N   0  0  0  0  0  4  0  0  0  0  0  0
   38.5833   15.7600   23.4158 C   0  0  2  0  0  0  0  0  0  0  0  0
   37.1324   16.0837   23.6831 C   0  0  0  0  0  0  0  0  0  0  0  0
   36.6452   17.2773   23.1910 O   0  0  0  0  0  1  0  0  0  0  0  0
   38.5894   14.5339   22.5834 C   0  0  0  0  0  0  0  0  0  0  0  0
   39.5842   14.4761   21.5008 C   0  0  0  0  0  0  0  0  0  0  0  0
   39.6657   15.1144   20.2882 C   0  0  0  0  0  0  0  0  0  0  0  0
   40.7306   13.6656   21.5299 C   0  0  0  0  0  0  0  0  0  0  0  0
   40.7895   14.7185   19.6237 N   0  0  0  0  0  0  0  0  0  0  0  0
   41.4367   13.8346   20.3831 C   0  0  0  0  0  0  0  0  0  0  0  0
   41.2020   12.7811   22.4855 C   0  0  0  0  0  0  0  0  0  0  0  0
   42.6182   13.1233   20.1854 C   0  0  0  0  0  0  0  0  0  0  0  0
   42.3809   12.0545   22.3168 C   0  0  0  0  0  0  0  0  0  0  0  0
   43.0797   12.2501   21.1370 C   0  0  0  0  0  0  0  0  0  0  0  0
   36.4004   15.3026   24.3239 O   0  0  0  0  0  0  0  0  0  0  0  0
  2  1  1  1
  2  3  1  0
  2  5  1  0
  3  4  1  0
  3 15  2  0
  5  6  1  0
  6  7  2  0
  6  8  1  0
  7  9  1  0
  8 10  2  0
  8 11  1  0
  9 10  1  0
 10 12  1  0
 11 13  2  0
 12 14  2  0
 13 14  1  0
M  CHG  2   1   1   4  -1
M  END
$$$$
