
     RDKit          3D

 34 36  0  0  0  0  0  0  0  0999 V2000
   10.2816   14.7916  157.7722 C   0  0  0  0  0  0  0  0  0  0  0  0
   11.6201   19.3387  159.4672 C   0  0  0  0  0  0  0  0  0  0  0  0
   11.2093   12.8352  158.7459 C   0  0  0  0  0  0  0  0  0  0  0  0
   10.0197   12.0731  158.3608 C   0  0  0  0  0  0  0  0  0  0  0  0
    9.1982   12.6743  157.3865 C   0  0  0  0  0  0  0  0  0  0  0  0
    8.0605   12.0841  156.9214 C   0  0  0  0  0  0  0  0  0  0  0  0
    7.7229   10.8457  157.4433 C   0  0  0  0  0  0  0  0  0  0  0  0
    8.5063   10.2479  158.3873 C   0  0  0  0  0  0  0  0  0  0  0  0
    9.6800   10.8622  158.8656 C   0  0  0  0  0  0  0  0  0  0  0  0
   11.8321    9.7824  159.5614 C   0  0  0  0  0  0  0  0  0  0  0  0
   10.8254    9.7022  162.6948 C   0  0  0  0  0  0  0  0  0  0  0  0
   12.4740   14.8537  158.7247 C   0  0  0  0  0  0  0  0  0  0  0  0
   11.5778    8.6353  163.1321 C   0  0  0  0  0  0  0  0  0  0  0  0
   12.3780    8.7854  164.2308 C   0  0  0  0  0  0  0  0  0  0  0  0
   12.4659    9.9685  164.9272 C   0  0  0  0  0  0  0  0  0  0  0  0
   11.7268   11.0517  164.5157 C   0  0  0  0  0  0  0  0  0  0  0  0
   10.9279   10.9070  163.4216 C   0  0  0  0  0  0  0  0  0  0  0  0
   12.7534   10.2342  167.3545 C   0  0  0  0  0  0  0  0  0  0  0  0
   12.0434    8.6610  158.6043 C   0  0  0  0  0  0  0  0  0  0  0  0
   12.8381   16.1154  158.0247 C   0  0  0  0  0  0  0  0  0  0  0  0
   11.7744   17.1559  158.2046 C   0  0  0  0  0  0  0  0  0  0  0  0
   12.3816   18.3022  158.9352 C   0  0  0  0  0  0  0  0  0  0  0  0
   13.7437   18.3555  159.0984 C   0  0  0  0  0  0  0  0  0  0  0  0
   14.3712   19.3943  159.7663 C   0  0  0  0  0  0  0  0  0  0  0  0
   13.5619   20.3961  160.2734 C   0  0  0  0  0  0  0  0  0  0  0  0
   12.2035   20.3899  160.1381 C   0  0  0  0  0  0  0  0  0  0  0  0
   11.4907   14.0323  157.9975 N   0  0  2  0  0  4  0  0  0  0  0  0
   10.4326   10.1147  159.8492 N   0  0  0  0  0  0  0  0  0  0  0  0
   13.2129    7.9979  158.8344 O   0  0  0  0  0  0  0  0  0  0  0  0
    8.5289   10.3796  161.6890 O   0  0  0  0  0  0  0  0  0  0  0  0
   13.2766   10.1224  166.0409 O   0  0  0  0  0  0  0  0  0  0  0  0
    9.4004    8.1284  161.1456 O   0  0  0  0  0  0  0  0  0  0  0  0
    9.7889    9.5821  161.3257 S   0  0  2  0  0  6  0  0  0  0  0  0
   14.3150   21.7258  161.1230 Cl  0  0  0  0  0  0  0  0  0  0  0  0
 27  1  1  1
 22  2  2  0
  2 26  1  0
  4  3  1  0
  3 27  1  0
  4  5  2  0
  9  4  1  0
  5  6  1  0
  7  6  2  0
  8  7  1  0
  9  8  2  0
 28  9  1  0
 10 19  1  0
 28 10  1  0
 11 13  2  0
 11 17  1  0
 33 11  1  0
 12 20  1  0
 27 12  1  0
 13 14  1  0
 14 15  2  0
 16 15  1  0
 15 31  1  0
 17 16  2  0
 31 18  1  0
 19 29  1  0
 20 21  1  0
 21 22  1  0
 22 23  1  0
 23 24  2  0
 24 25  1  0
 26 25  2  0
 25 34  1  0
 33 28  1  6
 33 30  2  0
 33 32  2  0
M  CHG  1  27   1
M  END
$$$$
