
     RDKit          3D

 34 36  0  0  0  0  0  0  0  0999 V2000
   11.4630   13.8313  156.8472 C   0  0  0  0  0  0  0  0  0  0  0  0
   13.2242   18.5427  157.9141 C   0  0  0  0  0  0  0  0  0  0  0  0
   10.9051   13.0245  159.0092 C   0  0  0  0  0  0  0  0  0  0  0  0
    9.5608   12.5963  158.6171 C   0  0  0  0  0  0  0  0  0  0  0  0
    8.6899   13.6229  158.2011 C   0  0  0  0  0  0  0  0  0  0  0  0
    7.4096   13.3804  157.7997 C   0  0  0  0  0  0  0  0  0  0  0  0
    6.9742   12.0650  157.8104 C   0  0  0  0  0  0  0  0  0  0  0  0
    7.8035   11.0574  158.2097 C   0  0  0  0  0  0  0  0  0  0  0  0
    9.1248   11.3132  158.6248 C   0  0  0  0  0  0  0  0  0  0  0  0
   11.0961    9.8217  158.2113 C   0  0  0  0  0  0  0  0  0  0  0  0
   10.4047    9.4181  161.7646 C   0  0  0  0  0  0  0  0  0  0  0  0
   13.1598   13.6157  158.5181 C   0  0  0  0  0  0  0  0  0  0  0  0
   10.0535   10.4129  162.6494 C   0  0  0  0  0  0  0  0  0  0  0  0
   10.7929   10.5902  163.7859 C   0  0  0  0  0  0  0  0  0  0  0  0
   11.8850    9.8103  164.0886 C   0  0  0  0  0  0  0  0  0  0  0  0
   12.2610    8.8094  163.2250 C   0  0  0  0  0  0  0  0  0  0  0  0
   11.5275    8.6288  162.0912 C   0  0  0  0  0  0  0  0  0  0  0  0
   12.1724   10.7552  166.3401 C   0  0  0  0  0  0  0  0  0  0  0  0
   12.0169    8.8244  158.8244 C   0  0  0  0  0  0  0  0  0  0  0  0
   13.0095   14.9888  159.0716 C   0  0  0  0  0  0  0  0  0  0  0  0
   13.1205   16.0196  157.9892 C   0  0  0  0  0  0  0  0  0  0  0  0
   13.0924   17.3601  158.6362 C   0  0  0  0  0  0  0  0  0  0  0  0
   12.9327   17.4517  159.9967 C   0  0  0  0  0  0  0  0  0  0  0  0
   12.8994   18.6673  160.6600 C   0  0  0  0  0  0  0  0  0  0  0  0
   13.0355   19.8087  159.8890 C   0  0  0  0  0  0  0  0  0  0  0  0
   13.1967   19.7718  158.5340 C   0  0  0  0  0  0  0  0  0  0  0  0
   11.9102   13.0514  157.9790 N   0  0  2  0  0  4  0  0  0  0  0  0
    9.9070   10.1565  159.0025 N   0  0  0  0  0  0  0  0  0  0  0  0
   13.3055    8.9852  158.4074 O   0  0  0  0  0  0  0  0  0  0  0  0
    8.0449    9.2806  160.6891 O   0  0  0  0  0  0  0  0  0  0  0  0
   12.6353    9.9885  165.2402 O   0  0  0  0  0  0  0  0  0  0  0  0
    9.7765    7.7194  159.8600 O   0  0  0  0  0  0  0  0  0  0  0  0
    9.5260    9.1448  160.3099 S   0  0  2  0  0  6  0  0  0  0  0  0
   12.9993   21.3634  160.6882 Cl  0  0  0  0  0  0  0  0  0  0  0  0
 27  1  1  6
 22  2  2  0
  2 26  1  0
  4  3  1  0
  3 27  1  0
  4  5  2  0
  9  4  1  0
  5  6  1  0
  7  6  2  0
  8  7  1  0
  9  8  2  0
 28  9  1  0
 10 19  1  0
 28 10  1  0
 11 13  2  0
 11 17  1  0
 33 11  1  0
 12 20  1  0
 27 12  1  0
 13 14  1  0
 14 15  2  0
 16 15  1  0
 15 31  1  0
 17 16  2  0
 31 18  1  0
 19 29  1  0
 20 21  1  0
 21 22  1  0
 22 23  1  0
 23 24  2  0
 24 25  1  0
 26 25  2  0
 25 34  1  0
 33 28  1  6
 33 30  2  0
 33 32  2  0
M  CHG  1  27   1
M  END
$$$$
