
     RDKit          3D

 34 36  0  0  0  0  0  0  0  0999 V2000
    8.3296   14.4109  161.8335 C   0  0  0  0  0  0  0  0  0  0  0  0
   10.2916   19.7686  157.4934 C   0  0  0  0  0  0  0  0  0  0  0  0
    9.4135   14.4673  159.7220 C   0  0  0  0  0  0  0  0  0  0  0  0
    9.7774   13.0829  160.0306 C   0  0  0  0  0  0  0  0  0  0  0  0
    8.9769   12.0922  159.4281 C   0  0  0  0  0  0  0  0  0  0  0  0
    9.1959   10.7593  159.6144 C   0  0  0  0  0  0  0  0  0  0  0  0
   10.2530   10.3929  160.4317 C   0  0  0  0  0  0  0  0  0  0  0  0
   11.0393   11.3382  161.0235 C   0  0  0  0  0  0  0  0  0  0  0  0
   10.8083   12.7139  160.8291 C   0  0  0  0  0  0  0  0  0  0  0  0
   12.6544   14.4024  160.6784 C   0  0  0  0  0  0  0  0  0  0  0  0
   12.3085   15.3499  163.7449 C   0  0  0  0  0  0  0  0  0  0  0  0
    8.7459   16.5057  160.7582 C   0  0  0  0  0  0  0  0  0  0  0  0
   11.4020   16.3308  164.0793 C   0  0  0  0  0  0  0  0  0  0  0  0
   11.8583   17.5437  164.5162 C   0  0  0  0  0  0  0  0  0  0  0  0
   13.1980   17.8313  164.6378 C   0  0  0  0  0  0  0  0  0  0  0  0
   14.1275   16.8730  164.3111 C   0  0  0  0  0  0  0  0  0  0  0  0
   13.6779   15.6630  163.8752 C   0  0  0  0  0  0  0  0  0  0  0  0
   14.7190   19.1822  166.0185 C   0  0  0  0  0  0  0  0  0  0  0  0
   14.0682   13.9343  160.6770 C   0  0  0  0  0  0  0  0  0  0  0  0
    8.5763   17.3402  159.5378 C   0  0  0  0  0  0  0  0  0  0  0  0
    9.9043   17.7737  158.9945 C   0  0  0  0  0  0  0  0  0  0  0  0
    9.8133   19.2267  158.6830 C   0  0  0  0  0  0  0  0  0  0  0  0
    9.2398   20.0794  159.5934 C   0  0  0  0  0  0  0  0  0  0  0  0
    9.1256   21.4410  159.3656 C   0  0  0  0  0  0  0  0  0  0  0  0
    9.6191   21.9216  158.1651 C   0  0  0  0  0  0  0  0  0  0  0  0
   10.1980   21.1162  157.2272 C   0  0  0  0  0  0  0  0  0  0  0  0
    8.4163   15.0839  160.5573 N   0  0  2  0  0  4  0  0  0  0  0  0
   11.7262   13.6124  161.4946 N   0  0  0  0  0  0  0  0  0  0  0  0
   14.9535   14.9624  160.5361 O   0  0  0  0  0  0  0  0  0  0  0  0
   10.4343   13.5537  163.8199 O   0  0  0  0  0  0  0  0  0  0  0  0
   13.6620   19.0600  165.0806 O   0  0  0  0  0  0  0  0  0  0  0  0
   12.7764   12.7640  163.7011 O   0  0  0  0  0  0  0  0  0  0  0  0
   11.8060   13.8041  163.1783 S   0  0  2  0  0  6  0  0  0  0  0  0
    9.4947   23.6349  157.8391 Cl  0  0  0  0  0  0  0  0  0  0  0  0
 27  1  1  1
 22  2  2  0
  2 26  1  0
  4  3  1  0
  3 27  1  0
  4  5  2  0
  9  4  1  0
  5  6  1  0
  7  6  2  0
  8  7  1  0
  9  8  2  0
 28  9  1  0
 10 19  1  0
 28 10  1  0
 11 13  2  0
 11 17  1  0
 33 11  1  0
 12 20  1  0
 27 12  1  0
 13 14  1  0
 14 15  2  0
 16 15  1  0
 15 31  1  0
 17 16  2  0
 31 18  1  0
 19 29  1  0
 20 21  1  0
 21 22  1  0
 22 23  1  0
 23 24  2  0
 24 25  1  0
 26 25  2  0
 25 34  1  0
 33 28  1  6
 33 30  2  0
 33 32  2  0
M  CHG  1  27   1
M  END
$$$$
