
     RDKit          3D

 34 36  0  0  0  0  0  0  0  0999 V2000
   11.8573   13.5076  161.1842 C   0  0  0  0  0  0  0  0  0  0  0  0
   10.7604   19.3874  163.3926 C   0  0  0  0  0  0  0  0  0  0  0  0
    9.9402   12.5652  162.2199 C   0  0  0  0  0  0  0  0  0  0  0  0
   10.6056   11.3710  162.7447 C   0  0  0  0  0  0  0  0  0  0  0  0
   11.1069   11.4783  164.0572 C   0  0  0  0  0  0  0  0  0  0  0  0
   11.7446   10.4494  164.6848 C   0  0  0  0  0  0  0  0  0  0  0  0
   11.8911    9.2641  163.9823 C   0  0  0  0  0  0  0  0  0  0  0  0
   11.4118    9.1414  162.7105 C   0  0  0  0  0  0  0  0  0  0  0  0
   10.7550   10.2076  162.0660 C   0  0  0  0  0  0  0  0  0  0  0  0
    9.1051    9.0737  160.5580 C   0  0  0  0  0  0  0  0  0  0  0  0
   12.4774    9.8398  158.8399 C   0  0  0  0  0  0  0  0  0  0  0  0
    9.9139   14.8515  161.5518 C   0  0  0  0  0  0  0  0  0  0  0  0
   12.5102    8.6424  158.1609 C   0  0  0  0  0  0  0  0  0  0  0  0
   13.7174    8.1056  157.8078 C   0  0  0  0  0  0  0  0  0  0  0  0
   14.9145    8.7151  158.1041 C   0  0  0  0  0  0  0  0  0  0  0  0
   14.9147    9.9110  158.7814 C   0  0  0  0  0  0  0  0  0  0  0  0
   13.7145   10.4499  159.1356 C   0  0  0  0  0  0  0  0  0  0  0  0
   17.3155    8.3779  158.5114 C   0  0  0  0  0  0  0  0  0  0  0  0
    7.7949    9.6818  160.9212 C   0  0  0  0  0  0  0  0  0  0  0  0
   10.6183   16.1613  161.4983 C   0  0  0  0  0  0  0  0  0  0  0  0
   10.1653   17.0608  162.6083 C   0  0  0  0  0  0  0  0  0  0  0  0
   10.9125   18.3426  162.4856 C   0  0  0  0  0  0  0  0  0  0  0  0
   11.7883   18.5183  161.4431 C   0  0  0  0  0  0  0  0  0  0  0  0
   12.5128   19.6863  161.2710 C   0  0  0  0  0  0  0  0  0  0  0  0
   12.3195   20.6899  162.2045 C   0  0  0  0  0  0  0  0  0  0  0  0
   11.4611   20.5650  163.2585 C   0  0  0  0  0  0  0  0  0  0  0  0
   10.7432   13.7508  162.0724 N   0  0  2  0  0  4  0  0  0  0  0  0
   10.2753    9.9419  160.7274 N   0  0  0  0  0  0  0  0  0  0  0  0
    7.1582    8.9878  161.9079 O   0  0  0  0  0  0  0  0  0  0  0  0
   10.0525   10.4299  158.1213 O   0  0  0  0  0  0  0  0  0  0  0  0
   16.1387    8.1725  157.7467 O   0  0  0  0  0  0  0  0  0  0  0  0
   11.2445   12.0429  159.5706 O   0  0  0  0  0  0  0  0  0  0  0  0
   10.9951   10.5684  159.3247 S   0  0  2  0  0  6  0  0  0  0  0  0
   13.2149   22.1806  162.0229 Cl  0  0  0  0  0  0  0  0  0  0  0  0
 27  1  1  6
 22  2  2  0
  2 26  1  0
  4  3  1  0
  3 27  1  0
  4  5  2  0
  9  4  1  0
  5  6  1  0
  7  6  2  0
  8  7  1  0
  9  8  2  0
 28  9  1  0
 10 19  1  0
 28 10  1  0
 11 13  2  0
 11 17  1  0
 33 11  1  0
 12 20  1  0
 27 12  1  0
 13 14  1  0
 14 15  2  0
 16 15  1  0
 15 31  1  0
 17 16  2  0
 31 18  1  0
 19 29  1  0
 20 21  1  0
 21 22  1  0
 22 23  1  0
 23 24  2  0
 24 25  1  0
 26 25  2  0
 25 34  1  0
 33 28  1  1
 33 30  2  0
 33 32  2  0
M  CHG  1  27   1
M  END
$$$$
