
     RDKit          3D

 34 36  0  0  0  0  0  0  0  0999 V2000
   10.1620   13.4050  159.1693 C   0  0  0  0  0  0  0  0  0  0  0  0
    6.8066    9.2501  161.9619 C   0  0  0  0  0  0  0  0  0  0  0  0
   12.2654   12.6794  159.9972 C   0  0  0  0  0  0  0  0  0  0  0  0
   12.7141   13.9481  160.5744 C   0  0  0  0  0  0  0  0  0  0  0  0
   12.4795   14.1082  161.9546 C   0  0  0  0  0  0  0  0  0  0  0  0
   12.8467   15.2310  162.6353 C   0  0  0  0  0  0  0  0  0  0  0  0
   13.4733   16.2376  161.9182 C   0  0  0  0  0  0  0  0  0  0  0  0
   13.7093   16.1004  160.5812 C   0  0  0  0  0  0  0  0  0  0  0  0
   13.3268   14.9390  159.8821 C   0  0  0  0  0  0  0  0  0  0  0  0
   14.1187   13.6485  157.8848 C   0  0  0  0  0  0  0  0  0  0  0  0
   12.4352   17.4857  157.9265 C   0  0  0  0  0  0  0  0  0  0  0  0
   10.5855   11.0721  159.4788 C   0  0  0  0  0  0  0  0  0  0  0  0
   12.8464   18.6106  158.6057 C   0  0  0  0  0  0  0  0  0  0  0  0
   11.9212   19.5505  158.9671 C   0  0  0  0  0  0  0  0  0  0  0  0
   10.5822   19.4209  158.6794 C   0  0  0  0  0  0  0  0  0  0  0  0
   10.1405   18.3091  158.0030 C   0  0  0  0  0  0  0  0  0  0  0  0
   11.0586   17.3697  157.6408 C   0  0  0  0  0  0  0  0  0  0  0  0
    9.9640   21.7479  159.1772 C   0  0  0  0  0  0  0  0  0  0  0  0
   14.7857   13.7651  156.5583 C   0  0  0  0  0  0  0  0  0  0  0  0
    9.9267   10.1770  160.4684 C   0  0  0  0  0  0  0  0  0  0  0  0
    8.5476   10.6630  160.7978 C   0  0  0  0  0  0  0  0  0  0  0  0
    8.0530    9.8696  161.9565 C   0  0  0  0  0  0  0  0  0  0  0  0
    8.8431    9.7348  163.0710 C   0  0  0  0  0  0  0  0  0  0  0  0
    8.4419    9.0118  164.1824 C   0  0  0  0  0  0  0  0  0  0  0  0
    7.1925    8.4184  164.1295 C   0  0  0  0  0  0  0  0  0  0  0  0
    6.3690    8.5223  163.0457 C   0  0  0  0  0  0  0  0  0  0  0  0
   10.8477   12.4299  159.9868 N   0  0  2  0  0  4  0  0  0  0  0  0
   13.6536   14.9092  158.4733 N   0  0  0  0  0  0  0  0  0  0  0  0
   14.1588   13.0275  155.5973 O   0  0  0  0  0  0  0  0  0  0  0  0
   14.9038   16.9548  157.3192 O   0  0  0  0  0  0  0  0  0  0  0  0
    9.6432   20.3727  159.0449 O   0  0  0  0  0  0  0  0  0  0  0  0
   13.1328   15.7479  156.0823 O   0  0  0  0  0  0  0  0  0  0  0  0
   13.5428   16.2574  157.4494 S   0  0  2  0  0  6  0  0  0  0  0  0
    6.6483    7.4972  165.5123 Cl  0  0  0  0  0  0  0  0  0  0  0  0
 27  1  1  6
 22  2  2  0
  2 26  1  0
  4  3  1  0
  3 27  1  0
  4  5  2  0
  9  4  1  0
  5  6  1  0
  7  6  2  0
  8  7  1  0
  9  8  2  0
 28  9  1  0
 10 19  1  0
 28 10  1  0
 11 13  2  0
 11 17  1  0
 33 11  1  0
 12 20  1  0
 27 12  1  0
 13 14  1  0
 14 15  2  0
 16 15  1  0
 15 31  1  0
 17 16  2  0
 31 18  1  0
 19 29  1  0
 20 21  1  0
 21 22  1  0
 22 23  1  0
 23 24  2  0
 24 25  1  0
 26 25  2  0
 25 34  1  0
 33 28  1  1
 33 30  2  0
 33 32  2  0
M  CHG  1  27   1
M  END
$$$$
