
     RDKit          3D

 34 36  0  0  0  0  0  0  0  0999 V2000
    8.5659   14.5025  161.2841 C   0  0  0  0  0  0  0  0  0  0  0  0
   11.5510   10.3075  166.3644 C   0  0  0  0  0  0  0  0  0  0  0  0
    9.9112   12.5960  160.8459 C   0  0  0  0  0  0  0  0  0  0  0  0
    9.3706   12.5702  159.4853 C   0  0  0  0  0  0  0  0  0  0  0  0
    8.3451   11.6322  159.2532 C   0  0  0  0  0  0  0  0  0  0  0  0
    7.7382   11.4946  158.0400 C   0  0  0  0  0  0  0  0  0  0  0  0
    8.1652   12.3218  157.0137 C   0  0  0  0  0  0  0  0  0  0  0  0
    9.1568   13.2364  157.2197 C   0  0  0  0  0  0  0  0  0  0  0  0
    9.7816   13.3739  158.4745 C   0  0  0  0  0  0  0  0  0  0  0  0
   12.2034   14.0098  158.3646 C   0  0  0  0  0  0  0  0  0  0  0  0
   11.8175   17.1027  158.8077 C   0  0  0  0  0  0  0  0  0  0  0  0
    9.9486   13.5921  163.0095 C   0  0  0  0  0  0  0  0  0  0  0  0
   12.4719   17.5575  159.9305 C   0  0  0  0  0  0  0  0  0  0  0  0
   13.5238   18.4199  159.7895 C   0  0  0  0  0  0  0  0  0  0  0  0
   13.9626   18.8588  158.5618 C   0  0  0  0  0  0  0  0  0  0  0  0
   13.3296   18.4232  157.4223 C   0  0  0  0  0  0  0  0  0  0  0  0
   12.2809   17.5639  157.5576 C   0  0  0  0  0  0  0  0  0  0  0  0
   16.1363   19.4507  157.5773 C   0  0  0  0  0  0  0  0  0  0  0  0
   12.4669   13.1363  157.1875 C   0  0  0  0  0  0  0  0  0  0  0  0
   10.6608   12.3282  163.3410 C   0  0  0  0  0  0  0  0  0  0  0  0
   10.8044   12.1655  164.8241 C   0  0  0  0  0  0  0  0  0  0  0  0
   11.2764   10.7775  165.0834 C   0  0  0  0  0  0  0  0  0  0  0  0
   11.4543    9.9153  164.0300 C   0  0  0  0  0  0  0  0  0  0  0  0
   11.8921    8.6125  164.2029 C   0  0  0  0  0  0  0  0  0  0  0  0
   12.1491    8.2020  165.4995 C   0  0  0  0  0  0  0  0  0  0  0  0
   11.9881    9.0199  166.5806 C   0  0  0  0  0  0  0  0  0  0  0  0
    9.8204   13.8410  161.5630 N   0  0  2  0  0  4  0  0  0  0  0  0
   10.8024   14.3946  158.5672 N   0  0  0  0  0  0  0  0  0  0  0  0
   13.7881   12.8218  157.0619 O   0  0  0  0  0  0  0  0  0  0  0  0
    9.4221   16.5836  157.9492 O   0  0  0  0  0  0  0  0  0  0  0  0
   15.0287   19.7327  158.4172 O   0  0  0  0  0  0  0  0  0  0  0  0
    9.9250   16.0830  160.3197 O   0  0  0  0  0  0  0  0  0  0  0  0
   10.4797   16.0244  158.9106 S   0  0  2  0  0  6  0  0  0  0  0  0
   12.7040    6.5646  165.7607 Cl  0  0  0  0  0  0  0  0  0  0  0  0
 27  1  1  1
 22  2  2  0
  2 26  1  0
  4  3  1  0
  3 27  1  0
  4  5  2  0
  9  4  1  0
  5  6  1  0
  7  6  2  0
  8  7  1  0
  9  8  2  0
 28  9  1  0
 10 19  1  0
 28 10  1  0
 11 13  2  0
 11 17  1  0
 33 11  1  0
 12 20  1  0
 27 12  1  0
 13 14  1  0
 14 15  2  0
 16 15  1  0
 15 31  1  0
 17 16  2  0
 31 18  1  0
 19 29  1  0
 20 21  1  0
 21 22  1  0
 22 23  1  0
 23 24  2  0
 24 25  1  0
 26 25  2  0
 25 34  1  0
 33 28  1  6
 33 30  2  0
 33 32  2  0
M  CHG  1  27   1
M  END
$$$$
