
     RDKit          3D

 34 36  0  0  0  0  0  0  0  0999 V2000
   11.6466   11.9162  159.0375 C   0  0  0  0  0  0  0  0  0  0  0  0
    5.8284   12.4047  158.8229 C   0  0  0  0  0  0  0  0  0  0  0  0
   10.5094   13.8290  158.2101 C   0  0  0  0  0  0  0  0  0  0  0  0
   10.6784   14.2857  159.5911 C   0  0  0  0  0  0  0  0  0  0  0  0
   10.5539   15.6744  159.7947 C   0  0  0  0  0  0  0  0  0  0  0  0
   10.6782   16.2490  161.0249 C   0  0  0  0  0  0  0  0  0  0  0  0
   10.9363   15.4121  162.0986 C   0  0  0  0  0  0  0  0  0  0  0  0
   11.0598   14.0648  161.9209 C   0  0  0  0  0  0  0  0  0  0  0  0
   10.9318   13.4760  160.6479 C   0  0  0  0  0  0  0  0  0  0  0  0
   12.0359   11.4493  159.6705 C   0  0  0  0  0  0  0  0  0  0  0  0
   10.9782   10.1787  162.8260 C   0  0  0  0  0  0  0  0  0  0  0  0
   10.0055   11.6800  157.3144 C   0  0  0  0  0  0  0  0  0  0  0  0
   11.4161    8.8783  162.7122 C   0  0  0  0  0  0  0  0  0  0  0  0
   12.0669    8.2961  163.7646 C   0  0  0  0  0  0  0  0  0  0  0  0
   12.3064    8.9590  164.9459 C   0  0  0  0  0  0  0  0  0  0  0  0
   11.8812   10.2579  165.0905 C   0  0  0  0  0  0  0  0  0  0  0  0
   11.2322   10.8424  164.0448 C   0  0  0  0  0  0  0  0  0  0  0  0
   12.4910    8.4621  167.3467 C   0  0  0  0  0  0  0  0  0  0  0  0
   12.0277    9.9624  159.5854 C   0  0  0  0  0  0  0  0  0  0  0  0
    8.6251   12.1454  157.6181 C   0  0  0  0  0  0  0  0  0  0  0  0
    7.7278   10.9898  157.9438 C   0  0  0  0  0  0  0  0  0  0  0  0
    6.3234   11.4824  157.9054 C   0  0  0  0  0  0  0  0  0  0  0  0
    5.4699   11.0187  156.9353 C   0  0  0  0  0  0  0  0  0  0  0  0
    4.1520   11.4355  156.8452 C   0  0  0  0  0  0  0  0  0  0  0  0
    3.7167   12.3536  157.7852 C   0  0  0  0  0  0  0  0  0  0  0  0
    4.5251   12.8453  158.7691 C   0  0  0  0  0  0  0  0  0  0  0  0
   11.0608   12.5424  157.8739 N   0  0  2  0  0  4  0  0  0  0  0  0
   11.0626   12.0363  160.5979 N   0  0  0  0  0  0  0  0  0  0  0  0
   12.0965    9.5175  158.2978 O   0  0  0  0  0  0  0  0  0  0  0  0
    8.9711   11.7070  162.2093 O   0  0  0  0  0  0  0  0  0  0  0  0
   12.9661    8.3704  166.0134 O   0  0  0  0  0  0  0  0  0  0  0  0
    9.5815    9.9155  160.6153 O   0  0  0  0  0  0  0  0  0  0  0  0
   10.1435   10.9712  161.5461 S   0  0  2  0  0  6  0  0  0  0  0  0
    2.0594   12.9050  157.7063 Cl  0  0  0  0  0  0  0  0  0  0  0  0
 27  1  1  1
 22  2  2  0
  2 26  1  0
  4  3  1  0
  3 27  1  0
  4  5  2  0
  9  4  1  0
  5  6  1  0
  7  6  2  0
  8  7  1  0
  9  8  2  0
 28  9  1  0
 10 19  1  0
 28 10  1  0
 11 13  2  0
 11 17  1  0
 33 11  1  0
 12 20  1  0
 27 12  1  0
 13 14  1  0
 14 15  2  0
 16 15  1  0
 15 31  1  0
 17 16  2  0
 31 18  1  0
 19 29  1  0
 20 21  1  0
 21 22  1  0
 22 23  1  0
 23 24  2  0
 24 25  1  0
 26 25  2  0
 25 34  1  0
 33 28  1  6
 33 30  2  0
 33 32  2  0
M  CHG  1  27   1
M  END
$$$$
