
     RDKit          3D

 34 36  0  0  0  0  0  0  0  0999 V2000
    8.8951   13.8561  163.3827 C   0  0  0  0  0  0  0  0  0  0  0  0
   12.3949    9.4142  162.8266 C   0  0  0  0  0  0  0  0  0  0  0  0
    9.7660   13.7528  161.1765 C   0  0  0  0  0  0  0  0  0  0  0  0
    8.5847   12.9479  160.8590 C   0  0  0  0  0  0  0  0  0  0  0  0
    7.3829   13.3606  161.4678 C   0  0  0  0  0  0  0  0  0  0  0  0
    6.1987   12.7164  161.2634 C   0  0  0  0  0  0  0  0  0  0  0  0
    6.2057   11.6172  160.4198 C   0  0  0  0  0  0  0  0  0  0  0  0
    7.3599   11.2030  159.8211 C   0  0  0  0  0  0  0  0  0  0  0  0
    8.5810   11.8710  160.0363 C   0  0  0  0  0  0  0  0  0  0  0  0
   10.4037   10.1596  159.8614 C   0  0  0  0  0  0  0  0  0  0  0  0
   11.3681   13.4014  158.1012 C   0  0  0  0  0  0  0  0  0  0  0  0
   11.0423   12.8804  162.9889 C   0  0  0  0  0  0  0  0  0  0  0  0
   10.8676   14.6840  158.0930 C   0  0  0  0  0  0  0  0  0  0  0  0
   11.7246   15.7384  158.2465 C   0  0  0  0  0  0  0  0  0  0  0  0
   13.0805   15.5734  158.4104 C   0  0  0  0  0  0  0  0  0  0  0  0
   13.6106   14.3054  158.4225 C   0  0  0  0  0  0  0  0  0  0  0  0
   12.7607   13.2515  158.2698 C   0  0  0  0  0  0  0  0  0  0  0  0
   14.4890   17.3523  157.4637 C   0  0  0  0  0  0  0  0  0  0  0  0
   10.5548    9.0217  158.9126 C   0  0  0  0  0  0  0  0  0  0  0  0
   12.3974   13.0318  162.3929 C   0  0  0  0  0  0  0  0  0  0  0  0
   12.9271   11.7116  161.9204 C   0  0  0  0  0  0  0  0  0  0  0  0
   12.7737   10.7371  163.0355 C   0  0  0  0  0  0  0  0  0  0  0  0
   13.0097   11.1425  164.3257 C   0  0  0  0  0  0  0  0  0  0  0  0
   12.8836   10.2866  165.4075 C   0  0  0  0  0  0  0  0  0  0  0  0
   12.5041    8.9831  165.1376 C   0  0  0  0  0  0  0  0  0  0  0  0
   12.2579    8.5306  163.8735 C   0  0  0  0  0  0  0  0  0  0  0  0
   10.0882   13.9216  162.5694 N   0  0  2  0  0  4  0  0  0  0  0  0
    9.7263   11.3455  159.3259 N   0  0  0  0  0  0  0  0  0  0  0  0
   10.1874    7.8318  159.4690 O   0  0  0  0  0  0  0  0  0  0  0  0
   11.1859   11.0004  157.1283 O   0  0  0  0  0  0  0  0  0  0  0  0
   13.9505   16.6411  158.5663 O   0  0  0  0  0  0  0  0  0  0  0  0
    9.1670   12.4287  157.0444 O   0  0  0  0  0  0  0  0  0  0  0  0
   10.3496   12.0279  157.9032 S   0  0  2  0  0  6  0  0  0  0  0  0
   12.3331    7.8709  166.4758 Cl  0  0  0  0  0  0  0  0  0  0  0  0
 27  1  1  1
 22  2  2  0
  2 26  1  0
  4  3  1  0
  3 27  1  0
  4  5  2  0
  9  4  1  0
  5  6  1  0
  7  6  2  0
  8  7  1  0
  9  8  2  0
 28  9  1  0
 10 19  1  0
 28 10  1  0
 11 13  2  0
 11 17  1  0
 33 11  1  0
 12 20  1  0
 27 12  1  0
 13 14  1  0
 14 15  2  0
 16 15  1  0
 15 31  1  0
 17 16  2  0
 31 18  1  0
 19 29  1  0
 20 21  1  0
 21 22  1  0
 22 23  1  0
 23 24  2  0
 24 25  1  0
 26 25  2  0
 25 34  1  0
 33 28  1  1
 33 30  2  0
 33 32  2  0
M  CHG  1  27   1
M  END
$$$$
