
     RDKit          3D

 34 36  0  0  0  0  0  0  0  0999 V2000
    9.5189   13.7468  159.5076 C   0  0  0  0  0  0  0  0  0  0  0  0
   10.6455    8.7830  163.3672 C   0  0  0  0  0  0  0  0  0  0  0  0
   11.1161   14.8998  160.8327 C   0  0  0  0  0  0  0  0  0  0  0  0
   10.2778   16.0355  161.2220 C   0  0  0  0  0  0  0  0  0  0  0  0
    9.3642   15.7906  162.2664 C   0  0  0  0  0  0  0  0  0  0  0  0
    8.5219   16.7507  162.7437 C   0  0  0  0  0  0  0  0  0  0  0  0
    8.5881   18.0065  162.1619 C   0  0  0  0  0  0  0  0  0  0  0  0
    9.4667   18.2624  161.1496 C   0  0  0  0  0  0  0  0  0  0  0  0
   10.3339   17.2669  160.6590 C   0  0  0  0  0  0  0  0  0  0  0  0
   11.0357   17.1117  158.2579 C   0  0  0  0  0  0  0  0  0  0  0  0
   12.1332   20.4298  159.6685 C   0  0  0  0  0  0  0  0  0  0  0  0
   11.4501   12.5968  160.3235 C   0  0  0  0  0  0  0  0  0  0  0  0
   12.5006   21.1656  158.5644 C   0  0  0  0  0  0  0  0  0  0  0  0
   12.1762   22.4928  158.5056 C   0  0  0  0  0  0  0  0  0  0  0  0
   11.4914   23.1334  159.5122 C   0  0  0  0  0  0  0  0  0  0  0  0
   11.1113   22.4261  160.6276 C   0  0  0  0  0  0  0  0  0  0  0  0
   11.4323   21.1035  160.6909 C   0  0  0  0  0  0  0  0  0  0  0  0
    9.9209   24.9795  159.9243 C   0  0  0  0  0  0  0  0  0  0  0  0
   12.1223   16.2181  157.7694 C   0  0  0  0  0  0  0  0  0  0  0  0
   11.8505   11.8084  161.5204 C   0  0  0  0  0  0  0  0  0  0  0  0
   11.1080   10.5077  161.5800 C   0  0  0  0  0  0  0  0  0  0  0  0
   11.2606    9.9623  162.9569 C   0  0  0  0  0  0  0  0  0  0  0  0
   12.0328   10.6364  163.8701 C   0  0  0  0  0  0  0  0  0  0  0  0
   12.2143   10.1838  165.1666 C   0  0  0  0  0  0  0  0  0  0  0  0
   11.5778    9.0055  165.5166 C   0  0  0  0  0  0  0  0  0  0  0  0
   10.7996    8.2980  164.6465 C   0  0  0  0  0  0  0  0  0  0  0  0
   10.4519   13.6427  160.6066 N   0  0  2  0  0  4  0  0  0  0  0  0
   11.2313   17.6723  159.5993 N   0  0  0  0  0  0  0  0  0  0  0  0
   11.8349   15.6710  156.5534 O   0  0  0  0  0  0  0  0  0  0  0  0
   13.1382   18.5960  161.2086 O   0  0  0  0  0  0  0  0  0  0  0  0
   11.1617   24.4784  159.4541 O   0  0  0  0  0  0  0  0  0  0  0  0
   13.5689   18.4162  158.7785 O   0  0  0  0  0  0  0  0  0  0  0  0
   12.5169   18.7581  159.8145 S   0  0  2  0  0  6  0  0  0  0  0  0
   11.7810    8.4003  167.1444 Cl  0  0  0  0  0  0  0  0  0  0  0  0
 27  1  1  6
 22  2  2  0
  2 26  1  0
  4  3  1  0
  3 27  1  0
  4  5  2  0
  9  4  1  0
  5  6  1  0
  7  6  2  0
  8  7  1  0
  9  8  2  0
 28  9  1  0
 10 19  1  0
 28 10  1  0
 11 13  2  0
 11 17  1  0
 33 11  1  0
 12 20  1  0
 27 12  1  0
 13 14  1  0
 14 15  2  0
 16 15  1  0
 15 31  1  0
 17 16  2  0
 31 18  1  0
 19 29  1  0
 20 21  1  0
 21 22  1  0
 22 23  1  0
 23 24  2  0
 24 25  1  0
 26 25  2  0
 25 34  1  0
 33 28  1  1
 33 30  2  0
 33 32  2  0
M  CHG  1  27   1
M  END
$$$$
