
     RDKit          3D

 34 36  0  0  0  0  0  0  0  0999 V2000
   13.0532   10.4958  157.1225 C   0  0  0  0  0  0  0  0  0  0  0  0
   12.7939   16.6597  158.3136 C   0  0  0  0  0  0  0  0  0  0  0  0
   11.2924   12.0672  157.3807 C   0  0  0  0  0  0  0  0  0  0  0  0
   10.3817   11.1463  158.0637 C   0  0  0  0  0  0  0  0  0  0  0  0
   10.2291    9.8808  157.4633 C   0  0  0  0  0  0  0  0  0  0  0  0
    9.4215    8.9142  157.9855 C   0  0  0  0  0  0  0  0  0  0  0  0
    8.7366    9.2143  159.1520 C   0  0  0  0  0  0  0  0  0  0  0  0
    8.8721   10.4344  159.7480 C   0  0  0  0  0  0  0  0  0  0  0  0
    9.7065   11.4301  159.2040 C   0  0  0  0  0  0  0  0  0  0  0  0
   10.1018   13.9050  159.2183 C   0  0  0  0  0  0  0  0  0  0  0  0
   10.6648   11.9791  162.6191 C   0  0  0  0  0  0  0  0  0  0  0  0
   13.4650   12.8235  156.7621 C   0  0  0  0  0  0  0  0  0  0  0  0
   11.8130   12.5974  163.0606 C   0  0  0  0  0  0  0  0  0  0  0  0
   12.6878   11.9019  163.8486 C   0  0  0  0  0  0  0  0  0  0  0  0
   12.4698   10.5967  164.2243 C   0  0  0  0  0  0  0  0  0  0  0  0
   11.3330    9.9517  163.7993 C   0  0  0  0  0  0  0  0  0  0  0  0
   10.4583   10.6405  163.0139 C   0  0  0  0  0  0  0  0  0  0  0  0
   12.9265    9.0897  166.1125 C   0  0  0  0  0  0  0  0  0  0  0  0
    9.4306   15.1378  159.7162 C   0  0  0  0  0  0  0  0  0  0  0  0
   13.3204   14.2196  157.2567 C   0  0  0  0  0  0  0  0  0  0  0  0
   13.5931   14.2992  158.7284 C   0  0  0  0  0  0  0  0  0  0  0  0
   13.1791   15.6517  159.1929 C   0  0  0  0  0  0  0  0  0  0  0  0
   13.1723   15.9331  160.5365 C   0  0  0  0  0  0  0  0  0  0  0  0
   12.7994   17.1710  161.0339 C   0  0  0  0  0  0  0  0  0  0  0  0
   12.4265   18.1333  160.1115 C   0  0  0  0  0  0  0  0  0  0  0  0
   12.4161   17.9040  158.7658 C   0  0  0  0  0  0  0  0  0  0  0  0
   12.7035   11.8336  157.5436 N   0  0  2  0  0  4  0  0  0  0  0  0
    9.7796   12.6712  159.9434 N   0  0  0  0  0  0  0  0  0  0  0  0
    8.2369   15.3634  159.0960 O   0  0  0  0  0  0  0  0  0  0  0  0
    9.5466   14.2571  162.0671 O   0  0  0  0  0  0  0  0  0  0  0  0
   13.3554    9.8903  165.0231 O   0  0  0  0  0  0  0  0  0  0  0  0
    8.1485   12.2223  161.9003 O   0  0  0  0  0  0  0  0  0  0  0  0
    9.5246   12.7901  161.6165 S   0  0  2  0  0  6  0  0  0  0  0  0
   11.9492   19.7096  160.6984 Cl  0  0  0  0  0  0  0  0  0  0  0  0
 27  1  1  6
 22  2  2  0
  2 26  1  0
  4  3  1  0
  3 27  1  0
  4  5  2  0
  9  4  1  0
  5  6  1  0
  7  6  2  0
  8  7  1  0
  9  8  2  0
 28  9  1  0
 10 19  1  0
 28 10  1  0
 11 13  2  0
 11 17  1  0
 33 11  1  0
 12 20  1  0
 27 12  1  0
 13 14  1  0
 14 15  2  0
 16 15  1  0
 15 31  1  0
 17 16  2  0
 31 18  1  0
 19 29  1  0
 20 21  1  0
 21 22  1  0
 22 23  1  0
 23 24  2  0
 24 25  1  0
 26 25  2  0
 25 34  1  0
 33 28  1  6
 33 30  2  0
 33 32  2  0
M  CHG  1  27   1
M  END
$$$$
