
     RDKit          3D

 34 36  0  0  0  0  0  0  0  0999 V2000
   10.3236   13.2019  158.9650 C   0  0  0  0  0  0  0  0  0  0  0  0
    7.4908    8.0226  158.3382 C   0  0  0  0  0  0  0  0  0  0  0  0
   11.1597   13.4235  161.1759 C   0  0  0  0  0  0  0  0  0  0  0  0
   10.9774   14.6341  161.9793 C   0  0  0  0  0  0  0  0  0  0  0  0
   10.1763   14.4890  163.1294 C   0  0  0  0  0  0  0  0  0  0  0  0
    9.9209   15.5234  163.9801 C   0  0  0  0  0  0  0  0  0  0  0  0
   10.4834   16.7533  163.6788 C   0  0  0  0  0  0  0  0  0  0  0  0
   11.2622   16.9128  162.5697 C   0  0  0  0  0  0  0  0  0  0  0  0
   11.5222   15.8415  161.6931 C   0  0  0  0  0  0  0  0  0  0  0  0
   13.7282   15.5589  160.5376 C   0  0  0  0  0  0  0  0  0  0  0  0
   11.6871   18.7943  159.6293 C   0  0  0  0  0  0  0  0  0  0  0  0
    9.7579   11.5776  160.6262 C   0  0  0  0  0  0  0  0  0  0  0  0
   12.7042   19.7152  159.5143 C   0  0  0  0  0  0  0  0  0  0  0  0
   12.4602   21.0248  159.8232 C   0  0  0  0  0  0  0  0  0  0  0  0
   11.2298   21.4687  160.2491 C   0  0  0  0  0  0  0  0  0  0  0  0
   10.1944   20.5736  160.3745 C   0  0  0  0  0  0  0  0  0  0  0  0
   10.4326   19.2676  160.0680 C   0  0  0  0  0  0  0  0  0  0  0  0
    9.8105   23.4730  160.1341 C   0  0  0  0  0  0  0  0  0  0  0  0
   13.8704   14.2957  159.7616 C   0  0  0  0  0  0  0  0  0  0  0  0
    8.4047   11.1479  160.1803 C   0  0  0  0  0  0  0  0  0  0  0  0
    8.4934   10.2498  158.9836 C   0  0  0  0  0  0  0  0  0  0  0  0
    7.5568    9.1131  159.2005 C   0  0  0  0  0  0  0  0  0  0  0  0
    6.7180    9.1253  160.2873 C   0  0  0  0  0  0  0  0  0  0  0  0
    5.8227    8.1003  160.5455 C   0  0  0  0  0  0  0  0  0  0  0  0
    5.8025    7.0427  159.6528 C   0  0  0  0  0  0  0  0  0  0  0  0
    6.6155    6.9828  158.5579 C   0  0  0  0  0  0  0  0  0  0  0  0
   10.0456   12.9994  160.3689 N   0  0  2  0  0  4  0  0  0  0  0  0
   12.3801   16.1365  160.5664 N   0  0  0  0  0  0  0  0  0  0  0  0
   14.9941   13.6022  160.1034 O   0  0  0  0  0  0  0  0  0  0  0  0
   12.9859   17.0930  158.1586 O   0  0  0  0  0  0  0  0  0  0  0  0
   10.9808   22.7957  160.5624 O   0  0  0  0  0  0  0  0  0  0  0  0
   10.6312   16.5698  158.7103 O   0  0  0  0  0  0  0  0  0  0  0  0
   11.9252   17.1284  159.2674 S   0  0  2  0  0  6  0  0  0  0  0  0
    4.6862    5.7287  159.9428 Cl  0  0  0  0  0  0  0  0  0  0  0  0
 27  1  1  6
 22  2  2  0
  2 26  1  0
  4  3  1  0
  3 27  1  0
  4  5  2  0
  9  4  1  0
  5  6  1  0
  7  6  2  0
  8  7  1  0
  9  8  2  0
 28  9  1  0
 10 19  1  0
 28 10  1  0
 11 13  2  0
 11 17  1  0
 33 11  1  0
 12 20  1  0
 27 12  1  0
 13 14  1  0
 14 15  2  0
 16 15  1  0
 15 31  1  0
 17 16  2  0
 31 18  1  0
 19 29  1  0
 20 21  1  0
 21 22  1  0
 22 23  1  0
 23 24  2  0
 24 25  1  0
 26 25  2  0
 25 34  1  0
 33 28  1  1
 33 30  2  0
 33 32  2  0
M  CHG  1  27   1
M  END
$$$$
