
     RDKit          3D

 34 36  0  0  0  0  0  0  0  0999 V2000
   14.2312   10.9556  161.9318 C   0  0  0  0  0  0  0  0  0  0  0  0
   13.3623   15.2163  156.8195 C   0  0  0  0  0  0  0  0  0  0  0  0
   12.4362    9.9583  160.7402 C   0  0  0  0  0  0  0  0  0  0  0  0
   11.7347    9.5412  161.9559 C   0  0  0  0  0  0  0  0  0  0  0  0
   12.4990    8.7987  162.8779 C   0  0  0  0  0  0  0  0  0  0  0  0
   11.9875    8.3463  164.0580 C   0  0  0  0  0  0  0  0  0  0  0  0
   10.6629    8.6426  164.3365 C   0  0  0  0  0  0  0  0  0  0  0  0
    9.9072    9.3607  163.4560 C   0  0  0  0  0  0  0  0  0  0  0  0
   10.4398    9.8248  162.2375 C   0  0  0  0  0  0  0  0  0  0  0  0
    8.7038    9.8822  160.4306 C   0  0  0  0  0  0  0  0  0  0  0  0
   10.2346   13.0630  162.7589 C   0  0  0  0  0  0  0  0  0  0  0  0
   14.0217   11.3012  159.5750 C   0  0  0  0  0  0  0  0  0  0  0  0
    9.9962   12.7440  164.0770 C   0  0  0  0  0  0  0  0  0  0  0  0
   10.6813   13.4030  165.0600 C   0  0  0  0  0  0  0  0  0  0  0  0
   11.6086   14.3820  164.7882 C   0  0  0  0  0  0  0  0  0  0  0  0
   11.8684   14.7232  163.4824 C   0  0  0  0  0  0  0  0  0  0  0  0
   11.1883   14.0696  162.4993 C   0  0  0  0  0  0  0  0  0  0  0  0
   12.3554   16.4661  165.8574 C   0  0  0  0  0  0  0  0  0  0  0  0
    9.3608    9.5518  159.1355 C   0  0  0  0  0  0  0  0  0  0  0  0
   13.2532   12.0574  158.5493 C   0  0  0  0  0  0  0  0  0  0  0  0
   13.4626   13.5338  158.7014 C   0  0  0  0  0  0  0  0  0  0  0  0
   12.7660   14.2084  157.5717 C   0  0  0  0  0  0  0  0  0  0  0  0
   11.4854   13.8353  157.2468 C   0  0  0  0  0  0  0  0  0  0  0  0
   10.7816   14.4237  156.2088 C   0  0  0  0  0  0  0  0  0  0  0  0
   11.4264   15.4201  155.4967 C   0  0  0  0  0  0  0  0  0  0  0  0
   12.6983   15.8274  155.7797 C   0  0  0  0  0  0  0  0  0  0  0  0
   13.2944   11.1097  160.8419 N   0  0  2  0  0  4  0  0  0  0  0  0
    9.5414   10.5925  161.4031 N   0  0  0  0  0  0  0  0  0  0  0  0
    8.5418    8.8443  158.3055 O   0  0  0  0  0  0  0  0  0  0  0  0
    9.9362   12.9237  160.1829 O   0  0  0  0  0  0  0  0  0  0  0  0
   12.3040   15.0507  165.7834 O   0  0  0  0  0  0  0  0  0  0  0  0
    7.9259   12.6041  161.5898 O   0  0  0  0  0  0  0  0  0  0  0  0
    9.4019   12.2819  161.4707 S   0  0  2  0  0  6  0  0  0  0  0  0
   10.5723   16.1886  154.1789 Cl  0  0  0  0  0  0  0  0  0  0  0  0
 27  1  1  1
 22  2  2  0
  2 26  1  0
  4  3  1  0
  3 27  1  0
  4  5  2  0
  9  4  1  0
  5  6  1  0
  7  6  2  0
  8  7  1  0
  9  8  2  0
 28  9  1  0
 10 19  1  0
 28 10  1  0
 11 13  2  0
 11 17  1  0
 33 11  1  0
 12 20  1  0
 27 12  1  0
 13 14  1  0
 14 15  2  0
 16 15  1  0
 15 31  1  0
 17 16  2  0
 31 18  1  0
 19 29  1  0
 20 21  1  0
 21 22  1  0
 22 23  1  0
 23 24  2  0
 24 25  1  0
 26 25  2  0
 25 34  1  0
 33 28  1  6
 33 30  2  0
 33 32  2  0
M  CHG  1  27   1
M  END
$$$$
