
     RDKit          3D

 34 36  0  0  0  0  0  0  0  0999 V2000
   11.0196   12.3433  161.9341 C   0  0  0  0  0  0  0  0  0  0  0  0
   11.6838    9.6911  163.7445 C   0  0  0  0  0  0  0  0  0  0  0  0
    9.3750   13.1191  160.4076 C   0  0  0  0  0  0  0  0  0  0  0  0
    8.7780   13.6735  161.6243 C   0  0  0  0  0  0  0  0  0  0  0  0
    7.9164   12.8103  162.3299 C   0  0  0  0  0  0  0  0  0  0  0  0
    7.2915   13.1805  163.4838 C   0  0  0  0  0  0  0  0  0  0  0  0
    7.5310   14.4600  163.9588 C   0  0  0  0  0  0  0  0  0  0  0  0
    8.3625   15.3099  163.2892 C   0  0  0  0  0  0  0  0  0  0  0  0
    9.0047   14.9232  162.0968 C   0  0  0  0  0  0  0  0  0  0  0  0
   11.3065   15.6024  161.3744 C   0  0  0  0  0  0  0  0  0  0  0  0
   10.5778   18.5284  160.4630 C   0  0  0  0  0  0  0  0  0  0  0  0
   10.2418   10.9115  160.1840 C   0  0  0  0  0  0  0  0  0  0  0  0
   11.2538   18.4041  159.2700 C   0  0  0  0  0  0  0  0  0  0  0  0
   12.2273   19.3111  158.9541 C   0  0  0  0  0  0  0  0  0  0  0  0
   12.5658   20.3542  159.7846 C   0  0  0  0  0  0  0  0  0  0  0  0
   11.9095   20.5047  160.9827 C   0  0  0  0  0  0  0  0  0  0  0  0
   10.9388   19.6036  161.3020 C   0  0  0  0  0  0  0  0  0  0  0  0
   14.2825   21.2182  158.2513 C   0  0  0  0  0  0  0  0  0  0  0  0
   12.2317   16.5894  161.9974 C   0  0  0  0  0  0  0  0  0  0  0  0
   10.6453    9.9034  161.2015 C   0  0  0  0  0  0  0  0  0  0  0  0
   12.1367    9.7664  161.2602 C   0  0  0  0  0  0  0  0  0  0  0  0
   12.5032    9.4034  162.6568 C   0  0  0  0  0  0  0  0  0  0  0  0
   13.6920    8.7609  162.8992 C   0  0  0  0  0  0  0  0  0  0  0  0
   14.0925    8.3971  164.1744 C   0  0  0  0  0  0  0  0  0  0  0  0
   13.2362    8.7096  165.2160 C   0  0  0  0  0  0  0  0  0  0  0  0
   12.0439    9.3471  165.0281 C   0  0  0  0  0  0  0  0  0  0  0  0
   10.5482   12.3004  160.5684 N   0  0  2  0  0  4  0  0  0  0  0  0
    9.8772   15.9088  161.4969 N   0  0  0  0  0  0  0  0  0  0  0  0
   12.7266   16.1527  163.1911 O   0  0  0  0  0  0  0  0  0  0  0  0
    8.4504   17.2513  159.6965 O   0  0  0  0  0  0  0  0  0  0  0  0
   13.5521   21.2744  159.4658 O   0  0  0  0  0  0  0  0  0  0  0  0
    8.5287   18.0491  162.0375 O   0  0  0  0  0  0  0  0  0  0  0  0
    9.3483   17.4179  160.9301 S   0  0  2  0  0  6  0  0  0  0  0  0
   13.7051    8.2677  166.8414 Cl  0  0  0  0  0  0  0  0  0  0  0  0
 27  1  1  1
 22  2  2  0
  2 26  1  0
  4  3  1  0
  3 27  1  0
  4  5  2  0
  9  4  1  0
  5  6  1  0
  7  6  2  0
  8  7  1  0
  9  8  2  0
 28  9  1  0
 10 19  1  0
 28 10  1  0
 11 13  2  0
 11 17  1  0
 33 11  1  0
 12 20  1  0
 27 12  1  0
 13 14  1  0
 14 15  2  0
 16 15  1  0
 15 31  1  0
 17 16  2  0
 31 18  1  0
 19 29  1  0
 20 21  1  0
 21 22  1  0
 22 23  1  0
 23 24  2  0
 24 25  1  0
 26 25  2  0
 25 34  1  0
 33 28  1  1
 33 30  2  0
 33 32  2  0
M  CHG  1  27   1
M  END
$$$$
