
     RDKit          3D

 34 36  0  0  0  0  0  0  0  0999 V2000
   14.8911   13.0202  158.8745 C   0  0  0  0  0  0  0  0  0  0  0  0
    9.4561   16.7107  155.6647 C   0  0  0  0  0  0  0  0  0  0  0  0
   13.0442   13.6242  160.2385 C   0  0  0  0  0  0  0  0  0  0  0  0
   12.1423   14.6538  160.7586 C   0  0  0  0  0  0  0  0  0  0  0  0
   12.7125   15.9292  160.9422 C   0  0  0  0  0  0  0  0  0  0  0  0
   11.9978   16.9910  161.4122 C   0  0  0  0  0  0  0  0  0  0  0  0
   10.6616   16.7802  161.7123 C   0  0  0  0  0  0  0  0  0  0  0  0
   10.0919   15.5522  161.5406 C   0  0  0  0  0  0  0  0  0  0  0  0
   10.8347   14.4580  161.0560 C   0  0  0  0  0  0  0  0  0  0  0  0
   10.0167   12.6191  159.5623 C   0  0  0  0  0  0  0  0  0  0  0  0
   10.2414   11.1554  162.9370 C   0  0  0  0  0  0  0  0  0  0  0  0
   12.9191   13.9370  157.8803 C   0  0  0  0  0  0  0  0  0  0  0  0
   10.2915    9.8787  162.4238 C   0  0  0  0  0  0  0  0  0  0  0  0
   11.0191    8.9225  163.0767 C   0  0  0  0  0  0  0  0  0  0  0  0
   11.7113    9.1817  164.2369 C   0  0  0  0  0  0  0  0  0  0  0  0
   11.6804   10.4463  164.7743 C   0  0  0  0  0  0  0  0  0  0  0  0
   10.9567   11.4025  164.1276 C   0  0  0  0  0  0  0  0  0  0  0  0
   12.3053    6.8286  164.6304 C   0  0  0  0  0  0  0  0  0  0  0  0
    8.9914   13.2137  158.6605 C   0  0  0  0  0  0  0  0  0  0  0  0
   12.3719   15.2736  157.5216 C   0  0  0  0  0  0  0  0  0  0  0  0
   11.0190   15.1482  156.8887 C   0  0  0  0  0  0  0  0  0  0  0  0
   10.6393   16.4884  156.3632 C   0  0  0  0  0  0  0  0  0  0  0  0
   11.4775   17.5568  156.5650 C   0  0  0  0  0  0  0  0  0  0  0  0
   11.1840   18.8285  156.1010 C   0  0  0  0  0  0  0  0  0  0  0  0
    9.9933   18.9882  155.4134 C   0  0  0  0  0  0  0  0  0  0  0  0
    9.1260   17.9588  155.1864 C   0  0  0  0  0  0  0  0  0  0  0  0
   13.8022   13.9525  159.0595 N   0  0  2  0  0  4  0  0  0  0  0  0
   10.1083   13.2170  160.8988 N   0  0  0  0  0  0  0  0  0  0  0  0
    7.7779   13.3415  159.2699 O   0  0  0  0  0  0  0  0  0  0  0  0
    8.9605   13.3862  163.2932 O   0  0  0  0  0  0  0  0  0  0  0  0
   12.4494    8.2137  164.8997 O   0  0  0  0  0  0  0  0  0  0  0  0
    8.0639   11.8035  161.6157 O   0  0  0  0  0  0  0  0  0  0  0  0
    9.3375   12.4059  162.1740 S   0  0  2  0  0  6  0  0  0  0  0  0
    9.5858   20.5781  154.8107 Cl  0  0  0  0  0  0  0  0  0  0  0  0
 27  1  1  6
 22  2  2  0
  2 26  1  0
  4  3  1  0
  3 27  1  0
  4  5  2  0
  9  4  1  0
  5  6  1  0
  7  6  2  0
  8  7  1  0
  9  8  2  0
 28  9  1  0
 10 19  1  0
 28 10  1  0
 11 13  2  0
 11 17  1  0
 33 11  1  0
 12 20  1  0
 27 12  1  0
 13 14  1  0
 14 15  2  0
 16 15  1  0
 15 31  1  0
 17 16  2  0
 31 18  1  0
 19 29  1  0
 20 21  1  0
 21 22  1  0
 22 23  1  0
 23 24  2  0
 24 25  1  0
 26 25  2  0
 25 34  1  0
 33 28  1  6
 33 30  2  0
 33 32  2  0
M  CHG  1  27   1
M  END
$$$$
