
     RDKit          3D

 18 18  0  0  0  0  0  0  0  0999 V2000
   18.0866   -7.5290   13.4123 C   0  0  0  0  0  0  0  0  0  0  0  0
   17.8501   -6.1684   14.0095 C   0  0  0  0  0  0  0  0  0  0  0  0
   16.6818   -5.7602   14.2414 O   0  0  0  0  0  0  0  0  0  0  0  0
   18.9298   -5.2975   14.3327 N   0  0  0  0  0  0  0  0  0  0  0  0
   18.6871   -4.1984   15.2393 C   0  0  0  0  0  0  0  0  0  0  0  0
   17.8787   -4.3753   16.3098 C   0  0  0  0  0  0  0  0  0  0  0  0
   19.2679   -2.9816   15.0236 C   0  0  0  0  0  0  0  0  0  0  0  0
   19.0334   -1.9454   15.8861 C   0  0  0  0  0  0  0  0  0  0  0  0
   18.2106   -2.1112   16.9823 C   0  0  0  0  0  0  0  0  0  0  0  0
   17.9249   -0.7547   18.0448 Cl  0  0  0  0  0  0  0  0  0  0  0  0
   17.6217   -3.3317   17.2087 C   0  0  0  0  0  0  0  0  0  0  0  0
   16.5972   -3.6259   18.5656 S   0  0  2  0  0  6  0  0  0  0  0  0
   16.7783   -2.5128   19.5912 O   0  0  0  0  0  0  0  0  0  0  0  0
   17.0884   -4.8742   19.2822 O   0  0  0  0  0  0  0  0  0  0  0  0
   14.9356   -3.7094   18.2269 N   0  0  0  0  0  0  0  0  0  0  0  0
   14.4253   -2.5807   17.5354 C   0  0  2  0  0  0  0  0  0  0  0  0
   13.6020   -1.6219   18.3214 C   0  0  0  0  0  0  0  0  0  0  0  0
   13.6271   -3.1172   16.3405 C   0  0  0  0  0  0  0  0  0  0  0  0
  1  2  1  0
  2  3  2  0
  2  4  1  0
  4  5  1  0
  5  6  2  0
  5  7  1  0
  6 11  1  0
  7  8  2  0
  8  9  1  0
  9 10  1  0
  9 11  2  0
 11 12  1  0
 12 13  2  0
 12 14  2  0
 12 15  1  6
 15 16  1  0
 16 17  1  1
 16 18  1  0
M  END
$$$$
