
     RDKit          3D

 18 18  0  0  0  0  0  0  0  0999 V2000
   18.1611   -7.6051   13.8808 C   0  0  0  0  0  0  0  0  0  0  0  0
   17.9170   -6.1665   14.2474 C   0  0  0  0  0  0  0  0  0  0  0  0
   16.7454   -5.7261   14.3852 O   0  0  0  0  0  0  0  0  0  0  0  0
   18.9927   -5.2554   14.4507 N   0  0  0  0  0  0  0  0  0  0  0  0
   18.8075   -4.1579   15.3727 C   0  0  0  0  0  0  0  0  0  0  0  0
   17.9593   -4.2933   16.4182 C   0  0  0  0  0  0  0  0  0  0  0  0
   19.4827   -2.9842   15.1967 C   0  0  0  0  0  0  0  0  0  0  0  0
   19.3022   -1.9491   16.0735 C   0  0  0  0  0  0  0  0  0  0  0  0
   18.4398   -2.0730   17.1445 C   0  0  0  0  0  0  0  0  0  0  0  0
   18.2266   -0.7184   18.2264 Cl  0  0  0  0  0  0  0  0  0  0  0  0
   17.7561   -3.2500   17.3310 C   0  0  0  0  0  0  0  0  0  0  0  0
   16.6759   -3.4915   18.6547 S   0  0  2  0  0  6  0  0  0  0  0  0
   16.8783   -2.3866   19.6852 O   0  0  0  0  0  0  0  0  0  0  0  0
   17.0830   -4.7608   19.3870 O   0  0  0  0  0  0  0  0  0  0  0  0
   15.0239   -3.4949   18.2634 N   0  0  0  0  0  0  0  0  0  0  0  0
   14.5699   -2.3015   17.6450 C   0  0  2  0  0  0  0  0  0  0  0  0
   13.9648   -1.2696   18.5303 C   0  0  0  0  0  0  0  0  0  0  0  0
   13.5769   -2.7189   16.5531 C   0  0  0  0  0  0  0  0  0  0  0  0
  1  2  1  0
  2  3  2  0
  2  4  1  0
  4  5  1  0
  5  6  2  0
  5  7  1  0
  6 11  1  0
  7  8  2  0
  8  9  1  0
  9 10  1  0
  9 11  2  0
 11 12  1  0
 12 13  2  0
 12 14  2  0
 12 15  1  6
 15 16  1  0
 16 17  1  1
 16 18  1  0
M  END
$$$$
