
     RDKit          3D

 18 18  0  0  0  0  0  0  0  0999 V2000
   17.6663   -7.5806   13.7713 C   0  0  0  0  0  0  0  0  0  0  0  0
   17.7367   -6.2663   14.5001 C   0  0  0  0  0  0  0  0  0  0  0  0
   18.3160   -6.1772   15.6145 O   0  0  0  0  0  0  0  0  0  0  0  0
   17.1555   -5.0826   13.9619 N   0  0  0  0  0  0  0  0  0  0  0  0
   16.9937   -3.9347   14.8251 C   0  0  0  0  0  0  0  0  0  0  0  0
   17.5155   -3.9528   16.0734 C   0  0  0  0  0  0  0  0  0  0  0  0
   16.3177   -2.8310   14.3901 C   0  0  0  0  0  0  0  0  0  0  0  0
   16.1681   -1.7479   15.2129 C   0  0  0  0  0  0  0  0  0  0  0  0
   16.6949   -1.7523   16.4891 C   0  0  0  0  0  0  0  0  0  0  0  0
   16.4621   -0.3548   17.5106 Cl  0  0  0  0  0  0  0  0  0  0  0  0
   17.3773   -2.8577   16.9363 C   0  0  0  0  0  0  0  0  0  0  0  0
   18.0822   -2.9346   18.5094 S   0  0  2  0  0  6  0  0  0  0  0  0
   17.7723   -4.2871   19.1407 O   0  0  0  0  0  0  0  0  0  0  0  0
   17.3720   -1.9342   19.4082 O   0  0  0  0  0  0  0  0  0  0  0  0
   19.7684   -2.7453   18.5687 N   0  0  0  0  0  0  0  0  0  0  0  0
   20.2146   -1.4226   18.3156 C   0  0  2  0  0  0  0  0  0  0  0  0
   20.9212   -1.1825   17.0280 C   0  0  0  0  0  0  0  0  0  0  0  0
   21.1060   -1.0223   19.4979 C   0  0  0  0  0  0  0  0  0  0  0  0
  1  2  1  0
  2  3  2  0
  2  4  1  0
  4  5  1  0
  5  6  2  0
  5  7  1  0
  6 11  1  0
  7  8  2  0
  8  9  1  0
  9 10  1  0
  9 11  2  0
 11 12  1  0
 12 13  2  0
 12 14  2  0
 12 15  1  6
 15 16  1  0
 16 17  1  6
 16 18  1  0
M  END
$$$$
