
     RDKit          3D

 18 18  0  0  0  0  0  0  0  0999 V2000
   17.8696   -7.8851   14.4207 C   0  0  0  0  0  0  0  0  0  0  0  0
   17.7066   -6.4036   14.6260 C   0  0  0  0  0  0  0  0  0  0  0  0
   16.5995   -5.9198   14.9808 O   0  0  0  0  0  0  0  0  0  0  0  0
   18.7892   -5.4994   14.4287 N   0  0  0  0  0  0  0  0  0  0  0  0
   18.8909   -4.3410   15.2871 C   0  0  0  0  0  0  0  0  0  0  0  0
   17.9581   -4.1286   16.2438 C   0  0  0  0  0  0  0  0  0  0  0  0
   19.9224   -3.4585   15.1398 C   0  0  0  0  0  0  0  0  0  0  0  0
   20.0122   -2.3637   15.9559 C   0  0  0  0  0  0  0  0  0  0  0  0
   19.0675   -2.1341   16.9362 C   0  0  0  0  0  0  0  0  0  0  0  0
   19.2124   -0.7131   17.9414 Cl  0  0  0  0  0  0  0  0  0  0  0  0
   18.0260   -3.0164   17.0931 C   0  0  0  0  0  0  0  0  0  0  0  0
   16.8163   -2.8116   18.3064 S   0  0  2  0  0  6  0  0  0  0  0  0
   17.3403   -1.8837   19.3964 O   0  0  0  0  0  0  0  0  0  0  0  0
   16.6127   -4.1408   19.0170 O   0  0  0  0  0  0  0  0  0  0  0  0
   15.3451   -2.1532   17.7729 N   0  0  0  0  0  0  0  0  0  0  0  0
   15.4377   -0.8114   17.3217 C   0  0  2  0  0  0  0  0  0  0  0  0
   14.5648    0.1893   17.9936 C   0  0  0  0  0  0  0  0  0  0  0  0
   15.1648   -0.8320   15.8125 C   0  0  0  0  0  0  0  0  0  0  0  0
  1  2  1  0
  2  3  2  0
  2  4  1  0
  4  5  1  0
  5  6  2  0
  5  7  1  0
  6 11  1  0
  7  8  2  0
  8  9  1  0
  9 10  1  0
  9 11  2  0
 11 12  1  0
 12 13  2  0
 12 14  2  0
 12 15  1  6
 15 16  1  0
 16 17  1  1
 16 18  1  0
M  END
$$$$
