
     RDKit          3D

 18 18  0  0  0  0  0  0  0  0999 V2000
   18.2740   -7.7774   13.4406 C   0  0  0  0  0  0  0  0  0  0  0  0
   17.9748   -6.4229   14.0234 C   0  0  0  0  0  0  0  0  0  0  0  0
   16.8343   -6.1579   14.4865 O   0  0  0  0  0  0  0  0  0  0  0  0
   18.9620   -5.3974   14.0732 N   0  0  0  0  0  0  0  0  0  0  0  0
   18.7344   -4.2564   14.9305 C   0  0  0  0  0  0  0  0  0  0  0  0
   17.9857   -4.3940   16.0492 C   0  0  0  0  0  0  0  0  0  0  0  0
   19.2697   -3.0392   14.6200 C   0  0  0  0  0  0  0  0  0  0  0  0
   19.0498   -1.9630   15.4362 C   0  0  0  0  0  0  0  0  0  0  0  0
   18.2878   -2.0887   16.5807 C   0  0  0  0  0  0  0  0  0  0  0  0
   18.0179   -0.6831   17.5818 Cl  0  0  0  0  0  0  0  0  0  0  0  0
   17.7451   -3.3092   16.9025 C   0  0  0  0  0  0  0  0  0  0  0  0
   16.7983   -3.5535   18.3242 S   0  0  2  0  0  6  0  0  0  0  0  0
   17.7191   -3.7023   19.5299 O   0  0  0  0  0  0  0  0  0  0  0  0
   16.1046   -4.9028   18.2185 O   0  0  0  0  0  0  0  0  0  0  0  0
   15.7026   -2.3121   18.6992 N   0  0  0  0  0  0  0  0  0  0  0  0
   14.5329   -2.3060   17.8964 C   0  0  2  0  0  0  0  0  0  0  0  0
   14.2830   -1.0902   17.0754 C   0  0  0  0  0  0  0  0  0  0  0  0
   13.3497   -2.5698   18.8361 C   0  0  0  0  0  0  0  0  0  0  0  0
  1  2  1  0
  2  3  2  0
  2  4  1  0
  4  5  1  0
  5  6  2  0
  5  7  1  0
  6 11  1  0
  7  8  2  0
  8  9  1  0
  9 10  1  0
  9 11  2  0
 11 12  1  0
 12 13  2  0
 12 14  2  0
 12 15  1  1
 15 16  1  0
 16 17  1  1
 16 18  1  0
M  END
$$$$
