
     RDKit          3D

 18 18  0  0  0  0  0  0  0  0999 V2000
   17.7928   -7.5289   13.7667 C   0  0  0  0  0  0  0  0  0  0  0  0
   17.7256   -6.0944   14.2156 C   0  0  0  0  0  0  0  0  0  0  0  0
   16.6224   -5.5594   14.5021 O   0  0  0  0  0  0  0  0  0  0  0  0
   18.8976   -5.2936   14.3327 N   0  0  0  0  0  0  0  0  0  0  0  0
   18.8656   -4.1400   15.2029 C   0  0  0  0  0  0  0  0  0  0  0  0
   18.0829   -4.1513   16.3065 C   0  0  0  0  0  0  0  0  0  0  0  0
   19.6200   -3.0377   14.9194 C   0  0  0  0  0  0  0  0  0  0  0  0
   19.5845   -1.9489   15.7476 C   0  0  0  0  0  0  0  0  0  0  0  0
   18.7903   -1.9462   16.8769 C   0  0  0  0  0  0  0  0  0  0  0  0
   18.7622   -0.5265   17.8940 Cl  0  0  0  0  0  0  0  0  0  0  0  0
   18.0278   -3.0505   17.1715 C   0  0  0  0  0  0  0  0  0  0  0  0
   17.0249   -3.1339   18.5731 S   0  0  2  0  0  6  0  0  0  0  0  0
   17.8581   -2.8341   19.8140 O   0  0  0  0  0  0  0  0  0  0  0  0
   16.5791   -4.5752   18.7650 O   0  0  0  0  0  0  0  0  0  0  0  0
   15.7094   -2.0611   18.5998 N   0  0  0  0  0  0  0  0  0  0  0  0
   14.8005   -2.2279   17.5233 C   0  0  2  0  0  0  0  0  0  0  0  0
   14.8094   -1.1834   16.4632 C   0  0  0  0  0  0  0  0  0  0  0  0
   13.4017   -2.3524   18.1401 C   0  0  0  0  0  0  0  0  0  0  0  0
  1  2  1  0
  2  3  2  0
  2  4  1  0
  4  5  1  0
  5  6  2  0
  5  7  1  0
  6 11  1  0
  7  8  2  0
  8  9  1  0
  9 10  1  0
  9 11  2  0
 11 12  1  0
 12 13  2  0
 12 14  2  0
 12 15  1  6
 15 16  1  0
 16 17  1  6
 16 18  1  0
M  END
$$$$
