
     RDKit          3D

 18 18  0  0  0  0  0  0  0  0999 V2000
   18.1600   -7.8974   13.7126 C   0  0  0  0  0  0  0  0  0  0  0  0
   17.9755   -6.4562   14.1033 C   0  0  0  0  0  0  0  0  0  0  0  0
   16.8279   -5.9924   14.3339 O   0  0  0  0  0  0  0  0  0  0  0  0
   19.0829   -5.5689   14.2261 N   0  0  0  0  0  0  0  0  0  0  0  0
   18.9702   -4.4383   15.1195 C   0  0  0  0  0  0  0  0  0  0  0  0
   18.1479   -4.5075   16.1918 C   0  0  0  0  0  0  0  0  0  0  0  0
   19.6880   -3.2998   14.8895 C   0  0  0  0  0  0  0  0  0  0  0  0
   19.5762   -2.2331   15.7394 C   0  0  0  0  0  0  0  0  0  0  0  0
   18.7409   -2.2894   16.8373 C   0  0  0  0  0  0  0  0  0  0  0  0
   18.6155   -0.8963   17.8834 Cl  0  0  0  0  0  0  0  0  0  0  0  0
   18.0147   -3.4306   17.0781 C   0  0  0  0  0  0  0  0  0  0  0  0
   16.9644   -3.5878   18.4381 S   0  0  2  0  0  6  0  0  0  0  0  0
   17.2645   -2.4822   19.4437 O   0  0  0  0  0  0  0  0  0  0  0  0
   17.3183   -4.8685   19.1782 O   0  0  0  0  0  0  0  0  0  0  0  0
   15.3036   -3.4980   18.0977 N   0  0  0  0  0  0  0  0  0  0  0  0
   14.9229   -2.3504   17.3555 C   0  0  2  0  0  0  0  0  0  0  0  0
   14.4211   -1.1817   18.1281 C   0  0  0  0  0  0  0  0  0  0  0  0
   13.8717   -2.8102   16.3375 C   0  0  0  0  0  0  0  0  0  0  0  0
  1  2  1  0
  2  3  2  0
  2  4  1  0
  4  5  1  0
  5  6  2  0
  5  7  1  0
  6 11  1  0
  7  8  2  0
  8  9  1  0
  9 10  1  0
  9 11  2  0
 11 12  1  0
 12 13  2  0
 12 14  2  0
 12 15  1  6
 15 16  1  0
 16 17  1  1
 16 18  1  0
M  END
$$$$
