
     RDKit          3D

 18 18  0  0  0  0  0  0  0  0999 V2000
   18.2766   -7.1873   13.1470 C   0  0  0  0  0  0  0  0  0  0  0  0
   18.0738   -5.9498   13.9784 C   0  0  0  0  0  0  0  0  0  0  0  0
   18.8982   -5.6339   14.8762 O   0  0  0  0  0  0  0  0  0  0  0  0
   16.9510   -5.0955   13.7833 N   0  0  0  0  0  0  0  0  0  0  0  0
   16.8476   -3.8931   14.5786 C   0  0  0  0  0  0  0  0  0  0  0  0
   17.2228   -3.9118   15.8784 C   0  0  0  0  0  0  0  0  0  0  0  0
   16.3736   -2.7371   14.0276 C   0  0  0  0  0  0  0  0  0  0  0  0
   16.2781   -1.6025   14.7866 C   0  0  0  0  0  0  0  0  0  0  0  0
   16.6571   -1.6069   16.1143 C   0  0  0  0  0  0  0  0  0  0  0  0
   16.4992   -0.1400   17.0491 Cl  0  0  0  0  0  0  0  0  0  0  0  0
   17.1358   -2.7647   16.6781 C   0  0  0  0  0  0  0  0  0  0  0  0
   17.6483   -2.8480   18.3237 S   0  0  2  0  0  6  0  0  0  0  0  0
   18.1522   -4.2538   18.6296 O   0  0  0  0  0  0  0  0  0  0  0  0
   16.4297   -2.6877   19.2195 O   0  0  0  0  0  0  0  0  0  0  0  0
   18.8932   -1.7794   18.7602 N   0  0  0  0  0  0  0  0  0  0  0  0
   19.9761   -1.7424   17.8443 C   0  0  2  0  0  0  0  0  0  0  0  0
   21.0189   -2.7944   17.9879 C   0  0  0  0  0  0  0  0  0  0  0  0
   20.6041   -0.3476   17.9574 C   0  0  0  0  0  0  0  0  0  0  0  0
  1  2  1  0
  2  3  2  0
  2  4  1  0
  4  5  1  0
  5  6  2  0
  5  7  1  0
  6 11  1  0
  7  8  2  0
  8  9  1  0
  9 10  1  0
  9 11  2  0
 11 12  1  0
 12 13  2  0
 12 14  2  0
 12 15  1  1
 15 16  1  0
 16 17  1  1
 16 18  1  0
M  END
$$$$
