
     RDKit          3D

 18 18  0  0  0  0  0  0  0  0999 V2000
   17.7967   -7.3341   13.5840 C   0  0  0  0  0  0  0  0  0  0  0  0
   17.8903   -5.9596   14.1887 C   0  0  0  0  0  0  0  0  0  0  0  0
   16.8541   -5.2760   14.3996 O   0  0  0  0  0  0  0  0  0  0  0  0
   19.1440   -5.3840   14.5429 N   0  0  0  0  0  0  0  0  0  0  0  0
   19.1569   -4.2334   15.4174 C   0  0  0  0  0  0  0  0  0  0  0  0
   18.1906   -4.0888   16.3534 C   0  0  0  0  0  0  0  0  0  0  0  0
   20.1379   -3.2901   15.3061 C   0  0  0  0  0  0  0  0  0  0  0  0
   20.1437   -2.2030   16.1373 C   0  0  0  0  0  0  0  0  0  0  0  0
   19.1640   -2.0423   17.0968 C   0  0  0  0  0  0  0  0  0  0  0  0
   19.2010   -0.6289   18.1223 Cl  0  0  0  0  0  0  0  0  0  0  0  0
   18.1728   -2.9860   17.2174 C   0  0  0  0  0  0  0  0  0  0  0  0
   16.9245   -2.8688   18.4029 S   0  0  2  0  0  6  0  0  0  0  0  0
   17.5480   -2.7591   19.7897 O   0  0  0  0  0  0  0  0  0  0  0  0
   16.1663   -4.1867   18.4403 O   0  0  0  0  0  0  0  0  0  0  0  0
   15.8747   -1.5451   18.2356 N   0  0  0  0  0  0  0  0  0  0  0  0
   15.2407   -1.4617   16.9692 C   0  0  2  0  0  0  0  0  0  0  0  0
   15.8743   -0.5780   15.9531 C   0  0  0  0  0  0  0  0  0  0  0  0
   13.7922   -1.0279   17.2270 C   0  0  0  0  0  0  0  0  0  0  0  0
  1  2  1  0
  2  3  2  0
  2  4  1  0
  4  5  1  0
  5  6  2  0
  5  7  1  0
  6 11  1  0
  7  8  2  0
  8  9  1  0
  9 10  1  0
  9 11  2  0
 11 12  1  0
 12 13  2  0
 12 14  2  0
 12 15  1  6
 15 16  1  0
 16 17  1  6
 16 18  1  0
M  END
$$$$
