
     RDKit          3D

 18 18  0  0  0  0  0  0  0  0999 V2000
   17.8182   -7.5395   13.6266 C   0  0  0  0  0  0  0  0  0  0  0  0
   17.5480   -6.1629   14.1704 C   0  0  0  0  0  0  0  0  0  0  0  0
   16.4607   -5.8999   14.7485 O   0  0  0  0  0  0  0  0  0  0  0  0
   18.5037   -5.1134   14.0529 N   0  0  0  0  0  0  0  0  0  0  0  0
   18.3807   -3.9628   14.9189 C   0  0  0  0  0  0  0  0  0  0  0  0
   17.9175   -4.1171   16.1809 C   0  0  0  0  0  0  0  0  0  0  0  0
   18.7286   -2.7201   14.4729 C   0  0  0  0  0  0  0  0  0  0  0  0
   18.6092   -1.6351   15.2983 C   0  0  0  0  0  0  0  0  0  0  0  0
   18.1379   -1.7775   16.5882 C   0  0  0  0  0  0  0  0  0  0  0  0
   17.9841   -0.3614   17.5990 Cl  0  0  0  0  0  0  0  0  0  0  0  0
   17.7856   -3.0237   17.0469 C   0  0  0  0  0  0  0  0  0  0  0  0
   17.2073   -3.2885   18.6509 S   0  0  2  0  0  6  0  0  0  0  0  0
   18.1660   -2.6503   19.6497 O   0  0  0  0  0  0  0  0  0  0  0  0
   17.2896   -4.7761   18.9564 O   0  0  0  0  0  0  0  0  0  0  0  0
   15.6657   -2.6627   18.9885 N   0  0  0  0  0  0  0  0  0  0  0  0
   14.6137   -3.2889   18.2716 C   0  0  2  0  0  0  0  0  0  0  0  0
   14.1274   -2.5994   17.0457 C   0  0  0  0  0  0  0  0  0  0  0  0
   13.4618   -3.4925   19.2637 C   0  0  0  0  0  0  0  0  0  0  0  0
  1  2  1  0
  2  3  2  0
  2  4  1  0
  4  5  1  0
  5  6  2  0
  5  7  1  0
  6 11  1  0
  7  8  2  0
  8  9  1  0
  9 10  1  0
  9 11  2  0
 11 12  1  0
 12 13  2  0
 12 14  2  0
 12 15  1  6
 15 16  1  0
 16 17  1  6
 16 18  1  0
M  END
$$$$
