
     RDKit          3D

 18 18  0  0  0  0  0  0  0  0999 V2000
   19.0522   -7.7299   13.7574 C   0  0  0  0  0  0  0  0  0  0  0  0
   18.3013   -6.5787   14.3696 C   0  0  0  0  0  0  0  0  0  0  0  0
   18.5931   -5.3895   14.0758 O   0  0  0  0  0  0  0  0  0  0  0  0
   17.2408   -6.7883   15.2969 N   0  0  0  0  0  0  0  0  0  0  0  0
   16.9935   -5.7842   16.3066 C   0  0  0  0  0  0  0  0  0  0  0  0
   17.8778   -4.7754   16.4830 C   0  0  0  0  0  0  0  0  0  0  0  0
   15.8731   -5.8459   17.0847 C   0  0  0  0  0  0  0  0  0  0  0  0
   15.6456   -4.8919   18.0390 C   0  0  0  0  0  0  0  0  0  0  0  0
   16.5393   -3.8570   18.2304 C   0  0  0  0  0  0  0  0  0  0  0  0
   16.2169   -2.6733   19.4736 Cl  0  0  0  0  0  0  0  0  0  0  0  0
   17.6694   -3.7855   17.4523 C   0  0  0  0  0  0  0  0  0  0  0  0
   18.8245   -2.5141   17.6153 S   0  0  2  0  0  6  0  0  0  0  0  0
   20.0142   -2.7867   16.7020 O   0  0  0  0  0  0  0  0  0  0  0  0
   19.4124   -2.5701   19.0169 O   0  0  0  0  0  0  0  0  0  0  0  0
   18.2634   -0.9583   17.2317 N   0  0  0  0  0  0  0  0  0  0  0  0
   17.7376   -0.8365   15.9197 C   0  0  2  0  0  0  0  0  0  0  0  0
   18.7106   -0.5837   14.8224 C   0  0  0  0  0  0  0  0  0  0  0  0
   16.6832    0.2764   15.9669 C   0  0  0  0  0  0  0  0  0  0  0  0
  1  2  1  0
  2  3  2  0
  2  4  1  0
  4  5  1  0
  5  6  2  0
  5  7  1  0
  6 11  1  0
  7  8  2  0
  8  9  1  0
  9 10  1  0
  9 11  2  0
 11 12  1  0
 12 13  2  0
 12 14  2  0
 12 15  1  6
 15 16  1  0
 16 17  1  6
 16 18  1  0
M  END
$$$$
