
     RDKit          3D

 18 18  0  0  0  0  0  0  0  0999 V2000
   17.6045   -8.0382   13.8087 C   0  0  0  0  0  0  0  0  0  0  0  0
   17.6655   -6.5893   14.2097 C   0  0  0  0  0  0  0  0  0  0  0  0
   16.6189   -5.8917   14.2677 O   0  0  0  0  0  0  0  0  0  0  0  0
   18.8992   -5.9568   14.5363 N   0  0  0  0  0  0  0  0  0  0  0  0
   18.8691   -4.7304   15.3005 C   0  0  0  0  0  0  0  0  0  0  0  0
   17.8719   -4.5159   16.1895 C   0  0  0  0  0  0  0  0  0  0  0  0
   19.8404   -3.7856   15.1320 C   0  0  0  0  0  0  0  0  0  0  0  0
   19.8055   -2.6266   15.8588 C   0  0  0  0  0  0  0  0  0  0  0  0
   18.7939   -2.3941   16.7692 C   0  0  0  0  0  0  0  0  0  0  0  0
   18.7797   -0.8918   17.6601 Cl  0  0  0  0  0  0  0  0  0  0  0  0
   17.8121   -3.3387   16.9467 C   0  0  0  0  0  0  0  0  0  0  0  0
   16.5256   -3.1329   18.0781 S   0  0  2  0  0  6  0  0  0  0  0  0
   16.8967   -2.0445   19.0787 O   0  0  0  0  0  0  0  0  0  0  0  0
   16.4174   -4.3927   18.9233 O   0  0  0  0  0  0  0  0  0  0  0  0
   15.0267   -2.6922   17.4137 N   0  0  0  0  0  0  0  0  0  0  0  0
   14.9884   -1.3756   16.8866 C   0  0  2  0  0  0  0  0  0  0  0  0
   14.6439   -0.2789   17.8318 C   0  0  0  0  0  0  0  0  0  0  0  0
   14.0035   -1.3979   15.7109 C   0  0  0  0  0  0  0  0  0  0  0  0
  1  2  1  0
  2  3  2  0
  2  4  1  0
  4  5  1  0
  5  6  2  0
  5  7  1  0
  6 11  1  0
  7  8  2  0
  8  9  1  0
  9 10  1  0
  9 11  2  0
 11 12  1  0
 12 13  2  0
 12 14  2  0
 12 15  1  6
 15 16  1  0
 16 17  1  1
 16 18  1  0
M  END
$$$$
