
     RDKit          3D

 18 18  0  0  0  0  0  0  0  0999 V2000
   17.7681   -7.8070   13.8984 C   0  0  0  0  0  0  0  0  0  0  0  0
   17.7433   -6.3540   14.2880 C   0  0  0  0  0  0  0  0  0  0  0  0
   16.6550   -5.7716   14.5366 O   0  0  0  0  0  0  0  0  0  0  0  0
   18.9399   -5.5882   14.3895 N   0  0  0  0  0  0  0  0  0  0  0  0
   18.9397   -4.4083   15.2243 C   0  0  0  0  0  0  0  0  0  0  0  0
   18.1135   -4.3408   16.2936 C   0  0  0  0  0  0  0  0  0  0  0  0
   19.7679   -3.3601   14.9417 C   0  0  0  0  0  0  0  0  0  0  0  0
   19.7622   -2.2459   15.7363 C   0  0  0  0  0  0  0  0  0  0  0  0
   18.9243   -2.1631   16.8305 C   0  0  0  0  0  0  0  0  0  0  0  0
   18.9376   -0.7133   17.8045 Cl  0  0  0  0  0  0  0  0  0  0  0  0
   18.0875   -3.2125   17.1238 C   0  0  0  0  0  0  0  0  0  0  0  0
   17.0254   -3.1953   18.4836 S   0  0  2  0  0  6  0  0  0  0  0  0
   17.8377   -3.0246   19.7622 O   0  0  0  0  0  0  0  0  0  0  0  0
   16.3964   -4.5728   18.6248 O   0  0  0  0  0  0  0  0  0  0  0  0
   15.8533   -1.9670   18.4845 N   0  0  0  0  0  0  0  0  0  0  0  0
   15.1190   -1.8625   17.2751 C   0  0  2  0  0  0  0  0  0  0  0  0
   14.4157   -0.5759   17.0205 C   0  0  0  0  0  0  0  0  0  0  0  0
   14.1231   -3.0290   17.2598 C   0  0  0  0  0  0  0  0  0  0  0  0
  1  2  1  0
  2  3  2  0
  2  4  1  0
  4  5  1  0
  5  6  2  0
  5  7  1  0
  6 11  1  0
  7  8  2  0
  8  9  1  0
  9 10  1  0
  9 11  2  0
 11 12  1  0
 12 13  2  0
 12 14  2  0
 12 15  1  6
 15 16  1  0
 16 17  1  1
 16 18  1  0
M  END
$$$$
