
     RDKit          3D

 18 18  0  0  0  0  0  0  0  0999 V2000
   18.0179   -7.4325   13.7319 C   0  0  0  0  0  0  0  0  0  0  0  0
   17.8010   -6.0803   14.3550 C   0  0  0  0  0  0  0  0  0  0  0  0
   16.6617   -5.7343   14.7644 O   0  0  0  0  0  0  0  0  0  0  0  0
   18.8672   -5.1479   14.5044 N   0  0  0  0  0  0  0  0  0  0  0  0
   18.7056   -4.0519   15.4326 C   0  0  0  0  0  0  0  0  0  0  0  0
   18.0117   -4.2381   16.5791 C   0  0  0  0  0  0  0  0  0  0  0  0
   19.2484   -2.8288   15.1610 C   0  0  0  0  0  0  0  0  0  0  0  0
   19.0911   -1.7955   16.0444 C   0  0  0  0  0  0  0  0  0  0  0  0
   18.3853   -1.9709   17.2180 C   0  0  0  0  0  0  0  0  0  0  0  0
   18.1939   -0.6180   18.3060 Cl  0  0  0  0  0  0  0  0  0  0  0  0
   17.8357   -3.1978   17.5010 C   0  0  0  0  0  0  0  0  0  0  0  0
   16.9570   -3.5038   18.9541 S   0  0  2  0  0  6  0  0  0  0  0  0
   17.7944   -3.0783   20.1547 O   0  0  0  0  0  0  0  0  0  0  0  0
   16.8060   -5.0079   19.1216 O   0  0  0  0  0  0  0  0  0  0  0  0
   15.4660   -2.7039   19.0931 N   0  0  0  0  0  0  0  0  0  0  0  0
   14.4866   -3.1323   18.1604 C   0  0  2  0  0  0  0  0  0  0  0  0
   14.0393   -2.1394   17.1461 C   0  0  0  0  0  0  0  0  0  0  0  0
   13.2909   -3.6402   18.9758 C   0  0  0  0  0  0  0  0  0  0  0  0
  1  2  1  0
  2  3  2  0
  2  4  1  0
  4  5  1  0
  5  6  2  0
  5  7  1  0
  6 11  1  0
  7  8  2  0
  8  9  1  0
  9 10  1  0
  9 11  2  0
 11 12  1  0
 12 13  2  0
 12 14  2  0
 12 15  1  6
 15 16  1  0
 16 17  1  6
 16 18  1  0
M  END
$$$$
