
     RDKit          3D

 42 47  0  0  0  0  0  0  0  0999 V2000
  -19.5437  -20.8435    4.4037 C   0  0  0  0  0  0  0  0  0  0  0  0
  -19.3119  -22.2849    4.3963 C   0  0  0  0  0  0  0  0  0  0  0  0
  -18.1808  -21.9861    6.5787 C   0  0  0  0  0  0  0  0  0  0  0  0
  -18.3795  -20.6875    6.6027 C   0  0  0  0  0  0  0  0  0  0  0  0
  -17.4817  -22.6448    7.6810 C   0  0  0  0  0  0  0  0  0  0  0  0
  -17.9269  -19.8249    7.6948 C   0  0  0  0  0  0  0  0  0  0  0  0
  -16.4241  -23.4698    7.3652 C   0  0  0  0  0  0  0  0  0  0  0  0
  -15.7206  -24.1529    8.3136 C   0  0  0  0  0  0  0  0  0  0  0  0
  -16.0939  -24.0014    9.6313 C   0  0  0  0  0  0  0  0  0  0  0  0
  -17.1449  -23.1876    9.9957 C   0  0  0  0  0  0  0  0  0  0  0  0
  -17.8293  -22.5153    9.0013 C   0  0  0  0  0  0  0  0  0  0  0  0
  -16.6249  -19.7643    8.1305 C   0  0  0  0  0  0  0  0  0  0  0  0
  -16.2839  -18.9300    9.1851 C   0  0  0  0  0  0  0  0  0  0  0  0
  -17.2050  -18.1337    9.8398 C   0  0  0  0  0  0  0  0  0  0  0  0
  -18.5142  -18.1986    9.3954 C   0  0  0  0  0  0  0  0  0  0  0  0
  -18.8647  -19.0266    8.3460 C   0  0  0  0  0  0  0  0  0  0  0  0
  -16.7879  -17.2665   10.9765 C   0  0  0  0  0  0  0  0  0  0  0  0
  -14.5675  -16.5386   10.4460 C   0  0  0  0  0  0  0  0  0  0  0  0
  -13.6811  -15.5334   11.1246 C   0  0  0  0  0  0  0  0  0  0  0  0
  -14.3564  -15.1334   12.4105 C   0  0  1  0  0  0  0  0  0  0  0  0
  -14.3568  -16.3369   13.2996 C   0  0  0  0  0  0  0  0  0  0  0  0
  -15.1148  -17.4407   12.6558 C   0  0  0  0  0  0  0  0  0  0  0  0
  -13.3547  -13.6973   14.1917 C   0  0  0  0  0  0  0  0  0  0  0  0
  -13.5570  -11.7332   13.3456 C   0  0  0  0  0  0  0  0  0  0  0  0
  -14.0781  -12.6542   12.4562 C   0  0  0  0  0  0  0  0  0  0  0  0
  -13.5913  -10.4040   12.9848 C   0  0  0  0  0  0  0  0  0  0  0  0
  -14.1312   -9.9965   11.7661 C   0  0  0  0  0  0  0  0  0  0  0  0
  -14.6508  -10.8837   10.8716 C   0  0  0  0  0  0  0  0  0  0  0  0
  -14.6072  -12.2346   11.2580 C   0  0  0  0  0  0  0  0  0  0  0  0
  -15.1244  -11.3750    8.4501 C   0  0  0  0  0  0  0  0  0  0  0  0
  -15.3740  -10.7926    7.0782 C   0  0  0  0  0  0  0  0  0  0  0  0
  -16.4473  -11.6097    6.4042 C   0  0  0  0  0  0  0  0  0  0  0  0
  -19.7395  -23.0033    3.3864 C   0  0  0  0  0  0  0  0  0  0  0  0
  -18.6241  -22.8315    5.5032 N   0  0  0  0  0  0  0  0  0  0  0  0
  -19.0804  -20.0857    5.4890 N   0  0  0  0  0  0  0  0  0  0  0  0
  -15.3428  -17.3884   11.2613 N   0  0  1  0  0  4  0  0  0  0  0  0
  -13.9558  -13.9042   12.9808 N   0  0  0  0  0  0  0  0  0  0  0  0
  -13.1168  -12.4161   14.4126 N   0  0  0  0  0  0  0  0  0  0  0  0
  -15.2139  -10.5675    9.6051 N   0  0  0  0  0  0  0  0  0  0  0  0
  -14.8382  -12.5853    8.5261 O   0  0  0  0  0  0  0  0  0  0  0  0
  -13.0870  -14.6760   14.9615 O   0  0  0  0  0  0  0  0  0  0  0  0
  -20.1448  -20.2639    3.4683 O   0  0  0  0  0  0  0  0  0  0  0  0
  1  2  1  0
 35  1  1  0
  1 42  2  0
  2 33  2  0
 34  2  1  0
  4  3  2  0
  3  5  1  0
  3 34  1  0
  6  4  1  0
  4 35  1  0
  5  7  2  0
  5 11  1  0
 12  6  2  0
 16  6  1  0
  7  8  1  0
  8  9  2  0
 10  9  1  0
 11 10  2  0
 13 12  1  0
 14 13  2  0
 14 15  1  0
 17 14  1  0
 15 16  2  0
 36 17  1  1
 19 18  1  0
 18 36  1  0
 20 19  1  0
 20 21  1  0
 20 37  1  1
 21 22  1  0
 22 36  1  0
 37 23  1  0
 23 38  1  0
 23 41  2  0
 25 24  2  0
 26 24  1  0
 24 38  1  0
 29 25  1  0
 25 37  1  0
 27 26  2  0
 28 27  1  0
 28 29  2  0
 39 28  1  0
 30 31  1  0
 30 39  1  0
 30 40  2  0
 31 32  1  0
M  CHG  1  36   1
M  END
$$$$
