
     RDKit          3D

 42 47  0  0  0  0  0  0  0  0999 V2000
  -16.1441  -14.8596    5.2415 C   0  0  0  0  0  0  0  0  0  0  0  0
  -16.0928  -13.4584    4.8345 C   0  0  0  0  0  0  0  0  0  0  0  0
  -15.6796  -12.9141    7.2145 C   0  0  0  0  0  0  0  0  0  0  0  0
  -15.7229  -14.1695    7.5998 C   0  0  0  0  0  0  0  0  0  0  0  0
  -15.4377  -11.8522    8.1900 C   0  0  0  0  0  0  0  0  0  0  0  0
  -15.5446  -14.5906    8.9900 C   0  0  0  0  0  0  0  0  0  0  0  0
  -14.5200  -10.8784    7.8606 C   0  0  0  0  0  0  0  0  0  0  0  0
  -14.2000   -9.8581    8.7077 C   0  0  0  0  0  0  0  0  0  0  0  0
  -14.8266   -9.8139    9.9341 C   0  0  0  0  0  0  0  0  0  0  0  0
  -15.7511  -10.7652   10.3080 C   0  0  0  0  0  0  0  0  0  0  0  0
  -16.0439  -11.7808    9.4181 C   0  0  0  0  0  0  0  0  0  0  0  0
  -14.4595  -14.2450    9.7592 C   0  0  0  0  0  0  0  0  0  0  0  0
  -14.3608  -14.7015   11.0654 C   0  0  0  0  0  0  0  0  0  0  0  0
  -15.3193  -15.5059   11.6534 C   0  0  0  0  0  0  0  0  0  0  0  0
  -16.4101  -15.8493   10.8737 C   0  0  0  0  0  0  0  0  0  0  0  0
  -16.5180  -15.4003    9.5712 C   0  0  0  0  0  0  0  0  0  0  0  0
  -15.1570  -15.9805   13.0557 C   0  0  0  0  0  0  0  0  0  0  0  0
  -14.5537  -14.8813   15.0976 C   0  0  0  0  0  0  0  0  0  0  0  0
  -13.6906  -15.3432   16.2371 C   0  0  0  0  0  0  0  0  0  0  0  0
  -13.0409  -16.6350   15.8148 C   0  0  1  0  0  0  0  0  0  0  0  0
  -12.0976  -16.3087   14.7000 C   0  0  0  0  0  0  0  0  0  0  0  0
  -12.8477  -15.7260   13.5574 C   0  0  0  0  0  0  0  0  0  0  0  0
  -13.1241  -18.6217   17.3262 C   0  0  0  0  0  0  0  0  0  0  0  0
  -11.3432  -18.3630   18.4993 C   0  0  0  0  0  0  0  0  0  0  0  0
  -11.4358  -17.3184   17.5987 C   0  0  0  0  0  0  0  0  0  0  0  0
  -10.2599  -18.3810   19.3503 C   0  0  0  0  0  0  0  0  0  0  0  0
   -9.2877  -17.3831   19.3087 C   0  0  0  0  0  0  0  0  0  0  0  0
   -9.3550  -16.3428   18.4308 C   0  0  0  0  0  0  0  0  0  0  0  0
  -10.4675  -16.3418   17.5716 C   0  0  0  0  0  0  0  0  0  0  0  0
   -8.5121  -14.2088   17.3989 C   0  0  0  0  0  0  0  0  0  0  0  0
   -7.5885  -13.0177   17.5075 C   0  0  0  0  0  0  0  0  0  0  0  0
   -7.6047  -12.2832   16.1907 C   0  0  0  0  0  0  0  0  0  0  0  0
  -16.2636  -13.1449    3.5730 C   0  0  0  0  0  0  0  0  0  0  0  0
  -15.8577  -12.5023    5.8483 N   0  0  0  0  0  0  0  0  0  0  0  0
  -15.9612  -15.1821    6.5939 N   0  0  0  0  0  0  0  0  0  0  0  0
  -14.1390  -15.1982   13.7878 N   0  0  1  0  0  4  0  0  0  0  0  0
  -12.5611  -17.4706   16.8484 N   0  0  0  0  0  0  0  0  0  0  0  0
  -12.4086  -19.1534   18.3021 N   0  0  0  0  0  0  0  0  0  0  0  0
   -8.4126  -15.2857   18.3070 N   0  0  0  0  0  0  0  0  0  0  0  0
   -9.3596  -14.2076   16.4854 O   0  0  0  0  0  0  0  0  0  0  0  0
  -14.2124  -19.0663   16.8365 O   0  0  0  0  0  0  0  0  0  0  0  0
  -16.3467  -15.7824    4.4170 O   0  0  0  0  0  0  0  0  0  0  0  0
  1  2  1  0
 35  1  1  0
  1 42  2  0
  2 33  2  0
 34  2  1  0
  4  3  2  0
  3  5  1  0
  3 34  1  0
  6  4  1  0
  4 35  1  0
  5  7  2  0
  5 11  1  0
 12  6  2  0
 16  6  1  0
  7  8  1  0
  8  9  2  0
 10  9  1  0
 11 10  2  0
 13 12  1  0
 14 13  2  0
 14 15  1  0
 17 14  1  0
 15 16  2  0
 36 17  1  1
 19 18  1  0
 18 36  1  0
 20 19  1  0
 20 21  1  0
 20 37  1  1
 21 22  1  0
 22 36  1  0
 37 23  1  0
 23 38  1  0
 23 41  2  0
 25 24  2  0
 26 24  1  0
 24 38  1  0
 29 25  1  0
 25 37  1  0
 27 26  2  0
 28 27  1  0
 28 29  2  0
 39 28  1  0
 30 31  1  0
 30 39  1  0
 30 40  2  0
 31 32  1  0
M  CHG  1  36   1
M  END
$$$$
