
     RDKit          3D

 42 47  0  0  0  0  0  0  0  0999 V2000
  -19.5959  -16.6674    4.8578 C   0  0  0  0  0  0  0  0  0  0  0  0
  -20.2476  -15.4019    4.5332 C   0  0  0  0  0  0  0  0  0  0  0  0
  -18.8255  -14.3683    6.2770 C   0  0  0  0  0  0  0  0  0  0  0  0
  -18.2284  -15.4979    6.5834 C   0  0  0  0  0  0  0  0  0  0  0  0
  -18.4688  -13.1338    6.9745 C   0  0  0  0  0  0  0  0  0  0  0  0
  -17.1979  -15.6083    7.6166 C   0  0  0  0  0  0  0  0  0  0  0  0
  -19.4953  -12.3633    7.4758 C   0  0  0  0  0  0  0  0  0  0  0  0
  -19.2755  -11.1808    8.1196 C   0  0  0  0  0  0  0  0  0  0  0  0
  -17.9730  -10.7555    8.2660 C   0  0  0  0  0  0  0  0  0  0  0  0
  -16.9135  -11.4918    7.7813 C   0  0  0  0  0  0  0  0  0  0  0  0
  -17.1836  -12.6831    7.1355 C   0  0  0  0  0  0  0  0  0  0  0  0
  -16.1026  -14.7817    7.6938 C   0  0  0  0  0  0  0  0  0  0  0  0
  -15.1631  -14.9663    8.6977 C   0  0  0  0  0  0  0  0  0  0  0  0
  -15.2698  -15.9615    9.6513 C   0  0  0  0  0  0  0  0  0  0  0  0
  -16.3757  -16.7897    9.5685 C   0  0  0  0  0  0  0  0  0  0  0  0
  -17.3174  -16.6148    8.5723 C   0  0  0  0  0  0  0  0  0  0  0  0
  -14.2244  -16.1250   10.6994 C   0  0  0  0  0  0  0  0  0  0  0  0
  -15.6618  -15.8441   12.5958 C   0  0  0  0  0  0  0  0  0  0  0  0
  -15.4848  -16.2668   14.0264 C   0  0  0  0  0  0  0  0  0  0  0  0
  -14.0754  -16.7778   14.1736 C   0  0  1  0  0  0  0  0  0  0  0  0
  -13.1616  -15.6086   13.9819 C   0  0  0  0  0  0  0  0  0  0  0  0
  -13.3500  -15.0372   12.6233 C   0  0  0  0  0  0  0  0  0  0  0  0
  -14.3409  -18.8701   15.5116 C   0  0  0  0  0  0  0  0  0  0  0  0
  -13.0486  -18.4945   17.1859 C   0  0  0  0  0  0  0  0  0  0  0  0
  -13.0057  -17.4022   16.3397 C   0  0  0  0  0  0  0  0  0  0  0  0
  -12.2802  -18.4501   18.3285 C   0  0  0  0  0  0  0  0  0  0  0  0
  -11.4849  -17.3446   18.6258 C   0  0  0  0  0  0  0  0  0  0  0  0
  -11.4245  -16.2555   17.8088 C   0  0  0  0  0  0  0  0  0  0  0  0
  -12.2157  -16.3195   16.6487 C   0  0  0  0  0  0  0  0  0  0  0  0
   -9.7382  -14.8977   19.0902 C   0  0  0  0  0  0  0  0  0  0  0  0
   -8.9589  -13.6099   19.2239 C   0  0  0  0  0  0  0  0  0  0  0  0
   -8.1734  -13.6620   20.5100 C   0  0  0  0  0  0  0  0  0  0  0  0
  -21.1666  -15.3690    3.5988 C   0  0  0  0  0  0  0  0  0  0  0  0
  -19.8398  -14.2626    5.2631 N   0  0  0  0  0  0  0  0  0  0  0  0
  -18.6153  -16.6900    5.8601 N   0  0  0  0  0  0  0  0  0  0  0  0
  -14.5345  -15.3420   11.9139 N   0  0  1  0  0  4  0  0  0  0  0  0
  -13.8212  -17.6278   15.2735 N   0  0  0  0  0  0  0  0  0  0  0  0
  -13.8879  -19.3871   16.6405 N   0  0  0  0  0  0  0  0  0  0  0  0
  -10.6406  -15.0886   18.0209 N   0  0  0  0  0  0  0  0  0  0  0  0
   -9.5578  -15.7800   19.9514 O   0  0  0  0  0  0  0  0  0  0  0  0
  -15.1604  -19.4008   14.6938 O   0  0  0  0  0  0  0  0  0  0  0  0
  -19.8875  -17.7340    4.2665 O   0  0  0  0  0  0  0  0  0  0  0  0
  1  2  1  0
 35  1  1  0
  1 42  2  0
  2 33  2  0
 34  2  1  0
  4  3  2  0
  3  5  1  0
  3 34  1  0
  6  4  1  0
  4 35  1  0
  5  7  2  0
  5 11  1  0
 12  6  2  0
 16  6  1  0
  7  8  1  0
  8  9  2  0
 10  9  1  0
 11 10  2  0
 13 12  1  0
 14 13  2  0
 14 15  1  0
 17 14  1  0
 15 16  2  0
 36 17  1  6
 19 18  1  0
 18 36  1  0
 20 19  1  0
 20 21  1  0
 20 37  1  1
 21 22  1  0
 22 36  1  0
 37 23  1  0
 23 38  1  0
 23 41  2  0
 25 24  2  0
 26 24  1  0
 24 38  1  0
 29 25  1  0
 25 37  1  0
 27 26  2  0
 28 27  1  0
 28 29  2  0
 39 28  1  0
 30 31  1  0
 30 39  1  0
 30 40  2  0
 31 32  1  0
M  CHG  1  36   1
M  END
$$$$
