
     RDKit          3D

 42 47  0  0  0  0  0  0  0  0999 V2000
  -19.0758  -10.9196    6.2909 C   0  0  0  0  0  0  0  0  0  0  0  0
  -18.1249  -10.0129    6.9275 C   0  0  0  0  0  0  0  0  0  0  0  0
  -16.9765  -12.0287    7.7930 C   0  0  0  0  0  0  0  0  0  0  0  0
  -17.8225  -12.8603    7.2281 C   0  0  0  0  0  0  0  0  0  0  0  0
  -15.8590  -12.5400    8.5851 C   0  0  0  0  0  0  0  0  0  0  0  0
  -17.7210  -14.3153    7.3476 C   0  0  0  0  0  0  0  0  0  0  0  0
  -16.1560  -13.3310    9.6737 C   0  0  0  0  0  0  0  0  0  0  0  0
  -15.1916  -13.8376   10.4948 C   0  0  0  0  0  0  0  0  0  0  0  0
  -13.8768  -13.5382   10.2113 C   0  0  0  0  0  0  0  0  0  0  0  0
  -13.5309  -12.7513    9.1340 C   0  0  0  0  0  0  0  0  0  0  0  0
  -14.5410  -12.2594    8.3298 C   0  0  0  0  0  0  0  0  0  0  0  0
  -17.4241  -15.1489    6.2960 C   0  0  0  0  0  0  0  0  0  0  0  0
  -17.3636  -16.5207    6.4932 C   0  0  0  0  0  0  0  0  0  0  0  0
  -17.5905  -17.1127    7.7218 C   0  0  0  0  0  0  0  0  0  0  0  0
  -17.8878  -16.2675    8.7768 C   0  0  0  0  0  0  0  0  0  0  0  0
  -17.9510  -14.8995    8.5911 C   0  0  0  0  0  0  0  0  0  0  0  0
  -17.5273  -18.5927    7.8755 C   0  0  0  0  0  0  0  0  0  0  0  0
  -17.3936  -20.1462    6.0561 C   0  0  0  0  0  0  0  0  0  0  0  0
  -17.7563  -21.6024    5.9868 C   0  0  0  0  0  0  0  0  0  0  0  0
  -18.4523  -21.9547    7.2755 C   0  0  1  0  0  0  0  0  0  0  0  0
  -19.7527  -21.2146    7.2893 C   0  0  0  0  0  0  0  0  0  0  0  0
  -19.5020  -19.7511    7.2370 C   0  0  0  0  0  0  0  0  0  0  0  0
  -18.9164  -24.3753    6.8714 C   0  0  0  0  0  0  0  0  0  0  0  0
  -18.2789  -25.2651    8.7198 C   0  0  0  0  0  0  0  0  0  0  0  0
  -18.0792  -23.8993    8.7938 C   0  0  0  0  0  0  0  0  0  0  0  0
  -17.9288  -26.0239    9.8150 C   0  0  0  0  0  0  0  0  0  0  0  0
  -17.3909  -25.4399   10.9607 C   0  0  0  0  0  0  0  0  0  0  0  0
  -17.1837  -24.0965   11.0594 C   0  0  0  0  0  0  0  0  0  0  0  0
  -17.5477  -23.3395    9.9322 C   0  0  0  0  0  0  0  0  0  0  0  0
  -15.4770  -23.8021   12.8841 C   0  0  0  0  0  0  0  0  0  0  0  0
  -14.8103  -22.8590   13.8586 C   0  0  0  0  0  0  0  0  0  0  0  0
  -13.3166  -23.0156   13.7238 C   0  0  0  0  0  0  0  0  0  0  0  0
  -18.2720   -8.7179    6.7855 C   0  0  0  0  0  0  0  0  0  0  0  0
  -17.0797  -10.5991    7.6764 N   0  0  0  0  0  0  0  0  0  0  0  0
  -18.9085  -12.3027    6.4512 N   0  0  0  0  0  0  0  0  0  0  0  0
  -18.2431  -19.2908    6.7871 N   0  0  1  0  0  4  0  0  0  0  0  0
  -18.4794  -23.3229    7.6275 N   0  0  0  0  0  0  0  0  0  0  0  0
  -18.8003  -25.5256    7.5119 N   0  0  0  0  0  0  0  0  0  0  0  0
  -16.6355  -23.4110   12.1776 N   0  0  0  0  0  0  0  0  0  0  0  0
  -14.9719  -24.9302   12.7268 O   0  0  0  0  0  0  0  0  0  0  0  0
  -19.3689  -24.1889    5.6956 O   0  0  0  0  0  0  0  0  0  0  0  0
  -20.0370  -10.4975    5.6053 O   0  0  0  0  0  0  0  0  0  0  0  0
  1  2  1  0
 35  1  1  0
  1 42  2  0
  2 33  2  0
 34  2  1  0
  4  3  2  0
  3  5  1  0
  3 34  1  0
  6  4  1  0
  4 35  1  0
  5  7  2  0
  5 11  1  0
 12  6  2  0
 16  6  1  0
  7  8  1  0
  8  9  2  0
 10  9  1  0
 11 10  2  0
 13 12  1  0
 14 13  2  0
 14 15  1  0
 17 14  1  0
 15 16  2  0
 36 17  1  1
 19 18  1  0
 18 36  1  0
 20 19  1  0
 20 21  1  0
 20 37  1  6
 21 22  1  0
 22 36  1  0
 37 23  1  0
 23 38  1  0
 23 41  2  0
 25 24  2  0
 26 24  1  0
 24 38  1  0
 29 25  1  0
 25 37  1  0
 27 26  2  0
 28 27  1  0
 28 29  2  0
 39 28  1  0
 30 31  1  0
 30 39  1  0
 30 40  2  0
 31 32  1  0
M  CHG  1  36   1
M  END
$$$$
