
     RDKit          3D

 42 47  0  0  0  0  0  0  0  0999 V2000
  -16.4581  -15.0426    5.4617 C   0  0  0  0  0  0  0  0  0  0  0  0
  -16.4800  -13.6746    4.9521 C   0  0  0  0  0  0  0  0  0  0  0  0
  -15.7856  -12.9547    7.2172 C   0  0  0  0  0  0  0  0  0  0  0  0
  -15.7609  -14.1788    7.6940 C   0  0  0  0  0  0  0  0  0  0  0  0
  -15.4425  -11.8225    8.0764 C   0  0  0  0  0  0  0  0  0  0  0  0
  -15.4060  -14.4957    9.0779 C   0  0  0  0  0  0  0  0  0  0  0  0
  -16.0375  -11.7585    9.3177 C   0  0  0  0  0  0  0  0  0  0  0  0
  -15.8083  -10.7324   10.1869 C   0  0  0  0  0  0  0  0  0  0  0  0
  -14.9472   -9.7310    9.7940 C   0  0  0  0  0  0  0  0  0  0  0  0
  -14.3288   -9.7515    8.5625 C   0  0  0  0  0  0  0  0  0  0  0  0
  -14.5910  -10.8103    7.7143 C   0  0  0  0  0  0  0  0  0  0  0  0
  -16.1548  -15.3133    9.8901 C   0  0  0  0  0  0  0  0  0  0  0  0
  -15.7543  -15.5484   11.1973 C   0  0  0  0  0  0  0  0  0  0  0  0
  -14.6127  -14.9921   11.7437 C   0  0  0  0  0  0  0  0  0  0  0  0
  -13.8625  -14.1707   10.9201 C   0  0  0  0  0  0  0  0  0  0  0  0
  -14.2527  -13.9295    9.6165 C   0  0  0  0  0  0  0  0  0  0  0  0
  -14.2361  -15.2659   13.1584 C   0  0  0  0  0  0  0  0  0  0  0  0
  -12.5025  -16.8489   13.6383 C   0  0  0  0  0  0  0  0  0  0  0  0
  -12.1168  -17.5132   14.9293 C   0  0  0  0  0  0  0  0  0  0  0  0
  -13.1718  -17.1659   15.9470 C   0  0  1  0  0  0  0  0  0  0  0  0
  -14.4386  -17.8330   15.5121 C   0  0  0  0  0  0  0  0  0  0  0  0
  -14.8434  -17.3267   14.1752 C   0  0  0  0  0  0  0  0  0  0  0  0
  -13.4942  -17.9180   18.3068 C   0  0  0  0  0  0  0  0  0  0  0  0
  -11.7280  -17.1549   19.2621 C   0  0  0  0  0  0  0  0  0  0  0  0
  -11.6913  -16.8107   17.9238 C   0  0  0  0  0  0  0  0  0  0  0  0
  -10.6749  -16.7552   20.0554 C   0  0  0  0  0  0  0  0  0  0  0  0
   -9.6066  -16.0290   19.5318 C   0  0  0  0  0  0  0  0  0  0  0  0
   -9.5458  -15.6773   18.2164 C   0  0  0  0  0  0  0  0  0  0  0  0
  -10.6294  -16.0936   17.4238 C   0  0  0  0  0  0  0  0  0  0  0  0
   -8.6736  -13.7917   16.7976 C   0  0  0  0  0  0  0  0  0  0  0  0
   -7.5289  -12.8328   16.5660 C   0  0  0  0  0  0  0  0  0  0  0  0
   -7.5289  -12.4365   15.1111 C   0  0  0  0  0  0  0  0  0  0  0  0
  -16.8099  -13.4555    3.7023 C   0  0  0  0  0  0  0  0  0  0  0  0
  -16.1372  -12.6453    5.8576 N   0  0  0  0  0  0  0  0  0  0  0  0
  -16.1049  -15.2639    6.8007 N   0  0  0  0  0  0  0  0  0  0  0  0
  -13.8764  -16.6840   13.3682 N   0  0  1  0  0  4  0  0  0  0  0  0
  -12.8060  -17.2890   17.3063 N   0  0  0  0  0  0  0  0  0  0  0  0
  -12.8619  -17.8418   19.4649 N   0  0  0  0  0  0  0  0  0  0  0  0
   -8.4990  -14.9478   17.5894 N   0  0  0  0  0  0  0  0  0  0  0  0
   -9.7706  -13.5282   16.2685 O   0  0  0  0  0  0  0  0  0  0  0  0
  -14.6084  -18.4885   18.0718 O   0  0  0  0  0  0  0  0  0  0  0  0
  -16.7458  -16.0246    4.7371 O   0  0  0  0  0  0  0  0  0  0  0  0
  1  2  1  0
 35  1  1  0
  1 42  2  0
  2 33  2  0
 34  2  1  0
  4  3  2  0
  3  5  1  0
  3 34  1  0
  6  4  1  0
  4 35  1  0
  5  7  2  0
  5 11  1  0
 12  6  2  0
 16  6  1  0
  7  8  1  0
  8  9  2  0
 10  9  1  0
 11 10  2  0
 13 12  1  0
 14 13  2  0
 14 15  1  0
 17 14  1  0
 15 16  2  0
 36 17  1  1
 19 18  1  0
 18 36  1  0
 20 19  1  0
 20 21  1  0
 20 37  1  1
 21 22  1  0
 22 36  1  0
 37 23  1  0
 23 38  1  0
 23 41  2  0
 25 24  2  0
 26 24  1  0
 24 38  1  0
 29 25  1  0
 25 37  1  0
 27 26  2  0
 28 27  1  0
 28 29  2  0
 39 28  1  0
 30 31  1  0
 30 39  1  0
 30 40  2  0
 31 32  1  0
M  CHG  1  36   1
M  END
$$$$
