
     RDKit          3D

 42 47  0  0  0  0  0  0  0  0999 V2000
  -19.3453  -15.1237    5.8913 C   0  0  0  0  0  0  0  0  0  0  0  0
  -19.2557  -13.8995    5.1008 C   0  0  0  0  0  0  0  0  0  0  0  0
  -17.3377  -13.2660    6.5330 C   0  0  0  0  0  0  0  0  0  0  0  0
  -17.4031  -14.3613    7.2558 C   0  0  0  0  0  0  0  0  0  0  0  0
  -16.3141  -12.2598    6.8114 C   0  0  0  0  0  0  0  0  0  0  0  0
  -16.4914  -14.6493    8.3637 C   0  0  0  0  0  0  0  0  0  0  0  0
  -16.1901  -11.8164    8.1102 C   0  0  0  0  0  0  0  0  0  0  0  0
  -15.2863  -10.8614    8.4741 C   0  0  0  0  0  0  0  0  0  0  0  0
  -14.4749  -10.3310    7.4949 C   0  0  0  0  0  0  0  0  0  0  0  0
  -14.5624  -10.7426    6.1825 C   0  0  0  0  0  0  0  0  0  0  0  0
  -15.4926  -11.7120    5.8597 C   0  0  0  0  0  0  0  0  0  0  0  0
  -16.8979  -14.7982    9.6680 C   0  0  0  0  0  0  0  0  0  0  0  0
  -15.9640  -15.0542   10.6613 C   0  0  0  0  0  0  0  0  0  0  0  0
  -14.6104  -15.1720   10.4060 C   0  0  0  0  0  0  0  0  0  0  0  0
  -14.2078  -15.0221    9.0902 C   0  0  0  0  0  0  0  0  0  0  0  0
  -15.1298  -14.7665    8.0931 C   0  0  0  0  0  0  0  0  0  0  0  0
  -13.6482  -15.4331   11.5124 C   0  0  0  0  0  0  0  0  0  0  0  0
  -14.0350  -16.2774   13.7212 C   0  0  0  0  0  0  0  0  0  0  0  0
  -13.3274  -15.9890   15.0146 C   0  0  0  0  0  0  0  0  0  0  0  0
  -12.3682  -14.8557   14.7600 C   0  0  1  0  0  0  0  0  0  0  0  0
  -13.1911  -13.6401   14.4699 C   0  0  0  0  0  0  0  0  0  0  0  0
  -14.0274  -13.8718   13.2639 C   0  0  0  0  0  0  0  0  0  0  0  0
  -10.2625  -13.8227   15.6185 C   0  0  0  0  0  0  0  0  0  0  0  0
   -9.9023  -14.9640   17.4024 C   0  0  0  0  0  0  0  0  0  0  0  0
  -11.0587  -15.4295   16.8049 C   0  0  0  0  0  0  0  0  0  0  0  0
   -9.4962  -15.5705   18.5708 C   0  0  0  0  0  0  0  0  0  0  0  0
  -10.2226  -16.6175   19.1356 C   0  0  0  0  0  0  0  0  0  0  0  0
  -11.3656  -17.0950   18.5672 C   0  0  0  0  0  0  0  0  0  0  0  0
  -11.7631  -16.4639   17.3757 C   0  0  0  0  0  0  0  0  0  0  0  0
  -11.9343  -18.8651   20.2620 C   0  0  0  0  0  0  0  0  0  0  0  0
  -12.8757  -19.9578   20.7129 C   0  0  0  0  0  0  0  0  0  0  0  0
  -12.9486  -19.9297   22.2188 C   0  0  0  0  0  0  0  0  0  0  0  0
  -20.1048  -13.6981    4.1223 C   0  0  0  0  0  0  0  0  0  0  0  0
  -18.2363  -12.9838    5.4464 N   0  0  0  0  0  0  0  0  0  0  0  0
  -18.4322  -15.3270    6.9360 N   0  0  0  0  0  0  0  0  0  0  0  0
  -14.2573  -15.2005   12.8387 N   0  0  1  0  0  4  0  0  0  0  0  0
  -11.2985  -14.7138   15.6723 N   0  0  0  0  0  0  0  0  0  0  0  0
   -9.4342  -13.9661   16.6385 N   0  0  0  0  0  0  0  0  0  0  0  0
  -12.1769  -18.1488   19.0694 N   0  0  0  0  0  0  0  0  0  0  0  0
  -10.9422  -18.6198   20.9750 O   0  0  0  0  0  0  0  0  0  0  0  0
  -10.1746  -12.9830   14.6650 O   0  0  0  0  0  0  0  0  0  0  0  0
  -20.2146  -15.9981    5.6630 O   0  0  0  0  0  0  0  0  0  0  0  0
  1  2  1  0
 35  1  1  0
  1 42  2  0
  2 33  2  0
 34  2  1  0
  4  3  2  0
  3  5  1  0
  3 34  1  0
  6  4  1  0
  4 35  1  0
  5  7  2  0
  5 11  1  0
 12  6  2  0
 16  6  1  0
  7  8  1  0
  8  9  2  0
 10  9  1  0
 11 10  2  0
 13 12  1  0
 14 13  2  0
 14 15  1  0
 17 14  1  0
 15 16  2  0
 36 17  1  6
 19 18  1  0
 18 36  1  0
 20 19  1  0
 20 21  1  0
 20 37  1  1
 21 22  1  0
 22 36  1  0
 37 23  1  0
 23 38  1  0
 23 41  2  0
 25 24  2  0
 26 24  1  0
 24 38  1  0
 29 25  1  0
 25 37  1  0
 27 26  2  0
 28 27  1  0
 28 29  2  0
 39 28  1  0
 30 31  1  0
 30 39  1  0
 30 40  2  0
 31 32  1  0
M  CHG  1  36   1
M  END
$$$$
