
     RDKit          3D

 42 47  0  0  0  0  0  0  0  0999 V2000
  -17.2875  -13.0428    5.0803 C   0  0  0  0  0  0  0  0  0  0  0  0
  -17.0973  -11.6040    5.2390 C   0  0  0  0  0  0  0  0  0  0  0  0
  -15.9666  -12.1179    7.3811 C   0  0  0  0  0  0  0  0  0  0  0  0
  -16.1289  -13.4158    7.2561 C   0  0  0  0  0  0  0  0  0  0  0  0
  -15.2839  -11.5704    8.5524 C   0  0  0  0  0  0  0  0  0  0  0  0
  -15.6607  -14.3839    8.2486 C   0  0  0  0  0  0  0  0  0  0  0  0
  -14.7150  -10.3209    8.4347 C   0  0  0  0  0  0  0  0  0  0  0  0
  -14.0324   -9.7286    9.4566 C   0  0  0  0  0  0  0  0  0  0  0  0
  -13.9169  -10.4184   10.6438 C   0  0  0  0  0  0  0  0  0  0  0  0
  -14.4688  -11.6705   10.8088 C   0  0  0  0  0  0  0  0  0  0  0  0
  -15.1511  -12.2318    9.7464 C   0  0  0  0  0  0  0  0  0  0  0  0
  -14.7497  -15.3764    7.9765 C   0  0  0  0  0  0  0  0  0  0  0  0
  -14.3719  -16.2641    8.9733 C   0  0  0  0  0  0  0  0  0  0  0  0
  -14.8732  -16.2047   10.2603 C   0  0  0  0  0  0  0  0  0  0  0  0
  -15.7892  -15.2022   10.5280 C   0  0  0  0  0  0  0  0  0  0  0  0
  -16.1728  -14.3129    9.5422 C   0  0  0  0  0  0  0  0  0  0  0  0
  -14.4444  -17.1924   11.2893 C   0  0  0  0  0  0  0  0  0  0  0  0
  -16.6455  -18.0311   11.7292 C   0  0  0  0  0  0  0  0  0  0  0  0
  -17.0938  -19.3527   12.2850 C   0  0  0  0  0  0  0  0  0  0  0  0
  -15.8626  -20.0880   12.7463 C   0  0  1  0  0  0  0  0  0  0  0  0
  -15.3068  -19.3282   13.9094 C   0  0  0  0  0  0  0  0  0  0  0  0
  -14.9415  -17.9518   13.4860 C   0  0  0  0  0  0  0  0  0  0  0  0
  -16.1972  -22.2093   14.0216 C   0  0  0  0  0  0  0  0  0  0  0  0
  -16.0543  -23.6883   12.4702 C   0  0  0  0  0  0  0  0  0  0  0  0
  -15.8861  -22.4374   11.9063 C   0  0  0  0  0  0  0  0  0  0  0  0
  -15.9974  -24.7811   11.6332 C   0  0  0  0  0  0  0  0  0  0  0  0
  -15.7786  -24.6362   10.2643 C   0  0  0  0  0  0  0  0  0  0  0  0
  -15.6100  -23.4150    9.6833 C   0  0  0  0  0  0  0  0  0  0  0  0
  -15.6707  -22.3127   10.5536 C   0  0  0  0  0  0  0  0  0  0  0  0
  -16.0091  -22.1414    7.5507 C   0  0  0  0  0  0  0  0  0  0  0  0
  -16.1501  -22.2592    6.0508 C   0  0  0  0  0  0  0  0  0  0  0  0
  -16.5516  -20.9121    5.5048 C   0  0  0  0  0  0  0  0  0  0  0  0
  -17.5430  -10.7872    4.3153 C   0  0  0  0  0  0  0  0  0  0  0  0
  -16.4298  -11.1681    6.4058 N   0  0  0  0  0  0  0  0  0  0  0  0
  -16.8074  -13.9060    6.0758 N   0  0  0  0  0  0  0  0  0  0  0  0
  -15.5003  -17.4340   12.2948 N   0  0  1  0  0  4  0  0  0  0  0  0
  -15.9747  -21.4903   12.8798 N   0  0  0  0  0  0  0  0  0  0  0  0
  -16.2451  -23.5089   13.7855 N   0  0  0  0  0  0  0  0  0  0  0  0
  -15.3905  -23.1653    8.3011 N   0  0  0  0  0  0  0  0  0  0  0  0
  -16.4553  -21.1153    8.0991 O   0  0  0  0  0  0  0  0  0  0  0  0
  -16.3323  -21.6233   15.1443 O   0  0  0  0  0  0  0  0  0  0  0  0
  -17.8672  -13.5286    4.0803 O   0  0  0  0  0  0  0  0  0  0  0  0
  1  2  1  0
 35  1  1  0
  1 42  2  0
  2 33  2  0
 34  2  1  0
  4  3  2  0
  3  5  1  0
  3 34  1  0
  6  4  1  0
  4 35  1  0
  5  7  2  0
  5 11  1  0
 12  6  2  0
 16  6  1  0
  7  8  1  0
  8  9  2  0
 10  9  1  0
 11 10  2  0
 13 12  1  0
 14 13  2  0
 14 15  1  0
 17 14  1  0
 15 16  2  0
 36 17  1  6
 19 18  1  0
 18 36  1  0
 20 19  1  0
 20 21  1  0
 20 37  1  1
 21 22  1  0
 22 36  1  0
 37 23  1  0
 23 38  1  0
 23 41  2  0
 25 24  2  0
 26 24  1  0
 24 38  1  0
 29 25  1  0
 25 37  1  0
 27 26  2  0
 28 27  1  0
 28 29  2  0
 39 28  1  0
 30 31  1  0
 30 39  1  0
 30 40  2  0
 31 32  1  0
M  CHG  1  36   1
M  END
$$$$
