
     RDKit          3D

 42 47  0  0  0  0  0  0  0  0999 V2000
  -16.4833  -12.1550    4.4647 C   0  0  0  0  0  0  0  0  0  0  0  0
  -17.5642  -13.0147    3.9913 C   0  0  0  0  0  0  0  0  0  0  0  0
  -17.2556  -14.3304    6.0662 C   0  0  0  0  0  0  0  0  0  0  0  0
  -16.2808  -13.5684    6.5083 C   0  0  0  0  0  0  0  0  0  0  0  0
  -17.7091  -15.4767    6.8524 C   0  0  0  0  0  0  0  0  0  0  0  0
  -15.5902  -13.8017    7.7773 C   0  0  0  0  0  0  0  0  0  0  0  0
  -18.0161  -16.6360    6.1739 C   0  0  0  0  0  0  0  0  0  0  0  0
  -18.4730  -17.7550    6.8066 C   0  0  0  0  0  0  0  0  0  0  0  0
  -18.6273  -17.7077    8.1750 C   0  0  0  0  0  0  0  0  0  0  0  0
  -18.3333  -16.5708    8.8966 C   0  0  0  0  0  0  0  0  0  0  0  0
  -17.8738  -15.4610    8.2138 C   0  0  0  0  0  0  0  0  0  0  0  0
  -15.0324  -15.0064    8.1327 C   0  0  0  0  0  0  0  0  0  0  0  0
  -14.4092  -15.1465    9.3642 C   0  0  0  0  0  0  0  0  0  0  0  0
  -14.3145  -14.1141   10.2788 C   0  0  0  0  0  0  0  0  0  0  0  0
  -14.8773  -12.9033    9.9142 C   0  0  0  0  0  0  0  0  0  0  0  0
  -15.5007  -12.7531    8.6900 C   0  0  0  0  0  0  0  0  0  0  0  0
  -13.6470  -14.3226   11.5937 C   0  0  0  0  0  0  0  0  0  0  0  0
  -15.0217  -15.8051   12.8798 C   0  0  0  0  0  0  0  0  0  0  0  0
  -14.7960  -16.4197   14.2319 C   0  0  0  0  0  0  0  0  0  0  0  0
  -13.5613  -15.7836   14.8151 C   0  0  1  0  0  0  0  0  0  0  0  0
  -13.8878  -14.3464   15.0740 C   0  0  0  0  0  0  0  0  0  0  0  0
  -14.2468  -13.6721   13.7997 C   0  0  0  0  0  0  0  0  0  0  0  0
  -13.3713  -17.5768   16.5431 C   0  0  0  0  0  0  0  0  0  0  0  0
  -11.4199  -17.2028   17.3597 C   0  0  0  0  0  0  0  0  0  0  0  0
  -11.6721  -16.2706   16.3705 C   0  0  0  0  0  0  0  0  0  0  0  0
  -10.2082  -17.1330   18.0115 C   0  0  0  0  0  0  0  0  0  0  0  0
   -9.2653  -16.1586   17.6886 C   0  0  0  0  0  0  0  0  0  0  0  0
   -9.4887  -15.2285   16.7178 C   0  0  0  0  0  0  0  0  0  0  0  0
  -10.7305  -15.3157   16.0648 C   0  0  0  0  0  0  0  0  0  0  0  0
   -8.8344  -13.2660   15.2862 C   0  0  0  0  0  0  0  0  0  0  0  0
   -7.9935  -12.0163   15.1646 C   0  0  0  0  0  0  0  0  0  0  0  0
   -8.1733  -11.4569   13.7758 C   0  0  0  0  0  0  0  0  0  0  0  0
  -18.1414  -12.7547    2.8432 C   0  0  0  0  0  0  0  0  0  0  0  0
  -17.9311  -14.1008    4.8176 N   0  0  0  0  0  0  0  0  0  0  0  0
  -15.8729  -12.4442    5.6937 N   0  0  0  0  0  0  0  0  0  0  0  0
  -14.6257  -14.4650   12.6920 N   0  0  1  0  0  4  0  0  0  0  0  0
  -12.9068  -16.4970   15.8443 N   0  0  0  0  0  0  0  0  0  0  0  0
  -12.4967  -17.9981   17.4401 N   0  0  0  0  0  0  0  0  0  0  0  0
   -8.5897  -14.2046   16.3125 N   0  0  0  0  0  0  0  0  0  0  0  0
   -9.7458  -13.4383   14.4542 O   0  0  0  0  0  0  0  0  0  0  0  0
  -14.5230  -18.0632   16.3004 O   0  0  0  0  0  0  0  0  0  0  0  0
  -16.0853  -11.1661    3.8045 O   0  0  0  0  0  0  0  0  0  0  0  0
  1  2  1  0
 35  1  1  0
  1 42  2  0
  2 33  2  0
 34  2  1  0
  4  3  2  0
  3  5  1  0
  3 34  1  0
  6  4  1  0
  4 35  1  0
  5  7  2  0
  5 11  1  0
 12  6  2  0
 16  6  1  0
  7  8  1  0
  8  9  2  0
 10  9  1  0
 11 10  2  0
 13 12  1  0
 14 13  2  0
 14 15  1  0
 17 14  1  0
 15 16  2  0
 36 17  1  6
 19 18  1  0
 18 36  1  0
 20 19  1  0
 20 21  1  0
 20 37  1  1
 21 22  1  0
 22 36  1  0
 37 23  1  0
 23 38  1  0
 23 41  2  0
 25 24  2  0
 26 24  1  0
 24 38  1  0
 29 25  1  0
 25 37  1  0
 27 26  2  0
 28 27  1  0
 28 29  2  0
 39 28  1  0
 30 31  1  0
 30 39  1  0
 30 40  2  0
 31 32  1  0
M  CHG  1  36   1
M  END
$$$$
