
     RDKit          3D

 42 47  0  0  0  0  0  0  0  0999 V2000
  -18.1605  -22.8979    8.1790 C   0  0  0  0  0  0  0  0  0  0  0  0
  -19.2639  -22.8072    7.2272 C   0  0  0  0  0  0  0  0  0  0  0  0
  -18.9437  -20.3525    7.2839 C   0  0  0  0  0  0  0  0  0  0  0  0
  -17.9493  -20.4141    8.1406 C   0  0  0  0  0  0  0  0  0  0  0  0
  -19.3985  -19.0595    6.7751 C   0  0  0  0  0  0  0  0  0  0  0  0
  -17.2454  -19.2330    8.6417 C   0  0  0  0  0  0  0  0  0  0  0  0
  -20.7574  -18.8407    6.7087 C   0  0  0  0  0  0  0  0  0  0  0  0
  -21.2891  -17.6810    6.2256 C   0  0  0  0  0  0  0  0  0  0  0  0
  -20.4215  -16.7020    5.7924 C   0  0  0  0  0  0  0  0  0  0  0  0
  -19.0550  -16.8750    5.8391 C   0  0  0  0  0  0  0  0  0  0  0  0
  -18.5612  -18.0661    6.3357 C   0  0  0  0  0  0  0  0  0  0  0  0
  -17.7321  -18.4189    9.6362 C   0  0  0  0  0  0  0  0  0  0  0  0
  -17.0067  -17.3078   10.0410 C   0  0  0  0  0  0  0  0  0  0  0  0
  -15.7881  -16.9645    9.4857 C   0  0  0  0  0  0  0  0  0  0  0  0
  -15.3030  -17.7892    8.4855 C   0  0  0  0  0  0  0  0  0  0  0  0
  -16.0178  -18.8982    8.0745 C   0  0  0  0  0  0  0  0  0  0  0  0
  -15.0571  -15.7518    9.9476 C   0  0  0  0  0  0  0  0  0  0  0  0
  -15.2133  -16.2982   12.2753 C   0  0  0  0  0  0  0  0  0  0  0  0
  -14.3443  -15.8966   13.4331 C   0  0  0  0  0  0  0  0  0  0  0  0
  -13.3744  -14.8599   12.9294 C   0  0  1  0  0  0  0  0  0  0  0  0
  -14.1727  -13.6429   12.5821 C   0  0  0  0  0  0  0  0  0  0  0  0
  -15.1563  -13.9703   11.5178 C   0  0  0  0  0  0  0  0  0  0  0  0
  -11.6019  -15.5534   14.5467 C   0  0  0  0  0  0  0  0  0  0  0  0
  -10.3509  -13.8082   14.6111 C   0  0  0  0  0  0  0  0  0  0  0  0
  -11.3972  -13.5711   13.7392 C   0  0  0  0  0  0  0  0  0  0  0  0
   -9.4279  -12.8017   14.7927 C   0  0  0  0  0  0  0  0  0  0  0  0
   -9.5400  -11.5846   14.1227 C   0  0  0  0  0  0  0  0  0  0  0  0
  -10.5611  -11.3254   13.2580 C   0  0  0  0  0  0  0  0  0  0  0  0
  -11.4926  -12.3641   13.0866 C   0  0  0  0  0  0  0  0  0  0  0  0
  -10.1146   -8.8940   12.7912 C   0  0  0  0  0  0  0  0  0  0  0  0
  -10.5452   -7.6282   12.0870 C   0  0  0  0  0  0  0  0  0  0  0  0
   -9.3822   -6.6684   12.0832 C   0  0  0  0  0  0  0  0  0  0  0  0
  -19.8567  -23.9028    6.8183 C   0  0  0  0  0  0  0  0  0  0  0  0
  -19.6357  -21.5143    6.7947 N   0  0  0  0  0  0  0  0  0  0  0  0
  -17.5353  -21.7188    8.6098 N   0  0  0  0  0  0  0  0  0  0  0  0
  -15.4927  -15.3253   11.2939 N   0  0  1  0  0  4  0  0  0  0  0  0
  -12.1981  -14.6705   13.6892 N   0  0  0  0  0  0  0  0  0  0  0  0
  -10.5099  -15.0491   15.0945 N   0  0  0  0  0  0  0  0  0  0  0  0
  -10.7562  -10.1234   12.5245 N   0  0  0  0  0  0  0  0  0  0  0  0
   -9.1793   -8.8155   13.6108 O   0  0  0  0  0  0  0  0  0  0  0  0
  -12.1007  -16.7088   14.7425 O   0  0  0  0  0  0  0  0  0  0  0  0
  -17.7559  -23.9990    8.6219 O   0  0  0  0  0  0  0  0  0  0  0  0
  1  2  1  0
 35  1  1  0
  1 42  2  0
  2 33  2  0
 34  2  1  0
  4  3  2  0
  3  5  1  0
  3 34  1  0
  6  4  1  0
  4 35  1  0
  5  7  2  0
  5 11  1  0
 12  6  2  0
 16  6  1  0
  7  8  1  0
  8  9  2  0
 10  9  1  0
 11 10  2  0
 13 12  1  0
 14 13  2  0
 14 15  1  0
 17 14  1  0
 15 16  2  0
 36 17  1  6
 19 18  1  0
 18 36  1  0
 20 19  1  0
 20 21  1  0
 20 37  1  1
 21 22  1  0
 22 36  1  0
 37 23  1  0
 23 38  1  0
 23 41  2  0
 25 24  2  0
 26 24  1  0
 24 38  1  0
 29 25  1  0
 25 37  1  0
 27 26  2  0
 28 27  1  0
 28 29  2  0
 39 28  1  0
 30 31  1  0
 30 39  1  0
 30 40  2  0
 31 32  1  0
M  CHG  1  36   1
M  END
$$$$
