
     RDKit          3D

 42 47  0  0  0  0  0  0  0  0999 V2000
  -16.7757  -11.8152    6.0593 C   0  0  0  0  0  0  0  0  0  0  0  0
  -15.5716  -11.7574    5.2357 C   0  0  0  0  0  0  0  0  0  0  0  0
  -14.3970  -12.8908    7.0978 C   0  0  0  0  0  0  0  0  0  0  0  0
  -15.4700  -12.9514    7.8537 C   0  0  0  0  0  0  0  0  0  0  0  0
  -13.1273  -13.4355    7.5762 C   0  0  0  0  0  0  0  0  0  0  0  0
  -15.4784  -13.5434    9.1919 C   0  0  0  0  0  0  0  0  0  0  0  0
  -12.4546  -12.7291    8.5495 C   0  0  0  0  0  0  0  0  0  0  0  0
  -11.2505  -13.1337    9.0468 C   0  0  0  0  0  0  0  0  0  0  0  0
  -10.7001  -14.2938    8.5469 C   0  0  0  0  0  0  0  0  0  0  0  0
  -11.3353  -15.0339    7.5731 C   0  0  0  0  0  0  0  0  0  0  0  0
  -12.5532  -14.5858    7.0985 C   0  0  0  0  0  0  0  0  0  0  0  0
  -16.0549  -14.7556    9.4869 C   0  0  0  0  0  0  0  0  0  0  0  0
  -16.0325  -15.2368   10.7878 C   0  0  0  0  0  0  0  0  0  0  0  0
  -15.4460  -14.5473   11.8327 C   0  0  0  0  0  0  0  0  0  0  0  0
  -14.8662  -13.3278   11.5287 C   0  0  0  0  0  0  0  0  0  0  0  0
  -14.8834  -12.8390   10.2362 C   0  0  0  0  0  0  0  0  0  0  0  0
  -15.4627  -15.1030   13.2144 C   0  0  0  0  0  0  0  0  0  0  0  0
  -14.2737  -14.7710   15.2681 C   0  0  0  0  0  0  0  0  0  0  0  0
  -13.6054  -15.7598   16.1804 C   0  0  0  0  0  0  0  0  0  0  0  0
  -13.6194  -17.0955   15.4839 C   0  0  1  0  0  0  0  0  0  0  0  0
  -12.7247  -16.9783   14.2903 C   0  0  0  0  0  0  0  0  0  0  0  0
  -13.2394  -15.9281   13.3740 C   0  0  0  0  0  0  0  0  0  0  0  0
  -14.3100  -19.3082   16.4143 C   0  0  0  0  0  0  0  0  0  0  0  0
  -12.6945  -19.7488   17.7599 C   0  0  0  0  0  0  0  0  0  0  0  0
  -12.4488  -18.5290   17.1575 C   0  0  0  0  0  0  0  0  0  0  0  0
  -11.7662  -20.2146   18.6650 C   0  0  0  0  0  0  0  0  0  0  0  0
  -10.6170  -19.4856   18.9664 C   0  0  0  0  0  0  0  0  0  0  0  0
  -10.3509  -18.2812   18.3867 C   0  0  0  0  0  0  0  0  0  0  0  0
  -11.3099  -17.8227   17.4668 C   0  0  0  0  0  0  0  0  0  0  0  0
   -8.6999  -17.1280   19.8945 C   0  0  0  0  0  0  0  0  0  0  0  0
   -7.6343  -16.0668   20.0425 C   0  0  0  0  0  0  0  0  0  0  0  0
   -6.3017  -16.7525   20.2087 C   0  0  0  0  0  0  0  0  0  0  0  0
  -15.6280  -11.2107    4.0455 C   0  0  0  0  0  0  0  0  0  0  0  0
  -14.3903  -12.3061    5.7840 N   0  0  0  0  0  0  0  0  0  0  0  0
  -16.7022  -12.4014    7.3312 N   0  0  0  0  0  0  0  0  0  0  0  0
  -14.1488  -14.9697   13.8778 N   0  0  1  0  0  4  0  0  0  0  0  0
  -13.4662  -18.2379   16.3013 N   0  0  0  0  0  0  0  0  0  0  0  0
  -13.8590  -20.2041   17.2750 N   0  0  0  0  0  0  0  0  0  0  0  0
   -9.2074  -17.4700   18.6218 N   0  0  0  0  0  0  0  0  0  0  0  0
   -9.1128  -17.6874   20.9286 O   0  0  0  0  0  0  0  0  0  0  0  0
  -15.3865  -19.3631   15.7360 O   0  0  0  0  0  0  0  0  0  0  0  0
  -17.8729  -11.3562    5.6624 O   0  0  0  0  0  0  0  0  0  0  0  0
  1  2  1  0
 35  1  1  0
  1 42  2  0
  2 33  2  0
 34  2  1  0
  4  3  2  0
  3  5  1  0
  3 34  1  0
  6  4  1  0
  4 35  1  0
  5  7  2  0
  5 11  1  0
 12  6  2  0
 16  6  1  0
  7  8  1  0
  8  9  2  0
 10  9  1  0
 11 10  2  0
 13 12  1  0
 14 13  2  0
 14 15  1  0
 17 14  1  0
 15 16  2  0
 36 17  1  1
 19 18  1  0
 18 36  1  0
 20 19  1  0
 20 21  1  0
 20 37  1  1
 21 22  1  0
 22 36  1  0
 37 23  1  0
 23 38  1  0
 23 41  2  0
 25 24  2  0
 26 24  1  0
 24 38  1  0
 29 25  1  0
 25 37  1  0
 27 26  2  0
 28 27  1  0
 28 29  2  0
 39 28  1  0
 30 31  1  0
 30 39  1  0
 30 40  2  0
 31 32  1  0
M  CHG  1  36   1
M  END
$$$$
