
     RDKit          3D

 42 47  0  0  0  0  0  0  0  0999 V2000
  -19.0739  -22.3073    4.4937 C   0  0  0  0  0  0  0  0  0  0  0  0
  -18.9630  -23.6456    5.0665 C   0  0  0  0  0  0  0  0  0  0  0  0
  -18.1326  -22.5560    7.1292 C   0  0  0  0  0  0  0  0  0  0  0  0
  -18.2250  -21.3439    6.6307 C   0  0  0  0  0  0  0  0  0  0  0  0
  -17.6539  -22.7558    8.4961 C   0  0  0  0  0  0  0  0  0  0  0  0
  -17.8627  -20.1380    7.3764 C   0  0  0  0  0  0  0  0  0  0  0  0
  -16.6663  -23.6957    8.6968 C   0  0  0  0  0  0  0  0  0  0  0  0
  -16.1671  -23.9797    9.9342 C   0  0  0  0  0  0  0  0  0  0  0  0
  -16.6799  -23.2924   11.0128 C   0  0  0  0  0  0  0  0  0  0  0  0
  -17.6681  -22.3437   10.8617 C   0  0  0  0  0  0  0  0  0  0  0  0
  -18.1441  -22.0891    9.5898 C   0  0  0  0  0  0  0  0  0  0  0  0
  -18.6805  -19.0400    7.4966 C   0  0  0  0  0  0  0  0  0  0  0  0
  -18.2517  -17.9297    8.2093 C   0  0  0  0  0  0  0  0  0  0  0  0
  -17.0146  -17.8640    8.8229 C   0  0  0  0  0  0  0  0  0  0  0  0
  -16.1964  -18.9735    8.6990 C   0  0  0  0  0  0  0  0  0  0  0  0
  -16.6136  -20.0846    7.9910 C   0  0  0  0  0  0  0  0  0  0  0  0
  -16.5979  -16.6412    9.5640 C   0  0  0  0  0  0  0  0  0  0  0  0
  -14.2674  -16.3894   10.0610 C   0  0  0  0  0  0  0  0  0  0  0  0
  -13.5595  -15.4097   10.9531 C   0  0  0  0  0  0  0  0  0  0  0  0
  -14.6148  -14.6475   11.7113 C   0  0  1  0  0  0  0  0  0  0  0  0
  -15.2844  -15.6200   12.6304 C   0  0  0  0  0  0  0  0  0  0  0  0
  -15.9190  -16.7069   11.8408 C   0  0  0  0  0  0  0  0  0  0  0  0
  -13.5699  -13.1641   13.4277 C   0  0  0  0  0  0  0  0  0  0  0  0
  -13.8926  -11.2141   12.5863 C   0  0  0  0  0  0  0  0  0  0  0  0
  -14.4275  -12.1594   11.7312 C   0  0  0  0  0  0  0  0  0  0  0  0
  -13.9967   -9.8894   12.2226 C   0  0  0  0  0  0  0  0  0  0  0  0
  -14.6187   -9.5098   11.0343 C   0  0  0  0  0  0  0  0  0  0  0  0
  -15.1538  -10.4213   10.1739 C   0  0  0  0  0  0  0  0  0  0  0  0
  -15.0381  -11.7672   10.5628 C   0  0  0  0  0  0  0  0  0  0  0  0
  -15.5823  -10.8270    7.7283 C   0  0  0  0  0  0  0  0  0  0  0  0
  -16.0312  -10.2392    6.4106 C   0  0  0  0  0  0  0  0  0  0  0  0
  -15.7604  -11.2489    5.3239 C   0  0  0  0  0  0  0  0  0  0  0  0
  -19.3005  -24.6874    4.3456 C   0  0  0  0  0  0  0  0  0  0  0  0
  -18.4868  -23.7399    6.3936 N   0  0  0  0  0  0  0  0  0  0  0  0
  -18.7086  -21.2010    5.2744 N   0  0  0  0  0  0  0  0  0  0  0  0
  -15.4954  -16.9183   10.5085 N   0  0  1  0  0  4  0  0  0  0  0  0
  -14.2294  -13.4007   12.2533 N   0  0  0  0  0  0  0  0  0  0  0  0
  -13.3683  -11.8736   13.6298 N   0  0  0  0  0  0  0  0  0  0  0  0
  -15.7981  -10.1341    8.9397 N   0  0  0  0  0  0  0  0  0  0  0  0
  -15.0183  -11.9380    7.7088 O   0  0  0  0  0  0  0  0  0  0  0  0
  -13.2232  -14.1274   14.1853 O   0  0  0  0  0  0  0  0  0  0  0  0
  -19.4861  -22.1186    3.3246 O   0  0  0  0  0  0  0  0  0  0  0  0
  1  2  1  0
 35  1  1  0
  1 42  2  0
  2 33  2  0
 34  2  1  0
  4  3  2  0
  3  5  1  0
  3 34  1  0
  6  4  1  0
  4 35  1  0
  5  7  2  0
  5 11  1  0
 12  6  2  0
 16  6  1  0
  7  8  1  0
  8  9  2  0
 10  9  1  0
 11 10  2  0
 13 12  1  0
 14 13  2  0
 14 15  1  0
 17 14  1  0
 15 16  2  0
 36 17  1  6
 19 18  1  0
 18 36  1  0
 20 19  1  0
 20 21  1  0
 20 37  1  1
 21 22  1  0
 22 36  1  0
 37 23  1  0
 23 38  1  0
 23 41  2  0
 25 24  2  0
 26 24  1  0
 24 38  1  0
 29 25  1  0
 25 37  1  0
 27 26  2  0
 28 27  1  0
 28 29  2  0
 39 28  1  0
 30 31  1  0
 30 39  1  0
 30 40  2  0
 31 32  1  0
M  CHG  1  36   1
M  END
$$$$
