
     RDKit          3D

 42 47  0  0  0  0  0  0  0  0999 V2000
  -19.1558  -21.0414    3.5207 C   0  0  0  0  0  0  0  0  0  0  0  0
  -19.1843  -22.4920    3.6835 C   0  0  0  0  0  0  0  0  0  0  0  0
  -18.2642  -22.1279    5.9534 C   0  0  0  0  0  0  0  0  0  0  0  0
  -18.2306  -20.8207    5.8252 C   0  0  0  0  0  0  0  0  0  0  0  0
  -17.8183  -22.7579    7.1952 C   0  0  0  0  0  0  0  0  0  0  0  0
  -17.7546  -19.9216    6.8771 C   0  0  0  0  0  0  0  0  0  0  0  0
  -18.3159  -22.2595    8.3796 C   0  0  0  0  0  0  0  0  0  0  0  0
  -17.9458  -22.7558    9.5952 C   0  0  0  0  0  0  0  0  0  0  0  0
  -17.0404  -23.7941    9.6224 C   0  0  0  0  0  0  0  0  0  0  0  0
  -16.5152  -24.3255    8.4642 C   0  0  0  0  0  0  0  0  0  0  0  0
  -16.9183  -23.7910    7.2555 C   0  0  0  0  0  0  0  0  0  0  0  0
  -16.6369  -20.1627    7.6396 C   0  0  0  0  0  0  0  0  0  0  0  0
  -16.2646  -19.2644    8.6291 C   0  0  0  0  0  0  0  0  0  0  0  0
  -16.9733  -18.1083    8.8981 C   0  0  0  0  0  0  0  0  0  0  0  0
  -18.0971  -17.8709    8.1258 C   0  0  0  0  0  0  0  0  0  0  0  0
  -18.4772  -18.7594    7.1379 C   0  0  0  0  0  0  0  0  0  0  0  0
  -16.5377  -17.1848    9.9822 C   0  0  0  0  0  0  0  0  0  0  0  0
  -17.6502  -15.7549   11.5504 C   0  0  0  0  0  0  0  0  0  0  0  0
  -17.3497  -14.3438   11.9690 C   0  0  0  0  0  0  0  0  0  0  0  0
  -16.2666  -13.8254   11.0593 C   0  0  1  0  0  0  0  0  0  0  0  0
  -16.8562  -13.7232    9.6878 C   0  0  0  0  0  0  0  0  0  0  0  0
  -17.3006  -15.0640    9.2274 C   0  0  0  0  0  0  0  0  0  0  0  0
  -15.9906  -11.5394   12.0268 C   0  0  0  0  0  0  0  0  0  0  0  0
  -13.8527  -11.3494   12.1162 C   0  0  0  0  0  0  0  0  0  0  0  0
  -14.1654  -12.5892   11.5910 C   0  0  0  0  0  0  0  0  0  0  0  0
  -12.5197  -11.0313   12.2575 C   0  0  0  0  0  0  0  0  0  0  0  0
  -11.5169  -11.9252   11.8857 C   0  0  0  0  0  0  0  0  0  0  0  0
  -11.7980  -13.1533   11.3658 C   0  0  0  0  0  0  0  0  0  0  0  0
  -13.1632  -13.4589   11.2289 C   0  0  0  0  0  0  0  0  0  0  0  0
   -9.4470  -13.9960   11.0625 C   0  0  0  0  0  0  0  0  0  0  0  0
   -8.5307  -15.1404   10.6962 C   0  0  0  0  0  0  0  0  0  0  0  0
   -7.1052  -14.6626   10.8122 C   0  0  0  0  0  0  0  0  0  0  0  0
  -19.6193  -23.2444    2.7019 C   0  0  0  0  0  0  0  0  0  0  0  0
  -18.7300  -23.0098    4.9174 N   0  0  0  0  0  0  0  0  0  0  0  0
  -18.6871  -20.2475    4.5775 N   0  0  0  0  0  0  0  0  0  0  0  0
  -17.5008  -16.0827   10.1873 N   0  0  1  0  0  4  0  0  0  0  0  0
  -15.5186  -12.7225   11.5290 N   0  0  0  0  0  0  0  0  0  0  0  0
  -15.0105  -10.7240   12.3753 N   0  0  0  0  0  0  0  0  0  0  0  0
  -10.8492  -14.1335   10.9660 N   0  0  0  0  0  0  0  0  0  0  0  0
   -8.9253  -12.9329   11.4500 O   0  0  0  0  0  0  0  0  0  0  0  0
  -17.2426  -11.3225   12.1133 O   0  0  0  0  0  0  0  0  0  0  0  0
  -19.5382  -20.4853    2.4639 O   0  0  0  0  0  0  0  0  0  0  0  0
  1  2  1  0
 35  1  1  0
  1 42  2  0
  2 33  2  0
 34  2  1  0
  4  3  2  0
  3  5  1  0
  3 34  1  0
  6  4  1  0
  4 35  1  0
  5  7  2  0
  5 11  1  0
 12  6  2  0
 16  6  1  0
  7  8  1  0
  8  9  2  0
 10  9  1  0
 11 10  2  0
 13 12  1  0
 14 13  2  0
 14 15  1  0
 17 14  1  0
 15 16  2  0
 36 17  1  1
 19 18  1  0
 18 36  1  0
 20 19  1  0
 20 21  1  0
 20 37  1  1
 21 22  1  0
 22 36  1  0
 37 23  1  0
 23 38  1  0
 23 41  2  0
 25 24  2  0
 26 24  1  0
 24 38  1  0
 29 25  1  0
 25 37  1  0
 27 26  2  0
 28 27  1  0
 28 29  2  0
 39 28  1  0
 30 31  1  0
 30 39  1  0
 30 40  2  0
 31 32  1  0
M  CHG  1  36   1
M  END
$$$$
