
     RDKit          3D

 42 47  0  0  0  0  0  0  0  0999 V2000
  -17.9081  -23.4257    9.9060 C   0  0  0  0  0  0  0  0  0  0  0  0
  -18.5016  -23.1280    8.6058 C   0  0  0  0  0  0  0  0  0  0  0  0
  -17.7075  -20.8034    8.9176 C   0  0  0  0  0  0  0  0  0  0  0  0
  -17.1679  -21.0521   10.0895 C   0  0  0  0  0  0  0  0  0  0  0  0
  -17.6353  -19.4607    8.3434 C   0  0  0  0  0  0  0  0  0  0  0  0
  -16.4800  -20.0380   10.8895 C   0  0  0  0  0  0  0  0  0  0  0  0
  -18.8226  -18.8306    8.0398 C   0  0  0  0  0  0  0  0  0  0  0  0
  -18.8687  -17.5888    7.4768 C   0  0  0  0  0  0  0  0  0  0  0  0
  -17.6752  -16.9547    7.2083 C   0  0  0  0  0  0  0  0  0  0  0  0
  -16.4629  -17.5450    7.4941 C   0  0  0  0  0  0  0  0  0  0  0  0
  -16.4644  -18.8039    8.0636 C   0  0  0  0  0  0  0  0  0  0  0  0
  -15.1144  -19.9732   11.0299 C   0  0  0  0  0  0  0  0  0  0  0  0
  -14.5440  -18.9874   11.8219 C   0  0  0  0  0  0  0  0  0  0  0  0
  -15.2923  -18.0401   12.4957 C   0  0  0  0  0  0  0  0  0  0  0  0
  -16.6668  -18.1102   12.3491 C   0  0  0  0  0  0  0  0  0  0  0  0
  -17.2453  -19.0884   11.5628 C   0  0  0  0  0  0  0  0  0  0  0  0
  -14.6296  -17.0117   13.3450 C   0  0  0  0  0  0  0  0  0  0  0  0
  -15.3519  -15.0008   14.4295 C   0  0  0  0  0  0  0  0  0  0  0  0
  -14.6917  -13.6553   14.5319 C   0  0  0  0  0  0  0  0  0  0  0  0
  -13.4876  -13.6748   13.6270 C   0  0  1  0  0  0  0  0  0  0  0  0
  -13.9947  -13.7702   12.2224 C   0  0  0  0  0  0  0  0  0  0  0  0
  -14.7734  -15.0237   12.0502 C   0  0  0  0  0  0  0  0  0  0  0  0
  -12.4539  -11.4037   13.5168 C   0  0  0  0  0  0  0  0  0  0  0  0
  -10.6208  -11.6964   14.5978 C   0  0  0  0  0  0  0  0  0  0  0  0
  -11.3161  -12.8909   14.5737 C   0  0  0  0  0  0  0  0  0  0  0  0
   -9.4078  -11.6744   15.2507 C   0  0  0  0  0  0  0  0  0  0  0  0
   -8.8949  -12.8142   15.8677 C   0  0  0  0  0  0  0  0  0  0  0  0
   -9.5601  -14.0037   15.8588 C   0  0  0  0  0  0  0  0  0  0  0  0
  -10.7951  -14.0061   15.1874 C   0  0  0  0  0  0  0  0  0  0  0  0
   -8.9058  -16.4318   15.7832 C   0  0  0  0  0  0  0  0  0  0  0  0
   -7.9230  -17.4492   16.3148 C   0  0  0  0  0  0  0  0  0  0  0  0
   -8.2218  -18.7792   15.6700 C   0  0  0  0  0  0  0  0  0  0  0  0
  -19.1078  -24.0799    7.9386 C   0  0  0  0  0  0  0  0  0  0  0  0
  -18.3852  -21.8009    8.1342 N   0  0  0  0  0  0  0  0  0  0  0  0
  -17.2636  -22.3986   10.6106 N   0  0  0  0  0  0  0  0  0  0  0  0
  -15.2641  -15.6848   13.1998 N   0  0  1  0  0  4  0  0  0  0  0  0
  -12.4810  -12.7188   13.8910 N   0  0  0  0  0  0  0  0  0  0  0  0
  -11.3568  -10.7946   13.9317 N   0  0  0  0  0  0  0  0  0  0  0  0
   -9.1248  -15.2141   16.4641 N   0  0  0  0  0  0  0  0  0  0  0  0
   -9.5128  -16.7032   14.7294 O   0  0  0  0  0  0  0  0  0  0  0  0
  -13.4118  -10.8973   12.8475 O   0  0  0  0  0  0  0  0  0  0  0  0
  -17.9579  -24.5725   10.4106 O   0  0  0  0  0  0  0  0  0  0  0  0
  1  2  1  0
 35  1  1  0
  1 42  2  0
  2 33  2  0
 34  2  1  0
  4  3  2  0
  3  5  1  0
  3 34  1  0
  6  4  1  0
  4 35  1  0
  5  7  2  0
  5 11  1  0
 12  6  2  0
 16  6  1  0
  7  8  1  0
  8  9  2  0
 10  9  1  0
 11 10  2  0
 13 12  1  0
 14 13  2  0
 14 15  1  0
 17 14  1  0
 15 16  2  0
 36 17  1  1
 19 18  1  0
 18 36  1  0
 20 19  1  0
 20 21  1  0
 20 37  1  6
 21 22  1  0
 22 36  1  0
 37 23  1  0
 23 38  1  0
 23 41  2  0
 25 24  2  0
 26 24  1  0
 24 38  1  0
 29 25  1  0
 25 37  1  0
 27 26  2  0
 28 27  1  0
 28 29  2  0
 39 28  1  0
 30 31  1  0
 30 39  1  0
 30 40  2  0
 31 32  1  0
M  CHG  1  36   1
M  END
$$$$
