
     RDKit          3D

 42 47  0  0  0  0  0  0  0  0999 V2000
  -20.3228  -12.9454    4.3433 C   0  0  0  0  0  0  0  0  0  0  0  0
  -19.7804  -11.6255    4.6517 C   0  0  0  0  0  0  0  0  0  0  0  0
  -18.3169  -12.7521    6.3010 C   0  0  0  0  0  0  0  0  0  0  0  0
  -18.7931  -13.9480    6.0375 C   0  0  0  0  0  0  0  0  0  0  0  0
  -17.2688  -12.5816    7.3060 C   0  0  0  0  0  0  0  0  0  0  0  0
  -18.3325  -15.1631    6.7105 C   0  0  0  0  0  0  0  0  0  0  0  0
  -16.2138  -11.7515    6.9950 C   0  0  0  0  0  0  0  0  0  0  0  0
  -15.1705  -11.5430    7.8489 C   0  0  0  0  0  0  0  0  0  0  0  0
  -15.1875  -12.1938    9.0633 C   0  0  0  0  0  0  0  0  0  0  0  0
  -16.2209  -13.0338    9.4187 C   0  0  0  0  0  0  0  0  0  0  0  0
  -17.2564  -13.2155    8.5221 C   0  0  0  0  0  0  0  0  0  0  0  0
  -17.0116  -15.5319    6.8009 C   0  0  0  0  0  0  0  0  0  0  0  0
  -16.6624  -16.7107    7.4435 C   0  0  0  0  0  0  0  0  0  0  0  0
  -17.5936  -17.5581    8.0145 C   0  0  0  0  0  0  0  0  0  0  0  0
  -18.9218  -17.1804    7.9209 C   0  0  0  0  0  0  0  0  0  0  0  0
  -19.2806  -16.0084    7.2826 C   0  0  0  0  0  0  0  0  0  0  0  0
  -17.1655  -18.8197    8.6802 C   0  0  0  0  0  0  0  0  0  0  0  0
  -15.4804  -20.4462    8.1735 C   0  0  0  0  0  0  0  0  0  0  0  0
  -15.5013  -21.9435    8.2929 C   0  0  0  0  0  0  0  0  0  0  0  0
  -16.9122  -22.3485    8.6314 C   0  0  1  0  0  0  0  0  0  0  0  0
  -17.7596  -22.0263    7.4410 C   0  0  0  0  0  0  0  0  0  0  0  0
  -17.7079  -20.5676    7.1636 C   0  0  0  0  0  0  0  0  0  0  0  0
  -17.7253  -24.7089    8.7057 C   0  0  0  0  0  0  0  0  0  0  0  0
  -17.0266  -25.3597   10.6300 C   0  0  0  0  0  0  0  0  0  0  0  0
  -16.6446  -24.0446   10.4418 C   0  0  0  0  0  0  0  0  0  0  0  0
  -16.6700  -25.9671   11.8140 C   0  0  0  0  0  0  0  0  0  0  0  0
  -15.9484  -25.2840   12.7916 C   0  0  0  0  0  0  0  0  0  0  0  0
  -15.5594  -23.9877   12.6311 C   0  0  0  0  0  0  0  0  0  0  0  0
  -15.9331  -23.3854   11.4172 C   0  0  0  0  0  0  0  0  0  0  0  0
  -14.4555  -21.8579   13.3889 C   0  0  0  0  0  0  0  0  0  0  0  0
  -13.8408  -21.0700   14.5224 C   0  0  0  0  0  0  0  0  0  0  0  0
  -13.3694  -19.7450   13.9782 C   0  0  0  0  0  0  0  0  0  0  0  0
  -20.2375  -10.5740    4.0158 C   0  0  0  0  0  0  0  0  0  0  0  0
  -18.7728  -11.5590    5.6403 N   0  0  0  0  0  0  0  0  0  0  0  0
  -19.8266  -14.0623    5.0311 N   0  0  0  0  0  0  0  0  0  0  0  0
  -16.6483  -19.8069    7.7095 N   0  0  1  0  0  4  0  0  0  0  0  0
  -17.0815  -23.6197    9.2248 N   0  0  0  0  0  0  0  0  0  0  0  0
  -17.6961  -25.7401    9.5320 N   0  0  0  0  0  0  0  0  0  0  0  0
  -14.8172  -23.2118   13.5628 N   0  0  0  0  0  0  0  0  0  0  0  0
  -14.6308  -21.2747   12.3018 O   0  0  0  0  0  0  0  0  0  0  0  0
  -18.2655  -24.6582    7.5535 O   0  0  0  0  0  0  0  0  0  0  0  0
  -21.2189  -13.1092    3.4817 O   0  0  0  0  0  0  0  0  0  0  0  0
  1  2  1  0
 35  1  1  0
  1 42  2  0
  2 33  2  0
 34  2  1  0
  4  3  2  0
  3  5  1  0
  3 34  1  0
  6  4  1  0
  4 35  1  0
  5  7  2  0
  5 11  1  0
 12  6  2  0
 16  6  1  0
  7  8  1  0
  8  9  2  0
 10  9  1  0
 11 10  2  0
 13 12  1  0
 14 13  2  0
 14 15  1  0
 17 14  1  0
 15 16  2  0
 36 17  1  1
 19 18  1  0
 18 36  1  0
 20 19  1  0
 20 21  1  0
 20 37  1  6
 21 22  1  0
 22 36  1  0
 37 23  1  0
 23 38  1  0
 23 41  2  0
 25 24  2  0
 26 24  1  0
 24 38  1  0
 29 25  1  0
 25 37  1  0
 27 26  2  0
 28 27  1  0
 28 29  2  0
 39 28  1  0
 30 31  1  0
 30 39  1  0
 30 40  2  0
 31 32  1  0
M  CHG  1  36   1
M  END
$$$$
