
     RDKit          3D

 42 47  0  0  0  0  0  0  0  0999 V2000
  -19.1362  -24.7785    8.0284 C   0  0  0  0  0  0  0  0  0  0  0  0
  -18.8787  -25.1650    6.6443 C   0  0  0  0  0  0  0  0  0  0  0  0
  -18.0750  -22.8512    6.2811 C   0  0  0  0  0  0  0  0  0  0  0  0
  -18.3005  -22.4847    7.5226 C   0  0  0  0  0  0  0  0  0  0  0  0
  -17.5199  -21.8984    5.3211 C   0  0  0  0  0  0  0  0  0  0  0  0
  -18.0290  -21.1374    8.0252 C   0  0  0  0  0  0  0  0  0  0  0  0
  -18.3615  -21.4101    4.3454 C   0  0  0  0  0  0  0  0  0  0  0  0
  -17.9400  -20.5377    3.3850 C   0  0  0  0  0  0  0  0  0  0  0  0
  -16.6210  -20.1397    3.4056 C   0  0  0  0  0  0  0  0  0  0  0  0
  -15.7417  -20.6011    4.3614 C   0  0  0  0  0  0  0  0  0  0  0  0
  -16.2126  -21.4839    5.3144 C   0  0  0  0  0  0  0  0  0  0  0  0
  -18.5851  -19.9981    7.4946 C   0  0  0  0  0  0  0  0  0  0  0  0
  -18.2605  -18.7567    8.0218 C   0  0  0  0  0  0  0  0  0  0  0  0
  -17.3857  -18.5967    9.0803 C   0  0  0  0  0  0  0  0  0  0  0  0
  -16.8301  -19.7481    9.6108 C   0  0  0  0  0  0  0  0  0  0  0  0
  -17.1464  -20.9897    9.0928 C   0  0  0  0  0  0  0  0  0  0  0  0
  -17.0603  -17.2390    9.5987 C   0  0  0  0  0  0  0  0  0  0  0  0
  -18.2212  -15.1896    9.1583 C   0  0  0  0  0  0  0  0  0  0  0  0
  -17.7279  -13.7707    9.1476 C   0  0  0  0  0  0  0  0  0  0  0  0
  -16.2282  -13.8146    9.2824 C   0  0  1  0  0  0  0  0  0  0  0  0
  -15.6925  -14.4379    8.0320 C   0  0  0  0  0  0  0  0  0  0  0  0
  -16.2249  -15.8174    7.8867 C   0  0  0  0  0  0  0  0  0  0  0  0
  -15.6329  -11.3912    9.1774 C   0  0  0  0  0  0  0  0  0  0  0  0
  -14.4048  -11.1586   10.9244 C   0  0  0  0  0  0  0  0  0  0  0  0
  -14.8186  -12.4753   10.8461 C   0  0  0  0  0  0  0  0  0  0  0  0
  -13.6013  -10.8018   11.9851 C   0  0  0  0  0  0  0  0  0  0  0  0
  -13.2162  -11.7319   12.9491 C   0  0  0  0  0  0  0  0  0  0  0  0
  -13.6103  -13.0355   12.8955 C   0  0  0  0  0  0  0  0  0  0  0  0
  -14.4289  -13.3802   11.8059 C   0  0  0  0  0  0  0  0  0  0  0  0
  -12.3339  -13.9231   14.8734 C   0  0  0  0  0  0  0  0  0  0  0  0
  -11.9213  -15.1212   15.6967 C   0  0  0  0  0  0  0  0  0  0  0  0
  -10.6170  -14.7997   16.3816 C   0  0  0  0  0  0  0  0  0  0  0  0
  -19.1465  -26.3876    6.2539 C   0  0  0  0  0  0  0  0  0  0  0  0
  -18.3450  -24.1750    5.7886 N   0  0  0  0  0  0  0  0  0  0  0  0
  -18.8468  -23.4674    8.4335 N   0  0  0  0  0  0  0  0  0  0  0  0
  -17.3801  -16.1826    8.6158 N   0  0  1  0  0  4  0  0  0  0  0  0
  -15.5985  -12.6361    9.7423 N   0  0  0  0  0  0  0  0  0  0  0  0
  -14.9291  -10.5140    9.8717 N   0  0  0  0  0  0  0  0  0  0  0  0
  -13.2780  -14.0528   13.8312 N   0  0  0  0  0  0  0  0  0  0  0  0
  -11.8150  -12.8232   15.1445 O   0  0  0  0  0  0  0  0  0  0  0  0
  -16.2889  -11.1800    8.1063 O   0  0  0  0  0  0  0  0  0  0  0  0
  -19.6082  -25.5845    8.8650 O   0  0  0  0  0  0  0  0  0  0  0  0
  1  2  1  0
 35  1  1  0
  1 42  2  0
  2 33  2  0
 34  2  1  0
  4  3  2  0
  3  5  1  0
  3 34  1  0
  6  4  1  0
  4 35  1  0
  5  7  2  0
  5 11  1  0
 12  6  2  0
 16  6  1  0
  7  8  1  0
  8  9  2  0
 10  9  1  0
 11 10  2  0
 13 12  1  0
 14 13  2  0
 14 15  1  0
 17 14  1  0
 15 16  2  0
 36 17  1  1
 19 18  1  0
 18 36  1  0
 20 19  1  0
 20 21  1  0
 20 37  1  6
 21 22  1  0
 22 36  1  0
 37 23  1  0
 23 38  1  0
 23 41  2  0
 25 24  2  0
 26 24  1  0
 24 38  1  0
 29 25  1  0
 25 37  1  0
 27 26  2  0
 28 27  1  0
 28 29  2  0
 39 28  1  0
 30 31  1  0
 30 39  1  0
 30 40  2  0
 31 32  1  0
M  CHG  1  36   1
M  END
$$$$
