
     RDKit          3D

 42 47  0  0  0  0  0  0  0  0999 V2000
  -20.4543  -24.1824    7.7923 C   0  0  0  0  0  0  0  0  0  0  0  0
  -19.7114  -25.1273    6.9635 C   0  0  0  0  0  0  0  0  0  0  0  0
  -18.2805  -23.2202    6.2949 C   0  0  0  0  0  0  0  0  0  0  0  0
  -18.9373  -22.3551    7.0342 C   0  0  0  0  0  0  0  0  0  0  0  0
  -17.1367  -22.7863    5.4942 C   0  0  0  0  0  0  0  0  0  0  0  0
  -18.5919  -20.9349    7.1082 C   0  0  0  0  0  0  0  0  0  0  0  0
  -17.1572  -23.0671    4.1453 C   0  0  0  0  0  0  0  0  0  0  0  0
  -16.1305  -22.7309    3.3123 C   0  0  0  0  0  0  0  0  0  0  0  0
  -15.0401  -22.0870    3.8555 C   0  0  0  0  0  0  0  0  0  0  0  0
  -14.9742  -21.7853    5.1987 C   0  0  0  0  0  0  0  0  0  0  0  0
  -16.0371  -22.1451    6.0048 C   0  0  0  0  0  0  0  0  0  0  0  0
  -18.5611  -20.0988    6.0179 C   0  0  0  0  0  0  0  0  0  0  0  0
  -18.2064  -18.7668    6.1744 C   0  0  0  0  0  0  0  0  0  0  0  0
  -17.8740  -18.2178    7.3988 C   0  0  0  0  0  0  0  0  0  0  0  0
  -17.9081  -19.0649    8.4929 C   0  0  0  0  0  0  0  0  0  0  0  0
  -18.2596  -20.3936    8.3481 C   0  0  0  0  0  0  0  0  0  0  0  0
  -17.4862  -16.7841    7.5088 C   0  0  0  0  0  0  0  0  0  0  0  0
  -15.3429  -16.1868    8.3981 C   0  0  0  0  0  0  0  0  0  0  0  0
  -14.8203  -14.8638    8.8810 C   0  0  0  0  0  0  0  0  0  0  0  0
  -15.9814  -13.9044    8.9094 C   0  0  1  0  0  0  0  0  0  0  0  0
  -16.9193  -14.3809    9.9734 C   0  0  0  0  0  0  0  0  0  0  0  0
  -17.4035  -15.7468    9.6457 C   0  0  0  0  0  0  0  0  0  0  0  0
  -16.1263  -11.5729    8.0256 C   0  0  0  0  0  0  0  0  0  0  0  0
  -14.8122  -10.5116    9.3528 C   0  0  0  0  0  0  0  0  0  0  0  0
  -14.8359  -11.8429    9.7242 C   0  0  0  0  0  0  0  0  0  0  0  0
  -14.0215   -9.6556   10.0876 C   0  0  0  0  0  0  0  0  0  0  0  0
  -13.2696  -10.1107   11.1694 C   0  0  0  0  0  0  0  0  0  0  0  0
  -13.2754  -11.4175   11.5565 C   0  0  0  0  0  0  0  0  0  0  0  0
  -14.0875  -12.2750   10.7943 C   0  0  0  0  0  0  0  0  0  0  0  0
  -12.2609  -13.3456   12.8145 C   0  0  0  0  0  0  0  0  0  0  0  0
  -11.1994  -13.7969   13.7907 C   0  0  0  0  0  0  0  0  0  0  0  0
  -11.4039  -15.2648   14.0688 C   0  0  0  0  0  0  0  0  0  0  0  0
  -20.0726  -26.3873    6.9373 C   0  0  0  0  0  0  0  0  0  0  0  0
  -18.6232  -24.6149    6.2216 N   0  0  0  0  0  0  0  0  0  0  0  0
  -20.0590  -22.8370    7.8109 N   0  0  0  0  0  0  0  0  0  0  0  0
  -16.6745  -16.5238    8.7161 N   0  0  1  0  0  4  0  0  0  0  0  0
  -15.6660  -12.5271    8.8903 N   0  0  0  0  0  0  0  0  0  0  0  0
  -15.6249  -10.3798    8.2941 N   0  0  0  0  0  0  0  0  0  0  0  0
  -12.5520  -11.9740   12.6464 N   0  0  0  0  0  0  0  0  0  0  0  0
  -12.8670  -14.2208   12.1669 O   0  0  0  0  0  0  0  0  0  0  0  0
  -16.9416  -11.8759    7.0953 O   0  0  0  0  0  0  0  0  0  0  0  0
  -21.4349  -24.5390    8.4876 O   0  0  0  0  0  0  0  0  0  0  0  0
  1  2  1  0
 35  1  1  0
  1 42  2  0
  2 33  2  0
 34  2  1  0
  4  3  2  0
  3  5  1  0
  3 34  1  0
  6  4  1  0
  4 35  1  0
  5  7  2  0
  5 11  1  0
 12  6  2  0
 16  6  1  0
  7  8  1  0
  8  9  2  0
 10  9  1  0
 11 10  2  0
 13 12  1  0
 14 13  2  0
 14 15  1  0
 17 14  1  0
 15 16  2  0
 36 17  1  6
 19 18  1  0
 18 36  1  0
 20 19  1  0
 20 21  1  0
 20 37  1  1
 21 22  1  0
 22 36  1  0
 37 23  1  0
 23 38  1  0
 23 41  2  0
 25 24  2  0
 26 24  1  0
 24 38  1  0
 29 25  1  0
 25 37  1  0
 27 26  2  0
 28 27  1  0
 28 29  2  0
 39 28  1  0
 30 31  1  0
 30 39  1  0
 30 40  2  0
 31 32  1  0
M  CHG  1  36   1
M  END
$$$$
