
     RDKit          3D

 42 47  0  0  0  0  0  0  0  0999 V2000
  -17.6853  -14.6576    4.8104 C   0  0  0  0  0  0  0  0  0  0  0  0
  -18.0467  -13.2923    4.4403 C   0  0  0  0  0  0  0  0  0  0  0  0
  -16.5152  -12.5361    6.2332 C   0  0  0  0  0  0  0  0  0  0  0  0
  -16.1783  -13.7576    6.5809 C   0  0  0  0  0  0  0  0  0  0  0  0
  -15.9400  -11.3867    6.9300 C   0  0  0  0  0  0  0  0  0  0  0  0
  -15.2368  -14.0553    7.6609 C   0  0  0  0  0  0  0  0  0  0  0  0
  -14.5738  -11.3652    7.1082 C   0  0  0  0  0  0  0  0  0  0  0  0
  -13.9377  -10.3543    7.7674 C   0  0  0  0  0  0  0  0  0  0  0  0
  -14.7041   -9.3240    8.2671 C   0  0  0  0  0  0  0  0  0  0  0  0
  -16.0736   -9.3019    8.1138 C   0  0  0  0  0  0  0  0  0  0  0  0
  -16.6752  -10.3472    7.4397 C   0  0  0  0  0  0  0  0  0  0  0  0
  -14.2495  -15.0072    7.5724 C   0  0  0  0  0  0  0  0  0  0  0  0
  -13.4086  -15.2377    8.6514 C   0  0  0  0  0  0  0  0  0  0  0  0
  -13.5101  -14.5443    9.8431 C   0  0  0  0  0  0  0  0  0  0  0  0
  -14.5057  -13.5863    9.9253 C   0  0  0  0  0  0  0  0  0  0  0  0
  -15.3490  -13.3490    8.8565 C   0  0  0  0  0  0  0  0  0  0  0  0
  -12.5903  -14.8416   10.9761 C   0  0  0  0  0  0  0  0  0  0  0  0
  -14.0527  -14.2765   12.7882 C   0  0  0  0  0  0  0  0  0  0  0  0
  -13.9901  -14.6420   14.2439 C   0  0  0  0  0  0  0  0  0  0  0  0
  -12.6673  -15.3228   14.4806 C   0  0  1  0  0  0  0  0  0  0  0  0
  -11.6005  -14.2936   14.2762 C   0  0  0  0  0  0  0  0  0  0  0  0
  -11.6577  -13.7757   12.8848 C   0  0  0  0  0  0  0  0  0  0  0  0
  -12.2754  -15.7554   16.9090 C   0  0  0  0  0  0  0  0  0  0  0  0
  -12.5622  -17.8806   17.0343 C   0  0  0  0  0  0  0  0  0  0  0  0
  -12.7503  -17.4849   15.7232 C   0  0  0  0  0  0  0  0  0  0  0  0
  -12.7042  -19.2196   17.3258 C   0  0  0  0  0  0  0  0  0  0  0  0
  -13.0265  -20.1476   16.3370 C   0  0  0  0  0  0  0  0  0  0  0  0
  -13.2174  -19.7839   15.0375 C   0  0  0  0  0  0  0  0  0  0  0  0
  -13.0677  -18.4140   14.7599 C   0  0  0  0  0  0  0  0  0  0  0  0
  -14.4045  -21.7757   14.0613 C   0  0  0  0  0  0  0  0  0  0  0  0
  -14.8115  -22.5474   12.8274 C   0  0  0  0  0  0  0  0  0  0  0  0
  -16.3104  -22.7108   12.8431 C   0  0  0  0  0  0  0  0  0  0  0  0
  -18.8993  -13.0911    3.4649 C   0  0  0  0  0  0  0  0  0  0  0  0
  -17.4426  -12.2458    5.1731 N   0  0  0  0  0  0  0  0  0  0  0  0
  -16.7732  -14.8598    5.8563 N   0  0  0  0  0  0  0  0  0  0  0  0
  -12.8428  -13.9617   12.1363 N   0  0  1  0  0  4  0  0  0  0  0  0
  -12.5713  -16.1389   15.6302 N   0  0  0  0  0  0  0  0  0  0  0  0
  -12.2685  -16.7807   17.7431 N   0  0  0  0  0  0  0  0  0  0  0  0
  -13.5554  -20.6516   13.9633 N   0  0  0  0  0  0  0  0  0  0  0  0
  -14.8416  -22.1637   15.1618 O   0  0  0  0  0  0  0  0  0  0  0  0
  -12.0453  -14.5337   17.1859 O   0  0  0  0  0  0  0  0  0  0  0  0
  -18.1665  -15.6538    4.2204 O   0  0  0  0  0  0  0  0  0  0  0  0
  1  2  1  0
 35  1  1  0
  1 42  2  0
  2 33  2  0
 34  2  1  0
  4  3  2  0
  3  5  1  0
  3 34  1  0
  6  4  1  0
  4 35  1  0
  5  7  2  0
  5 11  1  0
 12  6  2  0
 16  6  1  0
  7  8  1  0
  8  9  2  0
 10  9  1  0
 11 10  2  0
 13 12  1  0
 14 13  2  0
 14 15  1  0
 17 14  1  0
 15 16  2  0
 36 17  1  6
 19 18  1  0
 18 36  1  0
 20 19  1  0
 20 21  1  0
 20 37  1  1
 21 22  1  0
 22 36  1  0
 37 23  1  0
 23 38  1  0
 23 41  2  0
 25 24  2  0
 26 24  1  0
 24 38  1  0
 29 25  1  0
 25 37  1  0
 27 26  2  0
 28 27  1  0
 28 29  2  0
 39 28  1  0
 30 31  1  0
 30 39  1  0
 30 40  2  0
 31 32  1  0
M  CHG  1  36   1
M  END
$$$$
