
     RDKit          3D

 42 47  0  0  0  0  0  0  0  0999 V2000
  -16.1480  -15.7342    5.5077 C   0  0  0  0  0  0  0  0  0  0  0  0
  -16.2666  -14.4493    4.8248 C   0  0  0  0  0  0  0  0  0  0  0  0
  -15.7157  -13.3895    6.9939 C   0  0  0  0  0  0  0  0  0  0  0  0
  -15.6052  -14.5362    7.6256 C   0  0  0  0  0  0  0  0  0  0  0  0
  -15.4995  -12.1317    7.7072 C   0  0  0  0  0  0  0  0  0  0  0  0
  -15.2740  -14.6425    9.0471 C   0  0  0  0  0  0  0  0  0  0  0  0
  -15.7061  -12.1257    9.0696 C   0  0  0  0  0  0  0  0  0  0  0  0
  -15.5586  -11.0007    9.8271 C   0  0  0  0  0  0  0  0  0  0  0  0
  -15.1888   -9.8356    9.1911 C   0  0  0  0  0  0  0  0  0  0  0  0
  -14.9712   -9.7926    7.8308 C   0  0  0  0  0  0  0  0  0  0  0  0
  -15.1327  -10.9562    7.1035 C   0  0  0  0  0  0  0  0  0  0  0  0
  -14.2435  -15.4093    9.5357 C   0  0  0  0  0  0  0  0  0  0  0  0
  -14.0083  -15.4670   10.9017 C   0  0  0  0  0  0  0  0  0  0  0  0
  -14.7725  -14.7770   11.8243 C   0  0  0  0  0  0  0  0  0  0  0  0
  -15.8079  -14.0057   11.3255 C   0  0  0  0  0  0  0  0  0  0  0  0
  -16.0512  -13.9416    9.9667 C   0  0  0  0  0  0  0  0  0  0  0  0
  -14.4858  -14.8855   13.2817 C   0  0  0  0  0  0  0  0  0  0  0  0
  -14.4500  -17.2452   13.6968 C   0  0  0  0  0  0  0  0  0  0  0  0
  -14.0279  -18.0160   14.9152 C   0  0  0  0  0  0  0  0  0  0  0  0
  -13.7773  -17.0176   16.0150 C   0  0  1  0  0  0  0  0  0  0  0  0
  -15.0977  -16.4051   16.3619 C   0  0  0  0  0  0  0  0  0  0  0  0
  -15.6618  -15.7136   15.1740 C   0  0  0  0  0  0  0  0  0  0  0  0
  -13.1402  -18.5274   17.8999 C   0  0  0  0  0  0  0  0  0  0  0  0
  -11.3277  -17.6164   18.6065 C   0  0  0  0  0  0  0  0  0  0  0  0
  -11.8087  -16.8776   17.5418 C   0  0  0  0  0  0  0  0  0  0  0  0
  -10.1613  -17.1929   19.2050 C   0  0  0  0  0  0  0  0  0  0  0  0
   -9.4853  -16.0595   18.7563 C   0  0  0  0  0  0  0  0  0  0  0  0
   -9.9378  -15.3138   17.7090 C   0  0  0  0  0  0  0  0  0  0  0  0
  -11.1291  -15.7616   17.1122 C   0  0  0  0  0  0  0  0  0  0  0  0
   -8.9376  -13.9785   15.8261 C   0  0  0  0  0  0  0  0  0  0  0  0
   -8.2689  -12.7030   15.3684 C   0  0  0  0  0  0  0  0  0  0  0  0
   -6.8723  -13.0379   14.9089 C   0  0  0  0  0  0  0  0  0  0  0  0
  -16.5693  -14.4204    3.5495 C   0  0  0  0  0  0  0  0  0  0  0  0
  -16.0437  -13.2872    5.5975 N   0  0  0  0  0  0  0  0  0  0  0  0
  -15.8250  -15.7520    6.8723 N   0  0  0  0  0  0  0  0  0  0  0  0
  -15.1664  -16.0467   13.8922 N   0  0  1  0  0  4  0  0  0  0  0  0
  -12.9582  -17.4450   17.0842 N   0  0  0  0  0  0  0  0  0  0  0  0
  -12.1796  -18.6336   18.8015 N   0  0  0  0  0  0  0  0  0  0  0  0
   -9.3172  -14.1516   17.1752 N   0  0  0  0  0  0  0  0  0  0  0  0
   -9.1409  -14.8671   14.9765 O   0  0  0  0  0  0  0  0  0  0  0  0
  -14.1431  -19.2972   17.7464 O   0  0  0  0  0  0  0  0  0  0  0  0
  -16.3265  -16.8218    4.9096 O   0  0  0  0  0  0  0  0  0  0  0  0
  1  2  1  0
 35  1  1  0
  1 42  2  0
  2 33  2  0
 34  2  1  0
  4  3  2  0
  3  5  1  0
  3 34  1  0
  6  4  1  0
  4 35  1  0
  5  7  2  0
  5 11  1  0
 12  6  2  0
 16  6  1  0
  7  8  1  0
  8  9  2  0
 10  9  1  0
 11 10  2  0
 13 12  1  0
 14 13  2  0
 14 15  1  0
 17 14  1  0
 15 16  2  0
 36 17  1  1
 19 18  1  0
 18 36  1  0
 20 19  1  0
 20 21  1  0
 20 37  1  1
 21 22  1  0
 22 36  1  0
 37 23  1  0
 23 38  1  0
 23 41  2  0
 25 24  2  0
 26 24  1  0
 24 38  1  0
 29 25  1  0
 25 37  1  0
 27 26  2  0
 28 27  1  0
 28 29  2  0
 39 28  1  0
 30 31  1  0
 30 39  1  0
 30 40  2  0
 31 32  1  0
M  CHG  1  36   1
M  END
$$$$
