
     RDKit          3D

 42 47  0  0  0  0  0  0  0  0999 V2000
  -15.6082   -9.8252    6.6330 C   0  0  0  0  0  0  0  0  0  0  0  0
  -14.5895   -9.3907    7.5842 C   0  0  0  0  0  0  0  0  0  0  0  0
  -14.9747  -11.5258    8.7778 C   0  0  0  0  0  0  0  0  0  0  0  0
  -15.8942  -11.9335    7.9325 C   0  0  0  0  0  0  0  0  0  0  0  0
  -14.5947  -12.3642    9.9138 C   0  0  0  0  0  0  0  0  0  0  0  0
  -16.5924  -13.2133    8.0595 C   0  0  0  0  0  0  0  0  0  0  0  0
  -14.2421  -13.6707    9.6544 C   0  0  0  0  0  0  0  0  0  0  0  0
  -13.8968  -14.5454   10.6428 C   0  0  0  0  0  0  0  0  0  0  0  0
  -13.9057  -14.0896   11.9431 C   0  0  0  0  0  0  0  0  0  0  0  0
  -14.2513  -12.7916   12.2516 C   0  0  0  0  0  0  0  0  0  0  0  0
  -14.5945  -11.9409   11.2183 C   0  0  0  0  0  0  0  0  0  0  0  0
  -17.1316  -13.6754    9.2361 C   0  0  0  0  0  0  0  0  0  0  0  0
  -17.7637  -14.9098    9.2725 C   0  0  0  0  0  0  0  0  0  0  0  0
  -17.8859  -15.7231    8.1613 C   0  0  0  0  0  0  0  0  0  0  0  0
  -17.3418  -15.2513    6.9793 C   0  0  0  0  0  0  0  0  0  0  0  0
  -16.7097  -14.0233    6.9321 C   0  0  0  0  0  0  0  0  0  0  0  0
  -18.5619  -17.0466    8.2588 C   0  0  0  0  0  0  0  0  0  0  0  0
  -18.8710  -18.7871    9.8764 C   0  0  0  0  0  0  0  0  0  0  0  0
  -18.5972  -20.2615    9.7887 C   0  0  0  0  0  0  0  0  0  0  0  0
  -17.8630  -20.5069    8.4964 C   0  0  1  0  0  0  0  0  0  0  0  0
  -16.5226  -19.8538    8.6214 C   0  0  0  0  0  0  0  0  0  0  0  0
  -16.6900  -18.3931    8.8351 C   0  0  0  0  0  0  0  0  0  0  0  0
  -18.1446  -22.2213    6.7020 C   0  0  0  0  0  0  0  0  0  0  0  0
  -17.8253  -24.0512    7.7810 C   0  0  0  0  0  0  0  0  0  0  0  0
  -17.6988  -22.9913    8.6595 C   0  0  0  0  0  0  0  0  0  0  0  0
  -17.6536  -25.3228    8.2826 C   0  0  0  0  0  0  0  0  0  0  0  0
  -17.3620  -25.5390    9.6283 C   0  0  0  0  0  0  0  0  0  0  0  0
  -17.2318  -24.5121   10.5150 C   0  0  0  0  0  0  0  0  0  0  0  0
  -17.4110  -23.2227    9.9844 C   0  0  0  0  0  0  0  0  0  0  0  0
  -16.1406  -25.6503   12.4752 C   0  0  0  0  0  0  0  0  0  0  0  0
  -15.8423  -25.6533   13.9566 C   0  0  0  0  0  0  0  0  0  0  0  0
  -14.3827  -25.3263   14.1473 C   0  0  0  0  0  0  0  0  0  0  0  0
  -14.0020   -8.2306    7.4175 C   0  0  0  0  0  0  0  0  0  0  0  0
  -14.2916  -10.2665    8.6526 N   0  0  0  0  0  0  0  0  0  0  0  0
  -16.2303  -11.0676    6.8229 N   0  0  0  0  0  0  0  0  0  0  0  0
  -17.9398  -17.9088    9.2854 N   0  0  1  0  0  4  0  0  0  0  0  0
  -17.8990  -21.8247    7.9875 N   0  0  0  0  0  0  0  0  0  0  0  0
  -18.1025  -23.5362    6.5741 N   0  0  0  0  0  0  0  0  0  0  0  0
  -16.9291  -24.6304   11.8989 N   0  0  0  0  0  0  0  0  0  0  0  0
  -15.6693  -26.5739   11.7841 O   0  0  0  0  0  0  0  0  0  0  0  0
  -18.3785  -21.3642    5.7895 O   0  0  0  0  0  0  0  0  0  0  0  0
  -15.9427   -9.1200    5.6517 O   0  0  0  0  0  0  0  0  0  0  0  0
  1  2  1  0
 35  1  1  0
  1 42  2  0
  2 33  2  0
 34  2  1  0
  4  3  2  0
  3  5  1  0
  3 34  1  0
  6  4  1  0
  4 35  1  0
  5  7  2  0
  5 11  1  0
 12  6  2  0
 16  6  1  0
  7  8  1  0
  8  9  2  0
 10  9  1  0
 11 10  2  0
 13 12  1  0
 14 13  2  0
 14 15  1  0
 17 14  1  0
 15 16  2  0
 36 17  1  6
 19 18  1  0
 18 36  1  0
 20 19  1  0
 20 21  1  0
 20 37  1  1
 21 22  1  0
 22 36  1  0
 37 23  1  0
 23 38  1  0
 23 41  2  0
 25 24  2  0
 26 24  1  0
 24 38  1  0
 29 25  1  0
 25 37  1  0
 27 26  2  0
 28 27  1  0
 28 29  2  0
 39 28  1  0
 30 31  1  0
 30 39  1  0
 30 40  2  0
 31 32  1  0
M  CHG  1  36   1
M  END
$$$$
