
     RDKit          3D

 24 27  0  0  0  0  0  0  0  0999 V2000
   26.3938   56.3862   86.7659 C   0  0  0  0  0  0  0  0  0  0  0  0
   22.3569   55.0748   90.0860 C   0  0  0  0  0  0  0  0  0  0  0  0
   29.8899   55.3646   85.8359 C   0  0  0  0  0  0  0  0  0  0  0  0
   27.7776   55.8701   86.8419 C   0  0  0  0  0  0  0  0  0  0  0  0
   30.3479   54.8966   87.0420 C   0  0  0  0  0  0  0  0  0  0  0  0
   29.5129   54.9214   88.1352 C   0  0  0  0  0  0  0  0  0  0  0  0
   28.5955   55.8527   85.7435 C   0  0  0  0  0  0  0  0  0  0  0  0
   31.5966   54.4041   87.2173 F   0  0  0  0  0  0  0  0  0  0  0  0
   28.2504   55.4082   88.0029 N   0  0  0  0  0  0  0  0  0  0  0  0
   25.6682   55.9897   85.7985 O   0  0  0  0  0  0  0  0  0  0  0  0
   25.8892   57.2856   87.7269 N   0  0  0  0  0  0  0  0  0  0  0  0
   24.5471   57.1230   88.2264 C   0  0  1  0  0  0  0  0  0  0  0  0
   23.5779   58.2230   87.7775 C   0  0  0  0  0  0  0  0  0  0  0  0
   23.4173   56.8530   87.3027 C   0  0  2  0  0  0  0  0  0  0  0  0
   22.2951   55.9390   87.7156 C   0  0  2  0  0  0  0  0  0  0  0  0
   22.7887   55.0850   88.7469 N   0  0  0  0  0  0  0  0  0  0  0  0
   21.9746   55.0583   86.5001 C   0  0  0  0  0  0  0  0  0  0  0  0
   20.6990   55.3678   86.0990 O   0  0  0  0  0  0  0  0  0  0  0  0
   20.4602   56.6758   86.5004 C   0  0  0  0  0  0  0  0  0  0  0  0
   21.0094   56.6223   87.9373 C   0  0  1  0  0  0  0  0  0  0  0  0
   19.9849   55.9134   88.7473 C   0  0  0  0  0  0  0  0  0  0  0  0
   20.6897   55.5978   90.4163 S   0  0  0  0  0  0  0  0  0  0  0  0
   23.1032   54.7116   91.0483 N   0  0  0  0  0  0  0  0  0  0  0  0
   22.9623   53.7719   91.5258 H   0  0  0  0  0  0  0  0  0  0  0  0
  1  4  1  0
  1 10  2  0
 11  1  1  0
 16  2  1  0
  2 22  1  0
  2 23  2  0
  3  5  2  0
  7  3  1  0
  4  7  2  0
  4  9  1  0
  6  5  1  0
  5  8  1  0
  9  6  2  0
 12 11  1  6
 13 12  1  0
 14 12  1  0
 14 13  1  1
 15 14  1  0
 15 16  1  0
 15 17  1  6
 15 20  1  0
 17 18  1  0
 18 19  1  0
 20 19  1  6
 20 21  1  0
 21 22  1  0
 23 24  1  0
M  END
$$$$
