
     RDKit          3D

 24 27  0  0  0  0  0  0  0  0999 V2000
   26.1658   56.4114   86.8038 C   0  0  0  0  0  0  0  0  0  0  0  0
   21.8984   55.2653   90.2677 C   0  0  0  0  0  0  0  0  0  0  0  0
   29.7198   55.5721   85.9117 C   0  0  0  0  0  0  0  0  0  0  0  0
   27.5845   56.0056   86.9026 C   0  0  0  0  0  0  0  0  0  0  0  0
   30.2213   55.2424   87.1459 C   0  0  0  0  0  0  0  0  0  0  0  0
   29.3960   55.2986   88.2453 C   0  0  0  0  0  0  0  0  0  0  0  0
   28.3922   55.9551   85.7976 C   0  0  0  0  0  0  0  0  0  0  0  0
   31.5043   54.8586   87.3436 F   0  0  0  0  0  0  0  0  0  0  0  0
   28.0999   55.6792   88.0911 N   0  0  0  0  0  0  0  0  0  0  0  0
   25.4555   55.8599   85.9033 O   0  0  0  0  0  0  0  0  0  0  0  0
   25.6127   57.3739   87.6725 N   0  0  0  0  0  0  0  0  0  0  0  0
   24.3759   57.0950   88.3577 C   0  0  1  0  0  0  0  0  0  0  0  0
   23.4770   58.3230   88.5449 C   0  0  0  0  0  0  0  0  0  0  0  0
   23.0715   57.2337   87.6634 C   0  0  2  0  0  0  0  0  0  0  0  0
   21.9448   56.2801   87.9574 C   0  0  2  0  0  0  0  0  0  0  0  0
   22.3985   55.3678   88.9566 N   0  0  0  0  0  0  0  0  0  0  0  0
   21.7022   55.4757   86.6729 C   0  0  0  0  0  0  0  0  0  0  0  0
   20.4440   55.7937   86.2259 O   0  0  0  0  0  0  0  0  0  0  0  0
   20.1632   57.0697   86.6970 C   0  0  0  0  0  0  0  0  0  0  0  0
   20.6382   56.9306   88.1543 C   0  0  1  0  0  0  0  0  0  0  0  0
   19.5851   56.1574   88.8623 C   0  0  0  0  0  0  0  0  0  0  0  0
   20.2079   55.7438   90.5426 S   0  0  0  0  0  0  0  0  0  0  0  0
   22.5998   54.8506   91.2428 N   0  0  0  0  0  0  0  0  0  0  0  0
   22.3867   53.9215   91.7143 H   0  0  0  0  0  0  0  0  0  0  0  0
  1  4  1  0
  1 10  2  0
 11  1  1  0
 16  2  1  0
  2 22  1  0
  2 23  2  0
  3  5  2  0
  7  3  1  0
  4  7  2  0
  4  9  1  0
  6  5  1  0
  5  8  1  0
  9  6  2  0
 12 11  1  6
 13 12  1  0
 14 12  1  0
 14 13  1  1
 15 14  1  0
 15 16  1  0
 15 17  1  6
 15 20  1  0
 17 18  1  0
 18 19  1  0
 20 19  1  6
 20 21  1  0
 21 22  1  0
 23 24  1  0
M  END
$$$$
