
     RDKit          3D

 24 27  0  0  0  0  0  0  0  0999 V2000
   26.2001   56.1094   86.2018 C   0  0  0  0  0  0  0  0  0  0  0  0
   21.8229   55.3085   90.3039 C   0  0  0  0  0  0  0  0  0  0  0  0
   29.2835   54.0478   86.8134 C   0  0  0  0  0  0  0  0  0  0  0  0
   27.5994   55.7141   86.4719 C   0  0  0  0  0  0  0  0  0  0  0  0
   30.2220   55.0355   86.9773 C   0  0  0  0  0  0  0  0  0  0  0  0
   29.8364   56.3530   86.8862 C   0  0  0  0  0  0  0  0  0  0  0  0
   27.9661   54.3974   86.5594 C   0  0  0  0  0  0  0  0  0  0  0  0
   31.5276   54.7799   87.2278 F   0  0  0  0  0  0  0  0  0  0  0  0
   28.5345   56.6541   86.6358 N   0  0  0  0  0  0  0  0  0  0  0  0
   25.9938   57.2845   85.7589 O   0  0  0  0  0  0  0  0  0  0  0  0
   25.1279   55.2219   86.4243 N   0  0  0  0  0  0  0  0  0  0  0  0
   24.1561   55.5136   87.4479 C   0  0  1  0  0  0  0  0  0  0  0  0
   23.9231   57.0117   87.6767 C   0  0  0  0  0  0  0  0  0  0  0  0
   22.8703   56.1743   87.1123 C   0  0  2  0  0  0  0  0  0  0  0  0
   21.6063   55.7981   87.8376 C   0  0  2  0  0  0  0  0  0  0  0  0
   21.9706   54.9750   88.9450 N   0  0  0  0  0  0  0  0  0  0  0  0
   20.7842   54.9349   86.8708 C   0  0  0  0  0  0  0  0  0  0  0  0
   19.6351   55.6285   86.5835 O   0  0  0  0  0  0  0  0  0  0  0  0
   19.9303   56.9758   86.7465 C   0  0  0  0  0  0  0  0  0  0  0  0
   20.6917   56.9261   88.0832 C   0  0  1  0  0  0  0  0  0  0  0  0
   19.6621   56.7583   89.1415 C   0  0  0  0  0  0  0  0  0  0  0  0
   20.5231   56.4427   90.7357 S   0  0  0  0  0  0  0  0  0  0  0  0
   22.5721   54.8360   91.2152 N   0  0  0  0  0  0  0  0  0  0  0  0
   22.1836   54.1831   91.9594 H   0  0  0  0  0  0  0  0  0  0  0  0
  1  4  1  0
  1 10  2  0
 11  1  1  0
 16  2  1  0
  2 22  1  0
  2 23  2  0
  3  5  2  0
  7  3  1  0
  4  7  2  0
  4  9  1  0
  6  5  1  0
  5  8  1  0
  9  6  2  0
 12 11  1  6
 13 12  1  0
 14 12  1  0
 14 13  1  1
 15 14  1  0
 15 16  1  0
 15 17  1  6
 15 20  1  0
 17 18  1  0
 18 19  1  0
 20 19  1  6
 20 21  1  0
 21 22  1  0
 23 24  1  0
M  END
$$$$
