
     RDKit          3D

 24 27  0  0  0  0  0  0  0  0999 V2000
   26.7754   54.8229   87.2839 C   0  0  0  0  0  0  0  0  0  0  0  0
   21.8149   55.1150   90.3283 C   0  0  0  0  0  0  0  0  0  0  0  0
   30.3822   55.8100   86.8982 C   0  0  0  0  0  0  0  0  0  0  0  0
   28.0088   55.5053   86.8364 C   0  0  0  0  0  0  0  0  0  0  0  0
   30.2740   56.8115   85.9663 C   0  0  0  0  0  0  0  0  0  0  0  0
   29.0316   57.1480   85.4802 C   0  0  0  0  0  0  0  0  0  0  0  0
   29.2378   55.1576   87.3309 C   0  0  0  0  0  0  0  0  0  0  0  0
   31.3402   57.4975   85.4917 F   0  0  0  0  0  0  0  0  0  0  0  0
   27.9339   56.4840   85.9302 N   0  0  0  0  0  0  0  0  0  0  0  0
   26.8984   53.8647   88.1124 O   0  0  0  0  0  0  0  0  0  0  0  0
   25.5053   55.2139   86.8139 N   0  0  0  0  0  0  0  0  0  0  0  0
   24.4381   55.4589   87.7510 C   0  0  1  0  0  0  0  0  0  0  0  0
   24.2141   56.9426   88.0658 C   0  0  0  0  0  0  0  0  0  0  0  0
   23.2087   56.1789   87.3352 C   0  0  2  0  0  0  0  0  0  0  0  0
   21.8681   55.7878   87.8965 C   0  0  2  0  0  0  0  0  0  0  0  0
   22.0969   54.8766   88.9706 N   0  0  0  0  0  0  0  0  0  0  0  0
   21.1334   55.0210   86.7883 C   0  0  0  0  0  0  0  0  0  0  0  0
   20.0358   55.7666   86.4372 O   0  0  0  0  0  0  0  0  0  0  0  0
   20.3409   57.0895   86.7303 C   0  0  0  0  0  0  0  0  0  0  0  0
   20.9570   56.9211   88.1307 C   0  0  1  0  0  0  0  0  0  0  0  0
   19.8190   56.7071   89.0620 C   0  0  0  0  0  0  0  0  0  0  0  0
   20.5015   56.2521   90.7080 S   0  0  0  0  0  0  0  0  0  0  0  0
   22.4544   54.5563   91.2737 N   0  0  0  0  0  0  0  0  0  0  0  0
   21.9538   53.9497   91.9896 H   0  0  0  0  0  0  0  0  0  0  0  0
  1  4  1  0
  1 10  2  0
 11  1  1  0
 16  2  1  0
  2 22  1  0
  2 23  2  0
  3  5  2  0
  7  3  1  0
  4  7  2  0
  4  9  1  0
  6  5  1  0
  5  8  1  0
  9  6  2  0
 12 11  1  6
 13 12  1  0
 14 12  1  0
 14 13  1  1
 15 14  1  0
 15 16  1  0
 15 17  1  6
 15 20  1  0
 17 18  1  0
 18 19  1  0
 20 19  1  6
 20 21  1  0
 21 22  1  0
 23 24  1  0
M  END
$$$$
