
     RDKit          3D

 24 27  0  0  0  0  0  0  0  0999 V2000
   26.2183   55.9150   85.9054 C   0  0  0  0  0  0  0  0  0  0  0  0
   22.2269   55.1302   90.2972 C   0  0  0  0  0  0  0  0  0  0  0  0
   29.7234   56.4711   87.1451 C   0  0  0  0  0  0  0  0  0  0  0  0
   27.5610   55.6875   86.4823 C   0  0  0  0  0  0  0  0  0  0  0  0
   30.0488   55.2059   87.5653 C   0  0  0  0  0  0  0  0  0  0  0  0
   29.1239   54.1952   87.4384 C   0  0  0  0  0  0  0  0  0  0  0  0
   28.4697   56.7053   86.6013 C   0  0  0  0  0  0  0  0  0  0  0  0
   31.2495   54.8931   88.1066 F   0  0  0  0  0  0  0  0  0  0  0  0
   27.9053   54.4661   86.8998 N   0  0  0  0  0  0  0  0  0  0  0  0
   26.0751   56.9016   85.1145 O   0  0  0  0  0  0  0  0  0  0  0  0
   25.1310   55.0733   86.2157 N   0  0  0  0  0  0  0  0  0  0  0  0
   24.2300   55.4295   87.2826 C   0  0  1  0  0  0  0  0  0  0  0  0
   23.9040   56.9262   87.3489 C   0  0  0  0  0  0  0  0  0  0  0  0
   22.8739   55.9573   86.9910 C   0  0  2  0  0  0  0  0  0  0  0  0
   21.7081   55.5954   87.8715 C   0  0  2  0  0  0  0  0  0  0  0  0
   22.2035   54.7819   88.9342 N   0  0  0  0  0  0  0  0  0  0  0  0
   20.7688   54.7268   87.0236 C   0  0  0  0  0  0  0  0  0  0  0  0
   19.5959   55.4236   86.8734 O   0  0  0  0  0  0  0  0  0  0  0  0
   19.9146   56.7709   86.9838 C   0  0  0  0  0  0  0  0  0  0  0  0
   20.8356   56.7309   88.2163 C   0  0  1  0  0  0  0  0  0  0  0  0
   19.9446   56.5797   89.3958 C   0  0  0  0  0  0  0  0  0  0  0  0
   20.9954   56.2759   90.8743 S   0  0  0  0  0  0  0  0  0  0  0  0
   23.0813   54.6631   91.1136 N   0  0  0  0  0  0  0  0  0  0  0  0
   22.8419   53.8430   91.7470 H   0  0  0  0  0  0  0  0  0  0  0  0
  1  4  1  0
  1 10  2  0
 11  1  1  0
 16  2  1  0
  2 22  1  0
  2 23  2  0
  3  5  2  0
  7  3  1  0
  4  7  2  0
  4  9  1  0
  6  5  1  0
  5  8  1  0
  9  6  2  0
 12 11  1  6
 13 12  1  0
 14 12  1  0
 14 13  1  1
 15 14  1  0
 15 16  1  0
 15 17  1  6
 15 20  1  0
 17 18  1  0
 18 19  1  0
 20 19  1  6
 20 21  1  0
 21 22  1  0
 23 24  1  0
M  END
$$$$
