
     RDKit          3D

 24 27  0  0  0  0  0  0  0  0999 V2000
   26.5137   56.2594   86.6906 C   0  0  0  0  0  0  0  0  0  0  0  0
   22.0005   54.9775   90.2658 C   0  0  0  0  0  0  0  0  0  0  0  0
   30.2437   55.9993   86.3021 C   0  0  0  0  0  0  0  0  0  0  0  0
   27.9275   55.8751   86.8928 C   0  0  0  0  0  0  0  0  0  0  0  0
   30.5451   55.1243   87.3155 C   0  0  0  0  0  0  0  0  0  0  0  0
   29.5313   54.6347   88.1064 C   0  0  0  0  0  0  0  0  0  0  0  0
   28.9244   56.3722   86.0959 C   0  0  0  0  0  0  0  0  0  0  0  0
   31.8057   54.7100   87.5835 F   0  0  0  0  0  0  0  0  0  0  0  0
   28.2504   55.0251   87.8715 N   0  0  0  0  0  0  0  0  0  0  0  0
   26.2803   57.3833   86.1413 O   0  0  0  0  0  0  0  0  0  0  0  0
   25.4569   55.4161   87.0894 N   0  0  0  0  0  0  0  0  0  0  0  0
   24.1476   55.9699   87.3257 C   0  0  1  0  0  0  0  0  0  0  0  0
   23.3700   56.2985   86.0458 C   0  0  0  0  0  0  0  0  0  0  0  0
   22.9237   55.2287   86.9315 C   0  0  2  0  0  0  0  0  0  0  0  0
   21.6839   55.2945   87.7821 C   0  0  2  0  0  0  0  0  0  0  0  0
   21.9134   54.5001   88.9452 N   0  0  0  0  0  0  0  0  0  0  0  0
   20.5620   54.6234   86.9779 C   0  0  0  0  0  0  0  0  0  0  0  0
   19.6284   55.5900   86.6981 O   0  0  0  0  0  0  0  0  0  0  0  0
   20.3015   56.8049   86.6894 C   0  0  0  0  0  0  0  0  0  0  0  0
   21.1482   56.6542   87.9658 C   0  0  1  0  0  0  0  0  0  0  0  0
   20.2235   56.8803   89.1068 C   0  0  0  0  0  0  0  0  0  0  0  0
   21.1172   56.4695   90.6607 S   0  0  0  0  0  0  0  0  0  0  0  0
   22.6757   54.3903   91.1681 N   0  0  0  0  0  0  0  0  0  0  0  0
   22.2156   53.7010   91.8347 H   0  0  0  0  0  0  0  0  0  0  0  0
  1  4  1  0
  1 10  2  0
 11  1  1  0
 16  2  1  0
  2 22  1  0
  2 23  2  0
  3  5  2  0
  7  3  1  0
  4  7  2  0
  4  9  1  0
  6  5  1  0
  5  8  1  0
  9  6  2  0
 12 11  1  6
 13 12  1  0
 14 12  1  0
 14 13  1  6
 15 14  1  0
 15 16  1  0
 15 17  1  6
 15 20  1  0
 17 18  1  0
 18 19  1  0
 20 19  1  6
 20 21  1  0
 21 22  1  0
 23 24  1  0
M  END
$$$$
