
     RDKit          3D

 24 27  0  0  0  0  0  0  0  0999 V2000
   26.3048   55.6625   85.9189 C   0  0  0  0  0  0  0  0  0  0  0  0
   22.1141   54.8571   90.1148 C   0  0  0  0  0  0  0  0  0  0  0  0
   30.0611   55.7640   86.0259 C   0  0  0  0  0  0  0  0  0  0  0  0
   27.7102   55.4108   86.3047 C   0  0  0  0  0  0  0  0  0  0  0  0
   30.3097   54.9047   87.0667 C   0  0  0  0  0  0  0  0  0  0  0  0
   29.2528   54.3081   87.7147 C   0  0  0  0  0  0  0  0  0  0  0  0
   28.7505   56.0134   85.6486 C   0  0  0  0  0  0  0  0  0  0  0  0
   31.5582   54.6075   87.4974 F   0  0  0  0  0  0  0  0  0  0  0  0
   27.9822   54.5790   87.3141 N   0  0  0  0  0  0  0  0  0  0  0  0
   26.0623   56.6924   85.2117 O   0  0  0  0  0  0  0  0  0  0  0  0
   25.2655   54.7972   86.3163 N   0  0  0  0  0  0  0  0  0  0  0  0
   24.3078   55.2318   87.3016 C   0  0  1  0  0  0  0  0  0  0  0  0
   24.0366   56.7408   87.2833 C   0  0  0  0  0  0  0  0  0  0  0  0
   22.9965   55.7949   86.8938 C   0  0  2  0  0  0  0  0  0  0  0  0
   21.7596   55.5141   87.7040 C   0  0  2  0  0  0  0  0  0  0  0  0
   22.1156   54.5917   88.7331 N   0  0  0  0  0  0  0  0  0  0  0  0
   20.7720   54.8039   86.7680 C   0  0  0  0  0  0  0  0  0  0  0  0
   19.6889   55.6331   86.6153 O   0  0  0  0  0  0  0  0  0  0  0  0
   20.1455   56.9286   86.8209 C   0  0  0  0  0  0  0  0  0  0  0  0
   20.9996   56.7172   88.0837 C   0  0  1  0  0  0  0  0  0  0  0  0
   20.0446   56.5981   89.2159 C   0  0  0  0  0  0  0  0  0  0  0  0
   20.9880   56.0966   90.7128 S   0  0  0  0  0  0  0  0  0  0  0  0
   22.8752   54.2529   90.9337 N   0  0  0  0  0  0  0  0  0  0  0  0
   22.4989   53.8745   91.8537 H   0  0  0  0  0  0  0  0  0  0  0  0
  1  4  1  0
  1 10  2  0
 11  1  1  0
 16  2  1  0
  2 22  1  0
  2 23  2  0
  3  5  2  0
  7  3  1  0
  4  7  2  0
  4  9  1  0
  6  5  1  0
  5  8  1  0
  9  6  2  0
 12 11  1  6
 13 12  1  0
 14 12  1  0
 14 13  1  1
 15 14  1  0
 15 16  1  0
 15 17  1  6
 15 20  1  0
 17 18  1  0
 18 19  1  0
 20 19  1  6
 20 21  1  0
 21 22  1  0
 23 24  1  0
M  END
$$$$
