
     RDKit          3D

 24 27  0  0  0  0  0  0  0  0999 V2000
   25.9336   55.9459   85.7188 C   0  0  0  0  0  0  0  0  0  0  0  0
   21.7792   54.9168   90.2883 C   0  0  0  0  0  0  0  0  0  0  0  0
   29.5801   55.7157   86.6027 C   0  0  0  0  0  0  0  0  0  0  0  0
   27.1904   55.7235   86.4658 C   0  0  0  0  0  0  0  0  0  0  0  0
   29.5002   55.2932   87.9059 C   0  0  0  0  0  0  0  0  0  0  0  0
   28.2635   55.0907   88.4738 C   0  0  0  0  0  0  0  0  0  0  0  0
   28.4134   55.9300   85.8849 C   0  0  0  0  0  0  0  0  0  0  0  0
   30.5895   55.0611   88.6755 F   0  0  0  0  0  0  0  0  0  0  0  0
   27.1432   55.3122   87.7360 N   0  0  0  0  0  0  0  0  0  0  0  0
   25.8390   57.0091   85.0259 O   0  0  0  0  0  0  0  0  0  0  0  0
   24.8737   55.0178   85.7674 N   0  0  0  0  0  0  0  0  0  0  0  0
   24.0413   54.9407   86.9413 C   0  0  1  0  0  0  0  0  0  0  0  0
   24.3749   55.9871   88.0112 C   0  0  0  0  0  0  0  0  0  0  0  0
   23.1089   56.0420   87.2885 C   0  0  2  0  0  0  0  0  0  0  0  0
   21.7682   55.7421   87.9034 C   0  0  2  0  0  0  0  0  0  0  0  0
   21.9639   54.7439   88.9043 N   0  0  0  0  0  0  0  0  0  0  0  0
   20.9044   55.1232   86.7959 C   0  0  0  0  0  0  0  0  0  0  0  0
   19.8676   55.9903   86.5568 O   0  0  0  0  0  0  0  0  0  0  0  0
   20.3155   57.2561   86.9117 C   0  0  0  0  0  0  0  0  0  0  0  0
   20.9858   56.9378   88.2601 C   0  0  1  0  0  0  0  0  0  0  0  0
   19.8835   56.7701   89.2424 C   0  0  0  0  0  0  0  0  0  0  0  0
   20.6050   56.1444   90.8142 S   0  0  0  0  0  0  0  0  0  0  0  0
   22.4104   54.2388   91.1582 N   0  0  0  0  0  0  0  0  0  0  0  0
   22.3244   53.1794   91.1946 H   0  0  0  0  0  0  0  0  0  0  0  0
  1  4  1  0
  1 10  2  0
 11  1  1  0
 16  2  1  0
  2 22  1  0
  2 23  2  0
  3  5  2  0
  7  3  1  0
  4  7  2  0
  4  9  1  0
  6  5  1  0
  5  8  1  0
  9  6  2  0
 12 11  1  6
 13 12  1  0
 14 12  1  0
 14 13  1  1
 15 14  1  0
 15 16  1  0
 15 17  1  6
 15 20  1  0
 17 18  1  0
 18 19  1  0
 20 19  1  6
 20 21  1  0
 21 22  1  0
 23 24  1  0
M  END
$$$$
