
     RDKit          3D

 24 27  0  0  0  0  0  0  0  0999 V2000
   26.3967   56.0924   86.3206 C   0  0  0  0  0  0  0  0  0  0  0  0
   22.3626   55.1790   90.4296 C   0  0  0  0  0  0  0  0  0  0  0  0
   30.0765   55.3498   86.5188 C   0  0  0  0  0  0  0  0  0  0  0  0
   27.7318   55.7146   86.8326 C   0  0  0  0  0  0  0  0  0  0  0  0
   30.1954   55.0017   87.8409 C   0  0  0  0  0  0  0  0  0  0  0  0
   29.0782   55.0145   88.6439 C   0  0  0  0  0  0  0  0  0  0  0  0
   28.8336   55.7072   86.0191 C   0  0  0  0  0  0  0  0  0  0  0  0
   31.3708   54.6406   88.4071 F   0  0  0  0  0  0  0  0  0  0  0  0
   27.8775   55.3711   88.1154 N   0  0  0  0  0  0  0  0  0  0  0  0
   25.9543   55.4645   85.3059 O   0  0  0  0  0  0  0  0  0  0  0  0
   25.6355   57.1107   86.9293 N   0  0  0  0  0  0  0  0  0  0  0  0
   24.6336   56.7697   87.9075 C   0  0  1  0  0  0  0  0  0  0  0  0
   24.0205   57.9814   88.6195 C   0  0  0  0  0  0  0  0  0  0  0  0
   23.2160   57.1654   87.7168 C   0  0  2  0  0  0  0  0  0  0  0  0
   22.1027   56.2555   88.1617 C   0  0  2  0  0  0  0  0  0  0  0  0
   22.6597   55.2959   89.0593 N   0  0  0  0  0  0  0  0  0  0  0  0
   21.6267   55.4994   86.9138 C   0  0  0  0  0  0  0  0  0  0  0  0
   20.3317   55.8860   86.6738 O   0  0  0  0  0  0  0  0  0  0  0  0
   20.1892   57.1595   87.2092 C   0  0  0  0  0  0  0  0  0  0  0  0
   20.8752   56.9582   88.5722 C   0  0  1  0  0  0  0  0  0  0  0  0
   19.9071   56.2134   89.4185 C   0  0  0  0  0  0  0  0  0  0  0  0
   20.7599   55.7250   90.9730 S   0  0  0  0  0  0  0  0  0  0  0  0
   23.1846   54.7059   91.2754 N   0  0  0  0  0  0  0  0  0  0  0  0
   23.4758   55.2685   92.1296 H   0  0  0  0  0  0  0  0  0  0  0  0
  1  4  1  0
  1 10  2  0
 11  1  1  0
 16  2  1  0
  2 22  1  0
  2 23  2  0
  3  5  2  0
  7  3  1  0
  4  7  2  0
  4  9  1  0
  6  5  1  0
  5  8  1  0
  9  6  2  0
 12 11  1  6
 13 12  1  0
 14 12  1  0
 14 13  1  1
 15 14  1  0
 15 16  1  0
 15 17  1  6
 15 20  1  0
 17 18  1  0
 18 19  1  0
 20 19  1  6
 20 21  1  0
 21 22  1  0
 23 24  1  0
M  END
$$$$
