
     RDKit          3D

 24 27  0  0  0  0  0  0  0  0999 V2000
   26.3186   56.4282   86.4011 C   0  0  0  0  0  0  0  0  0  0  0  0
   21.8872   55.1129   90.4603 C   0  0  0  0  0  0  0  0  0  0  0  0
   30.0732   56.2492   86.3528 C   0  0  0  0  0  0  0  0  0  0  0  0
   27.7082   55.9500   86.5677 C   0  0  0  0  0  0  0  0  0  0  0  0
   30.2762   55.0080   86.9018 C   0  0  0  0  0  0  0  0  0  0  0  0
   29.1900   54.2518   87.2777 C   0  0  0  0  0  0  0  0  0  0  0  0
   28.7781   56.7160   86.1880 C   0  0  0  0  0  0  0  0  0  0  0  0
   31.5068   54.4786   87.0968 F   0  0  0  0  0  0  0  0  0  0  0  0
   27.9360   54.7458   87.0993 N   0  0  0  0  0  0  0  0  0  0  0  0
   26.1363   57.6819   86.2801 O   0  0  0  0  0  0  0  0  0  0  0  0
   25.2297   55.5335   86.3763 N   0  0  0  0  0  0  0  0  0  0  0  0
   24.2887   55.5186   87.4678 C   0  0  1  0  0  0  0  0  0  0  0  0
   24.0329   56.8970   88.0885 C   0  0  0  0  0  0  0  0  0  0  0  0
   22.9784   56.2062   87.3543 C   0  0  2  0  0  0  0  0  0  0  0  0
   21.7488   55.6165   87.9912 C   0  0  2  0  0  0  0  0  0  0  0  0
   22.1711   54.8378   89.1100 N   0  0  0  0  0  0  0  0  0  0  0  0
   21.1385   54.6547   86.9625 C   0  0  0  0  0  0  0  0  0  0  0  0
   19.9128   55.1617   86.6093 O   0  0  0  0  0  0  0  0  0  0  0  0
   19.9764   56.5350   86.8074 C   0  0  0  0  0  0  0  0  0  0  0  0
   20.6509   56.5778   88.1902 C   0  0  1  0  0  0  0  0  0  0  0  0
   19.5978   56.2239   89.1771 C   0  0  0  0  0  0  0  0  0  0  0  0
   20.3973   56.0145   90.8200 S   0  0  0  0  0  0  0  0  0  0  0  0
   22.6443   54.7461   91.4127 N   0  0  0  0  0  0  0  0  0  0  0  0
   22.2670   54.1643   92.2190 H   0  0  0  0  0  0  0  0  0  0  0  0
  1  4  1  0
  1 10  2  0
 11  1  1  0
 16  2  1  0
  2 22  1  0
  2 23  2  0
  3  5  2  0
  7  3  1  0
  4  7  2  0
  4  9  1  0
  6  5  1  0
  5  8  1  0
  9  6  2  0
 12 11  1  6
 13 12  1  0
 14 12  1  0
 14 13  1  1
 15 14  1  0
 15 16  1  0
 15 17  1  6
 15 20  1  0
 17 18  1  0
 18 19  1  0
 20 19  1  6
 20 21  1  0
 21 22  1  0
 23 24  1  0
M  END
$$$$
