
     RDKit          3D

 24 27  0  0  0  0  0  0  0  0999 V2000
   26.5326   59.0103   86.8134 C   0  0  0  0  0  0  0  0  0  0  0  0
   22.3771   55.2238   90.2771 C   0  0  0  0  0  0  0  0  0  0  0  0
   28.5497   61.2814   84.5987 C   0  0  0  0  0  0  0  0  0  0  0  0
   26.9111   59.9912   85.7733 C   0  0  0  0  0  0  0  0  0  0  0  0
   27.5586   61.8239   83.8198 C   0  0  0  0  0  0  0  0  0  0  0  0
   26.2533   61.4423   84.0282 C   0  0  0  0  0  0  0  0  0  0  0  0
   28.2158   60.3600   85.5794 C   0  0  0  0  0  0  0  0  0  0  0  0
   27.7993   62.7287   82.8420 F   0  0  0  0  0  0  0  0  0  0  0  0
   25.9675   60.5358   85.0002 N   0  0  0  0  0  0  0  0  0  0  0  0
   27.2698   57.9823   86.9515 O   0  0  0  0  0  0  0  0  0  0  0  0
   25.3971   59.2004   87.6267 N   0  0  0  0  0  0  0  0  0  0  0  0
   24.8055   58.0757   88.3065 C   0  0  1  0  0  0  0  0  0  0  0  0
   23.6835   58.4560   89.2798 C   0  0  0  0  0  0  0  0  0  0  0  0
   23.3899   57.6990   88.0678 C   0  0  2  0  0  0  0  0  0  0  0  0
   22.9772   56.2517   88.0516 C   0  0  2  0  0  0  0  0  0  0  0  0
   23.3000   55.6946   89.3252 N   0  0  0  0  0  0  0  0  0  0  0  0
   23.8575   55.5545   87.0054 C   0  0  0  0  0  0  0  0  0  0  0  0
   23.0290   55.1228   85.9998 O   0  0  0  0  0  0  0  0  0  0  0  0
   21.9241   55.9643   86.0035 C   0  0  0  0  0  0  0  0  0  0  0  0
   21.6272   56.0141   87.5129 C   0  0  1  0  0  0  0  0  0  0  0  0
   20.9698   54.7247   87.8497 C   0  0  0  0  0  0  0  0  0  0  0  0
   20.8153   54.6192   89.6792 S   0  0  0  0  0  0  0  0  0  0  0  0
   22.6170   55.2162   91.5250 N   0  0  0  0  0  0  0  0  0  0  0  0
   22.9719   54.3381   92.0088 H   0  0  0  0  0  0  0  0  0  0  0  0
  1  4  1  0
  1 10  2  0
 11  1  1  0
 16  2  1  0
  2 22  1  0
  2 23  2  0
  3  5  2  0
  7  3  1  0
  4  7  2  0
  4  9  1  0
  6  5  1  0
  5  8  1  0
  9  6  2  0
 12 11  1  6
 13 12  1  0
 14 12  1  0
 14 13  1  1
 15 14  1  0
 15 16  1  0
 15 17  1  6
 15 20  1  0
 17 18  1  0
 18 19  1  0
 20 19  1  6
 20 21  1  0
 21 22  1  0
 23 24  1  0
M  END
$$$$
