
     RDKit          3D

 24 27  0  0  0  0  0  0  0  0999 V2000
   25.9521   55.4709   85.2350 C   0  0  0  0  0  0  0  0  0  0  0  0
   21.5174   54.7352   90.3269 C   0  0  0  0  0  0  0  0  0  0  0  0
   29.6665   55.5753   85.8037 C   0  0  0  0  0  0  0  0  0  0  0  0
   27.2752   55.5215   85.8937 C   0  0  0  0  0  0  0  0  0  0  0  0
   29.7134   55.6166   87.1746 C   0  0  0  0  0  0  0  0  0  0  0  0
   28.5377   55.6097   87.8893 C   0  0  0  0  0  0  0  0  0  0  0  0
   28.4360   55.5276   85.1667 C   0  0  0  0  0  0  0  0  0  0  0  0
   30.8719   55.6644   87.8732 F   0  0  0  0  0  0  0  0  0  0  0  0
   27.3514   55.5623   87.2268 N   0  0  0  0  0  0  0  0  0  0  0  0
   25.8496   54.7843   84.1683 O   0  0  0  0  0  0  0  0  0  0  0  0
   24.8394   56.1561   85.7636 N   0  0  0  0  0  0  0  0  0  0  0  0
   23.9597   55.4885   86.6896 C   0  0  1  0  0  0  0  0  0  0  0  0
   24.3971   55.6000   88.1549 C   0  0  0  0  0  0  0  0  0  0  0  0
   23.1806   56.2583   87.6911 C   0  0  2  0  0  0  0  0  0  0  0  0
   21.7882   55.8297   88.0690 C   0  0  2  0  0  0  0  0  0  0  0  0
   21.9030   54.7321   88.9738 N   0  0  0  0  0  0  0  0  0  0  0  0
   21.1260   55.3052   86.7875 C   0  0  0  0  0  0  0  0  0  0  0  0
   20.0818   56.1470   86.4959 O   0  0  0  0  0  0  0  0  0  0  0  0
   20.3983   57.3820   87.0468 C   0  0  0  0  0  0  0  0  0  0  0  0
   20.8926   56.9399   88.4357 C   0  0  1  0  0  0  0  0  0  0  0  0
   19.6767   56.6106   89.2239 C   0  0  0  0  0  0  0  0  0  0  0  0
   20.2092   55.8400   90.8066 S   0  0  0  0  0  0  0  0  0  0  0  0
   22.0616   53.9899   91.2005 N   0  0  0  0  0  0  0  0  0  0  0  0
   21.5065   53.6245   92.0308 H   0  0  0  0  0  0  0  0  0  0  0  0
  1  4  1  0
  1 10  2  0
 11  1  1  0
 16  2  1  0
  2 22  1  0
  2 23  2  0
  3  5  2  0
  7  3  1  0
  4  7  2  0
  4  9  1  0
  6  5  1  0
  5  8  1  0
  9  6  2  0
 12 11  1  6
 13 12  1  0
 14 12  1  0
 14 13  1  1
 15 14  1  0
 15 16  1  0
 15 17  1  6
 15 20  1  0
 17 18  1  0
 18 19  1  0
 20 19  1  6
 20 21  1  0
 21 22  1  0
 23 24  1  0
M  END
$$$$
