
     RDKit          3D

 24 27  0  0  0  0  0  0  0  0999 V2000
   26.3414   56.5476   86.9863 C   0  0  0  0  0  0  0  0  0  0  0  0
   21.9466   55.2864   90.1785 C   0  0  0  0  0  0  0  0  0  0  0  0
   29.8769   55.6993   86.0309 C   0  0  0  0  0  0  0  0  0  0  0  0
   27.7464   56.0900   87.0496 C   0  0  0  0  0  0  0  0  0  0  0  0
   30.3566   55.2239   87.2255 C   0  0  0  0  0  0  0  0  0  0  0  0
   29.5230   55.1875   88.3196 C   0  0  0  0  0  0  0  0  0  0  0  0
   28.5625   56.1331   85.9505 C   0  0  0  0  0  0  0  0  0  0  0  0
   31.6256   54.7817   87.3888 F   0  0  0  0  0  0  0  0  0  0  0  0
   28.2405   55.6223   88.1992 N   0  0  0  0  0  0  0  0  0  0  0  0
   25.6299   56.1363   86.0146 O   0  0  0  0  0  0  0  0  0  0  0  0
   25.8024   57.4086   87.9635 N   0  0  0  0  0  0  0  0  0  0  0  0
   24.4792   57.1670   88.4810 C   0  0  1  0  0  0  0  0  0  0  0  0
   23.5292   58.3627   88.3445 C   0  0  0  0  0  0  0  0  0  0  0  0
   23.3007   57.1420   87.5791 C   0  0  2  0  0  0  0  0  0  0  0  0
   22.1674   56.1840   87.8301 C   0  0  2  0  0  0  0  0  0  0  0  0
   22.5508   55.3318   88.9087 N   0  0  0  0  0  0  0  0  0  0  0  0
   22.0421   55.3115   86.5736 C   0  0  0  0  0  0  0  0  0  0  0  0
   20.8202   55.5833   86.0103 O   0  0  0  0  0  0  0  0  0  0  0  0
   20.4838   56.8761   86.3904 C   0  0  0  0  0  0  0  0  0  0  0  0
   20.8399   56.8195   87.8866 C   0  0  1  0  0  0  0  0  0  0  0  0
   19.7436   56.0638   88.5462 C   0  0  0  0  0  0  0  0  0  0  0  0
   20.2327   55.7471   90.2905 S   0  0  0  0  0  0  0  0  0  0  0  0
   22.5718   54.9344   91.2273 N   0  0  0  0  0  0  0  0  0  0  0  0
   22.5272   53.9324   91.5809 H   0  0  0  0  0  0  0  0  0  0  0  0
  1  4  1  0
  1 10  2  0
 11  1  1  0
 16  2  1  0
  2 22  1  0
  2 23  2  0
  3  5  2  0
  7  3  1  0
  4  7  2  0
  4  9  1  0
  6  5  1  0
  5  8  1  0
  9  6  2  0
 12 11  1  6
 13 12  1  0
 14 12  1  0
 14 13  1  1
 15 14  1  0
 15 16  1  0
 15 17  1  6
 15 20  1  0
 17 18  1  0
 18 19  1  0
 20 19  1  6
 20 21  1  0
 21 22  1  0
 23 24  1  0
M  END
$$$$
