
     RDKit          3D

 24 27  0  0  0  0  0  0  0  0999 V2000
   26.4176   55.8185   86.3635 C   0  0  0  0  0  0  0  0  0  0  0  0
   22.1564   55.4319   90.3929 C   0  0  0  0  0  0  0  0  0  0  0  0
   30.1270   56.1932   86.8450 C   0  0  0  0  0  0  0  0  0  0  0  0
   27.8018   55.6252   86.8473 C   0  0  0  0  0  0  0  0  0  0  0  0
   30.3615   55.2210   87.7848 C   0  0  0  0  0  0  0  0  0  0  0  0
   29.3105   54.4616   88.2450 C   0  0  0  0  0  0  0  0  0  0  0  0
   28.8364   56.3904   86.3783 C   0  0  0  0  0  0  0  0  0  0  0  0
   31.5902   54.9645   88.2918 F   0  0  0  0  0  0  0  0  0  0  0  0
   28.0597   54.6863   87.7620 N   0  0  0  0  0  0  0  0  0  0  0  0
   26.2320   56.6587   85.4259 O   0  0  0  0  0  0  0  0  0  0  0  0
   25.3373   55.1013   86.9162 N   0  0  0  0  0  0  0  0  0  0  0  0
   24.2833   55.8068   87.6005 C   0  0  1  0  0  0  0  0  0  0  0  0
   23.7624   57.0346   86.8442 C   0  0  0  0  0  0  0  0  0  0  0  0
   22.9123   55.8646   87.0351 C   0  0  2  0  0  0  0  0  0  0  0  0
   21.7107   55.8287   87.9407 C   0  0  2  0  0  0  0  0  0  0  0  0
   22.0347   55.0028   89.0585 N   0  0  0  0  0  0  0  0  0  0  0  0
   20.5905   55.1293   87.1585 C   0  0  0  0  0  0  0  0  0  0  0  0
   19.5953   56.0535   86.9600 O   0  0  0  0  0  0  0  0  0  0  0  0
   20.2018   57.3029   86.9730 C   0  0  0  0  0  0  0  0  0  0  0  0
   21.1126   57.1486   88.2041 C   0  0  1  0  0  0  0  0  0  0  0  0
   20.2301   57.2786   89.3925 C   0  0  0  0  0  0  0  0  0  0  0  0
   21.2141   56.8564   90.8877 S   0  0  0  0  0  0  0  0  0  0  0  0
   22.9022   54.8474   91.2398 N   0  0  0  0  0  0  0  0  0  0  0  0
   22.4875   54.3524   92.0847 H   0  0  0  0  0  0  0  0  0  0  0  0
  1  4  1  0
  1 10  2  0
 11  1  1  0
 16  2  1  0
  2 22  1  0
  2 23  2  0
  3  5  2  0
  7  3  1  0
  4  7  2  0
  4  9  1  0
  6  5  1  0
  5  8  1  0
  9  6  2  0
 12 11  1  6
 13 12  1  0
 14 12  1  0
 14 13  1  1
 15 14  1  0
 15 16  1  0
 15 17  1  6
 15 20  1  0
 17 18  1  0
 18 19  1  0
 20 19  1  6
 20 21  1  0
 21 22  1  0
 23 24  1  0
M  END
$$$$
