
     RDKit          3D

 24 27  0  0  0  0  0  0  0  0999 V2000
   26.2995   55.9378   87.0941 C   0  0  0  0  0  0  0  0  0  0  0  0
   21.8947   55.2985   90.1238 C   0  0  0  0  0  0  0  0  0  0  0  0
   29.8021   54.7876   86.3591 C   0  0  0  0  0  0  0  0  0  0  0  0
   27.7456   55.9362   86.7843 C   0  0  0  0  0  0  0  0  0  0  0  0
   30.4395   55.9933   86.2063 C   0  0  0  0  0  0  0  0  0  0  0  0
   29.7200   57.1579   86.3447 C   0  0  0  0  0  0  0  0  0  0  0  0
   28.4466   54.7673   86.6499 C   0  0  0  0  0  0  0  0  0  0  0  0
   31.7587   56.1009   85.9221 F   0  0  0  0  0  0  0  0  0  0  0  0
   28.3923   57.0950   86.6301 N   0  0  0  0  0  0  0  0  0  0  0  0
   25.6597   54.8499   86.9311 O   0  0  0  0  0  0  0  0  0  0  0  0
   25.6460   57.0990   87.5541 N   0  0  0  0  0  0  0  0  0  0  0  0
   24.3498   56.9940   88.1751 C   0  0  1  0  0  0  0  0  0  0  0  0
   23.4827   58.2494   88.0228 C   0  0  0  0  0  0  0  0  0  0  0  0
   23.1102   57.0049   87.3590 C   0  0  2  0  0  0  0  0  0  0  0  0
   21.9309   56.1556   87.7503 C   0  0  2  0  0  0  0  0  0  0  0  0
   22.3547   55.2798   88.7943 N   0  0  0  0  0  0  0  0  0  0  0  0
   21.5881   55.2892   86.5306 C   0  0  0  0  0  0  0  0  0  0  0  0
   20.3402   55.6670   86.1016 O   0  0  0  0  0  0  0  0  0  0  0  0
   20.1655   56.9877   86.4943 C   0  0  0  0  0  0  0  0  0  0  0  0
   20.6803   56.9096   87.9426 C   0  0  1  0  0  0  0  0  0  0  0  0
   19.6014   56.2613   88.7325 C   0  0  0  0  0  0  0  0  0  0  0  0
   20.2523   55.9138   90.4171 S   0  0  0  0  0  0  0  0  0  0  0  0
   22.5993   54.8986   91.1028 N   0  0  0  0  0  0  0  0  0  0  0  0
   22.1552   54.3934   91.9266 H   0  0  0  0  0  0  0  0  0  0  0  0
  1  4  1  0
  1 10  2  0
 11  1  1  0
 16  2  1  0
  2 22  1  0
  2 23  2  0
  3  5  2  0
  7  3  1  0
  4  7  2  0
  4  9  1  0
  6  5  1  0
  5  8  1  0
  9  6  2  0
 12 11  1  6
 13 12  1  0
 14 12  1  0
 14 13  1  1
 15 14  1  0
 15 16  1  0
 15 17  1  6
 15 20  1  0
 17 18  1  0
 18 19  1  0
 20 19  1  6
 20 21  1  0
 21 22  1  0
 23 24  1  0
M  END
$$$$
