
     RDKit          3D

125134  0  0  0  0  0  0  0  0999 V2000
  -14.0092  -15.8483  -49.3643 N   0  0  0  0  0  0  0  0  0  0  0  0
  -13.3019  -15.9132  -50.6324 C   0  0  2  0  0  0  0  0  0  0  0  0
  -11.9071  -15.4089  -50.3486 C   0  0  0  0  0  0  0  0  0  0  0  0
  -11.7118  -14.1868  -50.6038 O   0  0  0  0  0  0  0  0  0  0  0  0
  -13.9012  -14.9657  -51.6682 C   0  0  0  0  0  0  0  0  0  0  0  0
  -15.2830  -15.3493  -52.0911 C   0  0  0  0  0  0  0  0  0  0  0  0
  -15.7108  -16.5826  -51.2941 C   0  0  0  0  0  0  0  0  0  0  0  0
  -15.2304  -16.4492  -49.9411 N   0  0  0  0  0  0  0  0  0  0  0  0
  -15.7260  -17.1918  -48.8428 C   0  0  0  0  0  0  0  0  0  0  0  0
  -16.9688  -17.2236  -48.6056 N   0  0  0  0  0  4  0  0  0  0  0  0
  -14.8330  -17.9123  -47.9808 N   0  0  0  0  0  0  0  0  0  0  0  0
  -10.8520  -16.1610  -49.8442 N   0  0  0  0  0  0  0  0  0  0  0  0
  -10.2910  -17.3623  -50.4042 C   0  0  2  0  0  0  0  0  0  0  0  0
   -9.1309  -17.9304  -49.6894 C   0  0  0  0  0  0  0  0  0  0  0  0
   -8.7680  -19.0620  -50.2504 O   0  0  0  0  0  0  0  0  0  0  0  0
  -10.2850  -17.4714  -51.8767 C   0  0  0  0  0  0  0  0  0  0  0  0
  -11.5365  -17.4342  -52.6403 C   0  0  1  0  0  0  0  0  0  0  0  0
  -12.6596  -18.2928  -52.2169 C   0  0  0  0  0  0  0  0  0  0  0  0
  -12.0368  -15.9781  -52.5940 C   0  0  0  0  0  0  0  0  0  0  0  0
   -8.3822  -17.5330  -48.5941 N   0  0  0  0  0  0  0  0  0  0  0  0
   -7.3282  -16.6070  -48.3323 C   0  0  2  0  0  0  0  0  0  0  0  0
   -7.6892  -15.2032  -48.1635 C   0  0  0  0  0  0  0  0  0  0  0  0
   -8.0583  -14.5789  -49.2190 O   0  0  0  0  0  0  0  0  0  0  0  0
   -6.1168  -16.7155  -49.2234 C   0  0  0  0  0  0  0  0  0  0  0  0
   -5.8178  -15.5159  -50.0268 C   0  0  0  0  0  0  0  0  0  0  0  0
   -6.1470  -15.3955  -51.3666 C   0  0  0  0  0  0  0  0  0  0  0  0
   -5.1631  -14.4449  -49.4002 C   0  0  0  0  0  0  0  0  0  0  0  0
   -5.8291  -14.2417  -52.0527 C   0  0  0  0  0  0  0  0  0  0  0  0
   -4.8501  -13.2997  -50.0915 C   0  0  0  0  0  0  0  0  0  0  0  0
   -5.1806  -13.1752  -51.4465 C   0  0  0  0  0  0  0  0  0  0  0  0
   -4.8659  -12.0230  -52.1375 O   0  0  0  0  0  0  0  0  0  0  0  0
   -7.6742  -14.4556  -46.9651 N   0  0  0  0  0  0  0  0  0  0  0  0
   -7.7884  -14.9847  -45.6182 C   0  0  0  0  0  0  0  0  0  0  0  0
   -8.1934  -13.8819  -44.7184 C   0  0  0  0  0  0  0  0  0  0  0  0
   -9.2518  -13.2606  -45.1314 O   0  0  0  0  0  0  0  0  0  0  0  0
   -7.6197  -13.4348  -43.5401 N   0  0  0  0  0  0  0  0  0  0  0  0
   -7.3696  -14.1111  -42.2734 C   0  0  2  0  0  0  0  0  0  0  0  0
   -7.6603  -13.2293  -41.1334 C   0  0  0  0  0  0  0  0  0  0  0  0
   -8.2695  -12.1268  -41.4257 O   0  0  0  0  0  0  0  0  0  0  0  0
   -5.9653  -14.6906  -42.2648 C   0  0  0  0  0  0  0  0  0  0  0  0
   -5.1326  -14.1414  -43.3827 C   0  0  0  0  0  0  0  0  0  0  0  0
   -4.8155  -14.9446  -44.4860 C   0  0  0  0  0  0  0  0  0  0  0  0
   -4.6348  -12.8638  -43.3756 C   0  0  0  0  0  0  0  0  0  0  0  0
   -4.0474  -14.5240  -45.5379 C   0  0  0  0  0  0  0  0  0  0  0  0
   -3.8605  -12.4068  -44.4131 C   0  0  0  0  0  0  0  0  0  0  0  0
   -3.5619  -13.2221  -45.4937 C   0  0  0  0  0  0  0  0  0  0  0  0
   -7.3771  -13.3984  -39.7794 N   0  0  0  0  0  0  0  0  0  0  0  0
   -7.8185  -14.4180  -38.8569 C   0  0  2  0  0  0  0  0  0  0  0  0
   -8.8712  -13.9213  -37.9501 C   0  0  0  0  0  0  0  0  0  0  0  0
   -9.4133  -12.7813  -38.2537 O   0  0  0  0  0  0  0  0  0  0  0  0
   -6.6033  -14.9675  -38.1808 C   0  0  0  0  0  0  0  0  0  0  0  0
   -6.1189  -16.3025  -38.6394 C   0  0  0  0  0  0  0  0  0  0  0  0
   -7.1768  -17.1534  -39.2766 C   0  0  0  0  0  0  0  0  0  0  0  0
   -8.3680  -16.3035  -39.7512 C   0  0  0  0  0  0  0  0  0  0  0  0
   -8.8739  -16.9122  -40.9850 N   0  0  0  0  0  4  0  0  0  0  0  0
   -9.3492  -14.5537  -36.7907 N   0  0  0  0  0  0  0  0  0  0  0  0
   -9.9433  -15.8637  -36.6880 C   0  0  2  0  0  0  0  0  0  0  0  0
  -11.3268  -15.8969  -37.2705 C   0  0  0  0  0  0  0  0  0  0  0  0
  -11.4346  -16.4308  -38.4341 O   0  0  0  0  0  0  0  0  0  0  0  0
   -9.9304  -16.3892  -35.2916 C   0  0  0  0  0  0  0  0  0  0  0  0
  -11.2498  -16.7836  -34.7480 C   0  0  0  0  0  0  0  0  0  0  0  0
  -11.5365  -16.9891  -33.3892 C   0  0  0  0  0  0  0  0  0  0  0  0
  -12.4473  -17.0181  -35.3915 C   0  0  0  0  0  0  0  0  0  0  0  0
  -12.8301  -17.3225  -33.2676 N   0  0  0  0  0  0  0  0  0  0  0  0
  -13.4177  -17.3482  -34.4859 C   0  0  0  0  0  0  0  0  0  0  0  0
  -12.7618  -16.9600  -36.7243 C   0  0  0  0  0  0  0  0  0  0  0  0
  -14.7027  -17.6164  -34.9492 C   0  0  0  0  0  0  0  0  0  0  0  0
  -14.0505  -17.2272  -37.1966 C   0  0  0  0  0  0  0  0  0  0  0  0
  -15.0082  -17.5551  -36.2821 C   0  0  0  0  0  0  0  0  0  0  0  0
  -12.4926  -15.4170  -36.7013 N   0  0  0  0  0  0  0  0  0  0  0  0
  -13.1429  -15.8134  -35.4449 C   0  0  2  0  0  0  0  0  0  0  0  0
  -14.5841  -16.1843  -35.7101 C   0  0  0  0  0  0  0  0  0  0  0  0
  -15.2670  -15.2211  -36.4748 O   0  0  0  0  0  0  0  0  0  0  0  0
  -13.1927  -14.6046  -34.5071 C   0  0  0  0  0  0  0  0  0  0  0  0
  -14.5873  -14.1804  -34.2534 C   0  0  0  0  0  0  0  0  0  0  0  0
  -15.1634  -13.7021  -33.1456 N   0  0  0  0  0  0  0  0  0  0  0  0
  -15.6346  -14.2108  -35.1892 C   0  0  0  0  0  0  0  0  0  0  0  0
  -16.4696  -13.4453  -33.3507 C   0  0  0  0  0  0  0  0  0  0  0  0
  -16.7633  -13.7659  -34.6389 N   0  0  0  0  0  0  0  0  0  0  0  0
  -15.3864  -16.7070  -34.6922 O   0  0  0  0  0  0  0  0  0  0  0  0
  -15.1672  -18.3573  -46.5470 C   0  0  0  0  0  0  0  0  0  0  0  0
  -17.4568  -17.8366  -47.1778 N   0  0  0  0  0  0  0  0  0  0  0  0
  -15.6108  -19.3545  -47.5952 C   0  0  0  0  0  0  0  0  0  0  0  0
  -17.1797  -16.8796  -48.2508 C   0  0  0  0  0  0  0  0  0  0  0  0
  -16.8971  -24.6256  -42.9194 O   0  0  0  0  0  1  0  0  0  0  0  0
  -16.0332  -17.4488  -49.1168 C   0  0  2  0  0  0  0  0  0  0  0  0
  -17.2764  -22.2832  -43.4822 C   0  0  0  0  0  0  0  0  0  0  0  0
  -16.9741  -21.8141  -42.2451 C   0  0  0  0  0  0  0  0  0  0  0  0
  -16.8313  -20.4396  -41.9073 C   0  0  0  0  0  0  0  0  0  0  0  0
  -17.0141  -19.5175  -42.9048 C   0  0  0  0  0  0  0  0  0  0  0  0
  -18.5838  -19.4334  -46.2861 N   0  0  0  0  0  0  0  0  0  0  0  0
  -17.4461  -21.3148  -44.4407 C   0  0  0  0  0  0  0  0  0  0  0  0
  -17.3195  -19.9235  -44.1840 C   0  0  0  0  0  0  0  0  0  0  0  0
  -17.5102  -19.1363  -45.4415 C   0  0  0  0  0  0  0  0  0  0  0  0
  -14.2116  -17.3401  -47.6622 O   0  0  0  0  0  0  0  0  0  0  0  0
  -16.0866  -18.8885  -48.8518 N   0  0  0  0  0  0  0  0  0  0  0  0
  -15.6242  -19.2255  -44.2163 C   0  0  0  0  0  0  0  0  0  0  0  0
  -17.9904  -24.0347  -44.8302 O   0  0  0  0  0  0  0  0  0  0  0  0
  -16.8219  -18.1119  -46.0503 C   0  0  0  0  0  0  0  0  0  0  0  0
  -16.6753  -22.8262  -31.4159 O   0  0  0  0  0  0  0  0  0  0  0  0
  -16.3650  -20.1053  -35.3804 O   0  0  0  0  0  0  0  0  0  0  0  0
  -17.5685  -16.0414  -36.5528 O   0  0  0  0  0  0  0  0  0  0  0  0
  -15.9943  -18.4779  -45.3723 N   0  0  0  0  0  0  0  0  0  0  0  0
  -16.3577  -20.4350  -43.8061 C   0  0  0  0  0  0  0  0  0  0  0  0
  -14.6399  -18.8180  -43.5517 O   0  0  0  0  0  0  0  0  0  0  0  0
  -15.5256  -20.5643  -47.2772 O   0  0  0  0  0  0  0  0  0  0  0  0
  -18.5319  -18.6628  -47.2920 N   0  0  0  0  0  0  0  0  0  0  0  0
  -16.0754  -19.7339  -38.3787 N   0  0  0  0  0  0  0  0  0  0  0  0
  -14.9299  -17.4992  -35.7972 N   0  0  1  0  0  4  0  0  0  0  0  0
  -18.2865  -18.1222  -36.0079 N   0  0  0  0  0  0  0  0  0  0  0  0
  -18.0542  -21.3017  -34.3854 N   0  0  0  0  0  0  0  0  0  0  0  0
  -18.4804  -21.3697  -31.5958 N   0  0  0  0  0  0  0  0  0  0  0  0
  -15.1406  -20.6538  -38.7783 N   0  0  0  0  0  0  0  0  0  0  0  0
  -15.3085  -20.9644  -39.9824 N   0  0  0  0  0  0  0  0  0  0  0  0
  -16.4156  -20.2361  -40.4783 C   0  0  0  0  0  0  0  0  0  0  0  0
  -16.8493  -19.4860  -39.4259 C   0  0  0  0  0  0  0  0  0  0  0  0
  -16.0759  -19.2656  -37.0078 C   0  0  0  0  0  0  0  0  0  0  0  0
  -15.8872  -17.7385  -36.8596 C   0  0  1  0  0  0  0  0  0  0  0  0
  -17.2554  -17.2834  -36.4688 C   0  0  0  0  0  0  0  0  0  0  0  0
  -18.2436  -18.7907  -34.7193 C   0  0  0  0  0  0  0  0  0  0  0  0
  -17.5088  -20.0754  -34.8472 C   0  0  0  0  0  0  0  0  0  0  0  0
  -17.2278  -22.1859  -33.6291 C   0  0  0  0  0  0  0  0  0  0  0  0
  -17.4292  -22.1562  -32.1732 C   0  0  0  0  0  0  0  0  0  0  0  0
  -17.4114  -23.6984  -43.7891 C   0  0  0  0  0  0  0  0  0  0  0  0
  -14.7532  -16.8609  -48.7381 C   0  0  0  0  0  0  0  0  0  0  0  0
  1  2  1  0
125  1  1  0
  2  3  1  0
  2  5  1  6
  3  4  2  0
  3 12  1  0
  5  6  1  0
  6  7  1  0
  7  8  1  0
  8  9  1  0
  9 10  2  0
  9 11  1  0
 12 13  1  0
 13 14  1  0
 13 16  1  6
 14 15  2  0
 14 20  1  0
 16 17  1  0
 17 18  1  1
 17 19  1  0
 21 20  1  0
 22 21  1  0
 21 24  1  6
 22 23  2  0
 32 22  1  0
 24 25  1  0
 25 26  2  0
 25 27  1  0
 26 28  1  0
 27 29  2  0
 28 30  2  0
 29 30  1  0
 30 31  1  0
 33 32  1  0
 34 33  1  0
 34 35  2  0
 36 34  1  0
 37 36  1  0
 38 37  1  0
 37 40  1  6
 38 39  2  0
 47 38  1  0
 40 41  1  0
 41 42  2  0
 41 43  1  0
 42 44  1  0
 43 45  2  0
 44 46  2  0
 45 46  1  0
 48 47  1  0
 49 48  1  0
 48 51  1  1
 49 50  2  0
 56 49  1  0
 51 52  1  0
 52 53  1  0
 53 54  1  0
 54 55  1  0
 57 56  1  0
 58 57  1  0
 57 60  1  1
 58 59  2  0
 70 58  1  0
 60 61  1  0
 61 62  2  0
 61 63  1  0
 62 64  1  0
 63 65  2  0
 63 66  1  0
 65 64  1  0
 65 67  1  0
 66 68  2  0
 67 69  2  0
 68 69  1  0
 71 70  1  0
 72 71  1  0
 71 74  1  1
 72 73  1  0
 80 72  1  0
109 72  1  0
 74 75  1  0
 75 76  1  0
 75 77  2  0
 76 78  2  0
 77 79  1  0
 79 78  1  0
109 80  1  1
 83 81  1  0
 81103  1  0
 82 84  1  0
 99 82  1  0
 82107  1  0
 96 83  1  0
 83106  2  0
 84 86  1  0
124 85  1  0
 86 96  1  1
 86125  1  0
 88 87  1  0
 87 92  2  0
 87124  1  0
 89 88  2  0
 89 90  1  0
115 89  1  0
 90 93  2  0
 94 91  1  0
 91107  2  0
 93 92  1  0
 93 94  1  0
 94 99  2  0
125 95  2  0
103 97  1  0
 97104  1  0
 97105  2  0
124 98  2  0
123100  2  0
121101  2  0
119102  2  0
108113  1  0
108116  1  0
117108  1  0
118109  1  0
110119  1  0
120110  1  0
111121  1  0
122111  1  0
123112  1  0
113114  2  0
115114  1  0
116115  2  0
118117  1  0
118119  1  1
121120  1  0
122123  1  0
M  CHG  4  10   1  55   1  85  -1 109   1
M  END
$$$$
