
     RDKit          3D

125134  0  0  0  0  0  0  0  0999 V2000
  -14.8740  -17.1925  -49.2635 N   0  0  0  0  0  0  0  0  0  0  0  0
  -14.0073  -17.2540  -50.4288 C   0  0  2  0  0  0  0  0  0  0  0  0
  -12.6809  -16.6871  -49.9819 C   0  0  0  0  0  0  0  0  0  0  0  0
  -12.5013  -15.4635  -50.2410 O   0  0  0  0  0  0  0  0  0  0  0  0
  -14.5041  -16.3533  -51.5564 C   0  0  0  0  0  0  0  0  0  0  0  0
  -15.4398  -15.2842  -51.0908 C   0  0  0  0  0  0  0  0  0  0  0  0
  -15.4118  -15.2453  -49.5622 C   0  0  0  0  0  0  0  0  0  0  0  0
  -16.3417  -14.2415  -49.1073 N   0  0  0  0  0  0  0  0  0  0  0  0
  -17.5770  -14.5264  -48.4780 C   0  0  0  0  0  0  0  0  0  0  0  0
  -18.4730  -13.6356  -48.4031 N   0  0  0  0  0  4  0  0  0  0  0  0
  -17.8315  -15.8204  -47.9120 N   0  0  0  0  0  0  0  0  0  0  0  0
  -11.6716  -17.3848  -49.3278 N   0  0  0  0  0  0  0  0  0  0  0  0
  -10.9977  -18.5732  -49.7808 C   0  0  2  0  0  0  0  0  0  0  0  0
   -9.9185  -19.0784  -48.9093 C   0  0  0  0  0  0  0  0  0  0  0  0
   -9.4434  -20.2053  -49.3903 O   0  0  0  0  0  0  0  0  0  0  0  0
  -10.7980  -18.7118  -51.2371 C   0  0  0  0  0  0  0  0  0  0  0  0
  -10.8455  -17.5412  -52.1191 C   0  0  1  0  0  0  0  0  0  0  0  0
  -12.0443  -16.6807  -52.1035 C   0  0  0  0  0  0  0  0  0  0  0  0
   -9.6458  -16.6538  -51.7372 C   0  0  0  0  0  0  0  0  0  0  0  0
   -9.3328  -18.6284  -47.7377 N   0  0  0  0  0  0  0  0  0  0  0  0
   -8.3574  -17.6547  -47.3669 C   0  0  2  0  0  0  0  0  0  0  0  0
   -8.7905  -16.2638  -47.2814 C   0  0  0  0  0  0  0  0  0  0  0  0
   -9.0442  -15.6768  -48.3910 O   0  0  0  0  0  0  0  0  0  0  0  0
   -7.0381  -17.7313  -48.0927 C   0  0  0  0  0  0  0  0  0  0  0  0
   -5.8499  -17.4397  -47.2699 C   0  0  0  0  0  0  0  0  0  0  0  0
   -5.5133  -18.1604  -46.1363 C   0  0  0  0  0  0  0  0  0  0  0  0
   -5.0218  -16.3750  -47.6558 C   0  0  0  0  0  0  0  0  0  0  0  0
   -4.3866  -17.8232  -45.4154 C   0  0  0  0  0  0  0  0  0  0  0  0
   -3.9018  -16.0461  -46.9314 C   0  0  0  0  0  0  0  0  0  0  0  0
   -3.5593  -16.7720  -45.7840 C   0  0  0  0  0  0  0  0  0  0  0  0
   -2.4329  -16.4398  -45.0596 O   0  0  0  0  0  0  0  0  0  0  0  0
   -8.9584  -15.4920  -46.1103 N   0  0  0  0  0  0  0  0  0  0  0  0
   -9.2249  -15.9979  -44.7761 C   0  0  0  0  0  0  0  0  0  0  0  0
   -9.7842  -14.8945  -43.9638 C   0  0  0  0  0  0  0  0  0  0  0  0
  -10.8035  -14.3259  -44.5243 O   0  0  0  0  0  0  0  0  0  0  0  0
   -9.3845  -14.4005  -42.7335 N   0  0  0  0  0  0  0  0  0  0  0  0
   -9.2739  -15.0400  -41.4285 C   0  0  2  0  0  0  0  0  0  0  0  0
   -9.7424  -14.1479  -40.3578 C   0  0  0  0  0  0  0  0  0  0  0  0
  -10.3506  -13.0775  -40.7536 O   0  0  0  0  0  0  0  0  0  0  0  0
   -7.8613  -15.5610  -41.2257 C   0  0  0  0  0  0  0  0  0  0  0  0
   -6.9100  -14.9886  -42.2318 C   0  0  0  0  0  0  0  0  0  0  0  0
   -5.5555  -14.8303  -41.9109 C   0  0  0  0  0  0  0  0  0  0  0  0
   -7.3086  -14.5832  -43.4795 C   0  0  0  0  0  0  0  0  0  0  0  0
   -4.6276  -14.3006  -42.7662 C   0  0  0  0  0  0  0  0  0  0  0  0
   -6.4062  -14.0471  -44.3646 C   0  0  0  0  0  0  0  0  0  0  0  0
   -5.0709  -13.9018  -44.0220 C   0  0  0  0  0  0  0  0  0  0  0  0
   -9.6297  -14.2777  -38.9749 N   0  0  0  0  0  0  0  0  0  0  0  0
  -10.1469  -15.2957  -38.0908 C   0  0  2  0  0  0  0  0  0  0  0  0
  -11.3258  -14.8243  -37.3389 C   0  0  0  0  0  0  0  0  0  0  0  0
  -11.8674  -13.7140  -37.7382 O   0  0  0  0  0  0  0  0  0  0  0  0
   -9.0088  -15.7808  -37.2511 C   0  0  0  0  0  0  0  0  0  0  0  0
   -7.9096  -14.8100  -36.9745 C   0  0  0  0  0  0  0  0  0  0  0  0
   -8.3745  -13.5025  -36.4054 C   0  0  0  0  0  0  0  0  0  0  0  0
   -9.9001  -13.3489  -36.5299 C   0  0  0  0  0  0  0  0  0  0  0  0
  -10.5033  -14.6061  -36.0780 N   0  0  0  0  0  4  0  0  0  0  0  0
  -11.9246  -15.4522  -36.2344 N   0  0  0  0  0  0  0  0  0  0  0  0
  -12.4764  -16.7832  -36.1752 C   0  0  2  0  0  0  0  0  0  0  0  0
  -13.7712  -16.8851  -36.9287 C   0  0  0  0  0  0  0  0  0  0  0  0
  -13.7078  -17.4465  -38.0826 O   0  0  0  0  0  0  0  0  0  0  0  0
  -12.6234  -17.2791  -34.7757 C   0  0  0  0  0  0  0  0  0  0  0  0
  -11.7196  -18.3884  -34.3956 C   0  0  0  0  0  0  0  0  0  0  0  0
  -12.1342  -19.6574  -33.9614 C   0  0  0  0  0  0  0  0  0  0  0  0
  -10.3417  -18.4548  -34.3861 C   0  0  0  0  0  0  0  0  0  0  0  0
  -11.0477  -20.4059  -33.7186 N   0  0  0  0  0  0  0  0  0  0  0  0
   -9.9276  -19.6909  -33.9719 C   0  0  0  0  0  0  0  0  0  0  0  0
   -9.4079  -17.5089  -34.7206 C   0  0  0  0  0  0  0  0  0  0  0  0
   -8.5618  -19.9511  -33.9027 C   0  0  0  0  0  0  0  0  0  0  0  0
   -8.0346  -17.7636  -34.6543 C   0  0  0  0  0  0  0  0  0  0  0  0
   -7.6361  -19.0007  -34.2395 C   0  0  0  0  0  0  0  0  0  0  0  0
  -15.0180  -16.4420  -36.5256 N   0  0  0  0  0  0  0  0  0  0  0  0
  -15.8091  -16.8393  -35.3531 C   0  0  2  0  0  0  0  0  0  0  0  0
  -17.1889  -17.2744  -35.7907 C   0  0  0  0  0  0  0  0  0  0  0  0
  -17.8040  -16.3558  -36.6607 O   0  0  0  0  0  0  0  0  0  0  0  0
  -16.0254  -15.6147  -34.4604 C   0  0  0  0  0  0  0  0  0  0  0  0
  -15.3079  -14.4334  -34.9883 C   0  0  0  0  0  0  0  0  0  0  0  0
  -15.7628  -13.3600  -35.6431 N   0  0  0  0  0  0  0  0  0  0  0  0
  -13.9237  -14.2101  -34.9000 C   0  0  0  0  0  0  0  0  0  0  0  0
  -14.7578  -12.5169  -35.9491 C   0  0  0  0  0  0  0  0  0  0  0  0
  -13.6009  -13.0546  -35.4791 N   0  0  0  0  0  0  0  0  0  0  0  0
  -18.0951  -17.8089  -34.8709 O   0  0  0  0  0  0  0  0  0  0  0  0
  -14.4001  -20.1506  -48.4401 C   0  0  0  0  0  0  0  0  0  0  0  0
  -18.4960  -19.2761  -47.4859 N   0  0  0  0  0  0  0  0  0  0  0  0
  -15.7135  -20.9007  -48.3952 C   0  0  0  0  0  0  0  0  0  0  0  0
  -18.1197  -18.3305  -48.5387 C   0  0  0  0  0  0  0  0  0  0  0  0
  -17.5660  -25.8331  -43.6887 O   0  0  0  0  0  1  0  0  0  0  0  0
  -16.8504  -18.8695  -49.2362 C   0  0  2  0  0  0  0  0  0  0  0  0
  -18.6233  -23.6355  -43.6857 C   0  0  0  0  0  0  0  0  0  0  0  0
  -18.5009  -23.1294  -42.4324 C   0  0  0  0  0  0  0  0  0  0  0  0
  -18.4554  -21.7435  -42.1142 C   0  0  0  0  0  0  0  0  0  0  0  0
  -18.5433  -20.8502  -43.1500 C   0  0  0  0  0  0  0  0  0  0  0  0
  -19.6666  -20.8995  -46.7053 N   0  0  0  0  0  0  0  0  0  0  0  0
  -18.7050  -22.6946  -44.6823 C   0  0  0  0  0  0  0  0  0  0  0  0
  -18.6657  -21.2943  -44.4471 C   0  0  0  0  0  0  0  0  0  0  0  0
  -18.7228  -20.5414  -45.7382 C   0  0  0  0  0  0  0  0  0  0  0  0
  -15.2367  -18.6565  -47.5639 O   0  0  0  0  0  0  0  0  0  0  0  0
  -16.8824  -20.3045  -48.9437 N   0  0  0  0  0  0  0  0  0  0  0  0
  -12.4087  -20.0066  -46.8880 C   0  0  0  0  0  0  0  0  0  0  0  0
  -19.6907  -25.5465  -44.4626 O   0  0  0  0  0  0  0  0  0  0  0  0
  -18.0014  -19.5021  -46.2799 C   0  0  0  0  0  0  0  0  0  0  0  0
  -18.4057  -19.5533  -30.7059 O   0  0  0  0  0  0  0  0  0  0  0  0
  -18.6931  -20.4043  -33.8297 O   0  0  0  0  0  0  0  0  0  0  0  0
  -20.3454  -17.9352  -37.8106 O   0  0  0  0  0  0  0  0  0  0  0  0
  -13.8105  -20.1120  -47.1249 N   0  0  0  0  0  0  0  0  0  0  0  0
  -11.4184  -20.5473  -47.8346 C   0  0  0  0  0  0  0  0  0  0  0  0
  -12.0394  -19.4291  -45.8360 O   0  0  0  0  0  0  0  0  0  0  0  0
  -15.6834  -22.0349  -47.8618 O   0  0  0  0  0  0  0  0  0  0  0  0
  -19.5151  -20.1479  -47.7156 N   0  0  0  0  0  0  0  0  0  0  0  0
  -18.1876  -20.9358  -38.5370 N   0  0  0  0  0  0  0  0  0  0  0  0
  -17.4701  -18.6040  -35.8879 N   0  0  1  0  0  4  0  0  0  0  0  0
  -20.4340  -18.6904  -35.6742 N   0  0  0  0  0  0  0  0  0  0  0  0
  -20.5557  -19.9596  -32.5615 N   0  0  0  0  0  0  0  0  0  0  0  0
  -18.2940  -17.3307  -31.3842 N   0  0  0  0  0  0  0  0  0  0  0  0
  -17.1747  -21.8244  -38.7903 N   0  0  0  0  0  0  0  0  0  0  0  0
  -17.1742  -22.1660  -39.9977 N   0  0  0  0  0  0  0  0  0  0  0  0
  -18.2352  -21.4942  -40.6494 C   0  0  0  0  0  0  0  0  0  0  0  0
  -18.8291  -20.7412  -39.6805 C   0  0  0  0  0  0  0  0  0  0  0  0
  -18.3825  -20.4402  -37.1898 C   0  0  0  0  0  0  0  0  0  0  0  0
  -18.2728  -18.9039  -37.0575 C   0  0  1  0  0  0  0  0  0  0  0  0
  -19.6964  -18.4976  -36.8566 C   0  0  0  0  0  0  0  0  0  0  0  0
  -20.6737  -20.0021  -35.0985 C   0  0  0  0  0  0  0  0  0  0  0  0
  -19.9257  -20.1316  -33.8217 C   0  0  0  0  0  0  0  0  0  0  0  0
  -20.3297  -18.7531  -31.8333 C   0  0  0  0  0  0  0  0  0  0  0  0
  -18.9780  -18.5871  -31.2801 C   0  0  0  0  0  0  0  0  0  0  0  0
  -18.6635  -25.0611  -43.9713 C   0  0  0  0  0  0  0  0  0  0  0  0
  -15.6532  -18.2219  -48.7121 C   0  0  0  0  0  0  0  0  0  0  0  0
  1  2  1  0
125  1  1  0
  2  3  1  0
  2  5  1  6
  3  4  2  0
  3 12  1  0
  5  6  1  0
  6  7  1  0
  7  8  1  0
  8  9  1  0
  9 10  2  0
  9 11  1  0
 12 13  1  0
 13 14  1  0
 13 16  1  6
 14 15  2  0
 14 20  1  0
 16 17  1  0
 17 18  1  1
 17 19  1  0
 21 20  1  0
 22 21  1  0
 21 24  1  6
 22 23  2  0
 32 22  1  0
 24 25  1  0
 25 26  2  0
 25 27  1  0
 26 28  1  0
 27 29  2  0
 28 30  2  0
 29 30  1  0
 30 31  1  0
 33 32  1  0
 34 33  1  0
 34 35  2  0
 36 34  1  0
 37 36  1  0
 38 37  1  0
 37 40  1  1
 38 39  2  0
 47 38  1  0
 40 41  1  0
 41 42  2  0
 41 43  1  0
 42 44  1  0
 43 45  2  0
 44 46  2  0
 45 46  1  0
 48 47  1  0
 49 48  1  0
 48 51  1  1
 49 50  2  0
 56 49  1  0
 51 52  1  0
 52 53  1  0
 53 54  1  0
 54 55  1  0
 57 56  1  0
 58 57  1  0
 57 60  1  1
 58 59  2  0
 70 58  1  0
 60 61  1  0
 61 62  2  0
 61 63  1  0
 62 64  1  0
 63 65  2  0
 63 66  1  0
 65 64  1  0
 65 67  1  0
 66 68  2  0
 67 69  2  0
 68 69  1  0
 71 70  1  0
 72 71  1  0
 71 74  1  1
 72 73  1  0
 80 72  1  0
109 72  1  0
 74 75  1  0
 75 76  1  0
 75 77  2  0
 76 78  2  0
 77 79  1  0
 79 78  1  0
109 80  1  1
 83 81  1  0
 81103  1  0
 82 84  1  0
 99 82  1  0
 82107  1  0
 96 83  1  0
 83106  2  0
 84 86  1  0
124 85  1  0
 86 96  1  1
 86125  1  0
 88 87  1  0
 87 92  2  0
 87124  1  0
 89 88  2  0
 89 90  1  0
115 89  1  0
 90 93  2  0
 94 91  1  0
 91107  2  0
 93 92  1  0
 93 94  1  0
 94 99  2  0
125 95  2  0
103 97  1  0
 97104  1  0
 97105  2  0
124 98  2  0
123100  2  0
121101  2  0
119102  2  0
108113  1  0
108116  1  0
117108  1  0
118109  1  0
110119  1  0
120110  1  0
111121  1  0
122111  1  0
123112  1  0
113114  2  0
115114  1  0
116115  2  0
118117  1  0
118119  1  1
121120  1  0
122123  1  0
M  CHG  4  10   1  55   1  85  -1 109   1
M  END
$$$$
