
     RDKit          3D

125134  0  0  0  0  0  0  0  0999 V2000
  -10.4342  -15.2655  -44.6406 N   0  0  0  0  0  0  0  0  0  0  0  0
   -9.1601  -15.8933  -44.3319 C   0  0  2  0  0  0  0  0  0  0  0  0
   -9.0833  -15.9422  -42.8246 C   0  0  0  0  0  0  0  0  0  0  0  0
   -8.4465  -14.9937  -42.2847 O   0  0  0  0  0  0  0  0  0  0  0  0
   -7.9795  -15.0451  -44.7972 C   0  0  0  0  0  0  0  0  0  0  0  0
   -8.3629  -13.6465  -45.1606 C   0  0  0  0  0  0  0  0  0  0  0  0
   -9.8555  -13.6221  -45.4931 C   0  0  0  0  0  0  0  0  0  0  0  0
  -10.4065  -12.3627  -45.0578 N   0  0  0  0  0  0  0  0  0  0  0  0
  -11.1856  -11.5089  -45.8747 C   0  0  0  0  0  0  0  0  0  0  0  0
  -12.3659  -11.8365  -46.1931 N   0  0  0  0  0  4  0  0  0  0  0  0
  -10.6522  -10.2675  -46.3581 N   0  0  0  0  0  0  0  0  0  0  0  0
   -9.6408  -16.9200  -42.0082 N   0  0  0  0  0  0  0  0  0  0  0  0
   -9.3981  -18.3380  -42.0550 C   0  0  2  0  0  0  0  0  0  0  0  0
  -10.0841  -19.1471  -41.0283 C   0  0  0  0  0  0  0  0  0  0  0  0
   -9.8467  -20.4238  -41.2302 O   0  0  0  0  0  0  0  0  0  0  0  0
   -8.0413  -18.7692  -42.4463 C   0  0  0  0  0  0  0  0  0  0  0  0
   -6.9719  -17.7892  -42.6619 C   0  0  1  0  0  0  0  0  0  0  0  0
   -7.2733  -16.5528  -43.4089 C   0  0  0  0  0  0  0  0  0  0  0  0
   -6.4755  -17.3658  -41.2666 C   0  0  0  0  0  0  0  0  0  0  0  0
  -10.8940  -18.8484  -39.9453 N   0  0  0  0  0  0  0  0  0  0  0  0
  -10.7161  -18.3911  -38.6051 C   0  0  2  0  0  0  0  0  0  0  0  0
  -10.5010  -16.9621  -38.4022 C   0  0  0  0  0  0  0  0  0  0  0  0
   -9.3677  -16.4977  -38.7763 O   0  0  0  0  0  0  0  0  0  0  0  0
   -9.7414  -19.1751  -37.7634 C   0  0  0  0  0  0  0  0  0  0  0  0
   -8.3565  -18.6690  -37.7692 C   0  0  0  0  0  0  0  0  0  0  0  0
   -7.8282  -17.8853  -36.7569 C   0  0  0  0  0  0  0  0  0  0  0  0
   -7.5358  -18.9968  -38.8588 C   0  0  0  0  0  0  0  0  0  0  0  0
   -6.5231  -17.4456  -36.8367 C   0  0  0  0  0  0  0  0  0  0  0  0
   -6.2372  -18.5540  -38.9299 C   0  0  0  0  0  0  0  0  0  0  0  0
   -5.7003  -17.7605  -37.9087 C   0  0  0  0  0  0  0  0  0  0  0  0
   -4.3952  -17.3187  -37.9827 O   0  0  0  0  0  0  0  0  0  0  0  0
  -11.4036  -16.0344  -37.8364 N   0  0  0  0  0  0  0  0  0  0  0  0
  -12.8496  -16.1544  -37.7957 C   0  0  0  0  0  0  0  0  0  0  0  0
  -13.4211  -14.8100  -37.5593 C   0  0  0  0  0  0  0  0  0  0  0  0
  -12.9897  -13.9264  -38.4019 O   0  0  0  0  0  0  0  0  0  0  0  0
  -14.3185  -14.3781  -36.5972 N   0  0  0  0  0  0  0  0  0  0  0  0
  -15.6831  -14.7932  -36.2974 C   0  0  2  0  0  0  0  0  0  0  0  0
  -16.5322  -13.6367  -35.9759 C   0  0  0  0  0  0  0  0  0  0  0  0
  -16.0073  -12.4793  -36.2150 O   0  0  0  0  0  0  0  0  0  0  0  0
  -15.6727  -15.8699  -35.2258 C   0  0  0  0  0  0  0  0  0  0  0  0
  -15.8650  -17.2357  -35.8108 C   0  0  0  0  0  0  0  0  0  0  0  0
  -15.6712  -18.3754  -35.0194 C   0  0  0  0  0  0  0  0  0  0  0  0
  -16.2133  -17.4365  -37.1218 C   0  0  0  0  0  0  0  0  0  0  0  0
  -15.8101  -19.6560  -35.4823 C   0  0  0  0  0  0  0  0  0  0  0  0
  -16.3617  -18.7066  -37.6216 C   0  0  0  0  0  0  0  0  0  0  0  0
  -16.1645  -19.8178  -36.8167 C   0  0  0  0  0  0  0  0  0  0  0  0
  -17.8213  -13.5953  -35.4484 N   0  0  0  0  0  0  0  0  0  0  0  0
  -19.0603  -14.1148  -35.9780 C   0  0  2  0  0  0  0  0  0  0  0  0
  -19.9108  -13.0465  -36.5371 C   0  0  0  0  0  0  0  0  0  0  0  0
  -19.3547  -11.8853  -36.7052 O   0  0  0  0  0  0  0  0  0  0  0  0
  -19.6966  -14.9384  -34.9044 C   0  0  0  0  0  0  0  0  0  0  0  0
  -18.8604  -16.0098  -34.2879 C   0  0  0  0  0  0  0  0  0  0  0  0
  -17.3901  -15.8659  -34.5468 C   0  0  0  0  0  0  0  0  0  0  0  0
  -17.0644  -14.5033  -35.1824 C   0  0  0  0  0  0  0  0  0  0  0  0
  -15.6044  -14.3896  -35.2458 N   0  0  0  0  0  4  0  0  0  0  0  0
  -21.2613  -13.1542  -36.9074 N   0  0  0  0  0  0  0  0  0  0  0  0
  -21.8357  -14.0550  -37.8760 C   0  0  2  0  0  0  0  0  0  0  0  0
  -21.4870  -13.6598  -39.2820 C   0  0  0  0  0  0  0  0  0  0  0  0
  -20.5655  -14.3526  -39.8490 O   0  0  0  0  0  0  0  0  0  0  0  0
  -23.3099  -14.2116  -37.7069 C   0  0  0  0  0  0  0  0  0  0  0  0
  -24.0594  -12.9578  -37.4657 C   0  0  0  0  0  0  0  0  0  0  0  0
  -25.3956  -12.8828  -37.0418 C   0  0  0  0  0  0  0  0  0  0  0  0
  -23.6588  -11.6423  -37.5750 C   0  0  0  0  0  0  0  0  0  0  0  0
  -25.7358  -11.5912  -36.9164 N   0  0  0  0  0  0  0  0  0  0  0  0
  -24.6847  -10.8027  -37.2383 C   0  0  0  0  0  0  0  0  0  0  0  0
  -22.4498  -11.1134  -37.9457 C   0  0  0  0  0  0  0  0  0  0  0  0
  -24.4675   -9.4284  -37.2828 C   0  0  0  0  0  0  0  0  0  0  0  0
  -22.2243   -9.7342  -37.9917 C   0  0  0  0  0  0  0  0  0  0  0  0
  -23.2564   -8.9088  -37.6534 C   0  0  0  0  0  0  0  0  0  0  0  0
  -22.0396  -12.6369  -40.0316 N   0  0  0  0  0  0  0  0  0  0  0  0
  -23.4341  -12.4442  -40.4522 C   0  0  2  0  0  0  0  0  0  0  0  0
  -23.4946  -12.2539  -41.9504 C   0  0  0  0  0  0  0  0  0  0  0  0
  -22.5765  -11.2971  -42.4198 O   0  0  0  0  0  0  0  0  0  0  0  0
  -23.9604  -11.1398  -39.8480 C   0  0  0  0  0  0  0  0  0  0  0  0
  -23.4931   -9.9659  -40.6177 C   0  0  0  0  0  0  0  0  0  0  0  0
  -24.1501   -8.8750  -41.0253 N   0  0  0  0  0  0  0  0  0  0  0  0
  -22.1885   -9.7712  -41.1011 C   0  0  0  0  0  0  0  0  0  0  0  0
  -23.3379   -8.0479  -41.7113 C   0  0  0  0  0  0  0  0  0  0  0  0
  -22.1028   -8.6147  -41.7566 N   0  0  0  0  0  0  0  0  0  0  0  0
  -24.7232  -12.1659  -42.6107 O   0  0  0  0  0  0  0  0  0  0  0  0
  -10.4639  -18.4081  -46.1337 C   0  0  0  0  0  0  0  0  0  0  0  0
  -13.5724  -15.1516  -47.9207 N   0  0  0  0  0  0  0  0  0  0  0  0
  -11.7734  -18.2661  -46.8786 C   0  0  0  0  0  0  0  0  0  0  0  0
  -12.2329  -14.6556  -47.5983 C   0  0  0  0  0  0  0  0  0  0  0  0
  -19.2919  -20.5947  -48.5181 O   0  0  0  0  0  1  0  0  0  0  0  0
  -11.4300  -15.8168  -46.9695 C   0  0  2  0  0  0  0  0  0  0  0  0
  -18.3766  -18.3372  -48.4042 C   0  0  0  0  0  0  0  0  0  0  0  0
  -19.3602  -17.7634  -47.6658 C   0  0  0  0  0  0  0  0  0  0  0  0
  -19.2439  -16.5247  -46.9759 C   0  0  0  0  0  0  0  0  0  0  0  0
  -18.0497  -15.8578  -47.0636 C   0  0  0  0  0  0  0  0  0  0  0  0
  -15.0511  -15.9149  -49.2793 N   0  0  0  0  0  0  0  0  0  0  0  0
  -17.2033  -17.6256  -48.4544 C   0  0  0  0  0  0  0  0  0  0  0  0
  -17.0077  -16.3839  -47.7931 C   0  0  0  0  0  0  0  0  0  0  0  0
  -15.6101  -15.8922  -47.9982 C   0  0  0  0  0  0  0  0  0  0  0  0
  -12.5183  -16.1244  -44.9282 O   0  0  0  0  0  0  0  0  0  0  0  0
  -12.1222  -17.0133  -47.4543 N   0  0  0  0  0  0  0  0  0  0  0  0
   -9.6418  -18.2557  -43.7470 C   0  0  0  0  0  0  0  0  0  0  0  0
  -17.9779  -19.7702  -50.1881 O   0  0  0  0  0  0  0  0  0  0  0  0
  -14.6315  -15.3969  -47.1670 C   0  0  0  0  0  0  0  0  0  0  0  0
  -17.4218  -11.3484  -49.3768 O   0  0  0  0  0  0  0  0  0  0  0  0
  -21.9737  -10.4288  -47.4205 O   0  0  0  0  0  0  0  0  0  0  0  0
  -24.3538  -12.6053  -45.8332 O   0  0  0  0  0  0  0  0  0  0  0  0
  -10.6585  -18.1124  -44.7360 N   0  0  0  0  0  0  0  0  0  0  0  0
   -9.1186  -19.5759  -43.3569 C   0  0  0  0  0  0  0  0  0  0  0  0
   -9.1986  -17.2088  -43.2139 O   0  0  0  0  0  0  0  0  0  0  0  0
  -12.4865  -19.2953  -46.9423 O   0  0  0  0  0  0  0  0  0  0  0  0
  -13.8623  -15.4785  -49.2093 N   0  0  0  0  0  0  0  0  0  0  0  0
  -22.2551  -15.4066  -45.1861 N   0  0  0  0  0  0  0  0  0  0  0  0
  -23.8573  -13.3016  -42.7423 N   0  0  1  0  0  4  0  0  0  0  0  0
  -22.9968  -11.0058  -44.9719 N   0  0  0  0  0  0  0  0  0  0  0  0
  -19.8629  -11.1591  -46.8860 N   0  0  0  0  0  0  0  0  0  0  0  0
  -18.0737  -13.2020  -48.1311 N   0  0  0  0  0  0  0  0  0  0  0  0
  -22.0271  -16.6888  -44.7573 N   0  0  0  0  0  0  0  0  0  0  0  0
  -21.0083  -17.1684  -45.3109 N   0  0  0  0  0  0  0  0  0  0  0  0
  -20.4732  -16.1890  -46.1805 C   0  0  0  0  0  0  0  0  0  0  0  0
  -21.2990  -15.1117  -46.0556 C   0  0  0  0  0  0  0  0  0  0  0  0
  -23.4068  -14.6817  -44.6895 C   0  0  0  0  0  0  0  0  0  0  0  0
  -23.0593  -13.3688  -43.9511 C   0  0  1  0  0  0  0  0  0  0  0  0
  -23.4790  -12.3269  -44.9361 C   0  0  0  0  0  0  0  0  0  0  0  0
  -21.5847  -10.6837  -45.0800 C   0  0  0  0  0  0  0  0  0  0  0  0
  -21.1658  -10.7456  -46.5038 C   0  0  0  0  0  0  0  0  0  0  0  0
  -19.5031  -11.1265  -48.2667 C   0  0  0  0  0  0  0  0  0  0  0  0
  -18.2889  -11.8731  -48.6259 C   0  0  0  0  0  0  0  0  0  0  0  0
  -18.5332  -19.6082  -49.0938 C   0  0  0  0  0  0  0  0  0  0  0  0
  -11.4332  -15.7240  -45.5139 C   0  0  0  0  0  0  0  0  0  0  0  0
  1  2  1  0
125  1  1  0
  2  3  1  0
  2  5  1  1
  3  4  2  0
  3 12  1  0
  5  6  1  0
  6  7  1  0
  7  8  1  0
  8  9  1  0
  9 10  2  0
  9 11  1  0
 12 13  1  0
 13 14  1  0
 13 16  1  1
 14 15  2  0
 14 20  1  0
 16 17  1  0
 17 18  1  1
 17 19  1  0
 21 20  1  0
 22 21  1  0
 21 24  1  6
 22 23  2  0
 32 22  1  0
 24 25  1  0
 25 26  2  0
 25 27  1  0
 26 28  1  0
 27 29  2  0
 28 30  2  0
 29 30  1  0
 30 31  1  0
 33 32  1  0
 34 33  1  0
 34 35  2  0
 36 34  1  0
 37 36  1  0
 38 37  1  0
 37 40  1  1
 38 39  2  0
 47 38  1  0
 40 41  1  0
 41 42  2  0
 41 43  1  0
 42 44  1  0
 43 45  2  0
 44 46  2  0
 45 46  1  0
 48 47  1  0
 49 48  1  0
 48 51  1  1
 49 50  2  0
 56 49  1  0
 51 52  1  0
 52 53  1  0
 53 54  1  0
 54 55  1  0
 57 56  1  0
 58 57  1  0
 57 60  1  6
 58 59  2  0
 70 58  1  0
 60 61  1  0
 61 62  2  0
 61 63  1  0
 62 64  1  0
 63 65  2  0
 63 66  1  0
 65 64  1  0
 65 67  1  0
 66 68  2  0
 67 69  2  0
 68 69  1  0
 71 70  1  0
 72 71  1  0
 71 74  1  1
 72 73  1  0
 80 72  1  0
109 72  1  0
 74 75  1  0
 75 76  1  0
 75 77  2  0
 76 78  2  0
 77 79  1  0
 79 78  1  0
109 80  1  6
 83 81  1  0
 81103  1  0
 82 84  1  0
 99 82  1  0
 82107  1  0
 96 83  1  0
 83106  2  0
 84 86  1  0
124 85  1  0
 86 96  1  1
 86125  1  0
 88 87  1  0
 87 92  2  0
 87124  1  0
 89 88  2  0
 89 90  1  0
115 89  1  0
 90 93  2  0
 94 91  1  0
 91107  2  0
 93 92  1  0
 93 94  1  0
 94 99  2  0
125 95  2  0
103 97  1  0
 97104  1  0
 97105  2  0
124 98  2  0
123100  2  0
121101  2  0
119102  2  0
108113  1  0
108116  1  0
117108  1  0
118109  1  0
110119  1  0
120110  1  0
111121  1  0
122111  1  0
123112  1  0
113114  2  0
115114  1  0
116115  2  0
118117  1  0
118119  1  6
121120  1  0
122123  1  0
M  CHG  4  10   1  55   1  85  -1 109   1
M  END
$$$$
