
     RDKit          3D

125134  0  0  0  0  0  0  0  0999 V2000
  -10.6357  -14.5800  -43.4257 N   0  0  0  0  0  0  0  0  0  0  0  0
   -9.3621  -14.0590  -42.9574 C   0  0  2  0  0  0  0  0  0  0  0  0
   -9.5540  -13.7711  -41.4875 C   0  0  0  0  0  0  0  0  0  0  0  0
   -9.8469  -12.5749  -41.2048 O   0  0  0  0  0  0  0  0  0  0  0  0
   -9.0143  -12.7271  -43.6166 C   0  0  0  0  0  0  0  0  0  0  0  0
   -9.9149  -12.3791  -44.7582 C   0  0  0  0  0  0  0  0  0  0  0  0
  -10.9449  -13.4976  -44.9234 C   0  0  0  0  0  0  0  0  0  0  0  0
  -12.1090  -12.9612  -45.5840 N   0  0  0  0  0  0  0  0  0  0  0  0
  -13.1832  -13.7460  -46.0675 C   0  0  0  0  0  0  0  0  0  0  0  0
  -13.2112  -14.9916  -45.8449 N   0  0  0  0  0  4  0  0  0  0  0  0
  -14.2495  -13.1479  -46.8189 N   0  0  0  0  0  0  0  0  0  0  0  0
   -9.4366  -14.6909  -40.4514 N   0  0  0  0  0  0  0  0  0  0  0  0
   -8.2920  -15.5026  -40.1310 C   0  0  2  0  0  0  0  0  0  0  0  0
   -8.4195  -16.3597  -38.9358 C   0  0  0  0  0  0  0  0  0  0  0  0
   -7.3459  -17.1056  -38.8016 O   0  0  0  0  0  0  0  0  0  0  0  0
   -6.9634  -14.9126  -40.3892 C   0  0  0  0  0  0  0  0  0  0  0  0
   -6.1298  -15.3889  -41.4977 C   0  0  1  0  0  0  0  0  0  0  0  0
   -6.5615  -16.5769  -42.2594 C   0  0  0  0  0  0  0  0  0  0  0  0
   -6.0216  -14.2234  -42.4990 C   0  0  0  0  0  0  0  0  0  0  0  0
   -9.3983  -16.5329  -37.9714 N   0  0  0  0  0  0  0  0  0  0  0  0
   -9.8315  -15.8554  -36.7922 C   0  0  2  0  0  0  0  0  0  0  0  0
  -10.6877  -14.6859  -36.9614 C   0  0  0  0  0  0  0  0  0  0  0  0
  -10.1296  -13.6348  -37.4344 O   0  0  0  0  0  0  0  0  0  0  0  0
   -8.7631  -15.5582  -35.7707 C   0  0  0  0  0  0  0  0  0  0  0  0
   -8.6475  -16.5408  -34.6776 C   0  0  0  0  0  0  0  0  0  0  0  0
   -7.6656  -16.4831  -33.7026 C   0  0  0  0  0  0  0  0  0  0  0  0
   -9.5792  -17.5886  -34.6272 C   0  0  0  0  0  0  0  0  0  0  0  0
   -7.6201  -17.4437  -32.7136 C   0  0  0  0  0  0  0  0  0  0  0  0
   -9.5259  -18.5410  -33.6386 C   0  0  0  0  0  0  0  0  0  0  0  0
   -8.5337  -18.4862  -32.6520 C   0  0  0  0  0  0  0  0  0  0  0  0
   -8.4840  -19.4438  -31.6597 O   0  0  0  0  0  0  0  0  0  0  0  0
  -12.0637  -14.5838  -36.6589 N   0  0  0  0  0  0  0  0  0  0  0  0
  -13.0159  -15.6777  -36.5988 C   0  0  0  0  0  0  0  0  0  0  0  0
  -14.3791  -15.1145  -36.7193 C   0  0  0  0  0  0  0  0  0  0  0  0
  -14.5171  -14.3530  -37.7575 O   0  0  0  0  0  0  0  0  0  0  0  0
  -15.4880  -15.2792  -35.9066 N   0  0  0  0  0  0  0  0  0  0  0  0
  -16.2300  -16.4726  -35.5197 C   0  0  2  0  0  0  0  0  0  0  0  0
  -17.6782  -16.2189  -35.5117 C   0  0  0  0  0  0  0  0  0  0  0  0
  -18.0480  -15.0962  -36.0362 O   0  0  0  0  0  0  0  0  0  0  0  0
  -15.6897  -17.0150  -34.2076 C   0  0  0  0  0  0  0  0  0  0  0  0
  -16.7844  -17.2466  -33.2112 C   0  0  0  0  0  0  0  0  0  0  0  0
  -16.4852  -17.7555  -31.9406 C   0  0  0  0  0  0  0  0  0  0  0  0
  -18.1035  -16.9969  -33.4902 C   0  0  0  0  0  0  0  0  0  0  0  0
  -17.4279  -18.0107  -30.9817 C   0  0  0  0  0  0  0  0  0  0  0  0
  -19.0770  -17.2405  -32.5533 C   0  0  0  0  0  0  0  0  0  0  0  0
  -18.7539  -17.7440  -31.3028 C   0  0  0  0  0  0  0  0  0  0  0  0
  -18.7192  -17.0050  -35.0214 N   0  0  0  0  0  0  0  0  0  0  0  0
  -19.1471  -18.3289  -35.4085 C   0  0  2  0  0  0  0  0  0  0  0  0
  -20.3730  -18.2930  -36.2290 C   0  0  0  0  0  0  0  0  0  0  0  0
  -20.7364  -17.1332  -36.6855 O   0  0  0  0  0  0  0  0  0  0  0  0
  -19.2382  -19.1525  -34.1639 C   0  0  0  0  0  0  0  0  0  0  0  0
  -17.9574  -19.4691  -33.4664 C   0  0  0  0  0  0  0  0  0  0  0  0
  -16.7381  -19.3273  -34.3282 C   0  0  0  0  0  0  0  0  0  0  0  0
  -16.7512  -20.3389  -35.4872 C   0  0  0  0  0  0  0  0  0  0  0  0
  -17.2371  -21.6127  -34.9487 N   0  0  0  0  0  4  0  0  0  0  0  0
  -21.1896  -19.3842  -36.5685 N   0  0  0  0  0  0  0  0  0  0  0  0
  -20.8053  -20.5798  -37.2774 C   0  0  2  0  0  0  0  0  0  0  0  0
  -20.5655  -20.3120  -38.7353 C   0  0  0  0  0  0  0  0  0  0  0  0
  -19.3355  -20.2396  -39.0990 O   0  0  0  0  0  0  0  0  0  0  0  0
  -21.7765  -21.6958  -37.0840 C   0  0  0  0  0  0  0  0  0  0  0  0
  -22.6664  -21.5682  -35.9076 C   0  0  0  0  0  0  0  0  0  0  0  0
  -23.6781  -22.4758  -35.5562 C   0  0  0  0  0  0  0  0  0  0  0  0
  -22.7133  -20.6027  -34.9235 C   0  0  0  0  0  0  0  0  0  0  0  0
  -24.2685  -22.0479  -34.4303 N   0  0  0  0  0  0  0  0  0  0  0  0
  -23.6945  -20.8949  -34.0165 C   0  0  0  0  0  0  0  0  0  0  0  0
  -21.9522  -19.4756  -34.7527 C   0  0  0  0  0  0  0  0  0  0  0  0
  -23.8906  -20.0329  -32.9411 C   0  0  0  0  0  0  0  0  0  0  0  0
  -22.1430  -18.6060  -33.6745 C   0  0  0  0  0  0  0  0  0  0  0  0
  -23.1251  -18.9099  -32.7777 C   0  0  0  0  0  0  0  0  0  0  0  0
  -21.5138  -20.1314  -39.7261 N   0  0  0  0  0  0  0  0  0  0  0  0
  -22.5564  -21.0559  -40.1917 C   0  0  2  0  0  0  0  0  0  0  0  0
  -22.4506  -21.2337  -41.6890 C   0  0  0  0  0  0  0  0  0  0  0  0
  -22.3622  -20.0127  -42.3819 O   0  0  0  0  0  0  0  0  0  0  0  0
  -23.9285  -20.4232  -39.9462 C   0  0  0  0  0  0  0  0  0  0  0  0
  -25.0200  -21.3675  -40.2718 C   0  0  0  0  0  0  0  0  0  0  0  0
  -26.3426  -21.1808  -40.3331 N   0  0  0  0  0  0  0  0  0  0  0  0
  -24.8583  -22.7261  -40.5903 C   0  0  0  0  0  0  0  0  0  0  0  0
  -26.9782  -22.3213  -40.6641 C   0  0  0  0  0  0  0  0  0  0  0  0
  -26.0408  -23.2926  -40.8262 N   0  0  0  0  0  0  0  0  0  0  0  0
  -23.2598  -22.1559  -42.3582 O   0  0  0  0  0  0  0  0  0  0  0  0
  -12.4795  -18.2704  -46.2063 C   0  0  0  0  0  0  0  0  0  0  0  0
  -12.3316  -17.2946  -46.6468 N   0  0  0  0  0  0  0  0  0  0  0  0
  -11.1174  -18.4789  -45.5809 C   0  0  0  0  0  0  0  0  0  0  0  0
  -11.7779  -15.9529  -46.4532 C   0  0  0  0  0  0  0  0  0  0  0  0
  -11.3356  -23.7941  -47.1142 O   0  0  0  0  0  1  0  0  0  0  0  0
  -10.5356  -16.0736  -45.5419 C   0  0  2  0  0  0  0  0  0  0  0  0
  -13.4864  -22.9539  -46.3297 C   0  0  0  0  0  0  0  0  0  0  0  0
  -14.7114  -23.1215  -45.7701 C   0  0  0  0  0  0  0  0  0  0  0  0
  -15.5988  -22.0659  -45.4204 C   0  0  0  0  0  0  0  0  0  0  0  0
  -15.1882  -20.7819  -45.6681 C   0  0  0  0  0  0  0  0  0  0  0  0
  -12.6102  -19.1018  -47.7742 N   0  0  0  0  0  0  0  0  0  0  0  0
  -13.1281  -21.6473  -46.5527 C   0  0  0  0  0  0  0  0  0  0  0  0
  -13.9559  -20.5388  -46.2309 C   0  0  0  0  0  0  0  0  0  0  0  0
  -13.2601  -19.2527  -46.5457 C   0  0  0  0  0  0  0  0  0  0  0  0
  -11.4777  -16.6894  -43.4976 O   0  0  0  0  0  0  0  0  0  0  0  0
  -10.1237  -17.4695  -45.7081 N   0  0  0  0  0  0  0  0  0  0  0  0
  -14.8767  -18.9279  -45.7412 C   0  0  0  0  0  0  0  0  0  0  0  0
  -13.0235  -25.2191  -46.5517 O   0  0  0  0  0  0  0  0  0  0  0  0
  -13.0564  -18.0755  -45.8626 C   0  0  0  0  0  0  0  0  0  0  0  0
  -20.2017  -28.2513  -42.3589 O   0  0  0  0  0  0  0  0  0  0  0  0
  -21.6168  -23.2896  -42.7897 O   0  0  0  0  0  0  0  0  0  0  0  0
  -21.8384  -20.6437  -45.1073 O   0  0  0  0  0  0  0  0  0  0  0  0
  -13.4941  -18.8960  -45.3952 N   0  0  0  0  0  0  0  0  0  0  0  0
  -15.9234  -18.5012  -44.7972 C   0  0  0  0  0  0  0  0  0  0  0  0
  -15.1785  -19.3334  -46.8906 O   0  0  0  0  0  0  0  0  0  0  0  0
  -10.9499  -19.5615  -44.9712 O   0  0  0  0  0  0  0  0  0  0  0  0
  -12.0761  -17.9521  -47.8103 N   0  0  0  0  0  0  0  0  0  0  0  0
  -18.8279  -23.1012  -43.9985 N   0  0  0  0  0  0  0  0  0  0  0  0
  -21.8490  -22.3497  -42.1879 N   0  0  1  0  0  4  0  0  0  0  0  0
  -22.6364  -22.7643  -45.1991 N   0  0  0  0  0  0  0  0  0  0  0  0
  -21.6505  -25.5778  -42.9846 N   0  0  0  0  0  0  0  0  0  0  0  0
  -18.7143  -26.6528  -41.5559 N   0  0  0  0  0  0  0  0  0  0  0  0
  -17.8743  -23.7456  -43.2534 N   0  0  0  0  0  0  0  0  0  0  0  0
  -16.7225  -23.4558  -43.6582 N   0  0  0  0  0  0  0  0  0  0  0  0
  -16.8470  -22.5600  -44.7464 C   0  0  0  0  0  0  0  0  0  0  0  0
  -18.1884  -22.3793  -44.9078 C   0  0  0  0  0  0  0  0  0  0  0  0
  -20.2301  -23.3263  -43.7125 C   0  0  0  0  0  0  0  0  0  0  0  0
  -21.0128  -22.0482  -43.3334 C   0  0  1  0  0  0  0  0  0  0  0  0
  -21.8359  -21.8028  -44.5557 C   0  0  0  0  0  0  0  0  0  0  0  0
  -22.8489  -24.0986  -44.6663 C   0  0  0  0  0  0  0  0  0  0  0  0
  -22.0198  -24.2882  -43.4485 C   0  0  0  0  0  0  0  0  0  0  0  0
  -20.3858  -26.1161  -43.3690 C   0  0  0  0  0  0  0  0  0  0  0  0
  -19.7824  -27.0634  -42.4206 C   0  0  0  0  0  0  0  0  0  0  0  0
  -12.6058  -24.0599  -46.6710 C   0  0  0  0  0  0  0  0  0  0  0  0
  -10.8710  -15.7538  -44.1590 C   0  0  0  0  0  0  0  0  0  0  0  0
  1  2  1  0
125  1  1  0
  2  3  1  0
  2  5  1  6
  3  4  2  0
  3 12  1  0
  5  6  1  0
  6  7  1  0
  7  8  1  0
  8  9  1  0
  9 10  2  0
  9 11  1  0
 12 13  1  0
 13 14  1  0
 13 16  1  1
 14 15  2  0
 14 20  1  0
 16 17  1  0
 17 18  1  6
 17 19  1  0
 21 20  1  0
 22 21  1  0
 21 24  1  6
 22 23  2  0
 32 22  1  0
 24 25  1  0
 25 26  2  0
 25 27  1  0
 26 28  1  0
 27 29  2  0
 28 30  2  0
 29 30  1  0
 30 31  1  0
 33 32  1  0
 34 33  1  0
 34 35  2  0
 36 34  1  0
 37 36  1  0
 38 37  1  0
 37 40  1  1
 38 39  2  0
 47 38  1  0
 40 41  1  0
 41 42  2  0
 41 43  1  0
 42 44  1  0
 43 45  2  0
 44 46  2  0
 45 46  1  0
 48 47  1  0
 49 48  1  0
 48 51  1  1
 49 50  2  0
 56 49  1  0
 51 52  1  0
 52 53  1  0
 53 54  1  0
 54 55  1  0
 57 56  1  0
 58 57  1  0
 57 60  1  6
 58 59  2  0
 70 58  1  0
 60 61  1  0
 61 62  2  0
 61 63  1  0
 62 64  1  0
 63 65  2  0
 63 66  1  0
 65 64  1  0
 65 67  1  0
 66 68  2  0
 67 69  2  0
 68 69  1  0
 71 70  1  0
 72 71  1  0
 71 74  1  6
 72 73  1  0
 80 72  1  0
109 72  1  0
 74 75  1  0
 75 76  1  0
 75 77  2  0
 76 78  2  0
 77 79  1  0
 79 78  1  0
109 80  1  6
 83 81  1  0
 81103  1  0
 82 84  1  0
 99 82  1  0
 82107  1  0
 96 83  1  0
 83106  2  0
 84 86  1  0
124 85  1  0
 86 96  1  1
 86125  1  0
 88 87  1  0
 87 92  2  0
 87124  1  0
 89 88  2  0
 89 90  1  0
115 89  1  0
 90 93  2  0
 94 91  1  0
 91107  2  0
 93 92  1  0
 93 94  1  0
 94 99  2  0
125 95  2  0
103 97  1  0
 97104  1  0
 97105  2  0
124 98  2  0
123100  2  0
121101  2  0
119102  2  0
108113  1  0
108116  1  0
117108  1  0
118109  1  0
110119  1  0
120110  1  0
111121  1  0
122111  1  0
123112  1  0
113114  2  0
115114  1  0
116115  2  0
118117  1  0
118119  1  6
121120  1  0
122123  1  0
M  CHG  4  10   1  55   1  85  -1 109   1
M  END
$$$$
