
     RDKit          3D

125134  0  0  0  0  0  0  0  0999 V2000
  -16.5740  -10.0290  -48.8622 N   0  0  0  0  0  0  0  0  0  0  0  0
  -17.3565   -9.8077  -50.0670 C   0  0  2  0  0  0  0  0  0  0  0  0
  -17.5402  -11.1705  -50.6910 C   0  0  0  0  0  0  0  0  0  0  0  0
  -16.7130  -11.4648  -51.5997 O   0  0  0  0  0  0  0  0  0  0  0  0
  -16.6014   -8.9628  -51.0895 C   0  0  0  0  0  0  0  0  0  0  0  0
  -15.2068   -8.6288  -50.6666 C   0  0  0  0  0  0  0  0  0  0  0  0
  -14.8414   -9.5004  -49.4642 C   0  0  0  0  0  0  0  0  0  0  0  0
  -15.9484  -10.3779  -49.1748 N   0  0  0  0  0  0  0  0  0  0  0  0
  -16.0012  -11.2546  -48.0648 C   0  0  0  0  0  0  0  0  0  0  0  0
  -15.1603  -11.1426  -47.1255 N   0  0  0  0  0  4  0  0  0  0  0  0
  -16.9990  -12.2830  -47.9883 N   0  0  0  0  0  0  0  0  0  0  0  0
  -18.5190  -12.0991  -50.3549 N   0  0  0  0  0  0  0  0  0  0  0  0
  -19.9456  -11.9096  -50.3771 C   0  0  2  0  0  0  0  0  0  0  0  0
  -20.7615  -13.0879  -50.0228 C   0  0  0  0  0  0  0  0  0  0  0  0
  -22.0345  -12.7623  -50.0007 O   0  0  0  0  0  0  0  0  0  0  0  0
  -20.4831  -11.0172  -51.4233 C   0  0  0  0  0  0  0  0  0  0  0  0
  -21.3975   -9.9223  -51.0832 C   0  0  1  0  0  0  0  0  0  0  0  0
  -21.9207   -9.8276  -49.7066 C   0  0  0  0  0  0  0  0  0  0  0  0
  -20.6412   -8.6119  -51.3717 C   0  0  0  0  0  0  0  0  0  0  0  0
  -20.4713  -14.4075  -49.7189 N   0  0  0  0  0  0  0  0  0  0  0  0
  -20.1500  -15.5969  -50.4394 C   0  0  2  0  0  0  0  0  0  0  0  0
  -18.7738  -15.7578  -50.8975 C   0  0  0  0  0  0  0  0  0  0  0  0
  -18.4018  -15.0003  -51.8608 O   0  0  0  0  0  0  0  0  0  0  0  0
  -21.1006  -15.9759  -51.5466 C   0  0  0  0  0  0  0  0  0  0  0  0
  -21.6164  -14.8492  -52.3457 C   0  0  0  0  0  0  0  0  0  0  0  0
  -20.8263  -14.0951  -53.1972 C   0  0  0  0  0  0  0  0  0  0  0  0
  -22.9767  -14.5248  -52.2329 C   0  0  0  0  0  0  0  0  0  0  0  0
  -21.3819  -13.0520  -53.9086 C   0  0  0  0  0  0  0  0  0  0  0  0
  -23.5212  -13.4838  -52.9451 C   0  0  0  0  0  0  0  0  0  0  0  0
  -22.7249  -12.7187  -53.8060 C   0  0  0  0  0  0  0  0  0  0  0  0
  -23.2755  -11.6747  -54.5209 O   0  0  0  0  0  0  0  0  0  0  0  0
  -17.8071  -16.6584  -50.3980 N   0  0  0  0  0  0  0  0  0  0  0  0
  -17.7769  -17.2393  -49.0680 C   0  0  0  0  0  0  0  0  0  0  0  0
  -16.4044  -17.7259  -48.8045 C   0  0  0  0  0  0  0  0  0  0  0  0
  -15.5034  -16.8173  -49.0026 O   0  0  0  0  0  0  0  0  0  0  0  0
  -15.9629  -18.9720  -48.3926 N   0  0  0  0  0  0  0  0  0  0  0  0
  -16.2555  -19.7503  -47.1955 C   0  0  2  0  0  0  0  0  0  0  0  0
  -15.0471  -20.4136  -46.6840 C   0  0  0  0  0  0  0  0  0  0  0  0
  -13.9355  -20.0380  -47.2276 O   0  0  0  0  0  0  0  0  0  0  0  0
  -17.4137  -20.6960  -47.4635 C   0  0  0  0  0  0  0  0  0  0  0  0
  -17.1080  -21.6428  -48.5837 C   0  0  0  0  0  0  0  0  0  0  0  0
  -15.8833  -21.5635  -49.2595 C   0  0  0  0  0  0  0  0  0  0  0  0
  -17.9951  -22.5988  -49.0071 C   0  0  0  0  0  0  0  0  0  0  0  0
  -15.5353  -22.3788  -50.3023 C   0  0  0  0  0  0  0  0  0  0  0  0
  -17.6810  -23.4347  -50.0500 C   0  0  0  0  0  0  0  0  0  0  0  0
  -16.4614  -23.3355  -50.7016 C   0  0  0  0  0  0  0  0  0  0  0  0
  -14.9145  -21.3913  -45.6999 N   0  0  0  0  0  0  0  0  0  0  0  0
  -15.2539  -21.3511  -44.2968 C   0  0  2  0  0  0  0  0  0  0  0  0
  -14.0584  -21.1972  -43.4456 C   0  0  0  0  0  0  0  0  0  0  0  0
  -12.9525  -20.8757  -44.0448 O   0  0  0  0  0  0  0  0  0  0  0  0
  -16.0933  -22.5533  -44.0038 C   0  0  0  0  0  0  0  0  0  0  0  0
  -15.7027  -23.8303  -44.6701 C   0  0  0  0  0  0  0  0  0  0  0  0
  -14.3397  -23.8042  -45.2955 C   0  0  0  0  0  0  0  0  0  0  0  0
  -14.1751  -22.5919  -46.2282 C   0  0  0  0  0  0  0  0  0  0  0  0
  -12.8397  -22.6802  -46.8264 N   0  0  0  0  0  4  0  0  0  0  0  0
  -13.9914  -21.3623  -42.0525 N   0  0  0  0  0  0  0  0  0  0  0  0
  -14.7417  -20.6498  -41.0480 C   0  0  2  0  0  0  0  0  0  0  0  0
  -14.2684  -19.2327  -40.8977 C   0  0  0  0  0  0  0  0  0  0  0  0
  -15.0044  -18.3329  -41.4447 O   0  0  0  0  0  0  0  0  0  0  0  0
  -14.7556  -21.3586  -39.7351 C   0  0  0  0  0  0  0  0  0  0  0  0
  -13.9905  -20.7034  -38.6501 C   0  0  0  0  0  0  0  0  0  0  0  0
  -13.8662  -21.1907  -37.3395 C   0  0  0  0  0  0  0  0  0  0  0  0
  -13.2488  -19.5403  -38.6565 C   0  0  0  0  0  0  0  0  0  0  0  0
  -13.0933  -20.3479  -36.6381 N   0  0  0  0  0  0  0  0  0  0  0  0
  -12.6974  -19.3206  -37.4242 C   0  0  0  0  0  0  0  0  0  0  0  0
  -13.0099  -18.6488  -39.6698 C   0  0  0  0  0  0  0  0  0  0  0  0
  -11.9056  -18.1911  -37.2366 C   0  0  0  0  0  0  0  0  0  0  0  0
  -12.2149  -17.5128  -39.4888 C   0  0  0  0  0  0  0  0  0  0  0  0
  -11.6715  -17.3064  -38.2546 C   0  0  0  0  0  0  0  0  0  0  0  0
  -13.1335  -18.7882  -40.2437 N   0  0  0  0  0  0  0  0  0  0  0  0
  -12.7599  -18.9350  -38.8304 C   0  0  2  0  0  0  0  0  0  0  0  0
  -12.4387  -17.5798  -38.2431 C   0  0  0  0  0  0  0  0  0  0  0  0
  -11.5479  -16.8346  -39.0368 O   0  0  0  0  0  0  0  0  0  0  0  0
  -11.4629  -19.7430  -38.7397 C   0  0  0  0  0  0  0  0  0  0  0  0
  -10.8065  -19.8527  -40.0612 C   0  0  0  0  0  0  0  0  0  0  0  0
  -10.2367  -20.9007  -40.6653 N   0  0  0  0  0  0  0  0  0  0  0  0
  -10.6430  -18.8052  -40.9828 C   0  0  0  0  0  0  0  0  0  0  0  0
   -9.7492  -20.5578  -41.8732 C   0  0  0  0  0  0  0  0  0  0  0  0
  -10.0074  -19.2376  -42.0708 N   0  0  0  0  0  0  0  0  0  0  0  0
  -12.1662  -17.4381  -36.8797 O   0  0  0  0  0  0  0  0  0  0  0  0
  -16.0877   -7.4179  -44.3507 C   0  0  0  0  0  0  0  0  0  0  0  0
  -15.8535   -8.1893  -44.7736 N   0  0  0  0  0  0  0  0  0  0  0  0
  -17.5395   -7.4478  -44.7763 C   0  0  0  0  0  0  0  0  0  0  0  0
  -15.5306   -7.9990  -46.1891 C   0  0  0  0  0  0  0  0  0  0  0  0
  -20.8613   -9.0045  -39.8074 O   0  0  0  0  0  1  0  0  0  0  0  0
  -16.8188   -8.2317  -47.0104 C   0  0  2  0  0  0  0  0  0  0  0  0
  -18.4623   -9.4401  -39.7644 C   0  0  0  0  0  0  0  0  0  0  0  0
  -17.8522  -10.5175  -39.2086 C   0  0  0  0  0  0  0  0  0  0  0  0
  -16.6953  -11.1589  -39.7321 C   0  0  0  0  0  0  0  0  0  0  0  0
  -16.1531  -10.6510  -40.8839 C   0  0  0  0  0  0  0  0  0  0  0  0
  -16.3392   -7.4640  -42.8107 N   0  0  0  0  0  0  0  0  0  0  0  0
  -17.8768   -8.9766  -40.9167 C   0  0  0  0  0  0  0  0  0  0  0  0
  -16.7228   -9.5615  -41.5029 C   0  0  0  0  0  0  0  0  0  0  0  0
  -16.3658   -8.8612  -42.7754 C   0  0  0  0  0  0  0  0  0  0  0  0
  -17.1809  -10.5198  -46.7280 O   0  0  0  0  0  0  0  0  0  0  0  0
  -17.8905   -7.9998  -46.0391 N   0  0  0  0  0  0  0  0  0  0  0  0
  -14.6412   -5.7114  -43.1714 C   0  0  0  0  0  0  0  0  0  0  0  0
  -19.5320   -8.1208  -38.1803 O   0  0  0  0  0  0  0  0  0  0  0  0
  -16.0484   -9.2781  -44.0479 C   0  0  0  0  0  0  0  0  0  0  0  0
  -10.7628  -11.3767  -31.2559 O   0  0  0  0  0  0  0  0  0  0  0  0
  -11.6412  -15.9891  -32.8574 O   0  0  0  0  0  0  0  0  0  0  0  0
  -11.6096  -13.9356  -37.8160 O   0  0  0  0  0  0  0  0  0  0  0  0
  -15.8840   -6.3812  -43.3697 N   0  0  0  0  0  0  0  0  0  0  0  0
  -13.9773   -5.6797  -41.8572 C   0  0  0  0  0  0  0  0  0  0  0  0
  -14.1222   -5.1445  -44.1643 O   0  0  0  0  0  0  0  0  0  0  0  0
  -18.3636   -6.9701  -43.9610 O   0  0  0  0  0  0  0  0  0  0  0  0
  -16.0382   -7.0951  -43.9862 N   0  0  0  0  0  0  0  0  0  0  0  0
  -15.4205  -13.9975  -37.7729 N   0  0  0  0  0  0  0  0  0  0  0  0
  -13.3718  -16.9448  -37.4799 N   0  0  1  0  0  4  0  0  0  0  0  0
  -11.7983  -15.0041  -35.8249 N   0  0  0  0  0  0  0  0  0  0  0  0
  -11.1510  -13.7453  -32.8524 N   0  0  0  0  0  0  0  0  0  0  0  0
  -11.8973  -12.4410  -29.5260 N   0  0  0  0  0  0  0  0  0  0  0  0
  -16.7511  -14.2585  -37.9757 N   0  0  0  0  0  0  0  0  0  0  0  0
  -17.2873  -13.3423  -38.6448 N   0  0  0  0  0  0  0  0  0  0  0  0
  -16.3000  -12.3729  -38.9407 C   0  0  0  0  0  0  0  0  0  0  0  0
  -15.1559  -12.8426  -38.3673 C   0  0  0  0  0  0  0  0  0  0  0  0
  -14.6226  -14.9208  -36.9922 C   0  0  0  0  0  0  0  0  0  0  0  0
  -13.4206  -15.5223  -37.7560 C   0  0  1  0  0  0  0  0  0  0  0  0
  -12.2610  -14.8103  -37.1392 C   0  0  0  0  0  0  0  0  0  0  0  0
  -12.6235  -14.7638  -34.6541 C   0  0  0  0  0  0  0  0  0  0  0  0
  -11.7937  -14.8729  -33.4270 C   0  0  0  0  0  0  0  0  0  0  0  0
  -10.8963  -13.7344  -31.4482 C   0  0  0  0  0  0  0  0  0  0  0  0
  -11.1693  -12.4635  -30.7616 C   0  0  0  0  0  0  0  0  0  0  0  0
  -19.6469   -8.8132  -39.1998 C   0  0  0  0  0  0  0  0  0  0  0  0
  -16.8493   -9.5824  -47.5600 C   0  0  0  0  0  0  0  0  0  0  0  0
  1  2  1  0
125  1  1  0
  2  3  1  0
  2  5  1  6
  3  4  2  0
  3 12  1  0
  5  6  1  0
  6  7  1  0
  7  8  1  0
  8  9  1  0
  9 10  2  0
  9 11  1  0
 12 13  1  0
 13 14  1  0
 13 16  1  6
 14 15  2  0
 14 20  1  0
 16 17  1  0
 17 18  1  1
 17 19  1  0
 21 20  1  0
 22 21  1  0
 21 24  1  6
 22 23  2  0
 32 22  1  0
 24 25  1  0
 25 26  2  0
 25 27  1  0
 26 28  1  0
 27 29  2  0
 28 30  2  0
 29 30  1  0
 30 31  1  0
 33 32  1  0
 34 33  1  0
 34 35  2  0
 36 34  1  0
 37 36  1  0
 38 37  1  0
 37 40  1  6
 38 39  2  0
 47 38  1  0
 40 41  1  0
 41 42  2  0
 41 43  1  0
 42 44  1  0
 43 45  2  0
 44 46  2  0
 45 46  1  0
 48 47  1  0
 49 48  1  0
 48 51  1  1
 49 50  2  0
 56 49  1  0
 51 52  1  0
 52 53  1  0
 53 54  1  0
 54 55  1  0
 57 56  1  0
 58 57  1  0
 57 60  1  1
 58 59  2  0
 70 58  1  0
 60 61  1  0
 61 62  2  0
 61 63  1  0
 62 64  1  0
 63 65  2  0
 63 66  1  0
 65 64  1  0
 65 67  1  0
 66 68  2  0
 67 69  2  0
 68 69  1  0
 71 70  1  0
 72 71  1  0
 71 74  1  6
 72 73  1  0
 80 72  1  0
109 72  1  0
 74 75  1  0
 75 76  1  0
 75 77  2  0
 76 78  2  0
 77 79  1  0
 79 78  1  0
109 80  1  1
 83 81  1  0
 81103  1  0
 82 84  1  0
 99 82  1  0
 82107  1  0
 96 83  1  0
 83106  2  0
 84 86  1  0
124 85  1  0
 86 96  1  1
 86125  1  0
 88 87  1  0
 87 92  2  0
 87124  1  0
 89 88  2  0
 89 90  1  0
115 89  1  0
 90 93  2  0
 94 91  1  0
 91107  2  0
 93 92  1  0
 93 94  1  0
 94 99  2  0
125 95  2  0
103 97  1  0
 97104  1  0
 97105  2  0
124 98  2  0
123100  2  0
121101  2  0
119102  2  0
108113  1  0
108116  1  0
117108  1  0
118109  1  0
110119  1  0
120110  1  0
111121  1  0
122111  1  0
123112  1  0
113114  2  0
115114  1  0
116115  2  0
118117  1  0
118119  1  1
121120  1  0
122123  1  0
M  CHG  4  10   1  55   1  85  -1 109   1
M  END
$$$$
