
     RDKit          3D

125134  0  0  0  0  0  0  0  0999 V2000
  -12.3607  -15.7113  -46.4417 N   0  0  0  0  0  0  0  0  0  0  0  0
  -10.9845  -15.5139  -46.8657 C   0  0  2  0  0  0  0  0  0  0  0  0
  -10.2018  -15.2477  -45.6019 C   0  0  0  0  0  0  0  0  0  0  0  0
  -10.0147  -14.0282  -45.3289 O   0  0  0  0  0  0  0  0  0  0  0  0
  -10.8300  -14.2718  -47.7391 C   0  0  0  0  0  0  0  0  0  0  0  0
  -12.1314  -13.6112  -48.0634 C   0  0  0  0  0  0  0  0  0  0  0  0
  -13.0837  -14.6650  -48.6306 C   0  0  0  0  0  0  0  0  0  0  0  0
  -12.6170  -15.0552  -49.9379 N   0  0  0  0  0  0  0  0  0  0  0  0
  -13.2757  -15.9889  -50.7732 C   0  0  0  0  0  0  0  0  0  0  0  0
  -14.5030  -16.2438  -50.5980 N   0  0  0  0  0  4  0  0  0  0  0  0
  -12.5665  -16.6631  -51.8229 N   0  0  0  0  0  0  0  0  0  0  0  0
   -9.6856  -16.2099  -44.7412 N   0  0  0  0  0  0  0  0  0  0  0  0
   -8.7729  -17.2736  -45.0684 C   0  0  2  0  0  0  0  0  0  0  0  0
   -8.3397  -18.1252  -43.9430 C   0  0  0  0  0  0  0  0  0  0  0  0
   -7.5792  -19.1013  -44.3854 O   0  0  0  0  0  0  0  0  0  0  0  0
   -7.7708  -16.9931  -46.1158 C   0  0  0  0  0  0  0  0  0  0  0  0
   -8.1251  -16.2188  -47.3098 C   0  0  1  0  0  0  0  0  0  0  0  0
   -9.3539  -16.5656  -48.0497 C   0  0  0  0  0  0  0  0  0  0  0  0
   -8.2669  -14.7532  -46.8576 C   0  0  0  0  0  0  0  0  0  0  0  0
   -8.5645  -18.1078  -42.5765 N   0  0  0  0  0  0  0  0  0  0  0  0
   -8.0615  -17.3962  -41.4462 C   0  0  2  0  0  0  0  0  0  0  0  0
   -8.5863  -16.0563  -41.2038 C   0  0  0  0  0  0  0  0  0  0  0  0
   -8.2157  -15.1427  -42.0212 O   0  0  0  0  0  0  0  0  0  0  0  0
   -6.5628  -17.3912  -41.2818 C   0  0  0  0  0  0  0  0  0  0  0  0
   -5.9116  -16.0851  -41.4914 C   0  0  0  0  0  0  0  0  0  0  0  0
   -5.9663  -15.3904  -42.6882 C   0  0  0  0  0  0  0  0  0  0  0  0
   -5.1978  -15.5216  -40.4231 C   0  0  0  0  0  0  0  0  0  0  0  0
   -5.3263  -14.1743  -42.8082 C   0  0  0  0  0  0  0  0  0  0  0  0
   -4.5631  -14.3100  -40.5520 C   0  0  0  0  0  0  0  0  0  0  0  0
   -4.6156  -13.6056  -41.7610 C   0  0  0  0  0  0  0  0  0  0  0  0
   -3.9781  -12.3882  -41.8864 O   0  0  0  0  0  0  0  0  0  0  0  0
   -9.4560  -15.6544  -40.1657 N   0  0  0  0  0  0  0  0  0  0  0  0
  -10.3870  -16.5034  -39.4450 C   0  0  0  0  0  0  0  0  0  0  0  0
  -11.4025  -15.6393  -38.8029 C   0  0  0  0  0  0  0  0  0  0  0  0
  -11.9686  -14.8263  -39.6366 O   0  0  0  0  0  0  0  0  0  0  0  0
  -11.8167  -15.5781  -37.4830 N   0  0  0  0  0  0  0  0  0  0  0  0
  -12.4108  -16.5846  -36.6123 C   0  0  2  0  0  0  0  0  0  0  0  0
  -13.4800  -16.0074  -35.7845 C   0  0  0  0  0  0  0  0  0  0  0  0
  -13.8470  -14.8102  -36.1076 O   0  0  0  0  0  0  0  0  0  0  0  0
  -11.3238  -17.2872  -35.8168 C   0  0  0  0  0  0  0  0  0  0  0  0
  -10.1461  -16.3924  -35.5777 C   0  0  0  0  0  0  0  0  0  0  0  0
   -9.0111  -16.8819  -34.9182 C   0  0  0  0  0  0  0  0  0  0  0  0
  -10.1258  -15.0772  -35.9651 C   0  0  0  0  0  0  0  0  0  0  0  0
   -7.9032  -16.1255  -34.6468 C   0  0  0  0  0  0  0  0  0  0  0  0
   -9.0321  -14.2876  -35.7099 C   0  0  0  0  0  0  0  0  0  0  0  0
   -7.9211  -14.7970  -35.0558 C   0  0  0  0  0  0  0  0  0  0  0  0
  -14.1612  -16.5535  -34.6984 N   0  0  0  0  0  0  0  0  0  0  0  0
  -14.9974  -17.7283  -34.6199 C   0  0  2  0  0  0  0  0  0  0  0  0
  -16.4305  -17.3812  -34.5655 C   0  0  0  0  0  0  0  0  0  0  0  0
  -16.7444  -16.1520  -34.8416 O   0  0  0  0  0  0  0  0  0  0  0  0
  -14.4997  -18.5576  -33.4796 C   0  0  0  0  0  0  0  0  0  0  0  0
  -13.3058  -18.0486  -32.7428 C   0  0  0  0  0  0  0  0  0  0  0  0
  -12.9597  -16.6213  -33.0469 C   0  0  0  0  0  0  0  0  0  0  0  0
  -13.6076  -15.6605  -32.0351 C   0  0  0  0  0  0  0  0  0  0  0  0
  -12.6288  -15.4241  -30.9698 N   0  0  0  0  0  4  0  0  0  0  0  0
  -17.4926  -18.2427  -34.2457 N   0  0  0  0  0  0  0  0  0  0  0  0
  -17.8616  -19.4656  -34.9149 C   0  0  2  0  0  0  0  0  0  0  0  0
  -18.4850  -19.2027  -36.2554 C   0  0  0  0  0  0  0  0  0  0  0  0
  -17.7292  -19.3990  -37.2756 O   0  0  0  0  0  0  0  0  0  0  0  0
  -18.7328  -20.3370  -34.0736 C   0  0  0  0  0  0  0  0  0  0  0  0
  -18.6869  -21.7817  -34.3941 C   0  0  0  0  0  0  0  0  0  0  0  0
  -19.6633  -22.4806  -35.1215 C   0  0  0  0  0  0  0  0  0  0  0  0
  -17.7353  -22.7339  -34.0928 C   0  0  0  0  0  0  0  0  0  0  0  0
  -19.2851  -23.7632  -35.2281 N   0  0  0  0  0  0  0  0  0  0  0  0
  -18.0996  -23.9493  -34.6035 C   0  0  0  0  0  0  0  0  0  0  0  0
  -16.5568  -22.6195  -33.4023 C   0  0  0  0  0  0  0  0  0  0  0  0
  -17.2566  -25.0392  -34.4048 C   0  0  0  0  0  0  0  0  0  0  0  0
  -15.7048  -23.7096  -33.1998 C   0  0  0  0  0  0  0  0  0  0  0  0
  -16.0809  -24.9157  -33.7147 C   0  0  0  0  0  0  0  0  0  0  0  0
  -19.7733  -18.7715  -36.5156 N   0  0  0  0  0  0  0  0  0  0  0  0
  -21.0517  -19.4144  -36.1823 C   0  0  2  0  0  0  0  0  0  0  0  0
  -21.8949  -19.5527  -37.4292 C   0  0  0  0  0  0  0  0  0  0  0  0
  -21.9850  -18.3579  -38.1662 O   0  0  0  0  0  0  0  0  0  0  0  0
  -21.8425  -18.4950  -35.2481 C   0  0  0  0  0  0  0  0  0  0  0  0
  -22.1930  -19.1854  -33.9874 C   0  0  0  0  0  0  0  0  0  0  0  0
  -22.8478  -18.7459  -32.9076 N   0  0  0  0  0  0  0  0  0  0  0  0
  -21.8749  -20.5159  -33.6676 C   0  0  0  0  0  0  0  0  0  0  0  0
  -22.9443  -19.7110  -31.9730 C   0  0  0  0  0  0  0  0  0  0  0  0
  -22.3314  -20.8249  -32.4548 N   0  0  0  0  0  0  0  0  0  0  0  0
  -23.1120  -20.2386  -37.3964 O   0  0  0  0  0  0  0  0  0  0  0  0
  -12.2969  -19.8655  -46.8263 C   0  0  0  0  0  0  0  0  0  0  0  0
  -16.1526  -17.8380  -47.7528 N   0  0  0  0  0  0  0  0  0  0  0  0
  -12.7100  -19.2986  -48.1672 C   0  0  0  0  0  0  0  0  0  0  0  0
  -15.3298  -16.6669  -48.0623 C   0  0  0  0  0  0  0  0  0  0  0  0
  -18.1803  -25.5246  -46.3077 O   0  0  0  0  0  1  0  0  0  0  0  0
  -13.8476  -17.1040  -48.0445 C   0  0  2  0  0  0  0  0  0  0  0  0
  -18.0321  -23.0918  -46.2272 C   0  0  0  0  0  0  0  0  0  0  0  0
  -18.6875  -22.9969  -45.0426 C   0  0  0  0  0  0  0  0  0  0  0  0
  -18.9520  -21.7811  -44.3528 C   0  0  0  0  0  0  0  0  0  0  0  0
  -18.5143  -20.6161  -44.9272 C   0  0  0  0  0  0  0  0  0  0  0  0
  -17.4119  -19.4881  -48.3061 N   0  0  0  0  0  0  0  0  0  0  0  0
  -17.6157  -21.8939  -46.7536 C   0  0  0  0  0  0  0  0  0  0  0  0
  -17.8396  -20.6391  -46.1267 C   0  0  0  0  0  0  0  0  0  0  0  0
  -17.2194  -19.5347  -46.9222 C   0  0  0  0  0  0  0  0  0  0  0  0
  -13.4942  -17.5681  -45.7849 O   0  0  0  0  0  0  0  0  0  0  0  0
  -13.9142  -18.5494  -48.2726 N   0  0  0  0  0  0  0  0  0  0  0  0
  -13.4465  -20.5254  -44.6727 C   0  0  0  0  0  0  0  0  0  0  0  0
  -17.2050  -24.3468  -47.9980 O   0  0  0  0  0  0  0  0  0  0  0  0
  -16.4124  -18.4628  -46.6161 C   0  0  0  0  0  0  0  0  0  0  0  0
  -24.2228  -13.5681  -41.4917 O   0  0  0  0  0  0  0  0  0  0  0  0
  -21.9984  -16.6232  -41.3368 O   0  0  0  0  0  0  0  0  0  0  0  0
  -24.2390  -20.0117  -39.2424 O   0  0  0  0  0  0  0  0  0  0  0  0
  -13.4070  -19.8144  -45.9077 N   0  0  0  0  0  0  0  0  0  0  0  0
  -12.8475  -19.9794  -43.4430 C   0  0  0  0  0  0  0  0  0  0  0  0
  -14.0169  -21.6439  -44.6645 O   0  0  0  0  0  0  0  0  0  0  0  0
  -11.9381  -19.5330  -49.1269 O   0  0  0  0  0  0  0  0  0  0  0  0
  -16.7803  -18.4903  -48.7686 N   0  0  0  0  0  0  0  0  0  0  0  0
  -20.8336  -22.1063  -41.2105 N   0  0  0  0  0  0  0  0  0  0  0  0
  -21.9537  -20.7561  -38.0652 N   0  0  1  0  0  4  0  0  0  0  0  0
  -23.4921  -19.7797  -41.3709 N   0  0  0  0  0  0  0  0  0  0  0  0
  -24.2279  -17.0437  -40.9796 N   0  0  0  0  0  0  0  0  0  0  0  0
  -25.7162  -15.0135  -42.5371 N   0  0  0  0  0  0  0  0  0  0  0  0
  -19.7828  -22.9802  -41.1022 N   0  0  0  0  0  0  0  0  0  0  0  0
  -19.0673  -22.9455  -42.1324 N   0  0  0  0  0  0  0  0  0  0  0  0
  -19.6249  -22.0030  -43.0284 C   0  0  0  0  0  0  0  0  0  0  0  0
  -20.7268  -21.5144  -42.3917 C   0  0  0  0  0  0  0  0  0  0  0  0
  -21.8011  -22.0161  -40.1360 C   0  0  0  0  0  0  0  0  0  0  0  0
  -21.9208  -20.6089  -39.5073 C   0  0  1  0  0  0  0  0  0  0  0  0
  -23.2358  -20.1341  -40.0337 C   0  0  0  0  0  0  0  0  0  0  0  0
  -22.7255  -18.7708  -42.0808 C   0  0  0  0  0  0  0  0  0  0  0  0
  -22.9521  -17.4413  -41.4581 C   0  0  0  0  0  0  0  0  0  0  0  0
  -24.4026  -15.7115  -40.4984 C   0  0  0  0  0  0  0  0  0  0  0  0
  -24.7588  -14.7096  -41.5133 C   0  0  0  0  0  0  0  0  0  0  0  0
  -17.7783  -24.3555  -46.9009 C   0  0  0  0  0  0  0  0  0  0  0  0
  -13.2216  -16.7706  -46.7700 C   0  0  0  0  0  0  0  0  0  0  0  0
  1  2  1  0
125  1  1  0
  2  3  1  0
  2  5  1  6
  3  4  2  0
  3 12  1  0
  5  6  1  0
  6  7  1  0
  7  8  1  0
  8  9  1  0
  9 10  2  0
  9 11  1  0
 12 13  1  0
 13 14  1  0
 13 16  1  1
 14 15  2  0
 14 20  1  0
 16 17  1  0
 17 18  1  1
 17 19  1  0
 21 20  1  0
 22 21  1  0
 21 24  1  6
 22 23  2  0
 32 22  1  0
 24 25  1  0
 25 26  2  0
 25 27  1  0
 26 28  1  0
 27 29  2  0
 28 30  2  0
 29 30  1  0
 30 31  1  0
 33 32  1  0
 34 33  1  0
 34 35  2  0
 36 34  1  0
 37 36  1  0
 38 37  1  0
 37 40  1  1
 38 39  2  0
 47 38  1  0
 40 41  1  0
 41 42  2  0
 41 43  1  0
 42 44  1  0
 43 45  2  0
 44 46  2  0
 45 46  1  0
 48 47  1  0
 49 48  1  0
 48 51  1  1
 49 50  2  0
 56 49  1  0
 51 52  1  0
 52 53  1  0
 53 54  1  0
 54 55  1  0
 57 56  1  0
 58 57  1  0
 57 60  1  1
 58 59  2  0
 70 58  1  0
 60 61  1  0
 61 62  2  0
 61 63  1  0
 62 64  1  0
 63 65  2  0
 63 66  1  0
 65 64  1  0
 65 67  1  0
 66 68  2  0
 67 69  2  0
 68 69  1  0
 71 70  1  0
 72 71  1  0
 71 74  1  1
 72 73  1  0
 80 72  1  0
109 72  1  0
 74 75  1  0
 75 76  1  0
 75 77  2  0
 76 78  2  0
 77 79  1  0
 79 78  1  0
109 80  1  6
 83 81  1  0
 81103  1  0
 82 84  1  0
 99 82  1  0
 82107  1  0
 96 83  1  0
 83106  2  0
 84 86  1  0
124 85  1  0
 86 96  1  1
 86125  1  0
 88 87  1  0
 87 92  2  0
 87124  1  0
 89 88  2  0
 89 90  1  0
115 89  1  0
 90 93  2  0
 94 91  1  0
 91107  2  0
 93 92  1  0
 93 94  1  0
 94 99  2  0
125 95  2  0
103 97  1  0
 97104  1  0
 97105  2  0
124 98  2  0
123100  2  0
121101  2  0
119102  2  0
108113  1  0
108116  1  0
117108  1  0
118109  1  0
110119  1  0
120110  1  0
111121  1  0
122111  1  0
123112  1  0
113114  2  0
115114  1  0
116115  2  0
118117  1  0
118119  1  6
121120  1  0
122123  1  0
M  CHG  4  10   1  55   1  85  -1 109   1
M  END
$$$$
