
     RDKit          3D

125134  0  0  0  0  0  0  0  0999 V2000
  -20.2955  -22.0636  -37.4282 N   0  0  0  0  0  0  0  0  0  0  0  0
  -21.1047  -21.9315  -36.2279 C   0  0  2  0  0  0  0  0  0  0  0  0
  -20.2776  -21.1126  -35.2657 C   0  0  0  0  0  0  0  0  0  0  0  0
  -19.6106  -21.7785  -34.4241 O   0  0  0  0  0  0  0  0  0  0  0  0
  -21.3455  -23.2787  -35.5522 C   0  0  0  0  0  0  0  0  0  0  0  0
  -20.1471  -23.7983  -34.8249 C   0  0  0  0  0  0  0  0  0  0  0  0
  -19.3319  -22.6077  -34.3180 C   0  0  0  0  0  0  0  0  0  0  0  0
  -19.5606  -22.4591  -32.9021 N   0  0  0  0  0  0  0  0  0  0  0  0
  -18.8862  -21.5250  -32.0798 C   0  0  0  0  0  0  0  0  0  0  0  0
  -19.0778  -20.2840  -32.2378 N   0  0  0  0  0  4  0  0  0  0  0  0
  -17.9746  -21.9658  -31.0628 N   0  0  0  0  0  0  0  0  0  0  0  0
  -20.1953  -19.7250  -35.2334 N   0  0  0  0  0  0  0  0  0  0  0  0
  -21.2788  -18.7901  -35.0794 C   0  0  2  0  0  0  0  0  0  0  0  0
  -20.9013  -17.3640  -35.0228 C   0  0  0  0  0  0  0  0  0  0  0  0
  -21.9801  -16.6159  -34.9646 O   0  0  0  0  0  0  0  0  0  0  0  0
  -22.4092  -19.2143  -34.2296 C   0  0  0  0  0  0  0  0  0  0  0  0
  -22.4648  -20.5688  -33.6702 C   0  0  1  0  0  0  0  0  0  0  0  0
  -22.0805  -21.7115  -34.5213 C   0  0  0  0  0  0  0  0  0  0  0  0
  -21.5273  -20.5788  -32.4481 C   0  0  0  0  0  0  0  0  0  0  0  0
  -19.6950  -16.6836  -35.0220 N   0  0  0  0  0  0  0  0  0  0  0  0
  -18.6747  -16.3715  -34.0740 C   0  0  2  0  0  0  0  0  0  0  0  0
  -17.6971  -17.4107  -33.7676 C   0  0  0  0  0  0  0  0  0  0  0  0
  -18.1189  -18.4045  -33.0786 O   0  0  0  0  0  0  0  0  0  0  0  0
  -19.1372  -15.7179  -32.7965 C   0  0  0  0  0  0  0  0  0  0  0  0
  -19.6607  -16.6401  -31.7721 C   0  0  0  0  0  0  0  0  0  0  0  0
  -19.5781  -16.3932  -30.4119 C   0  0  0  0  0  0  0  0  0  0  0  0
  -20.2700  -17.8291  -32.2001 C   0  0  0  0  0  0  0  0  0  0  0  0
  -20.0878  -17.3080  -29.5139 C   0  0  0  0  0  0  0  0  0  0  0  0
  -20.7744  -18.7347  -31.2985 C   0  0  0  0  0  0  0  0  0  0  0  0
  -20.6915  -18.4886  -29.9225 C   0  0  0  0  0  0  0  0  0  0  0  0
  -21.2004  -19.3997  -29.0198 O   0  0  0  0  0  0  0  0  0  0  0  0
  -16.3361  -17.4409  -34.1445 N   0  0  0  0  0  0  0  0  0  0  0  0
  -15.7415  -16.7602  -35.2804 C   0  0  0  0  0  0  0  0  0  0  0  0
  -14.4466  -17.4086  -35.5851 C   0  0  0  0  0  0  0  0  0  0  0  0
  -14.5507  -18.6905  -35.7352 O   0  0  0  0  0  0  0  0  0  0  0  0
  -13.1839  -16.8581  -35.7255 N   0  0  0  0  0  0  0  0  0  0  0  0
  -12.6693  -15.8501  -36.6439 C   0  0  2  0  0  0  0  0  0  0  0  0
  -11.3245  -16.2033  -37.1219 C   0  0  0  0  0  0  0  0  0  0  0  0
  -10.9297  -17.4006  -36.8338 O   0  0  0  0  0  0  0  0  0  0  0  0
  -12.7570  -14.4748  -36.0045 C   0  0  0  0  0  0  0  0  0  0  0  0
  -11.9633  -14.4020  -34.7358 C   0  0  0  0  0  0  0  0  0  0  0  0
  -12.5833  -14.6381  -33.5018 C   0  0  0  0  0  0  0  0  0  0  0  0
  -10.6282  -14.0904  -34.7154 C   0  0  0  0  0  0  0  0  0  0  0  0
  -11.9333  -14.5742  -32.2990 C   0  0  0  0  0  0  0  0  0  0  0  0
   -9.9429  -14.0170  -33.5280 C   0  0  0  0  0  0  0  0  0  0  0  0
  -10.5803  -14.2558  -32.3203 C   0  0  0  0  0  0  0  0  0  0  0  0
  -10.4039  -15.4421  -37.8396 N   0  0  0  0  0  0  0  0  0  0  0  0
  -10.5076  -14.8530  -39.1540 C   0  0  2  0  0  0  0  0  0  0  0  0
   -9.7434  -15.6149  -40.1604 C   0  0  0  0  0  0  0  0  0  0  0  0
   -9.3181  -16.7889  -39.8048 O   0  0  0  0  0  0  0  0  0  0  0  0
  -10.1342  -13.4105  -39.0296 C   0  0  0  0  0  0  0  0  0  0  0  0
   -9.4794  -12.9880  -37.7568 C   0  0  0  0  0  0  0  0  0  0  0  0
   -9.0736  -14.1262  -36.8684 C   0  0  0  0  0  0  0  0  0  0  0  0
   -9.1640  -15.4726  -37.6072 C   0  0  0  0  0  0  0  0  0  0  0  0
  -10.1377  -15.3108  -38.6909 N   0  0  0  0  0  4  0  0  0  0  0  0
   -9.4275  -15.2025  -41.4653 N   0  0  0  0  0  0  0  0  0  0  0  0
  -10.3450  -14.8279  -42.5129 C   0  0  2  0  0  0  0  0  0  0  0  0
  -11.0722  -16.0175  -43.0703 C   0  0  0  0  0  0  0  0  0  0  0  0
  -12.2856  -16.1702  -42.6768 O   0  0  0  0  0  0  0  0  0  0  0  0
   -9.6861  -14.0397  -43.5949 C   0  0  0  0  0  0  0  0  0  0  0  0
   -8.2070  -14.1006  -43.6158 C   0  0  0  0  0  0  0  0  0  0  0  0
   -7.3785  -13.3560  -44.4703 C   0  0  0  0  0  0  0  0  0  0  0  0
   -7.3323  -14.8403  -42.8472 C   0  0  0  0  0  0  0  0  0  0  0  0
   -6.0995  -13.6571  -44.2002 N   0  0  0  0  0  0  0  0  0  0  0  0
   -6.0397  -14.5697  -43.2034 C   0  0  0  0  0  0  0  0  0  0  0  0
   -7.5799  -15.7401  -41.8433 C   0  0  0  0  0  0  0  0  0  0  0  0
   -5.0094  -15.2208  -42.5307 C   0  0  0  0  0  0  0  0  0  0  0  0
   -6.5500  -16.3970  -41.1628 C   0  0  0  0  0  0  0  0  0  0  0  0
   -5.2658  -16.1173  -41.5286 C   0  0  0  0  0  0  0  0  0  0  0  0
  -10.5854  -16.9655  -43.9523 N   0  0  0  0  0  0  0  0  0  0  0  0
  -10.0789  -16.7867  -45.3197 C   0  0  2  0  0  0  0  0  0  0  0  0
  -10.8135  -17.7123  -46.2622 C   0  0  0  0  0  0  0  0  0  0  0  0
  -10.8663  -19.0393  -45.7983 O   0  0  0  0  0  0  0  0  0  0  0  0
   -8.6130  -17.2247  -45.3688 C   0  0  0  0  0  0  0  0  0  0  0  0
   -8.3665  -18.3732  -44.4692 C   0  0  0  0  0  0  0  0  0  0  0  0
   -9.1773  -18.9893  -43.6026 N   0  0  0  0  0  0  0  0  0  0  0  0
   -7.1529  -19.0697  -44.3456 C   0  0  0  0  0  0  0  0  0  0  0  0
   -8.5408  -19.9971  -42.9755 C   0  0  0  0  0  0  0  0  0  0  0  0
   -7.2661  -20.0459  -43.4461 N   0  0  0  0  0  0  0  0  0  0  0  0
  -10.5938  -17.6500  -47.6410 O   0  0  0  0  0  0  0  0  0  0  0  0
  -22.7345  -19.3616  -39.3691 C   0  0  0  0  0  0  0  0  0  0  0  0
  -20.7536  -22.6811  -41.9036 N   0  0  0  0  0  0  0  0  0  0  0  0
  -23.2588  -20.6966  -39.8515 C   0  0  0  0  0  0  0  0  0  0  0  0
  -20.8338  -23.4039  -40.6327 C   0  0  0  0  0  0  0  0  0  0  0  0
  -22.0566  -17.1292  -47.6353 O   0  0  0  0  0  1  0  0  0  0  0  0
  -21.5971  -22.5166  -39.6236 C   0  0  2  0  0  0  0  0  0  0  0  0
  -21.0058  -18.6783  -46.0722 C   0  0  0  0  0  0  0  0  0  0  0  0
  -19.7422  -18.3201  -46.4140 C   0  0  0  0  0  0  0  0  0  0  0  0
  -18.5583  -18.9160  -45.8973 C   0  0  0  0  0  0  0  0  0  0  0  0
  -18.7024  -19.9301  -44.9865 C   0  0  0  0  0  0  0  0  0  0  0  0
  -21.4039  -22.2631  -43.9079 N   0  0  0  0  0  0  0  0  0  0  0  0
  -21.0883  -19.6971  -45.1553 C   0  0  0  0  0  0  0  0  0  0  0  0
  -19.9550  -20.3421  -44.5921 C   0  0  0  0  0  0  0  0  0  0  0  0
  -20.3773  -21.3691  -43.5900 C   0  0  0  0  0  0  0  0  0  0  0  0
  -20.1019  -20.7585  -39.2784 O   0  0  0  0  0  0  0  0  0  0  0  0
  -22.3721  -21.6147  -40.4789 N   0  0  0  0  0  0  0  0  0  0  0  0
  -21.9312  -19.3846  -36.9713 C   0  0  0  0  0  0  0  0  0  0  0  0
  -23.3022  -18.3413  -46.1606 O   0  0  0  0  0  0  0  0  0  0  0  0
  -19.9937  -21.6750  -42.3042 C   0  0  0  0  0  0  0  0  0  0  0  0
  -18.7852  -17.3399  -50.5821 O   0  0  0  0  0  0  0  0  0  0  0  0
  -14.1245  -17.5069  -50.8258 O   0  0  0  0  0  0  0  0  0  0  0  0
  -11.8103  -20.1848  -47.6770 O   0  0  0  0  0  0  0  0  0  0  0  0
  -22.9557  -19.2298  -37.9505 N   0  0  0  0  0  0  0  0  0  0  0  0
  -21.0319  -18.2768  -36.6067 C   0  0  0  0  0  0  0  0  0  0  0  0
  -21.8193  -20.5073  -36.4203 O   0  0  0  0  0  0  0  0  0  0  0  0
  -24.4786  -20.9128  -39.6588 O   0  0  0  0  0  0  0  0  0  0  0  0
  -21.6059  -23.0182  -42.9093 N   0  0  0  0  0  0  0  0  0  0  0  0
  -15.3954  -17.5978  -47.2311 N   0  0  0  0  0  0  0  0  0  0  0  0
  -11.8196  -17.2164  -47.0357 N   0  0  1  0  0  4  0  0  0  0  0  0
  -13.2138  -19.4643  -49.3058 N   0  0  0  0  0  0  0  0  0  0  0  0
  -16.2602  -18.2963  -51.1272 N   0  0  0  0  0  0  0  0  0  0  0  0
  -18.3386  -15.1666  -51.2818 N   0  0  0  0  0  0  0  0  0  0  0  0
  -16.0995  -16.5018  -46.8035 N   0  0  0  0  0  0  0  0  0  0  0  0
  -17.2065  -16.8443  -46.3221 N   0  0  0  0  0  0  0  0  0  0  0  0
  -17.3093  -18.2531  -46.4042 C   0  0  0  0  0  0  0  0  0  0  0  0
  -16.1444  -18.6626  -46.9818 C   0  0  0  0  0  0  0  0  0  0  0  0
  -14.0987  -17.4162  -47.8510 C   0  0  0  0  0  0  0  0  0  0  0  0
  -12.9405  -18.1323  -47.1193 C   0  0  1  0  0  0  0  0  0  0  0  0
  -12.6405  -19.2738  -48.0353 C   0  0  0  0  0  0  0  0  0  0  0  0
  -14.6478  -19.4449  -49.5356 C   0  0  0  0  0  0  0  0  0  0  0  0
  -14.9826  -18.3788  -50.5143 C   0  0  0  0  0  0  0  0  0  0  0  0
  -16.6945  -17.0443  -51.6569 C   0  0  0  0  0  0  0  0  0  0  0  0
  -17.9809  -16.5489  -51.1463 C   0  0  0  0  0  0  0  0  0  0  0  0
  -22.1929  -18.0422  -46.6212 C   0  0  0  0  0  0  0  0  0  0  0  0
  -20.6702  -21.7996  -38.7552 C   0  0  0  0  0  0  0  0  0  0  0  0
  1  2  1  0
125  1  1  0
  2  3  1  0
  2  5  1  1
  3  4  2  0
  3 12  1  0
  5  6  1  0
  6  7  1  0
  7  8  1  0
  8  9  1  0
  9 10  2  0
  9 11  1  0
 12 13  1  0
 13 14  1  0
 13 16  1  1
 14 15  2  0
 14 20  1  0
 16 17  1  0
 17 18  1  6
 17 19  1  0
 21 20  1  0
 22 21  1  0
 21 24  1  1
 22 23  2  0
 32 22  1  0
 24 25  1  0
 25 26  2  0
 25 27  1  0
 26 28  1  0
 27 29  2  0
 28 30  2  0
 29 30  1  0
 30 31  1  0
 33 32  1  0
 34 33  1  0
 34 35  2  0
 36 34  1  0
 37 36  1  0
 38 37  1  0
 37 40  1  1
 38 39  2  0
 47 38  1  0
 40 41  1  0
 41 42  2  0
 41 43  1  0
 42 44  1  0
 43 45  2  0
 44 46  2  0
 45 46  1  0
 48 47  1  0
 49 48  1  0
 48 51  1  1
 49 50  2  0
 56 49  1  0
 51 52  1  0
 52 53  1  0
 53 54  1  0
 54 55  1  0
 57 56  1  0
 58 57  1  0
 57 60  1  6
 58 59  2  0
 70 58  1  0
 60 61  1  0
 61 62  2  0
 61 63  1  0
 62 64  1  0
 63 65  2  0
 63 66  1  0
 65 64  1  0
 65 67  1  0
 66 68  2  0
 67 69  2  0
 68 69  1  0
 71 70  1  0
 72 71  1  0
 71 74  1  1
 72 73  1  0
 80 72  1  0
109 72  1  0
 74 75  1  0
 75 76  1  0
 75 77  2  0
 76 78  2  0
 77 79  1  0
 79 78  1  0
109 80  1  6
 83 81  1  0
 81103  1  0
 82 84  1  0
 99 82  1  0
 82107  1  0
 96 83  1  0
 83106  2  0
 84 86  1  0
124 85  1  0
 86 96  1  6
 86125  1  0
 88 87  1  0
 87 92  2  0
 87124  1  0
 89 88  2  0
 89 90  1  0
115 89  1  0
 90 93  2  0
 94 91  1  0
 91107  2  0
 93 92  1  0
 93 94  1  0
 94 99  2  0
125 95  2  0
103 97  1  0
 97104  1  0
 97105  2  0
124 98  2  0
123100  2  0
121101  2  0
119102  2  0
108113  1  0
108116  1  0
117108  1  0
118109  1  0
110119  1  0
120110  1  0
111121  1  0
122111  1  0
123112  1  0
113114  2  0
115114  1  0
116115  2  0
118117  1  0
118119  1  6
121120  1  0
122123  1  0
M  CHG  4  10   1  55   1  85  -1 109   1
M  END
$$$$
