
     RDKit          3D

125134  0  0  0  0  0  0  0  0999 V2000
  -11.4807  -15.3180  -43.3506 N   0  0  0  0  0  0  0  0  0  0  0  0
  -10.0731  -15.0716  -43.0843 C   0  0  2  0  0  0  0  0  0  0  0  0
   -9.9621  -14.9145  -41.5865 C   0  0  0  0  0  0  0  0  0  0  0  0
   -9.9787  -13.7234  -41.1652 O   0  0  0  0  0  0  0  0  0  0  0  0
   -9.6004  -13.7541  -43.6929 C   0  0  0  0  0  0  0  0  0  0  0  0
   -8.4093  -13.9076  -44.5834 C   0  0  0  0  0  0  0  0  0  0  0  0
   -7.8407  -15.3151  -44.3967 C   0  0  0  0  0  0  0  0  0  0  0  0
   -8.7286  -16.2606  -45.0266 N   0  0  0  0  0  0  0  0  0  0  0  0
   -8.3284  -17.5289  -45.5111 C   0  0  0  0  0  0  0  0  0  0  0  0
   -7.0998  -17.7932  -45.6619 N   0  0  0  0  0  4  0  0  0  0  0  0
   -9.3026  -18.5288  -45.8433 N   0  0  0  0  0  0  0  0  0  0  0  0
   -9.8459  -15.9466  -40.6620 N   0  0  0  0  0  0  0  0  0  0  0  0
   -8.8334  -16.9686  -40.6181 C   0  0  2  0  0  0  0  0  0  0  0  0
   -8.9163  -17.9151  -39.4883 C   0  0  0  0  0  0  0  0  0  0  0  0
   -7.9914  -18.8407  -39.6091 O   0  0  0  0  0  0  0  0  0  0  0  0
   -7.4804  -16.5859  -41.0687 C   0  0  0  0  0  0  0  0  0  0  0  0
   -7.1879  -16.3883  -42.4921 C   0  0  1  0  0  0  0  0  0  0  0  0
   -8.0357  -17.0581  -43.4972 C   0  0  0  0  0  0  0  0  0  0  0  0
   -7.2845  -14.8736  -42.7549 C   0  0  0  0  0  0  0  0  0  0  0  0
   -9.7365  -18.0236  -38.3775 N   0  0  0  0  0  0  0  0  0  0  0  0
   -9.8357  -17.4133  -37.0912 C   0  0  2  0  0  0  0  0  0  0  0  0
  -10.4779  -16.1053  -37.0122 C   0  0  0  0  0  0  0  0  0  0  0  0
   -9.8221  -15.1183  -37.4979 O   0  0  0  0  0  0  0  0  0  0  0  0
   -8.5764  -17.4108  -36.2621 C   0  0  0  0  0  0  0  0  0  0  0  0
   -7.6266  -16.3243  -36.5645 C   0  0  0  0  0  0  0  0  0  0  0  0
   -7.6998  -15.5452  -37.7071 C   0  0  0  0  0  0  0  0  0  0  0  0
   -6.5950  -16.0717  -35.6478 C   0  0  0  0  0  0  0  0  0  0  0  0
   -6.7698  -14.5492  -37.9219 C   0  0  0  0  0  0  0  0  0  0  0  0
   -5.6731  -15.0778  -35.8703 C   0  0  0  0  0  0  0  0  0  0  0  0
   -5.7436  -14.2890  -37.0250 C   0  0  0  0  0  0  0  0  0  0  0  0
   -4.8166  -13.2906  -37.2447 O   0  0  0  0  0  0  0  0  0  0  0  0
  -11.7420  -15.8065  -36.4571 N   0  0  0  0  0  0  0  0  0  0  0  0
  -12.8560  -16.7251  -36.3075 C   0  0  0  0  0  0  0  0  0  0  0  0
  -14.0928  -15.9312  -36.1344 C   0  0  0  0  0  0  0  0  0  0  0  0
  -14.2586  -15.0507  -37.0691 O   0  0  0  0  0  0  0  0  0  0  0  0
  -15.0626  -15.9934  -35.1479 N   0  0  0  0  0  0  0  0  0  0  0  0
  -15.9370  -17.0797  -34.7240 C   0  0  2  0  0  0  0  0  0  0  0  0
  -17.2920  -16.5888  -34.4327 C   0  0  0  0  0  0  0  0  0  0  0  0
  -17.5305  -15.3704  -34.7943 O   0  0  0  0  0  0  0  0  0  0  0  0
  -15.2958  -17.8425  -33.5773 C   0  0  0  0  0  0  0  0  0  0  0  0
  -14.5171  -16.9347  -32.6749 C   0  0  0  0  0  0  0  0  0  0  0  0
  -14.4773  -15.5567  -32.9250 C   0  0  0  0  0  0  0  0  0  0  0  0
  -13.8064  -17.3954  -31.5966 C   0  0  0  0  0  0  0  0  0  0  0  0
  -13.7766  -14.6643  -32.1595 C   0  0  0  0  0  0  0  0  0  0  0  0
  -13.0917  -16.5301  -30.8059 C   0  0  0  0  0  0  0  0  0  0  0  0
  -13.0693  -15.1704  -31.0750 C   0  0  0  0  0  0  0  0  0  0  0  0
  -18.3639  -17.2368  -33.8220 N   0  0  0  0  0  0  0  0  0  0  0  0
  -19.0865  -18.4208  -34.2239 C   0  0  2  0  0  0  0  0  0  0  0  0
  -20.4037  -18.0920  -34.8019 C   0  0  0  0  0  0  0  0  0  0  0  0
  -20.6179  -16.8455  -35.0952 O   0  0  0  0  0  0  0  0  0  0  0  0
  -19.1199  -19.3459  -33.0496 C   0  0  0  0  0  0  0  0  0  0  0  0
  -20.2930  -19.2353  -32.1338 C   0  0  0  0  0  0  0  0  0  0  0  0
  -20.7462  -17.8275  -31.8845 C   0  0  0  0  0  0  0  0  0  0  0  0
  -19.6738  -16.8104  -32.3115 C   0  0  0  0  0  0  0  0  0  0  0  0
  -20.0472  -16.3147  -33.6395 N   0  0  0  0  0  4  0  0  0  0  0  0
  -21.4521  -18.9877  -35.0687 N   0  0  0  0  0  0  0  0  0  0  0  0
  -21.4176  -20.1480  -35.9244 C   0  0  2  0  0  0  0  0  0  0  0  0
  -21.3779  -19.7698  -37.3770 C   0  0  0  0  0  0  0  0  0  0  0  0
  -20.2332  -19.8665  -37.9523 O   0  0  0  0  0  0  0  0  0  0  0  0
  -22.5319  -21.0993  -35.6424 C   0  0  0  0  0  0  0  0  0  0  0  0
  -22.5322  -22.3375  -36.4542 C   0  0  0  0  0  0  0  0  0  0  0  0
  -23.3648  -22.5811  -37.5579 C   0  0  0  0  0  0  0  0  0  0  0  0
  -21.7607  -23.4760  -36.3473 C   0  0  0  0  0  0  0  0  0  0  0  0
  -23.0802  -23.7952  -38.0525 N   0  0  0  0  0  0  0  0  0  0  0  0
  -22.0945  -24.3709  -37.3264 C   0  0  0  0  0  0  0  0  0  0  0  0
  -20.7722  -23.7943  -35.4527 C   0  0  0  0  0  0  0  0  0  0  0  0
  -21.4155  -25.5848  -37.3841 C   0  0  0  0  0  0  0  0  0  0  0  0
  -20.0855  -25.0112  -35.5052 C   0  0  0  0  0  0  0  0  0  0  0  0
  -20.4289  -25.8941  -36.4869 C   0  0  0  0  0  0  0  0  0  0  0  0
  -22.4277  -19.3275  -38.1617 N   0  0  0  0  0  0  0  0  0  0  0  0
  -23.6853  -20.0085  -38.4981 C   0  0  2  0  0  0  0  0  0  0  0  0
  -23.8640  -20.0402  -39.9987 C   0  0  0  0  0  0  0  0  0  0  0  0
  -23.6685  -18.7842  -40.6015 O   0  0  0  0  0  0  0  0  0  0  0  0
  -24.8573  -19.1843  -37.9593 C   0  0  0  0  0  0  0  0  0  0  0  0
  -24.5682  -17.7348  -38.0254 C   0  0  0  0  0  0  0  0  0  0  0  0
  -24.4209  -16.8316  -37.0506 N   0  0  0  0  0  0  0  0  0  0  0  0
  -24.3908  -16.9890  -39.2026 C   0  0  0  0  0  0  0  0  0  0  0  0
  -24.1689  -15.6090  -37.5565 C   0  0  0  0  0  0  0  0  0  0  0  0
  -24.1497  -15.7114  -38.9122 N   0  0  0  0  0  0  0  0  0  0  0  0
  -24.9289  -20.7363  -40.5771 O   0  0  0  0  0  0  0  0  0  0  0  0
  -14.1379  -19.1759  -45.8135 C   0  0  0  0  0  0  0  0  0  0  0  0
  -14.1580  -17.3485  -46.4050 N   0  0  0  0  0  0  0  0  0  0  0  0
  -12.7612  -18.9094  -45.2448 C   0  0  0  0  0  0  0  0  0  0  0  0
  -13.3425  -16.1474  -46.2144 C   0  0  0  0  0  0  0  0  0  0  0  0
  -14.7408  -24.6318  -46.1728 O   0  0  0  0  0  1  0  0  0  0  0  0
  -12.0099  -16.5719  -45.5568 C   0  0  2  0  0  0  0  0  0  0  0  0
  -16.2664  -22.7344  -46.3130 C   0  0  0  0  0  0  0  0  0  0  0  0
  -17.3912  -22.7528  -45.5538 C   0  0  0  0  0  0  0  0  0  0  0  0
  -17.9985  -21.6069  -44.9691 C   0  0  0  0  0  0  0  0  0  0  0  0
  -17.4053  -20.3910  -45.1893 C   0  0  0  0  0  0  0  0  0  0  0  0
  -14.9479  -18.9521  -47.5965 N   0  0  0  0  0  0  0  0  0  0  0  0
  -15.7156  -21.4903  -46.4978 C   0  0  0  0  0  0  0  0  0  0  0  0
  -16.2601  -20.2995  -45.9473 C   0  0  0  0  0  0  0  0  0  0  0  0
  -15.4014  -19.1223  -46.2852 C   0  0  0  0  0  0  0  0  0  0  0  0
  -12.6968  -17.2361  -43.4276 O   0  0  0  0  0  0  0  0  0  0  0  0
  -11.8955  -17.9912  -45.9007 N   0  0  0  0  0  0  0  0  0  0  0  0
  -15.0014  -20.2443  -47.9367 C   0  0  0  0  0  0  0  0  0  0  0  0
  -16.0267  -24.2877  -48.0231 O   0  0  0  0  0  0  0  0  0  0  0  0
  -14.8740  -18.0760  -45.5634 C   0  0  0  0  0  0  0  0  0  0  0  0
  -22.1262  -23.7792  -49.1164 O   0  0  0  0  0  0  0  0  0  0  0  0
  -23.4588  -20.1546  -45.8110 O   0  0  0  0  0  0  0  0  0  0  0  0
  -23.9265  -19.1351  -43.2023 O   0  0  0  0  0  0  0  0  0  0  0  0
  -14.0511  -20.1435  -46.8788 N   0  0  0  0  0  0  0  0  0  0  0  0
  -16.2065  -19.3988  -47.9811 C   0  0  0  0  0  0  0  0  0  0  0  0
  -14.7756  -21.0845  -48.8421 O   0  0  0  0  0  0  0  0  0  0  0  0
  -12.4656  -19.5344  -44.1989 O   0  0  0  0  0  0  0  0  0  0  0  0
  -14.2247  -17.9112  -47.6421 N   0  0  0  0  0  0  0  0  0  0  0  0
  -21.0815  -22.2314  -43.0649 N   0  0  0  0  0  0  0  0  0  0  0  0
  -23.5695  -21.1814  -40.6822 N   0  0  1  0  0  4  0  0  0  0  0  0
  -24.7029  -21.1958  -43.7435 N   0  0  0  0  0  0  0  0  0  0  0  0
  -22.8339  -22.0989  -46.8618 N   0  0  0  0  0  0  0  0  0  0  0  0
  -21.0917  -25.2036  -47.5954 N   0  0  0  0  0  0  0  0  0  0  0  0
  -20.1527  -23.1028  -42.5573 N   0  0  0  0  0  0  0  0  0  0  0  0
  -19.0506  -22.9688  -43.1422 N   0  0  0  0  0  0  0  0  0  0  0  0
  -19.1868  -21.9536  -44.1183 C   0  0  0  0  0  0  0  0  0  0  0  0
  -20.4800  -21.5339  -44.0182 C   0  0  0  0  0  0  0  0  0  0  0  0
  -22.4339  -22.2471  -42.5460 C   0  0  0  0  0  0  0  0  0  0  0  0
  -22.8939  -20.9038  -41.9347 C   0  0  1  0  0  0  0  0  0  0  0  0
  -23.8490  -20.3941  -42.9642 C   0  0  0  0  0  0  0  0  0  0  0  0
  -24.2137  -22.1433  -44.7296 C   0  0  0  0  0  0  0  0  0  0  0  0
  -23.4954  -21.4165  -45.8076 C   0  0  0  0  0  0  0  0  0  0  0  0
  -22.8316  -23.5261  -46.8688 C   0  0  0  0  0  0  0  0  0  0  0  0
  -22.0171  -24.1562  -47.9178 C   0  0  0  0  0  0  0  0  0  0  0  0
  -15.6737  -23.9297  -46.8920 C   0  0  0  0  0  0  0  0  0  0  0  0
  -12.0465  -16.3504  -44.1156 C   0  0  0  0  0  0  0  0  0  0  0  0
  1  2  1  0
125  1  1  0
  2  3  1  0
  2  5  1  6
  3  4  2  0
  3 12  1  0
  5  6  1  0
  6  7  1  0
  7  8  1  0
  8  9  1  0
  9 10  2  0
  9 11  1  0
 12 13  1  0
 13 14  1  0
 13 16  1  1
 14 15  2  0
 14 20  1  0
 16 17  1  0
 17 18  1  6
 17 19  1  0
 21 20  1  0
 22 21  1  0
 21 24  1  6
 22 23  2  0
 32 22  1  0
 24 25  1  0
 25 26  2  0
 25 27  1  0
 26 28  1  0
 27 29  2  0
 28 30  2  0
 29 30  1  0
 30 31  1  0
 33 32  1  0
 34 33  1  0
 34 35  2  0
 36 34  1  0
 37 36  1  0
 38 37  1  0
 37 40  1  1
 38 39  2  0
 47 38  1  0
 40 41  1  0
 41 42  2  0
 41 43  1  0
 42 44  1  0
 43 45  2  0
 44 46  2  0
 45 46  1  0
 48 47  1  0
 49 48  1  0
 48 51  1  1
 49 50  2  0
 56 49  1  0
 51 52  1  0
 52 53  1  0
 53 54  1  0
 54 55  1  0
 57 56  1  0
 58 57  1  0
 57 60  1  6
 58 59  2  0
 70 58  1  0
 60 61  1  0
 61 62  2  0
 61 63  1  0
 62 64  1  0
 63 65  2  0
 63 66  1  0
 65 64  1  0
 65 67  1  0
 66 68  2  0
 67 69  2  0
 68 69  1  0
 71 70  1  0
 72 71  1  0
 71 74  1  1
 72 73  1  0
 80 72  1  0
109 72  1  0
 74 75  1  0
 75 76  1  0
 75 77  2  0
 76 78  2  0
 77 79  1  0
 79 78  1  0
109 80  1  6
 83 81  1  0
 81103  1  0
 82 84  1  0
 99 82  1  0
 82107  1  0
 96 83  1  0
 83106  2  0
 84 86  1  0
124 85  1  0
 86 96  1  1
 86125  1  0
 88 87  1  0
 87 92  2  0
 87124  1  0
 89 88  2  0
 89 90  1  0
115 89  1  0
 90 93  2  0
 94 91  1  0
 91107  2  0
 93 92  1  0
 93 94  1  0
 94 99  2  0
125 95  2  0
103 97  1  0
 97104  1  0
 97105  2  0
124 98  2  0
123100  2  0
121101  2  0
119102  2  0
108113  1  0
108116  1  0
117108  1  0
118109  1  0
110119  1  0
120110  1  0
111121  1  0
122111  1  0
123112  1  0
113114  2  0
115114  1  0
116115  2  0
118117  1  0
118119  1  6
121120  1  0
122123  1  0
M  CHG  4  10   1  55   1  85  -1 109   1
M  END
$$$$
