
     RDKit          3D

125134  0  0  0  0  0  0  0  0999 V2000
  -22.8499  -16.7324  -40.1230 N   0  0  0  0  0  0  0  0  0  0  0  0
  -24.1465  -16.7849  -40.7777 C   0  0  2  0  0  0  0  0  0  0  0  0
  -23.9371  -16.1845  -42.1475 C   0  0  0  0  0  0  0  0  0  0  0  0
  -24.2293  -14.9596  -42.2511 O   0  0  0  0  0  0  0  0  0  0  0  0
  -25.1763  -15.9056  -40.0736 C   0  0  0  0  0  0  0  0  0  0  0  0
  -24.5744  -14.9849  -39.0610 C   0  0  0  0  0  0  0  0  0  0  0  0
  -23.0651  -14.9196  -39.2994 C   0  0  0  0  0  0  0  0  0  0  0  0
  -22.3875  -15.2861  -38.0805 N   0  0  0  0  0  0  0  0  0  0  0  0
  -21.5470  -16.4169  -37.9452 C   0  0  0  0  0  0  0  0  0  0  0  0
  -20.3648  -16.3881  -38.3961 N   0  0  0  0  0  4  0  0  0  0  0  0
  -22.0196  -17.6104  -37.3037 N   0  0  0  0  0  0  0  0  0  0  0  0
  -23.4629  -16.8537  -43.2703 N   0  0  0  0  0  0  0  0  0  0  0  0
  -24.0192  -18.0307  -43.8841 C   0  0  2  0  0  0  0  0  0  0  0  0
  -23.3438  -18.5039  -45.1086 C   0  0  0  0  0  0  0  0  0  0  0  0
  -23.8938  -19.6241  -45.5204 O   0  0  0  0  0  0  0  0  0  0  0  0
  -25.4875  -18.1778  -43.8338 C   0  0  0  0  0  0  0  0  0  0  0  0
  -26.1375  -18.8727  -42.7179 C   0  0  1  0  0  0  0  0  0  0  0  0
  -25.4572  -20.0267  -42.0990 C   0  0  0  0  0  0  0  0  0  0  0  0
  -26.3490  -17.8238  -41.6099 C   0  0  0  0  0  0  0  0  0  0  0  0
  -22.2926  -18.0306  -45.8761 N   0  0  0  0  0  0  0  0  0  0  0  0
  -22.0999  -17.0320  -46.8775 C   0  0  2  0  0  0  0  0  0  0  0  0
  -21.9480  -15.6504  -46.4330 C   0  0  0  0  0  0  0  0  0  0  0  0
  -23.0003  -15.0791  -45.9787 O   0  0  0  0  0  0  0  0  0  0  0  0
  -23.0414  -17.0857  -48.0539 C   0  0  0  0  0  0  0  0  0  0  0  0
  -23.7331  -18.3734  -48.2475 C   0  0  0  0  0  0  0  0  0  0  0  0
  -23.1075  -19.5074  -48.7381 C   0  0  0  0  0  0  0  0  0  0  0  0
  -25.0953  -18.4495  -47.9205 C   0  0  0  0  0  0  0  0  0  0  0  0
  -23.8244  -20.6753  -48.8957 C   0  0  0  0  0  0  0  0  0  0  0  0
  -25.8013  -19.6170  -48.0812 C   0  0  0  0  0  0  0  0  0  0  0  0
  -25.1721  -20.7651  -48.5780 C   0  0  0  0  0  0  0  0  0  0  0  0
  -25.8840  -21.9364  -48.7369 O   0  0  0  0  0  0  0  0  0  0  0  0
  -20.7693  -14.8722  -46.4506 N   0  0  0  0  0  0  0  0  0  0  0  0
  -19.4066  -15.3721  -46.4294 C   0  0  0  0  0  0  0  0  0  0  0  0
  -18.5157  -14.2743  -45.9921 C   0  0  0  0  0  0  0  0  0  0  0  0
  -18.8954  -13.7336  -44.8785 O   0  0  0  0  0  0  0  0  0  0  0  0
  -17.3749  -13.7605  -46.5855 N   0  0  0  0  0  0  0  0  0  0  0  0
  -16.1052  -14.3858  -46.9337 C   0  0  2  0  0  0  0  0  0  0  0  0
  -14.9743  -13.4949  -46.6352 C   0  0  0  0  0  0  0  0  0  0  0  0
  -15.2649  -12.4419  -45.9431 O   0  0  0  0  0  0  0  0  0  0  0  0
  -16.1458  -14.8733  -48.3720 C   0  0  0  0  0  0  0  0  0  0  0  0
  -16.0006  -13.7427  -49.3443 C   0  0  0  0  0  0  0  0  0  0  0  0
  -14.7818  -13.5304  -50.0017 C   0  0  0  0  0  0  0  0  0  0  0  0
  -17.0205  -12.8687  -49.6201 C   0  0  0  0  0  0  0  0  0  0  0  0
  -14.5633  -12.5119  -50.8896 C   0  0  0  0  0  0  0  0  0  0  0  0
  -16.8386  -11.8350  -50.5052 C   0  0  0  0  0  0  0  0  0  0  0  0
  -15.6221  -11.6474  -51.1429 C   0  0  0  0  0  0  0  0  0  0  0  0
  -13.6308  -13.6098  -46.9869 N   0  0  0  0  0  0  0  0  0  0  0  0
  -12.6659  -14.6312  -46.6533 C   0  0  2  0  0  0  0  0  0  0  0  0
  -11.7248  -14.1797  -45.6104 C   0  0  0  0  0  0  0  0  0  0  0  0
  -12.0305  -13.0853  -44.9823 O   0  0  0  0  0  0  0  0  0  0  0  0
  -12.0321  -15.0833  -47.9299 C   0  0  0  0  0  0  0  0  0  0  0  0
  -11.2658  -16.3633  -47.8890 C   0  0  0  0  0  0  0  0  0  0  0  0
  -11.3337  -17.0773  -46.5718 C   0  0  0  0  0  0  0  0  0  0  0  0
  -10.7962  -16.1975  -45.4300 C   0  0  0  0  0  0  0  0  0  0  0  0
   -9.4593  -16.6933  -45.0899 N   0  0  0  0  0  4  0  0  0  0  0  0
  -10.5307  -14.8108  -45.2252 N   0  0  0  0  0  0  0  0  0  0  0  0
  -10.3709  -16.1533  -44.7232 C   0  0  2  0  0  0  0  0  0  0  0  0
  -10.8901  -16.2908  -43.3210 C   0  0  0  0  0  0  0  0  0  0  0  0
  -12.0349  -16.8609  -43.1984 O   0  0  0  0  0  0  0  0  0  0  0  0
   -8.9646  -16.6399  -44.8305 C   0  0  0  0  0  0  0  0  0  0  0  0
   -7.9559  -15.8360  -44.1039 C   0  0  0  0  0  0  0  0  0  0  0  0
   -6.5698  -15.8897  -44.3200 C   0  0  0  0  0  0  0  0  0  0  0  0
   -8.1130  -14.8896  -43.1126 C   0  0  0  0  0  0  0  0  0  0  0  0
   -5.9710  -15.0182  -43.4944 N   0  0  0  0  0  0  0  0  0  0  0  0
   -6.8976  -14.3865  -42.7377 C   0  0  0  0  0  0  0  0  0  0  0  0
   -9.2507  -14.4228  -42.5073 C   0  0  0  0  0  0  0  0  0  0  0  0
   -6.8539  -13.4097  -41.7468 C   0  0  0  0  0  0  0  0  0  0  0  0
   -9.2143  -13.4412  -41.5120 C   0  0  0  0  0  0  0  0  0  0  0  0
   -7.9953  -12.9486  -41.1482 C   0  0  0  0  0  0  0  0  0  0  0  0
  -10.2808  -15.8721  -42.1519 N   0  0  0  0  0  0  0  0  0  0  0  0
   -8.9877  -16.2765  -41.5836 C   0  0  2  0  0  0  0  0  0  0  0  0
   -9.1794  -16.7462  -40.1597 C   0  0  0  0  0  0  0  0  0  0  0  0
   -9.9352  -15.8494  -39.3829 O   0  0  0  0  0  0  0  0  0  0  0  0
   -8.0771  -15.0491  -41.4951 C   0  0  0  0  0  0  0  0  0  0  0  0
   -7.7915  -14.6942  -40.0875 C   0  0  0  0  0  0  0  0  0  0  0  0
   -8.5807  -14.1669  -39.1458 N   0  0  0  0  0  0  0  0  0  0  0  0
   -6.5545  -14.8488  -39.4398 C   0  0  0  0  0  0  0  0  0  0  0  0
   -7.9099  -13.9976  -37.9901 C   0  0  0  0  0  0  0  0  0  0  0  0
   -6.6342  -14.4288  -38.1781 N   0  0  0  0  0  0  0  0  0  0  0  0
   -8.1148  -17.2926  -39.4379 O   0  0  0  0  0  0  0  0  0  0  0  0
  -23.3238  -20.6891  -40.3879 C   0  0  0  0  0  0  0  0  0  0  0  0
  -20.4656  -18.8805  -36.9102 N   0  0  0  0  0  0  0  0  0  0  0  0
  -23.1249  -20.7456  -38.8888 C   0  0  0  0  0  0  0  0  0  0  0  0
  -21.5721  -17.9361  -37.0777 C   0  0  0  0  0  0  0  0  0  0  0  0
  -16.1151  -25.5005  -38.1507 O   0  0  0  0  0  1  0  0  0  0  0  0
  -22.4748  -18.4529  -38.2207 C   0  0  2  0  0  0  0  0  0  0  0  0
  -16.6788  -23.2077  -37.5404 C   0  0  0  0  0  0  0  0  0  0  0  0
  -15.4677  -22.6878  -37.8643 C   0  0  0  0  0  0  0  0  0  0  0  0
  -15.1689  -21.2986  -37.9312 C   0  0  0  0  0  0  0  0  0  0  0  0
  -16.1785  -20.4167  -37.6456 C   0  0  0  0  0  0  0  0  0  0  0  0
  -19.4874  -20.5226  -35.9297 N   0  0  0  0  0  0  0  0  0  0  0  0
  -17.6511  -22.2777  -37.2665 C   0  0  0  0  0  0  0  0  0  0  0  0
  -17.4330  -20.8749  -37.3127 C   0  0  0  0  0  0  0  0  0  0  0  0
  -18.6988  -20.1350  -37.0169 C   0  0  0  0  0  0  0  0  0  0  0  0
  -21.1060  -18.1890  -40.0922 O   0  0  0  0  0  0  0  0  0  0  0  0
  -22.1741  -19.8856  -38.2731 N   0  0  0  0  0  0  0  0  0  0  0  0
  -25.7796  -20.6760  -40.9909 C   0  0  0  0  0  0  0  0  0  0  0  0
  -17.9193  -25.0406  -36.8359 O   0  0  0  0  0  0  0  0  0  0  0  0
  -19.3615  -19.0847  -37.6098 C   0  0  0  0  0  0  0  0  0  0  0  0
  -11.3838  -14.8921  -32.1394 O   0  0  0  0  0  0  0  0  0  0  0  0
   -7.3965  -15.3079  -35.2364 O   0  0  0  0  0  0  0  0  0  0  0  0
  -10.4460  -18.4546  -36.5142 O   0  0  0  0  0  0  0  0  0  0  0  0
  -24.5507  -21.3559  -40.7467 N   0  0  0  0  0  0  0  0  0  0  0  0
  -25.8241  -19.3775  -41.6844 C   0  0  0  0  0  0  0  0  0  0  0  0
  -26.8364  -21.2259  -40.5940 O   0  0  0  0  0  0  0  0  0  0  0  0
  -23.8350  -21.5720  -38.2686 O   0  0  0  0  0  0  0  0  0  0  0  0
  -20.5124  -19.7769  -35.8876 N   0  0  0  0  0  0  0  0  0  0  0  0
  -11.6950  -20.4533  -38.7905 N   0  0  0  0  0  0  0  0  0  0  0  0
   -9.2202  -18.0825  -39.8973 N   0  0  1  0  0  4  0  0  0  0  0  0
   -8.6723  -17.2385  -37.2336 N   0  0  0  0  0  0  0  0  0  0  0  0
   -9.6501  -14.9943  -34.9232 N   0  0  0  0  0  0  0  0  0  0  0  0
  -12.5014  -16.0724  -33.8039 N   0  0  0  0  0  0  0  0  0  0  0  0
  -12.1144  -21.3212  -39.7655 N   0  0  0  0  0  0  0  0  0  0  0  0
  -13.3022  -21.6735  -39.5666 N   0  0  0  0  0  0  0  0  0  0  0  0
  -13.7650  -21.0313  -38.3938 C   0  0  0  0  0  0  0  0  0  0  0  0
  -12.7121  -20.2833  -37.9577 C   0  0  0  0  0  0  0  0  0  0  0  0
  -10.3368  -19.9502  -38.8183 C   0  0  0  0  0  0  0  0  0  0  0  0
  -10.2329  -18.4107  -38.9129 C   0  0  1  0  0  0  0  0  0  0  0  0
   -9.7922  -18.0346  -37.5359 C   0  0  0  0  0  0  0  0  0  0  0  0
   -8.7322  -15.7895  -37.1543 C   0  0  0  0  0  0  0  0  0  0  0  0
   -8.5510  -15.3584  -35.7444 C   0  0  0  0  0  0  0  0  0  0  0  0
   -9.9899  -15.8243  -33.8131 C   0  0  0  0  0  0  0  0  0  0  0  0
  -11.3019  -15.5654  -33.2027 C   0  0  0  0  0  0  0  0  0  0  0  0
  -16.9461  -24.6363  -37.4852 C   0  0  0  0  0  0  0  0  0  0  0  0
  -22.1676  -17.7741  -39.4745 C   0  0  0  0  0  0  0  0  0  0  0  0
  1  2  1  0
125  1  1  0
  2  3  1  0
  2  5  1  1
  3  4  2  0
  3 12  1  0
  5  6  1  0
  6  7  1  0
  7  8  1  0
  8  9  1  0
  9 10  2  0
  9 11  1  0
 12 13  1  0
 13 14  1  0
 13 16  1  6
 14 15  2  0
 14 20  1  0
 16 17  1  0
 17 18  1  1
 17 19  1  0
 21 20  1  0
 22 21  1  0
 21 24  1  6
 22 23  2  0
 32 22  1  0
 24 25  1  0
 25 26  2  0
 25 27  1  0
 26 28  1  0
 27 29  2  0
 28 30  2  0
 29 30  1  0
 30 31  1  0
 33 32  1  0
 34 33  1  0
 34 35  2  0
 36 34  1  0
 37 36  1  0
 38 37  1  0
 37 40  1  6
 38 39  2  0
 47 38  1  0
 40 41  1  0
 41 42  2  0
 41 43  1  0
 42 44  1  0
 43 45  2  0
 44 46  2  0
 45 46  1  0
 48 47  1  0
 49 48  1  0
 48 51  1  6
 49 50  2  0
 56 49  1  0
 51 52  1  0
 52 53  1  0
 53 54  1  0
 54 55  1  0
 57 56  1  0
 58 57  1  0
 57 60  1  1
 58 59  2  0
 70 58  1  0
 60 61  1  0
 61 62  2  0
 61 63  1  0
 62 64  1  0
 63 65  2  0
 63 66  1  0
 65 64  1  0
 65 67  1  0
 66 68  2  0
 67 69  2  0
 68 69  1  0
 71 70  1  0
 72 71  1  0
 71 74  1  1
 72 73  1  0
 80 72  1  0
109 72  1  0
 74 75  1  0
 75 76  1  0
 75 77  2  0
 76 78  2  0
 77 79  1  0
 79 78  1  0
109 80  1  1
 83 81  1  0
 81103  1  0
 82 84  1  0
 99 82  1  0
 82107  1  0
 96 83  1  0
 83106  2  0
 84 86  1  0
124 85  1  0
 86 96  1  6
 86125  1  0
 88 87  1  0
 87 92  2  0
 87124  1  0
 89 88  2  0
 89 90  1  0
115 89  1  0
 90 93  2  0
 94 91  1  0
 91107  2  0
 93 92  1  0
 93 94  1  0
 94 99  2  0
125 95  2  0
103 97  1  0
 97104  1  0
 97105  2  0
124 98  2  0
123100  2  0
121101  2  0
119102  2  0
108113  1  0
108116  1  0
117108  1  0
118109  1  0
110119  1  0
120110  1  0
111121  1  0
122111  1  0
123112  1  0
113114  2  0
115114  1  0
116115  2  0
118117  1  0
118119  1  1
121120  1  0
122123  1  0
M  CHG  4  10   1  55   1  85  -1 109   1
M  END
$$$$
