
     RDKit          3D

125134  0  0  0  0  0  0  0  0999 V2000
  -11.2852  -15.3002  -47.5337 N   0  0  0  0  0  0  0  0  0  0  0  0
   -9.9089  -15.0914  -47.9521 C   0  0  2  0  0  0  0  0  0  0  0  0
   -9.1235  -14.8761  -46.6804 C   0  0  0  0  0  0  0  0  0  0  0  0
   -8.9318  -13.6685  -46.3615 O   0  0  0  0  0  0  0  0  0  0  0  0
   -9.7516  -13.8175  -48.7779 C   0  0  0  0  0  0  0  0  0  0  0  0
  -10.7951  -12.7884  -48.4824 C   0  0  0  0  0  0  0  0  0  0  0  0
  -10.9548  -12.6794  -46.9653 C   0  0  0  0  0  0  0  0  0  0  0  0
  -12.0956  -13.4637  -46.5621 N   0  0  0  0  0  0  0  0  0  0  0  0
  -12.4536  -13.7162  -45.2162 C   0  0  0  0  0  0  0  0  0  0  0  0
  -12.5200  -12.7629  -44.3863 N   0  0  0  0  0  4  0  0  0  0  0  0
  -12.7397  -15.0499  -44.7704 N   0  0  0  0  0  0  0  0  0  0  0  0
   -8.6093  -15.8721  -45.8578 N   0  0  0  0  0  0  0  0  0  0  0  0
   -7.7006  -16.9256  -46.2267 C   0  0  2  0  0  0  0  0  0  0  0  0
   -7.2686  -17.8208  -45.1352 C   0  0  0  0  0  0  0  0  0  0  0  0
   -6.5120  -18.7819  -45.6157 O   0  0  0  0  0  0  0  0  0  0  0  0
   -6.6991  -16.6087  -47.2644 C   0  0  0  0  0  0  0  0  0  0  0  0
   -7.0643  -16.5935  -48.6846 C   0  0  1  0  0  0  0  0  0  0  0  0
   -7.9305  -17.6651  -49.2129 C   0  0  0  0  0  0  0  0  0  0  0  0
   -7.7895  -15.2584  -48.9380 C   0  0  0  0  0  0  0  0  0  0  0  0
   -7.4912  -17.8547  -43.7687 N   0  0  0  0  0  0  0  0  0  0  0  0
   -6.9842  -17.1883  -42.6130 C   0  0  2  0  0  0  0  0  0  0  0  0
   -7.5041  -15.8569  -42.3189 C   0  0  0  0  0  0  0  0  0  0  0  0
   -7.1316  -14.9141  -43.1015 O   0  0  0  0  0  0  0  0  0  0  0  0
   -5.4852  -17.1946  -42.4510 C   0  0  0  0  0  0  0  0  0  0  0  0
   -4.8341  -15.8773  -42.5727 C   0  0  0  0  0  0  0  0  0  0  0  0
   -3.9552  -15.5539  -43.5930 C   0  0  0  0  0  0  0  0  0  0  0  0
   -5.1186  -14.9052  -41.6019 C   0  0  0  0  0  0  0  0  0  0  0  0
   -3.3818  -14.3000  -43.6361 C   0  0  0  0  0  0  0  0  0  0  0  0
   -4.5425  -13.6591  -41.6527 C   0  0  0  0  0  0  0  0  0  0  0  0
   -3.6526  -13.3293  -42.6823 C   0  0  0  0  0  0  0  0  0  0  0  0
   -3.0769  -12.0762  -42.7309 O   0  0  0  0  0  0  0  0  0  0  0  0
   -8.3708  -15.4919  -41.2649 N   0  0  0  0  0  0  0  0  0  0  0  0
   -9.3037  -16.3646  -40.5754 C   0  0  0  0  0  0  0  0  0  0  0  0
  -10.3152  -15.5222  -39.8993 C   0  0  0  0  0  0  0  0  0  0  0  0
  -10.8799  -14.6762  -40.7005 O   0  0  0  0  0  0  0  0  0  0  0  0
  -10.7272  -15.5099  -38.5773 N   0  0  0  0  0  0  0  0  0  0  0  0
  -11.3234  -16.5469  -37.7446 C   0  0  2  0  0  0  0  0  0  0  0  0
  -12.3895  -15.9980  -36.8937 C   0  0  0  0  0  0  0  0  0  0  0  0
  -12.7529  -14.7882  -37.1704 O   0  0  0  0  0  0  0  0  0  0  0  0
  -10.2376  -17.2829  -36.9782 C   0  0  0  0  0  0  0  0  0  0  0  0
   -9.9589  -16.6374  -35.6552 C   0  0  0  0  0  0  0  0  0  0  0  0
  -10.5861  -15.4324  -35.3125 C   0  0  0  0  0  0  0  0  0  0  0  0
   -9.0842  -17.1688  -34.7427 C   0  0  0  0  0  0  0  0  0  0  0  0
  -10.3725  -14.7718  -34.1330 C   0  0  0  0  0  0  0  0  0  0  0  0
   -8.8445  -16.5345  -33.5489 C   0  0  0  0  0  0  0  0  0  0  0  0
   -9.4790  -15.3428  -33.2340 C   0  0  0  0  0  0  0  0  0  0  0  0
  -13.0709  -16.5828  -35.8281 N   0  0  0  0  0  0  0  0  0  0  0  0
  -13.9109  -17.7570  -35.7930 C   0  0  2  0  0  0  0  0  0  0  0  0
  -15.3427  -17.4074  -35.7230 C   0  0  0  0  0  0  0  0  0  0  0  0
  -15.6529  -16.1676  -35.9517 O   0  0  0  0  0  0  0  0  0  0  0  0
  -13.4143  -18.6307  -34.6858 C   0  0  0  0  0  0  0  0  0  0  0  0
  -11.9360  -18.7965  -34.5655 C   0  0  0  0  0  0  0  0  0  0  0  0
  -11.1421  -17.8851  -35.4534 C   0  0  0  0  0  0  0  0  0  0  0  0
  -11.9685  -17.4269  -36.6674 C   0  0  0  0  0  0  0  0  0  0  0  0
  -13.1930  -18.2324  -36.6903 N   0  0  0  0  0  4  0  0  0  0  0  0
  -16.4073  -18.2770  -35.4346 N   0  0  0  0  0  0  0  0  0  0  0  0
  -16.7814  -19.4723  -36.1492 C   0  0  2  0  0  0  0  0  0  0  0  0
  -17.4060  -19.1565  -37.4777 C   0  0  0  0  0  0  0  0  0  0  0  0
  -16.6523  -19.3164  -38.5058 O   0  0  0  0  0  0  0  0  0  0  0  0
  -17.6542  -20.3723  -35.3403 C   0  0  0  0  0  0  0  0  0  0  0  0
  -17.0034  -21.6008  -34.8313 C   0  0  0  0  0  0  0  0  0  0  0  0
  -17.0872  -22.8681  -35.4296 C   0  0  0  0  0  0  0  0  0  0  0  0
  -16.1975  -21.7936  -33.7285 C   0  0  0  0  0  0  0  0  0  0  0  0
  -16.3654  -23.7354  -34.7041 N   0  0  0  0  0  0  0  0  0  0  0  0
  -15.8047  -23.1014  -33.6488 C   0  0  0  0  0  0  0  0  0  0  0  0
  -15.7697  -20.9029  -32.7786 C   0  0  0  0  0  0  0  0  0  0  0  0
  -14.9774  -23.4893  -32.5986 C   0  0  0  0  0  0  0  0  0  0  0  0
  -14.9380  -21.2854  -31.7216 C   0  0  0  0  0  0  0  0  0  0  0  0
  -14.5542  -22.5928  -31.6547 C   0  0  0  0  0  0  0  0  0  0  0  0
  -18.6932  -18.7115  -37.7193 N   0  0  0  0  0  0  0  0  0  0  0  0
  -19.9732  -19.3623  -37.4086 C   0  0  2  0  0  0  0  0  0  0  0  0
  -20.8187  -19.4502  -38.6584 C   0  0  0  0  0  0  0  0  0  0  0  0
  -20.9060  -18.2280  -39.3493 O   0  0  0  0  0  0  0  0  0  0  0  0
  -20.7595  -18.4765  -36.4388 C   0  0  0  0  0  0  0  0  0  0  0  0
  -20.2155  -17.1010  -36.4082 C   0  0  0  0  0  0  0  0  0  0  0  0
  -20.6378  -16.0126  -35.7565 N   0  0  0  0  0  0  0  0  0  0  0  0
  -19.0845  -16.6529  -37.1108 C   0  0  0  0  0  0  0  0  0  0  0  0
  -19.8458  -14.9544  -36.0159 C   0  0  0  0  0  0  0  0  0  0  0  0
  -18.8679  -15.3610  -36.8685 N   0  0  0  0  0  0  0  0  0  0  0  0
  -22.0381  -20.1328  -38.6498 O   0  0  0  0  0  0  0  0  0  0  0  0
  -11.2229  -17.6273  -51.3661 C   0  0  0  0  0  0  0  0  0  0  0  0
  -15.0862  -17.3629  -48.9187 N   0  0  0  0  0  0  0  0  0  0  0  0
  -12.0439  -18.5763  -50.5205 C   0  0  0  0  0  0  0  0  0  0  0  0
  -14.2599  -16.1836  -49.1847 C   0  0  0  0  0  0  0  0  0  0  0  0
  -15.7934  -23.9198  -49.3119 O   0  0  0  0  0  1  0  0  0  0  0  0
  -12.7791  -16.6260  -49.1859 C   0  0  2  0  0  0  0  0  0  0  0  0
  -16.9811  -22.6647  -47.5911 C   0  0  0  0  0  0  0  0  0  0  0  0
  -17.6344  -22.6128  -46.4026 C   0  0  0  0  0  0  0  0  0  0  0  0
  -17.8938  -21.4232  -45.6667 C   0  0  0  0  0  0  0  0  0  0  0  0
  -17.4530  -20.2387  -46.1970 C   0  0  0  0  0  0  0  0  0  0  0  0
  -16.3519  -18.9866  -49.5323 N   0  0  0  0  0  0  0  0  0  0  0  0
  -16.5615  -21.4490  -48.0721 C   0  0  0  0  0  0  0  0  0  0  0  0
  -16.7802  -20.2182  -47.3976 C   0  0  0  0  0  0  0  0  0  0  0  0
  -16.1575  -19.0864  -48.1515 C   0  0  0  0  0  0  0  0  0  0  0  0
  -12.4239  -17.1769  -46.9462 O   0  0  0  0  0  0  0  0  0  0  0  0
  -12.8510  -18.0615  -49.4688 N   0  0  0  0  0  0  0  0  0  0  0  0
  -11.5309  -16.2286  -53.4503 C   0  0  0  0  0  0  0  0  0  0  0  0
  -17.3748  -24.9156  -48.0069 O   0  0  0  0  0  0  0  0  0  0  0  0
  -15.3464  -18.0297  -47.8061 C   0  0  0  0  0  0  0  0  0  0  0  0
  -22.0938  -26.8435  -43.1077 O   0  0  0  0  0  0  0  0  0  0  0  0
  -22.9843  -22.6987  -42.4744 O   0  0  0  0  0  0  0  0  0  0  0  0
  -22.2156  -18.8711  -42.0082 O   0  0  0  0  0  0  0  0  0  0  0  0
  -12.0286  -17.1038  -52.4411 N   0  0  0  0  0  0  0  0  0  0  0  0
  -12.3616  -15.8069  -54.5910 C   0  0  0  0  0  0  0  0  0  0  0  0
  -10.3490  -15.8209  -53.3343 O   0  0  0  0  0  0  0  0  0  0  0  0
  -11.9568  -19.7923  -50.8130 O   0  0  0  0  0  0  0  0  0  0  0  0
  -15.7176  -17.9740  -49.9575 N   0  0  0  0  0  0  0  0  0  0  0  0
  -19.7718  -21.8616  -42.5359 N   0  0  0  0  0  0  0  0  0  0  0  0
  -20.8825  -20.6284  -39.3397 N   0  0  1  0  0  4  0  0  0  0  0  0
  -23.4103  -20.5364  -41.0380 N   0  0  0  0  0  0  0  0  0  0  0  0
  -23.1060  -24.2600  -40.7944 N   0  0  0  0  0  0  0  0  0  0  0  0
  -20.7737  -25.2627  -42.0256 N   0  0  0  0  0  0  0  0  0  0  0  0
  -18.7238  -22.7425  -42.4627 N   0  0  0  0  0  0  0  0  0  0  0  0
  -18.0097  -22.6710  -43.4920 N   0  0  0  0  0  0  0  0  0  0  0  0
  -18.5654  -21.6932  -44.3505 C   0  0  0  0  0  0  0  0  0  0  0  0
  -19.6647  -21.2255  -43.6939 C   0  0  0  0  0  0  0  0  0  0  0  0
  -20.7373  -21.8092  -41.4572 C   0  0  0  0  0  0  0  0  0  0  0  0
  -20.8513  -20.4265  -40.7752 C   0  0  1  0  0  0  0  0  0  0  0  0
  -22.1655  -19.9276  -41.2810 C   0  0  0  0  0  0  0  0  0  0  0  0
  -23.5470  -21.8007  -40.3364 C   0  0  0  0  0  0  0  0  0  0  0  0
  -23.2017  -22.9193  -41.2507 C   0  0  0  0  0  0  0  0  0  0  0  0
  -23.2793  -25.3238  -41.7299 C   0  0  0  0  0  0  0  0  0  0  0  0
  -22.0449  -25.8556  -42.3250 C   0  0  0  0  0  0  0  0  0  0  0  0
  -16.7326  -23.9027  -48.3128 C   0  0  0  0  0  0  0  0  0  0  0  0
  -12.1501  -16.3434  -47.9007 C   0  0  0  0  0  0  0  0  0  0  0  0
  1  2  1  0
125  1  1  0
  2  3  1  0
  2  5  1  6
  3  4  2  0
  3 12  1  0
  5  6  1  0
  6  7  1  0
  7  8  1  0
  8  9  1  0
  9 10  2  0
  9 11  1  0
 12 13  1  0
 13 14  1  0
 13 16  1  1
 14 15  2  0
 14 20  1  0
 16 17  1  0
 17 18  1  1
 17 19  1  0
 21 20  1  0
 22 21  1  0
 21 24  1  6
 22 23  2  0
 32 22  1  0
 24 25  1  0
 25 26  2  0
 25 27  1  0
 26 28  1  0
 27 29  2  0
 28 30  2  0
 29 30  1  0
 30 31  1  0
 33 32  1  0
 34 33  1  0
 34 35  2  0
 36 34  1  0
 37 36  1  0
 38 37  1  0
 37 40  1  1
 38 39  2  0
 47 38  1  0
 40 41  1  0
 41 42  2  0
 41 43  1  0
 42 44  1  0
 43 45  2  0
 44 46  2  0
 45 46  1  0
 48 47  1  0
 49 48  1  0
 48 51  1  1
 49 50  2  0
 56 49  1  0
 51 52  1  0
 52 53  1  0
 53 54  1  0
 54 55  1  0
 57 56  1  0
 58 57  1  0
 57 60  1  1
 58 59  2  0
 70 58  1  0
 60 61  1  0
 61 62  2  0
 61 63  1  0
 62 64  1  0
 63 65  2  0
 63 66  1  0
 65 64  1  0
 65 67  1  0
 66 68  2  0
 67 69  2  0
 68 69  1  0
 71 70  1  0
 72 71  1  0
 71 74  1  1
 72 73  1  0
 80 72  1  0
109 72  1  0
 74 75  1  0
 75 76  1  0
 75 77  2  0
 76 78  2  0
 77 79  1  0
 79 78  1  0
109 80  1  6
 83 81  1  0
 81103  1  0
 82 84  1  0
 99 82  1  0
 82107  1  0
 96 83  1  0
 83106  2  0
 84 86  1  0
124 85  1  0
 86 96  1  1
 86125  1  0
 88 87  1  0
 87 92  2  0
 87124  1  0
 89 88  2  0
 89 90  1  0
115 89  1  0
 90 93  2  0
 94 91  1  0
 91107  2  0
 93 92  1  0
 93 94  1  0
 94 99  2  0
125 95  2  0
103 97  1  0
 97104  1  0
 97105  2  0
124 98  2  0
123100  2  0
121101  2  0
119102  2  0
108113  1  0
108116  1  0
117108  1  0
118109  1  0
110119  1  0
120110  1  0
111121  1  0
122111  1  0
123112  1  0
113114  2  0
115114  1  0
116115  2  0
118117  1  0
118119  1  6
121120  1  0
122123  1  0
M  CHG  4  10   1  55   1  85  -1 109   1
M  END
$$$$
