
     RDKit          3D

 39 45  0  0  0  0  0  0  0  0999 V2000
   17.7396   16.0336  -23.4117 C   0  0  0  0  0  0  0  0  0  0  0  0
   18.0817   16.2592  -22.0954 C   0  0  0  0  0  0  0  0  0  0  0  0
   17.5045   15.4542  -21.1433 C   0  0  0  0  0  0  0  0  0  0  0  0
   15.2965   13.1361  -22.8521 C   0  0  0  0  0  0  0  0  0  0  0  0
   16.5967   14.4327  -21.4731 C   0  0  0  0  0  0  0  0  0  0  0  0
   15.1735   14.0689  -19.4974 C   0  0  0  0  0  0  0  0  0  0  0  0
   15.5140   13.9702  -18.1852 C   0  0  0  0  0  0  0  0  0  0  0  0
   15.6871   14.1486  -15.4200 C   0  0  0  0  0  0  0  0  0  0  0  0
   14.6820   14.7911  -16.1087 C   0  0  0  0  0  0  0  0  0  0  0  0
    7.4685   13.2003  -22.0373 C   0  0  0  0  0  0  0  0  0  0  0  0
    9.7892   12.7910  -22.3388 C   0  0  0  0  0  0  0  0  0  0  0  0
    8.9998   14.9865  -21.9031 C   0  0  0  0  0  0  0  0  0  0  0  0
   15.8826   13.4405  -20.6398 C   0  0  1  0  0  0  0  0  0  0  0  0
   13.3699   15.2052  -20.8973 C   0  0  0  0  0  0  0  0  0  0  0  0
   14.0529   14.8542  -19.6268 C   0  0  0  0  0  0  0  0  0  0  0  0
   14.5839   14.7114  -17.4791 C   0  0  0  0  0  0  0  0  0  0  0  0
   16.5295   13.3194  -17.5025 C   0  0  0  0  0  0  0  0  0  0  0  0
   16.6074   13.4132  -16.1353 C   0  0  0  0  0  0  0  0  0  0  0  0
    7.6948   14.5610  -21.8398 C   0  0  0  0  0  0  0  0  0  0  0  0
    8.4975   12.3193  -22.2843 C   0  0  0  0  0  0  0  0  0  0  0  0
   10.0522   14.1310  -22.1484 C   0  0  0  0  0  0  0  0  0  0  0  0
   11.4620   14.6601  -22.2071 C   0  0  0  0  0  0  0  0  0  0  0  0
   16.8519   15.0375  -23.7498 C   0  0  0  0  0  0  0  0  0  0  0  0
    6.0958   13.0192  -21.9285 C   0  0  0  0  0  0  0  0  0  0  0  0
    5.5536   14.2600  -21.6731 C   0  0  0  0  0  0  0  0  0  0  0  0
    6.3423   16.5943  -21.3716 C   0  0  0  0  0  0  0  0  0  0  0  0
    6.3552   17.3895  -22.6283 C   0  0  0  0  0  0  0  0  0  0  0  0
    6.3017   18.7610  -22.5882 C   0  0  0  0  0  0  0  0  0  0  0  0
    6.3151   19.4621  -23.7823 C   0  0  0  0  0  0  0  0  0  0  0  0
    6.3806   18.8102  -24.9951 C   0  0  0  0  0  0  0  0  0  0  0  0
    6.4338   17.4358  -25.0257 C   0  0  0  0  0  0  0  0  0  0  0  0
    6.4199   16.7601  -23.8468 C   0  0  0  0  0  0  0  0  0  0  0  0
   16.2642   14.2191  -22.7826 C   0  0  0  0  0  0  0  0  0  0  0  0
   13.7113   15.2343  -18.3866 N   0  0  0  0  0  0  0  0  0  0  0  0
   11.9726   14.9035  -20.8783 N   0  0  0  0  0  4  0  0  0  0  0  0
    6.5359   15.1920  -21.6209 N   0  0  0  0  0  0  0  0  0  0  0  0
   15.0593   12.7103  -21.5247 N   0  0  0  0  0  0  0  0  0  0  0  0
   18.9815   17.2711  -21.7626 O   0  0  0  0  0  0  0  0  0  0  0  0
   14.7843   12.6849  -23.9133 O   0  0  0  0  0  0  0  0  0  0  0  0
  2  1  2  0
 23  1  1  0
  3  2  1  0
  2 38  1  0
  5  3  2  0
  4 33  1  0
 37  4  1  0
  4 39  2  0
 13  5  1  0
  5 33  1  0
  6  7  1  0
 13  6  1  1
 15  6  2  0
 16  7  2  0
  7 17  1  0
  9  8  2  0
  8 18  1  0
 16  9  1  0
 19 10  2  0
 10 20  1  0
 24 10  1  0
 20 11  2  0
 21 11  1  0
 19 12  1  0
 12 21  2  0
 13 37  1  0
 14 15  1  0
 35 14  1  0
 15 34  1  0
 34 16  1  0
 17 18  2  0
 36 19  1  0
 21 22  1  0
 22 35  1  0
 33 23  2  0
 25 24  2  0
 36 25  1  0
 26 27  1  0
 26 36  1  0
 27 28  2  0
 27 32  1  0
 28 29  1  0
 29 30  2  0
 30 31  1  0
 31 32  2  0
M  CHG  1  35   1
M  END
$$$$
