
     RDKit          3D

 39 45  0  0  0  0  0  0  0  0999 V2000
   19.4245   15.9735  -22.4240 C   0  0  0  0  0  0  0  0  0  0  0  0
   18.4931   15.0152  -22.7634 C   0  0  0  0  0  0  0  0  0  0  0  0
   17.2495   15.1075  -22.1868 C   0  0  0  0  0  0  0  0  0  0  0  0
   17.2660   17.9943  -19.9879 C   0  0  0  0  0  0  0  0  0  0  0  0
   16.9147   16.1304  -21.2824 C   0  0  0  0  0  0  0  0  0  0  0  0
   15.1029   15.2662  -19.8569 C   0  0  0  0  0  0  0  0  0  0  0  0
   15.4605   14.8319  -18.6196 C   0  0  0  0  0  0  0  0  0  0  0  0
   15.7460   13.4836  -16.2094 C   0  0  0  0  0  0  0  0  0  0  0  0
   14.8437   13.0542  -17.1575 C   0  0  0  0  0  0  0  0  0  0  0  0
    7.4336   16.4997  -21.8520 C   0  0  0  0  0  0  0  0  0  0  0  0
    9.5603   17.1954  -21.0540 C   0  0  0  0  0  0  0  0  0  0  0  0
    9.3867   15.4632  -22.6672 C   0  0  0  0  0  0  0  0  0  0  0  0
   15.6568   16.4443  -20.5696 C   0  0  1  0  0  0  0  0  0  0  0  0
   13.4747   14.5840  -21.6972 C   0  0  0  0  0  0  0  0  0  0  0  0
   14.1291   14.4443  -20.3722 C   0  0  0  0  0  0  0  0  0  0  0  0
   14.6917   13.7126  -18.3564 C   0  0  0  0  0  0  0  0  0  0  0  0
   16.3716   15.2728  -17.6727 C   0  0  0  0  0  0  0  0  0  0  0  0
   16.5061   14.6001  -16.4839 C   0  0  0  0  0  0  0  0  0  0  0  0
    8.0154   15.5489  -22.6881 C   0  0  0  0  0  0  0  0  0  0  0  0
    8.1895   17.3169  -21.0417 C   0  0  0  0  0  0  0  0  0  0  0  0
   10.1719   16.2660  -21.8681 C   0  0  0  0  0  0  0  0  0  0  0  0
   11.6720   16.1221  -21.8896 C   0  0  0  0  0  0  0  0  0  0  0  0
   19.1113   16.9805  -21.5396 C   0  0  0  0  0  0  0  0  0  0  0  0
    6.0624   16.3953  -22.0470 C   0  0  0  0  0  0  0  0  0  0  0  0
    5.8717   15.3997  -22.9802 C   0  0  0  0  0  0  0  0  0  0  0  0
    7.2558   13.8390  -24.3257 C   0  0  0  0  0  0  0  0  0  0  0  0
    7.6036   12.5472  -23.6759 C   0  0  0  0  0  0  0  0  0  0  0  0
    8.4498   11.6597  -24.2935 C   0  0  0  0  0  0  0  0  0  0  0  0
    8.7463   10.4682  -23.6532 C   0  0  0  0  0  0  0  0  0  0  0  0
    8.2101   10.1649  -22.4200 C   0  0  0  0  0  0  0  0  0  0  0  0
    7.3631   11.0602  -21.8086 C   0  0  0  0  0  0  0  0  0  0  0  0
    7.0805   12.2256  -22.4479 C   0  0  0  0  0  0  0  0  0  0  0  0
   17.8475   17.0748  -20.9525 C   0  0  0  0  0  0  0  0  0  0  0  0
   13.8944   13.5062  -19.4427 N   0  0  0  0  0  0  0  0  0  0  0  0
   12.0593   14.7610  -21.6017 N   0  0  0  0  0  4  0  0  0  0  0  0
    7.0674   14.8907  -23.3643 N   0  0  0  0  0  0  0  0  0  0  0  0
   15.9422   17.5581  -19.7497 N   0  0  0  0  0  0  0  0  0  0  0  0
   18.8199   13.9984  -23.6598 O   0  0  0  0  0  0  0  0  0  0  0  0
   17.8583   18.9853  -19.4787 O   0  0  0  0  0  0  0  0  0  0  0  0
  2  1  2  0
 23  1  1  0
  3  2  1  0
  2 38  1  0
  5  3  2  0
  4 33  1  0
 37  4  1  0
  4 39  2  0
 13  5  1  0
  5 33  1  0
  6  7  1  0
 13  6  1  1
 15  6  2  0
 16  7  2  0
  7 17  1  0
  9  8  2  0
  8 18  1  0
 16  9  1  0
 19 10  2  0
 10 20  1  0
 24 10  1  0
 20 11  2  0
 21 11  1  0
 19 12  1  0
 12 21  2  0
 13 37  1  0
 14 15  1  0
 35 14  1  0
 15 34  1  0
 34 16  1  0
 17 18  2  0
 36 19  1  0
 21 22  1  0
 22 35  1  0
 33 23  2  0
 25 24  2  0
 36 25  1  0
 26 27  1  0
 26 36  1  0
 27 28  2  0
 27 32  1  0
 28 29  1  0
 29 30  2  0
 30 31  1  0
 31 32  2  0
M  CHG  1  35   1
M  END
$$$$
