
     RDKit          3D

 39 45  0  0  0  0  0  0  0  0999 V2000
   16.9108   13.4255  -17.7733 C   0  0  0  0  0  0  0  0  0  0  0  0
   16.0276   14.3946  -17.3473 C   0  0  0  0  0  0  0  0  0  0  0  0
   14.7423   14.3372  -17.8292 C   0  0  0  0  0  0  0  0  0  0  0  0
   14.5334   11.4933  -20.0737 C   0  0  0  0  0  0  0  0  0  0  0  0
   14.3192   13.3384  -18.7236 C   0  0  0  0  0  0  0  0  0  0  0  0
   12.4228   14.2641  -19.9917 C   0  0  0  0  0  0  0  0  0  0  0  0
   11.2768   14.8990  -19.6296 C   0  0  0  0  0  0  0  0  0  0  0  0
    9.0867   16.5881  -19.3877 C   0  0  0  0  0  0  0  0  0  0  0  0
   10.0319   16.7915  -20.3689 C   0  0  0  0  0  0  0  0  0  0  0  0
   16.8109   19.8973  -22.2043 C   0  0  0  0  0  0  0  0  0  0  0  0
   15.3785   18.0372  -22.5672 C   0  0  0  0  0  0  0  0  0  0  0  0
   17.6575   17.7084  -21.9920 C   0  0  0  0  0  0  0  0  0  0  0  0
   13.0048   13.0622  -19.3441 C   0  0  1  0  0  0  0  0  0  0  0  0
   14.2451   14.5231  -21.7568 C   0  0  0  0  0  0  0  0  0  0  0  0
   12.9871   14.9061  -21.0681 C   0  0  0  0  0  0  0  0  0  0  0  0
   11.1223   15.9623  -20.5005 C   0  0  0  0  0  0  0  0  0  0  0  0
   10.3318   14.6849  -18.6385 C   0  0  0  0  0  0  0  0  0  0  0  0
    9.2523   15.5251  -18.5263 C   0  0  0  0  0  0  0  0  0  0  0  0
   17.8917   19.0610  -21.9319 C   0  0  0  0  0  0  0  0  0  0  0  0
   15.5662   19.3997  -22.5189 C   0  0  0  0  0  0  0  0  0  0  0  0
   16.4242   17.1781  -22.3037 C   0  0  0  0  0  0  0  0  0  0  0  0
   16.2318   15.6843  -22.3549 C   0  0  0  0  0  0  0  0  0  0  0  0
   16.5111   12.4417  -18.6490 C   0  0  0  0  0  0  0  0  0  0  0  0
   17.2895   21.1956  -22.0837 C   0  0  0  0  0  0  0  0  0  0  0  0
   18.6220   21.0947  -21.7478 C   0  0  0  0  0  0  0  0  0  0  0  0
   20.2903   19.3060  -21.3244 C   0  0  0  0  0  0  0  0  0  0  0  0
   21.0767   18.9511  -22.5358 C   0  0  0  0  0  0  0  0  0  0  0  0
   22.3254   19.4844  -22.7396 C   0  0  0  0  0  0  0  0  0  0  0  0
   23.0226   19.1275  -23.8816 C   0  0  0  0  0  0  0  0  0  0  0  0
   22.4868   18.2552  -24.8048 C   0  0  0  0  0  0  0  0  0  0  0  0
   21.2349   17.7257  -24.5924 C   0  0  0  0  0  0  0  0  0  0  0  0
   20.5616   18.0843  -23.4678 C   0  0  0  0  0  0  0  0  0  0  0  0
   15.2049   12.3828  -19.1400 C   0  0  0  0  0  0  0  0  0  0  0  0
   12.1794   15.9361  -21.3610 N   0  0  0  0  0  0  0  0  0  0  0  0
   15.3834   15.2407  -21.2737 N   0  0  0  0  0  4  0  0  0  0  0  0
   18.9788   19.7905  -21.6578 N   0  0  0  0  0  0  0  0  0  0  0  0
   13.2046   11.9591  -20.2029 N   0  0  0  0  0  0  0  0  0  0  0  0
   16.4421   15.3876  -16.4604 O   0  0  0  0  0  0  0  0  0  0  0  0
   15.0650   10.5011  -20.6439 O   0  0  0  0  0  0  0  0  0  0  0  0
  2  1  2  0
 23  1  1  0
  3  2  1  0
  2 38  1  0
  5  3  2  0
  4 33  1  0
 37  4  1  0
  4 39  2  0
 13  5  1  0
  5 33  1  0
  6  7  1  0
 13  6  1  6
 15  6  2  0
 16  7  2  0
  7 17  1  0
  9  8  2  0
  8 18  1  0
 16  9  1  0
 19 10  2  0
 10 20  1  0
 24 10  1  0
 20 11  2  0
 21 11  1  0
 19 12  1  0
 12 21  2  0
 13 37  1  0
 14 15  1  0
 35 14  1  0
 15 34  1  0
 34 16  1  0
 17 18  2  0
 36 19  1  0
 21 22  1  0
 22 35  1  0
 33 23  2  0
 25 24  2  0
 36 25  1  0
 26 27  1  0
 26 36  1  0
 27 28  2  0
 27 32  1  0
 28 29  1  0
 29 30  2  0
 30 31  1  0
 31 32  2  0
M  CHG  1  35   1
M  END
$$$$
