
     RDKit          3D

 39 45  0  0  0  0  0  0  0  0999 V2000
   12.7490   11.0633  -20.6791 C   0  0  0  0  0  0  0  0  0  0  0  0
   11.7412   11.4060  -19.8030 C   0  0  0  0  0  0  0  0  0  0  0  0
   10.5837   11.9185  -20.3372 C   0  0  0  0  0  0  0  0  0  0  0  0
   11.0005   12.0587  -23.9393 C   0  0  0  0  0  0  0  0  0  0  0  0
   10.4092   12.0964  -21.7208 C   0  0  0  0  0  0  0  0  0  0  0  0
    8.7510   13.8929  -22.0120 C   0  0  0  0  0  0  0  0  0  0  0  0
    7.4701   14.1666  -21.6492 C   0  0  0  0  0  0  0  0  0  0  0  0
    5.0963   15.3175  -20.7837 C   0  0  0  0  0  0  0  0  0  0  0  0
    6.2647   16.0463  -20.8173 C   0  0  0  0  0  0  0  0  0  0  0  0
   15.3354   14.2468  -17.6011 C   0  0  0  0  0  0  0  0  0  0  0  0
   13.0865   14.2876  -18.3656 C   0  0  0  0  0  0  0  0  0  0  0  0
   14.7468   15.6029  -19.4363 C   0  0  0  0  0  0  0  0  0  0  0  0
    9.2643   12.5942  -22.5148 C   0  0  1  0  0  0  0  0  0  0  0  0
   10.9827   15.1218  -22.1245 C   0  0  0  0  0  0  0  0  0  0  0  0
    9.5293   15.0131  -21.8427 C   0  0  0  0  0  0  0  0  0  0  0  0
    7.4484   15.4889  -21.2439 C   0  0  0  0  0  0  0  0  0  0  0  0
    6.3002   13.4239  -21.6196 C   0  0  0  0  0  0  0  0  0  0  0  0
    5.1313   14.0011  -21.1902 C   0  0  0  0  0  0  0  0  0  0  0  0
   15.7260   15.1561  -18.5821 C   0  0  0  0  0  0  0  0  0  0  0  0
   14.0337   13.8127  -17.4873 C   0  0  0  0  0  0  0  0  0  0  0  0
   13.4353   15.1883  -19.3494 C   0  0  0  0  0  0  0  0  0  0  0  0
   12.4071   15.7169  -20.3162 C   0  0  0  0  0  0  0  0  0  0  0  0
   12.5927   11.2323  -22.0361 C   0  0  0  0  0  0  0  0  0  0  0  0
   16.4811   13.9498  -16.8743 C   0  0  0  0  0  0  0  0  0  0  0  0
   17.5050   14.6808  -17.4365 C   0  0  0  0  0  0  0  0  0  0  0  0
   17.8188   16.2913  -19.2992 C   0  0  0  0  0  0  0  0  0  0  0  0
   18.0252   15.7382  -20.6642 C   0  0  0  0  0  0  0  0  0  0  0  0
   17.9857   16.5588  -21.7643 C   0  0  0  0  0  0  0  0  0  0  0  0
   18.1823   16.0018  -23.0167 C   0  0  0  0  0  0  0  0  0  0  0  0
   18.4142   14.6519  -23.1720 C   0  0  0  0  0  0  0  0  0  0  0  0
   18.4521   13.8371  -22.0641 C   0  0  0  0  0  0  0  0  0  0  0  0
   18.2576   14.3965  -20.8411 C   0  0  0  0  0  0  0  0  0  0  0  0
   11.4167   11.7538  -22.5800 C   0  0  0  0  0  0  0  0  0  0  0  0
    8.7165   15.9719  -21.3747 N   0  0  0  0  0  0  0  0  0  0  0  0
   11.7941   14.6361  -21.0523 N   0  0  0  0  0  4  0  0  0  0  0  0
   17.0346   15.4121  -18.4758 N   0  0  0  0  0  0  0  0  0  0  0  0
    9.6983   12.6039  -23.8586 N   0  0  0  0  0  0  0  0  0  0  0  0
   11.9090   11.2318  -18.4298 O   0  0  0  0  0  0  0  0  0  0  0  0
   11.6947   11.8618  -24.9745 O   0  0  0  0  0  0  0  0  0  0  0  0
  2  1  2  0
 23  1  1  0
  3  2  1  0
  2 38  1  0
  5  3  2  0
  4 33  1  0
 37  4  1  0
  4 39  2  0
 13  5  1  0
  5 33  1  0
  6  7  1  0
 13  6  1  1
 15  6  2  0
 16  7  2  0
  7 17  1  0
  9  8  2  0
  8 18  1  0
 16  9  1  0
 19 10  2  0
 10 20  1  0
 24 10  1  0
 20 11  2  0
 21 11  1  0
 19 12  1  0
 12 21  2  0
 13 37  1  0
 14 15  1  0
 35 14  1  0
 15 34  1  0
 34 16  1  0
 17 18  2  0
 36 19  1  0
 21 22  1  0
 22 35  1  0
 33 23  2  0
 25 24  2  0
 36 25  1  0
 26 27  1  0
 26 36  1  0
 27 28  2  0
 27 32  1  0
 28 29  1  0
 29 30  2  0
 30 31  1  0
 31 32  2  0
M  CHG  1  35   1
M  END
$$$$
