
     RDKit          3D

 39 45  0  0  0  0  0  0  0  0999 V2000
   14.0956   11.4217  -20.1921 C   0  0  0  0  0  0  0  0  0  0  0  0
   13.1997   12.4559  -20.0224 C   0  0  0  0  0  0  0  0  0  0  0  0
   13.5773   13.7008  -20.4641 C   0  0  0  0  0  0  0  0  0  0  0  0
   16.9187   13.4113  -21.8500 C   0  0  0  0  0  0  0  0  0  0  0  0
   14.8241   13.9370  -21.0693 C   0  0  0  0  0  0  0  0  0  0  0  0
   15.3656   16.3101  -20.6994 C   0  0  0  0  0  0  0  0  0  0  0  0
   16.4134   17.0707  -20.2860 C   0  0  0  0  0  0  0  0  0  0  0  0
   18.0939   18.9366  -19.1014 C   0  0  0  0  0  0  0  0  0  0  0  0
   16.7407   18.9395  -18.8442 C   0  0  0  0  0  0  0  0  0  0  0  0
    7.4326   15.1576  -21.4988 C   0  0  0  0  0  0  0  0  0  0  0  0
    8.9965   16.9458  -21.5204 C   0  0  0  0  0  0  0  0  0  0  0  0
    9.6715   14.7478  -22.1092 C   0  0  0  0  0  0  0  0  0  0  0  0
   15.4285   15.1619  -21.6378 C   0  0  1  0  0  0  0  0  0  0  0  0
   12.8471   16.2005  -20.3144 C   0  0  0  0  0  0  0  0  0  0  0  0
   14.2064   16.7629  -20.1159 C   0  0  0  0  0  0  0  0  0  0  0  0
   15.8960   18.0208  -19.4241 C   0  0  0  0  0  0  0  0  0  0  0  0
   17.7737   17.0585  -20.5519 C   0  0  0  0  0  0  0  0  0  0  0  0
   18.5969   17.9847  -19.9619 C   0  0  0  0  0  0  0  0  0  0  0  0
    8.4072   14.2492  -21.9070 C   0  0  0  0  0  0  0  0  0  0  0  0
    7.7154   16.4913  -21.3056 C   0  0  0  0  0  0  0  0  0  0  0  0
    9.9875   16.0766  -21.9247 C   0  0  0  0  0  0  0  0  0  0  0  0
   11.3946   16.5616  -22.1617 C   0  0  0  0  0  0  0  0  0  0  0  0
   15.3200   11.6380  -20.7823 C   0  0  0  0  0  0  0  0  0  0  0  0
    6.2592   14.4271  -21.3624 C   0  0  0  0  0  0  0  0  0  0  0  0
    6.5661   13.1241  -21.6889 C   0  0  0  0  0  0  0  0  0  0  0  0
    8.5487   11.8196  -22.4165 C   0  0  0  0  0  0  0  0  0  0  0  0
    8.2255   11.4384  -23.8172 C   0  0  0  0  0  0  0  0  0  0  0  0
    8.4950   12.2963  -24.8549 C   0  0  0  0  0  0  0  0  0  0  0  0
    8.1771   11.9015  -26.1436 C   0  0  0  0  0  0  0  0  0  0  0  0
    7.6011   10.6748  -26.3955 C   0  0  0  0  0  0  0  0  0  0  0  0
    7.3346    9.8217  -25.3496 C   0  0  0  0  0  0  0  0  0  0  0  0
    7.6515   10.2214  -24.0901 C   0  0  0  0  0  0  0  0  0  0  0  0
   15.7050   12.9033  -21.2312 C   0  0  0  0  0  0  0  0  0  0  0  0
   14.5525   17.8040  -19.3442 N   0  0  0  0  0  0  0  0  0  0  0  0
   11.9544   17.1173  -20.9520 N   0  0  0  0  0  4  0  0  0  0  0  0
    7.8767   13.0264  -22.0191 N   0  0  0  0  0  0  0  0  0  0  0  0
   16.7294   14.7983  -22.0497 N   0  0  0  0  0  0  0  0  0  0  0  0
   11.9618   12.2272  -19.4227 O   0  0  0  0  0  0  0  0  0  0  0  0
   17.9321   12.7183  -22.1411 O   0  0  0  0  0  0  0  0  0  0  0  0
  2  1  2  0
 23  1  1  0
  3  2  1  0
  2 38  1  0
  5  3  2  0
  4 33  1  0
 37  4  1  0
  4 39  2  0
 13  5  1  0
  5 33  1  0
  6  7  1  0
 13  6  1  1
 15  6  2  0
 16  7  2  0
  7 17  1  0
  9  8  2  0
  8 18  1  0
 16  9  1  0
 19 10  2  0
 10 20  1  0
 24 10  1  0
 20 11  2  0
 21 11  1  0
 19 12  1  0
 12 21  2  0
 13 37  1  0
 14 15  1  0
 35 14  1  0
 15 34  1  0
 34 16  1  0
 17 18  2  0
 36 19  1  0
 21 22  1  0
 22 35  1  0
 33 23  2  0
 25 24  2  0
 36 25  1  0
 26 27  1  0
 26 36  1  0
 27 28  2  0
 27 32  1  0
 28 29  1  0
 29 30  2  0
 30 31  1  0
 31 32  2  0
M  CHG  1  35   1
M  END
$$$$
