
     RDKit          3D

 39 45  0  0  0  0  0  0  0  0999 V2000
   16.6241   12.7015  -16.6188 C   0  0  0  0  0  0  0  0  0  0  0  0
   17.4519   13.5949  -17.2650 C   0  0  0  0  0  0  0  0  0  0  0  0
   16.8582   14.6157  -17.9671 C   0  0  0  0  0  0  0  0  0  0  0  0
   13.2643   14.2283  -17.6471 C   0  0  0  0  0  0  0  0  0  0  0  0
   15.4622   14.7652  -18.0394 C   0  0  0  0  0  0  0  0  0  0  0  0
   14.9757   15.9835  -20.1228 C   0  0  0  0  0  0  0  0  0  0  0  0
   16.1776   16.4086  -20.5943 C   0  0  0  0  0  0  0  0  0  0  0  0
   18.3410   17.2140  -22.1367 C   0  0  0  0  0  0  0  0  0  0  0  0
   17.1495   16.8504  -22.7246 C   0  0  0  0  0  0  0  0  0  0  0  0
    8.2480   11.8727  -23.0457 C   0  0  0  0  0  0  0  0  0  0  0  0
    9.9475   11.4286  -21.4462 C   0  0  0  0  0  0  0  0  0  0  0  0
    9.9050   13.4926  -22.6173 C   0  0  0  0  0  0  0  0  0  0  0  0
   14.6116   15.7807  -18.6983 C   0  0  1  0  0  0  0  0  0  0  0  0
   12.7163   15.2841  -21.0764 C   0  0  0  0  0  0  0  0  0  0  0  0
   14.1197   15.7580  -21.1742 C   0  0  0  0  0  0  0  0  0  0  0  0
   16.0691   16.4492  -21.9726 C   0  0  0  0  0  0  0  0  0  0  0  0
   17.3718   16.7723  -19.9921 C   0  0  0  0  0  0  0  0  0  0  0  0
   18.4361   17.1692  -20.7625 C   0  0  0  0  0  0  0  0  0  0  0  0
    8.7785   13.1324  -23.3167 C   0  0  0  0  0  0  0  0  0  0  0  0
    8.8193   11.0250  -22.1232 C   0  0  0  0  0  0  0  0  0  0  0  0
   10.5012   12.6679  -21.6877 C   0  0  0  0  0  0  0  0  0  0  0  0
   11.7373   13.1209  -20.9541 C   0  0  0  0  0  0  0  0  0  0  0  0
   15.2557   12.8349  -16.6810 C   0  0  0  0  0  0  0  0  0  0  0  0
    7.1330   11.7411  -23.8633 C   0  0  0  0  0  0  0  0  0  0  0  0
    7.0345   12.9099  -24.5865 C   0  0  0  0  0  0  0  0  0  0  0  0
    8.2545   15.0617  -24.7952 C   0  0  0  0  0  0  0  0  0  0  0  0
    7.7090   16.1288  -23.9145 C   0  0  0  0  0  0  0  0  0  0  0  0
    8.5385   16.8425  -23.0851 C   0  0  0  0  0  0  0  0  0  0  0  0
    7.9885   17.8267  -22.2812 C   0  0  0  0  0  0  0  0  0  0  0  0
    6.6368   18.0962  -22.3020 C   0  0  0  0  0  0  0  0  0  0  0  0
    5.8132   17.3761  -23.1361 C   0  0  0  0  0  0  0  0  0  0  0  0
    6.3658   16.4132  -23.9197 C   0  0  0  0  0  0  0  0  0  0  0  0
   14.6512   13.8719  -17.3951 C   0  0  0  0  0  0  0  0  0  0  0  0
   14.8056   16.0477  -22.2900 N   0  0  0  0  0  0  0  0  0  0  0  0
   12.4991   14.0469  -21.7590 N   0  0  0  0  0  4  0  0  0  0  0  0
    8.0414   13.7505  -24.2461 N   0  0  0  0  0  0  0  0  0  0  0  0
   13.2777   15.3743  -18.4752 N   0  0  0  0  0  0  0  0  0  0  0  0
   18.8372   13.4511  -17.1967 O   0  0  0  0  0  0  0  0  0  0  0  0
   12.2607   13.6102  -17.1965 O   0  0  0  0  0  0  0  0  0  0  0  0
  2  1  2  0
 23  1  1  0
  3  2  1  0
  2 38  1  0
  5  3  2  0
  4 33  1  0
 37  4  1  0
  4 39  2  0
 13  5  1  0
  5 33  1  0
  6  7  1  0
 13  6  1  6
 15  6  2  0
 16  7  2  0
  7 17  1  0
  9  8  2  0
  8 18  1  0
 16  9  1  0
 19 10  2  0
 10 20  1  0
 24 10  1  0
 20 11  2  0
 21 11  1  0
 19 12  1  0
 12 21  2  0
 13 37  1  0
 14 15  1  0
 35 14  1  0
 15 34  1  0
 34 16  1  0
 17 18  2  0
 36 19  1  0
 21 22  1  0
 22 35  1  0
 33 23  2  0
 25 24  2  0
 36 25  1  0
 26 27  1  0
 26 36  1  0
 27 28  2  0
 27 32  1  0
 28 29  1  0
 29 30  2  0
 30 31  1  0
 31 32  2  0
M  CHG  1  35   1
M  END
$$$$
