
     RDKit          3D

 39 45  0  0  0  0  0  0  0  0999 V2000
    6.7523    9.6898  -24.2782 C   0  0  0  0  0  0  0  0  0  0  0  0
    5.9858   10.7444  -23.8300 C   0  0  0  0  0  0  0  0  0  0  0  0
    6.6159   11.9504  -23.6397 C   0  0  0  0  0  0  0  0  0  0  0  0
   10.1189   11.5073  -24.4771 C   0  0  0  0  0  0  0  0  0  0  0  0
    7.9887   12.1278  -23.8853 C   0  0  0  0  0  0  0  0  0  0  0  0
    8.7379   13.9965  -22.4683 C   0  0  0  0  0  0  0  0  0  0  0  0
    7.6406   14.6487  -22.0013 C   0  0  0  0  0  0  0  0  0  0  0  0
    5.7771   16.0843  -20.5266 C   0  0  0  0  0  0  0  0  0  0  0  0
    7.0346   15.8324  -20.0240 C   0  0  0  0  0  0  0  0  0  0  0  0
   15.5471   13.9594  -17.2902 C   0  0  0  0  0  0  0  0  0  0  0  0
   13.7308   12.6835  -18.1368 C   0  0  0  0  0  0  0  0  0  0  0  0
   14.9907   14.0882  -19.5765 C   0  0  0  0  0  0  0  0  0  0  0  0
    8.8641   13.3160  -23.7812 C   0  0  1  0  0  0  0  0  0  0  0  0
   11.0966   13.4576  -21.6623 C   0  0  0  0  0  0  0  0  0  0  0  0
    9.7426   14.0520  -21.5320 C   0  0  0  0  0  0  0  0  0  0  0  0
    7.9682   15.1224  -20.7437 C   0  0  0  0  0  0  0  0  0  0  0  0
    6.3781   14.8963  -22.5169 C   0  0  0  0  0  0  0  0  0  0  0  0
    5.4632   15.6069  -21.7808 C   0  0  0  0  0  0  0  0  0  0  0  0
   15.8074   14.4962  -18.5495 C   0  0  0  0  0  0  0  0  0  0  0  0
   14.5234   13.0635  -17.0778 C   0  0  0  0  0  0  0  0  0  0  0  0
   13.9579   13.1934  -19.3975 C   0  0  0  0  0  0  0  0  0  0  0  0
   13.0961   12.7864  -20.5650 C   0  0  0  0  0  0  0  0  0  0  0  0
    8.0975    9.8483  -24.5226 C   0  0  0  0  0  0  0  0  0  0  0  0
   16.4887   14.5150  -16.4335 C   0  0  0  0  0  0  0  0  0  0  0  0
   17.2702   15.3540  -17.1976 C   0  0  0  0  0  0  0  0  0  0  0  0
   17.4276   16.0860  -19.5644 C   0  0  0  0  0  0  0  0  0  0  0  0
   18.4437   15.2949  -20.3085 C   0  0  0  0  0  0  0  0  0  0  0  0
   19.5550   15.9046  -20.8361 C   0  0  0  0  0  0  0  0  0  0  0  0
   20.4755   15.1304  -21.5224 C   0  0  0  0  0  0  0  0  0  0  0  0
   20.2935   13.7732  -21.6809 C   0  0  0  0  0  0  0  0  0  0  0  0
   19.1769   13.1707  -21.1488 C   0  0  0  0  0  0  0  0  0  0  0  0
   18.2816   13.9420  -20.4778 C   0  0  0  0  0  0  0  0  0  0  0  0
    8.7391   11.0737  -24.3288 C   0  0  0  0  0  0  0  0  0  0  0  0
    9.2526   14.7416  -20.4910 N   0  0  0  0  0  0  0  0  0  0  0  0
   11.7486   13.2799  -20.4025 N   0  0  0  0  0  4  0  0  0  0  0  0
   16.8470   15.3353  -18.4849 N   0  0  0  0  0  0  0  0  0  0  0  0
   10.1653   12.8691  -24.0993 N   0  0  0  0  0  0  0  0  0  0  0  0
    4.6238   10.5739  -23.5846 O   0  0  0  0  0  0  0  0  0  0  0  0
   11.0718   10.7802  -24.8713 O   0  0  0  0  0  0  0  0  0  0  0  0
  2  1  2  0
 23  1  1  0
  3  2  1  0
  2 38  1  0
  5  3  2  0
  4 33  1  0
 37  4  1  0
  4 39  2  0
 13  5  1  0
  5 33  1  0
  6  7  1  0
 13  6  1  1
 15  6  2  0
 16  7  2  0
  7 17  1  0
  9  8  2  0
  8 18  1  0
 16  9  1  0
 19 10  2  0
 10 20  1  0
 24 10  1  0
 20 11  2  0
 21 11  1  0
 19 12  1  0
 12 21  2  0
 13 37  1  0
 14 15  1  0
 35 14  1  0
 15 34  1  0
 34 16  1  0
 17 18  2  0
 36 19  1  0
 21 22  1  0
 22 35  1  0
 33 23  2  0
 25 24  2  0
 36 25  1  0
 26 27  1  0
 26 36  1  0
 27 28  2  0
 27 32  1  0
 28 29  1  0
 29 30  2  0
 30 31  1  0
 31 32  2  0
M  CHG  1  35   1
M  END
$$$$
