
     RDKit          3D

 39 45  0  0  0  0  0  0  0  0999 V2000
   18.0957   12.9732  -23.5403 C   0  0  0  0  0  0  0  0  0  0  0  0
   18.4035   12.8151  -22.2057 C   0  0  0  0  0  0  0  0  0  0  0  0
   17.3826   12.9611  -21.2979 C   0  0  0  0  0  0  0  0  0  0  0  0
   14.3634   13.7452  -23.1522 C   0  0  0  0  0  0  0  0  0  0  0  0
   16.0660   13.2604  -21.6896 C   0  0  0  0  0  0  0  0  0  0  0  0
   14.9868   14.3867  -19.7849 C   0  0  0  0  0  0  0  0  0  0  0  0
   15.5669   14.1219  -18.5846 C   0  0  0  0  0  0  0  0  0  0  0  0
   16.6060   14.2042  -16.0113 C   0  0  0  0  0  0  0  0  0  0  0  0
   16.0255   15.3185  -16.5756 C   0  0  0  0  0  0  0  0  0  0  0  0
    7.8176   15.1647  -20.6244 C   0  0  0  0  0  0  0  0  0  0  0  0
   10.1352   14.7369  -20.9230 C   0  0  0  0  0  0  0  0  0  0  0  0
    9.2233   16.8612  -21.4606 C   0  0  0  0  0  0  0  0  0  0  0  0
   14.8202   13.4339  -20.9106 C   0  0  1  0  0  0  0  0  0  0  0  0
   13.8876   16.3703  -20.9513 C   0  0  0  0  0  0  0  0  0  0  0  0
   14.5656   15.6947  -19.8167 C   0  0  0  0  0  0  0  0  0  0  0  0
   15.5064   15.2922  -17.8499 C   0  0  0  0  0  0  0  0  0  0  0  0
   16.1487   12.9944  -18.0265 C   0  0  0  0  0  0  0  0  0  0  0  0
   16.6599   13.0442  -16.7537 C   0  0  0  0  0  0  0  0  0  0  0  0
    7.9594   16.4708  -21.0889 C   0  0  0  0  0  0  0  0  0  0  0  0
    8.8872   14.3019  -20.5394 C   0  0  0  0  0  0  0  0  0  0  0  0
   10.3146   16.0225  -21.3877 C   0  0  0  0  0  0  0  0  0  0  0  0
   11.6758   16.5104  -21.8123 C   0  0  0  0  0  0  0  0  0  0  0  0
   16.8114   13.2668  -23.9387 C   0  0  0  0  0  0  0  0  0  0  0  0
    6.4719   15.0101  -20.3172 C   0  0  0  0  0  0  0  0  0  0  0  0
    5.8616   16.2117  -20.6038 C   0  0  0  0  0  0  0  0  0  0  0  0
    6.5009   18.4480  -21.4712 C   0  0  0  0  0  0  0  0  0  0  0  0
    7.6662   19.0764  -22.1487 C   0  0  0  0  0  0  0  0  0  0  0  0
    7.9510   18.7881  -23.4606 C   0  0  0  0  0  0  0  0  0  0  0  0
    9.0461   19.3950  -24.0521 C   0  0  0  0  0  0  0  0  0  0  0  0
    9.8440   20.2734  -23.3507 C   0  0  0  0  0  0  0  0  0  0  0  0
    9.5511   20.5564  -22.0366 C   0  0  0  0  0  0  0  0  0  0  0  0
    8.4737   19.9540  -21.4683 C   0  0  0  0  0  0  0  0  0  0  0  0
   15.7731   13.4161  -23.0166 C   0  0  0  0  0  0  0  0  0  0  0  0
   14.8918   16.2267  -18.6293 N   0  0  0  0  0  0  0  0  0  0  0  0
   12.5287   16.7093  -20.6640 N   0  0  0  0  0  4  0  0  0  0  0  0
    6.7762   17.0946  -21.0731 N   0  0  0  0  0  0  0  0  0  0  0  0
   13.8223   13.7841  -21.8463 N   0  0  0  0  0  0  0  0  0  0  0  0
   19.7077   12.5183  -21.8117 O   0  0  0  0  0  0  0  0  0  0  0  0
   13.7660   13.9513  -24.2444 O   0  0  0  0  0  0  0  0  0  0  0  0
  2  1  2  0
 23  1  1  0
  3  2  1  0
  2 38  1  0
  5  3  2  0
  4 33  1  0
 37  4  1  0
  4 39  2  0
 13  5  1  0
  5 33  1  0
  6  7  1  0
 13  6  1  1
 15  6  2  0
 16  7  2  0
  7 17  1  0
  9  8  2  0
  8 18  1  0
 16  9  1  0
 19 10  2  0
 10 20  1  0
 24 10  1  0
 20 11  2  0
 21 11  1  0
 19 12  1  0
 12 21  2  0
 13 37  1  0
 14 15  1  0
 35 14  1  0
 15 34  1  0
 34 16  1  0
 17 18  2  0
 36 19  1  0
 21 22  1  0
 22 35  1  0
 33 23  2  0
 25 24  2  0
 36 25  1  0
 26 27  1  0
 26 36  1  0
 27 28  2  0
 27 32  1  0
 28 29  1  0
 29 30  2  0
 30 31  1  0
 31 32  2  0
M  CHG  1  35   1
M  END
$$$$
