
     RDKit          3D

 39 45  0  0  0  0  0  0  0  0999 V2000
   14.9329   12.6465  -20.5695 C   0  0  0  0  0  0  0  0  0  0  0  0
   14.7991   13.7291  -21.4126 C   0  0  0  0  0  0  0  0  0  0  0  0
   13.7974   14.6279  -21.1365 C   0  0  0  0  0  0  0  0  0  0  0  0
   12.0421   13.4494  -18.1870 C   0  0  0  0  0  0  0  0  0  0  0  0
   12.9287   14.4720  -20.0422 C   0  0  0  0  0  0  0  0  0  0  0  0
   10.8429   15.6527  -20.6049 C   0  0  0  0  0  0  0  0  0  0  0  0
    9.8771   14.8394  -21.1081 C   0  0  0  0  0  0  0  0  0  0  0  0
    7.7702   13.6956  -22.5085 C   0  0  0  0  0  0  0  0  0  0  0  0
    8.1660   14.9908  -22.7596 C   0  0  0  0  0  0  0  0  0  0  0  0
   17.1618   16.6484  -20.0929 C   0  0  0  0  0  0  0  0  0  0  0  0
   14.8882   17.2860  -19.8319 C   0  0  0  0  0  0  0  0  0  0  0  0
   16.2122   18.2270  -21.5625 C   0  0  0  0  0  0  0  0  0  0  0  0
   11.8161   15.3073  -19.5389 C   0  0  1  0  0  0  0  0  0  0  0  0
   11.6788   18.0348  -20.9658 C   0  0  0  0  0  0  0  0  0  0  0  0
   10.7930   16.8741  -21.2334 C   0  0  0  0  0  0  0  0  0  0  0  0
    9.2085   15.5705  -22.0733 C   0  0  0  0  0  0  0  0  0  0  0  0
    9.4872   13.5352  -20.8473 C   0  0  0  0  0  0  0  0  0  0  0  0
    8.4445   12.9778  -21.5444 C   0  0  0  0  0  0  0  0  0  0  0  0
   17.3151   17.4992  -21.1858 C   0  0  0  0  0  0  0  0  0  0  0  0
   15.9664   16.5372  -19.4187 C   0  0  0  0  0  0  0  0  0  0  0  0
   15.0018   18.1389  -20.9092 C   0  0  0  0  0  0  0  0  0  0  0  0
   13.8290   18.9653  -21.3706 C   0  0  0  0  0  0  0  0  0  0  0  0
   14.0896   12.4804  -19.4945 C   0  0  0  0  0  0  0  0  0  0  0  0
   18.3935   16.0336  -19.9086 C   0  0  0  0  0  0  0  0  0  0  0  0
   19.2314   16.5298  -20.8835 C   0  0  0  0  0  0  0  0  0  0  0  0
   19.1205   18.1371  -22.7720 C   0  0  0  0  0  0  0  0  0  0  0  0
   19.1546   19.6042  -22.5307 C   0  0  0  0  0  0  0  0  0  0  0  0
   19.5335   20.1030  -21.3089 C   0  0  0  0  0  0  0  0  0  0  0  0
   19.5502   21.4757  -21.1272 C   0  0  0  0  0  0  0  0  0  0  0  0
   19.1962   22.3372  -22.1435 C   0  0  0  0  0  0  0  0  0  0  0  0
   18.8178   21.8285  -23.3645 C   0  0  0  0  0  0  0  0  0  0  0  0
   18.8058   20.4797  -23.5293 C   0  0  0  0  0  0  0  0  0  0  0  0
   13.0705   13.3932  -19.2133 C   0  0  0  0  0  0  0  0  0  0  0  0
    9.7915   16.8019  -22.1227 N   0  0  0  0  0  0  0  0  0  0  0  0
   12.7754   18.1186  -21.8793 N   0  0  0  0  0  4  0  0  0  0  0  0
   18.5649   17.4216  -21.6561 N   0  0  0  0  0  0  0  0  0  0  0  0
   11.2729   14.6090  -18.4383 N   0  0  0  0  0  0  0  0  0  0  0  0
   15.6579   13.8886  -22.4996 O   0  0  0  0  0  0  0  0  0  0  0  0
   11.8917   12.6061  -17.2605 O   0  0  0  0  0  0  0  0  0  0  0  0
  2  1  2  0
 23  1  1  0
  3  2  1  0
  2 38  1  0
  5  3  2  0
  4 33  1  0
 37  4  1  0
  4 39  2  0
 13  5  1  0
  5 33  1  0
  6  7  1  0
 13  6  1  6
 15  6  2  0
 16  7  2  0
  7 17  1  0
  9  8  2  0
  8 18  1  0
 16  9  1  0
 19 10  2  0
 10 20  1  0
 24 10  1  0
 20 11  2  0
 21 11  1  0
 19 12  1  0
 12 21  2  0
 13 37  1  0
 14 15  1  0
 35 14  1  0
 15 34  1  0
 34 16  1  0
 17 18  2  0
 36 19  1  0
 21 22  1  0
 22 35  1  0
 33 23  2  0
 25 24  2  0
 36 25  1  0
 26 27  1  0
 26 36  1  0
 27 28  2  0
 27 32  1  0
 28 29  1  0
 29 30  2  0
 30 31  1  0
 31 32  2  0
M  CHG  1  35   1
M  END
$$$$
