
     RDKit          3D

 39 45  0  0  0  0  0  0  0  0999 V2000
   14.6268   14.9000  -23.7633 C   0  0  0  0  0  0  0  0  0  0  0  0
   15.8658   14.7302  -23.1828 C   0  0  0  0  0  0  0  0  0  0  0  0
   15.9027   14.4404  -21.8404 C   0  0  0  0  0  0  0  0  0  0  0  0
   12.4792   14.3373  -20.6411 C   0  0  0  0  0  0  0  0  0  0  0  0
   14.7357   14.3165  -21.0661 C   0  0  0  0  0  0  0  0  0  0  0  0
   15.3568   14.8331  -18.7405 C   0  0  0  0  0  0  0  0  0  0  0  0
   15.8069   14.4930  -17.5039 C   0  0  0  0  0  0  0  0  0  0  0  0
   16.9911   14.3934  -14.9947 C   0  0  0  0  0  0  0  0  0  0  0  0
   17.1161   15.5096  -15.7919 C   0  0  0  0  0  0  0  0  0  0  0  0
   20.1015   20.1211  -22.4443 C   0  0  0  0  0  0  0  0  0  0  0  0
   18.1449   19.4981  -21.2496 C   0  0  0  0  0  0  0  0  0  0  0  0
   18.5919   18.5796  -23.3920 C   0  0  0  0  0  0  0  0  0  0  0  0
   14.5294   13.9891  -19.6382 C   0  0  1  0  0  0  0  0  0  0  0  0
   15.5073   16.8307  -20.3185 C   0  0  0  0  0  0  0  0  0  0  0  0
   15.7862   16.0999  -19.0569 C   0  0  0  0  0  0  0  0  0  0  0  0
   16.5345   15.5729  -17.0376 C   0  0  0  0  0  0  0  0  0  0  0  0
   15.6746   13.3646  -16.7100 C   0  0  0  0  0  0  0  0  0  0  0  0
   16.2635   13.3241  -15.4708 C   0  0  0  0  0  0  0  0  0  0  0  0
   19.7619   19.2904  -23.5102 C   0  0  0  0  0  0  0  0  0  0  0  0
   19.3083   20.2295  -21.3240 C   0  0  0  0  0  0  0  0  0  0  0  0
   17.7758   18.6654  -22.2846 C   0  0  0  0  0  0  0  0  0  0  0  0
   16.5036   17.8604  -22.2159 C   0  0  0  0  0  0  0  0  0  0  0  0
   13.4758   14.7823  -23.0180 C   0  0  0  0  0  0  0  0  0  0  0  0
   21.3033   20.7232  -22.7940 C   0  0  0  0  0  0  0  0  0  0  0  0
   21.6385   20.2396  -24.0399 C   0  0  0  0  0  0  0  0  0  0  0  0
   20.7125   18.6655  -25.7213 C   0  0  0  0  0  0  0  0  0  0  0  0
   21.4202   17.3616  -25.6177 C   0  0  0  0  0  0  0  0  0  0  0  0
   22.7735   17.2815  -25.8357 C   0  0  0  0  0  0  0  0  0  0  0  0
   23.3921   16.0472  -25.7297 C   0  0  0  0  0  0  0  0  0  0  0  0
   22.6770   14.9123  -25.4124 C   0  0  0  0  0  0  0  0  0  0  0  0
   21.3213   15.0019  -25.1957 C   0  0  0  0  0  0  0  0  0  0  0  0
   20.7268   16.2191  -25.3028 C   0  0  0  0  0  0  0  0  0  0  0  0
   13.5123   14.4883  -21.6531 C   0  0  0  0  0  0  0  0  0  0  0  0
   16.5009   16.5310  -18.0069 N   0  0  0  0  0  0  0  0  0  0  0  0
   16.6126   16.8154  -21.2252 N   0  0  0  0  0  4  0  0  0  0  0  0
   20.6932   19.3677  -24.4672 N   0  0  0  0  0  0  0  0  0  0  0  0
   13.1369   14.0706  -19.4181 N   0  0  0  0  0  0  0  0  0  0  0  0
   17.0264   14.8521  -23.9461 O   0  0  0  0  0  0  0  0  0  0  0  0
   11.2382   14.4324  -20.8483 O   0  0  0  0  0  0  0  0  0  0  0  0
  2  1  2  0
 23  1  1  0
  3  2  1  0
  2 38  1  0
  5  3  2  0
  4 33  1  0
 37  4  1  0
  4 39  2  0
 13  5  1  0
  5 33  1  0
  6  7  1  0
 13  6  1  1
 15  6  2  0
 16  7  2  0
  7 17  1  0
  9  8  2  0
  8 18  1  0
 16  9  1  0
 19 10  2  0
 10 20  1  0
 24 10  1  0
 20 11  2  0
 21 11  1  0
 19 12  1  0
 12 21  2  0
 13 37  1  0
 14 15  1  0
 35 14  1  0
 15 34  1  0
 34 16  1  0
 17 18  2  0
 36 19  1  0
 21 22  1  0
 22 35  1  0
 33 23  2  0
 25 24  2  0
 36 25  1  0
 26 27  1  0
 26 36  1  0
 27 28  2  0
 27 32  1  0
 28 29  1  0
 29 30  2  0
 30 31  1  0
 31 32  2  0
M  CHG  1  35   1
M  END
$$$$
