
     RDKit          3D

 39 45  0  0  0  0  0  0  0  0999 V2000
   18.2265   19.4260  -20.8528 C   0  0  0  0  0  0  0  0  0  0  0  0
   18.0526   18.9770  -19.5609 C   0  0  0  0  0  0  0  0  0  0  0  0
   17.6611   17.6712  -19.3906 C   0  0  0  0  0  0  0  0  0  0  0  0
   17.2980   16.1917  -22.6843 C   0  0  0  0  0  0  0  0  0  0  0  0
   17.4398   16.8056  -20.4761 C   0  0  0  0  0  0  0  0  0  0  0  0
   15.8487   15.0882  -19.7144 C   0  0  0  0  0  0  0  0  0  0  0  0
   15.8372   14.5167  -18.4812 C   0  0  0  0  0  0  0  0  0  0  0  0
   15.1688   13.4235  -16.0182 C   0  0  0  0  0  0  0  0  0  0  0  0
   14.1949   13.8954  -16.8703 C   0  0  0  0  0  0  0  0  0  0  0  0
    8.2152   17.4592  -22.0712 C   0  0  0  0  0  0  0  0  0  0  0  0
   10.3708   18.3678  -21.6573 C   0  0  0  0  0  0  0  0  0  0  0  0
   10.1293   16.3484  -22.8807 C   0  0  0  0  0  0  0  0  0  0  0  0
   17.0488   15.3800  -20.5374 C   0  0  1  0  0  0  0  0  0  0  0  0
   14.1523   15.9985  -21.3868 C   0  0  0  0  0  0  0  0  0  0  0  0
   14.5616   15.3695  -20.1060 C   0  0  0  0  0  0  0  0  0  0  0  0
   14.5116   14.4396  -18.0940 C   0  0  0  0  0  0  0  0  0  0  0  0
   16.8255   14.0449  -17.6316 C   0  0  0  0  0  0  0  0  0  0  0  0
   16.4859   13.5061  -16.4158 C   0  0  0  0  0  0  0  0  0  0  0  0
    8.7603   16.3828  -22.7682 C   0  0  0  0  0  0  0  0  0  0  0  0
    9.0037   18.4440  -21.5194 C   0  0  0  0  0  0  0  0  0  0  0  0
   10.9467   17.3177  -22.3403 C   0  0  0  0  0  0  0  0  0  0  0  0
   12.4425   17.2221  -22.4969 C   0  0  0  0  0  0  0  0  0  0  0  0
   18.0130   18.5903  -21.9253 C   0  0  0  0  0  0  0  0  0  0  0  0
    6.8389   17.2734  -22.0922 C   0  0  0  0  0  0  0  0  0  0  0  0
    6.6092   16.1085  -22.7913 C   0  0  0  0  0  0  0  0  0  0  0  0
    7.9330   14.3611  -23.9559 C   0  0  0  0  0  0  0  0  0  0  0  0
    8.2238   13.1925  -23.0832 C   0  0  0  0  0  0  0  0  0  0  0  0
    7.2068   12.3914  -22.6258 C   0  0  0  0  0  0  0  0  0  0  0  0
    7.5223   11.3142  -21.8148 C   0  0  0  0  0  0  0  0  0  0  0  0
    8.8269   11.0388  -21.4650 C   0  0  0  0  0  0  0  0  0  0  0  0
    9.8395   11.8468  -21.9279 C   0  0  0  0  0  0  0  0  0  0  0  0
    9.5161   12.9005  -22.7228 C   0  0  0  0  0  0  0  0  0  0  0  0
   17.6145   17.2628  -21.7534 C   0  0  0  0  0  0  0  0  0  0  0  0
   13.7645   14.9667  -19.1052 N   0  0  0  0  0  0  0  0  0  0  0  0
   13.0709   16.9207  -21.2320 N   0  0  0  0  0  4  0  0  0  0  0  0
    7.7859   15.5739  -23.1987 N   0  0  0  0  0  0  0  0  0  0  0  0
   16.9215   15.0706  -21.9093 N   0  0  0  0  0  0  0  0  0  0  0  0
   18.2707   19.8313  -18.4806 O   0  0  0  0  0  0  0  0  0  0  0  0
   17.3583   16.2789  -23.9417 O   0  0  0  0  0  0  0  0  0  0  0  0
  2  1  2  0
 23  1  1  0
  3  2  1  0
  2 38  1  0
  5  3  2  0
  4 33  1  0
 37  4  1  0
  4 39  2  0
 13  5  1  0
  5 33  1  0
  6  7  1  0
 13  6  1  1
 15  6  2  0
 16  7  2  0
  7 17  1  0
  9  8  2  0
  8 18  1  0
 16  9  1  0
 19 10  2  0
 10 20  1  0
 24 10  1  0
 20 11  2  0
 21 11  1  0
 19 12  1  0
 12 21  2  0
 13 37  1  0
 14 15  1  0
 35 14  1  0
 15 34  1  0
 34 16  1  0
 17 18  2  0
 36 19  1  0
 21 22  1  0
 22 35  1  0
 33 23  2  0
 25 24  2  0
 36 25  1  0
 26 27  1  0
 26 36  1  0
 27 28  2  0
 27 32  1  0
 28 29  1  0
 29 30  2  0
 30 31  1  0
 31 32  2  0
M  CHG  1  35   1
M  END
$$$$
