
     RDKit          3D

 39 45  0  0  0  0  0  0  0  0999 V2000
   10.4740   13.4921  -21.6647 C   0  0  0  0  0  0  0  0  0  0  0  0
   11.1196   14.6721  -21.9672 C   0  0  0  0  0  0  0  0  0  0  0  0
   12.4846   14.7051  -21.8150 C   0  0  0  0  0  0  0  0  0  0  0  0
   13.5379   11.4479  -20.6108 C   0  0  0  0  0  0  0  0  0  0  0  0
   13.2181   13.5916  -21.3694 C   0  0  0  0  0  0  0  0  0  0  0  0
   15.2755   14.4545  -20.3284 C   0  0  0  0  0  0  0  0  0  0  0  0
   15.5159   14.3976  -18.9918 C   0  0  0  0  0  0  0  0  0  0  0  0
   16.2380   14.8833  -16.3553 C   0  0  0  0  0  0  0  0  0  0  0  0
   16.4425   15.8336  -17.3312 C   0  0  0  0  0  0  0  0  0  0  0  0
   12.7910   21.5395  -22.2273 C   0  0  0  0  0  0  0  0  0  0  0  0
   12.8682   19.1654  -22.1928 C   0  0  0  0  0  0  0  0  0  0  0  0
   14.4646   20.4046  -23.4374 C   0  0  0  0  0  0  0  0  0  0  0  0
   14.6679   13.3851  -21.1591 C   0  0  1  0  0  0  0  0  0  0  0  0
   15.5966   16.1199  -22.2328 C   0  0  0  0  0  0  0  0  0  0  0  0
   15.6854   15.6706  -20.8208 C   0  0  0  0  0  0  0  0  0  0  0  0
   16.0895   15.6066  -18.6418 C   0  0  0  0  0  0  0  0  0  0  0  0
   15.3054   13.4341  -18.0179 C   0  0  0  0  0  0  0  0  0  0  0  0
   15.6655   13.6828  -16.7170 C   0  0  0  0  0  0  0  0  0  0  0  0
   13.9038   21.6020  -23.0636 C   0  0  0  0  0  0  0  0  0  0  0  0
   12.2733   20.3400  -21.7926 C   0  0  0  0  0  0  0  0  0  0  0  0
   13.9709   19.1873  -23.0201 C   0  0  0  0  0  0  0  0  0  0  0  0
   14.6305   17.9080  -23.4666 C   0  0  0  0  0  0  0  0  0  0  0  0
   11.1787   12.3938  -21.2269 C   0  0  0  0  0  0  0  0  0  0  0  0
   12.4107   22.8549  -21.9946 C   0  0  0  0  0  0  0  0  0  0  0  0
   13.2960   23.6499  -22.6896 C   0  0  0  0  0  0  0  0  0  0  0  0
   15.2763   23.3628  -24.1586 C   0  0  0  0  0  0  0  0  0  0  0  0
   16.5856   23.2989  -23.4561 C   0  0  0  0  0  0  0  0  0  0  0  0
   16.7541   23.9046  -22.2355 C   0  0  0  0  0  0  0  0  0  0  0  0
   17.9902   23.8210  -21.6168 C   0  0  0  0  0  0  0  0  0  0  0  0
   19.0402   23.1466  -22.2022 C   0  0  0  0  0  0  0  0  0  0  0  0
   18.8622   22.5426  -23.4254 C   0  0  0  0  0  0  0  0  0  0  0  0
   17.6443   22.6323  -24.0216 C   0  0  0  0  0  0  0  0  0  0  0  0
   12.5663   12.4266  -21.0713 C   0  0  0  0  0  0  0  0  0  0  0  0
   16.1773   16.3554  -19.7776 N   0  0  0  0  0  0  0  0  0  0  0  0
   14.4002   16.8524  -22.5083 N   0  0  0  0  0  4  0  0  0  0  0  0
   14.2013   22.8771  -23.3372 N   0  0  0  0  0  0  0  0  0  0  0  0
   14.8034   12.0781  -20.6419 N   0  0  0  0  0  0  0  0  0  0  0  0
   10.3970   15.7797  -22.4094 O   0  0  0  0  0  0  0  0  0  0  0  0
   13.2696   10.2667  -20.2574 O   0  0  0  0  0  0  0  0  0  0  0  0
  2  1  2  0
 23  1  1  0
  3  2  1  0
  2 38  1  0
  5  3  2  0
  4 33  1  0
 37  4  1  0
  4 39  2  0
 13  5  1  0
  5 33  1  0
  6  7  1  0
 13  6  1  1
 15  6  2  0
 16  7  2  0
  7 17  1  0
  9  8  2  0
  8 18  1  0
 16  9  1  0
 19 10  2  0
 10 20  1  0
 24 10  1  0
 20 11  2  0
 21 11  1  0
 19 12  1  0
 12 21  2  0
 13 37  1  0
 14 15  1  0
 35 14  1  0
 15 34  1  0
 34 16  1  0
 17 18  2  0
 36 19  1  0
 21 22  1  0
 22 35  1  0
 33 23  2  0
 25 24  2  0
 36 25  1  0
 26 27  1  0
 26 36  1  0
 27 28  2  0
 27 32  1  0
 28 29  1  0
 29 30  2  0
 30 31  1  0
 31 32  2  0
M  CHG  1  35   1
M  END
$$$$
