
     RDKit          3D

 39 45  0  0  0  0  0  0  0  0999 V2000
    9.4496   11.0602  -24.3617 C   0  0  0  0  0  0  0  0  0  0  0  0
    9.3082   10.8156  -23.0122 C   0  0  0  0  0  0  0  0  0  0  0  0
    8.9541   11.8730  -22.2098 C   0  0  0  0  0  0  0  0  0  0  0  0
    8.6346   14.8034  -24.3263 C   0  0  0  0  0  0  0  0  0  0  0  0
    8.7386   13.1649  -22.7209 C   0  0  0  0  0  0  0  0  0  0  0  0
    9.1671   14.7467  -20.8836 C   0  0  0  0  0  0  0  0  0  0  0  0
    8.7238   14.9347  -19.6125 C   0  0  0  0  0  0  0  0  0  0  0  0
    8.4508   15.4147  -16.8916 C   0  0  0  0  0  0  0  0  0  0  0  0
    9.6895   15.4401  -17.4935 C   0  0  0  0  0  0  0  0  0  0  0  0
   16.6112   17.4673  -20.9536 C   0  0  0  0  0  0  0  0  0  0  0  0
   14.7008   17.6830  -22.3491 C   0  0  0  0  0  0  0  0  0  0  0  0
   15.4065   15.5462  -21.5948 C   0  0  0  0  0  0  0  0  0  0  0  0
    8.3316   14.4288  -22.0684 C   0  0  1  0  0  0  0  0  0  0  0  0
   11.3943   14.7614  -22.1257 C   0  0  0  0  0  0  0  0  0  0  0  0
   10.5332   14.8924  -20.9236 C   0  0  0  0  0  0  0  0  0  0  0  0
    9.8397   15.2041  -18.8410 C   0  0  0  0  0  0  0  0  0  0  0  0
    7.4724   14.9067  -19.0173 C   0  0  0  0  0  0  0  0  0  0  0  0
    7.3469   15.1452  -17.6715 C   0  0  0  0  0  0  0  0  0  0  0  0
   16.4630   16.0828  -20.8991 C   0  0  0  0  0  0  0  0  0  0  0  0
   15.7452   18.2649  -21.6674 C   0  0  0  0  0  0  0  0  0  0  0  0
   14.5220   16.3163  -22.3187 C   0  0  0  0  0  0  0  0  0  0  0  0
   13.3832   15.6668  -23.0622 C   0  0  0  0  0  0  0  0  0  0  0  0
    9.2423   12.3198  -24.8764 C   0  0  0  0  0  0  0  0  0  0  0  0
   17.7303   17.7645  -20.1865 C   0  0  0  0  0  0  0  0  0  0  0  0
   18.2080   16.5650  -19.7051 C   0  0  0  0  0  0  0  0  0  0  0  0
   17.6244   14.1560  -19.8403 C   0  0  0  0  0  0  0  0  0  0  0  0
   16.7600   13.7061  -18.7168 C   0  0  0  0  0  0  0  0  0  0  0  0
   15.8991   12.6486  -18.8773 C   0  0  0  0  0  0  0  0  0  0  0  0
   15.1118   12.2634  -17.8052 C   0  0  0  0  0  0  0  0  0  0  0  0
   15.1799   12.9188  -16.5944 C   0  0  0  0  0  0  0  0  0  0  0  0
   16.0455   13.9774  -16.4426 C   0  0  0  0  0  0  0  0  0  0  0  0
   16.8122   14.3450  -17.5026 C   0  0  0  0  0  0  0  0  0  0  0  0
    8.8829   13.3955  -24.0614 C   0  0  0  0  0  0  0  0  0  0  0  0
   10.9213   15.1704  -19.6701 N   0  0  0  0  0  0  0  0  0  0  0  0
   12.1224   15.9560  -22.4200 N   0  0  0  0  0  4  0  0  0  0  0  0
   17.4291   15.5471  -20.1449 N   0  0  0  0  0  0  0  0  0  0  0  0
    8.3380   15.4100  -23.0839 N   0  0  0  0  0  0  0  0  0  0  0  0
    9.5210    9.5362  -22.5000 O   0  0  0  0  0  0  0  0  0  0  0  0
    8.6828   15.3496  -25.4628 O   0  0  0  0  0  0  0  0  0  0  0  0
  2  1  2  0
 23  1  1  0
  3  2  1  0
  2 38  1  0
  5  3  2  0
  4 33  1  0
 37  4  1  0
  4 39  2  0
 13  5  1  0
  5 33  1  0
  6  7  1  0
 13  6  1  1
 15  6  2  0
 16  7  2  0
  7 17  1  0
  9  8  2  0
  8 18  1  0
 16  9  1  0
 19 10  2  0
 10 20  1  0
 24 10  1  0
 20 11  2  0
 21 11  1  0
 19 12  1  0
 12 21  2  0
 13 37  1  0
 14 15  1  0
 35 14  1  0
 15 34  1  0
 34 16  1  0
 17 18  2  0
 36 19  1  0
 21 22  1  0
 22 35  1  0
 33 23  2  0
 25 24  2  0
 36 25  1  0
 26 27  1  0
 26 36  1  0
 27 28  2  0
 27 32  1  0
 28 29  1  0
 29 30  2  0
 30 31  1  0
 31 32  2  0
M  CHG  1  35   1
M  END
$$$$
