
     RDKit          3D

 39 45  0  0  0  0  0  0  0  0999 V2000
   19.0687   12.9201  -22.6786 C   0  0  0  0  0  0  0  0  0  0  0  0
   18.9830   13.4617  -21.4137 C   0  0  0  0  0  0  0  0  0  0  0  0
   17.8423   13.2081  -20.6912 C   0  0  0  0  0  0  0  0  0  0  0  0
   15.6638   11.1657  -22.7533 C   0  0  0  0  0  0  0  0  0  0  0  0
   16.7884   12.4291  -21.2001 C   0  0  0  0  0  0  0  0  0  0  0  0
   14.7386   13.1448  -20.0393 C   0  0  0  0  0  0  0  0  0  0  0  0
   14.9082   13.6908  -18.8061 C   0  0  0  0  0  0  0  0  0  0  0  0
   14.7733   15.2007  -16.4801 C   0  0  0  0  0  0  0  0  0  0  0  0
   13.9377   15.4632  -17.5432 C   0  0  0  0  0  0  0  0  0  0  0  0
   16.4612   17.8909  -22.6781 C   0  0  0  0  0  0  0  0  0  0  0  0
   16.4180   15.6422  -23.4431 C   0  0  0  0  0  0  0  0  0  0  0  0
   14.4013   16.8682  -23.1922 C   0  0  0  0  0  0  0  0  0  0  0  0
   15.5001   12.0053  -20.6089 C   0  0  1  0  0  0  0  0  0  0  0  0
   13.2566   13.5204  -22.0803 C   0  0  0  0  0  0  0  0  0  0  0  0
   13.7396   13.8119  -20.7073 C   0  0  0  0  0  0  0  0  0  0  0  0
   13.9934   14.7230  -18.7021 C   0  0  0  0  0  0  0  0  0  0  0  0
   15.7539   13.4178  -17.7425 C   0  0  0  0  0  0  0  0  0  0  0  0
   15.6802   14.1695  -16.5964 C   0  0  0  0  0  0  0  0  0  0  0  0
   15.0733   17.9857  -22.7591 C   0  0  0  0  0  0  0  0  0  0  0  0
   17.1331   16.7370  -23.0141 C   0  0  0  0  0  0  0  0  0  0  0  0
   15.0436   15.6982  -23.5361 C   0  0  0  0  0  0  0  0  0  0  0  0
   14.2491   14.5058  -24.0030 C   0  0  0  0  0  0  0  0  0  0  0  0
   18.0448   12.1559  -23.1903 C   0  0  0  0  0  0  0  0  0  0  0  0
   16.9048   19.1258  -22.2227 C   0  0  0  0  0  0  0  0  0  0  0  0
   15.7837   19.9077  -22.0487 C   0  0  0  0  0  0  0  0  0  0  0  0
   13.3253   19.6995  -22.3228 C   0  0  0  0  0  0  0  0  0  0  0  0
   12.5915   19.1837  -21.1365 C   0  0  0  0  0  0  0  0  0  0  0  0
   12.9084   19.6210  -19.8742 C   0  0  0  0  0  0  0  0  0  0  0  0
   12.2003   19.1140  -18.7976 C   0  0  0  0  0  0  0  0  0  0  0  0
   11.1945   18.1879  -18.9738 C   0  0  0  0  0  0  0  0  0  0  0  0
   10.8839   17.7554  -20.2423 C   0  0  0  0  0  0  0  0  0  0  0  0
   11.5864   18.2610  -21.2898 C   0  0  0  0  0  0  0  0  0  0  0  0
   16.8845   11.8980  -22.4569 C   0  0  0  0  0  0  0  0  0  0  0  0
   13.3004   14.7679  -19.8752 N   0  0  0  0  0  0  0  0  0  0  0  0
   14.3168   13.4356  -23.0357 N   0  0  0  0  0  4  0  0  0  0  0  0
   14.6735   19.2040  -22.3782 N   0  0  0  0  0  0  0  0  0  0  0  0
   14.8275   11.2835  -21.6192 N   0  0  0  0  0  0  0  0  0  0  0  0
   20.0254   14.2352  -20.9041 O   0  0  0  0  0  0  0  0  0  0  0  0
   15.4268   10.5515  -23.8298 O   0  0  0  0  0  0  0  0  0  0  0  0
  2  1  2  0
 23  1  1  0
  3  2  1  0
  2 38  1  0
  5  3  2  0
  4 33  1  0
 37  4  1  0
  4 39  2  0
 13  5  1  0
  5 33  1  0
  6  7  1  0
 13  6  1  6
 15  6  2  0
 16  7  2  0
  7 17  1  0
  9  8  2  0
  8 18  1  0
 16  9  1  0
 19 10  2  0
 10 20  1  0
 24 10  1  0
 20 11  2  0
 21 11  1  0
 19 12  1  0
 12 21  2  0
 13 37  1  0
 14 15  1  0
 35 14  1  0
 15 34  1  0
 34 16  1  0
 17 18  2  0
 36 19  1  0
 21 22  1  0
 22 35  1  0
 33 23  2  0
 25 24  2  0
 36 25  1  0
 26 27  1  0
 26 36  1  0
 27 28  2  0
 27 32  1  0
 28 29  1  0
 29 30  2  0
 30 31  1  0
 31 32  2  0
M  CHG  1  35   1
M  END
$$$$
