
     RDKit          3D

 39 45  0  0  0  0  0  0  0  0999 V2000
   14.5562   12.0318  -21.3526 C   0  0  0  0  0  0  0  0  0  0  0  0
   13.8452   13.1330  -21.7801 C   0  0  0  0  0  0  0  0  0  0  0  0
   14.5511   14.1543  -22.3683 C   0  0  0  0  0  0  0  0  0  0  0  0
   18.0551   13.2104  -22.3753 C   0  0  0  0  0  0  0  0  0  0  0  0
   15.9456   14.1027  -22.5393 C   0  0  0  0  0  0  0  0  0  0  0  0
   16.7461   16.4291  -22.6313 C   0  0  0  0  0  0  0  0  0  0  0  0
   17.3001   16.9231  -21.4927 C   0  0  0  0  0  0  0  0  0  0  0  0
   18.1234   18.4779  -19.3449 C   0  0  0  0  0  0  0  0  0  0  0  0
   17.3116   19.0013  -20.3268 C   0  0  0  0  0  0  0  0  0  0  0  0
   10.3052   16.5769  -21.0905 C   0  0  0  0  0  0  0  0  0  0  0  0
   10.5982   17.0020  -23.4094 C   0  0  0  0  0  0  0  0  0  0  0  0
   12.4660   16.9687  -21.9454 C   0  0  0  0  0  0  0  0  0  0  0  0
   16.8994   15.0498  -23.1574 C   0  0  1  0  0  0  0  0  0  0  0  0
   15.2474   17.2672  -24.5168 C   0  0  0  0  0  0  0  0  0  0  0  0
   16.0055   17.4089  -23.2484 C   0  0  0  0  0  0  0  0  0  0  0  0
   16.8958   18.2424  -21.3969 C   0  0  0  0  0  0  0  0  0  0  0  0
   18.1170   16.3860  -20.5102 C   0  0  0  0  0  0  0  0  0  0  0  0
   18.5192   17.1620  -19.4519 C   0  0  0  0  0  0  0  0  0  0  0  0
   11.6738   16.6942  -20.8567 C   0  0  0  0  0  0  0  0  0  0  0  0
    9.7658   16.7275  -22.3484 C   0  0  0  0  0  0  0  0  0  0  0  0
   11.9578   17.1253  -23.2170 C   0  0  0  0  0  0  0  0  0  0  0  0
   12.8797   17.4272  -24.3703 C   0  0  0  0  0  0  0  0  0  0  0  0
   15.9217   11.9674  -21.5128 C   0  0  0  0  0  0  0  0  0  0  0  0
    9.7267   16.3035  -19.8578 C   0  0  0  0  0  0  0  0  0  0  0  0
   10.7537   16.2667  -18.9400 C   0  0  0  0  0  0  0  0  0  0  0  0
   13.2207   16.5419  -18.9159 C   0  0  0  0  0  0  0  0  0  0  0  0
   13.6095   15.2123  -18.3748 C   0  0  0  0  0  0  0  0  0  0  0  0
   13.9980   15.0772  -17.0648 C   0  0  0  0  0  0  0  0  0  0  0  0
   14.3525   13.8209  -16.6026 C   0  0  0  0  0  0  0  0  0  0  0  0
   14.3212   12.7183  -17.4293 C   0  0  0  0  0  0  0  0  0  0  0  0
   13.9306   12.8630  -18.7405 C   0  0  0  0  0  0  0  0  0  0  0  0
   13.5853   14.1013  -19.1812 C   0  0  0  0  0  0  0  0  0  0  0  0
   16.6403   13.0054  -22.1101 C   0  0  0  0  0  0  0  0  0  0  0  0
   16.1106   18.5035  -22.4803 N   0  0  0  0  0  0  0  0  0  0  0  0
   14.0237   16.5459  -24.3547 N   0  0  0  0  0  4  0  0  0  0  0  0
   11.9355   16.5058  -19.5585 N   0  0  0  0  0  0  0  0  0  0  0  0
   18.1804   14.4824  -22.9803 N   0  0  0  0  0  0  0  0  0  0  0  0
   12.4620   13.1894  -21.6128 O   0  0  0  0  0  0  0  0  0  0  0  0
   18.9729   12.3880  -22.1044 O   0  0  0  0  0  0  0  0  0  0  0  0
  2  1  2  0
 23  1  1  0
  3  2  1  0
  2 38  1  0
  5  3  2  0
  4 33  1  0
 37  4  1  0
  4 39  2  0
 13  5  1  0
  5 33  1  0
  6  7  1  0
 13  6  1  1
 15  6  2  0
 16  7  2  0
  7 17  1  0
  9  8  2  0
  8 18  1  0
 16  9  1  0
 19 10  2  0
 10 20  1  0
 24 10  1  0
 20 11  2  0
 21 11  1  0
 19 12  1  0
 12 21  2  0
 13 37  1  0
 14 15  1  0
 35 14  1  0
 15 34  1  0
 34 16  1  0
 17 18  2  0
 36 19  1  0
 21 22  1  0
 22 35  1  0
 33 23  2  0
 25 24  2  0
 36 25  1  0
 26 27  1  0
 26 36  1  0
 27 28  2  0
 27 32  1  0
 28 29  1  0
 29 30  2  0
 30 31  1  0
 31 32  2  0
M  CHG  1  35   1
M  END
$$$$
