
     RDKit          3D

 39 45  0  0  0  0  0  0  0  0999 V2000
    7.1195   16.3462  -26.5265 C   0  0  0  0  0  0  0  0  0  0  0  0
    6.2701   15.4765  -25.8761 C   0  0  0  0  0  0  0  0  0  0  0  0
    6.5169   15.2231  -24.5485 C   0  0  0  0  0  0  0  0  0  0  0  0
    9.4565   17.1238  -23.5920 C   0  0  0  0  0  0  0  0  0  0  0  0
    7.5882   15.8153  -23.8571 C   0  0  0  0  0  0  0  0  0  0  0  0
    8.1624   14.3108  -21.9948 C   0  0  0  0  0  0  0  0  0  0  0  0
    7.1491   13.4257  -21.8018 C   0  0  0  0  0  0  0  0  0  0  0  0
    5.5645   11.2160  -21.2409 C   0  0  0  0  0  0  0  0  0  0  0  0
    6.9344   11.1554  -21.1104 C   0  0  0  0  0  0  0  0  0  0  0  0
   15.0185   13.7956  -17.1917 C   0  0  0  0  0  0  0  0  0  0  0  0
   12.9391   13.1209  -18.1216 C   0  0  0  0  0  0  0  0  0  0  0  0
   14.6432   14.0205  -19.5072 C   0  0  0  0  0  0  0  0  0  0  0  0
    8.0270   15.7178  -22.4475 C   0  0  1  0  0  0  0  0  0  0  0  0
   10.7048   14.3391  -21.7975 C   0  0  0  0  0  0  0  0  0  0  0  0
    9.3640   13.7083  -21.7080 C   0  0  0  0  0  0  0  0  0  0  0  0
    7.7321   12.2427  -21.3849 C   0  0  0  0  0  0  0  0  0  0  0  0
    5.7715   13.4979  -21.9365 C   0  0  0  0  0  0  0  0  0  0  0  0
    4.9960   12.4005  -21.6571 C   0  0  0  0  0  0  0  0  0  0  0  0
   15.4947   14.1862  -18.4416 C   0  0  0  0  0  0  0  0  0  0  0  0
   13.7574   13.2685  -17.0250 C   0  0  0  0  0  0  0  0  0  0  0  0
   13.3755   13.4962  -19.3744 C   0  0  0  0  0  0  0  0  0  0  0  0
   12.4885   13.3411  -20.5829 C   0  0  0  0  0  0  0  0  0  0  0  0
    8.1728   16.9331  -25.8628 C   0  0  0  0  0  0  0  0  0  0  0  0
   16.0429   14.0576  -16.2910 C   0  0  0  0  0  0  0  0  0  0  0  0
   17.0835   14.5888  -17.0215 C   0  0  0  0  0  0  0  0  0  0  0  0
   17.5775   15.1628  -19.3855 C   0  0  0  0  0  0  0  0  0  0  0  0
   18.1862   14.0632  -20.1805 C   0  0  0  0  0  0  0  0  0  0  0  0
   17.6248   13.6664  -21.3690 C   0  0  0  0  0  0  0  0  0  0  0  0
   18.2239   12.6378  -22.0768 C   0  0  0  0  0  0  0  0  0  0  0  0
   19.3615   12.0149  -21.6101 C   0  0  0  0  0  0  0  0  0  0  0  0
   19.9172   12.4190  -20.4182 C   0  0  0  0  0  0  0  0  0  0  0  0
   19.3194   13.4294  -19.7338 C   0  0  0  0  0  0  0  0  0  0  0  0
    8.4248   16.6756  -24.5134 C   0  0  0  0  0  0  0  0  0  0  0  0
    9.0786   12.4506  -21.3391 N   0  0  0  0  0  0  0  0  0  0  0  0
   11.4167   14.3086  -20.5580 N   0  0  0  0  0  4  0  0  0  0  0  0
   16.7395   14.6628  -18.3301 N   0  0  0  0  0  0  0  0  0  0  0  0
    9.2046   16.4913  -22.3527 N   0  0  0  0  0  0  0  0  0  0  0  0
    5.2060   14.8863  -26.5571 O   0  0  0  0  0  0  0  0  0  0  0  0
   10.3872   17.9269  -23.8765 O   0  0  0  0  0  0  0  0  0  0  0  0
  2  1  2  0
 23  1  1  0
  3  2  1  0
  2 38  1  0
  5  3  2  0
  4 33  1  0
 37  4  1  0
  4 39  2  0
 13  5  1  0
  5 33  1  0
  6  7  1  0
 13  6  1  6
 15  6  2  0
 16  7  2  0
  7 17  1  0
  9  8  2  0
  8 18  1  0
 16  9  1  0
 19 10  2  0
 10 20  1  0
 24 10  1  0
 20 11  2  0
 21 11  1  0
 19 12  1  0
 12 21  2  0
 13 37  1  0
 14 15  1  0
 35 14  1  0
 15 34  1  0
 34 16  1  0
 17 18  2  0
 36 19  1  0
 21 22  1  0
 22 35  1  0
 33 23  2  0
 25 24  2  0
 36 25  1  0
 26 27  1  0
 26 36  1  0
 27 28  2  0
 27 32  1  0
 28 29  1  0
 29 30  2  0
 30 31  1  0
 31 32  2  0
M  CHG  1  35   1
M  END
$$$$
