
     RDKit          3D

 22 24  0  0  0  0  0  0  0  0999 V2000
   -0.5756  -21.9623    3.2590 C   0  0  0  0  0  0  0  0  0  0  0  0
    0.7525  -23.8214    2.6066 C   0  0  0  0  0  0  0  0  0  0  0  0
   -4.9536  -18.7703    2.9395 C   0  0  0  0  0  0  0  0  0  0  0  0
   -5.0425  -19.4118    4.1576 C   0  0  0  0  0  0  0  0  0  0  0  0
   -3.9025  -19.1154    4.8637 C   0  0  0  0  0  0  0  0  0  0  0  0
   -0.4251  -21.3531    2.0305 C   0  0  0  0  0  0  0  0  0  0  0  0
   -4.9609  -15.5859    2.1543 C   0  0  0  0  0  0  0  0  0  0  0  0
   -3.8038  -16.0798    1.4432 C   0  0  0  0  0  0  0  0  0  0  0  0
   -3.2257  -15.3749    0.4114 C   0  0  0  0  0  0  0  0  0  0  0  0
   -2.1211  -15.8400   -0.2719 C   0  0  0  0  0  0  0  0  0  0  0  0
   -1.5863  -17.0565    0.1019 C   0  0  0  0  0  0  0  0  0  0  0  0
   -2.1751  -17.7577    1.1409 C   0  0  0  0  0  0  0  0  0  0  0  0
   -3.2821  -17.2920    1.8260 C   0  0  0  0  0  0  0  0  0  0  0  0
   -3.1536  -18.2963    4.0421 C   0  0  0  0  0  0  0  0  0  0  0  0
   -1.5535  -19.0244    1.4709 C   0  0  0  0  0  0  0  0  0  0  0  0
   -1.0271  -20.0848    1.7269 C   0  0  0  0  0  0  0  0  0  0  0  0
    0.3387  -22.0176    1.0856 C   0  0  0  0  0  0  0  0  0  0  0  0
    0.9313  -23.2536    1.3669 C   0  0  0  0  0  0  0  0  0  0  0  0
    0.0063  -23.1827    3.5446 C   0  0  0  0  0  0  0  0  0  0  0  0
   -3.8018  -18.0911    2.8711 N   0  0  0  0  0  0  0  0  0  0  0  0
   -4.9872  -15.6991    3.4059 O   0  0  0  0  0  0  0  0  0  0  0  0
   -6.0449  -14.9931    1.5277 O   0  0  0  0  0  0  0  0  0  0  0  0
  6  1  2  0
  1 19  1  0
  2 18  1  0
 19  2  2  0
  3  4  2  0
 20  3  1  0
  5  4  1  0
 14  5  2  0
 16  6  1  0
  6 17  1  0
  8  7  1  0
  7 21  2  0
  7 22  1  0
  8  9  2  0
 13  8  1  0
 10  9  1  0
 11 10  2  0
 12 11  1  0
 12 13  2  0
 15 12  1  0
 13 20  1  0
 20 14  1  0
 15 16  3  0
 17 18  2  0
M  END
$$$$
