
     RDKit          3D

 22 24  0  0  0  0  0  0  0  0999 V2000
   -0.3811  -22.8325    1.3757 C   0  0  0  0  0  0  0  0  0  0  0  0
    1.7147  -23.7238    2.0530 C   0  0  0  0  0  0  0  0  0  0  0  0
   -1.8132  -18.7282    5.2022 C   0  0  0  0  0  0  0  0  0  0  0  0
   -1.8073  -19.5065    6.3414 C   0  0  0  0  0  0  0  0  0  0  0  0
   -3.0395  -20.1051    6.4378 C   0  0  0  0  0  0  0  0  0  0  0  0
   -0.1765  -21.6663    2.0836 C   0  0  0  0  0  0  0  0  0  0  0  0
   -4.9484  -16.7418    4.6237 C   0  0  0  0  0  0  0  0  0  0  0  0
   -4.4021  -17.2074    3.3693 C   0  0  0  0  0  0  0  0  0  0  0  0
   -4.7912  -16.6739    2.1612 C   0  0  0  0  0  0  0  0  0  0  0  0
   -4.2742  -17.1132    0.9599 C   0  0  0  0  0  0  0  0  0  0  0  0
   -3.3343  -18.1239    0.9840 C   0  0  0  0  0  0  0  0  0  0  0  0
   -2.9496  -18.6539    2.2044 C   0  0  0  0  0  0  0  0  0  0  0  0
   -3.4675  -18.2139    3.4084 C   0  0  0  0  0  0  0  0  0  0  0  0
   -3.7578  -19.6656    5.3435 C   0  0  0  0  0  0  0  0  0  0  0  0
   -1.9595  -19.7101    2.1425 C   0  0  0  0  0  0  0  0  0  0  0  0
   -1.1436  -20.6044    2.1042 C   0  0  0  0  0  0  0  0  0  0  0  0
    1.0126  -21.5535    2.7845 C   0  0  0  0  0  0  0  0  0  0  0  0
    1.9640  -22.5794    2.7738 C   0  0  0  0  0  0  0  0  0  0  0  0
    0.5535  -23.8502    1.3601 C   0  0  0  0  0  0  0  0  0  0  0  0
   -3.0027  -18.8266    4.5956 N   0  0  0  0  0  0  0  0  0  0  0  0
   -4.1528  -16.3439    5.5118 O   0  0  0  0  0  0  0  0  0  0  0  0
   -6.3057  -16.7109    4.8993 O   0  0  0  0  0  0  0  0  0  0  0  0
  6  1  2  0
  1 19  1  0
  2 18  1  0
 19  2  2  0
  3  4  2  0
 20  3  1  0
  5  4  1  0
 14  5  2  0
 16  6  1  0
  6 17  1  0
  8  7  1  0
  7 21  2  0
  7 22  1  0
  8  9  2  0
 13  8  1  0
 10  9  1  0
 11 10  2  0
 12 11  1  0
 12 13  2  0
 15 12  1  0
 13 20  1  0
 20 14  1  0
 15 16  3  0
 17 18  2  0
M  END
$$$$
