
     RDKit          3D

 22 24  0  0  0  0  0  0  0  0999 V2000
    0.6109  -21.3302    1.2970 C   0  0  0  0  0  0  0  0  0  0  0  0
    0.2646  -23.6597    1.6117 C   0  0  0  0  0  0  0  0  0  0  0  0
   -4.0550  -18.2494    1.3547 C   0  0  0  0  0  0  0  0  0  0  0  0
   -5.1255  -19.0999    1.5393 C   0  0  0  0  0  0  0  0  0  0  0  0
   -5.5165  -18.9917    2.8513 C   0  0  0  0  0  0  0  0  0  0  0  0
   -0.4406  -21.0053    2.1288 C   0  0  0  0  0  0  0  0  0  0  0  0
   -4.3788  -14.8761    2.9752 C   0  0  0  0  0  0  0  0  0  0  0  0
   -3.0101  -15.3371    3.0284 C   0  0  0  0  0  0  0  0  0  0  0  0
   -1.9636  -14.4856    3.3032 C   0  0  0  0  0  0  0  0  0  0  0  0
   -0.6546  -14.9184    3.3556 C   0  0  0  0  0  0  0  0  0  0  0  0
   -0.3988  -16.2547    3.1225 C   0  0  0  0  0  0  0  0  0  0  0  0
   -1.4583  -17.1029    2.8470 C   0  0  0  0  0  0  0  0  0  0  0  0
   -2.7702  -16.6696    2.7944 C   0  0  0  0  0  0  0  0  0  0  0  0
   -4.6617  -18.0705    3.4236 C   0  0  0  0  0  0  0  0  0  0  0  0
   -1.1049  -18.4889    2.6145 C   0  0  0  0  0  0  0  0  0  0  0  0
   -0.8091  -19.6435    2.3994 C   0  0  0  0  0  0  0  0  0  0  0  0
   -1.1391  -22.0543    2.7026 C   0  0  0  0  0  0  0  0  0  0  0  0
   -0.7918  -23.3857    2.4484 C   0  0  0  0  0  0  0  0  0  0  0  0
    0.9601  -22.6424    1.0409 C   0  0  0  0  0  0  0  0  0  0  0  0
   -3.7740  -17.6231    2.5042 N   0  0  0  0  0  0  0  0  0  0  0  0
   -4.9395  -14.5412    4.0492 O   0  0  0  0  0  0  0  0  0  0  0  0
   -5.1068  -14.7839    1.8002 O   0  0  0  0  0  0  0  0  0  0  0  0
  6  1  2  0
  1 19  1  0
  2 18  1  0
 19  2  2  0
  3  4  2  0
 20  3  1  0
  5  4  1  0
 14  5  2  0
 16  6  1  0
  6 17  1  0
  8  7  1  0
  7 21  2  0
  7 22  1  0
  8  9  2  0
 13  8  1  0
 10  9  1  0
 11 10  2  0
 12 11  1  0
 12 13  2  0
 15 12  1  0
 13 20  1  0
 20 14  1  0
 15 16  3  0
 17 18  2  0
M  END
$$$$
