
     RDKit          3D

 22 24  0  0  0  0  0  0  0  0999 V2000
  -11.2908  -34.4838   -1.1551 C   0  0  0  0  0  0  0  0  0  0  0  0
   -9.8109  -32.9387   -0.1217 C   0  0  0  0  0  0  0  0  0  0  0  0
  -17.0447  -31.7088   -1.8264 C   0  0  0  0  0  0  0  0  0  0  0  0
  -16.4544  -30.6172   -2.4291 C   0  0  0  0  0  0  0  0  0  0  0  0
  -15.7673  -31.0740   -3.5270 C   0  0  0  0  0  0  0  0  0  0  0  0
  -12.4023  -33.7707   -0.7564 C   0  0  0  0  0  0  0  0  0  0  0  0
  -19.3451  -33.8015   -3.1542 C   0  0  0  0  0  0  0  0  0  0  0  0
  -18.3617  -34.6816   -2.5651 C   0  0  0  0  0  0  0  0  0  0  0  0
  -18.6346  -36.0038   -2.2950 C   0  0  0  0  0  0  0  0  0  0  0  0
  -17.7010  -36.8499   -1.7329 C   0  0  0  0  0  0  0  0  0  0  0  0
  -16.4530  -36.3402   -1.4355 C   0  0  0  0  0  0  0  0  0  0  0  0
  -16.1886  -35.0090   -1.7110 C   0  0  0  0  0  0  0  0  0  0  0  0
  -17.1239  -34.1608   -2.2744 C   0  0  0  0  0  0  0  0  0  0  0  0
  -15.9661  -32.4403   -3.5531 C   0  0  0  0  0  0  0  0  0  0  0  0
  -14.8562  -34.5530   -1.3692 C   0  0  0  0  0  0  0  0  0  0  0  0
  -13.7373  -34.1917   -1.0787 C   0  0  0  0  0  0  0  0  0  0  0  0
  -12.1825  -32.6167   -0.0231 C   0  0  0  0  0  0  0  0  0  0  0  0
  -10.8880  -32.1940    0.2984 C   0  0  0  0  0  0  0  0  0  0  0  0
  -10.0092  -34.0731   -0.8417 C   0  0  0  0  0  0  0  0  0  0  0  0
  -16.7458  -32.8188   -2.5129 N   0  0  0  0  0  0  0  0  0  0  0  0
  -18.9439  -32.8548   -3.8772 O   0  0  0  0  0  0  0  0  0  0  0  0
  -20.7095  -33.9468   -2.9633 O   0  0  0  0  0  0  0  0  0  0  0  0
  6  1  2  0
  1 19  1  0
  2 18  1  0
 19  2  2  0
  3  4  2  0
 20  3  1  0
  5  4  1  0
 14  5  2  0
 16  6  1  0
  6 17  1  0
  8  7  1  0
  7 21  2  0
  7 22  1  0
  8  9  2  0
 13  8  1  0
 10  9  1  0
 11 10  2  0
 12 11  1  0
 12 13  2  0
 15 12  1  0
 13 20  1  0
 20 14  1  0
 15 16  3  0
 17 18  2  0
M  END
$$$$
