
     RDKit          3D

 22 24  0  0  0  0  0  0  0  0999 V2000
   -5.1099  -32.5011   -2.4034 C   0  0  0  0  0  0  0  0  0  0  0  0
   -3.2128  -31.8572   -3.6808 C   0  0  0  0  0  0  0  0  0  0  0  0
   -8.6082  -33.0484    1.4747 C   0  0  0  0  0  0  0  0  0  0  0  0
   -9.3462  -32.5904    0.4028 C   0  0  0  0  0  0  0  0  0  0  0  0
   -9.3064  -33.5597   -0.5692 C   0  0  0  0  0  0  0  0  0  0  0  0
   -4.3399  -33.2410   -1.5301 C   0  0  0  0  0  0  0  0  0  0  0  0
   -9.1533  -35.6906    3.4376 C   0  0  0  0  0  0  0  0  0  0  0  0
   -7.7609  -35.8234    3.0737 C   0  0  0  0  0  0  0  0  0  0  0  0
   -6.8958  -36.6288    3.7798 C   0  0  0  0  0  0  0  0  0  0  0  0
   -5.5656  -36.7605    3.4384 C   0  0  0  0  0  0  0  0  0  0  0  0
   -5.0982  -36.0544    2.3481 C   0  0  0  0  0  0  0  0  0  0  0  0
   -5.9764  -35.2472    1.6445 C   0  0  0  0  0  0  0  0  0  0  0  0
   -7.3095  -35.1149    1.9864 C   0  0  0  0  0  0  0  0  0  0  0  0
   -8.5382  -34.5825   -0.0490 C   0  0  0  0  0  0  0  0  0  0  0  0
   -5.4070  -34.5409    0.5146 C   0  0  0  0  0  0  0  0  0  0  0  0
   -4.9117  -33.9549   -0.4226 C   0  0  0  0  0  0  0  0  0  0  0  0
   -2.9750  -33.2719   -1.7624 C   0  0  0  0  0  0  0  0  0  0  0  0
   -2.4037  -32.5816   -2.8371 C   0  0  0  0  0  0  0  0  0  0  0  0
   -4.5533  -31.8166   -3.4670 C   0  0  0  0  0  0  0  0  0  0  0  0
   -8.1167  -34.2625    1.1973 N   0  0  0  0  0  0  0  0  0  0  0  0
  -10.0071  -35.6128    2.5185 O   0  0  0  0  0  0  0  0  0  0  0  0
   -9.5972  -35.6445    4.7491 O   0  0  0  0  0  0  0  0  0  0  0  0
  6  1  2  0
  1 19  1  0
  2 18  1  0
 19  2  2  0
  3  4  2  0
 20  3  1  0
  5  4  1  0
 14  5  2  0
 16  6  1  0
  6 17  1  0
  8  7  1  0
  7 21  2  0
  7 22  1  0
  8  9  2  0
 13  8  1  0
 10  9  1  0
 11 10  2  0
 12 11  1  0
 12 13  2  0
 15 12  1  0
 13 20  1  0
 20 14  1  0
 15 16  3  0
 17 18  2  0
M  END
$$$$
