
     RDKit          3D

 22 24  0  0  0  0  0  0  0  0999 V2000
   -0.2637  -22.8910    3.3721 C   0  0  0  0  0  0  0  0  0  0  0  0
    1.4442  -24.1479    2.3003 C   0  0  0  0  0  0  0  0  0  0  0  0
   -2.8228  -19.6817    5.4781 C   0  0  0  0  0  0  0  0  0  0  0  0
   -3.2826  -20.7081    6.2771 C   0  0  0  0  0  0  0  0  0  0  0  0
   -4.4946  -21.1117    5.7729 C   0  0  0  0  0  0  0  0  0  0  0  0
   -0.2562  -21.9314    2.3811 C   0  0  0  0  0  0  0  0  0  0  0  0
   -5.4284  -17.1667    4.4469 C   0  0  0  0  0  0  0  0  0  0  0  0
   -4.4714  -17.3780    3.3847 C   0  0  0  0  0  0  0  0  0  0  0  0
   -4.3543  -16.5078    2.3243 C   0  0  0  0  0  0  0  0  0  0  0  0
   -3.4431  -16.7029    1.3069 C   0  0  0  0  0  0  0  0  0  0  0  0
   -2.6259  -17.8139    1.3663 C   0  0  0  0  0  0  0  0  0  0  0  0
   -2.7515  -18.6831    2.4371 C   0  0  0  0  0  0  0  0  0  0  0  0
   -3.6645  -18.4879    3.4568 C   0  0  0  0  0  0  0  0  0  0  0  0
   -4.7311  -20.3086    4.6748 C   0  0  0  0  0  0  0  0  0  0  0  0
   -1.8575  -19.8235    2.4242 C   0  0  0  0  0  0  0  0  0  0  0  0
   -1.1269  -20.7895    2.4155 C   0  0  0  0  0  0  0  0  0  0  0  0
    0.6341  -22.1104    1.3356 C   0  0  0  0  0  0  0  0  0  0  0  0
    1.4884  -23.2176    1.2884 C   0  0  0  0  0  0  0  0  0  0  0  0
    0.5767  -23.9872    3.3328 C   0  0  0  0  0  0  0  0  0  0  0  0
   -3.7071  -19.4398    4.5023 N   0  0  0  0  0  0  0  0  0  0  0  0
   -5.1238  -17.5364    5.6090 O   0  0  0  0  0  0  0  0  0  0  0  0
   -6.6664  -16.5768    4.2510 O   0  0  0  0  0  0  0  0  0  0  0  0
  6  1  2  0
  1 19  1  0
  2 18  1  0
 19  2  2  0
  3  4  2  0
 20  3  1  0
  5  4  1  0
 14  5  2  0
 16  6  1  0
  6 17  1  0
  8  7  1  0
  7 21  2  0
  7 22  1  0
  8  9  2  0
 13  8  1  0
 10  9  1  0
 11 10  2  0
 12 11  1  0
 12 13  2  0
 15 12  1  0
 13 20  1  0
 20 14  1  0
 15 16  3  0
 17 18  2  0
M  END
$$$$
