
     RDKit          3D

 22 24  0  0  0  0  0  0  0  0999 V2000
   -7.6537  -29.9796  -14.5242 C   0  0  0  0  0  0  0  0  0  0  0  0
   -5.7205  -29.6572  -13.1809 C   0  0  0  0  0  0  0  0  0  0  0  0
  -12.1748  -31.7319  -16.5823 C   0  0  0  0  0  0  0  0  0  0  0  0
  -12.6029  -31.3433  -15.3297 C   0  0  0  0  0  0  0  0  0  0  0  0
  -12.0897  -32.2379  -14.4229 C   0  0  0  0  0  0  0  0  0  0  0  0
   -7.2183  -31.2170  -14.9513 C   0  0  0  0  0  0  0  0  0  0  0  0
  -12.8552  -34.4608  -18.3262 C   0  0  0  0  0  0  0  0  0  0  0  0
  -11.4140  -34.3802  -18.3985 C   0  0  0  0  0  0  0  0  0  0  0  0
  -10.6910  -35.0729  -19.3434 C   0  0  0  0  0  0  0  0  0  0  0  0
   -9.3152  -35.0009  -19.4185 C   0  0  0  0  0  0  0  0  0  0  0  0
   -8.6524  -34.2024  -18.5082 C   0  0  0  0  0  0  0  0  0  0  0  0
   -9.3888  -33.5097  -17.5617 C   0  0  0  0  0  0  0  0  0  0  0  0
  -10.7675  -33.5817  -17.4861 C   0  0  0  0  0  0  0  0  0  0  0  0
  -11.3608  -33.1475  -15.1633 C   0  0  0  0  0  0  0  0  0  0  0  0
   -8.6180  -32.6950  -16.6441 C   0  0  0  0  0  0  0  0  0  0  0  0
   -7.9824  -32.0245  -15.8610 C   0  0  0  0  0  0  0  0  0  0  0  0
   -5.9999  -31.6601  -14.4647 C   0  0  0  0  0  0  0  0  0  0  0  0
   -5.2445  -30.8847  -13.5782 C   0  0  0  0  0  0  0  0  0  0  0  0
   -6.9137  -29.2078  -13.6488 C   0  0  0  0  0  0  0  0  0  0  0  0
  -11.4181  -32.8315  -16.4787 N   0  0  0  0  0  0  0  0  0  0  0  0
  -13.3911  -34.5923  -17.1969 O   0  0  0  0  0  0  0  0  0  0  0  0
  -13.6786  -34.4005  -19.4386 O   0  0  0  0  0  0  0  0  0  0  0  0
  6  1  2  0
  1 19  1  0
  2 18  1  0
 19  2  2  0
  3  4  2  0
 20  3  1  0
  5  4  1  0
 14  5  2  0
 16  6  1  0
  6 17  1  0
  8  7  1  0
  7 21  2  0
  7 22  1  0
  8  9  2  0
 13  8  1  0
 10  9  1  0
 11 10  2  0
 12 11  1  0
 12 13  2  0
 15 12  1  0
 13 20  1  0
 20 14  1  0
 15 16  3  0
 17 18  2  0
M  END
$$$$
