
     RDKit          3D

 22 24  0  0  0  0  0  0  0  0999 V2000
   -7.1582  -35.1584  -16.4014 C   0  0  0  0  0  0  0  0  0  0  0  0
   -5.0408  -35.5668  -17.3989 C   0  0  0  0  0  0  0  0  0  0  0  0
  -10.6516  -30.7672  -15.4881 C   0  0  0  0  0  0  0  0  0  0  0  0
   -9.9670  -30.8804  -14.2956 C   0  0  0  0  0  0  0  0  0  0  0  0
  -10.1296  -32.1684  -13.8477 C   0  0  0  0  0  0  0  0  0  0  0  0
   -7.6492  -34.5751  -17.5510 C   0  0  0  0  0  0  0  0  0  0  0  0
  -13.8953  -30.9828  -16.1199 C   0  0  0  0  0  0  0  0  0  0  0  0
  -13.3120  -31.8625  -17.1071 C   0  0  0  0  0  0  0  0  0  0  0  0
  -14.0064  -32.2672  -18.2250 C   0  0  0  0  0  0  0  0  0  0  0  0
  -13.4561  -33.1067  -19.1715 C   0  0  0  0  0  0  0  0  0  0  0  0
  -12.1628  -33.5493  -18.9790 C   0  0  0  0  0  0  0  0  0  0  0  0
  -11.4729  -33.1365  -17.8514 C   0  0  0  0  0  0  0  0  0  0  0  0
  -12.0240  -32.2952  -16.9026 C   0  0  0  0  0  0  0  0  0  0  0  0
  -10.9148  -32.7988  -14.7926 C   0  0  0  0  0  0  0  0  0  0  0  0
  -10.1221  -33.6455  -17.7242 C   0  0  0  0  0  0  0  0  0  0  0  0
   -8.9886  -34.0631  -17.6369 C   0  0  0  0  0  0  0  0  0  0  0  0
   -6.7922  -34.4992  -18.6362 C   0  0  0  0  0  0  0  0  0  0  0  0
   -5.4851  -34.9936  -18.5674 C   0  0  0  0  0  0  0  0  0  0  0  0
   -5.8686  -35.6490  -16.3255 C   0  0  0  0  0  0  0  0  0  0  0  0
  -11.2284  -31.9374  -15.7891 N   0  0  0  0  0  0  0  0  0  0  0  0
  -13.5424  -31.1119  -14.9205 O   0  0  0  0  0  0  0  0  0  0  0  0
  -14.8250  -30.0027  -16.4269 O   0  0  0  0  0  0  0  0  0  0  0  0
  6  1  2  0
  1 19  1  0
  2 18  1  0
 19  2  2  0
  3  4  2  0
 20  3  1  0
  5  4  1  0
 14  5  2  0
 16  6  1  0
  6 17  1  0
  8  7  1  0
  7 21  2  0
  7 22  1  0
  8  9  2  0
 13  8  1  0
 10  9  1  0
 11 10  2  0
 12 11  1  0
 12 13  2  0
 15 12  1  0
 13 20  1  0
 20 14  1  0
 15 16  3  0
 17 18  2  0
M  END
$$$$
