
     RDKit          3D

 22 24  0  0  0  0  0  0  0  0999 V2000
   -0.1051  -22.1065    0.9249 C   0  0  0  0  0  0  0  0  0  0  0  0
    1.4674  -23.4360    2.1103 C   0  0  0  0  0  0  0  0  0  0  0  0
   -0.1658  -16.6710    1.5035 C   0  0  0  0  0  0  0  0  0  0  0  0
    0.8524  -16.5416    0.5816 C   0  0  0  0  0  0  0  0  0  0  0  0
    0.2851  -16.5875   -0.6682 C   0  0  0  0  0  0  0  0  0  0  0  0
   -0.3452  -21.3104    2.0256 C   0  0  0  0  0  0  0  0  0  0  0  0
   -3.2480  -14.6778    0.8402 C   0  0  0  0  0  0  0  0  0  0  0  0
   -3.5967  -15.9629    1.4020 C   0  0  0  0  0  0  0  0  0  0  0  0
   -4.8407  -16.2122    1.9365 C   0  0  0  0  0  0  0  0  0  0  0  0
   -5.1807  -17.4364    2.4744 C   0  0  0  0  0  0  0  0  0  0  0  0
   -4.2308  -18.4380    2.4704 C   0  0  0  0  0  0  0  0  0  0  0  0
   -2.9825  -18.1771    1.9304 C   0  0  0  0  0  0  0  0  0  0  0  0
   -2.6414  -16.9505    1.3913 C   0  0  0  0  0  0  0  0  0  0  0  0
   -1.0709  -16.7446   -0.4601 C   0  0  0  0  0  0  0  0  0  0  0  0
   -2.0439  -19.2806    1.9649 C   0  0  0  0  0  0  0  0  0  0  0  0
   -1.2752  -20.2163    1.9900 C   0  0  0  0  0  0  0  0  0  0  0  0
    0.3527  -21.6078    3.1842 C   0  0  0  0  0  0  0  0  0  0  0  0
    1.2617  -22.6703    3.2340 C   0  0  0  0  0  0  0  0  0  0  0  0
    0.7909  -23.1576    0.9660 C   0  0  0  0  0  0  0  0  0  0  0  0
   -1.3370  -16.7946    0.8666 N   0  0  0  0  0  0  0  0  0  0  0  0
   -2.1713  -14.1391    1.2016 O   0  0  0  0  0  0  0  0  0  0  0  0
   -4.0397  -14.0071   -0.0776 O   0  0  0  0  0  0  0  0  0  0  0  0
  6  1  2  0
  1 19  1  0
  2 18  1  0
 19  2  2  0
  3  4  2  0
 20  3  1  0
  5  4  1  0
 14  5  2  0
 16  6  1  0
  6 17  1  0
  8  7  1  0
  7 21  2  0
  7 22  1  0
  8  9  2  0
 13  8  1  0
 10  9  1  0
 11 10  2  0
 12 11  1  0
 12 13  2  0
 15 12  1  0
 13 20  1  0
 20 14  1  0
 15 16  3  0
 17 18  2  0
M  END
$$$$
