
     RDKit          3D

 22 24  0  0  0  0  0  0  0  0999 V2000
   -4.7411  -28.6507   -7.2362 C   0  0  0  0  0  0  0  0  0  0  0  0
   -5.2300  -28.4807   -9.5552 C   0  0  0  0  0  0  0  0  0  0  0  0
   -5.2168  -30.9881   -2.5452 C   0  0  0  0  0  0  0  0  0  0  0  0
   -6.5773  -31.0361   -2.7687 C   0  0  0  0  0  0  0  0  0  0  0  0
   -6.8305  -32.1484   -3.5333 C   0  0  0  0  0  0  0  0  0  0  0  0
   -4.1458  -29.8849   -7.3956 C   0  0  0  0  0  0  0  0  0  0  0  0
   -3.3806  -33.5218   -1.0565 C   0  0  0  0  0  0  0  0  0  0  0  0
   -2.6136  -33.1090   -2.2097 C   0  0  0  0  0  0  0  0  0  0  0  0
   -1.2777  -33.4135   -2.3446 C   0  0  0  0  0  0  0  0  0  0  0  0
   -0.5391  -33.0229   -3.4425 C   0  0  0  0  0  0  0  0  0  0  0  0
   -1.1741  -32.3017   -4.4337 C   0  0  0  0  0  0  0  0  0  0  0  0
   -2.5180  -32.0005   -4.2886 C   0  0  0  0  0  0  0  0  0  0  0  0
   -3.2585  -32.3918   -3.1885 C   0  0  0  0  0  0  0  0  0  0  0  0
   -5.6032  -32.7431   -3.7497 C   0  0  0  0  0  0  0  0  0  0  0  0
   -3.1087  -31.2414   -5.3724 C   0  0  0  0  0  0  0  0  0  0  0  0
   -3.5864  -30.6127   -6.2907 C   0  0  0  0  0  0  0  0  0  0  0  0
   -4.1059  -30.4057   -8.6782 C   0  0  0  0  0  0  0  0  0  0  0  0
   -4.6466  -29.7084   -9.7642 C   0  0  0  0  0  0  0  0  0  0  0  0
   -5.2774  -27.9559   -8.3035 C   0  0  0  0  0  0  0  0  0  0  0  0
   -4.6250  -32.0293   -3.1439 N   0  0  0  0  0  0  0  0  0  0  0  0
   -3.2604  -34.7053   -0.6504 O   0  0  0  0  0  0  0  0  0  0  0  0
   -4.2432  -32.6798   -0.3737 O   0  0  0  0  0  0  0  0  0  0  0  0
  6  1  2  0
  1 19  1  0
  2 18  1  0
 19  2  2  0
  3  4  2  0
 20  3  1  0
  5  4  1  0
 14  5  2  0
 16  6  1  0
  6 17  1  0
  8  7  1  0
  7 21  2  0
  7 22  1  0
  8  9  2  0
 13  8  1  0
 10  9  1  0
 11 10  2  0
 12 11  1  0
 12 13  2  0
 15 12  1  0
 13 20  1  0
 20 14  1  0
 15 16  3  0
 17 18  2  0
M  END
$$$$
