
     RDKit          3D

 22 24  0  0  0  0  0  0  0  0999 V2000
   -3.4123  -19.2142   -0.4194 C   0  0  0  0  0  0  0  0  0  0  0  0
   -2.2418  -18.2397   -2.2431 C   0  0  0  0  0  0  0  0  0  0  0  0
   -3.0282  -20.5635    4.3185 C   0  0  0  0  0  0  0  0  0  0  0  0
   -1.7227  -21.0067    4.2680 C   0  0  0  0  0  0  0  0  0  0  0  0
   -0.9401  -20.0534    4.8721 C   0  0  0  0  0  0  0  0  0  0  0  0
   -3.2507  -18.0865    0.3587 C   0  0  0  0  0  0  0  0  0  0  0  0
   -4.1845  -19.1480    7.5491 C   0  0  0  0  0  0  0  0  0  0  0  0
   -4.7565  -18.4005    6.4524 C   0  0  0  0  0  0  0  0  0  0  0  0
   -5.8379  -17.5658    6.6238 C   0  0  0  0  0  0  0  0  0  0  0  0
   -6.3892  -16.8492    5.5817 C   0  0  0  0  0  0  0  0  0  0  0  0
   -5.8273  -16.9828    4.3279 C   0  0  0  0  0  0  0  0  0  0  0  0
   -4.7398  -17.8249    4.1660 C   0  0  0  0  0  0  0  0  0  0  0  0
   -4.1871  -18.5432    5.2100 C   0  0  0  0  0  0  0  0  0  0  0  0
   -1.8058  -19.0548    5.2724 C   0  0  0  0  0  0  0  0  0  0  0  0
   -4.2097  -17.9089    2.8200 C   0  0  0  0  0  0  0  0  0  0  0  0
   -3.7662  -18.0002    1.6966 C   0  0  0  0  0  0  0  0  0  0  0  0
   -2.5633  -17.0242   -0.2042 C   0  0  0  0  0  0  0  0  0  0  0  0
   -2.0553  -17.0937   -1.5061 C   0  0  0  0  0  0  0  0  0  0  0  0
   -2.9137  -19.2906   -1.7059 C   0  0  0  0  0  0  0  0  0  0  0  0
   -3.0766  -19.3739    4.9310 N   0  0  0  0  0  0  0  0  0  0  0  0
   -3.6232  -20.2442    7.2977 O   0  0  0  0  0  0  0  0  0  0  0  0
   -4.2225  -18.7188    8.8657 O   0  0  0  0  0  0  0  0  0  0  0  0
  6  1  2  0
  1 19  1  0
  2 18  1  0
 19  2  2  0
  3  4  2  0
 20  3  1  0
  5  4  1  0
 14  5  2  0
 16  6  1  0
  6 17  1  0
  8  7  1  0
  7 21  2  0
  7 22  1  0
  8  9  2  0
 13  8  1  0
 10  9  1  0
 11 10  2  0
 12 11  1  0
 12 13  2  0
 15 12  1  0
 13 20  1  0
 20 14  1  0
 15 16  3  0
 17 18  2  0
M  END
$$$$
