
     RDKit          3D

 22 24  0  0  0  0  0  0  0  0999 V2000
   -0.6606  -21.5456    0.9715 C   0  0  0  0  0  0  0  0  0  0  0  0
    0.7454  -23.4492    1.1843 C   0  0  0  0  0  0  0  0  0  0  0  0
   -5.0045  -18.9367    3.0729 C   0  0  0  0  0  0  0  0  0  0  0  0
   -5.4897  -19.5538    1.9384 C   0  0  0  0  0  0  0  0  0  0  0  0
   -4.7597  -19.0889    0.8721 C   0  0  0  0  0  0  0  0  0  0  0  0
   -0.3430  -21.1006    2.2381 C   0  0  0  0  0  0  0  0  0  0  0  0
   -5.0177  -15.7033    3.8885 C   0  0  0  0  0  0  0  0  0  0  0  0
   -3.6527  -16.1070    4.1387 C   0  0  0  0  0  0  0  0  0  0  0  0
   -2.8035  -15.3607    4.9244 C   0  0  0  0  0  0  0  0  0  0  0  0
   -1.4993  -15.7398    5.1676 C   0  0  0  0  0  0  0  0  0  0  0  0
   -1.0424  -16.9108    4.5970 C   0  0  0  0  0  0  0  0  0  0  0  0
   -1.9045  -17.6542    3.8084 C   0  0  0  0  0  0  0  0  0  0  0  0
   -3.2114  -17.2747    3.5644 C   0  0  0  0  0  0  0  0  0  0  0  0
   -3.8478  -18.1971    1.4010 C   0  0  0  0  0  0  0  0  0  0  0  0
   -1.3475  -18.8687    3.2474 C   0  0  0  0  0  0  0  0  0  0  0  0
   -0.8981  -19.8947    2.7867 C   0  0  0  0  0  0  0  0  0  0  0  0
    0.5436  -21.8693    2.9735 C   0  0  0  0  0  0  0  0  0  0  0  0
    1.0925  -23.0462    2.4525 C   0  0  0  0  0  0  0  0  0  0  0  0
   -0.1228  -22.7067    0.4499 C   0  0  0  0  0  0  0  0  0  0  0  0
   -4.0040  -18.1103    2.7431 N   0  0  0  0  0  0  0  0  0  0  0  0
   -5.8185  -15.6691    4.8567 O   0  0  0  0  0  0  0  0  0  0  0  0
   -5.4907  -15.3513    2.6349 O   0  0  0  0  0  0  0  0  0  0  0  0
  6  1  2  0
  1 19  1  0
  2 18  1  0
 19  2  2  0
  3  4  2  0
 20  3  1  0
  5  4  1  0
 14  5  2  0
 16  6  1  0
  6 17  1  0
  8  7  1  0
  7 21  2  0
  7 22  1  0
  8  9  2  0
 13  8  1  0
 10  9  1  0
 11 10  2  0
 12 11  1  0
 12 13  2  0
 15 12  1  0
 13 20  1  0
 20 14  1  0
 15 16  3  0
 17 18  2  0
M  END
$$$$
