
     RDKit          3D

 22 24  0  0  0  0  0  0  0  0999 V2000
  -11.3538  -33.5972    0.6276 C   0  0  0  0  0  0  0  0  0  0  0  0
  -11.8729  -32.1956   -1.2194 C   0  0  0  0  0  0  0  0  0  0  0  0
   -9.4747  -34.8028    4.8008 C   0  0  0  0  0  0  0  0  0  0  0  0
  -10.7814  -35.0789    5.1467 C   0  0  0  0  0  0  0  0  0  0  0  0
  -11.0111  -36.4035    4.8659 C   0  0  0  0  0  0  0  0  0  0  0  0
  -10.0070  -33.5851    0.3293 C   0  0  0  0  0  0  0  0  0  0  0  0
   -6.9235  -37.3059    5.8342 C   0  0  0  0  0  0  0  0  0  0  0  0
   -6.5923  -36.7700    4.5335 C   0  0  0  0  0  0  0  0  0  0  0  0
   -5.3375  -36.9098    3.9847 C   0  0  0  0  0  0  0  0  0  0  0  0
   -5.0141  -36.4009    2.7437 C   0  0  0  0  0  0  0  0  0  0  0  0
   -5.9925  -35.7301    2.0377 C   0  0  0  0  0  0  0  0  0  0  0  0
   -7.2515  -35.5949    2.5986 C   0  0  0  0  0  0  0  0  0  0  0  0
   -7.5759  -36.1046    3.8422 C   0  0  0  0  0  0  0  0  0  0  0  0
   -9.8246  -36.8905    4.3543 C   0  0  0  0  0  0  0  0  0  0  0  0
   -8.2203  -34.8782    1.7937 C   0  0  0  0  0  0  0  0  0  0  0  0
   -9.0420  -34.2966    1.1204 C   0  0  0  0  0  0  0  0  0  0  0  0
   -9.6119  -32.8514   -0.7767 C   0  0  0  0  0  0  0  0  0  0  0  0
  -10.5403  -32.1533   -1.5568 C   0  0  0  0  0  0  0  0  0  0  0  0
  -12.2770  -32.9105   -0.1377 C   0  0  0  0  0  0  0  0  0  0  0  0
   -8.8934  -35.9081    4.3181 N   0  0  0  0  0  0  0  0  0  0  0  0
   -7.6088  -36.5991    6.6157 O   0  0  0  0  0  0  0  0  0  0  0  0
   -6.5243  -38.5603    6.2658 O   0  0  0  0  0  0  0  0  0  0  0  0
  6  1  2  0
  1 19  1  0
  2 18  1  0
 19  2  2  0
  3  4  2  0
 20  3  1  0
  5  4  1  0
 14  5  2  0
 16  6  1  0
  6 17  1  0
  8  7  1  0
  7 21  2  0
  7 22  1  0
  8  9  2  0
 13  8  1  0
 10  9  1  0
 11 10  2  0
 12 11  1  0
 12 13  2  0
 15 12  1  0
 13 20  1  0
 20 14  1  0
 15 16  3  0
 17 18  2  0
M  END
$$$$
