
     RDKit          3D

 21 21  0  0  0  0  0  0  0  0999 V2000
  -40.2624  -18.5718   13.9903 C   0  0  0  0  0  0  0  0  0  0  0  0
  -38.9412  -18.0289   14.3270 C   0  0  2  0  0  0  0  0  0  0  0  0
  -37.7929  -18.7649   13.6844 C   0  0  0  0  0  0  0  0  0  0  0  0
  -36.4902  -18.1277   13.8680 C   0  0  0  0  0  0  0  0  0  0  0  0
  -35.8461  -17.5534   12.7930 C   0  0  0  0  0  0  0  0  0  0  0  0
  -34.5969  -16.9404   12.9569 C   0  0  0  0  0  0  0  0  0  0  0  0
  -32.1486  -17.0310   11.2928 C   0  0  0  0  0  0  0  0  0  0  0  0
  -32.1734  -17.6594    9.9021 C   0  0  2  0  0  0  0  0  0  0  0  0
  -30.8128  -18.1039    9.5075 C   0  0  0  0  0  0  0  0  0  0  0  0
  -33.9974  -16.9065   14.2049 C   0  0  0  0  0  0  0  0  0  0  0  0
  -34.6378  -17.4795   15.2831 C   0  0  0  0  0  0  0  0  0  0  0  0
  -35.8795  -18.0817   15.0882 C   0  0  0  0  0  0  0  0  0  0  0  0
  -38.7504  -17.9054   15.7699 N   0  0  0  0  0  4  0  0  0  0  0  0
  -32.6756  -16.7172    8.9192 N   0  0  0  0  0  4  0  0  0  0  0  0
  -40.6874  -18.5801   12.6833 O   0  0  0  0  0  0  0  0  0  0  0  0
  -40.9965  -19.0235   14.8861 O   0  0  0  0  0  0  0  0  0  0  0  0
  -30.3139  -19.0782   10.1175 O   0  0  0  0  0  0  0  0  0  0  0  0
  -30.0971  -17.4773    8.4994 O   0  0  0  0  0  0  0  0  0  0  0  0
  -32.7483  -16.2943   14.3720 O   0  0  0  0  0  0  0  0  0  0  0  0
  -34.0311  -17.4419   16.5311 O   0  0  0  0  0  0  0  0  0  0  0  0
  -33.7404  -16.1928   11.5991 S   0  0  0  0  0  0  0  0  0  0  0  0
  2  1  1  0
  1 15  1  0
  1 16  2  0
  3  2  1  0
  2 13  1  1
  4  3  1  0
  5  4  2  0
  4 12  1  0
  6  5  1  0
  6 10  2  0
 21  6  1  0
  7  8  1  0
  7 21  1  0
  8  9  1  0
  8 14  1  6
  9 17  2  0
  9 18  1  0
 10 11  1  0
 10 19  1  0
 11 12  2  0
 11 20  1  0
M  CHG  2  13   1  14   1
M  END
$$$$
