
     RDKit          3D

 21 21  0  0  0  0  0  0  0  0999 V2000
  -33.5960  -18.8046   17.5644 C   0  0  0  0  0  0  0  0  0  0  0  0
  -33.1852  -18.8495   16.1562 C   0  0  2  0  0  0  0  0  0  0  0  0
  -33.4965  -17.5917   15.3854 C   0  0  0  0  0  0  0  0  0  0  0  0
  -33.0083  -17.5927   14.0075 C   0  0  0  0  0  0  0  0  0  0  0  0
  -33.9033  -17.5936   12.9591 C   0  0  0  0  0  0  0  0  0  0  0  0
  -33.4469  -17.5952   11.6343 C   0  0  0  0  0  0  0  0  0  0  0  0
  -35.7102  -16.1768   10.3548 C   0  0  0  0  0  0  0  0  0  0  0  0
  -37.0437  -16.5663    9.7226 C   0  0  2  0  0  0  0  0  0  0  0  0
  -38.0275  -15.4630    9.8614 C   0  0  0  0  0  0  0  0  0  0  0  0
  -32.0879  -17.5959   11.3671 C   0  0  0  0  0  0  0  0  0  0  0  0
  -31.1889  -17.5950   12.4124 C   0  0  0  0  0  0  0  0  0  0  0  0
  -31.6738  -17.5934   13.7192 C   0  0  0  0  0  0  0  0  0  0  0  0
  -33.7014  -20.0320   15.4716 N   0  0  0  0  0  4  0  0  0  0  0  0
  -37.5765  -17.7665   10.3404 N   0  0  0  0  0  4  0  0  0  0  0  0
  -34.2851  -19.8603   18.1115 O   0  0  0  0  0  0  0  0  0  0  0  0
  -33.3209  -17.8129   18.2617 O   0  0  0  0  0  0  0  0  0  0  0  0
  -37.8292  -14.4139    9.2052 O   0  0  0  0  0  0  0  0  0  0  0  0
  -39.1380  -15.5660   10.6843 O   0  0  0  0  0  0  0  0  0  0  0  0
  -31.6285  -17.5975   10.0435 O   0  0  0  0  0  0  0  0  0  0  0  0
  -29.8283  -17.5956   12.1373 O   0  0  0  0  0  0  0  0  0  0  0  0
  -34.5671  -17.5964   10.2628 S   0  0  0  0  0  0  0  0  0  0  0  0
  2  1  1  0
  1 15  1  0
  1 16  2  0
  3  2  1  0
  2 13  1  6
  4  3  1  0
  5  4  2  0
  4 12  1  0
  6  5  1  0
  6 10  2  0
 21  6  1  0
  7  8  1  0
  7 21  1  0
  8  9  1  0
  8 14  1  1
  9 17  2  0
  9 18  1  0
 10 11  1  0
 10 19  1  0
 11 12  2  0
 11 20  1  0
M  CHG  2  13   1  14   1
M  END
$$$$
