
     RDKit          3D

 21 21  0  0  0  0  0  0  0  0999 V2000
  -35.2860  -16.5304    9.0224 C   0  0  0  0  0  0  0  0  0  0  0  0
  -34.5332  -17.1898   10.0958 C   0  0  2  0  0  0  0  0  0  0  0  0
  -34.3864  -16.3571   11.3440 C   0  0  0  0  0  0  0  0  0  0  0  0
  -33.6576  -17.0163   12.4262 C   0  0  0  0  0  0  0  0  0  0  0  0
  -34.3345  -17.8009   13.3352 C   0  0  0  0  0  0  0  0  0  0  0  0
  -33.6465  -18.4372   14.3770 C   0  0  0  0  0  0  0  0  0  0  0  0
  -34.0195  -18.9821   17.2641 C   0  0  0  0  0  0  0  0  0  0  0  0
  -35.1020  -18.0767   17.8455 C   0  0  2  0  0  0  0  0  0  0  0  0
  -34.9067  -17.9043   19.3072 C   0  0  0  0  0  0  0  0  0  0  0  0
  -32.2759  -18.2820   14.5018 C   0  0  0  0  0  0  0  0  0  0  0  0
  -31.5945  -17.4983   13.5949 C   0  0  0  0  0  0  0  0  0  0  0  0
  -32.3069  -16.8785   12.5697 C   0  0  0  0  0  0  0  0  0  0  0  0
  -33.2391  -17.6851    9.6338 N   0  0  0  0  0  4  0  0  0  0  0  0
  -36.4221  -18.6266   17.5981 N   0  0  0  0  0  4  0  0  0  0  0  0
  -36.6235  -16.2614    9.1884 O   0  0  0  0  0  0  0  0  0  0  0  0
  -34.7146  -16.2154    7.9642 O   0  0  0  0  0  0  0  0  0  0  0  0
  -35.6784  -18.5199   20.0791 O   0  0  0  0  0  0  0  0  0  0  0  0
  -33.9093  -17.0936   19.8260 O   0  0  0  0  0  0  0  0  0  0  0  0
  -31.5852  -18.9169   15.5424 O   0  0  0  0  0  0  0  0  0  0  0  0
  -30.2208  -17.3472   13.7260 O   0  0  0  0  0  0  0  0  0  0  0  0
  -34.4829  -19.4523   15.5628 S   0  0  0  0  0  0  0  0  0  0  0  0
  2  1  1  0
  1 15  1  0
  1 16  2  0
  3  2  1  0
  2 13  1  6
  4  3  1  0
  5  4  2  0
  4 12  1  0
  6  5  1  0
  6 10  2  0
 21  6  1  0
  7  8  1  0
  7 21  1  0
  8  9  1  0
  8 14  1  1
  9 17  2  0
  9 18  1  0
 10 11  1  0
 10 19  1  0
 11 12  2  0
 11 20  1  0
M  CHG  2  13   1  14   1
M  END
$$$$
