
     RDKit          3D

 21 21  0  0  0  0  0  0  0  0999 V2000
  -19.1489  -35.6140  -16.9053 C   0  0  0  0  0  0  0  0  0  0  0  0
  -18.4825  -34.8637  -15.8345 C   0  0  2  0  0  0  0  0  0  0  0  0
  -19.3778  -33.8796  -15.1252 C   0  0  0  0  0  0  0  0  0  0  0  0
  -18.7684  -33.2418  -13.9596 C   0  0  0  0  0  0  0  0  0  0  0  0
  -18.5806  -33.9619  -12.7992 C   0  0  0  0  0  0  0  0  0  0  0  0
  -17.9981  -33.3609  -11.6755 C   0  0  0  0  0  0  0  0  0  0  0  0
  -16.2082  -35.2414  -10.2501 C   0  0  0  0  0  0  0  0  0  0  0  0
  -16.5699  -36.7162  -10.4043 C   0  0  2  0  0  0  0  0  0  0  0  0
  -15.3493  -37.5305  -10.6307 C   0  0  0  0  0  0  0  0  0  0  0  0
  -17.6050  -32.0336  -11.7222 C   0  0  0  0  0  0  0  0  0  0  0  0
  -17.7909  -31.3093  -12.8805 C   0  0  0  0  0  0  0  0  0  0  0  0
  -18.3730  -31.9352  -13.9814 C   0  0  0  0  0  0  0  0  0  0  0  0
  -17.2529  -34.2245  -16.2958 N   0  0  0  0  0  4  0  0  0  0  0  0
  -17.4889  -36.9090  -11.5108 N   0  0  0  0  0  4  0  0  0  0  0  0
  -20.2807  -36.3432  -16.6296 O   0  0  0  0  0  0  0  0  0  0  0  0
  -18.6903  -35.5899  -18.0606 O   0  0  0  0  0  0  0  0  0  0  0  0
  -15.3142  -38.2659  -11.6448 O   0  0  0  0  0  0  0  0  0  0  0  0
  -14.2695  -37.4956   -9.7624 O   0  0  0  0  0  0  0  0  0  0  0  0
  -17.0223  -31.4298  -10.6002 O   0  0  0  0  0  0  0  0  0  0  0  0
  -17.3946  -29.9795  -12.9203 O   0  0  0  0  0  0  0  0  0  0  0  0
  -17.7413  -34.2547  -10.1685 S   0  0  0  0  0  0  0  0  0  0  0  0
  2  1  1  0
  1 15  1  0
  1 16  2  0
  3  2  1  0
  2 13  1  6
  4  3  1  0
  5  4  2  0
  4 12  1  0
  6  5  1  0
  6 10  2  0
 21  6  1  0
  7  8  1  0
  7 21  1  0
  8  9  1  0
  8 14  1  6
  9 17  2  0
  9 18  1  0
 10 11  1  0
 10 19  1  0
 11 12  2  0
 11 20  1  0
M  CHG  2  13   1  14   1
M  END
$$$$
