
     RDKit          3D

 21 21  0  0  0  0  0  0  0  0999 V2000
  -16.3210  -33.2398   -8.5673 C   0  0  0  0  0  0  0  0  0  0  0  0
  -16.3362  -32.8602   -9.9849 C   0  0  2  0  0  0  0  0  0  0  0  0
  -17.5987  -33.2494  -10.7113 C   0  0  0  0  0  0  0  0  0  0  0  0
  -17.6440  -32.8268  -12.1100 C   0  0  0  0  0  0  0  0  0  0  0  0
  -17.4094  -33.7414  -13.1144 C   0  0  0  0  0  0  0  0  0  0  0  0
  -17.4496  -33.3477  -14.4585 C   0  0  0  0  0  0  0  0  0  0  0  0
  -18.5934  -34.5893  -16.8920 C   0  0  0  0  0  0  0  0  0  0  0  0
  -18.6291  -35.9675  -17.5467 C   0  0  2  0  0  0  0  0  0  0  0  0
  -19.6826  -36.0202  -18.5916 C   0  0  0  0  0  0  0  0  0  0  0  0
  -17.7264  -32.0316  -14.7895 C   0  0  0  0  0  0  0  0  0  0  0  0
  -17.9617  -31.1133  -13.7884 C   0  0  0  0  0  0  0  0  0  0  0  0
  -17.9147  -31.5355  -12.4610 C   0  0  0  0  0  0  0  0  0  0  0  0
  -15.1498  -33.3347  -10.6925 N   0  0  0  0  0  4  0  0  0  0  0  0
  -18.8785  -37.0014  -16.5594 N   0  0  0  0  0  4  0  0  0  0  0  0
  -15.2576  -33.9458   -8.0580 O   0  0  0  0  0  0  0  0  0  0  0  0
  -17.2690  -32.9231   -7.8280 O   0  0  0  0  0  0  0  0  0  0  0  0
  -20.5388  -36.9321  -18.5161 O   0  0  0  0  0  0  0  0  0  0  0  0
  -19.7384  -35.1013  -19.6278 O   0  0  0  0  0  0  0  0  0  0  0  0
  -17.7672  -31.6349  -16.1326 O   0  0  0  0  0  0  0  0  0  0  0  0
  -18.2385  -29.7959  -14.1274 O   0  0  0  0  0  0  0  0  0  0  0  0
  -17.1534  -34.4947  -15.7748 S   0  0  0  0  0  0  0  0  0  0  0  0
  2  1  1  0
  1 15  1  0
  1 16  2  0
  3  2  1  0
  2 13  1  6
  4  3  1  0
  5  4  2  0
  4 12  1  0
  6  5  1  0
  6 10  2  0
 21  6  1  0
  7  8  1  0
  7 21  1  0
  8  9  1  0
  8 14  1  1
  9 17  2  0
  9 18  1  0
 10 11  1  0
 10 19  1  0
 11 12  2  0
 11 20  1  0
M  CHG  2  13   1  14   1
M  END
$$$$
