
     RDKit          3D

 21 21  0  0  0  0  0  0  0  0999 V2000
  -36.2614  -14.4102    8.9720 C   0  0  0  0  0  0  0  0  0  0  0  0
  -35.2054  -14.9014    9.8651 C   0  0  2  0  0  0  0  0  0  0  0  0
  -34.6513  -16.2490    9.4778 C   0  0  0  0  0  0  0  0  0  0  0  0
  -33.5961  -16.7432   10.3605 C   0  0  0  0  0  0  0  0  0  0  0  0
  -33.9036  -17.6199   11.3788 C   0  0  0  0  0  0  0  0  0  0  0  0
  -32.9005  -18.0997   12.2315 C   0  0  0  0  0  0  0  0  0  0  0  0
  -33.0974  -18.4039   15.1709 C   0  0  0  0  0  0  0  0  0  0  0  0
  -34.3858  -18.6049   15.9642 C   0  0  2  0  0  0  0  0  0  0  0  0
  -34.2023  -18.1731   17.3729 C   0  0  0  0  0  0  0  0  0  0  0  0
  -31.5875  -17.6952   12.0570 C   0  0  0  0  0  0  0  0  0  0  0  0
  -31.2751  -16.8185   11.0398 C   0  0  0  0  0  0  0  0  0  0  0  0
  -32.2948  -16.3590   10.2082 C   0  0  0  0  0  0  0  0  0  0  0  0
  -35.6183  -14.8808   11.2660 N   0  0  0  0  0  4  0  0  0  0  0  0
  -34.7965  -19.9965   15.9372 N   0  0  0  0  0  4  0  0  0  0  0  0
  -35.9863  -14.1840    7.6446 O   0  0  0  0  0  0  0  0  0  0  0  0
  -37.4034  -14.1991    9.4156 O   0  0  0  0  0  0  0  0  0  0  0  0
  -35.1289  -18.4066   18.1836 O   0  0  0  0  0  0  0  0  0  0  0  0
  -33.0517  -17.5304   17.8020 O   0  0  0  0  0  0  0  0  0  0  0  0
  -30.5823  -18.1732   12.9079 O   0  0  0  0  0  0  0  0  0  0  0  0
  -29.9569  -16.4173   10.8706 O   0  0  0  0  0  0  0  0  0  0  0  0
  -33.2585  -19.2265   13.5499 S   0  0  0  0  0  0  0  0  0  0  0  0
  2  1  1  0
  1 15  1  0
  1 16  2  0
  3  2  1  0
  2 13  1  1
  4  3  1  0
  5  4  2  0
  4 12  1  0
  6  5  1  0
  6 10  2  0
 21  6  1  0
  7  8  1  0
  7 21  1  0
  8  9  1  0
  8 14  1  1
  9 17  2  0
  9 18  1  0
 10 11  1  0
 10 19  1  0
 11 12  2  0
 11 20  1  0
M  CHG  2  13   1  14   1
M  END
$$$$
