
     RDKit          3D

 21 21  0  0  0  0  0  0  0  0999 V2000
  -33.8743  -18.5963   17.3567 C   0  0  0  0  0  0  0  0  0  0  0  0
  -33.8789  -18.5182   15.8912 C   0  0  2  0  0  0  0  0  0  0  0  0
  -34.8027  -17.4644   15.3353 C   0  0  0  0  0  0  0  0  0  0  0  0
  -34.7429  -17.3160   13.8823 C   0  0  0  0  0  0  0  0  0  0  0  0
  -35.7393  -17.8497   13.0933 C   0  0  0  0  0  0  0  0  0  0  0  0
  -35.6922  -17.7142   11.6995 C   0  0  0  0  0  0  0  0  0  0  0  0
  -38.2133  -17.1256   10.2611 C   0  0  0  0  0  0  0  0  0  0  0  0
  -39.5805  -17.6223   10.7235 C   0  0  2  0  0  0  0  0  0  0  0  0
  -40.6256  -16.6056   10.4436 C   0  0  0  0  0  0  0  0  0  0  0  0
  -34.6401  -17.0406   11.1015 C   0  0  0  0  0  0  0  0  0  0  0  0
  -33.6411  -16.5052   11.8866 C   0  0  0  0  0  0  0  0  0  0  0  0
  -33.7161  -16.6564   13.2700 C   0  0  0  0  0  0  0  0  0  0  0  0
  -34.1255  -19.8186   15.2734 N   0  0  0  0  0  4  0  0  0  0  0  0
  -39.5676  -17.9207   12.1437 N   0  0  0  0  0  4  0  0  0  0  0  0
  -33.6430  -17.4655   18.1028 O   0  0  0  0  0  0  0  0  0  0  0  0
  -34.0794  -19.6840   17.9227 O   0  0  0  0  0  0  0  0  0  0  0  0
  -40.6896  -16.1335    9.2846 O   0  0  0  0  0  0  0  0  0  0  0  0
  -41.5141  -16.1760   11.4168 O   0  0  0  0  0  0  0  0  0  0  0  0
  -34.5901  -16.9036    9.7081 O   0  0  0  0  0  0  0  0  0  0  0  0
  -32.5896  -15.8313   11.2806 O   0  0  0  0  0  0  0  0  0  0  0  0
  -36.9541  -18.3865   10.6547 S   0  0  0  0  0  0  0  0  0  0  0  0
  2  1  1  0
  1 15  1  0
  1 16  2  0
  3  2  1  0
  2 13  1  6
  4  3  1  0
  5  4  2  0
  4 12  1  0
  6  5  1  0
  6 10  2  0
 21  6  1  0
  7  8  1  0
  7 21  1  0
  8  9  1  0
  8 14  1  1
  9 17  2  0
  9 18  1  0
 10 11  1  0
 10 19  1  0
 11 12  2  0
 11 20  1  0
M  CHG  2  13   1  14   1
M  END
$$$$
