
     RDKit          3D

 21 21  0  0  0  0  0  0  0  0999 V2000
  -14.6509  -37.1846   -9.4963 C   0  0  0  0  0  0  0  0  0  0  0  0
  -15.1459  -35.9747  -10.1633 C   0  0  2  0  0  0  0  0  0  0  0  0
  -16.4817  -35.4956   -9.6541 C   0  0  0  0  0  0  0  0  0  0  0  0
  -16.9999  -34.3138  -10.3408 C   0  0  0  0  0  0  0  0  0  0  0  0
  -17.9264  -34.4548  -11.3517 C   0  0  0  0  0  0  0  0  0  0  0  0
  -18.4297  -33.3292  -12.0174 C   0  0  0  0  0  0  0  0  0  0  0  0
  -19.0114  -32.6815  -14.8482 C   0  0  0  0  0  0  0  0  0  0  0  0
  -18.3148  -33.7303  -15.7110 C   0  0  2  0  0  0  0  0  0  0  0  0
  -18.1037  -33.2153  -17.0874 C   0  0  0  0  0  0  0  0  0  0  0  0
  -17.9985  -32.0615  -11.6634 C   0  0  0  0  0  0  0  0  0  0  0  0
  -17.0719  -31.9155  -10.6529 C   0  0  0  0  0  0  0  0  0  0  0  0
  -16.5901  -33.0542  -10.0097 C   0  0  0  0  0  0  0  0  0  0  0  0
  -15.1517  -36.1133  -11.6173 N   0  0  0  0  0  4  0  0  0  0  0  0
  -19.0958  -34.9520  -15.7690 N   0  0  0  0  0  4  0  0  0  0  0  0
  -14.3827  -38.3129  -10.2336 O   0  0  0  0  0  0  0  0  0  0  0  0
  -14.4745  -37.1889   -8.2657 O   0  0  0  0  0  0  0  0  0  0  0  0
  -18.8929  -33.5951  -17.9836 O   0  0  0  0  0  0  0  0  0  0  0  0
  -17.0734  -32.3411  -17.3963 O   0  0  0  0  0  0  0  0  0  0  0  0
  -18.4998  -30.9341  -12.3272 O   0  0  0  0  0  0  0  0  0  0  0  0
  -16.6442  -30.6420  -10.3033 O   0  0  0  0  0  0  0  0  0  0  0  0
  -19.6204  -33.4721  -13.3203 S   0  0  0  0  0  0  0  0  0  0  0  0
  2  1  1  0
  1 15  1  0
  1 16  2  0
  3  2  1  0
  2 13  1  6
  4  3  1  0
  5  4  2  0
  4 12  1  0
  6  5  1  0
  6 10  2  0
 21  6  1  0
  7  8  1  0
  7 21  1  0
  8  9  1  0
  8 14  1  6
  9 17  2  0
  9 18  1  0
 10 11  1  0
 10 19  1  0
 11 12  2  0
 11 20  1  0
M  CHG  2  13   1  14   1
M  END
$$$$
