
     RDKit          3D

 21 21  0  0  0  0  0  0  0  0999 V2000
  -35.1343  -18.8452   16.7981 C   0  0  0  0  0  0  0  0  0  0  0  0
  -35.3077  -17.9737   15.6300 C   0  0  2  0  0  0  0  0  0  0  0  0
  -34.1403  -17.9861   14.6760 C   0  0  0  0  0  0  0  0  0  0  0  0
  -34.3598  -17.2289   13.4450 C   0  0  0  0  0  0  0  0  0  0  0  0
  -34.9766  -17.8282   12.3678 C   0  0  0  0  0  0  0  0  0  0  0  0
  -35.1917  -17.1124   11.1825 C   0  0  0  0  0  0  0  0  0  0  0  0
  -37.4773  -16.9169    9.3092 C   0  0  0  0  0  0  0  0  0  0  0  0
  -38.7125  -17.7326    9.6814 C   0  0  2  0  0  0  0  0  0  0  0  0
  -39.9499  -16.9657    9.3898 C   0  0  0  0  0  0  0  0  0  0  0  0
  -34.7846  -15.7923   11.0839 C   0  0  0  0  0  0  0  0  0  0  0  0
  -34.1673  -15.1885   12.1588 C   0  0  0  0  0  0  0  0  0  0  0  0
  -33.9675  -15.9267   13.3240 C   0  0  0  0  0  0  0  0  0  0  0  0
  -35.6661  -16.6101   16.0114 N   0  0  0  0  0  4  0  0  0  0  0  0
  -38.6891  -18.0917   11.0873 N   0  0  0  0  0  4  0  0  0  0  0  0
  -34.7665  -20.1581   16.6253 O   0  0  0  0  0  0  0  0  0  0  0  0
  -35.3199  -18.3965   17.9425 O   0  0  0  0  0  0  0  0  0  0  0  0
  -40.9527  -17.1728   10.1122 O   0  0  0  0  0  0  0  0  0  0  0  0
  -40.0187  -16.0443    8.3566 O   0  0  0  0  0  0  0  0  0  0  0  0
  -34.9983  -15.0739    9.9002 O   0  0  0  0  0  0  0  0  0  0  0  0
  -33.7619  -13.8651   12.0530 O   0  0  0  0  0  0  0  0  0  0  0  0
  -35.9806  -17.8495    9.7789 S   0  0  0  0  0  0  0  0  0  0  0  0
  2  1  1  0
  1 15  1  0
  1 16  2  0
  3  2  1  0
  2 13  1  1
  4  3  1  0
  5  4  2  0
  4 12  1  0
  6  5  1  0
  6 10  2  0
 21  6  1  0
  7  8  1  0
  7 21  1  0
  8  9  1  0
  8 14  1  1
  9 17  2  0
  9 18  1  0
 10 11  1  0
 10 19  1  0
 11 12  2  0
 11 20  1  0
M  CHG  2  13   1  14   1
M  END
$$$$
