
     RDKit          3D

 21 21  0  0  0  0  0  0  0  0999 V2000
  -30.3670  -18.1403    8.0917 C   0  0  0  0  0  0  0  0  0  0  0  0
  -30.9187  -18.2473    9.4474 C   0  0  2  0  0  0  0  0  0  0  0  0
  -31.3171  -16.9259   10.0543 C   0  0  0  0  0  0  0  0  0  0  0  0
  -31.9784  -17.0342   11.3535 C   0  0  0  0  0  0  0  0  0  0  0  0
  -33.3465  -17.1898   11.4198 C   0  0  0  0  0  0  0  0  0  0  0  0
  -33.9913  -17.2941   12.6594 C   0  0  0  0  0  0  0  0  0  0  0  0
  -36.1712  -18.7505   14.0372 C   0  0  0  0  0  0  0  0  0  0  0  0
  -37.5428  -18.4277   14.6238 C   0  0  2  0  0  0  0  0  0  0  0  0
  -38.0124  -19.5377   15.4909 C   0  0  0  0  0  0  0  0  0  0  0  0
  -33.2563  -17.2414   13.8321 C   0  0  0  0  0  0  0  0  0  0  0  0
  -31.8877  -17.0858   13.7708 C   0  0  0  0  0  0  0  0  0  0  0  0
  -31.2754  -16.9850   12.5228 C   0  0  0  0  0  0  0  0  0  0  0  0
  -30.0386  -18.9967   10.3403 N   0  0  0  0  0  4  0  0  0  0  0  0
  -38.5134  -18.1969   13.5699 N   0  0  0  0  0  4  0  0  0  0  0  0
  -29.2570  -18.8719    7.7435 O   0  0  0  0  0  0  0  0  0  0  0  0
  -30.9031  -17.3887    7.2591 O   0  0  0  0  0  0  0  0  0  0  0  0
  -38.6834  -20.4534   14.9602 O   0  0  0  0  0  0  0  0  0  0  0  0
  -37.7303  -19.5822   16.8473 O   0  0  0  0  0  0  0  0  0  0  0  0
  -33.8981  -17.3453   15.0731 O   0  0  0  0  0  0  0  0  0  0  0  0
  -31.1572  -17.0338   14.9501 O   0  0  0  0  0  0  0  0  0  0  0  0
  -35.7464  -17.4947   12.7829 S   0  0  0  0  0  0  0  0  0  0  0  0
  2  1  1  0
  1 15  1  0
  1 16  2  0
  3  2  1  0
  2 13  1  1
  4  3  1  0
  5  4  2  0
  4 12  1  0
  6  5  1  0
  6 10  2  0
 21  6  1  0
  7  8  1  0
  7 21  1  0
  8  9  1  0
  8 14  1  6
  9 17  2  0
  9 18  1  0
 10 11  1  0
 10 19  1  0
 11 12  2  0
 11 20  1  0
M  CHG  2  13   1  14   1
M  END
$$$$
