
     RDKit          3D

 21 21  0  0  0  0  0  0  0  0999 V2000
  -38.3512  -16.4981    9.5801 C   0  0  0  0  0  0  0  0  0  0  0  0
  -37.1521  -16.9494   10.2959 C   0  0  2  0  0  0  0  0  0  0  0  0
  -35.8688  -16.7517    9.5297 C   0  0  0  0  0  0  0  0  0  0  0  0
  -34.6607  -17.0913   10.2794 C   0  0  0  0  0  0  0  0  0  0  0  0
  -34.5877  -16.8198   11.6289 C   0  0  0  0  0  0  0  0  0  0  0  0
  -33.4346  -17.1404   12.3576 C   0  0  0  0  0  0  0  0  0  0  0  0
  -32.2931  -18.0756   14.9254 C   0  0  0  0  0  0  0  0  0  0  0  0
  -32.8797  -18.3561   16.3063 C   0  0  2  0  0  0  0  0  0  0  0  0
  -32.0012  -19.2800   17.0671 C   0  0  0  0  0  0  0  0  0  0  0  0
  -32.3553  -17.7347   11.7252 C   0  0  0  0  0  0  0  0  0  0  0  0
  -32.4236  -18.0082   10.3755 C   0  0  0  0  0  0  0  0  0  0  0  0
  -33.5842  -17.6775    9.6781 C   0  0  0  0  0  0  0  0  0  0  0  0
  -37.2807  -18.3256   10.7683 N   0  0  0  0  0  4  0  0  0  0  0  0
  -34.2058  -18.9352   16.1955 N   0  0  0  0  0  4  0  0  0  0  0  0
  -38.4249  -15.2083    9.1114 O   0  0  0  0  0  0  0  0  0  0  0  0
  -39.2992  -17.2814    9.3981 O   0  0  0  0  0  0  0  0  0  0  0  0
  -32.5282  -20.2822   17.6039 O   0  0  0  0  0  0  0  0  0  0  0  0
  -30.6382  -19.0625   17.1940 O   0  0  0  0  0  0  0  0  0  0  0  0
  -31.2009  -18.0564   12.4510 O   0  0  0  0  0  0  0  0  0  0  0  0
  -31.3381  -18.6041    9.7481 O   0  0  0  0  0  0  0  0  0  0  0  0
  -33.3053  -16.8064   14.0918 S   0  0  0  0  0  0  0  0  0  0  0  0
  2  1  1  0
  1 15  1  0
  1 16  2  0
  3  2  1  0
  2 13  1  6
  4  3  1  0
  5  4  2  0
  4 12  1  0
  6  5  1  0
  6 10  2  0
 21  6  1  0
  7  8  1  0
  7 21  1  0
  8  9  1  0
  8 14  1  6
  9 17  2  0
  9 18  1  0
 10 11  1  0
 10 19  1  0
 11 12  2  0
 11 20  1  0
M  CHG  2  13   1  14   1
M  END
$$$$
