
     RDKit          3D

 21 21  0  0  0  0  0  0  0  0999 V2000
  -16.7159  -33.0104   -7.8896 C   0  0  0  0  0  0  0  0  0  0  0  0
  -17.3985  -32.6146   -9.1270 C   0  0  2  0  0  0  0  0  0  0  0  0
  -16.4766  -32.4352  -10.3064 C   0  0  0  0  0  0  0  0  0  0  0  0
  -17.1483  -32.0331  -11.5409 C   0  0  0  0  0  0  0  0  0  0  0  0
  -17.7309  -32.9849  -12.3502 C   0  0  0  0  0  0  0  0  0  0  0  0
  -18.3770  -32.6113  -13.5361 C   0  0  0  0  0  0  0  0  0  0  0  0
  -18.6008  -33.5717  -16.3287 C   0  0  0  0  0  0  0  0  0  0  0  0
  -18.1427  -34.9123  -16.8968 C   0  0  2  0  0  0  0  0  0  0  0  0
  -18.0185  -34.8363  -18.3744 C   0  0  0  0  0  0  0  0  0  0  0  0
  -18.4354  -31.2778  -13.9056 C   0  0  0  0  0  0  0  0  0  0  0  0
  -17.8542  -30.3222  -13.0994 C   0  0  0  0  0  0  0  0  0  0  0  0
  -17.2189  -30.7252  -11.9261 C   0  0  0  0  0  0  0  0  0  0  0  0
  -18.2470  -31.4415   -8.9343 N   0  0  0  0  0  4  0  0  0  0  0  0
  -19.0756  -35.9671  -16.5460 N   0  0  0  0  0  4  0  0  0  0  0  0
  -16.0012  -34.1834   -7.8459 O   0  0  0  0  0  0  0  0  0  0  0  0
  -16.7840  -32.2854   -6.8820 O   0  0  0  0  0  0  0  0  0  0  0  0
  -18.8480  -35.4715  -19.0664 O   0  0  0  0  0  0  0  0  0  0  0  0
  -17.0251  -34.0931  -18.9924 O   0  0  0  0  0  0  0  0  0  0  0  0
  -19.0807  -30.9011  -15.0908 O   0  0  0  0  0  0  0  0  0  0  0  0
  -17.9166  -28.9875  -13.4759 O   0  0  0  0  0  0  0  0  0  0  0  0
  -19.1362  -33.8061  -14.5999 S   0  0  0  0  0  0  0  0  0  0  0  0
  2  1  1  0
  1 15  1  0
  1 16  2  0
  3  2  1  0
  2 13  1  1
  4  3  1  0
  5  4  2  0
  4 12  1  0
  6  5  1  0
  6 10  2  0
 21  6  1  0
  7  8  1  0
  7 21  1  0
  8  9  1  0
  8 14  1  6
  9 17  2  0
  9 18  1  0
 10 11  1  0
 10 19  1  0
 11 12  2  0
 11 20  1  0
M  CHG  2  13   1  14   1
M  END
$$$$
