
     RDKit          3D

 21 21  0  0  0  0  0  0  0  0999 V2000
  -19.1564  -36.6730  -20.5449 C   0  0  0  0  0  0  0  0  0  0  0  0
  -19.2289  -36.1480  -19.1763 C   0  0  2  0  0  0  0  0  0  0  0  0
  -17.9073  -35.6686  -18.6318 C   0  0  0  0  0  0  0  0  0  0  0  0
  -17.9852  -35.0709  -17.3000 C   0  0  0  0  0  0  0  0  0  0  0  0
  -18.0525  -35.8785  -16.1849 C   0  0  0  0  0  0  0  0  0  0  0  0
  -18.1282  -35.3168  -14.9034 C   0  0  0  0  0  0  0  0  0  0  0  0
  -17.3232  -35.5413  -12.0621 C   0  0  0  0  0  0  0  0  0  0  0  0
  -16.4425  -36.5859  -11.3817 C   0  0  2  0  0  0  0  0  0  0  0  0
  -15.4081  -35.9285  -10.5437 C   0  0  0  0  0  0  0  0  0  0  0  0
  -18.1359  -33.9407  -14.7468 C   0  0  0  0  0  0  0  0  0  0  0  0
  -18.0687  -33.1289  -15.8592 C   0  0  0  0  0  0  0  0  0  0  0  0
  -17.9944  -33.7175  -17.1204 C   0  0  0  0  0  0  0  0  0  0  0  0
  -19.8694  -37.0890  -18.2610 N   0  0  0  0  0  4  0  0  0  0  0  0
  -15.7965  -37.4355  -12.3650 N   0  0  0  0  0  4  0  0  0  0  0  0
  -18.5315  -35.9427  -21.5272 O   0  0  0  0  0  0  0  0  0  0  0  0
  -19.6597  -37.7771  -20.8154 O   0  0  0  0  0  0  0  0  0  0  0  0
  -15.7609  -34.9648   -9.8246 O   0  0  0  0  0  0  0  0  0  0  0  0
  -14.0874  -36.3491  -10.5397 O   0  0  0  0  0  0  0  0  0  0  0  0
  -18.2115  -33.3761  -13.4668 O   0  0  0  0  0  0  0  0  0  0  0  0
  -18.0769  -31.7505  -15.6948 O   0  0  0  0  0  0  0  0  0  0  0  0
  -18.2159  -36.3228  -13.4487 S   0  0  0  0  0  0  0  0  0  0  0  0
  2  1  1  0
  1 15  1  0
  1 16  2  0
  3  2  1  0
  2 13  1  1
  4  3  1  0
  5  4  2  0
  4 12  1  0
  6  5  1  0
  6 10  2  0
 21  6  1  0
  7  8  1  0
  7 21  1  0
  8  9  1  0
  8 14  1  6
  9 17  2  0
  9 18  1  0
 10 11  1  0
 10 19  1  0
 11 12  2  0
 11 20  1  0
M  CHG  2  13   1  14   1
M  END
$$$$
