
     RDKit          3D

 21 21  0  0  0  0  0  0  0  0999 V2000
  -33.9655  -18.7900   17.5171 C   0  0  0  0  0  0  0  0  0  0  0  0
  -34.0466  -18.6441   16.0590 C   0  0  2  0  0  0  0  0  0  0  0  0
  -34.6689  -17.3480   15.6052 C   0  0  0  0  0  0  0  0  0  0  0  0
  -34.6800  -17.1596   14.1557 C   0  0  0  0  0  0  0  0  0  0  0  0
  -35.6966  -17.7006   13.3980 C   0  0  0  0  0  0  0  0  0  0  0  0
  -35.7173  -17.5271   12.0077 C   0  0  0  0  0  0  0  0  0  0  0  0
  -37.8624  -16.8956   10.0657 C   0  0  0  0  0  0  0  0  0  0  0  0
  -39.3673  -17.1452   10.1156 C   0  0  2  0  0  0  0  0  0  0  0  0
  -40.1116  -15.9109    9.7594 C   0  0  0  0  0  0  0  0  0  0  0  0
  -34.7127  -16.8080   11.3818 C   0  0  0  0  0  0  0  0  0  0  0  0
  -33.6938  -16.2650   12.1354 C   0  0  0  0  0  0  0  0  0  0  0  0
  -33.7010  -16.4549   13.5162 C   0  0  0  0  0  0  0  0  0  0  0  0
  -34.6930  -19.7919   15.4280 N   0  0  0  0  0  4  0  0  0  0  0  0
  -39.7733  -17.5874   11.4368 N   0  0  0  0  0  4  0  0  0  0  0  0
  -34.3672  -19.9619   18.1122 O   0  0  0  0  0  0  0  0  0  0  0  0
  -33.5341  -17.8547   18.2131 O   0  0  0  0  0  0  0  0  0  0  0  0
  -41.0599  -15.5628   10.5010 O   0  0  0  0  0  0  0  0  0  0  0  0
  -39.7869  -15.1506    8.6469 O   0  0  0  0  0  0  0  0  0  0  0  0
  -34.7306  -16.6327    9.9918 O   0  0  0  0  0  0  0  0  0  0  0  0
  -32.6901  -15.5455   11.5015 O   0  0  0  0  0  0  0  0  0  0  0  0
  -37.0070  -18.2074   11.0028 S   0  0  0  0  0  0  0  0  0  0  0  0
  2  1  1  0
  1 15  1  0
  1 16  2  0
  3  2  1  0
  2 13  1  1
  4  3  1  0
  5  4  2  0
  4 12  1  0
  6  5  1  0
  6 10  2  0
 21  6  1  0
  7  8  1  0
  7 21  1  0
  8  9  1  0
  8 14  1  1
  9 17  2  0
  9 18  1  0
 10 11  1  0
 10 19  1  0
 11 12  2  0
 11 20  1  0
M  CHG  2  13   1  14   1
M  END
$$$$
