
     RDKit          3D

 21 21  0  0  0  0  0  0  0  0999 V2000
  -38.0465  -17.7348   14.3357 C   0  0  0  0  0  0  0  0  0  0  0  0
  -36.6814  -17.4000   13.9135 C   0  0  2  0  0  0  0  0  0  0  0  0
  -35.6749  -18.4939   14.1658 C   0  0  0  0  0  0  0  0  0  0  0  0
  -34.3178  -18.1780   13.7239 C   0  0  0  0  0  0  0  0  0  0  0  0
  -34.0829  -17.8367   12.4091 C   0  0  0  0  0  0  0  0  0  0  0  0
  -32.7862  -17.5326   11.9740 C   0  0  0  0  0  0  0  0  0  0  0  0
  -30.7796  -17.6429    9.7984 C   0  0  0  0  0  0  0  0  0  0  0  0
  -30.8444  -19.1061    9.3689 C   0  0  2  0  0  0  0  0  0  0  0  0
  -29.5893  -19.5029    8.6820 C   0  0  0  0  0  0  0  0  0  0  0  0
  -31.7265  -17.5727   12.8649 C   0  0  0  0  0  0  0  0  0  0  0  0
  -31.9566  -17.9135   14.1809 C   0  0  0  0  0  0  0  0  0  0  0  0
  -33.2575  -18.2107   14.5833 C   0  0  0  0  0  0  0  0  0  0  0  0
  -36.2315  -16.1271   14.4708 N   0  0  0  0  0  4  0  0  0  0  0  0
  -31.9707  -19.3341    8.4826 N   0  0  0  0  0  4  0  0  0  0  0  0
  -38.6927  -16.9445   15.2558 O   0  0  0  0  0  0  0  0  0  0  0  0
  -38.6177  -18.7321   13.8617 O   0  0  0  0  0  0  0  0  0  0  0  0
  -29.6266  -19.6669    7.4402 O   0  0  0  0  0  0  0  0  0  0  0  0
  -28.4014  -19.6919    9.3706 O   0  0  0  0  0  0  0  0  0  0  0  0
  -30.4288  -17.2692   12.4328 O   0  0  0  0  0  0  0  0  0  0  0  0
  -30.8899  -17.9517   15.0684 O   0  0  0  0  0  0  0  0  0  0  0  0
  -32.4470  -17.0902   10.2932 S   0  0  0  0  0  0  0  0  0  0  0  0
  2  1  1  0
  1 15  1  0
  1 16  2  0
  3  2  1  0
  2 13  1  1
  4  3  1  0
  5  4  2  0
  4 12  1  0
  6  5  1  0
  6 10  2  0
 21  6  1  0
  7  8  1  0
  7 21  1  0
  8  9  1  0
  8 14  1  6
  9 17  2  0
  9 18  1  0
 10 11  1  0
 10 19  1  0
 11 12  2  0
 11 20  1  0
M  CHG  2  13   1  14   1
M  END
$$$$
