
     RDKit          3D

 21 21  0  0  0  0  0  0  0  0999 V2000
  -17.8625  -38.8927  -13.3984 C   0  0  0  0  0  0  0  0  0  0  0  0
  -18.0187  -37.4382  -13.2806 C   0  0  2  0  0  0  0  0  0  0  0  0
  -16.7191  -36.6753  -13.3274 C   0  0  0  0  0  0  0  0  0  0  0  0
  -16.8706  -35.2225  -13.2691 C   0  0  0  0  0  0  0  0  0  0  0  0
  -16.6034  -34.5481  -12.0969 C   0  0  0  0  0  0  0  0  0  0  0  0
  -16.7456  -33.1558  -12.0290 C   0  0  0  0  0  0  0  0  0  0  0  0
  -17.3274  -30.6782  -10.5142 C   0  0  0  0  0  0  0  0  0  0  0  0
  -18.6526  -30.8810   -9.7845 C   0  0  2  0  0  0  0  0  0  0  0  0
  -19.2411  -29.5729   -9.4012 C   0  0  0  0  0  0  0  0  0  0  0  0
  -17.1574  -32.4439  -13.1433 C   0  0  0  0  0  0  0  0  0  0  0  0
  -17.4258  -33.1140  -14.3180 C   0  0  0  0  0  0  0  0  0  0  0  0
  -17.2750  -34.4991  -14.3540 C   0  0  0  0  0  0  0  0  0  0  0  0
  -18.8109  -37.0644  -12.1117 N   0  0  0  0  0  4  0  0  0  0  0  0
  -18.4679  -31.6924   -8.5956 N   0  0  0  0  0  4  0  0  0  0  0  0
  -17.6620  -39.6541  -12.2720 O   0  0  0  0  0  0  0  0  0  0  0  0
  -17.9116  -39.4355  -14.5157 O   0  0  0  0  0  0  0  0  0  0  0  0
  -19.1999  -29.2423   -8.1931 O   0  0  0  0  0  0  0  0  0  0  0  0
  -19.8234  -28.7266  -10.3317 O   0  0  0  0  0  0  0  0  0  0  0  0
  -17.3006  -31.0516  -13.0786 O   0  0  0  0  0  0  0  0  0  0  0  0
  -17.8381  -32.3941  -15.4310 O   0  0  0  0  0  0  0  0  0  0  0  0
  -16.4113  -32.2564  -10.5407 S   0  0  0  0  0  0  0  0  0  0  0  0
  2  1  1  0
  1 15  1  0
  1 16  2  0
  3  2  1  0
  2 13  1  1
  4  3  1  0
  5  4  2  0
  4 12  1  0
  6  5  1  0
  6 10  2  0
 21  6  1  0
  7  8  1  0
  7 21  1  0
  8  9  1  0
  8 14  1  1
  9 17  2  0
  9 18  1  0
 10 11  1  0
 10 19  1  0
 11 12  2  0
 11 20  1  0
M  CHG  2  13   1  14   1
M  END
$$$$
