
     RDKit          3D

 21 21  0  0  0  0  0  0  0  0999 V2000
  -38.3611  -17.7756   15.0538 C   0  0  0  0  0  0  0  0  0  0  0  0
  -36.9744  -17.4463   14.7037 C   0  0  2  0  0  0  0  0  0  0  0  0
  -36.0192  -18.6068   14.8211 C   0  0  0  0  0  0  0  0  0  0  0  0
  -34.6660  -18.3242   14.3462 C   0  0  0  0  0  0  0  0  0  0  0  0
  -34.4402  -18.0914   13.0064 C   0  0  0  0  0  0  0  0  0  0  0  0
  -33.1472  -17.8201   12.5395 C   0  0  0  0  0  0  0  0  0  0  0  0
  -31.1036  -17.9687   10.4011 C   0  0  0  0  0  0  0  0  0  0  0  0
  -30.8261  -17.5745    8.9529 C   0  0  2  0  0  0  0  0  0  0  0  0
  -29.8348  -18.4966    8.3433 C   0  0  0  0  0  0  0  0  0  0  0  0
  -32.0821  -17.7835   13.4240 C   0  0  0  0  0  0  0  0  0  0  0  0
  -32.3030  -18.0157   14.7650 C   0  0  0  0  0  0  0  0  0  0  0  0
  -33.6003  -18.2828   15.1987 C   0  0  0  0  0  0  0  0  0  0  0  0
  -36.4855  -16.2812   15.4365 N   0  0  0  0  0  4  0  0  0  0  0  0
  -30.3286  -16.2135    8.8750 N   0  0  0  0  0  4  0  0  0  0  0  0
  -39.0437  -18.7246   14.3313 O   0  0  0  0  0  0  0  0  0  0  0  0
  -38.9176  -17.1968   16.0029 O   0  0  0  0  0  0  0  0  0  0  0  0
  -30.1893  -19.6786    8.1255 O   0  0  0  0  0  0  0  0  0  0  0  0
  -28.5517  -18.0866    8.0166 O   0  0  0  0  0  0  0  0  0  0  0  0
  -30.7881  -17.5125   12.9603 O   0  0  0  0  0  0  0  0  0  0  0  0
  -31.2308  -17.9775   15.6459 O   0  0  0  0  0  0  0  0  0  0  0  0
  -32.8198  -17.5163   10.8259 S   0  0  0  0  0  0  0  0  0  0  0  0
  2  1  1  0
  1 15  1  0
  1 16  2  0
  3  2  1  0
  2 13  1  1
  4  3  1  0
  5  4  2  0
  4 12  1  0
  6  5  1  0
  6 10  2  0
 21  6  1  0
  7  8  1  0
  7 21  1  0
  8  9  1  0
  8 14  1  1
  9 17  2  0
  9 18  1  0
 10 11  1  0
 10 19  1  0
 11 12  2  0
 11 20  1  0
M  CHG  2  13   1  14   1
M  END
$$$$
