
     RDKit          3D

 21 21  0  0  0  0  0  0  0  0999 V2000
  -34.5735  -15.7331    8.5517 C   0  0  0  0  0  0  0  0  0  0  0  0
  -33.9548  -15.8494    9.8774 C   0  0  2  0  0  0  0  0  0  0  0  0
  -33.9252  -17.2558   10.4200 C   0  0  0  0  0  0  0  0  0  0  0  0
  -33.2784  -17.3851   11.7245 C   0  0  0  0  0  0  0  0  0  0  0  0
  -33.9852  -17.1074   12.8749 C   0  0  0  0  0  0  0  0  0  0  0  0
  -33.3755  -17.2273   14.1308 C   0  0  0  0  0  0  0  0  0  0  0  0
  -34.3320  -18.3579   16.6956 C   0  0  0  0  0  0  0  0  0  0  0  0
  -35.7466  -18.4985   17.2514 C   0  0  2  0  0  0  0  0  0  0  0  0
  -35.7543  -19.3965   18.4338 C   0  0  0  0  0  0  0  0  0  0  0  0
  -32.0530  -17.6272   14.2263 C   0  0  0  0  0  0  0  0  0  0  0  0
  -31.3420  -17.9062   13.0784 C   0  0  0  0  0  0  0  0  0  0  0  0
  -31.9762  -17.7776   11.8440 C   0  0  0  0  0  0  0  0  0  0  0  0
  -34.5429  -14.9221   10.8405 N   0  0  0  0  0  4  0  0  0  0  0  0
  -36.6475  -19.0238   16.2423 N   0  0  0  0  0  4  0  0  0  0  0  0
  -35.4907  -14.7391    8.3081 O   0  0  0  0  0  0  0  0  0  0  0  0
  -34.2682  -16.5327    7.6501 O   0  0  0  0  0  0  0  0  0  0  0  0
  -36.8471  -19.9041   18.7779 O   0  0  0  0  0  0  0  0  0  0  0  0
  -34.6024  -19.6798   19.1506 O   0  0  0  0  0  0  0  0  0  0  0  0
  -31.4406  -17.7480   15.4806 O   0  0  0  0  0  0  0  0  0  0  0  0
  -30.0168  -18.3066   13.1815 O   0  0  0  0  0  0  0  0  0  0  0  0
  -34.2523  -16.8790   15.6294 S   0  0  0  0  0  0  0  0  0  0  0  0
  2  1  1  0
  1 15  1  0
  1 16  2  0
  3  2  1  0
  2 13  1  1
  4  3  1  0
  5  4  2  0
  4 12  1  0
  6  5  1  0
  6 10  2  0
 21  6  1  0
  7  8  1  0
  7 21  1  0
  8  9  1  0
  8 14  1  6
  9 17  2  0
  9 18  1  0
 10 11  1  0
 10 19  1  0
 11 12  2  0
 11 20  1  0
M  CHG  2  13   1  14   1
M  END
$$$$
