
     RDKit          3D

 21 21  0  0  0  0  0  0  0  0999 V2000
  -18.9448  -36.2233  -17.6388 C   0  0  0  0  0  0  0  0  0  0  0  0
  -19.0496  -35.1116  -16.6864 C   0  0  2  0  0  0  0  0  0  0  0  0
  -17.7224  -34.6245  -16.1627 C   0  0  0  0  0  0  0  0  0  0  0  0
  -17.8173  -33.5034  -15.2295 C   0  0  0  0  0  0  0  0  0  0  0  0
  -17.8621  -33.7384  -13.8719 C   0  0  0  0  0  0  0  0  0  0  0  0
  -17.9537  -32.6717  -12.9680 C   0  0  0  0  0  0  0  0  0  0  0  0
  -16.4743  -33.7169  -10.6248 C   0  0  0  0  0  0  0  0  0  0  0  0
  -15.6327  -32.6735   -9.8949 C   0  0  2  0  0  0  0  0  0  0  0  0
  -14.5809  -33.3314   -9.0792 C   0  0  0  0  0  0  0  0  0  0  0  0
  -18.0003  -31.3680  -13.4334 C   0  0  0  0  0  0  0  0  0  0  0  0
  -17.9558  -31.1280  -14.7903 C   0  0  0  0  0  0  0  0  0  0  0  0
  -17.8646  -32.2100  -15.6642 C   0  0  0  0  0  0  0  0  0  0  0  0
  -19.9731  -35.4096  -15.5948 N   0  0  0  0  0  4  0  0  0  0  0  0
  -16.4631  -31.8500   -9.0357 N   0  0  0  0  0  4  0  0  0  0  0  0
  -18.1771  -36.0865  -18.7704 O   0  0  0  0  0  0  0  0  0  0  0  0
  -19.5498  -37.2875  -17.4222 O   0  0  0  0  0  0  0  0  0  0  0  0
  -14.5912  -33.1373   -7.8412 O   0  0  0  0  0  0  0  0  0  0  0  0
  -13.6074  -34.1391   -9.6459 O   0  0  0  0  0  0  0  0  0  0  0  0
  -18.0920  -30.2993  -12.5321 O   0  0  0  0  0  0  0  0  0  0  0  0
  -18.0029  -29.8189  -15.2498 O   0  0  0  0  0  0  0  0  0  0  0  0
  -18.0133  -32.9357  -11.2179 S   0  0  0  0  0  0  0  0  0  0  0  0
  2  1  1  0
  1 15  1  0
  1 16  2  0
  3  2  1  0
  2 13  1  1
  4  3  1  0
  5  4  2  0
  4 12  1  0
  6  5  1  0
  6 10  2  0
 21  6  1  0
  7  8  1  0
  7 21  1  0
  8  9  1  0
  8 14  1  1
  9 17  2  0
  9 18  1  0
 10 11  1  0
 10 19  1  0
 11 12  2  0
 11 20  1  0
M  CHG  2  13   1  14   1
M  END
$$$$
