
     RDKit          3D

 21 21  0  0  0  0  0  0  0  0999 V2000
  -15.4561  -38.5267   -8.8764 C   0  0  0  0  0  0  0  0  0  0  0  0
  -15.6965  -37.2889   -9.6273 C   0  0  2  0  0  0  0  0  0  0  0  0
  -17.0150  -36.6275   -9.3152 C   0  0  0  0  0  0  0  0  0  0  0  0
  -17.2722  -35.4067  -10.0769 C   0  0  0  0  0  0  0  0  0  0  0  0
  -18.0404  -35.4565  -11.2203 C   0  0  0  0  0  0  0  0  0  0  0  0
  -18.2931  -34.2928  -11.9588 C   0  0  0  0  0  0  0  0  0  0  0  0
  -18.3408  -33.6489  -14.8492 C   0  0  0  0  0  0  0  0  0  0  0  0
  -19.0659  -34.0104  -16.1427 C   0  0  2  0  0  0  0  0  0  0  0  0
  -18.3658  -33.4239  -17.3133 C   0  0  0  0  0  0  0  0  0  0  0  0
  -17.7709  -33.0790  -11.5440 C   0  0  0  0  0  0  0  0  0  0  0  0
  -17.0019  -33.0241  -10.4009 C   0  0  0  0  0  0  0  0  0  0  0  0
  -16.7684  -34.1988   -9.6879 C   0  0  0  0  0  0  0  0  0  0  0  0
  -15.5257  -37.4778  -11.0656 N   0  0  0  0  0  4  0  0  0  0  0  0
  -20.4373  -33.5364  -16.1152 N   0  0  0  0  0  4  0  0  0  0  0  0
  -15.2930  -39.7149   -9.5475 O   0  0  0  0  0  0  0  0  0  0  0  0
  -15.4001  -38.5005   -7.6348 O   0  0  0  0  0  0  0  0  0  0  0  0
  -17.2310  -33.8699  -17.6024 O   0  0  0  0  0  0  0  0  0  0  0  0
  -18.9288  -32.4140  -18.0778 O   0  0  0  0  0  0  0  0  0  0  0  0
  -18.0217  -31.9137  -12.2802 O   0  0  0  0  0  0  0  0  0  0  0  0
  -16.4817  -31.8042   -9.9909 O   0  0  0  0  0  0  0  0  0  0  0  0
  -19.2753  -34.3190  -13.4321 S   0  0  0  0  0  0  0  0  0  0  0  0
  2  1  1  0
  1 15  1  0
  1 16  2  0
  3  2  1  0
  2 13  1  6
  4  3  1  0
  5  4  2  0
  4 12  1  0
  6  5  1  0
  6 10  2  0
 21  6  1  0
  7  8  1  0
  7 21  1  0
  8  9  1  0
  8 14  1  1
  9 17  2  0
  9 18  1  0
 10 11  1  0
 10 19  1  0
 11 12  2  0
 11 20  1  0
M  CHG  2  13   1  14   1
M  END
$$$$
