
     RDKit          3D

 21 21  0  0  0  0  0  0  0  0999 V2000
  -35.8955  -19.0813   19.5905 C   0  0  0  0  0  0  0  0  0  0  0  0
  -35.5601  -19.2275   18.1692 C   0  0  2  0  0  0  0  0  0  0  0  0
  -35.0260  -17.9698   17.5319 C   0  0  0  0  0  0  0  0  0  0  0  0
  -34.5542  -18.1433   16.1592 C   0  0  0  0  0  0  0  0  0  0  0  0
  -35.3268  -17.7067   15.1044 C   0  0  0  0  0  0  0  0  0  0  0  0
  -34.8851  -17.8682   13.7845 C   0  0  0  0  0  0  0  0  0  0  0  0
  -34.8480  -16.2962   11.2747 C   0  0  0  0  0  0  0  0  0  0  0  0
  -35.7755  -15.5531   10.3169 C   0  0  2  0  0  0  0  0  0  0  0  0
  -34.9948  -14.6588    9.4253 C   0  0  0  0  0  0  0  0  0  0  0  0
  -33.6642  -18.4699   13.5286 C   0  0  0  0  0  0  0  0  0  0  0  0
  -32.8879  -18.9082   14.5804 C   0  0  0  0  0  0  0  0  0  0  0  0
  -33.3546  -18.7333   15.8820 C   0  0  0  0  0  0  0  0  0  0  0  0
  -36.6693  -19.7827   17.3981 N   0  0  0  0  0  4  0  0  0  0  0  0
  -36.7523  -14.7687   11.0494 N   0  0  0  0  0  4  0  0  0  0  0  0
  -34.9614  -18.5849   20.4679 O   0  0  0  0  0  0  0  0  0  0  0  0
  -37.0234  -19.4060   20.0004 O   0  0  0  0  0  0  0  0  0  0  0  0
  -34.0933  -15.1723    8.7224 O   0  0  0  0  0  0  0  0  0  0  0  0
  -35.2365  -13.2958    9.3549 O   0  0  0  0  0  0  0  0  0  0  0  0
  -33.2198  -18.6328   12.2099 O   0  0  0  0  0  0  0  0  0  0  0  0
  -31.6653  -19.5104   14.3166 O   0  0  0  0  0  0  0  0  0  0  0  0
  -35.8506  -17.3197   12.4050 S   0  0  0  0  0  0  0  0  0  0  0  0
  2  1  1  0
  1 15  1  0
  1 16  2  0
  3  2  1  0
  2 13  1  6
  4  3  1  0
  5  4  2  0
  4 12  1  0
  6  5  1  0
  6 10  2  0
 21  6  1  0
  7  8  1  0
  7 21  1  0
  8  9  1  0
  8 14  1  1
  9 17  2  0
  9 18  1  0
 10 11  1  0
 10 19  1  0
 11 12  2  0
 11 20  1  0
M  CHG  2  13   1  14   1
M  END
$$$$
