
     RDKit          3D

 33 35  0  0  0  0  0  0  0  0999 V2000
  107.5476  -14.3240  -10.3347 C   0  0  2  0  0  0  0  0  0  0  0  0
  107.5524  -15.7317  -10.8455 C   0  0  1  0  0  0  0  0  0  0  0  0
  108.4922  -15.7110  -12.0318 C   0  0  2  0  0  0  0  0  0  0  0  0
  108.0159  -14.6758  -12.9953 C   0  0  1  0  0  0  0  0  0  0  0  0
  107.1937  -13.5728  -12.5027 C   0  0  1  0  0  0  0  0  0  0  0  0
  105.9166  -13.4082  -13.3434 C   0  0  0  0  0  0  0  0  0  0  0  0
  111.5293  -13.1093   -9.1035 C   0  0  1  0  0  0  0  0  0  0  0  0
  110.9780  -13.5596   -7.7714 C   0  0  1  0  0  0  0  0  0  0  0  0
  109.4694  -13.5540   -7.8297 C   0  0  2  0  0  0  0  0  0  0  0  0
  108.9167  -12.9335   -9.0578 C   0  0  1  0  0  0  0  0  0  0  0  0
  109.6181  -11.6432   -9.4470 C   0  0  2  0  0  0  0  0  0  0  0  0
  111.0965  -11.6768   -9.3093 C   0  0  0  0  0  0  0  0  0  0  0  0
  111.7504  -15.0686   -6.1741 C   0  0  1  0  0  0  0  0  0  0  0  0
  112.6707  -16.2165   -5.9683 C   0  0  1  0  0  0  0  0  0  0  0  0
  112.3749  -16.8563   -4.6322 C   0  0  2  0  0  0  0  0  0  0  0  0
  112.0320  -15.8225   -3.5671 C   0  0  1  0  0  0  0  0  0  0  0  0
  110.8317  -15.0597   -4.0561 C   0  0  1  0  0  0  0  0  0  0  0  0
  110.9585  -13.6157   -3.6520 C   0  0  0  0  0  0  0  0  0  0  0  0
  105.7165  -12.0064  -13.6857 N   0  0  0  0  0  4  0  0  0  0  0  0
  109.0543  -10.5134   -8.7220 N   0  0  0  0  0  4  0  0  0  0  0  0
  112.9661  -13.1405   -9.1449 N   0  0  0  0  0  4  0  0  0  0  0  0
  113.4304  -17.7195   -4.1739 N   0  0  0  0  0  4  0  0  0  0  0  0
  106.8022  -13.5285  -11.1976 O   0  0  0  0  0  0  0  0  0  0  0  0
  108.6154  -16.9759  -12.5656 O   0  0  0  0  0  0  0  0  0  0  0  0
  109.1438  -14.2082  -13.7135 O   0  0  0  0  0  0  0  0  0  0  0  0
  108.8170  -13.7763  -10.1602 O   0  0  0  0  0  0  0  0  0  0  0  0
  108.9203  -12.9336   -6.6842 O   0  0  0  0  0  0  0  0  0  0  0  0
  111.4553  -14.8154   -7.5052 O   0  0  0  0  0  0  0  0  0  0  0  0
  110.6203  -15.2224   -5.4171 O   0  0  0  0  0  0  0  0  0  0  0  0
  112.5442  -17.2068   -6.9535 O   0  0  0  0  0  0  0  0  0  0  0  0
  111.6689  -16.5242   -2.4222 O   0  0  0  0  0  0  0  0  0  0  0  0
  112.3098  -13.2555   -3.5191 O   0  0  0  0  0  0  0  0  0  0  0  0
  107.8640  -16.7369   -9.8939 N   0  0  0  0  0  4  0  0  0  0  0  0
  1  2  1  0
  1 23  1  0
  1 26  1  6
  2  3  1  0
  2 33  1  1
  3  4  1  0
  3 24  1  6
  5  4  1  0
  4 25  1  1
  5  6  1  6
 23  5  1  0
  6 19  1  0
  8  7  1  0
  7 12  1  0
  7 21  1  1
  8  9  1  0
  8 28  1  6
  9 10  1  0
  9 27  1  1
 10 11  1  0
 10 26  1  6
 12 11  1  0
 11 20  1  1
 13 14  1  0
 13 28  1  6
 13 29  1  0
 14 15  1  0
 14 30  1  6
 15 16  1  0
 15 22  1  1
 16 17  1  0
 16 31  1  1
 17 18  1  6
 17 29  1  0
 18 32  1  0
M  CHG  5  19   1  20   1  21   1  22   1  33   1
M  END
$$$$
