
     RDKit          3D

 33 35  0  0  0  0  0  0  0  0999 V2000
  107.7881  -15.6398   -9.7430 C   0  0  2  0  0  0  0  0  0  0  0  0
  108.4636  -16.7167  -10.5345 C   0  0  1  0  0  0  0  0  0  0  0  0
  108.9521  -16.0271  -11.7903 C   0  0  2  0  0  0  0  0  0  0  0  0
  107.7875  -15.3716  -12.4541 C   0  0  1  0  0  0  0  0  0  0  0  0
  106.6205  -15.0154  -11.6501 C   0  0  1  0  0  0  0  0  0  0  0  0
  105.3223  -15.5411  -12.2850 C   0  0  0  0  0  0  0  0  0  0  0  0
  110.3234  -12.1804   -8.9160 C   0  0  1  0  0  0  0  0  0  0  0  0
  110.5896  -12.9399   -7.6379 C   0  0  1  0  0  0  0  0  0  0  0  0
  109.4993  -13.9633   -7.4310 C   0  0  2  0  0  0  0  0  0  0  0  0
  108.3676  -13.8378   -8.3808 C   0  0  1  0  0  0  0  0  0  0  0  0
  107.9214  -12.4018   -8.5974 C   0  0  2  0  0  0  0  0  0  0  0  0
  109.0302  -11.4225   -8.7289 C   0  0  0  0  0  0  0  0  0  0  0  0
  112.4251  -13.8495   -6.5293 C   0  0  1  0  0  0  0  0  0  0  0  0
  113.9091  -13.8761   -6.5920 C   0  0  1  0  0  0  0  0  0  0  0  0
  114.4312  -14.8602   -5.5716 C   0  0  2  0  0  0  0  0  0  0  0  0
  113.6215  -14.8291   -4.2815 C   0  0  1  0  0  0  0  0  0  0  0  0
  112.1983  -15.1570   -4.6402 C   0  0  1  0  0  0  0  0  0  0  0  0
  111.2667  -14.3387   -3.7875 C   0  0  0  0  0  0  0  0  0  0  0  0
  104.4654  -14.4288  -12.6732 N   0  0  0  0  0  4  0  0  0  0  0  0
  106.9869  -11.9922   -7.5587 N   0  0  0  0  0  4  0  0  0  0  0  0
  111.3521  -11.2205   -9.2118 N   0  0  0  0  0  4  0  0  0  0  0  0
  115.8318  -14.6919   -5.2905 N   0  0  0  0  0  4  0  0  0  0  0  0
  106.5620  -15.3447  -10.3285 O   0  0  0  0  0  0  0  0  0  0  0  0
  109.6386  -16.9176  -12.5878 O   0  0  0  0  0  0  0  0  0  0  0  0
  108.2797  -14.2613  -13.1833 O   0  0  0  0  0  0  0  0  0  0  0  0
  108.5414  -14.4756   -9.6049 O   0  0  0  0  0  0  0  0  0  0  0  0
  109.0211  -13.9325   -6.1009 O   0  0  0  0  0  0  0  0  0  0  0  0
  111.8163  -13.5410   -7.7365 O   0  0  0  0  0  0  0  0  0  0  0  0
  111.9496  -15.0178   -5.9975 O   0  0  0  0  0  0  0  0  0  0  0  0
  114.4002  -14.2622   -7.8478 O   0  0  0  0  0  0  0  0  0  0  0  0
  114.1139  -15.8448   -3.4686 O   0  0  0  0  0  0  0  0  0  0  0  0
  111.9444  -13.2460   -3.2218 O   0  0  0  0  0  0  0  0  0  0  0  0
  109.4767  -17.4431   -9.8570 N   0  0  0  0  0  4  0  0  0  0  0  0
  1  2  1  0
  1 23  1  0
  1 26  1  6
  2  3  1  0
  2 33  1  1
  3  4  1  0
  3 24  1  6
  5  4  1  0
  4 25  1  1
  5  6  1  6
 23  5  1  0
  6 19  1  0
  8  7  1  0
  7 12  1  0
  7 21  1  1
  8  9  1  0
  8 28  1  6
  9 10  1  0
  9 27  1  1
 10 11  1  0
 10 26  1  6
 12 11  1  0
 11 20  1  1
 13 14  1  0
 13 28  1  6
 13 29  1  0
 14 15  1  0
 14 30  1  6
 15 16  1  0
 15 22  1  1
 16 17  1  0
 16 31  1  1
 17 18  1  1
 17 29  1  0
 18 32  1  0
M  CHG  5  19   1  20   1  21   1  22   1  33   1
M  END
$$$$
