
     RDKit          3D

 33 35  0  0  0  0  0  0  0  0999 V2000
  105.4838  -12.1588   -8.2204 C   0  0  2  0  0  0  0  0  0  0  0  0
  104.8528  -13.5148   -8.1442 C   0  0  1  0  0  0  0  0  0  0  0  0
  104.7876  -13.9937   -9.5786 C   0  0  2  0  0  0  0  0  0  0  0  0
  104.0448  -12.9799  -10.3831 C   0  0  1  0  0  0  0  0  0  0  0  0
  103.9964  -11.5974   -9.9123 C   0  0  1  0  0  0  0  0  0  0  0  0
  102.5536  -11.0658   -9.8851 C   0  0  0  0  0  0  0  0  0  0  0  0
  109.3712  -12.2049  -10.2079 C   0  0  1  0  0  0  0  0  0  0  0  0
  109.8449  -12.5358   -8.8125 C   0  0  1  0  0  0  0  0  0  0  0  0
  108.7811  -12.1372   -7.8182 C   0  0  2  0  0  0  0  0  0  0  0  0
  107.6661  -11.3586   -8.4092 C   0  0  1  0  0  0  0  0  0  0  0  0
  108.1306  -10.2837   -9.3770 C   0  0  2  0  0  0  0  0  0  0  0  0
  109.2243  -10.7037  -10.2898 C   0  0  0  0  0  0  0  0  0  0  0  0
  111.0127  -14.2640   -7.7758 C   0  0  1  0  0  0  0  0  0  0  0  0
  111.5312  -15.6454   -7.9485 C   0  0  1  0  0  0  0  0  0  0  0  0
  111.8801  -16.2173   -6.5945 C   0  0  2  0  0  0  0  0  0  0  0  0
  112.4974  -15.1717   -5.6745 C   0  0  1  0  0  0  0  0  0  0  0  0
  111.4955  -14.0599   -5.5274 C   0  0  1  0  0  0  0  0  0  0  0  0
  112.2175  -12.7410   -5.4677 C   0  0  0  0  0  0  0  0  0  0  0  0
  102.3434  -10.1243  -10.9766 N   0  0  0  0  0  4  0  0  0  0  0  0
  108.4899   -9.0681   -8.6606 N   0  0  0  0  0  4  0  0  0  0  0  0
  110.3106  -12.6066  -11.2193 N   0  0  0  0  0  4  0  0  0  0  0  0
  112.7245  -17.3792   -6.6734 N   0  0  0  0  0  4  0  0  0  0  0  0
  104.5553  -11.2513   -8.7180 O   0  0  0  0  0  0  0  0  0  0  0  0
  104.2602  -15.2661   -9.6338 O   0  0  0  0  0  0  0  0  0  0  0  0
  104.5156  -13.0629  -11.7165 O   0  0  0  0  0  0  0  0  0  0  0  0
  106.6488  -12.1139   -8.9837 O   0  0  0  0  0  0  0  0  0  0  0  0
  109.3432  -11.4296   -6.7310 O   0  0  0  0  0  0  0  0  0  0  0  0
  110.1006  -13.8797   -8.7471 O   0  0  0  0  0  0  0  0  0  0  0  0
  110.5179  -14.0956   -6.5106 O   0  0  0  0  0  0  0  0  0  0  0  0
  110.6055  -16.5095   -8.5515 O   0  0  0  0  0  0  0  0  0  0  0  0
  112.6690  -15.7744   -4.4326 O   0  0  0  0  0  0  0  0  0  0  0  0
  112.4478  -12.3624   -4.1346 O   0  0  0  0  0  0  0  0  0  0  0  0
  105.4734  -14.4404   -7.2661 N   0  0  0  0  0  4  0  0  0  0  0  0
  1  2  1  0
  1 23  1  0
  1 26  1  6
  2  3  1  0
  2 33  1  1
  3  4  1  0
  3 24  1  1
  5  4  1  0
  4 25  1  6
  5  6  1  1
 23  5  1  0
  6 19  1  0
  8  7  1  0
  7 12  1  0
  7 21  1  6
  8  9  1  0
  8 28  1  6
  9 10  1  0
  9 27  1  1
 10 11  1  0
 10 26  1  6
 12 11  1  0
 11 20  1  1
 13 14  1  0
 13 28  1  6
 13 29  1  0
 14 15  1  0
 14 30  1  1
 15 16  1  0
 15 22  1  6
 16 17  1  0
 16 31  1  1
 17 18  1  6
 17 29  1  0
 18 32  1  0
M  CHG  5  19   1  20   1  21   1  22   1  33   1
M  END
$$$$
