
     RDKit          3D

 33 35  0  0  0  0  0  0  0  0999 V2000
  107.5915  -14.3866  -10.0732 C   0  0  2  0  0  0  0  0  0  0  0  0
  107.3234  -15.8314  -10.3617 C   0  0  1  0  0  0  0  0  0  0  0  0
  108.2635  -16.1817  -11.4952 C   0  0  2  0  0  0  0  0  0  0  0  0
  108.0140  -15.2402  -12.6256 C   0  0  1  0  0  0  0  0  0  0  0  0
  107.4208  -13.9347  -12.3440 C   0  0  1  0  0  0  0  0  0  0  0  0
  106.2123  -13.6613  -13.2549 C   0  0  0  0  0  0  0  0  0  0  0  0
  111.7672  -13.4599   -9.1818 C   0  0  1  0  0  0  0  0  0  0  0  0
  111.2811  -13.5898   -7.7577 C   0  0  1  0  0  0  0  0  0  0  0  0
  109.7772  -13.4604   -7.7314 C   0  0  2  0  0  0  0  0  0  0  0  0
  109.1860  -13.0450   -9.0262 C   0  0  1  0  0  0  0  0  0  0  0  0
  109.9542  -11.9240   -9.7054 C   0  0  2  0  0  0  0  0  0  0  0  0
  111.4317  -12.0624   -9.6468 C   0  0  0  0  0  0  0  0  0  0  0  0
  112.0691  -14.8162   -5.9411 C   0  0  1  0  0  0  0  0  0  0  0  0
  112.9489  -15.9571   -5.5788 C   0  0  1  0  0  0  0  0  0  0  0  0
  112.7334  -16.3078   -4.1252 C   0  0  2  0  0  0  0  0  0  0  0  0
  112.5266  -15.0689   -3.2633 C   0  0  1  0  0  0  0  0  0  0  0  0
  111.3271  -14.3426   -3.8068 C   0  0  1  0  0  0  0  0  0  0  0  0
  111.5532  -12.8583   -3.7052 C   0  0  0  0  0  0  0  0  0  0  0  0
  106.3902  -12.4001  -13.9620 N   0  0  0  0  0  4  0  0  0  0  0  0
  109.5330  -10.6283   -9.1919 N   0  0  0  0  0  4  0  0  0  0  0  0
  113.1904  -13.6274   -9.2965 N   0  0  0  0  0  4  0  0  0  0  0  0
  113.7816  -17.1294   -3.5817 N   0  0  0  0  0  4  0  0  0  0  0  0
  107.0295  -13.6089  -11.0794 O   0  0  0  0  0  0  0  0  0  0  0  0
  108.1403  -17.5149  -11.8231 O   0  0  0  0  0  0  0  0  0  0  0  0
  109.2212  -15.1200  -13.3570 O   0  0  0  0  0  0  0  0  0  0  0  0
  108.9420  -14.0747   -9.9294 O   0  0  0  0  0  0  0  0  0  0  0  0
  109.3621  -12.5813   -6.7051 O   0  0  0  0  0  0  0  0  0  0  0  0
  111.6787  -14.8070   -7.2717 O   0  0  0  0  0  0  0  0  0  0  0  0
  110.9984  -14.7515   -5.0907 O   0  0  0  0  0  0  0  0  0  0  0  0
  112.6969  -17.1092   -6.3380 O   0  0  0  0  0  0  0  0  0  0  0  0
  112.2258  -15.5129   -1.9798 O   0  0  0  0  0  0  0  0  0  0  0  0
  111.5228  -12.4434   -2.3634 O   0  0  0  0  0  0  0  0  0  0  0  0
  107.4177  -16.7139   -9.2548 N   0  0  0  0  0  4  0  0  0  0  0  0
  1  2  1  0
  1 23  1  0
  1 26  1  6
  2  3  1  0
  2 33  1  1
  3  4  1  0
  3 24  1  6
  5  4  1  0
  4 25  1  1
  5  6  1  6
 23  5  1  0
  6 19  1  0
  8  7  1  0
  7 12  1  0
  7 21  1  1
  8  9  1  0
  8 28  1  6
  9 10  1  0
  9 27  1  1
 10 11  1  0
 10 26  1  6
 12 11  1  0
 11 20  1  1
 13 14  1  0
 13 28  1  6
 13 29  1  0
 14 15  1  0
 14 30  1  6
 15 16  1  0
 15 22  1  1
 16 17  1  0
 16 31  1  1
 17 18  1  6
 17 29  1  0
 18 32  1  0
M  CHG  5  19   1  20   1  21   1  22   1  33   1
M  END
$$$$
