
     RDKit          3D

 33 35  0  0  0  0  0  0  0  0999 V2000
  106.8196  -15.7000   -8.2461 C   0  0  2  0  0  0  0  0  0  0  0  0
  106.6889  -16.9440   -7.4227 C   0  0  1  0  0  0  0  0  0  0  0  0
  107.4855  -17.9907   -8.1718 C   0  0  2  0  0  0  0  0  0  0  0  0
  106.9584  -18.0798   -9.5649 C   0  0  1  0  0  0  0  0  0  0  0  0
  106.2597  -16.9295  -10.1342 C   0  0  1  0  0  0  0  0  0  0  0  0
  104.9050  -17.3394  -10.7357 C   0  0  0  0  0  0  0  0  0  0  0  0
  110.7278  -14.4020   -9.6989 C   0  0  1  0  0  0  0  0  0  0  0  0
  110.9642  -13.8826   -8.3005 C   0  0  1  0  0  0  0  0  0  0  0  0
  109.6467  -13.8106   -7.5671 C   0  0  2  0  0  0  0  0  0  0  0  0
  108.4644  -14.0567   -8.4275 C   0  0  1  0  0  0  0  0  0  0  0  0
  108.5377  -13.3443   -9.7674 C   0  0  2  0  0  0  0  0  0  0  0  0
  109.8719  -13.3863  -10.4183 C   0  0  0  0  0  0  0  0  0  0  0  0
  112.5555  -14.1611   -6.6226 C   0  0  1  0  0  0  0  0  0  0  0  0
  113.9882  -14.5533   -6.5971 C   0  0  1  0  0  0  0  0  0  0  0  0
  114.4822  -14.5353   -5.1695 C   0  0  2  0  0  0  0  0  0  0  0  0
  113.8887  -13.3794   -4.3742 C   0  0  1  0  0  0  0  0  0  0  0  0
  112.3935  -13.5377   -4.4056 C   0  0  1  0  0  0  0  0  0  0  0  0
  111.7490  -12.1808   -4.4950 C   0  0  0  0  0  0  0  0  0  0  0  0
  104.7144  -16.6984  -12.0299 N   0  0  0  0  0  4  0  0  0  0  0  0
  108.0613  -11.9737   -9.6470 N   0  0  0  0  0  4  0  0  0  0  0  0
  111.9473  -14.5512  -10.4455 N   0  0  0  0  0  4  0  0  0  0  0  0
  115.9172  -14.5306   -5.0691 N   0  0  0  0  0  4  0  0  0  0  0  0
  106.0241  -15.8183   -9.3803 O   0  0  0  0  0  0  0  0  0  0  0  0
  107.4775  -19.1827   -7.4796 O   0  0  0  0  0  0  0  0  0  0  0  0
  108.0197  -18.5124  -10.3974 O   0  0  0  0  0  0  0  0  0  0  0  0
  108.1286  -15.3939   -8.6133 O   0  0  0  0  0  0  0  0  0  0  0  0
  109.5078  -12.5747   -6.8948 O   0  0  0  0  0  0  0  0  0  0  0  0
  111.8358  -14.7262   -7.6646 O   0  0  0  0  0  0  0  0  0  0  0  0
  111.9742  -14.4011   -5.4067 O   0  0  0  0  0  0  0  0  0  0  0  0
  114.2165  -15.8379   -7.1118 O   0  0  0  0  0  0  0  0  0  0  0  0
  114.3179  -13.5287   -3.0595 O   0  0  0  0  0  0  0  0  0  0  0  0
  110.6297  -12.2192   -5.3430 O   0  0  0  0  0  0  0  0  0  0  0  0
  107.0530  -16.8259   -6.0566 N   0  0  0  0  0  4  0  0  0  0  0  0
  1  2  1  0
  1 23  1  0
  1 26  1  6
  2  3  1  0
  2 33  1  1
  3  4  1  0
  3 24  1  1
  5  4  1  0
  4 25  1  6
  5  6  1  1
 23  5  1  0
  6 19  1  0
  8  7  1  0
  7 12  1  0
  7 21  1  6
  8  9  1  0
  8 28  1  1
  9 10  1  0
  9 27  1  6
 10 11  1  0
 10 26  1  6
 12 11  1  0
 11 20  1  1
 13 14  1  0
 13 28  1  6
 13 29  1  0
 14 15  1  0
 14 30  1  1
 15 16  1  0
 15 22  1  6
 16 17  1  0
 16 31  1  1
 17 18  1  6
 17 29  1  0
 18 32  1  0
M  CHG  5  19   1  20   1  21   1  22   1  33   1
M  END
$$$$
