
     RDKit          3D

 33 35  0  0  0  0  0  0  0  0999 V2000
  111.7777  -15.5311   -7.1975 C   0  0  2  0  0  0  0  0  0  0  0  0
  111.3625  -16.7160   -6.3812 C   0  0  1  0  0  0  0  0  0  0  0  0
  111.0795  -16.1578   -5.0030 C   0  0  2  0  0  0  0  0  0  0  0  0
  112.2959  -15.4380   -4.5245 C   0  0  1  0  0  0  0  0  0  0  0  0
  113.2469  -14.9216   -5.5064 C   0  0  1  0  0  0  0  0  0  0  0  0
  114.6837  -15.3608   -5.1782 C   0  0  0  0  0  0  0  0  0  0  0  0
  108.9726  -12.1757   -7.1850 C   0  0  1  0  0  0  0  0  0  0  0  0
  108.4521  -12.8465   -8.4341 C   0  0  1  0  0  0  0  0  0  0  0  0
  109.4962  -13.8033   -8.9571 C   0  0  2  0  0  0  0  0  0  0  0  0
  110.8051  -13.7016   -8.2677 C   0  0  1  0  0  0  0  0  0  0  0  0
  111.2511  -12.2683   -8.0335 C   0  0  2  0  0  0  0  0  0  0  0  0
  110.1735  -11.3507   -7.5836 C   0  0  0  0  0  0  0  0  0  0  0  0
  106.5136  -13.8810   -9.2070 C   0  0  1  0  0  0  0  0  0  0  0  0
  105.0523  -13.8378   -8.9430 C   0  0  1  0  0  0  0  0  0  0  0  0
  104.3628  -14.8750   -9.7980 C   0  0  2  0  0  0  0  0  0  0  0  0
  104.9875  -14.9804  -11.1834 C   0  0  1  0  0  0  0  0  0  0  0  0
  106.4351  -15.3411  -10.9935 C   0  0  1  0  0  0  0  0  0  0  0  0
  107.2665  -14.6337  -12.0293 C   0  0  0  0  0  0  0  0  0  0  0  0
  115.5699  -14.2049   -5.1527 N   0  0  0  0  0  4  0  0  0  0  0  0
  111.9243  -11.7409   -9.2119 N   0  0  0  0  0  4  0  0  0  0  0  0
  108.0097  -11.2865   -6.5942 N   0  0  0  0  0  4  0  0  0  0  0  0
  102.9430  -14.6681   -9.9009 N   0  0  0  0  0  4  0  0  0  0  0  0
  113.0678  -15.1587   -6.8369 O   0  0  0  0  0  0  0  0  0  0  0  0
  110.6396  -17.1587   -4.1635 O   0  0  0  0  0  0  0  0  0  0  0  0
  111.8705  -14.4286   -3.6263 O   0  0  0  0  0  0  0  0  0  0  0  0
  110.9203  -14.4376   -7.0928 O   0  0  0  0  0  0  0  0  0  0  0  0
  109.6701  -13.6507  -10.3517 O   0  0  0  0  0  0  0  0  0  0  0  0
  107.2927  -13.5058   -8.1228 O   0  0  0  0  0  0  0  0  0  0  0  0
  106.8729  -15.1071   -9.6985 O   0  0  0  0  0  0  0  0  0  0  0  0
  104.7266  -14.1025   -7.6046 O   0  0  0  0  0  0  0  0  0  0  0  0
  104.3549  -16.0342  -11.8348 O   0  0  0  0  0  0  0  0  0  0  0  0
  108.1027  -15.5427  -12.6984 O   0  0  0  0  0  0  0  0  0  0  0  0
  110.2970  -17.4907   -6.9079 N   0  0  0  0  0  4  0  0  0  0  0  0
  1  2  1  0
  1 23  1  0
  1 26  1  1
  2  3  1  0
  2 33  1  6
  3  4  1  0
  3 24  1  1
  5  4  1  0
  4 25  1  6
  5  6  1  1
 23  5  1  0
  6 19  1  0
  8  7  1  0
  7 12  1  0
  7 21  1  6
  8  9  1  0
  8 28  1  1
  9 10  1  0
  9 27  1  6
 10 11  1  0
 10 26  1  1
 12 11  1  0
 11 20  1  6
 13 14  1  0
 13 28  1  1
 13 29  1  0
 14 15  1  0
 14 30  1  1
 15 16  1  0
 15 22  1  6
 16 17  1  0
 16 31  1  6
 17 18  1  6
 17 29  1  0
 18 32  1  0
M  CHG  5  19   1  20   1  21   1  22   1  33   1
M  END
$$$$
