
     RDKit          3D

 33 35  0  0  0  0  0  0  0  0999 V2000
  107.0144  -12.8436  -10.0981 C   0  0  2  0  0  0  0  0  0  0  0  0
  105.8532  -12.6704   -9.1685 C   0  0  1  0  0  0  0  0  0  0  0  0
  105.6174  -14.0455   -8.5814 C   0  0  2  0  0  0  0  0  0  0  0  0
  105.4100  -15.0094   -9.7014 C   0  0  1  0  0  0  0  0  0  0  0  0
  105.9597  -14.6958  -11.0186 C   0  0  1  0  0  0  0  0  0  0  0  0
  104.8936  -14.8372  -12.1178 C   0  0  0  0  0  0  0  0  0  0  0  0
  110.8272  -14.7278   -9.6005 C   0  0  1  0  0  0  0  0  0  0  0  0
  110.9981  -14.0942   -8.2402 C   0  0  1  0  0  0  0  0  0  0  0  0
  109.9636  -13.0090   -8.0633 C   0  0  2  0  0  0  0  0  0  0  0  0
  109.1992  -12.6992   -9.2955 C   0  0  1  0  0  0  0  0  0  0  0  0
  110.0703  -12.6137  -10.5373 C   0  0  2  0  0  0  0  0  0  0  0  0
  111.1162  -13.6637  -10.6329 C   0  0  0  0  0  0  0  0  0  0  0  0
  111.6007  -14.8764   -6.1306 C   0  0  1  0  0  0  0  0  0  0  0  0
  112.3355  -16.0861   -5.6795 C   0  0  1  0  0  0  0  0  0  0  0  0
  112.4814  -16.0462   -4.1763 C   0  0  2  0  0  0  0  0  0  0  0  0
  112.7439  -14.6353   -3.6652 C   0  0  1  0  0  0  0  0  0  0  0  0
  111.5845  -13.7811   -4.0984 C   0  0  1  0  0  0  0  0  0  0  0  0
  112.0834  -12.4092   -4.4637 C   0  0  0  0  0  0  0  0  0  0  0  0
  105.5053  -15.3022  -13.3554 N   0  0  0  0  0  4  0  0  0  0  0  0
  110.6539  -11.2858  -10.6648 N   0  0  0  0  0  4  0  0  0  0  0  0
  111.7449  -15.8118   -9.8234 N   0  0  0  0  0  4  0  0  0  0  0  0
  113.4816  -16.9544   -3.6823 N   0  0  0  0  0  4  0  0  0  0  0  0
  106.5867  -13.5063  -11.2432 O   0  0  0  0  0  0  0  0  0  0  0  0
  104.5887  -14.0034   -7.6648 O   0  0  0  0  0  0  0  0  0  0  0  0
  105.8269  -16.2859   -9.2504 O   0  0  0  0  0  0  0  0  0  0  0  0
  108.0988  -13.5154   -9.5371 O   0  0  0  0  0  0  0  0  0  0  0  0
  110.5489  -11.8302   -7.5470 O   0  0  0  0  0  0  0  0  0  0  0  0
  110.8585  -15.0671   -7.2865 O   0  0  0  0  0  0  0  0  0  0  0  0
  110.8413  -14.3717   -5.1095 O   0  0  0  0  0  0  0  0  0  0  0  0
  111.6841  -17.2824   -6.0137 O   0  0  0  0  0  0  0  0  0  0  0  0
  112.7452  -14.7007   -2.2756 O   0  0  0  0  0  0  0  0  0  0  0  0
  111.1107  -11.4364   -4.1791 O   0  0  0  0  0  0  0  0  0  0  0  0
  105.9876  -11.6523   -8.1895 N   0  0  0  0  0  4  0  0  0  0  0  0
  1  2  1  0
  1 23  1  0
  1 26  1  1
  2  3  1  0
  2 33  1  1
  3  4  1  0
  3 24  1  1
  5  4  1  0
  4 25  1  1
  5  6  1  6
 23  5  1  0
  6 19  1  0
  8  7  1  0
  7 12  1  0
  7 21  1  1
  8  9  1  0
  8 28  1  1
  9 10  1  0
  9 27  1  6
 10 11  1  0
 10 26  1  6
 12 11  1  0
 11 20  1  1
 13 14  1  0
 13 28  1  6
 13 29  1  0
 14 15  1  0
 14 30  1  1
 15 16  1  0
 15 22  1  6
 16 17  1  0
 16 31  1  1
 17 18  1  6
 17 29  1  0
 18 32  1  0
M  CHG  5  19   1  20   1  21   1  22   1  33   1
M  END
$$$$
