
     RDKit          3D

 33 35  0  0  0  0  0  0  0  0999 V2000
  107.0607  -13.1619   -9.7038 C   0  0  2  0  0  0  0  0  0  0  0  0
  106.0363  -14.2200   -9.4328 C   0  0  1  0  0  0  0  0  0  0  0  0
  106.4088  -15.3649  -10.3503 C   0  0  2  0  0  0  0  0  0  0  0  0
  106.4543  -14.8535  -11.7514 C   0  0  1  0  0  0  0  0  0  0  0  0
  106.6879  -13.4291  -11.9796 C   0  0  1  0  0  0  0  0  0  0  0  0
  105.6357  -12.8351  -12.9308 C   0  0  0  0  0  0  0  0  0  0  0  0
  111.2796  -14.3183   -9.6383 C   0  0  1  0  0  0  0  0  0  0  0  0
  111.1705  -14.1210   -8.1448 C   0  0  1  0  0  0  0  0  0  0  0  0
  109.9292  -13.3183   -7.8383 C   0  0  2  0  0  0  0  0  0  0  0  0
  109.2601  -12.7623   -9.0391 C   0  0  1  0  0  0  0  0  0  0  0  0
  110.2292  -12.1611  -10.0428 C   0  0  2  0  0  0  0  0  0  0  0  0
  111.4657  -12.9545  -10.2605 C   0  0  0  0  0  0  0  0  0  0  0  0
  111.6582  -15.4129   -6.2691 C   0  0  1  0  0  0  0  0  0  0  0  0
  112.1744  -16.7550   -5.8959 C   0  0  1  0  0  0  0  0  0  0  0  0
  112.0507  -16.9361   -4.4011 C   0  0  2  0  0  0  0  0  0  0  0  0
  112.3576  -15.6510   -3.6427 C   0  0  1  0  0  0  0  0  0  0  0  0
  111.3870  -14.6074   -4.1226 C   0  0  1  0  0  0  0  0  0  0  0  0
  112.0789  -13.2725   -4.1857 C   0  0  0  0  0  0  0  0  0  0  0  0
  106.1905  -11.6931  -13.6452 N   0  0  0  0  0  4  0  0  0  0  0  0
  110.5500  -10.7862   -9.6869 N   0  0  0  0  0  4  0  0  0  0  0  0
  112.4119  -15.1237  -10.0071 N   0  0  0  0  0  4  0  0  0  0  0  0
  112.8491  -18.0210   -3.8963 N   0  0  0  0  0  4  0  0  0  0  0  0
  106.7869  -12.5655  -10.9295 O   0  0  0  0  0  0  0  0  0  0  0  0
  105.5543  -16.4292  -10.1571 O   0  0  0  0  0  0  0  0  0  0  0  0
  107.3730  -15.6567  -12.4707 O   0  0  0  0  0  0  0  0  0  0  0  0
  108.3758  -13.6224   -9.6823 O   0  0  0  0  0  0  0  0  0  0  0  0
  110.2098  -12.2832   -6.9172 O   0  0  0  0  0  0  0  0  0  0  0  0
  111.1207  -15.3517   -7.5460 O   0  0  0  0  0  0  0  0  0  0  0  0
  110.7822  -14.9586   -5.3203 O   0  0  0  0  0  0  0  0  0  0  0  0
  111.4766  -17.8041   -6.5123 O   0  0  0  0  0  0  0  0  0  0  0  0
  112.1022  -15.9022   -2.2985 O   0  0  0  0  0  0  0  0  0  0  0  0
  113.2140  -13.2636   -3.3581 O   0  0  0  0  0  0  0  0  0  0  0  0
  105.8870  -14.6074   -8.0762 N   0  0  0  0  0  4  0  0  0  0  0  0
  1  2  1  0
  1 23  1  0
  1 26  1  6
  2  3  1  0
  2 33  1  1
  3  4  1  0
  3 24  1  6
  5  4  1  0
  4 25  1  6
  5  6  1  6
 23  5  1  0
  6 19  1  0
  8  7  1  0
  7 12  1  0
  7 21  1  1
  8  9  1  0
  8 28  1  1
  9 10  1  0
  9 27  1  1
 10 11  1  0
 10 26  1  6
 12 11  1  0
 11 20  1  1
 13 14  1  0
 13 28  1  6
 13 29  1  0
 14 15  1  0
 14 30  1  6
 15 16  1  0
 15 22  1  1
 16 17  1  0
 16 31  1  1
 17 18  1  6
 17 29  1  0
 18 32  1  0
M  CHG  5  19   1  20   1  21   1  22   1  33   1
M  END
$$$$
