
     RDKit          3D

 33 35  0  0  0  0  0  0  0  0999 V2000
  106.3958  -13.3571   -9.6433 C   0  0  2  0  0  0  0  0  0  0  0  0
  105.4682  -14.4517   -9.2141 C   0  0  1  0  0  0  0  0  0  0  0  0
  106.0036  -15.6990   -9.8840 C   0  0  2  0  0  0  0  0  0  0  0  0
  106.0762  -15.4531  -11.3540 C   0  0  1  0  0  0  0  0  0  0  0  0
  106.1793  -14.0786  -11.8393 C   0  0  1  0  0  0  0  0  0  0  0  0
  105.1279  -13.7878  -12.9233 C   0  0  0  0  0  0  0  0  0  0  0  0
  110.7180  -13.8987   -9.3025 C   0  0  1  0  0  0  0  0  0  0  0  0
  110.4993  -13.8382   -7.8094 C   0  0  1  0  0  0  0  0  0  0  0  0
  109.1312  -13.2642   -7.5297 C   0  0  2  0  0  0  0  0  0  0  0  0
  108.4470  -12.7266   -8.7303 C   0  0  1  0  0  0  0  0  0  0  0  0
  109.3599  -11.9057   -9.6251 C   0  0  2  0  0  0  0  0  0  0  0  0
  110.7170  -12.4781   -9.8161 C   0  0  0  0  0  0  0  0  0  0  0  0
  111.3858  -15.2162   -6.1539 C   0  0  1  0  0  0  0  0  0  0  0  0
  111.8835  -16.5914   -5.8933 C   0  0  1  0  0  0  0  0  0  0  0  0
  112.0426  -16.7876   -4.4039 C   0  0  2  0  0  0  0  0  0  0  0  0
  112.5676  -15.5341   -3.7155 C   0  0  1  0  0  0  0  0  0  0  0  0
  111.5864  -14.4287   -3.9930 C   0  0  1  0  0  0  0  0  0  0  0  0
  112.3315  -13.1355   -4.1854 C   0  0  0  0  0  0  0  0  0  0  0  0
  105.4290  -12.5290  -13.5917 N   0  0  0  0  0  4  0  0  0  0  0  0
  109.4378  -10.5298   -9.1553 N   0  0  0  0  0  4  0  0  0  0  0  0
  111.9824  -14.4873   -9.6515 N   0  0  0  0  0  4  0  0  0  0  0  0
  112.8577  -17.9244   -4.0684 N   0  0  0  0  0  4  0  0  0  0  0  0
  106.1329  -13.0304  -10.9689 O   0  0  0  0  0  0  0  0  0  0  0  0
  105.2499  -16.7955   -9.5238 O   0  0  0  0  0  0  0  0  0  0  0  0
  107.1091  -16.2710  -11.8744 O   0  0  0  0  0  0  0  0  0  0  0  0
  107.7469  -13.6605   -9.4873 O   0  0  0  0  0  0  0  0  0  0  0  0
  109.1935  -12.2734   -6.5232 O   0  0  0  0  0  0  0  0  0  0  0  0
  110.6146  -15.1047   -7.3011 O   0  0  0  0  0  0  0  0  0  0  0  0
  110.7401  -14.7261   -5.0508 O   0  0  0  0  0  0  0  0  0  0  0  0
  111.0176  -17.5888   -6.3653 O   0  0  0  0  0  0  0  0  0  0  0  0
  112.5644  -15.7902   -2.3483 O   0  0  0  0  0  0  0  0  0  0  0  0
  113.4442  -13.3248   -5.0218 O   0  0  0  0  0  0  0  0  0  0  0  0
  105.2826  -14.5958   -7.8149 N   0  0  0  0  0  4  0  0  0  0  0  0
  1  2  1  0
  1 23  1  0
  1 26  1  6
  2  3  1  0
  2 33  1  1
  3  4  1  0
  3 24  1  6
  5  4  1  0
  4 25  1  1
  5  6  1  6
 23  5  1  0
  6 19  1  0
  8  7  1  0
  7 12  1  0
  7 21  1  1
  8  9  1  0
  8 28  1  6
  9 10  1  0
  9 27  1  1
 10 11  1  0
 10 26  1  6
 12 11  1  0
 11 20  1  1
 13 14  1  0
 13 28  1  6
 13 29  1  0
 14 15  1  0
 14 30  1  1
 15 16  1  0
 15 22  1  6
 16 17  1  0
 16 31  1  1
 17 18  1  6
 17 29  1  0
 18 32  1  0
M  CHG  5  19   1  20   1  21   1  22   1  33   1
M  END
$$$$
