
     RDKit          3D

 33 35  0  0  0  0  0  0  0  0999 V2000
  104.1544  -18.8657   -3.1109 C   0  0  2  0  0  0  0  0  0  0  0  0
  103.0634  -19.0674   -4.1167 C   0  0  1  0  0  0  0  0  0  0  0  0
  102.3987  -17.7135   -4.2452 C   0  0  2  0  0  0  0  0  0  0  0  0
  101.9549  -17.2734   -2.8902 C   0  0  1  0  0  0  0  0  0  0  0  0
  102.6267  -17.8173   -1.7120 C   0  0  1  0  0  0  0  0  0  0  0  0
  101.6133  -18.3654   -0.6934 C   0  0  0  0  0  0  0  0  0  0  0  0
  107.0199  -15.8790   -4.4326 C   0  0  1  0  0  0  0  0  0  0  0  0
  107.7508  -17.1304   -4.8578 C   0  0  1  0  0  0  0  0  0  0  0  0
  107.2152  -18.3081   -4.0798 C   0  0  2  0  0  0  0  0  0  0  0  0
  106.2887  -17.9346   -2.9840 C   0  0  1  0  0  0  0  0  0  0  0  0
  106.7677  -16.7431   -2.1721 C   0  0  2  0  0  0  0  0  0  0  0  0
  107.3472  -15.6382   -2.9777 C   0  0  0  0  0  0  0  0  0  0  0  0
  108.6935  -17.6989   -6.9105 C   0  0  1  0  0  0  0  0  0  0  0  0
  108.3964  -18.2675   -8.2504 C   0  0  1  0  0  0  0  0  0  0  0  0
  109.4643  -19.2735   -8.6104 C   0  0  2  0  0  0  0  0  0  0  0  0
  110.8462  -18.8301   -8.1473 C   0  0  1  0  0  0  0  0  0  0  0  0
  110.7808  -18.6518   -6.6555 C   0  0  1  0  0  0  0  0  0  0  0  0
  111.6293  -17.4754   -6.2549 C   0  0  0  0  0  0  0  0  0  0  0  0
  101.7313  -17.6490    0.5695 N   0  0  0  0  0  4  0  0  0  0  0  0
  107.6937  -17.1691   -1.1324 N   0  0  0  0  0  4  0  0  0  0  0  0
  107.4376  -14.7183   -5.1710 N   0  0  0  0  0  4  0  0  0  0  0  0
  109.4837  -19.5988  -10.0115 N   0  0  0  0  0  4  0  0  0  0  0  0
  103.5930  -18.7700   -1.8425 O   0  0  0  0  0  0  0  0  0  0  0  0
  101.3948  -17.7620   -5.1885 O   0  0  0  0  0  0  0  0  0  0  0  0
  101.9472  -15.8569   -2.8814 O   0  0  0  0  0  0  0  0  0  0  0  0
  104.9609  -17.7566   -3.3589 O   0  0  0  0  0  0  0  0  0  0  0  0
  108.2693  -19.1025   -3.5733 O   0  0  0  0  0  0  0  0  0  0  0  0
  107.5671  -17.3054   -6.2037 O   0  0  0  0  0  0  0  0  0  0  0  0
  109.4773  -18.5600   -6.1907 O   0  0  0  0  0  0  0  0  0  0  0  0
  107.1568  -18.9213   -8.3083 O   0  0  0  0  0  0  0  0  0  0  0  0
  111.7222  -19.8741   -8.4261 O   0  0  0  0  0  0  0  0  0  0  0  0
  111.8211  -17.4541   -4.8634 O   0  0  0  0  0  0  0  0  0  0  0  0
  103.4598  -19.6236   -5.3603 N   0  0  0  0  0  4  0  0  0  0  0  0
  1  2  1  0
  1 23  1  0
  1 26  1  6
  2  3  1  0
  2 33  1  6
  3  4  1  0
  3 24  1  6
  5  4  1  0
  4 25  1  6
  5  6  1  1
 23  5  1  0
  6 19  1  0
  8  7  1  0
  7 12  1  0
  7 21  1  6
  8  9  1  0
  8 28  1  6
  9 10  1  0
  9 27  1  1
 10 11  1  0
 10 26  1  6
 12 11  1  0
 11 20  1  1
 13 14  1  0
 13 28  1  1
 13 29  1  0
 14 15  1  0
 14 30  1  1
 15 16  1  0
 15 22  1  6
 16 17  1  0
 16 31  1  1
 17 18  1  6
 17 29  1  0
 18 32  1  0
M  CHG  5  19   1  20   1  21   1  22   1  33   1
M  END
$$$$
