
     RDKit          3D

 33 35  0  0  0  0  0  0  0  0999 V2000
  106.3399  -16.7715   -8.0042 C   0  0  2  0  0  0  0  0  0  0  0  0
  105.3821  -15.6262   -7.8872 C   0  0  1  0  0  0  0  0  0  0  0  0
  105.7097  -14.9805   -6.5579 C   0  0  2  0  0  0  0  0  0  0  0  0
  105.6097  -16.0180   -5.4900 C   0  0  1  0  0  0  0  0  0  0  0  0
  105.7714  -17.4249   -5.8502 C   0  0  1  0  0  0  0  0  0  0  0  0
  104.6169  -18.2792   -5.3007 C   0  0  0  0  0  0  0  0  0  0  0  0
  110.2820  -16.9753   -9.0814 C   0  0  1  0  0  0  0  0  0  0  0  0
  110.6869  -15.6222   -8.5464 C   0  0  1  0  0  0  0  0  0  0  0  0
  109.4481  -14.8399   -8.1825 C   0  0  2  0  0  0  0  0  0  0  0  0
  108.1828  -15.4800   -8.6161 C   0  0  1  0  0  0  0  0  0  0  0  0
  108.2451  -16.0390  -10.0273 C   0  0  2  0  0  0  0  0  0  0  0  0
  109.5104  -16.7423  -10.3590 C   0  0  0  0  0  0  0  0  0  0  0  0
  112.2870  -14.7279   -7.1093 C   0  0  1  0  0  0  0  0  0  0  0  0
  113.6150  -15.1076   -6.5624 C   0  0  1  0  0  0  0  0  0  0  0  0
  114.0775  -14.0412   -5.5974 C   0  0  2  0  0  0  0  0  0  0  0  0
  113.7067  -12.6419   -6.0717 C   0  0  1  0  0  0  0  0  0  0  0  0
  112.2101  -12.6012   -6.2142 C   0  0  1  0  0  0  0  0  0  0  0  0
  111.8442  -11.7590   -7.4064 C   0  0  0  0  0  0  0  0  0  0  0  0
  104.8717  -18.6361   -3.9115 N   0  0  0  0  0  4  0  0  0  0  0  0
  107.9571  -14.9990  -11.0048 N   0  0  0  0  0  4  0  0  0  0  0  0
  111.4130  -17.8035   -9.4003 N   0  0  0  0  0  4  0  0  0  0  0  0
  115.4838  -14.1169   -5.3045 N   0  0  0  0  0  4  0  0  0  0  0  0
  105.9350  -17.7932   -7.1526 O   0  0  0  0  0  0  0  0  0  0  0  0
  104.9143  -13.8730   -6.3561 O   0  0  0  0  0  0  0  0  0  0  0  0
  106.4869  -15.6411   -4.4436 O   0  0  0  0  0  0  0  0  0  0  0  0
  107.6669  -16.4341   -7.7448 O   0  0  0  0  0  0  0  0  0  0  0  0
  109.5183  -13.5188   -8.6811 O   0  0  0  0  0  0  0  0  0  0  0  0
  111.4896  -15.8093   -7.4526 O   0  0  0  0  0  0  0  0  0  0  0  0
  111.6484  -13.8686   -6.2562 O   0  0  0  0  0  0  0  0  0  0  0  0
  113.5976  -16.3290   -5.8730 O   0  0  0  0  0  0  0  0  0  0  0  0
  114.0750  -11.7598   -5.0611 O   0  0  0  0  0  0  0  0  0  0  0  0
  111.9942  -10.3934   -7.1128 O   0  0  0  0  0  0  0  0  0  0  0  0
  105.3704  -14.7127   -8.9727 N   0  0  0  0  0  4  0  0  0  0  0  0
  1  2  1  0
  1 23  1  0
  1 26  1  1
  2  3  1  0
  2 33  1  6
  3  4  1  0
  3 24  1  1
  5  4  1  0
  4 25  1  1
  5  6  1  6
 23  5  1  0
  6 19  1  0
  8  7  1  0
  7 12  1  0
  7 21  1  6
  8  9  1  0
  8 28  1  1
  9 10  1  0
  9 27  1  6
 10 11  1  0
 10 26  1  1
 12 11  1  0
 11 20  1  6
 13 14  1  0
 13 28  1  1
 13 29  1  0
 14 15  1  0
 14 30  1  1
 15 16  1  0
 15 22  1  6
 16 17  1  0
 16 31  1  1
 17 18  1  6
 17 29  1  0
 18 32  1  0
M  CHG  5  19   1  20   1  21   1  22   1  33   1
M  END
$$$$
