
     RDKit          3D

 33 35  0  0  0  0  0  0  0  0999 V2000
  106.2206  -14.2059   -7.5927 C   0  0  2  0  0  0  0  0  0  0  0  0
  105.0806  -14.7976   -8.3627 C   0  0  1  0  0  0  0  0  0  0  0  0
  105.7077  -15.3402   -9.6290 C   0  0  2  0  0  0  0  0  0  0  0  0
  106.4393  -14.2311  -10.3081 C   0  0  1  0  0  0  0  0  0  0  0  0
  106.8990  -13.0936   -9.5143 C   0  0  1  0  0  0  0  0  0  0  0  0
  106.4638  -11.7597  -10.1439 C   0  0  0  0  0  0  0  0  0  0  0  0
  109.6878  -16.8721   -7.5477 C   0  0  1  0  0  0  0  0  0  0  0  0
  110.5035  -15.6018   -7.5931 C   0  0  1  0  0  0  0  0  0  0  0  0
  109.6180  -14.4569   -8.0223 C   0  0  2  0  0  0  0  0  0  0  0  0
  108.2710  -14.8760   -8.4790 C   0  0  1  0  0  0  0  0  0  0  0  0
  108.2962  -16.0945   -9.3860 C   0  0  2  0  0  0  0  0  0  0  0  0
  109.2318  -17.1654   -8.9576 C   0  0  0  0  0  0  0  0  0  0  0  0
  112.0846  -14.4795   -6.3024 C   0  0  1  0  0  0  0  0  0  0  0  0
  113.2938  -15.0052   -5.6180 C   0  0  1  0  0  0  0  0  0  0  0  0
  114.0450  -13.8568   -4.9861 C   0  0  2  0  0  0  0  0  0  0  0  0
  114.0206  -12.6088   -5.8594 C   0  0  1  0  0  0  0  0  0  0  0  0
  112.5781  -12.2367   -6.0653 C   0  0  1  0  0  0  0  0  0  0  0  0
  112.3917  -11.7125   -7.4635 C   0  0  0  0  0  0  0  0  0  0  0  0
  107.5264  -10.7716  -10.0144 N   0  0  0  0  0  4  0  0  0  0  0  0
  108.5510  -15.7030  -10.7650 N   0  0  0  0  0  4  0  0  0  0  0  0
  110.4513  -18.0021   -7.0927 N   0  0  0  0  0  4  0  0  0  0  0  0
  115.3970  -14.1950   -4.6298 N   0  0  0  0  0  4  0  0  0  0  0  0
  106.5990  -13.0073   -8.1873 O   0  0  0  0  0  0  0  0  0  0  0  0
  104.7527  -15.9573  -10.4083 O   0  0  0  0  0  0  0  0  0  0  0  0
  107.4949  -14.8089  -11.0554 O   0  0  0  0  0  0  0  0  0  0  0  0
  107.3254  -15.0467   -7.4729 O   0  0  0  0  0  0  0  0  0  0  0  0
  110.2465  -13.6765   -9.0196 O   0  0  0  0  0  0  0  0  0  0  0  0
  111.0288  -15.3775   -6.3483 O   0  0  0  0  0  0  0  0  0  0  0  0
  111.7146  -13.2783   -5.7601 O   0  0  0  0  0  0  0  0  0  0  0  0
  112.9955  -15.9290   -4.6056 O   0  0  0  0  0  0  0  0  0  0  0  0
  114.6360  -11.5938   -5.1342 O   0  0  0  0  0  0  0  0  0  0  0  0
  113.5953  -11.7858   -8.1844 O   0  0  0  0  0  0  0  0  0  0  0  0
  104.2905  -15.7502   -7.6691 N   0  0  0  0  0  4  0  0  0  0  0  0
  1  2  1  0
  1 23  1  0
  1 26  1  6
  2  3  1  0
  2 33  1  1
  3  4  1  0
  3 24  1  6
  5  4  1  0
  4 25  1  1
  5  6  1  6
 23  5  1  0
  6 19  1  0
  8  7  1  0
  7 12  1  0
  7 21  1  6
  8  9  1  0
  8 28  1  1
  9 10  1  0
  9 27  1  6
 10 11  1  0
 10 26  1  1
 12 11  1  0
 11 20  1  6
 13 14  1  0
 13 28  1  1
 13 29  1  0
 14 15  1  0
 14 30  1  1
 15 16  1  0
 15 22  1  6
 16 17  1  0
 16 31  1  1
 17 18  1  6
 17 29  1  0
 18 32  1  0
M  CHG  5  19   1  20   1  21   1  22   1  33   1
M  END
$$$$
