
     RDKit          3D

 33 35  0  0  0  0  0  0  0  0999 V2000
  106.1949  -16.0107   -7.4727 C   0  0  2  0  0  0  0  0  0  0  0  0
  106.5948  -17.4300   -7.7339 C   0  0  1  0  0  0  0  0  0  0  0  0
  106.5011  -17.5894   -9.2363 C   0  0  2  0  0  0  0  0  0  0  0  0
  105.1217  -17.2172   -9.6669 C   0  0  1  0  0  0  0  0  0  0  0  0
  104.3332  -16.3202   -8.8248 C   0  0  1  0  0  0  0  0  0  0  0  0
  102.9371  -16.9004   -8.5434 C   0  0  0  0  0  0  0  0  0  0  0  0
  108.6411  -13.1091   -9.6272 C   0  0  1  0  0  0  0  0  0  0  0  0
  109.4347  -13.1483   -8.3428 C   0  0  1  0  0  0  0  0  0  0  0  0
  108.5705  -13.7124   -7.2409 C   0  0  2  0  0  0  0  0  0  0  0  0
  107.1481  -13.8874   -7.6213 C   0  0  1  0  0  0  0  0  0  0  0  0
  106.5830  -12.7073   -8.3933 C   0  0  2  0  0  0  0  0  0  0  0  0
  107.4965  -12.1454   -9.4206 C   0  0  0  0  0  0  0  0  0  0  0  0
  111.5619  -13.7540   -7.6126 C   0  0  1  0  0  0  0  0  0  0  0  0
  112.8902  -14.2295   -8.0781 C   0  0  1  0  0  0  0  0  0  0  0  0
  113.7004  -14.6831   -6.8865 C   0  0  2  0  0  0  0  0  0  0  0  0
  113.4795  -13.7901   -5.6722 C   0  0  1  0  0  0  0  0  0  0  0  0
  112.0113  -13.8313   -5.3494 C   0  0  1  0  0  0  0  0  0  0  0  0
  111.5639  -12.4727   -4.8819 C   0  0  0  0  0  0  0  0  0  0  0  0
  101.9101  -16.0428   -9.1197 N   0  0  0  0  0  4  0  0  0  0  0  0
  106.1252  -11.6688   -7.4812 N   0  0  0  0  0  4  0  0  0  0  0  0
  109.4163  -12.6327  -10.7404 N   0  0  0  0  0  4  0  0  0  0  0  0
  115.1049  -14.8048   -7.1725 N   0  0  0  0  0  4  0  0  0  0  0  0
  104.8183  -15.8893   -7.6259 O   0  0  0  0  0  0  0  0  0  0  0  0
  106.8937  -18.8576   -9.6074 O   0  0  0  0  0  0  0  0  0  0  0  0
  105.2018  -16.7475  -11.0009 O   0  0  0  0  0  0  0  0  0  0  0  0
  106.8468  -15.0773   -8.2763 O   0  0  0  0  0  0  0  0  0  0  0  0
  108.6656  -12.9265   -6.0696 O   0  0  0  0  0  0  0  0  0  0  0  0
  110.5464  -13.9231   -8.5417 O   0  0  0  0  0  0  0  0  0  0  0  0
  111.2516  -14.3161   -6.4036 O   0  0  0  0  0  0  0  0  0  0  0  0
  112.8067  -15.3065   -8.9728 O   0  0  0  0  0  0  0  0  0  0  0  0
  114.1772  -14.3636   -4.6142 O   0  0  0  0  0  0  0  0  0  0  0  0
  112.5267  -11.8985   -4.0353 O   0  0  0  0  0  0  0  0  0  0  0  0
  107.8460  -17.8315   -7.1991 N   0  0  0  0  0  4  0  0  0  0  0  0
  1  2  1  0
  1 23  1  0
  1 26  1  6
  2  3  1  0
  2 33  1  6
  3  4  1  0
  3 24  1  1
  5  4  1  0
  4 25  1  6
  5  6  1  1
 23  5  1  0
  6 19  1  0
  8  7  1  0
  7 12  1  0
  7 21  1  6
  8  9  1  0
  8 28  1  6
  9 10  1  0
  9 27  1  1
 10 11  1  0
 10 26  1  6
 12 11  1  0
 11 20  1  1
 13 14  1  0
 13 28  1  6
 13 29  1  0
 14 15  1  0
 14 30  1  6
 15 16  1  0
 15 22  1  6
 16 17  1  0
 16 31  1  1
 17 18  1  6
 17 29  1  0
 18 32  1  0
M  CHG  5  19   1  20   1  21   1  22   1  33   1
M  END
$$$$
