
     RDKit          3D

 27 28  0  0  0  0  0  0  0  0999 V2000
   22.8471   18.7440   44.1870 C   0  0  0  0  0  0  0  0  0  0  0  0
   21.9048   19.7767   43.6254 C   0  0  0  0  0  0  0  0  0  0  0  0
   22.6089   21.0089   43.1508 C   0  0  0  0  0  0  0  0  0  0  0  0
   21.6983   21.9114   42.3081 C   0  0  0  0  0  0  0  0  0  0  0  0
   22.3947   23.1362   41.8667 C   0  0  0  0  0  0  0  0  0  0  0  0
   23.7901   22.9333   41.4363 C   0  0  0  0  0  0  0  0  0  0  0  0
   24.4946   23.9592   40.6547 C   0  0  2  0  0  0  0  0  0  0  0  0
   23.8647   24.1953   39.2830 C   0  0  0  0  0  0  0  0  0  0  0  0
   25.9660   23.7384   40.4971 C   0  0  0  0  0  0  0  0  0  0  0  0
   24.2853   25.2998   41.3476 C   0  0  0  0  0  0  0  0  0  0  0  0
   25.0209   25.5849   42.4715 C   0  0  0  0  0  0  0  0  0  0  0  0
   24.8681   26.7708   43.1555 C   0  0  0  0  0  0  0  0  0  0  0  0
   23.9320   27.6520   42.6418 C   0  0  0  0  0  0  0  0  0  0  0  0
   23.7004   28.9610   43.3072 C   0  0  2  0  0  0  0  0  0  0  0  0
   24.9520   29.7804   43.3718 C   0  0  0  0  0  0  0  0  0  0  0  0
   24.6908   31.1621   43.8569 C   0  0  1  0  0  0  0  0  0  0  0  0
   23.8686   31.2154   45.1162 C   0  0  0  0  0  0  0  0  0  0  0  0
   22.7653   30.2210   45.1652 C   0  0  0  0  0  0  0  0  0  0  0  0
   23.1533   28.8276   44.7085 C   0  0  1  0  0  0  0  0  0  0  0  0
   21.8955   27.9843   44.7329 C   0  0  0  0  0  0  0  0  0  0  0  0
   21.9484   26.9356   45.7926 C   0  0  0  0  0  0  0  0  0  0  0  0
   23.1464   27.0678   46.7061 C   0  0  0  0  0  0  0  0  0  0  0  0
   23.1924   27.3784   41.5218 C   0  0  0  0  0  0  0  0  0  0  0  0
   23.3752   26.1667   40.8565 C   0  0  0  0  0  0  0  0  0  0  0  0
   25.9367   31.7468   44.1658 O   0  0  0  0  0  0  0  0  0  0  0  0
   22.9953   26.3068   47.8593 O   0  0  0  0  0  0  0  0  0  0  0  0
   22.2600   28.2749   41.0238 O   0  0  0  0  0  0  0  0  0  0  0  0
  1  2  1  0
  2  3  1  0
  3  4  1  0
  4  5  1  0
  5  6  1  0
  6  7  1  0
  7  8  1  6
  7  9  1  0
  7 10  1  0
 10 11  2  0
 10 24  1  0
 11 12  1  0
 12 13  2  0
 14 13  1  1
 13 23  1  0
 14 15  1  0
 14 19  1  0
 15 16  1  0
 16 17  1  0
 16 25  1  1
 17 18  1  0
 18 19  1  0
 19 20  1  6
 20 21  1  0
 21 22  1  0
 22 26  1  0
 23 24  2  0
 23 27  1  0
M  END
$$$$
