
     RDKit          3D

 27 28  0  0  0  0  0  0  0  0999 V2000
   17.8823   -7.1845   42.5023 C   0  0  0  0  0  0  0  0  0  0  0  0
   19.0893   -7.0148   41.6169 C   0  0  0  0  0  0  0  0  0  0  0  0
   20.3644   -7.4163   42.2892 C   0  0  0  0  0  0  0  0  0  0  0  0
   21.5827   -7.2538   41.3710 C   0  0  0  0  0  0  0  0  0  0  0  0
   22.5894   -6.3418   41.9497 C   0  0  0  0  0  0  0  0  0  0  0  0
   23.6743   -7.0092   42.6921 C   0  0  0  0  0  0  0  0  0  0  0  0
   25.0832   -6.7284   42.3826 C   0  0  2  0  0  0  0  0  0  0  0  0
   26.0089   -6.9566   43.5764 C   0  0  0  0  0  0  0  0  0  0  0  0
   25.3477   -5.3773   41.7969 C   0  0  0  0  0  0  0  0  0  0  0  0
   25.5619   -7.7802   41.3898 C   0  0  0  0  0  0  0  0  0  0  0  0
   26.2869   -7.3754   40.2962 C   0  0  0  0  0  0  0  0  0  0  0  0
   26.7348   -8.2725   39.3517 C   0  0  0  0  0  0  0  0  0  0  0  0
   26.4101   -9.6000   39.5729 C   0  0  0  0  0  0  0  0  0  0  0  0
   26.8548  -10.6436   38.6120 C   0  0  2  0  0  0  0  0  0  0  0  0
   28.3477  -10.7283   38.5356 C   0  0  0  0  0  0  0  0  0  0  0  0
   28.8006  -11.8933   37.7292 C   0  0  1  0  0  0  0  0  0  0  0  0
   28.1204  -12.0036   36.3913 C   0  0  0  0  0  0  0  0  0  0  0  0
   26.6720  -11.6720   36.4159 C   0  0  0  0  0  0  0  0  0  0  0  0
   26.3242  -10.4301   37.2142 C   0  0  1  0  0  0  0  0  0  0  0  0
   24.8148  -10.3053   37.2089 C   0  0  0  0  0  0  0  0  0  0  0  0
   24.2061  -10.9577   36.0133 C   0  0  0  0  0  0  0  0  0  0  0  0
   22.7142  -11.1691   36.1416 C   0  0  0  0  0  0  0  0  0  0  0  0
   25.6874  -10.0155   40.6598 C   0  0  0  0  0  0  0  0  0  0  0  0
   25.2511   -9.0773   41.5945 C   0  0  0  0  0  0  0  0  0  0  0  0
   30.1758  -11.7203   37.4674 O   0  0  0  0  0  0  0  0  0  0  0  0
   22.1223  -11.3936   34.9042 O   0  0  0  0  0  0  0  0  0  0  0  0
   25.3730  -11.3501   40.8625 O   0  0  0  0  0  0  0  0  0  0  0  0
  1  2  1  0
  2  3  1  0
  3  4  1  0
  4  5  1  0
  5  6  1  0
  6  7  1  0
  7  8  1  1
  7  9  1  0
  7 10  1  0
 10 11  2  0
 10 24  1  0
 11 12  1  0
 12 13  2  0
 14 13  1  1
 13 23  1  0
 14 15  1  0
 14 19  1  0
 15 16  1  0
 16 17  1  0
 16 25  1  6
 17 18  1  0
 18 19  1  0
 19 20  1  1
 20 21  1  0
 21 22  1  0
 22 26  1  0
 23 24  2  0
 23 27  1  0
M  END
$$$$
