
     RDKit          3D

 27 28  0  0  0  0  0  0  0  0999 V2000
   22.4660   -5.3263   46.4649 C   0  0  0  0  0  0  0  0  0  0  0  0
   22.5831   -6.4654   45.4858 C   0  0  0  0  0  0  0  0  0  0  0  0
   22.6771   -6.0038   44.0656 C   0  0  0  0  0  0  0  0  0  0  0  0
   22.8124   -7.1729   43.0813 C   0  0  0  0  0  0  0  0  0  0  0  0
   23.1368   -6.7087   41.7178 C   0  0  0  0  0  0  0  0  0  0  0  0
   24.5673   -6.7718   41.3670 C   0  0  0  0  0  0  0  0  0  0  0  0
   25.0198   -6.5006   39.9953 C   0  0  2  0  0  0  0  0  0  0  0  0
   26.4501   -5.9667   39.9379 C   0  0  0  0  0  0  0  0  0  0  0  0
   24.1222   -5.6106   39.1948 C   0  0  0  0  0  0  0  0  0  0  0  0
   25.1378   -7.8352   39.2700 C   0  0  0  0  0  0  0  0  0  0  0  0
   25.6670   -8.9087   39.9430 C   0  0  0  0  0  0  0  0  0  0  0  0
   25.8176  -10.1384   39.3407 C   0  0  0  0  0  0  0  0  0  0  0  0
   25.4046  -10.2234   38.0220 C   0  0  0  0  0  0  0  0  0  0  0  0
   25.5214  -11.5113   37.2886 C   0  0  2  0  0  0  0  0  0  0  0  0
   24.3420  -12.4001   37.5359 C   0  0  0  0  0  0  0  0  0  0  0  0
   24.3548  -13.6020   36.6595 C   0  0  1  0  0  0  0  0  0  0  0  0
   25.6706  -14.3323   36.6539 C   0  0  0  0  0  0  0  0  0  0  0  0
   26.8606  -13.4422   36.6625 C   0  0  0  0  0  0  0  0  0  0  0  0
   26.7722  -12.2827   37.6364 C   0  0  1  0  0  0  0  0  0  0  0  0
   28.0147  -11.4394   37.4390 C   0  0  0  0  0  0  0  0  0  0  0  0
   28.6095  -11.6325   36.0845 C   0  0  0  0  0  0  0  0  0  0  0  0
   29.6505  -10.5928   35.7344 C   0  0  0  0  0  0  0  0  0  0  0  0
   24.8757   -9.1595   37.3405 C   0  0  0  0  0  0  0  0  0  0  0  0
   24.7391   -7.9302   37.9842 C   0  0  0  0  0  0  0  0  0  0  0  0
   23.3961  -14.5057   37.1633 O   0  0  0  0  0  0  0  0  0  0  0  0
   30.2673  -10.8764   34.5216 O   0  0  0  0  0  0  0  0  0  0  0  0
   24.4682   -9.2660   36.0200 O   0  0  0  0  0  0  0  0  0  0  0  0
  1  2  1  0
  2  3  1  0
  3  4  1  0
  4  5  1  0
  5  6  1  0
  6  7  1  0
  7  8  1  1
  7  9  1  0
  7 10  1  0
 10 11  2  0
 10 24  1  0
 11 12  1  0
 12 13  2  0
 14 13  1  1
 13 23  1  0
 14 15  1  0
 14 19  1  0
 15 16  1  0
 16 17  1  0
 16 25  1  1
 17 18  1  0
 18 19  1  0
 19 20  1  6
 20 21  1  0
 21 22  1  0
 22 26  1  0
 23 24  2  0
 23 27  1  0
M  END
$$$$
