
     RDKit          3D

 27 28  0  0  0  0  0  0  0  0999 V2000
   21.0892   -5.9191   46.0394 C   0  0  0  0  0  0  0  0  0  0  0  0
   21.7112   -5.2041   44.8683 C   0  0  0  0  0  0  0  0  0  0  0  0
   21.8935   -6.0902   43.6763 C   0  0  0  0  0  0  0  0  0  0  0  0
   22.6682   -5.3965   42.5484 C   0  0  0  0  0  0  0  0  0  0  0  0
   23.1049   -6.3533   41.5122 C   0  0  0  0  0  0  0  0  0  0  0  0
   24.5475   -6.6573   41.5197 C   0  0  0  0  0  0  0  0  0  0  0  0
   25.3868   -6.3590   40.3508 C   0  0  2  0  0  0  0  0  0  0  0  0
   26.8806   -6.3979   40.6686 C   0  0  0  0  0  0  0  0  0  0  0  0
   25.0599   -5.0817   39.6435 C   0  0  0  0  0  0  0  0  0  0  0  0
   25.2318   -7.5057   39.3596 C   0  0  0  0  0  0  0  0  0  0  0  0
   24.9264   -7.2134   38.0532 C   0  0  0  0  0  0  0  0  0  0  0  0
   24.7555   -8.2033   37.1105 C   0  0  0  0  0  0  0  0  0  0  0  0
   24.9099   -9.5034   37.5603 C   0  0  0  0  0  0  0  0  0  0  0  0
   24.7511  -10.6401   36.6154 C   0  0  2  0  0  0  0  0  0  0  0  0
   23.5323  -11.4531   36.9243 C   0  0  0  0  0  0  0  0  0  0  0  0
   23.2582  -12.4702   35.8741 C   0  0  1  0  0  0  0  0  0  0  0  0
   24.4595  -13.2989   35.5068 C   0  0  0  0  0  0  0  0  0  0  0  0
   25.7311  -12.5325   35.4439 C   0  0  0  0  0  0  0  0  0  0  0  0
   25.9423  -11.5682   36.5955 C   0  0  1  0  0  0  0  0  0  0  0  0
   27.2258  -10.8144   36.3157 C   0  0  0  0  0  0  0  0  0  0  0  0
   28.3982  -11.7307   36.2097 C   0  0  0  0  0  0  0  0  0  0  0  0
   29.4560  -11.2401   35.2466 C   0  0  0  0  0  0  0  0  0  0  0  0
   25.2141   -9.8071   38.8608 C   0  0  0  0  0  0  0  0  0  0  0  0
   25.3793   -8.7774   39.7864 C   0  0  0  0  0  0  0  0  0  0  0  0
   22.2960  -13.3641   36.3889 O   0  0  0  0  0  0  0  0  0  0  0  0
   29.6155  -12.1122   34.1762 O   0  0  0  0  0  0  0  0  0  0  0  0
   25.3644  -11.1162   39.2906 O   0  0  0  0  0  0  0  0  0  0  0  0
  1  2  1  0
  2  3  1  0
  3  4  1  0
  4  5  1  0
  5  6  1  0
  6  7  1  0
  7  8  1  1
  7  9  1  0
  7 10  1  0
 10 11  2  0
 10 24  1  0
 11 12  1  0
 12 13  2  0
 14 13  1  1
 13 23  1  0
 14 15  1  0
 14 19  1  0
 15 16  1  0
 16 17  1  0
 16 25  1  1
 17 18  1  0
 18 19  1  0
 19 20  1  6
 20 21  1  0
 21 22  1  0
 22 26  1  0
 23 24  2  0
 23 27  1  0
M  END
$$$$
