
     RDKit          3D

 27 28  0  0  0  0  0  0  0  0999 V2000
   20.9990   -7.8988   45.1983 C   0  0  0  0  0  0  0  0  0  0  0  0
   21.3643   -6.6964   44.3673 C   0  0  0  0  0  0  0  0  0  0  0  0
   22.5216   -6.9512   43.4537 C   0  0  0  0  0  0  0  0  0  0  0  0
   22.6402   -5.8879   42.3541 C   0  0  0  0  0  0  0  0  0  0  0  0
   24.0418   -5.6805   41.9387 C   0  0  0  0  0  0  0  0  0  0  0  0
   24.5208   -6.6050   40.8951 C   0  0  0  0  0  0  0  0  0  0  0  0
   25.8027   -6.3744   40.2144 C   0  0  2  0  0  0  0  0  0  0  0  0
   26.9917   -6.3767   41.1737 C   0  0  0  0  0  0  0  0  0  0  0  0
   25.8552   -5.1492   39.3572 C   0  0  0  0  0  0  0  0  0  0  0  0
   26.0884   -7.5846   39.3340 C   0  0  0  0  0  0  0  0  0  0  0  0
   25.8228   -7.5012   37.9894 C   0  0  0  0  0  0  0  0  0  0  0  0
   26.0417   -8.5640   37.1407 C   0  0  0  0  0  0  0  0  0  0  0  0
   26.5431   -9.7145   37.7250 C   0  0  0  0  0  0  0  0  0  0  0  0
   26.8182  -10.9129   36.8893 C   0  0  2  0  0  0  0  0  0  0  0  0
   27.9369  -10.6717   35.9238 C   0  0  0  0  0  0  0  0  0  0  0  0
   28.3477  -11.9174   35.2223 C   0  0  1  0  0  0  0  0  0  0  0  0
   27.1966  -12.6869   34.6327 C   0  0  0  0  0  0  0  0  0  0  0  0
   25.9825  -12.7170   35.4892 C   0  0  0  0  0  0  0  0  0  0  0  0
   25.6147  -11.3813   36.1065 C   0  0  1  0  0  0  0  0  0  0  0  0
   24.4252  -11.6218   37.0127 C   0  0  0  0  0  0  0  0  0  0  0  0
   23.3563  -10.6006   36.8117 C   0  0  0  0  0  0  0  0  0  0  0  0
   22.0937  -10.8947   37.5904 C   0  0  0  0  0  0  0  0  0  0  0  0
   26.8115   -9.8094   39.0649 C   0  0  0  0  0  0  0  0  0  0  0  0
   26.5767   -8.7120   39.8923 C   0  0  0  0  0  0  0  0  0  0  0  0
   29.1759  -11.5443   34.1432 O   0  0  0  0  0  0  0  0  0  0  0  0
   20.9637  -10.4396   36.9212 O   0  0  0  0  0  0  0  0  0  0  0  0
   27.3135  -10.9712   39.6300 O   0  0  0  0  0  0  0  0  0  0  0  0
  1  2  1  0
  2  3  1  0
  3  4  1  0
  4  5  1  0
  5  6  1  0
  6  7  1  0
  7  8  1  1
  7  9  1  0
  7 10  1  0
 10 11  2  0
 10 24  1  0
 11 12  1  0
 12 13  2  0
 14 13  1  6
 13 23  1  0
 14 15  1  0
 14 19  1  0
 15 16  1  0
 16 17  1  0
 16 25  1  6
 17 18  1  0
 18 19  1  0
 19 20  1  1
 20 21  1  0
 21 22  1  0
 22 26  1  0
 23 24  2  0
 23 27  1  0
M  END
$$$$
