
     RDKit          3D

 27 28  0  0  0  0  0  0  0  0999 V2000
   22.1611   -6.9021   47.6786 C   0  0  0  0  0  0  0  0  0  0  0  0
   22.6015   -6.1748   46.4349 C   0  0  0  0  0  0  0  0  0  0  0  0
   23.5215   -6.9889   45.5806 C   0  0  0  0  0  0  0  0  0  0  0  0
   24.3740   -6.1176   44.6489 C   0  0  0  0  0  0  0  0  0  0  0  0
   23.8207   -6.0712   43.2808 C   0  0  0  0  0  0  0  0  0  0  0  0
   24.3344   -7.1107   42.3704 C   0  0  0  0  0  0  0  0  0  0  0  0
   24.2014   -6.9696   40.9136 C   0  0  2  0  0  0  0  0  0  0  0  0
   24.9059   -5.7268   40.3720 C   0  0  0  0  0  0  0  0  0  0  0  0
   22.7980   -7.0130   40.3969 C   0  0  0  0  0  0  0  0  0  0  0  0
   24.9847   -8.1018   40.2612 C   0  0  0  0  0  0  0  0  0  0  0  0
   26.1043   -7.7942   39.5281 C   0  0  0  0  0  0  0  0  0  0  0  0
   26.8476   -8.7681   38.8982 C   0  0  0  0  0  0  0  0  0  0  0  0
   26.3977  -10.0685   39.0497 C   0  0  0  0  0  0  0  0  0  0  0  0
   27.1375  -11.1895   38.4123 C   0  0  2  0  0  0  0  0  0  0  0  0
   28.5712  -11.2248   38.8429 C   0  0  0  0  0  0  0  0  0  0  0  0
   29.2675  -12.4498   38.3665 C   0  0  1  0  0  0  0  0  0  0  0  0
   29.0705  -12.7258   36.9003 C   0  0  0  0  0  0  0  0  0  0  0  0
   27.6958  -12.4491   36.4084 C   0  0  0  0  0  0  0  0  0  0  0  0
   27.1011  -11.1444   36.9032 C   0  0  1  0  0  0  0  0  0  0  0  0
   25.6791  -11.0785   36.3862 C   0  0  0  0  0  0  0  0  0  0  0  0
   25.5935  -11.4462   34.9429 C   0  0  0  0  0  0  0  0  0  0  0  0
   24.1913  -11.7951   34.4965 C   0  0  0  0  0  0  0  0  0  0  0  0
   25.2824  -10.3873   39.7782 C   0  0  0  0  0  0  0  0  0  0  0  0
   24.5556   -9.3736   40.4013 C   0  0  0  0  0  0  0  0  0  0  0  0
   30.6514  -12.2529   38.5556 O   0  0  0  0  0  0  0  0  0  0  0  0
   24.1608  -12.1737   33.1595 O   0  0  0  0  0  0  0  0  0  0  0  0
   24.8489  -11.6964   39.9173 O   0  0  0  0  0  0  0  0  0  0  0  0
  1  2  1  0
  2  3  1  0
  3  4  1  0
  4  5  1  0
  5  6  1  0
  6  7  1  0
  7  8  1  6
  7  9  1  0
  7 10  1  0
 10 11  2  0
 10 24  1  0
 11 12  1  0
 12 13  2  0
 14 13  1  1
 13 23  1  0
 14 15  1  0
 14 19  1  0
 15 16  1  0
 16 17  1  0
 16 25  1  6
 17 18  1  0
 18 19  1  0
 19 20  1  1
 20 21  1  0
 21 22  1  0
 22 26  1  0
 23 24  2  0
 23 27  1  0
M  END
$$$$
