
     RDKit          3D

 27 28  0  0  0  0  0  0  0  0999 V2000
   -1.9648   36.1971   48.8153 C   0  0  0  0  0  0  0  0  0  0  0  0
   -1.1286   36.9750   49.7978 C   0  0  0  0  0  0  0  0  0  0  0  0
   -0.3821   36.0951   50.7505 C   0  0  0  0  0  0  0  0  0  0  0  0
    0.5211   36.8964   51.6970 C   0  0  0  0  0  0  0  0  0  0  0  0
    1.3375   36.0149   52.5552 C   0  0  0  0  0  0  0  0  0  0  0  0
    1.8695   34.8162   51.8818 C   0  0  0  0  0  0  0  0  0  0  0  0
    2.8838   33.9743   52.5315 C   0  0  2  0  0  0  0  0  0  0  0  0
    3.4266   34.5890   53.8206 C   0  0  0  0  0  0  0  0  0  0  0  0
    4.0248   33.5639   51.6550 C   0  0  0  0  0  0  0  0  0  0  0  0
    2.1919   32.7136   53.0345 C   0  0  0  0  0  0  0  0  0  0  0  0
    1.2851   32.8216   54.0599 C   0  0  0  0  0  0  0  0  0  0  0  0
    0.6375   31.7194   54.5732 C   0  0  0  0  0  0  0  0  0  0  0  0
    0.9564   30.5032   53.9938 C   0  0  0  0  0  0  0  0  0  0  0  0
    0.3043   29.2571   54.4756 C   0  0  2  0  0  0  0  0  0  0  0  0
   -1.1888   29.3669   54.4523 C   0  0  0  0  0  0  0  0  0  0  0  0
   -1.8491   28.0666   54.7453 C   0  0  1  0  0  0  0  0  0  0  0  0
   -1.3133   27.3792   55.9721 C   0  0  0  0  0  0  0  0  0  0  0  0
    0.1602   27.4840   56.1337 C   0  0  0  0  0  0  0  0  0  0  0  0
    0.7251   28.8673   55.8726 C   0  0  1  0  0  0  0  0  0  0  0  0
    2.2316   28.7622   55.9872 C   0  0  0  0  0  0  0  0  0  0  0  0
    2.6443   27.7025   56.9528 C   0  0  0  0  0  0  0  0  0  0  0  0
    2.9023   28.2304   58.3463 C   0  0  0  0  0  0  0  0  0  0  0  0
    1.8593   30.3832   52.9708 C   0  0  0  0  0  0  0  0  0  0  0  0
    2.4950   31.5221   52.4779 C   0  0  0  0  0  0  0  0  0  0  0  0
   -3.2124   28.3289   54.9951 O   0  0  0  0  0  0  0  0  0  0  0  0
    2.7367   27.2391   59.3063 O   0  0  0  0  0  0  0  0  0  0  0  0
    2.1644   29.1554   52.4045 O   0  0  0  0  0  0  0  0  0  0  0  0
  1  2  1  0
  2  3  1  0
  3  4  1  0
  4  5  1  0
  5  6  1  0
  6  7  1  0
  7  8  1  1
  7  9  1  0
  7 10  1  0
 10 11  2  0
 10 24  1  0
 11 12  1  0
 12 13  2  0
 14 13  1  1
 13 23  1  0
 14 15  1  0
 14 19  1  0
 15 16  1  0
 16 17  1  0
 16 25  1  1
 17 18  1  0
 18 19  1  0
 19 20  1  6
 20 21  1  0
 21 22  1  0
 22 26  1  0
 23 24  2  0
 23 27  1  0
M  END
$$$$
