
     RDKit          3D

 27 28  0  0  0  0  0  0  0  0999 V2000
   24.9646   -0.2377   41.6273 C   0  0  0  0  0  0  0  0  0  0  0  0
   24.9493   -1.5909   40.9652 C   0  0  0  0  0  0  0  0  0  0  0  0
   24.9036   -2.7183   41.9481 C   0  0  0  0  0  0  0  0  0  0  0  0
   25.1344   -4.0809   41.2819 C   0  0  0  0  0  0  0  0  0  0  0  0
   23.9916   -4.9932   41.4860 C   0  0  0  0  0  0  0  0  0  0  0  0
   24.2320   -6.0784   42.4545 C   0  0  0  0  0  0  0  0  0  0  0  0
   23.4708   -7.3336   42.3844 C   0  0  2  0  0  0  0  0  0  0  0  0
   22.1766   -7.1977   41.5838 C   0  0  0  0  0  0  0  0  0  0  0  0
   23.1763   -7.9724   43.7049 C   0  0  0  0  0  0  0  0  0  0  0  0
   24.2736   -8.3205   41.5461 C   0  0  0  0  0  0  0  0  0  0  0  0
   25.5096   -7.9420   41.0830 C   0  0  0  0  0  0  0  0  0  0  0  0
   26.2794   -8.7793   40.3058 C   0  0  0  0  0  0  0  0  0  0  0  0
   25.7318  -10.0189   40.0225 C   0  0  0  0  0  0  0  0  0  0  0  0
   26.4901  -10.9946   39.1959 C   0  0  2  0  0  0  0  0  0  0  0  0
   27.8202  -11.3202   39.8015 C   0  0  0  0  0  0  0  0  0  0  0  0
   28.5003  -12.4352   39.0896 C   0  0  1  0  0  0  0  0  0  0  0  0
   28.5435  -12.2613   37.5954 C   0  0  0  0  0  0  0  0  0  0  0  0
   27.2991  -11.6956   37.0124 C   0  0  0  0  0  0  0  0  0  0  0  0
   26.7213  -10.5221   37.7803 C   0  0  1  0  0  0  0  0  0  0  0  0
   25.4198  -10.1445   37.1040 C   0  0  0  0  0  0  0  0  0  0  0  0
   25.6101   -9.8526   35.6534 C   0  0  0  0  0  0  0  0  0  0  0  0
   24.4073  -10.2086   34.8086 C   0  0  0  0  0  0  0  0  0  0  0  0
   24.5000  -10.4073   40.4786 C   0  0  0  0  0  0  0  0  0  0  0  0
   23.7500   -9.5316   41.2628 C   0  0  0  0  0  0  0  0  0  0  0  0
   29.8403  -12.4657   39.5292 O   0  0  0  0  0  0  0  0  0  0  0  0
   24.5076   -9.6772   33.5282 O   0  0  0  0  0  0  0  0  0  0  0  0
   23.9700  -11.6534   40.1833 O   0  0  0  0  0  0  0  0  0  0  0  0
  1  2  1  0
  2  3  1  0
  3  4  1  0
  4  5  1  0
  5  6  1  0
  6  7  1  0
  7  8  1  6
  7  9  1  0
  7 10  1  0
 10 11  2  0
 10 24  1  0
 11 12  1  0
 12 13  2  0
 14 13  1  1
 13 23  1  0
 14 15  1  0
 14 19  1  0
 15 16  1  0
 16 17  1  0
 16 25  1  1
 17 18  1  0
 18 19  1  0
 19 20  1  6
 20 21  1  0
 21 22  1  0
 22 26  1  0
 23 24  2  0
 23 27  1  0
M  END
$$$$
