
     RDKit          3D

 27 28  0  0  0  0  0  0  0  0999 V2000
   20.0931   -4.7475   44.6019 C   0  0  0  0  0  0  0  0  0  0  0  0
   21.1216   -5.8346   44.4278 C   0  0  0  0  0  0  0  0  0  0  0  0
   21.1323   -6.4086   43.0460 C   0  0  0  0  0  0  0  0  0  0  0  0
   22.2575   -7.4330   42.8499 C   0  0  0  0  0  0  0  0  0  0  0  0
   23.2923   -6.9414   41.9185 C   0  0  0  0  0  0  0  0  0  0  0  0
   24.6760   -7.0589   42.4135 C   0  0  0  0  0  0  0  0  0  0  0  0
   25.8136   -6.6605   41.5728 C   0  0  2  0  0  0  0  0  0  0  0  0
   27.1393   -6.6583   42.3322 C   0  0  0  0  0  0  0  0  0  0  0  0
   25.6475   -5.3585   40.8546 C   0  0  0  0  0  0  0  0  0  0  0  0
   26.0319   -7.7533   40.5339 C   0  0  0  0  0  0  0  0  0  0  0  0
   26.0835   -7.4032   39.2071 C   0  0  0  0  0  0  0  0  0  0  0  0
   26.2608   -8.3437   38.2163 C   0  0  0  0  0  0  0  0  0  0  0  0
   26.3828   -9.6561   38.6395 C   0  0  0  0  0  0  0  0  0  0  0  0
   26.5837  -10.7420   37.6442 C   0  0  2  0  0  0  0  0  0  0  0  0
   27.9515  -10.6929   37.0371 C   0  0  0  0  0  0  0  0  0  0  0  0
   28.2296  -11.8832   36.1894 C   0  0  1  0  0  0  0  0  0  0  0  0
   27.1393  -12.1870   35.1976 C   0  0  0  0  0  0  0  0  0  0  0  0
   25.7642  -11.9926   35.7263 C   0  0  0  0  0  0  0  0  0  0  0  0
   25.5712  -10.7170   36.5239 C   0  0  1  0  0  0  0  0  0  0  0  0
   24.1544  -10.7360   37.0588 C   0  0  0  0  0  0  0  0  0  0  0  0
   23.4252  -11.9750   36.6604 C   0  0  0  0  0  0  0  0  0  0  0  0
   22.4096  -11.7452   35.5636 C   0  0  0  0  0  0  0  0  0  0  0  0
   26.3326  -10.0173   39.9599 C   0  0  0  0  0  0  0  0  0  0  0  0
   26.1516   -9.0365   40.9343 C   0  0  0  0  0  0  0  0  0  0  0  0
   29.3909  -11.6077   35.4377 O   0  0  0  0  0  0  0  0  0  0  0  0
   21.7395  -12.9176   35.2347 O   0  0  0  0  0  0  0  0  0  0  0  0
   26.4570  -11.3377   40.3624 O   0  0  0  0  0  0  0  0  0  0  0  0
  1  2  1  0
  2  3  1  0
  3  4  1  0
  4  5  1  0
  5  6  1  0
  6  7  1  0
  7  8  1  1
  7  9  1  0
  7 10  1  0
 10 11  2  0
 10 24  1  0
 11 12  1  0
 12 13  2  0
 14 13  1  1
 13 23  1  0
 14 15  1  0
 14 19  1  0
 15 16  1  0
 16 17  1  0
 16 25  1  6
 17 18  1  0
 18 19  1  0
 19 20  1  1
 20 21  1  0
 21 22  1  0
 22 26  1  0
 23 24  2  0
 23 27  1  0
M  END
$$$$
