
     RDKit          3D

 27 28  0  0  0  0  0  0  0  0999 V2000
   22.9579   -6.8497   47.5499 C   0  0  0  0  0  0  0  0  0  0  0  0
   23.0523   -6.3715   46.1244 C   0  0  0  0  0  0  0  0  0  0  0  0
   23.7983   -7.3212   45.2409 C   0  0  0  0  0  0  0  0  0  0  0  0
   24.4562   -6.6131   44.0494 C   0  0  0  0  0  0  0  0  0  0  0  0
   24.4951   -7.4746   42.8510 C   0  0  0  0  0  0  0  0  0  0  0  0
   23.2312   -7.5396   42.0948 C   0  0  0  0  0  0  0  0  0  0  0  0
   23.2337   -7.6067   40.6268 C   0  0  2  0  0  0  0  0  0  0  0  0
   23.6734   -6.2968   39.9747 C   0  0  0  0  0  0  0  0  0  0  0  0
   21.9503   -8.0653   40.0097 C   0  0  0  0  0  0  0  0  0  0  0  0
   24.3362   -8.5699   40.2051 C   0  0  0  0  0  0  0  0  0  0  0  0
   25.5407   -8.0560   39.7922 C   0  0  0  0  0  0  0  0  0  0  0  0
   26.5731   -8.8704   39.3815 C   0  0  0  0  0  0  0  0  0  0  0  0
   26.3214  -10.2315   39.4110 C   0  0  0  0  0  0  0  0  0  0  0  0
   27.3768  -11.1912   38.9923 C   0  0  2  0  0  0  0  0  0  0  0  0
   28.6537  -10.9754   39.7440 C   0  0  0  0  0  0  0  0  0  0  0  0
   29.6485  -12.0480   39.4746 C   0  0  1  0  0  0  0  0  0  0  0  0
   29.8503  -12.3316   38.0105 C   0  0  0  0  0  0  0  0  0  0  0  0
   28.6010  -12.2984   37.2065 C   0  0  0  0  0  0  0  0  0  0  0  0
   27.6849  -11.1296   37.5152 C   0  0  1  0  0  0  0  0  0  0  0  0
   26.4337  -11.3119   36.6814 C   0  0  0  0  0  0  0  0  0  0  0  0
   26.6334  -10.8651   35.2721 C   0  0  0  0  0  0  0  0  0  0  0  0
   25.4751  -11.2129   34.3642 C   0  0  0  0  0  0  0  0  0  0  0  0
   25.1241  -10.7556   39.8207 C   0  0  0  0  0  0  0  0  0  0  0  0
   24.1026   -9.8988   40.2291 C   0  0  0  0  0  0  0  0  0  0  0  0
   30.8926  -11.6088   39.9737 O   0  0  0  0  0  0  0  0  0  0  0  0
   25.6625  -10.7099   33.0822 O   0  0  0  0  0  0  0  0  0  0  0  0
   24.8927  -12.1220   39.8427 O   0  0  0  0  0  0  0  0  0  0  0  0
  1  2  1  0
  2  3  1  0
  3  4  1  0
  4  5  1  0
  5  6  1  0
  6  7  1  0
  7  8  1  6
  7  9  1  0
  7 10  1  0
 10 11  2  0
 10 24  1  0
 11 12  1  0
 12 13  2  0
 14 13  1  1
 13 23  1  0
 14 15  1  0
 14 19  1  0
 15 16  1  0
 16 17  1  0
 16 25  1  6
 17 18  1  0
 18 19  1  0
 19 20  1  6
 20 21  1  0
 21 22  1  0
 22 26  1  0
 23 24  2  0
 23 27  1  0
M  END
$$$$
