
     RDKit          3D

 27 28  0  0  0  0  0  0  0  0999 V2000
   22.9276   -6.7682   46.6683 C   0  0  0  0  0  0  0  0  0  0  0  0
   22.9877   -7.1882   45.2228 C   0  0  0  0  0  0  0  0  0  0  0  0
   23.9208   -6.3459   44.4111 C   0  0  0  0  0  0  0  0  0  0  0  0
   24.5141   -7.1140   43.2229 C   0  0  0  0  0  0  0  0  0  0  0  0
   23.7736   -6.8503   41.9730 C   0  0  0  0  0  0  0  0  0  0  0  0
   24.5553   -6.1735   40.9222 C   0  0  0  0  0  0  0  0  0  0  0  0
   24.2050   -6.3296   39.5035 C   0  0  2  0  0  0  0  0  0  0  0  0
   24.6164   -5.1269   38.6559 C   0  0  0  0  0  0  0  0  0  0  0  0
   22.7708   -6.6616   39.2363 C   0  0  0  0  0  0  0  0  0  0  0  0
   25.0677   -7.4466   38.9296 C   0  0  0  0  0  0  0  0  0  0  0  0
   26.2776   -7.7170   39.5199 C   0  0  0  0  0  0  0  0  0  0  0  0
   27.1134   -8.7014   39.0405 C   0  0  0  0  0  0  0  0  0  0  0  0
   26.6598   -9.3969   37.9328 C   0  0  0  0  0  0  0  0  0  0  0  0
   27.4890  -10.4826   37.3465 C   0  0  2  0  0  0  0  0  0  0  0  0
   27.8816  -10.1804   35.9335 C   0  0  0  0  0  0  0  0  0  0  0  0
   28.8669  -11.1616   35.4054 C   0  0  1  0  0  0  0  0  0  0  0  0
   28.4704  -12.5961   35.6282 C   0  0  0  0  0  0  0  0  0  0  0  0
   27.8426  -12.8557   36.9498 C   0  0  0  0  0  0  0  0  0  0  0  0
   26.8062  -11.8295   37.3666 C   0  0  1  0  0  0  0  0  0  0  0  0
   26.3512  -12.1979   38.7634 C   0  0  0  0  0  0  0  0  0  0  0  0
   25.1590  -13.0944   38.7425 C   0  0  0  0  0  0  0  0  0  0  0  0
   24.9166  -13.7985   40.0588 C   0  0  0  0  0  0  0  0  0  0  0  0
   25.4551   -9.1359   37.3354 C   0  0  0  0  0  0  0  0  0  0  0  0
   24.6363   -8.1312   37.8496 C   0  0  0  0  0  0  0  0  0  0  0  0
   28.9428  -10.9782   34.0089 O   0  0  0  0  0  0  0  0  0  0  0  0
   23.7578  -14.5651   40.0218 O   0  0  0  0  0  0  0  0  0  0  0  0
   25.0195   -9.8443   36.2266 O   0  0  0  0  0  0  0  0  0  0  0  0
  1  2  1  0
  2  3  1  0
  3  4  1  0
  4  5  1  0
  5  6  1  0
  6  7  1  0
  7  8  1  6
  7  9  1  0
  7 10  1  0
 10 11  2  0
 10 24  1  0
 11 12  1  0
 12 13  2  0
 14 13  1  6
 13 23  1  0
 14 15  1  0
 14 19  1  0
 15 16  1  0
 16 17  1  0
 16 25  1  6
 17 18  1  0
 18 19  1  0
 19 20  1  1
 20 21  1  0
 21 22  1  0
 22 26  1  0
 23 24  2  0
 23 27  1  0
M  END
$$$$
