
     RDKit          3D

 27 28  0  0  0  0  0  0  0  0999 V2000
   18.9368   -5.5389   44.9275 C   0  0  0  0  0  0  0  0  0  0  0  0
   20.2702   -4.9435   44.5569 C   0  0  0  0  0  0  0  0  0  0  0  0
   20.9411   -5.6728   43.4358 C   0  0  0  0  0  0  0  0  0  0  0  0
   22.1652   -4.9185   42.9006 C   0  0  0  0  0  0  0  0  0  0  0  0
   22.4880   -5.3083   41.5136 C   0  0  0  0  0  0  0  0  0  0  0  0
   23.3006   -6.5319   41.3884 C   0  0  0  0  0  0  0  0  0  0  0  0
   24.7683   -6.4625   41.3592 C   0  0  2  0  0  0  0  0  0  0  0  0
   25.3946   -6.5793   42.7479 C   0  0  0  0  0  0  0  0  0  0  0  0
   25.3338   -5.2696   40.6552 C   0  0  0  0  0  0  0  0  0  0  0  0
   25.2814   -7.7155   40.6609 C   0  0  0  0  0  0  0  0  0  0  0  0
   26.4992   -7.6680   40.0283 C   0  0  0  0  0  0  0  0  0  0  0  0
   27.0132   -8.7596   39.3636 C   0  0  0  0  0  0  0  0  0  0  0  0
   26.2296   -9.9008   39.3734 C   0  0  0  0  0  0  0  0  0  0  0  0
   26.7025  -11.1325   38.6882 C   0  0  2  0  0  0  0  0  0  0  0  0
   27.7852  -11.8181   39.4627 C   0  0  0  0  0  0  0  0  0  0  0  0
   28.1275  -13.1467   38.8881 C   0  0  1  0  0  0  0  0  0  0  0  0
   28.3725  -13.1184   37.4036 C   0  0  0  0  0  0  0  0  0  0  0  0
   27.4472  -12.2321   36.6509 C   0  0  0  0  0  0  0  0  0  0  0  0
   27.2146  -10.8766   37.2907 C   0  0  1  0  0  0  0  0  0  0  0  0
   26.1829  -10.1569   36.4471 C   0  0  0  0  0  0  0  0  0  0  0  0
   25.3541  -11.1072   35.6500 C   0  0  0  0  0  0  0  0  0  0  0  0
   24.2684  -10.4262   34.8470 C   0  0  0  0  0  0  0  0  0  0  0  0
   25.0134   -9.9600   40.0007 C   0  0  0  0  0  0  0  0  0  0  0  0
   24.5262   -8.8339   40.6631 C   0  0  0  0  0  0  0  0  0  0  0  0
   29.3328  -13.5706   39.4860 O   0  0  0  0  0  0  0  0  0  0  0  0
   23.9325  -11.1615   33.7164 O   0  0  0  0  0  0  0  0  0  0  0  0
   24.2443  -11.1131   39.9985 O   0  0  0  0  0  0  0  0  0  0  0  0
  1  2  1  0
  2  3  1  0
  3  4  1  0
  4  5  1  0
  5  6  1  0
  6  7  1  0
  7  8  1  1
  7  9  1  0
  7 10  1  0
 10 11  2  0
 10 24  1  0
 11 12  1  0
 12 13  2  0
 14 13  1  1
 13 23  1  0
 14 15  1  0
 14 19  1  0
 15 16  1  0
 16 17  1  0
 16 25  1  1
 17 18  1  0
 18 19  1  0
 19 20  1  6
 20 21  1  0
 21 22  1  0
 22 26  1  0
 23 24  2  0
 23 27  1  0
M  END
$$$$
