
     RDKit          3D

 27 28  0  0  0  0  0  0  0  0999 V2000
   23.3082   -6.3257   47.5616 C   0  0  0  0  0  0  0  0  0  0  0  0
   22.5556   -7.2044   46.5966 C   0  0  0  0  0  0  0  0  0  0  0  0
   22.4779   -6.6227   45.2201 C   0  0  0  0  0  0  0  0  0  0  0  0
   23.5189   -7.2312   44.2715 C   0  0  0  0  0  0  0  0  0  0  0  0
   23.7251   -6.3949   43.0723 C   0  0  0  0  0  0  0  0  0  0  0  0
   24.2475   -7.1164   41.8976 C   0  0  0  0  0  0  0  0  0  0  0  0
   24.1868   -6.5176   40.5569 C   0  0  2  0  0  0  0  0  0  0  0  0
   24.9213   -5.1807   40.4713 C   0  0  0  0  0  0  0  0  0  0  0  0
   22.8104   -6.3682   39.9897 C   0  0  0  0  0  0  0  0  0  0  0  0
   24.9974   -7.3987   39.6147 C   0  0  0  0  0  0  0  0  0  0  0  0
   26.3166   -7.0898   39.3920 C   0  0  0  0  0  0  0  0  0  0  0  0
   27.1008   -7.8346   38.5388 C   0  0  0  0  0  0  0  0  0  0  0  0
   26.4790   -8.9077   37.9236 C   0  0  0  0  0  0  0  0  0  0  0  0
   27.2452   -9.7748   36.9902 C   0  0  2  0  0  0  0  0  0  0  0  0
   26.8417   -9.5504   35.5658 C   0  0  0  0  0  0  0  0  0  0  0  0
   27.7322  -10.2663   34.6135 C   0  0  1  0  0  0  0  0  0  0  0  0
   27.9468  -11.7152   34.9590 C   0  0  0  0  0  0  0  0  0  0  0  0
   28.0990  -11.9777   36.4138 C   0  0  0  0  0  0  0  0  0  0  0  0
   27.1015  -11.2474   37.2927 C   0  0  1  0  0  0  0  0  0  0  0  0
   27.4660  -11.5545   38.7303 C   0  0  0  0  0  0  0  0  0  0  0  0
   27.7884  -12.9978   38.9271 C   0  0  0  0  0  0  0  0  0  0  0  0
   27.0123  -13.6355   40.0577 C   0  0  0  0  0  0  0  0  0  0  0  0
   25.1639   -9.2253   38.1377 C   0  0  0  0  0  0  0  0  0  0  0  0
   24.4020   -8.4472   39.0086 C   0  0  0  0  0  0  0  0  0  0  0  0
   27.1081  -10.2434   33.3487 O   0  0  0  0  0  0  0  0  0  0  0  0
   25.9421  -14.3847   39.5832 O   0  0  0  0  0  0  0  0  0  0  0  0
   24.5605  -10.3044   37.5113 O   0  0  0  0  0  0  0  0  0  0  0  0
  1  2  1  0
  2  3  1  0
  3  4  1  0
  4  5  1  0
  5  6  1  0
  6  7  1  0
  7  8  1  1
  7  9  1  0
  7 10  1  0
 10 11  2  0
 10 24  1  0
 11 12  1  0
 12 13  2  0
 14 13  1  1
 13 23  1  0
 14 15  1  0
 14 19  1  0
 15 16  1  0
 16 17  1  0
 16 25  1  6
 17 18  1  0
 18 19  1  0
 19 20  1  1
 20 21  1  0
 21 22  1  0
 22 26  1  0
 23 24  2  0
 23 27  1  0
M  END
$$$$
