
     RDKit          3D

 27 28  0  0  0  0  0  0  0  0999 V2000
   22.9339   -6.4415   48.8134 C   0  0  0  0  0  0  0  0  0  0  0  0
   23.6014   -7.1749   47.6793 C   0  0  0  0  0  0  0  0  0  0  0  0
   23.4665   -6.4653   46.3689 C   0  0  0  0  0  0  0  0  0  0  0  0
   24.0740   -7.2646   45.2088 C   0  0  0  0  0  0  0  0  0  0  0  0
   23.9767   -6.5355   43.9285 C   0  0  0  0  0  0  0  0  0  0  0  0
   24.5543   -7.2407   42.7699 C   0  0  0  0  0  0  0  0  0  0  0  0
   24.0001   -7.0550   41.4215 C   0  0  2  0  0  0  0  0  0  0  0  0
   24.4104   -5.7255   40.7904 C   0  0  0  0  0  0  0  0  0  0  0  0
   22.5170   -7.2211   41.3160 C   0  0  0  0  0  0  0  0  0  0  0  0
   24.6605   -8.0735   40.5008 C   0  0  0  0  0  0  0  0  0  0  0  0
   25.5004   -7.6237   39.5119 C   0  0  0  0  0  0  0  0  0  0  0  0
   26.1156   -8.4897   38.6349 C   0  0  0  0  0  0  0  0  0  0  0  0
   25.8357   -9.8339   38.8120 C   0  0  0  0  0  0  0  0  0  0  0  0
   26.4577  -10.8462   37.9183 C   0  0  2  0  0  0  0  0  0  0  0  0
   27.9228  -10.9988   38.1869 C   0  0  0  0  0  0  0  0  0  0  0  0
   28.5121  -12.1406   37.4376 C   0  0  1  0  0  0  0  0  0  0  0  0
   28.1627  -12.1480   35.9738 C   0  0  0  0  0  0  0  0  0  0  0  0
   26.7617  -11.7487   35.6807 C   0  0  0  0  0  0  0  0  0  0  0  0
   26.2789  -10.5348   36.4514 C   0  0  1  0  0  0  0  0  0  0  0  0
   24.8185  -10.3372   36.1022 C   0  0  0  0  0  0  0  0  0  0  0  0
   24.1674  -11.6136   35.6870 C   0  0  0  0  0  0  0  0  0  0  0  0
   23.4939  -11.5299   34.3355 C   0  0  0  0  0  0  0  0  0  0  0  0
   24.9996  -10.2942   39.7944 C   0  0  0  0  0  0  0  0  0  0  0  0
   24.3949   -9.3866   40.6632 C   0  0  0  0  0  0  0  0  0  0  0  0
   29.9155  -12.0208   37.5148 O   0  0  0  0  0  0  0  0  0  0  0  0
   22.9224  -12.7441   33.9740 O   0  0  0  0  0  0  0  0  0  0  0  0
   24.7326  -11.6448   39.9545 O   0  0  0  0  0  0  0  0  0  0  0  0
  1  2  1  0
  2  3  1  0
  3  4  1  0
  4  5  1  0
  5  6  1  0
  6  7  1  0
  7  8  1  6
  7  9  1  0
  7 10  1  0
 10 11  2  0
 10 24  1  0
 11 12  1  0
 12 13  2  0
 14 13  1  1
 13 23  1  0
 14 15  1  0
 14 19  1  0
 15 16  1  0
 16 17  1  0
 16 25  1  6
 17 18  1  0
 18 19  1  0
 19 20  1  1
 20 21  1  0
 21 22  1  0
 22 26  1  0
 23 24  2  0
 23 27  1  0
M  END
$$$$
