
     RDKit          3D

 27 28  0  0  0  0  0  0  0  0999 V2000
   20.9915   -3.7194   45.2453 C   0  0  0  0  0  0  0  0  0  0  0  0
   22.3244   -3.5771   44.5577 C   0  0  0  0  0  0  0  0  0  0  0  0
   22.2415   -3.7920   43.0792 C   0  0  0  0  0  0  0  0  0  0  0  0
   22.8724   -5.1224   42.6481 C   0  0  0  0  0  0  0  0  0  0  0  0
   23.8231   -4.9439   41.5326 C   0  0  0  0  0  0  0  0  0  0  0  0
   23.9802   -6.1214   40.6595 C   0  0  0  0  0  0  0  0  0  0  0  0
   24.1570   -7.4643   41.2297 C   0  0  2  0  0  0  0  0  0  0  0  0
   22.8319   -8.1884   41.4620 C   0  0  0  0  0  0  0  0  0  0  0  0
   24.9824   -7.5214   42.4762 C   0  0  0  0  0  0  0  0  0  0  0  0
   24.8268   -8.3353   40.1742 C   0  0  0  0  0  0  0  0  0  0  0  0
   24.9525   -7.8472   38.8970 C   0  0  0  0  0  0  0  0  0  0  0  0
   25.5320   -8.5896   37.8917 C   0  0  0  0  0  0  0  0  0  0  0  0
   25.9771   -9.8512   38.2478 C   0  0  0  0  0  0  0  0  0  0  0  0
   26.6225  -10.7251   37.2330 C   0  0  2  0  0  0  0  0  0  0  0  0
   27.8623  -10.1015   36.6708 C   0  0  0  0  0  0  0  0  0  0  0  0
   28.6180  -11.0444   35.8034 C   0  0  1  0  0  0  0  0  0  0  0  0
   27.7657  -11.7309   34.7704 C   0  0  0  0  0  0  0  0  0  0  0  0
   26.4213  -12.1324   35.2600 C   0  0  0  0  0  0  0  0  0  0  0  0
   25.7094  -11.0751   36.0822 C   0  0  1  0  0  0  0  0  0  0  0  0
   24.4139  -11.6887   36.5713 C   0  0  0  0  0  0  0  0  0  0  0  0
   23.2514  -10.7779   36.3598 C   0  0  0  0  0  0  0  0  0  0  0  0
   21.9207  -11.4224   36.6774 C   0  0  0  0  0  0  0  0  0  0  0  0
   25.8569  -10.3488   39.5183 C   0  0  0  0  0  0  0  0  0  0  0  0
   25.2642   -9.5672   40.5093 C   0  0  0  0  0  0  0  0  0  0  0  0
   29.5797  -10.2934   35.0958 O   0  0  0  0  0  0  0  0  0  0  0  0
   21.2610  -11.8268   35.5228 O   0  0  0  0  0  0  0  0  0  0  0  0
   26.3094  -11.6151   39.8540 O   0  0  0  0  0  0  0  0  0  0  0  0
  1  2  1  0
  2  3  1  0
  3  4  1  0
  4  5  1  0
  5  6  1  0
  6  7  1  0
  7  8  1  1
  7  9  1  0
  7 10  1  0
 10 11  2  0
 10 24  1  0
 11 12  1  0
 12 13  2  0
 14 13  1  1
 13 23  1  0
 14 15  1  0
 14 19  1  0
 15 16  1  0
 16 17  1  0
 16 25  1  6
 17 18  1  0
 18 19  1  0
 19 20  1  1
 20 21  1  0
 21 22  1  0
 22 26  1  0
 23 24  2  0
 23 27  1  0
M  END
$$$$
