
     RDKit          3D

 27 28  0  0  0  0  0  0  0  0999 V2000
   21.6540   -5.4405   47.6821 C   0  0  0  0  0  0  0  0  0  0  0  0
   22.7962   -6.3651   47.3500 C   0  0  0  0  0  0  0  0  0  0  0  0
   23.7623   -5.7686   46.3754 C   0  0  0  0  0  0  0  0  0  0  0  0
   24.2358   -6.7855   45.3287 C   0  0  0  0  0  0  0  0  0  0  0  0
   23.8360   -6.3945   43.9622 C   0  0  0  0  0  0  0  0  0  0  0  0
   24.4085   -7.2267   42.8884 C   0  0  0  0  0  0  0  0  0  0  0  0
   23.9329   -7.1021   41.5035 C   0  0  2  0  0  0  0  0  0  0  0  0
   24.3093   -5.7658   40.8658 C   0  0  0  0  0  0  0  0  0  0  0  0
   22.4711   -7.3540   41.3089 C   0  0  0  0  0  0  0  0  0  0  0  0
   24.7062   -8.1016   40.6524 C   0  0  0  0  0  0  0  0  0  0  0  0
   25.6537   -7.6309   39.7771 C   0  0  0  0  0  0  0  0  0  0  0  0
   26.3757   -8.4789   38.9665 C   0  0  0  0  0  0  0  0  0  0  0  0
   26.0878   -9.8275   39.0889 C   0  0  0  0  0  0  0  0  0  0  0  0
   26.8197  -10.8215   38.2603 C   0  0  2  0  0  0  0  0  0  0  0  0
   28.2908  -10.8009   38.5384 C   0  0  0  0  0  0  0  0  0  0  0  0
   29.0030  -11.9179   37.8619 C   0  0  1  0  0  0  0  0  0  0  0  0
   28.6665  -12.0530   36.4014 C   0  0  0  0  0  0  0  0  0  0  0  0
   27.2331  -11.8236   36.0834 C   0  0  0  0  0  0  0  0  0  0  0  0
   26.6191  -10.6224   36.7768 C   0  0  1  0  0  0  0  0  0  0  0  0
   25.1485  -10.6029   36.4155 C   0  0  0  0  0  0  0  0  0  0  0  0
   24.9196  -10.9835   34.9913 C   0  0  0  0  0  0  0  0  0  0  0  0
   23.4557  -11.1072   34.6327 C   0  0  0  0  0  0  0  0  0  0  0  0
   25.1449  -10.3087   39.9582 C   0  0  0  0  0  0  0  0  0  0  0  0
   24.4340   -9.4188   40.7625 C   0  0  0  0  0  0  0  0  0  0  0  0
   30.3852  -11.6452   37.9320 O   0  0  0  0  0  0  0  0  0  0  0  0
   23.0009   -9.9852   33.9500 O   0  0  0  0  0  0  0  0  0  0  0  0
   24.8720  -11.6633   40.0652 O   0  0  0  0  0  0  0  0  0  0  0  0
  1  2  1  0
  2  3  1  0
  3  4  1  0
  4  5  1  0
  5  6  1  0
  6  7  1  0
  7  8  1  6
  7  9  1  0
  7 10  1  0
 10 11  2  0
 10 24  1  0
 11 12  1  0
 12 13  2  0
 14 13  1  1
 13 23  1  0
 14 15  1  0
 14 19  1  0
 15 16  1  0
 16 17  1  0
 16 25  1  6
 17 18  1  0
 18 19  1  0
 19 20  1  1
 20 21  1  0
 21 22  1  0
 22 26  1  0
 23 24  2  0
 23 27  1  0
M  END
$$$$
