
     RDKit          3D

 27 28  0  0  0  0  0  0  0  0999 V2000
   20.6601   -7.4816   45.1845 C   0  0  0  0  0  0  0  0  0  0  0  0
   21.0193   -6.9074   43.8388 C   0  0  0  0  0  0  0  0  0  0  0  0
   22.3899   -6.3074   43.8100 C   0  0  0  0  0  0  0  0  0  0  0  0
   22.7239   -5.6844   42.4483 C   0  0  0  0  0  0  0  0  0  0  0  0
   23.5049   -6.6057   41.5990 C   0  0  0  0  0  0  0  0  0  0  0  0
   24.9255   -6.7356   41.9711 C   0  0  0  0  0  0  0  0  0  0  0  0
   25.9890   -6.3969   41.0151 C   0  0  2  0  0  0  0  0  0  0  0  0
   27.3654   -6.2976   41.6708 C   0  0  0  0  0  0  0  0  0  0  0  0
   25.7379   -5.1722   40.1933 C   0  0  0  0  0  0  0  0  0  0  0  0
   26.1603   -7.5788   40.0690 C   0  0  0  0  0  0  0  0  0  0  0  0
   26.1672   -7.3465   38.7157 C   0  0  0  0  0  0  0  0  0  0  0  0
   26.3006   -8.3720   37.8055 C   0  0  0  0  0  0  0  0  0  0  0  0
   26.4264   -9.6438   38.3377 C   0  0  0  0  0  0  0  0  0  0  0  0
   26.5820  -10.8147   37.4350 C   0  0  2  0  0  0  0  0  0  0  0  0
   27.9753  -10.9199   36.8968 C   0  0  0  0  0  0  0  0  0  0  0  0
   28.1924  -12.1894   36.1527 C   0  0  1  0  0  0  0  0  0  0  0  0
   27.1268  -12.4811   35.1308 C   0  0  0  0  0  0  0  0  0  0  0  0
   25.7499  -12.1391   35.5729 C   0  0  0  0  0  0  0  0  0  0  0  0
   25.6268  -10.7953   36.2654 C   0  0  1  0  0  0  0  0  0  0  0  0
   24.1904  -10.6618   36.7269 C   0  0  0  0  0  0  0  0  0  0  0  0
   23.3939  -11.8880   36.4307 C   0  0  0  0  0  0  0  0  0  0  0  0
   21.9639  -11.8043   36.9156 C   0  0  0  0  0  0  0  0  0  0  0  0
   26.4207   -9.8876   39.6856 C   0  0  0  0  0  0  0  0  0  0  0  0
   26.2833   -8.8234   40.5760 C   0  0  0  0  0  0  0  0  0  0  0  0
   29.4053  -12.0645   35.4436 O   0  0  0  0  0  0  0  0  0  0  0  0
   21.1179  -12.5972   36.1493 O   0  0  0  0  0  0  0  0  0  0  0  0
   26.5481  -11.1692   40.1978 O   0  0  0  0  0  0  0  0  0  0  0  0
  1  2  1  0
  2  3  1  0
  3  4  1  0
  4  5  1  0
  5  6  1  0
  6  7  1  0
  7  8  1  1
  7  9  1  0
  7 10  1  0
 10 11  2  0
 10 24  1  0
 11 12  1  0
 12 13  2  0
 14 13  1  6
 13 23  1  0
 14 15  1  0
 14 19  1  0
 15 16  1  0
 16 17  1  0
 16 25  1  6
 17 18  1  0
 18 19  1  0
 19 20  1  1
 20 21  1  0
 21 22  1  0
 22 26  1  0
 23 24  2  0
 23 27  1  0
M  END
$$$$
