
     RDKit          3D

 27 28  0  0  0  0  0  0  0  0999 V2000
   19.4156   -6.0618   44.2181 C   0  0  0  0  0  0  0  0  0  0  0  0
   20.7975   -6.6578   44.2879 C   0  0  0  0  0  0  0  0  0  0  0  0
   21.8207   -5.8393   43.5652 C   0  0  0  0  0  0  0  0  0  0  0  0
   23.2252   -6.4497   43.6571 C   0  0  0  0  0  0  0  0  0  0  0  0
   24.1521   -5.8458   42.6793 C   0  0  0  0  0  0  0  0  0  0  0  0
   24.5802   -6.7475   41.5943 C   0  0  0  0  0  0  0  0  0  0  0  0
   25.9404   -6.6712   41.0434 C   0  0  2  0  0  0  0  0  0  0  0  0
   27.0190   -6.9608   42.0860 C   0  0  0  0  0  0  0  0  0  0  0  0
   26.2658   -5.3976   40.3289 C   0  0  0  0  0  0  0  0  0  0  0  0
   26.1127   -7.8249   40.0633 C   0  0  0  0  0  0  0  0  0  0  0  0
   26.1937   -7.5456   38.7213 C   0  0  0  0  0  0  0  0  0  0  0  0
   26.3322   -8.5429   37.7811 C   0  0  0  0  0  0  0  0  0  0  0  0
   26.3845   -9.8366   38.2712 C   0  0  0  0  0  0  0  0  0  0  0  0
   26.5394  -10.9802   37.3341 C   0  0  2  0  0  0  0  0  0  0  0  0
   27.9272  -11.0581   36.7774 C   0  0  0  0  0  0  0  0  0  0  0  0
   28.1464  -12.3042   35.9953 C   0  0  1  0  0  0  0  0  0  0  0  0
   27.0715  -12.5763   34.9778 C   0  0  0  0  0  0  0  0  0  0  0  0
   25.6970  -12.2590   35.4449 C   0  0  0  0  0  0  0  0  0  0  0  0
   25.5706  -10.9362   36.1764 C   0  0  1  0  0  0  0  0  0  0  0  0
   24.1386  -10.8283   36.6578 C   0  0  0  0  0  0  0  0  0  0  0  0
   23.2457  -11.8083   35.9738 C   0  0  0  0  0  0  0  0  0  0  0  0
   21.7970  -11.6910   36.3917 C   0  0  0  0  0  0  0  0  0  0  0  0
   26.3046  -10.1272   39.6074 C   0  0  0  0  0  0  0  0  0  0  0  0
   26.1644   -9.0904   40.5291 C   0  0  0  0  0  0  0  0  0  0  0  0
   29.3499  -12.1488   35.2763 O   0  0  0  0  0  0  0  0  0  0  0  0
   21.4472  -12.6801   37.3034 O   0  0  0  0  0  0  0  0  0  0  0  0
   26.3590  -11.4300   40.0773 O   0  0  0  0  0  0  0  0  0  0  0  0
  1  2  1  0
  2  3  1  0
  3  4  1  0
  4  5  1  0
  5  6  1  0
  6  7  1  0
  7  8  1  1
  7  9  1  0
  7 10  1  0
 10 11  2  0
 10 24  1  0
 11 12  1  0
 12 13  2  0
 14 13  1  6
 13 23  1  0
 14 15  1  0
 14 19  1  0
 15 16  1  0
 16 17  1  0
 16 25  1  6
 17 18  1  0
 18 19  1  0
 19 20  1  1
 20 21  1  0
 21 22  1  0
 22 26  1  0
 23 24  2  0
 23 27  1  0
M  END
$$$$
