
     RDKit          3D

 21 24  0  0  0  0  0  0  0  0999 V2000
   32.1671   33.2677   20.2757 C   0  0  0  0  0  0  0  0  0  0  0  0
   33.5191   29.7281   24.8391 C   0  0  0  0  0  0  0  0  0  0  0  0
   31.5610   30.9859   20.4262 C   0  0  0  0  0  0  0  0  0  0  0  0
   33.2681   33.0469   21.0864 C   0  0  0  0  0  0  0  0  0  0  0  0
   34.0143   29.9128   26.1158 C   0  0  0  0  0  0  0  0  0  0  0  0
   35.3813   29.7770   26.3365 C   0  0  0  0  0  0  0  0  0  0  0  0
   35.3265   28.7268   21.8214 C   0  0  0  0  0  0  0  0  0  0  0  0
   34.1017   29.1730   22.3925 N   0  0  0  0  0  0  0  0  0  0  0  0
   36.3524   28.9612   22.8076 N   0  0  0  0  0  0  0  0  0  0  0  0
   34.3498   29.4097   23.7660 C   0  0  0  0  0  0  0  0  0  0  0  0
   35.7120   29.2816   24.0227 C   0  0  0  0  0  0  0  0  0  0  0  0
   35.3418   27.3168   21.5098 N   0  0  0  0  0  0  0  0  0  0  0  0
   32.8455   29.3529   21.7137 C   0  0  0  0  0  0  0  0  0  0  0  0
   37.7265   28.8309   22.3864 C   0  0  0  0  0  0  0  0  0  0  0  0
   32.6662   30.7291   21.2489 C   0  0  0  0  0  0  0  0  0  0  0  0
   31.9220   34.5070   19.7997 F   0  0  0  0  0  0  0  0  0  0  0  0
   36.6162   26.6981   21.7247 C   0  0  0  0  0  0  0  0  0  0  0  0
   36.2273   29.4619   25.2907 C   0  0  0  0  0  0  0  0  0  0  0  0
   33.4809   31.7705   21.5495 C   0  0  0  0  0  0  0  0  0  0  0  0
   31.3207   32.2456   19.9484 C   0  0  0  0  0  0  0  0  0  0  0  0
   37.7858   27.6167   21.4659 C   0  0  0  0  0  0  0  0  0  0  0  0
  1  4  2  0
  1 16  1  0
 20  1  1  0
  2  5  2  0
 10  2  1  0
 15  3  1  0
  3 20  2  0
  4 19  1  0
  5  6  1  0
 18  6  2  0
  8  7  1  0
  7  9  1  0
  7 12  1  0
  8 10  1  0
 13  8  1  0
 11  9  1  0
  9 14  1  0
 10 11  2  0
 11 18  1  0
 12 17  1  0
 13 15  1  0
 14 21  1  0
 15 19  2  0
 17 21  1  0
M  END
$$$$
