
     RDKit          3D

 21 24  0  0  0  0  0  0  0  0999 V2000
   32.3856   32.9000   20.3749 C   0  0  0  0  0  0  0  0  0  0  0  0
   34.1158   30.8862   25.5434 C   0  0  0  0  0  0  0  0  0  0  0  0
   33.3503   31.5342   22.0485 C   0  0  0  0  0  0  0  0  0  0  0  0
   33.5511   33.6425   20.2843 C   0  0  0  0  0  0  0  0  0  0  0  0
   33.5848   30.2903   26.6714 C   0  0  0  0  0  0  0  0  0  0  0  0
   33.7509   28.9209   26.8538 C   0  0  0  0  0  0  0  0  0  0  0  0
   35.8450   29.3046   22.7356 C   0  0  0  0  0  0  0  0  0  0  0  0
   35.4410   30.5146   23.3665 N   0  0  0  0  0  0  0  0  0  0  0  0
   35.6903   28.2563   23.7139 N   0  0  0  0  0  0  0  0  0  0  0  0
   34.8131   30.1550   24.5833 C   0  0  0  0  0  0  0  0  0  0  0  0
   34.9605   28.7874   24.7977 C   0  0  0  0  0  0  0  0  0  0  0  0
   35.0387   28.9495   21.5915 N   0  0  0  0  0  0  0  0  0  0  0  0
   35.6294   31.8530   22.8720 C   0  0  0  0  0  0  0  0  0  0  0  0
   36.2691   26.9695   23.4116 C   0  0  0  0  0  0  0  0  0  0  0  0
   34.5438   32.2656   21.9813 C   0  0  0  0  0  0  0  0  0  0  0  0
   31.3307   33.2085   19.5911 F   0  0  0  0  0  0  0  0  0  0  0  0
   34.8358   27.5380   21.4516 C   0  0  0  0  0  0  0  0  0  0  0  0
   34.4378   28.1723   25.9176 C   0  0  0  0  0  0  0  0  0  0  0  0
   34.6010   33.2948   21.1003 C   0  0  0  0  0  0  0  0  0  0  0  0
   32.2861   31.8545   21.2497 C   0  0  0  0  0  0  0  0  0  0  0  0
   36.0015   26.7088   21.9333 C   0  0  0  0  0  0  0  0  0  0  0  0
  1  4  2  0
  1 16  1  0
 20  1  1  0
  2  5  2  0
 10  2  1  0
 15  3  1  0
  3 20  2  0
  4 19  1  0
  5  6  1  0
 18  6  2  0
  8  7  1  0
  7  9  1  0
  7 12  1  0
  8 10  1  0
 13  8  1  0
 11  9  1  0
  9 14  1  0
 10 11  2  0
 11 18  1  0
 12 17  1  0
 13 15  1  0
 14 21  1  0
 15 19  2  0
 17 21  1  0
M  END
$$$$
