
     RDKit          3D

 21 24  0  0  0  0  0  0  0  0999 V2000
   32.4334   33.1699   20.6621 C   0  0  0  0  0  0  0  0  0  0  0  0
   33.4932   29.6864   24.8711 C   0  0  0  0  0  0  0  0  0  0  0  0
   33.8507   31.4268   21.4034 C   0  0  0  0  0  0  0  0  0  0  0  0
   31.3625   32.2943   20.5948 C   0  0  0  0  0  0  0  0  0  0  0  0
   33.8824   29.9514   26.1702 C   0  0  0  0  0  0  0  0  0  0  0  0
   35.2316   29.8715   26.5010 C   0  0  0  0  0  0  0  0  0  0  0  0
   35.5570   28.5931   22.0567 C   0  0  0  0  0  0  0  0  0  0  0  0
   34.2794   29.0275   22.5087 N   0  0  0  0  0  0  0  0  0  0  0  0
   36.4963   28.9104   23.1041 N   0  0  0  0  0  0  0  0  0  0  0  0
   34.4134   29.3413   23.8826 C   0  0  0  0  0  0  0  0  0  0  0  0
   35.7547   29.2708   24.2485 C   0  0  0  0  0  0  0  0  0  0  0  0
   35.6367   27.1704   21.8222 N   0  0  0  0  0  0  0  0  0  0  0  0
   33.0749   29.1318   21.7279 C   0  0  0  0  0  0  0  0  0  0  0  0
   37.9020   28.8038   22.7960 C   0  0  0  0  0  0  0  0  0  0  0  0
   32.7877   30.5152   21.3462 C   0  0  0  0  0  0  0  0  0  0  0  0
   32.2619   34.4667   20.3283 F   0  0  0  0  0  0  0  0  0  0  0  0
   36.9078   26.6052   22.1657 C   0  0  0  0  0  0  0  0  0  0  0  0
   36.1648   29.5317   25.5405 C   0  0  0  0  0  0  0  0  0  0  0  0
   31.5804   30.9828   20.9433 C   0  0  0  0  0  0  0  0  0  0  0  0
   33.6672   32.7396   21.0630 C   0  0  0  0  0  0  0  0  0  0  0  0
   38.0672   27.5471   21.9482 C   0  0  0  0  0  0  0  0  0  0  0  0
  1  4  2  0
  1 16  1  0
 20  1  1  0
  2  5  2  0
 10  2  1  0
 15  3  1  0
  3 20  2  0
  4 19  1  0
  5  6  1  0
 18  6  2  0
  8  7  1  0
  7  9  1  0
  7 12  1  0
  8 10  1  0
 13  8  1  0
 11  9  1  0
  9 14  1  0
 10 11  2  0
 11 18  1  0
 12 17  1  0
 13 15  1  0
 14 21  1  0
 15 19  2  0
 17 21  1  0
M  END
$$$$
