
     RDKit          3D

 21 24  0  0  0  0  0  0  0  0999 V2000
   32.3569   32.8361   19.9931 C   0  0  0  0  0  0  0  0  0  0  0  0
   33.3762   29.7635   25.0170 C   0  0  0  0  0  0  0  0  0  0  0  0
   33.3765   31.4657   21.6299 C   0  0  0  0  0  0  0  0  0  0  0  0
   31.5891   31.7704   19.5538 C   0  0  0  0  0  0  0  0  0  0  0  0
   33.8188   30.0841   26.2862 C   0  0  0  0  0  0  0  0  0  0  0  0
   35.1860   30.0859   26.5445 C   0  0  0  0  0  0  0  0  0  0  0  0
   35.3443   28.7069   22.1212 C   0  0  0  0  0  0  0  0  0  0  0  0
   34.0705   29.0841   22.6318 N   0  0  0  0  0  0  0  0  0  0  0  0
   36.3191   29.1025   23.1078 N   0  0  0  0  0  0  0  0  0  0  0  0
   34.2600   29.4418   23.9884 C   0  0  0  0  0  0  0  0  0  0  0  0
   35.6207   29.4534   24.2819 C   0  0  0  0  0  0  0  0  0  0  0  0
   35.4897   27.2848   21.9172 N   0  0  0  0  0  0  0  0  0  0  0  0
   32.8223   29.1023   21.9157 C   0  0  0  0  0  0  0  0  0  0  0  0
   37.7101   29.0633   22.7260 C   0  0  0  0  0  0  0  0  0  0  0  0
   32.6144   30.3672   21.2094 C   0  0  0  0  0  0  0  0  0  0  0  0
   32.2323   34.0424   19.4001 F   0  0  0  0  0  0  0  0  0  0  0  0
   36.8065   26.7982   22.2042 C   0  0  0  0  0  0  0  0  0  0  0  0
   36.0841   29.7708   25.5430 C   0  0  0  0  0  0  0  0  0  0  0  0
   31.7471   30.5598   20.1850 C   0  0  0  0  0  0  0  0  0  0  0  0
   33.2432   32.6848   21.0225 C   0  0  0  0  0  0  0  0  0  0  0  0
   37.8989   27.7949   21.9010 C   0  0  0  0  0  0  0  0  0  0  0  0
  1  4  2  0
  1 16  1  0
 20  1  1  0
  2  5  2  0
 10  2  1  0
 15  3  1  0
  3 20  2  0
  4 19  1  0
  5  6  1  0
 18  6  2  0
  8  7  1  0
  7  9  1  0
  7 12  1  0
  8 10  1  0
 13  8  1  0
 11  9  1  0
  9 14  1  0
 10 11  2  0
 11 18  1  0
 12 17  1  0
 13 15  1  0
 14 21  1  0
 15 19  2  0
 17 21  1  0
M  END
$$$$
