
     RDKit          3D

 21 24  0  0  0  0  0  0  0  0999 V2000
   32.8855   31.8126   25.5087 C   0  0  0  0  0  0  0  0  0  0  0  0
   37.3942   30.4027   24.4274 C   0  0  0  0  0  0  0  0  0  0  0  0
   33.7550   30.5377   23.7156 C   0  0  0  0  0  0  0  0  0  0  0  0
   33.3237   30.8646   26.4184 C   0  0  0  0  0  0  0  0  0  0  0  0
   38.4595   31.2815   24.3786 C   0  0  0  0  0  0  0  0  0  0  0  0
   39.1030   31.4964   23.1638 C   0  0  0  0  0  0  0  0  0  0  0  0
   36.0361   28.3236   21.7425 C   0  0  0  0  0  0  0  0  0  0  0  0
   35.9022   28.7935   23.0792 N   0  0  0  0  0  0  0  0  0  0  0  0
   36.9966   29.1835   21.0960 N   0  0  0  0  0  0  0  0  0  0  0  0
   36.9458   29.7256   23.2946 C   0  0  0  0  0  0  0  0  0  0  0  0
   37.6126   29.9644   22.0961 C   0  0  0  0  0  0  0  0  0  0  0  0
   36.5360   26.9720   21.6499 N   0  0  0  0  0  0  0  0  0  0  0  0
   34.9018   28.4033   24.0373 C   0  0  0  0  0  0  0  0  0  0  0  0
   37.1267   29.0812   19.6625 C   0  0  0  0  0  0  0  0  0  0  0  0
   34.2111   29.5597   24.6099 C   0  0  0  0  0  0  0  0  0  0  0  0
   32.2379   32.9134   25.9462 F   0  0  0  0  0  0  0  0  0  0  0  0
   37.4029   26.7591   20.5292 C   0  0  0  0  0  0  0  0  0  0  0  0
   38.6790   30.8382   22.0254 C   0  0  0  0  0  0  0  0  0  0  0  0
   33.9785   29.7590   25.9308 C   0  0  0  0  0  0  0  0  0  0  0  0
   33.0994   31.6503   24.1686 C   0  0  0  0  0  0  0  0  0  0  0  0
   37.0498   27.5964   19.3238 C   0  0  0  0  0  0  0  0  0  0  0  0
  1  4  2  0
  1 16  1  0
 20  1  1  0
  2  5  2  0
 10  2  1  0
 15  3  1  0
  3 20  2  0
  4 19  1  0
  5  6  1  0
 18  6  2  0
  8  7  1  0
  7  9  1  0
  7 12  1  0
  8 10  1  0
 13  8  1  0
 11  9  1  0
  9 14  1  0
 10 11  2  0
 11 18  1  0
 12 17  1  0
 13 15  1  0
 14 21  1  0
 15 19  2  0
 17 21  1  0
M  END
$$$$
