
     RDKit          3D

 21 24  0  0  0  0  0  0  0  0999 V2000
   32.4029   33.5300   21.1533 C   0  0  0  0  0  0  0  0  0  0  0  0
   34.3889   31.1204   25.3840 C   0  0  0  0  0  0  0  0  0  0  0  0
   33.8640   31.6695   21.1426 C   0  0  0  0  0  0  0  0  0  0  0  0
   33.1841   34.1604   22.1075 C   0  0  0  0  0  0  0  0  0  0  0  0
   33.8478   30.7429   26.5981 C   0  0  0  0  0  0  0  0  0  0  0  0
   33.8223   29.3934   26.9361 C   0  0  0  0  0  0  0  0  0  0  0  0
   35.6882   28.9884   22.7116 C   0  0  0  0  0  0  0  0  0  0  0  0
   35.5064   30.3089   23.2101 N   0  0  0  0  0  0  0  0  0  0  0  0
   35.4428   28.0923   23.8147 N   0  0  0  0  0  0  0  0  0  0  0  0
   34.9099   30.1882   24.4882 C   0  0  0  0  0  0  0  0  0  0  0  0
   34.8681   28.8469   24.8586 C   0  0  0  0  0  0  0  0  0  0  0  0
   34.7685   28.6349   21.6559 N   0  0  0  0  0  0  0  0  0  0  0  0
   35.8578   31.5387   22.5504 C   0  0  0  0  0  0  0  0  0  0  0  0
   35.8066   26.7064   23.6436 C   0  0  0  0  0  0  0  0  0  0  0  0
   34.6760   32.2801   22.1080 C   0  0  0  0  0  0  0  0  0  0  0  0
   31.2924   34.1392   20.6861 F   0  0  0  0  0  0  0  0  0  0  0  0
   34.3524   27.2644   21.6959 C   0  0  0  0  0  0  0  0  0  0  0  0
   34.3320   28.4483   26.0667 C   0  0  0  0  0  0  0  0  0  0  0  0
   34.3060   33.5053   22.5561 C   0  0  0  0  0  0  0  0  0  0  0  0
   32.7401   32.2949   20.6749 C   0  0  0  0  0  0  0  0  0  0  0  0
   35.4117   26.3258   22.2208 C   0  0  0  0  0  0  0  0  0  0  0  0
  1  4  2  0
  1 16  1  0
 20  1  1  0
  2  5  2  0
 10  2  1  0
 15  3  1  0
  3 20  2  0
  4 19  1  0
  5  6  1  0
 18  6  2  0
  8  7  1  0
  7  9  1  0
  7 12  1  0
  8 10  1  0
 13  8  1  0
 11  9  1  0
  9 14  1  0
 10 11  2  0
 11 18  1  0
 12 17  1  0
 13 15  1  0
 14 21  1  0
 15 19  2  0
 17 21  1  0
M  END
$$$$
