
     RDKit          3D

 21 24  0  0  0  0  0  0  0  0999 V2000
   32.3978   31.4409   24.7959 C   0  0  0  0  0  0  0  0  0  0  0  0
   37.2722   30.9216   23.8761 C   0  0  0  0  0  0  0  0  0  0  0  0
   33.8378   32.3192   23.1371 C   0  0  0  0  0  0  0  0  0  0  0  0
   32.6588   30.1510   24.3644 C   0  0  0  0  0  0  0  0  0  0  0  0
   38.3396   30.7948   24.7444 C   0  0  0  0  0  0  0  0  0  0  0  0
   39.2473   29.7579   24.5523 C   0  0  0  0  0  0  0  0  0  0  0  0
   36.3283   28.7382   21.0980 C   0  0  0  0  0  0  0  0  0  0  0  0
   36.0906   29.9511   21.8036 N   0  0  0  0  0  0  0  0  0  0  0  0
   37.6180   28.2560   21.5272 N   0  0  0  0  0  0  0  0  0  0  0  0
   37.0788   30.0406   22.8134 C   0  0  0  0  0  0  0  0  0  0  0  0
   38.0060   29.0151   22.6508 C   0  0  0  0  0  0  0  0  0  0  0  0
   35.3636   27.7023   21.3834 N   0  0  0  0  0  0  0  0  0  0  0  0
   35.0486   30.9105   21.5485 C   0  0  0  0  0  0  0  0  0  0  0  0
   38.2099   27.1740   20.7780 C   0  0  0  0  0  0  0  0  0  0  0  0
   34.1230   31.0267   22.6762 C   0  0  0  0  0  0  0  0  0  0  0  0
   31.5554   31.6447   25.8309 F   0  0  0  0  0  0  0  0  0  0  0  0
   35.9290   26.3859   21.4071 C   0  0  0  0  0  0  0  0  0  0  0  0
   39.0793   28.8704   23.5068 C   0  0  0  0  0  0  0  0  0  0  0  0
   33.5222   29.9880   23.3076 C   0  0  0  0  0  0  0  0  0  0  0  0
   32.9825   32.5159   24.1872 C   0  0  0  0  0  0  0  0  0  0  0  0
   37.0800   26.2048   20.4475 C   0  0  0  0  0  0  0  0  0  0  0  0
  1  4  2  0
  1 16  1  0
 20  1  1  0
  2  5  2  0
 10  2  1  0
 15  3  1  0
  3 20  2  0
  4 19  1  0
  5  6  1  0
 18  6  2  0
  8  7  1  0
  7  9  1  0
  7 12  1  0
  8 10  1  0
 13  8  1  0
 11  9  1  0
  9 14  1  0
 10 11  2  0
 11 18  1  0
 12 17  1  0
 13 15  1  0
 14 21  1  0
 15 19  2  0
 17 21  1  0
M  END
$$$$
