
     RDKit          3D

 21 24  0  0  0  0  0  0  0  0999 V2000
   32.8421   30.6497   25.1799 C   0  0  0  0  0  0  0  0  0  0  0  0
   37.8950   30.3608   24.1832 C   0  0  0  0  0  0  0  0  0  0  0  0
   35.0149   31.0165   24.3189 C   0  0  0  0  0  0  0  0  0  0  0  0
   32.3873   30.2832   23.9242 C   0  0  0  0  0  0  0  0  0  0  0  0
   38.9839   30.0926   24.9906 C   0  0  0  0  0  0  0  0  0  0  0  0
   39.8001   29.0077   24.6857 C   0  0  0  0  0  0  0  0  0  0  0  0
   36.6727   28.4602   21.3076 C   0  0  0  0  0  0  0  0  0  0  0  0
   36.5585   29.6332   22.1054 N   0  0  0  0  0  0  0  0  0  0  0  0
   37.9376   27.8537   21.6425 N   0  0  0  0  0  0  0  0  0  0  0  0
   37.5909   29.5758   23.0723 C   0  0  0  0  0  0  0  0  0  0  0  0
   38.4286   28.4987   22.7967 C   0  0  0  0  0  0  0  0  0  0  0  0
   35.6431   27.4809   21.5649 N   0  0  0  0  0  0  0  0  0  0  0  0
   35.5843   30.6833   21.9654 C   0  0  0  0  0  0  0  0  0  0  0  0
   38.4130   26.7878   20.7939 C   0  0  0  0  0  0  0  0  0  0  0  0
   34.5864   30.6509   23.0355 C   0  0  0  0  0  0  0  0  0  0  0  0
   31.9915   30.6497   26.2281 F   0  0  0  0  0  0  0  0  0  0  0  0
   36.1055   26.1279   21.4716 C   0  0  0  0  0  0  0  0  0  0  0  0
   39.5215   28.2131   23.5903 C   0  0  0  0  0  0  0  0  0  0  0  0
   33.2862   30.2971   22.8846 C   0  0  0  0  0  0  0  0  0  0  0  0
   34.1451   31.0133   25.3755 C   0  0  0  0  0  0  0  0  0  0  0  0
   37.1990   25.9316   20.4498 C   0  0  0  0  0  0  0  0  0  0  0  0
  1  4  2  0
  1 16  1  0
 20  1  1  0
  2  5  2  0
 10  2  1  0
 15  3  1  0
  3 20  2  0
  4 19  1  0
  5  6  1  0
 18  6  2  0
  8  7  1  0
  7  9  1  0
  7 12  1  0
  8 10  1  0
 13  8  1  0
 11  9  1  0
  9 14  1  0
 10 11  2  0
 11 18  1  0
 12 17  1  0
 13 15  1  0
 14 21  1  0
 15 19  2  0
 17 21  1  0
M  END
$$$$
