
     RDKit          3D

 21 24  0  0  0  0  0  0  0  0999 V2000
   32.4551   33.2117   20.2940 C   0  0  0  0  0  0  0  0  0  0  0  0
   33.5441   29.7737   24.9392 C   0  0  0  0  0  0  0  0  0  0  0  0
   31.7701   30.9554   20.4851 C   0  0  0  0  0  0  0  0  0  0  0  0
   33.5479   32.9674   21.1090 C   0  0  0  0  0  0  0  0  0  0  0  0
   33.9881   29.9909   26.2296 C   0  0  0  0  0  0  0  0  0  0  0  0
   35.3388   29.8210   26.5169 C   0  0  0  0  0  0  0  0  0  0  0  0
   35.4494   28.6035   22.0451 C   0  0  0  0  0  0  0  0  0  0  0  0
   34.2159   29.1089   22.5434 N   0  0  0  0  0  0  0  0  0  0  0  0
   36.4378   28.8429   23.0676 N   0  0  0  0  0  0  0  0  0  0  0  0
   34.4105   29.3894   23.9173 C   0  0  0  0  0  0  0  0  0  0  0  0
   35.7551   29.2287   24.2400 C   0  0  0  0  0  0  0  0  0  0  0  0
   35.4322   27.1831   21.7858 N   0  0  0  0  0  0  0  0  0  0  0  0
   32.9974   29.3021   21.8022 C   0  0  0  0  0  0  0  0  0  0  0  0
   37.8241   28.6541   22.7143 C   0  0  0  0  0  0  0  0  0  0  0  0
   32.8660   30.6751   21.3126 C   0  0  0  0  0  0  0  0  0  0  0  0
   32.2531   34.4500   19.7958 F   0  0  0  0  0  0  0  0  0  0  0  0
   36.6749   26.5335   22.0807 C   0  0  0  0  0  0  0  0  0  0  0  0
   36.2195   29.4405   25.5227 C   0  0  0  0  0  0  0  0  0  0  0  0
   33.7163   31.6929   21.5950 C   0  0  0  0  0  0  0  0  0  0  0  0
   31.5737   32.2139   19.9847 C   0  0  0  0  0  0  0  0  0  0  0  0
   37.8842   27.4048   21.8422 C   0  0  0  0  0  0  0  0  0  0  0  0
  1  4  2  0
  1 16  1  0
 20  1  1  0
  2  5  2  0
 10  2  1  0
 15  3  1  0
  3 20  2  0
  4 19  1  0
  5  6  1  0
 18  6  2  0
  8  7  1  0
  7  9  1  0
  7 12  1  0
  8 10  1  0
 13  8  1  0
 11  9  1  0
  9 14  1  0
 10 11  2  0
 11 18  1  0
 12 17  1  0
 13 15  1  0
 14 21  1  0
 15 19  2  0
 17 21  1  0
M  END
$$$$
