
     RDKit          3D

 21 24  0  0  0  0  0  0  0  0999 V2000
   32.5573   32.5100   24.3706 C   0  0  0  0  0  0  0  0  0  0  0  0
   36.5218   29.0540   25.1648 C   0  0  0  0  0  0  0  0  0  0  0  0
   32.4850   30.1579   24.6146 C   0  0  0  0  0  0  0  0  0  0  0  0
   33.5468   32.3974   23.4082 C   0  0  0  0  0  0  0  0  0  0  0  0
   37.7457   29.2748   25.7672 C   0  0  0  0  0  0  0  0  0  0  0  0
   38.8945   29.2767   24.9822 C   0  0  0  0  0  0  0  0  0  0  0  0
   35.8189   28.2742   21.6614 C   0  0  0  0  0  0  0  0  0  0  0  0
   35.2968   28.5871   22.9479 N   0  0  0  0  0  0  0  0  0  0  0  0
   37.2231   28.6016   21.6940 N   0  0  0  0  0  0  0  0  0  0  0  0
   36.4052   28.8333   23.7934 C   0  0  0  0  0  0  0  0  0  0  0  0
   37.5748   28.8421   23.0385 C   0  0  0  0  0  0  0  0  0  0  0  0
   35.7098   26.8765   21.3152 N   0  0  0  0  0  0  0  0  0  0  0  0
   33.9100   28.6451   23.3281 C   0  0  0  0  0  0  0  0  0  0  0  0
   37.9350   28.6165   20.4389 C   0  0  0  0  0  0  0  0  0  0  0  0
   33.4853   30.0096   23.6442 C   0  0  0  0  0  0  0  0  0  0  0  0
   32.1031   33.7304   24.7264 F   0  0  0  0  0  0  0  0  0  0  0  0
   36.8199   26.3887   20.5518 C   0  0  0  0  0  0  0  0  0  0  0  0
   38.8075   29.0606   23.6204 C   0  0  0  0  0  0  0  0  0  0  0  0
   33.9807   31.1364   23.0754 C   0  0  0  0  0  0  0  0  0  0  0  0
   32.0309   31.3994   24.9687 C   0  0  0  0  0  0  0  0  0  0  0  0
   37.4257   27.4244   19.6359 C   0  0  0  0  0  0  0  0  0  0  0  0
  1  4  2  0
  1 16  1  0
 20  1  1  0
  2  5  2  0
 10  2  1  0
 15  3  1  0
  3 20  2  0
  4 19  1  0
  5  6  1  0
 18  6  2  0
  8  7  1  0
  7  9  1  0
  7 12  1  0
  8 10  1  0
 13  8  1  0
 11  9  1  0
  9 14  1  0
 10 11  2  0
 11 18  1  0
 12 17  1  0
 13 15  1  0
 14 21  1  0
 15 19  2  0
 17 21  1  0
M  END
$$$$
