
     RDKit          3D

 21 24  0  0  0  0  0  0  0  0999 V2000
   32.8417   30.4089   25.1207 C   0  0  0  0  0  0  0  0  0  0  0  0
   38.2696   29.3360   24.6422 C   0  0  0  0  0  0  0  0  0  0  0  0
   33.9670   29.9715   23.0862 C   0  0  0  0  0  0  0  0  0  0  0  0
   33.9313   31.1234   25.5902 C   0  0  0  0  0  0  0  0  0  0  0  0
   39.2158   28.6068   25.3367 C   0  0  0  0  0  0  0  0  0  0  0  0
   39.7508   27.4633   24.7515 C   0  0  0  0  0  0  0  0  0  0  0  0
   36.7584   28.5930   21.3957 C   0  0  0  0  0  0  0  0  0  0  0  0
   36.8997   29.5171   22.4688 N   0  0  0  0  0  0  0  0  0  0  0  0
   37.8143   27.6220   21.5442 N   0  0  0  0  0  0  0  0  0  0  0  0
   37.8358   28.9590   23.3724 C   0  0  0  0  0  0  0  0  0  0  0  0
   38.3920   27.8100   22.8172 C   0  0  0  0  0  0  0  0  0  0  0  0
   35.5061   27.8741   21.4102 N   0  0  0  0  0  0  0  0  0  0  0  0
   36.2256   30.7799   22.6176 C   0  0  0  0  0  0  0  0  0  0  0  0
   38.0516   26.7192   20.4438 C   0  0  0  0  0  0  0  0  0  0  0  0
   35.0861   30.6881   23.5315 C   0  0  0  0  0  0  0  0  0  0  0  0
   31.7449   30.2717   25.8957 F   0  0  0  0  0  0  0  0  0  0  0  0
   35.6215   26.5166   20.9665 C   0  0  0  0  0  0  0  0  0  0  0  0
   39.3385   27.0670   23.4939 C   0  0  0  0  0  0  0  0  0  0  0  0
   35.0275   31.2388   24.7692 C   0  0  0  0  0  0  0  0  0  0  0  0
   32.8595   29.8378   23.8791 C   0  0  0  0  0  0  0  0  0  0  0  0
   36.6816   26.3133   19.9113 C   0  0  0  0  0  0  0  0  0  0  0  0
  1  4  2  0
  1 16  1  0
 20  1  1  0
  2  5  2  0
 10  2  1  0
 15  3  1  0
  3 20  2  0
  4 19  1  0
  5  6  1  0
 18  6  2  0
  8  7  1  0
  7  9  1  0
  7 12  1  0
  8 10  1  0
 13  8  1  0
 11  9  1  0
  9 14  1  0
 10 11  2  0
 11 18  1  0
 12 17  1  0
 13 15  1  0
 14 21  1  0
 15 19  2  0
 17 21  1  0
M  END
$$$$
