
     RDKit          3D

 21 24  0  0  0  0  0  0  0  0999 V2000
   34.0869   30.2494   27.2777 C   0  0  0  0  0  0  0  0  0  0  0  0
   36.2234   31.6636   22.7472 C   0  0  0  0  0  0  0  0  0  0  0  0
   35.7004   29.8171   25.6024 C   0  0  0  0  0  0  0  0  0  0  0  0
   33.0973   29.6746   26.4977 C   0  0  0  0  0  0  0  0  0  0  0  0
   36.4927   32.9509   22.3234 C   0  0  0  0  0  0  0  0  0  0  0  0
   35.7385   33.4928   21.2873 C   0  0  0  0  0  0  0  0  0  0  0  0
   33.8101   29.2781   21.3831 C   0  0  0  0  0  0  0  0  0  0  0  0
   34.7509   29.5779   22.4080 N   0  0  0  0  0  0  0  0  0  0  0  0
   33.5318   30.5180   20.7012 N   0  0  0  0  0  0  0  0  0  0  0  0
   35.2180   30.8923   22.1665 C   0  0  0  0  0  0  0  0  0  0  0  0
   34.4832   31.4658   21.1326 C   0  0  0  0  0  0  0  0  0  0  0  0
   34.3034   28.3450   20.3975 N   0  0  0  0  0  0  0  0  0  0  0  0
   35.1573   28.7179   23.4879 C   0  0  0  0  0  0  0  0  0  0  0  0
   32.4194   30.5403   19.7824 C   0  0  0  0  0  0  0  0  0  0  0  0
   34.7226   29.2290   24.7886 C   0  0  0  0  0  0  0  0  0  0  0  0
   33.7780   30.7482   28.4935 F   0  0  0  0  0  0  0  0  0  0  0  0
   33.8406   28.6191   19.0694 C   0  0  0  0  0  0  0  0  0  0  0  0
   34.7358   32.7502   20.6939 C   0  0  0  0  0  0  0  0  0  0  0  0
   33.4546   29.1790   25.2666 C   0  0  0  0  0  0  0  0  0  0  0  0
   35.3776   30.3200   26.8336 C   0  0  0  0  0  0  0  0  0  0  0  0
   32.4560   29.2185   19.0231 C   0  0  0  0  0  0  0  0  0  0  0  0
  1  4  2  0
  1 16  1  0
 20  1  1  0
  2  5  2  0
 10  2  1  0
 15  3  1  0
  3 20  2  0
  4 19  1  0
  5  6  1  0
 18  6  2  0
  8  7  1  0
  7  9  1  0
  7 12  1  0
  8 10  1  0
 13  8  1  0
 11  9  1  0
  9 14  1  0
 10 11  2  0
 11 18  1  0
 12 17  1  0
 13 15  1  0
 14 21  1  0
 15 19  2  0
 17 21  1  0
M  END
$$$$
