
     RDKit          3D

 21 24  0  0  0  0  0  0  0  0999 V2000
   32.0629   33.5414   21.4299 C   0  0  0  0  0  0  0  0  0  0  0  0
   34.1204   29.7628   24.9728 C   0  0  0  0  0  0  0  0  0  0  0  0
   32.9995   31.4770   20.7533 C   0  0  0  0  0  0  0  0  0  0  0  0
   31.5537   32.9547   22.5765 C   0  0  0  0  0  0  0  0  0  0  0  0
   34.8836   29.9219   26.1137 C   0  0  0  0  0  0  0  0  0  0  0  0
   36.2590   29.7251   26.0393 C   0  0  0  0  0  0  0  0  0  0  0  0
   35.1982   28.6905   21.6466 C   0  0  0  0  0  0  0  0  0  0  0  0
   34.1439   29.1890   22.4622 N   0  0  0  0  0  0  0  0  0  0  0  0
   36.4198   28.8766   22.3902 N   0  0  0  0  0  0  0  0  0  0  0  0
   34.6888   29.4108   23.7498 C   0  0  0  0  0  0  0  0  0  0  0  0
   36.0674   29.2218   23.7116 C   0  0  0  0  0  0  0  0  0  0  0  0
   35.0849   27.2821   21.3485 N   0  0  0  0  0  0  0  0  0  0  0  0
   32.7810   29.4262   22.0651 C   0  0  0  0  0  0  0  0  0  0  0  0
   37.6656   28.6866   21.6872 C   0  0  0  0  0  0  0  0  0  0  0  0
   32.4980   30.8531   21.9037 C   0  0  0  0  0  0  0  0  0  0  0  0
   31.8513   34.8542   21.1971 F   0  0  0  0  0  0  0  0  0  0  0  0
   36.3474   26.6069   21.2914 C   0  0  0  0  0  0  0  0  0  0  0  0
   36.8483   29.3756   24.8396 C   0  0  0  0  0  0  0  0  0  0  0  0
   31.7922   31.6158   22.7748 C   0  0  0  0  0  0  0  0  0  0  0  0
   32.7798   32.8086   20.5259 C   0  0  0  0  0  0  0  0  0  0  0  0
   37.4743   27.4734   20.7835 C   0  0  0  0  0  0  0  0  0  0  0  0
  1  4  2  0
  1 16  1  0
 20  1  1  0
  2  5  2  0
 10  2  1  0
 15  3  1  0
  3 20  2  0
  4 19  1  0
  5  6  1  0
 18  6  2  0
  8  7  1  0
  7  9  1  0
  7 12  1  0
  8 10  1  0
 13  8  1  0
 11  9  1  0
  9 14  1  0
 10 11  2  0
 11 18  1  0
 12 17  1  0
 13 15  1  0
 14 21  1  0
 15 19  2  0
 17 21  1  0
M  END
$$$$
