
     RDKit          3D

 21 24  0  0  0  0  0  0  0  0999 V2000
   31.9375   33.0816   21.7325 C   0  0  0  0  0  0  0  0  0  0  0  0
   34.3815   29.5006   25.3232 C   0  0  0  0  0  0  0  0  0  0  0  0
   31.9099   31.2098   23.1790 C   0  0  0  0  0  0  0  0  0  0  0  0
   32.5619   32.3337   20.7481 C   0  0  0  0  0  0  0  0  0  0  0  0
   35.2312   29.7129   26.3920 C   0  0  0  0  0  0  0  0  0  0  0  0
   36.5978   29.5182   26.2176 C   0  0  0  0  0  0  0  0  0  0  0  0
   35.2011   28.2861   21.9723 C   0  0  0  0  0  0  0  0  0  0  0  0
   34.2108   28.8162   22.8461 N   0  0  0  0  0  0  0  0  0  0  0  0
   36.4762   28.5095   22.6080 N   0  0  0  0  0  0  0  0  0  0  0  0
   34.8541   29.0969   24.0756 C   0  0  0  0  0  0  0  0  0  0  0  0
   36.2268   28.9115   23.9367 C   0  0  0  0  0  0  0  0  0  0  0  0
   35.0749   26.8654   21.7461 N   0  0  0  0  0  0  0  0  0  0  0  0
   32.8192   29.0305   22.5482 C   0  0  0  0  0  0  0  0  0  0  0  0
   37.6640   28.2933   21.8175 C   0  0  0  0  0  0  0  0  0  0  0  0
   32.5413   30.4256   22.2040 C   0  0  0  0  0  0  0  0  0  0  0  0
   31.6421   34.3788   21.5037 F   0  0  0  0  0  0  0  0  0  0  0  0
   36.3338   26.1931   21.6190 C   0  0  0  0  0  0  0  0  0  0  0  0
   37.0931   29.1181   24.9915 C   0  0  0  0  0  0  0  0  0  0  0  0
   32.8448   31.0170   21.0222 C   0  0  0  0  0  0  0  0  0  0  0  0
   31.6143   32.5241   22.9378 C   0  0  0  0  0  0  0  0  0  0  0  0
   37.4107   27.0405   20.9859 C   0  0  0  0  0  0  0  0  0  0  0  0
  1  4  2  0
  1 16  1  0
 20  1  1  0
  2  5  2  0
 10  2  1  0
 15  3  1  0
  3 20  2  0
  4 19  1  0
  5  6  1  0
 18  6  2  0
  8  7  1  0
  7  9  1  0
  7 12  1  0
  8 10  1  0
 13  8  1  0
 11  9  1  0
  9 14  1  0
 10 11  2  0
 11 18  1  0
 12 17  1  0
 13 15  1  0
 14 21  1  0
 15 19  2  0
 17 21  1  0
M  END
$$$$
