
     RDKit          3D

 26 27  0  0  0  0  0  0  0  0999 V2000
  -23.7705   41.1948    4.7389 C   0  0  1  0  0  0  0  0  0  0  0  0
  -23.9275   41.5083    3.2966 C   0  0  1  0  0  0  0  0  0  0  0  0
  -22.7109   41.8268    2.5183 C   0  0  2  0  0  0  0  0  0  0  0  0
  -21.3925   41.3924    3.1583 C   0  0  1  0  0  0  0  0  0  0  0  0
  -21.7010   40.3518    4.1695 C   0  0  1  0  0  0  0  0  0  0  0  0
  -20.5152   39.7246    4.8078 C   0  0  0  0  0  0  0  0  0  0  0  0
  -26.1075   40.7579    2.2519 C   0  0  0  0  0  0  0  0  0  0  0  0
  -26.6708   40.2086    0.9919 C   0  0  0  0  0  0  0  0  0  0  0  0
  -24.7654   40.5075    2.6154 N   0  0  0  0  0  0  0  0  0  0  0  0
  -22.6217   43.1898    2.1561 O   0  0  0  0  0  0  0  0  0  0  0  0
  -20.5594   40.8634    2.1561 O   0  0  0  0  0  0  0  0  0  0  0  0
  -22.5141   40.8846    5.1794 O   0  0  0  0  0  0  0  0  0  0  0  0
  -20.6045   38.8958    5.8309 O   0  0  0  0  0  0  0  0  0  0  0  0
  -26.8447   41.4615    3.0095 O   0  0  0  0  0  0  0  0  0  0  0  0
  -19.6515   38.7208    6.7596 C   0  0  1  0  0  0  0  0  0  0  0  0
  -20.0604   37.7641    7.8342 C   0  0  2  0  0  0  0  0  0  0  0  0
  -19.6102   36.3572    7.7027 C   0  0  1  0  0  0  0  0  0  0  0  0
  -18.4029   36.1181    6.8620 C   0  0  1  0  0  0  0  0  0  0  0  0
  -18.5774   37.0026    5.6191 C   0  0  2  0  0  0  0  0  0  0  0  0
  -17.5271   36.7329    4.5920 C   0  0  0  0  0  0  0  0  0  0  0  0
  -21.4420   37.7598    7.9982 O   0  0  0  0  0  0  0  0  0  0  0  0
  -19.3666   35.7773    8.9706 O   0  0  0  0  0  0  0  0  0  0  0  0
  -17.2411   36.4688    7.5511 O   0  0  0  0  0  0  0  0  0  0  0  0
  -18.4978   38.2892    6.0741 O   0  0  0  0  0  0  0  0  0  0  0  0
  -23.8377   44.1337    5.1256 C   0  0  0  0  0  0  0  0  0  0  0  0
  -24.3984   42.5329    5.8076 S   0  0  0  0  0  0  0  0  0  0  0  0
  2  1  1  0
  1 12  1  0
  1 26  1  1
  2  3  1  0
  2  9  1  6
  3  4  1  0
  3 10  1  1
  4  5  1  0
  4 11  1  6
  5  6  1  1
 12  5  1  0
  6 13  1  0
  7  8  1  0
  7  9  1  0
  7 14  2  0
 15 13  1  6
 15 16  1  0
 15 24  1  0
 16 17  1  0
 16 21  1  6
 17 18  1  0
 17 22  1  1
 18 19  1  0
 18 23  1  1
 19 20  1  6
 19 24  1  0
 26 25  1  0
M  END
$$$$
