
     RDKit          3D

 26 27  0  0  0  0  0  0  0  0999 V2000
   -4.7498   42.2462   -3.8590 C   0  0  1  0  0  0  0  0  0  0  0  0
   -4.1918   40.9111   -4.1891 C   0  0  1  0  0  0  0  0  0  0  0  0
   -5.0430   39.9709   -4.9498 C   0  0  2  0  0  0  0  0  0  0  0  0
   -6.2277   40.6045   -5.6789 C   0  0  1  0  0  0  0  0  0  0  0  0
   -5.9506   42.0551   -5.8183 C   0  0  1  0  0  0  0  0  0  0  0  0
   -6.9488   42.8116   -6.6173 C   0  0  0  0  0  0  0  0  0  0  0  0
   -1.6878   40.5502   -4.1051 C   0  0  0  0  0  0  0  0  0  0  0  0
   -0.4145   41.3132   -4.1608 C   0  0  0  0  0  0  0  0  0  0  0  0
   -2.8431   41.0189   -4.7699 N   0  0  0  0  0  0  0  0  0  0  0  0
   -5.5058   38.8847   -4.1731 O   0  0  0  0  0  0  0  0  0  0  0  0
   -6.3452   40.0086   -6.9476 O   0  0  0  0  0  0  0  0  0  0  0  0
   -5.8545   42.6529   -4.5541 O   0  0  0  0  0  0  0  0  0  0  0  0
   -7.0220   44.1293   -6.6136 O   0  0  0  0  0  0  0  0  0  0  0  0
   -1.7348   39.4629   -3.4509 O   0  0  0  0  0  0  0  0  0  0  0  0
   -8.1537   44.8335   -6.7704 C   0  0  1  0  0  0  0  0  0  0  0  0
   -7.9052   46.3005   -6.9228 C   0  0  2  0  0  0  0  0  0  0  0  0
   -7.8636   46.8459   -8.3013 C   0  0  1  0  0  0  0  0  0  0  0  0
   -8.5709   46.0601   -9.3520 C   0  0  1  0  0  0  0  0  0  0  0  0
   -8.2194   44.5900   -9.0819 C   0  0  2  0  0  0  0  0  0  0  0  0
   -8.7115   43.6912  -10.1685 C   0  0  0  0  0  0  0  0  0  0  0  0
   -6.7323   46.6771   -6.2762 O   0  0  0  0  0  0  0  0  0  0  0  0
   -8.3712   48.1664   -8.3447 O   0  0  0  0  0  0  0  0  0  0  0  0
   -9.9506   46.2543   -9.2725 O   0  0  0  0  0  0  0  0  0  0  0  0
   -8.8146   44.2869   -7.8891 O   0  0  0  0  0  0  0  0  0  0  0  0
   -3.6139   42.8673   -1.1916 C   0  0  0  0  0  0  0  0  0  0  0  0
   -5.1419   42.4103   -2.0852 S   0  0  0  0  0  0  0  0  0  0  0  0
  2  1  1  0
  1 12  1  0
  1 26  1  1
  2  3  1  0
  2  9  1  6
  3  4  1  0
  3 10  1  1
  4  5  1  0
  4 11  1  6
  5  6  1  6
 12  5  1  0
  6 13  1  0
  7  8  1  0
  7  9  1  0
  7 14  2  0
 15 13  1  6
 15 16  1  0
 15 24  1  0
 16 17  1  0
 16 21  1  6
 17 18  1  0
 17 22  1  1
 18 19  1  0
 18 23  1  1
 19 20  1  6
 19 24  1  0
 26 25  1  0
M  END
$$$$
