
     RDKit          3D

 26 27  0  0  0  0  0  0  0  0999 V2000
  -15.2375   32.1714  -18.2425 C   0  0  1  0  0  0  0  0  0  0  0  0
  -14.0529   32.5248  -19.0641 C   0  0  1  0  0  0  0  0  0  0  0  0
  -12.7496   32.6659  -18.3796 C   0  0  2  0  0  0  0  0  0  0  0  0
  -12.6665   32.0281  -16.9929 C   0  0  1  0  0  0  0  0  0  0  0  0
  -13.7610   31.0326  -16.8859 C   0  0  1  0  0  0  0  0  0  0  0  0
  -13.7556   30.2243  -15.6394 C   0  0  0  0  0  0  0  0  0  0  0  0
  -14.1228   32.1733  -21.5698 C   0  0  0  0  0  0  0  0  0  0  0  0
  -14.8046   31.3643  -22.6125 C   0  0  0  0  0  0  0  0  0  0  0  0
  -13.9523   31.6718  -20.2600 N   0  0  0  0  0  0  0  0  0  0  0  0
  -12.3038   34.0046  -18.2999 O   0  0  0  0  0  0  0  0  0  0  0  0
  -11.4182   31.3929  -16.8646 O   0  0  0  0  0  0  0  0  0  0  0  0
  -15.0056   31.6684  -16.9926 O   0  0  0  0  0  0  0  0  0  0  0  0
  -14.8587   29.7831  -15.0647 O   0  0  0  0  0  0  0  0  0  0  0  0
  -13.6887   33.3299  -21.8631 O   0  0  0  0  0  0  0  0  0  0  0  0
  -15.1993   30.0101  -13.7866 C   0  0  1  0  0  0  0  0  0  0  0  0
  -16.2758   29.0910  -13.3033 C   0  0  2  0  0  0  0  0  0  0  0  0
  -15.8559   27.8877  -12.5449 C   0  0  1  0  0  0  0  0  0  0  0  0
  -14.5240   27.9492  -11.8787 C   0  0  1  0  0  0  0  0  0  0  0  0
  -13.5774   28.6016  -12.8966 C   0  0  2  0  0  0  0  0  0  0  0  0
  -12.1565   28.5662  -12.4378 C   0  0  0  0  0  0  0  0  0  0  0  0
  -17.0853   28.6749  -14.3556 O   0  0  0  0  0  0  0  0  0  0  0  0
  -16.8100   27.5471  -11.5564 O   0  0  0  0  0  0  0  0  0  0  0  0
  -14.5874   28.7130  -10.7124 O   0  0  0  0  0  0  0  0  0  0  0  0
  -14.0169   29.8893  -13.0287 O   0  0  0  0  0  0  0  0  0  0  0  0
  -18.0981   32.9501  -18.2103 C   0  0  0  0  0  0  0  0  0  0  0  0
  -16.3873   33.5743  -18.0512 S   0  0  0  0  0  0  0  0  0  0  0  0
  2  1  1  0
  1 12  1  0
  1 26  1  1
  2  3  1  0
  2  9  1  6
  3  4  1  0
  3 10  1  1
  4  5  1  0
  4 11  1  6
  5  6  1  1
 12  5  1  0
  6 13  1  0
  7  8  1  0
  7  9  1  0
  7 14  2  0
 15 13  1  6
 15 16  1  0
 15 24  1  0
 16 17  1  0
 16 21  1  6
 17 18  1  0
 17 22  1  1
 18 19  1  0
 18 23  1  1
 19 20  1  1
 19 24  1  0
 26 25  1  0
M  END
$$$$
