
     RDKit          3D

 26 27  0  0  0  0  0  0  0  0999 V2000
  -17.1290   40.4313    6.8911 C   0  0  1  0  0  0  0  0  0  0  0  0
  -16.4265   39.4955    7.8043 C   0  0  1  0  0  0  0  0  0  0  0  0
  -17.2312   38.4683    8.5003 C   0  0  2  0  0  0  0  0  0  0  0  0
  -18.6100   38.1985    7.8979 C   0  0  1  0  0  0  0  0  0  0  0  0
  -18.5999   38.6986    6.5014 C   0  0  1  0  0  0  0  0  0  0  0  0
  -19.8294   38.4062    5.7203 C   0  0  0  0  0  0  0  0  0  0  0  0
  -13.9382   39.4544    7.3414 C   0  0  0  0  0  0  0  0  0  0  0  0
  -12.7331   38.5929    7.2324 C   0  0  0  0  0  0  0  0  0  0  0  0
  -15.2326   38.9152    7.1675 N   0  0  0  0  0  0  0  0  0  0  0  0
  -17.3719   38.7140    9.8848 O   0  0  0  0  0  0  0  0  0  0  0  0
  -18.8443   36.8118    7.9153 O   0  0  0  0  0  0  0  0  0  0  0  0
  -18.3874   40.0840    6.4852 O   0  0  0  0  0  0  0  0  0  0  0  0
  -20.5311   39.3416    5.1086 O   0  0  0  0  0  0  0  0  0  0  0  0
  -13.7997   40.6910    7.5944 O   0  0  0  0  0  0  0  0  0  0  0  0
  -21.8690   39.4404    5.1432 C   0  0  1  0  0  0  0  0  0  0  0  0
  -22.3908   40.5342    4.2665 C   0  0  2  0  0  0  0  0  0  0  0  0
  -22.8671   40.1559    2.9140 C   0  0  1  0  0  0  0  0  0  0  0  0
  -23.2845   38.7375    2.7254 C   0  0  1  0  0  0  0  0  0  0  0  0
  -22.2256   37.8910    3.4465 C   0  0  2  0  0  0  0  0  0  0  0  0
  -22.4106   36.4313    3.1900 C   0  0  0  0  0  0  0  0  0  0  0  0
  -21.4499   41.5490    4.1225 O   0  0  0  0  0  0  0  0  0  0  0  0
  -23.9467   40.9744    2.5042 O   0  0  0  0  0  0  0  0  0  0  0  0
  -24.5465   38.5140    3.2775 O   0  0  0  0  0  0  0  0  0  0  0  0
  -22.3743   38.1770    4.7750 O   0  0  0  0  0  0  0  0  0  0  0  0
  -18.8691   42.8171    7.1575 C   0  0  0  0  0  0  0  0  0  0  0  0
  -17.2335   42.1175    7.5786 S   0  0  0  0  0  0  0  0  0  0  0  0
  2  1  1  0
  1 12  1  0
  1 26  1  1
  2  3  1  0
  2  9  1  6
  3  4  1  0
  3 10  1  1
  4  5  1  0
  4 11  1  6
  5  6  1  1
 12  5  1  0
  6 13  1  0
  7  8  1  0
  7  9  1  0
  7 14  2  0
 15 13  1  6
 15 16  1  0
 15 24  1  0
 16 17  1  0
 16 21  1  6
 17 18  1  0
 17 22  1  1
 18 19  1  0
 18 23  1  1
 19 20  1  1
 19 24  1  0
 26 25  1  0
M  END
$$$$
