
     RDKit          3D

 26 27  0  0  0  0  0  0  0  0999 V2000
  -23.1457   19.9492    2.6002 C   0  0  1  0  0  0  0  0  0  0  0  0
  -23.3728   21.3899    2.3251 C   0  0  1  0  0  0  0  0  0  0  0  0
  -23.6816   22.2755    3.4685 C   0  0  2  0  0  0  0  0  0  0  0  0
  -23.3220   21.7161    4.8449 C   0  0  1  0  0  0  0  0  0  0  0  0
  -22.3317   20.6295    4.6476 C   0  0  1  0  0  0  0  0  0  0  0  0
  -21.7757   20.0513    5.8981 C   0  0  0  0  0  0  0  0  0  0  0  0
  -22.4897   22.1849    0.0900 C   0  0  0  0  0  0  0  0  0  0  0  0
  -21.3534   22.0544   -0.8577 C   0  0  0  0  0  0  0  0  0  0  0  0
  -22.3115   21.9498    1.4717 N   0  0  0  0  0  0  0  0  0  0  0  0
  -25.0242   22.7164    3.4854 O   0  0  0  0  0  0  0  0  0  0  0  0
  -22.7616   22.7493    5.6173 O   0  0  0  0  0  0  0  0  0  0  0  0
  -22.8969   19.5904    3.8956 O   0  0  0  0  0  0  0  0  0  0  0  0
  -20.9176   19.0486    5.9062 O   0  0  0  0  0  0  0  0  0  0  0  0
  -23.6346   22.5124   -0.3508 O   0  0  0  0  0  0  0  0  0  0  0  0
  -20.4202   18.4759    7.0133 C   0  0  1  0  0  0  0  0  0  0  0  0
  -20.0864   17.0312    6.8166 C   0  0  2  0  0  0  0  0  0  0  0  0
  -18.6760   16.6927    6.5074 C   0  0  1  0  0  0  0  0  0  0  0  0
  -17.6441   17.6826    6.9279 C   0  0  1  0  0  0  0  0  0  0  0  0
  -18.2150   19.0611    6.5649 C   0  0  2  0  0  0  0  0  0  0  0  0
  -17.2108   20.1490    6.7618 C   0  0  0  0  0  0  0  0  0  0  0  0
  -20.8901   16.4635    5.8330 O   0  0  0  0  0  0  0  0  0  0  0  0
  -18.3163   15.4419    7.0635 O   0  0  0  0  0  0  0  0  0  0  0  0
  -17.4065   17.5991    8.3006 O   0  0  0  0  0  0  0  0  0  0  0  0
  -19.2934   19.2360    7.3867 O   0  0  0  0  0  0  0  0  0  0  0  0
  -25.2455   19.6888    0.5232 C   0  0  0  0  0  0  0  0  0  0  0  0
  -24.5232   18.9091    2.0107 S   0  0  0  0  0  0  0  0  0  0  0  0
  2  1  1  0
  1 12  1  0
  1 26  1  1
  2  3  1  0
  2  9  1  1
  3  4  1  0
  3 10  1  1
  4  5  1  0
  4 11  1  1
  5  6  1  1
 12  5  1  0
  6 13  1  0
  7  8  1  0
  7  9  1  0
  7 14  2  0
 15 13  1  6
 15 16  1  0
 15 24  1  0
 16 17  1  0
 16 21  1  6
 17 18  1  0
 17 22  1  1
 18 19  1  0
 18 23  1  1
 19 20  1  1
 19 24  1  0
 26 25  1  0
M  END
$$$$
