
     RDKit          3D

 26 27  0  0  0  0  0  0  0  0999 V2000
  -23.6006   41.2253    5.1892 C   0  0  1  0  0  0  0  0  0  0  0  0
  -23.5534   42.2705    4.1364 C   0  0  1  0  0  0  0  0  0  0  0  0
  -22.2410   42.8689    3.8097 C   0  0  2  0  0  0  0  0  0  0  0  0
  -21.0237   42.0686    4.2726 C   0  0  1  0  0  0  0  0  0  0  0  0
  -21.4649   40.6736    4.5170 C   0  0  1  0  0  0  0  0  0  0  0  0
  -20.3771   39.7210    4.8581 C   0  0  0  0  0  0  0  0  0  0  0  0
  -25.6612   42.0784    2.7480 C   0  0  0  0  0  0  0  0  0  0  0  0
  -26.3010   41.8843    1.4216 C   0  0  0  0  0  0  0  0  0  0  0  0
  -24.2783   41.8497    2.9259 N   0  0  0  0  0  0  0  0  0  0  0  0
  -22.1116   44.2046    4.2528 O   0  0  0  0  0  0  0  0  0  0  0  0
  -20.0526   42.0994    3.2556 O   0  0  0  0  0  0  0  0  0  0  0  0
  -22.4173   40.6405    5.5449 O   0  0  0  0  0  0  0  0  0  0  0  0
  -20.5240   38.7482    5.7377 O   0  0  0  0  0  0  0  0  0  0  0  0
  -26.3692   42.4551    3.7325 O   0  0  0  0  0  0  0  0  0  0  0  0
  -19.5345   38.2387    6.4878 C   0  0  1  0  0  0  0  0  0  0  0  0
  -20.0182   37.2136    7.4637 C   0  0  2  0  0  0  0  0  0  0  0  0
  -19.8966   35.7883    7.0725 C   0  0  1  0  0  0  0  0  0  0  0  0
  -18.8680   35.4635    6.0439 C   0  0  1  0  0  0  0  0  0  0  0  0
  -18.9844   36.5602    4.9756 C   0  0  2  0  0  0  0  0  0  0  0  0
  -18.1352   36.2675    3.7823 C   0  0  0  0  0  0  0  0  0  0  0  0
  -21.3422   37.4501    7.8196 O   0  0  0  0  0  0  0  0  0  0  0  0
  -19.6451   34.9683    8.1985 O   0  0  0  0  0  0  0  0  0  0  0  0
  -17.5896   35.4617    6.6038 O   0  0  0  0  0  0  0  0  0  0  0  0
  -18.5821   37.7123    5.5917 O   0  0  0  0  0  0  0  0  0  0  0  0
  -24.3057   40.4973    7.9755 C   0  0  0  0  0  0  0  0  0  0  0  0
  -24.3841   41.8263    6.7227 S   0  0  0  0  0  0  0  0  0  0  0  0
  2  1  1  0
  1 12  1  0
  1 26  1  1
  2  3  1  0
  2  9  1  6
  3  4  1  0
  3 10  1  1
  4  5  1  0
  4 11  1  6
  5  6  1  1
 12  5  1  0
  6 13  1  0
  7  8  1  0
  7  9  1  0
  7 14  2  0
 15 13  1  6
 15 16  1  0
 15 24  1  0
 16 17  1  0
 16 21  1  6
 17 18  1  0
 17 22  1  1
 18 19  1  0
 18 23  1  1
 19 20  1  6
 19 24  1  0
 26 25  1  0
M  END
$$$$
