
     RDKit          3D

 26 27  0  0  0  0  0  0  0  0999 V2000
  -17.5617   46.3354  -11.1532 C   0  0  1  0  0  0  0  0  0  0  0  0
  -17.3952   44.9840  -10.5624 C   0  0  1  0  0  0  0  0  0  0  0  0
  -16.6269   44.8653   -9.3044 C   0  0  2  0  0  0  0  0  0  0  0  0
  -16.4478   46.1663   -8.5221 C   0  0  1  0  0  0  0  0  0  0  0  0
  -17.4845   47.1203   -8.9863 C   0  0  1  0  0  0  0  0  0  0  0  0
  -17.5360   48.4043   -8.2407 C   0  0  0  0  0  0  0  0  0  0  0  0
  -18.9608   43.1272  -11.2758 C   0  0  0  0  0  0  0  0  0  0  0  0
  -20.2585   42.4157  -11.1487 C   0  0  0  0  0  0  0  0  0  0  0  0
  -18.6785   44.2660  -10.4885 N   0  0  0  0  0  0  0  0  0  0  0  0
  -15.3651   44.2528   -9.4774 O   0  0  0  0  0  0  0  0  0  0  0  0
  -16.6171   45.8940   -7.1526 O   0  0  0  0  0  0  0  0  0  0  0  0
  -17.3031   47.4081  -10.3461 O   0  0  0  0  0  0  0  0  0  0  0  0
  -18.2974   49.4179   -8.6077 O   0  0  0  0  0  0  0  0  0  0  0  0
  -18.0962   42.7036  -12.1037 O   0  0  0  0  0  0  0  0  0  0  0  0
  -18.0143   50.7097   -8.3793 C   0  0  1  0  0  0  0  0  0  0  0  0
  -19.1894   51.6075   -8.6044 C   0  0  2  0  0  0  0  0  0  0  0  0
  -19.9856   51.9999   -7.4164 C   0  0  1  0  0  0  0  0  0  0  0  0
  -19.2943   51.9340   -6.0975 C   0  0  1  0  0  0  0  0  0  0  0  0
  -18.5003   50.6198   -6.1072 C   0  0  2  0  0  0  0  0  0  0  0  0
  -17.8960   50.3246   -4.7736 C   0  0  0  0  0  0  0  0  0  0  0  0
  -20.0593   51.0635   -9.5441 O   0  0  0  0  0  0  0  0  0  0  0  0
  -20.5055   53.3087   -7.5585 O   0  0  0  0  0  0  0  0  0  0  0  0
  -18.4354   53.0216   -5.9326 O   0  0  0  0  0  0  0  0  0  0  0  0
  -17.5316   50.7870   -7.0572 O   0  0  0  0  0  0  0  0  0  0  0  0
  -17.2636   47.9489  -13.6227 C   0  0  0  0  0  0  0  0  0  0  0  0
  -16.5697   46.5526  -12.6682 S   0  0  0  0  0  0  0  0  0  0  0  0
  2  1  1  0
  1 12  1  0
  1 26  1  6
  2  3  1  0
  2  9  1  1
  3  4  1  0
  3 10  1  6
  4  5  1  0
  4 11  1  1
  5  6  1  1
 12  5  1  0
  6 13  1  0
  7  8  1  0
  7  9  1  0
  7 14  2  0
 15 13  1  1
 15 16  1  0
 15 24  1  0
 16 17  1  0
 16 21  1  6
 17 18  1  0
 17 22  1  6
 18 19  1  0
 18 23  1  6
 19 20  1  1
 19 24  1  0
 26 25  1  0
M  END
$$$$
