
     RDKit          3D

 26 27  0  0  0  0  0  0  0  0999 V2000
  -16.4413   20.6037  -15.9645 C   0  0  1  0  0  0  0  0  0  0  0  0
  -15.6903   19.3239  -15.9312 C   0  0  1  0  0  0  0  0  0  0  0  0
  -15.9372   18.3450  -17.0120 C   0  0  2  0  0  0  0  0  0  0  0  0
  -16.6064   18.9091  -18.2652 C   0  0  1  0  0  0  0  0  0  0  0  0
  -16.4123   20.3798  -18.2594 C   0  0  1  0  0  0  0  0  0  0  0  0
  -16.8966   21.0824  -19.4755 C   0  0  0  0  0  0  0  0  0  0  0  0
  -13.6267   19.3429  -14.4655 C   0  0  0  0  0  0  0  0  0  0  0  0
  -12.3085   19.9566  -14.1621 C   0  0  0  0  0  0  0  0  0  0  0  0
  -14.2512   19.5486  -15.7161 N   0  0  0  0  0  0  0  0  0  0  0  0
  -16.6524   17.2055  -16.5794 O   0  0  0  0  0  0  0  0  0  0  0  0
  -15.9916   18.3429  -19.3964 O   0  0  0  0  0  0  0  0  0  0  0  0
  -17.0429   20.9466  -17.1432 O   0  0  0  0  0  0  0  0  0  0  0  0
  -17.0720   22.3894  -19.5279 O   0  0  0  0  0  0  0  0  0  0  0  0
  -14.1967   18.6244  -13.5872 O   0  0  0  0  0  0  0  0  0  0  0  0
  -17.8244   23.0246  -20.4397 C   0  0  1  0  0  0  0  0  0  0  0  0
  -17.5985   24.5032  -20.4468 C   0  0  2  0  0  0  0  0  0  0  0  0
  -16.6550   25.0444  -21.4548 C   0  0  1  0  0  0  0  0  0  0  0  0
  -16.4288   24.2138  -22.6717 C   0  0  1  0  0  0  0  0  0  0  0  0
  -16.2944   22.7682  -22.1718 C   0  0  2  0  0  0  0  0  0  0  0  0
  -15.8815   21.8375  -23.2644 C   0  0  0  0  0  0  0  0  0  0  0  0
  -17.1923   24.9512  -19.1938 O   0  0  0  0  0  0  0  0  0  0  0  0
  -17.0516   26.3324  -21.8874 O   0  0  0  0  0  0  0  0  0  0  0  0
  -17.5027   24.3263  -23.5558 O   0  0  0  0  0  0  0  0  0  0  0  0
  -17.5279   22.4353  -21.6855 O   0  0  0  0  0  0  0  0  0  0  0  0
  -18.2752   22.4214  -14.5073 C   0  0  0  0  0  0  0  0  0  0  0  0
  -17.7194   20.6871  -14.6659 S   0  0  0  0  0  0  0  0  0  0  0  0
  2  1  1  0
  1 12  1  0
  1 26  1  1
  2  3  1  0
  2  9  1  6
  3  4  1  0
  3 10  1  1
  4  5  1  0
  4 11  1  6
  5  6  1  6
 12  5  1  0
  6 13  1  0
  7  8  1  0
  7  9  1  0
  7 14  2  0
 15 13  1  1
 15 16  1  0
 15 24  1  0
 16 17  1  0
 16 21  1  1
 17 18  1  0
 17 22  1  6
 18 19  1  0
 18 23  1  6
 19 20  1  6
 19 24  1  0
 26 25  1  0
M  END
$$$$
