
     RDKit          3D

 26 27  0  0  0  0  0  0  0  0999 V2000
  -19.3805   39.3894    5.5990 C   0  0  1  0  0  0  0  0  0  0  0  0
  -20.3223   39.2905    4.4560 C   0  0  1  0  0  0  0  0  0  0  0  0
  -21.2738   40.4022    4.2414 C   0  0  2  0  0  0  0  0  0  0  0  0
  -20.9167   41.7132    4.9417 C   0  0  1  0  0  0  0  0  0  0  0  0
  -19.4716   41.6705    5.2738 C   0  0  1  0  0  0  0  0  0  0  0  0
  -18.9227   42.9234    5.8534 C   0  0  0  0  0  0  0  0  0  0  0  0
  -19.5493   37.5884    2.7494 C   0  0  0  0  0  0  0  0  0  0  0  0
  -18.2353   36.9387    2.5090 C   0  0  0  0  0  0  0  0  0  0  0  0
  -19.6248   38.9209    3.2131 N   0  0  0  0  0  0  0  0  0  0  0  0
  -22.6093   40.0608    4.5528 O   0  0  0  0  0  0  0  0  0  0  0  0
  -21.1815   42.7787    4.0626 O   0  0  0  0  0  0  0  0  0  0  0  0
  -19.2110   40.6216    6.1663 O   0  0  0  0  0  0  0  0  0  0  0  0
  -17.7238   42.9967    6.4002 O   0  0  0  0  0  0  0  0  0  0  0  0
  -20.6165   36.9349    2.5339 O   0  0  0  0  0  0  0  0  0  0  0  0
  -17.3718   43.8676    7.3587 C   0  0  1  0  0  0  0  0  0  0  0  0
  -15.9013   43.8623    7.6328 C   0  0  2  0  0  0  0  0  0  0  0  0
  -15.0791   44.9001    6.9648 C   0  0  1  0  0  0  0  0  0  0  0  0
  -15.7883   46.1372    6.5309 C   0  0  1  0  0  0  0  0  0  0  0  0
  -17.1090   45.6644    5.9064 C   0  0  2  0  0  0  0  0  0  0  0  0
  -17.8513   46.7865    5.2579 C   0  0  0  0  0  0  0  0  0  0  0  0
  -15.3449   42.6206    7.3427 O   0  0  0  0  0  0  0  0  0  0  0  0
  -13.9937   45.2972    7.7819 O   0  0  0  0  0  0  0  0  0  0  0  0
  -16.0358   46.9749    7.6193 O   0  0  0  0  0  0  0  0  0  0  0  0
  -17.8300   45.1329    6.9391 O   0  0  0  0  0  0  0  0  0  0  0  0
  -21.4784   37.5662    6.6314 C   0  0  0  0  0  0  0  0  0  0  0  0
  -19.8054   38.2334    6.9444 S   0  0  0  0  0  0  0  0  0  0  0  0
  2  1  1  0
  1 12  1  0
  1 26  1  1
  2  3  1  0
  2  9  1  6
  3  4  1  0
  3 10  1  1
  4  5  1  0
  4 11  1  6
  5  6  1  1
 12  5  1  0
  6 13  1  0
  7  8  1  0
  7  9  1  0
  7 14  2  0
 15 13  1  6
 15 16  1  0
 15 24  1  0
 16 17  1  0
 16 21  1  6
 17 18  1  0
 17 22  1  1
 18 19  1  0
 18 23  1  1
 19 20  1  1
 19 24  1  0
 26 25  1  0
M  END
$$$$
