
     RDKit          3D

 26 27  0  0  0  0  0  0  0  0999 V2000
  -18.0260   41.4819    8.9634 C   0  0  1  0  0  0  0  0  0  0  0  0
  -17.0729   42.4812    8.4192 C   0  0  1  0  0  0  0  0  0  0  0  0
  -16.1810   42.0620    7.3164 C   0  0  2  0  0  0  0  0  0  0  0  0
  -16.6123   40.7997    6.5700 C   0  0  1  0  0  0  0  0  0  0  0  0
  -18.0552   40.5851    6.8392 C   0  0  1  0  0  0  0  0  0  0  0  0
  -18.6744   39.4625    6.0885 C   0  0  0  0  0  0  0  0  0  0  0  0
  -17.5552   44.9160    8.9153 C   0  0  0  0  0  0  0  0  0  0  0  0
  -18.3813   46.1306    8.6946 C   0  0  0  0  0  0  0  0  0  0  0  0
  -17.7414   43.7596    8.1251 N   0  0  0  0  0  0  0  0  0  0  0  0
  -14.8311   41.9263    7.7122 O   0  0  0  0  0  0  0  0  0  0  0  0
  -16.3993   40.9967    5.1938 O   0  0  0  0  0  0  0  0  0  0  0  0
  -18.2650   40.3679    8.2080 O   0  0  0  0  0  0  0  0  0  0  0  0
  -19.9417   39.4569    5.7207 O   0  0  0  0  0  0  0  0  0  0  0  0
  -16.6709   44.9207    9.8266 O   0  0  0  0  0  0  0  0  0  0  0  0
  -20.5447   38.4516    5.0673 C   0  0  1  0  0  0  0  0  0  0  0  0
  -21.2496   38.9073    3.8293 C   0  0  2  0  0  0  0  0  0  0  0  0
  -20.5290   38.7621    2.5412 C   0  0  1  0  0  0  0  0  0  0  0  0
  -19.4486   37.7365    2.4923 C   0  0  1  0  0  0  0  0  0  0  0  0
  -18.6734   37.8829    3.8096 C   0  0  2  0  0  0  0  0  0  0  0  0
  -17.4415   37.0386    3.8275 C   0  0  0  0  0  0  0  0  0  0  0  0
  -21.6568   40.2325    3.9469 O   0  0  0  0  0  0  0  0  0  0  0  0
  -21.4257   38.4855    1.4816 O   0  0  0  0  0  0  0  0  0  0  0  0
  -19.9870   36.4535    2.3831 O   0  0  0  0  0  0  0  0  0  0  0  0
  -19.5452   37.4972    4.7895 O   0  0  0  0  0  0  0  0  0  0  0  0
  -16.5672   39.3763   10.4562 C   0  0  0  0  0  0  0  0  0  0  0  0
  -17.5486   40.9090   10.6279 S   0  0  0  0  0  0  0  0  0  0  0  0
  2  1  1  0
  1 12  1  0
  1 26  1  1
  2  3  1  0
  2  9  1  6
  3  4  1  0
  3 10  1  1
  4  5  1  0
  4 11  1  6
  5  6  1  6
 12  5  1  0
  6 13  1  0
  7  8  1  0
  7  9  1  0
  7 14  2  0
 15 13  1  6
 15 16  1  0
 15 24  1  0
 16 17  1  0
 16 21  1  1
 17 18  1  0
 17 22  1  6
 18 19  1  0
 18 23  1  1
 19 20  1  6
 19 24  1  0
 26 25  1  0
M  END
$$$$
