
     RDKit          3D

 26 27  0  0  0  0  0  0  0  0999 V2000
  -15.7569   30.7615  -17.8121 C   0  0  1  0  0  0  0  0  0  0  0  0
  -14.4263   31.4177  -17.7698 C   0  0  1  0  0  0  0  0  0  0  0  0
  -14.3816   32.8924  -17.6670 C   0  0  2  0  0  0  0  0  0  0  0  0
  -15.6749   33.5544  -17.1916 C   0  0  1  0  0  0  0  0  0  0  0  0
  -16.4905   32.5187  -16.5115 C   0  0  1  0  0  0  0  0  0  0  0  0
  -17.7365   33.0180  -15.8748 C   0  0  0  0  0  0  0  0  0  0  0  0
  -12.4141   30.0069  -17.1631 C   0  0  0  0  0  0  0  0  0  0  0  0
  -11.5915   29.3092  -16.1419 C   0  0  0  0  0  0  0  0  0  0  0  0
  -13.5389   30.7745  -16.7866 N   0  0  0  0  0  0  0  0  0  0  0  0
  -13.9509   33.5214  -18.8569 O   0  0  0  0  0  0  0  0  0  0  0  0
  -15.3478   34.5837  -16.2906 O   0  0  0  0  0  0  0  0  0  0  0  0
  -16.8342   31.5034  -17.4146 O   0  0  0  0  0  0  0  0  0  0  0  0
  -18.9224   32.4855  -16.1021 O   0  0  0  0  0  0  0  0  0  0  0  0
  -12.0993   29.9102  -18.3895 O   0  0  0  0  0  0  0  0  0  0  0  0
  -20.0777   33.1683  -16.1176 C   0  0  1  0  0  0  0  0  0  0  0  0
  -21.2732   32.2787  -16.2466 C   0  0  2  0  0  0  0  0  0  0  0  0
  -21.9867   31.9096  -15.0000 C   0  0  1  0  0  0  0  0  0  0  0  0
  -21.8170   32.8261  -13.8369 C   0  0  1  0  0  0  0  0  0  0  0  0
  -20.3255   33.1897  -13.8057 C   0  0  2  0  0  0  0  0  0  0  0  0
  -19.9666   33.9629  -12.5793 C   0  0  0  0  0  0  0  0  0  0  0  0
  -20.9506   31.1052  -16.9207 O   0  0  0  0  0  0  0  0  0  0  0  0
  -23.3761   31.7666  -15.2289 O   0  0  0  0  0  0  0  0  0  0  0  0
  -22.5957   33.9738  -13.9918 O   0  0  0  0  0  0  0  0  0  0  0  0
  -20.1083   33.9319  -14.9331 O   0  0  0  0  0  0  0  0  0  0  0  0
  -16.7308   28.3740  -19.2758 C   0  0  0  0  0  0  0  0  0  0  0  0
  -16.1449   30.0953  -19.4651 S   0  0  0  0  0  0  0  0  0  0  0  0
  2  1  1  0
  1 12  1  0
  1 26  1  6
  2  3  1  0
  2  9  1  1
  3  4  1  0
  3 10  1  6
  4  5  1  0
  4 11  1  1
  5  6  1  6
 12  5  1  0
  6 13  1  0
  7  8  1  0
  7  9  1  0
  7 14  2  0
 15 13  1  1
 15 16  1  0
 15 24  1  0
 16 17  1  0
 16 21  1  1
 17 18  1  0
 17 22  1  6
 18 19  1  0
 18 23  1  6
 19 20  1  1
 19 24  1  0
 26 25  1  0
M  END
$$$$
