
     RDKit          3D

 36 39  0  0  0  0  0  0  0  0999 V2000
  -17.6900    8.4306   -0.3634 N   0  0  0  0  0  0  0  0  0  0  0  0
   -9.5754    9.5244    2.0936 N   0  0  0  0  0  4  0  0  0  0  0  0
  -25.1333    6.9612   -0.9693 C   0  0  0  0  0  0  0  0  0  0  0  0
  -25.3162    7.9451    1.6000 C   0  0  0  0  0  0  0  0  0  0  0  0
  -24.1032    7.4682    1.1112 C   0  0  0  0  0  0  0  0  0  0  0  0
  -24.0157    6.9786   -0.1705 C   0  0  0  0  0  0  0  0  0  0  0  0
  -21.2676    7.6506   -0.9049 C   0  0  1  0  0  0  0  0  0  0  0  0
  -19.4670    9.1010   -3.4034 C   0  0  0  0  0  0  0  0  0  0  0  0
  -16.7369    8.9862    0.4033 C   0  0  0  0  0  0  0  0  0  0  0  0
  -14.2175    9.0679    0.5252 C   0  0  0  0  0  0  0  0  0  0  0  0
  -12.5124   10.6939    0.8504 C   0  0  0  0  0  0  0  0  0  0  0  0
  -13.5088    8.2248    1.3730 C   0  0  0  0  0  0  0  0  0  0  0  0
  -19.8573    7.2582   -0.5583 C   0  0  1  0  0  0  0  0  0  0  0  0
  -27.7217    8.4458    1.3497 C   0  0  0  0  0  0  0  0  0  0  0  0
  -19.7133    9.6685   -0.9750 C   0  0  2  0  0  0  0  0  0  0  0  0
  -19.1370    8.5445   -0.2130 C   0  0  2  0  0  0  0  0  0  0  0  0
  -15.4672    8.6379   -0.0699 C   0  0  0  0  0  0  0  0  0  0  0  0
  -13.7030   10.3199    0.2661 C   0  0  0  0  0  0  0  0  0  0  0  0
  -11.8100    9.8558    1.6918 C   0  0  0  0  0  0  0  0  0  0  0  0
  -12.3302    8.6047    1.9468 C   0  0  0  0  0  0  0  0  0  0  0  0
  -26.4440    7.9343    0.8118 C   0  0  0  0  0  0  0  0  0  0  0  0
  -26.3336    7.4346   -0.4812 C   0  0  0  0  0  0  0  0  0  0  0  0
  -20.4086    9.3233   -2.2532 C   0  0  2  0  0  0  0  0  0  0  0  0
  -14.3798   11.1552   -0.5574 F   0  0  0  0  0  0  0  0  0  0  0  0
  -11.9695   11.9170    0.6229 F   0  0  0  0  0  0  0  0  0  0  0  0
  -11.6810    7.7350    2.7692 F   0  0  0  0  0  0  0  0  0  0  0  0
  -13.9900    6.9738    1.6526 F   0  0  0  0  0  0  0  0  0  0  0  0
  -10.5806   10.2385    2.2968 N   0  0  0  0  0  0  0  0  0  0  0  0
   -8.4870    9.2512    1.5902 N   0  0  0  0  0  2  0  0  0  0  0  0
  -15.7273    7.8628   -1.1353 N   0  0  0  0  0  0  0  0  0  0  0  0
  -17.0321    7.7498   -1.2957 N   0  0  0  0  0  0  0  0  0  0  0  0
  -21.2485    8.2305   -2.1598 O   0  0  0  0  0  0  0  0  0  0  0  0
  -19.6091   10.0559   -4.4047 O   0  0  0  0  0  0  0  0  0  0  0  0
  -18.7122   10.6129   -1.2663 O   0  0  0  0  0  0  0  0  0  0  0  0
  -19.7826    6.3861    0.5320 O   0  0  0  0  0  0  0  0  0  0  0  0
  -22.4786    6.3495   -0.7985 S   0  0  0  0  0  0  0  0  0  0  0  0
  9  1  1  0
 16  1  1  6
  1 31  1  0
 28  2  2  3
  2 29  2  0
  6  3  2  0
  3 22  1  0
  5  4  2  0
  4 21  1  0
  6  5  1  0
 36  6  1  0
 13  7  1  0
  7 32  1  0
  7 36  1  6
 23  8  1  6
  8 33  1  0
 17  9  2  0
 12 10  2  0
 10 17  1  0
 18 10  1  0
 11 18  2  0
 19 11  1  0
 11 25  1  0
 20 12  1  0
 12 27  1  0
 16 13  1  0
 13 35  1  1
 21 14  1  0
 16 15  1  0
 15 23  1  0
 15 34  1  6
 17 30  1  0
 18 24  1  0
 19 20  2  0
 19 28  1  0
 20 26  1  0
 21 22  2  0
 23 32  1  0
 30 31  2  0
M  CHG  2   2   1  29  -1
M  END
$$$$
