
     RDKit          3D

 36 39  0  0  0  0  0  0  0  0999 V2000
  -16.9223    7.9897   -0.4651 N   0  0  0  0  0  0  0  0  0  0  0  0
   -9.3662   11.5603   -0.0175 N   0  0  0  0  0  4  0  0  0  0  0  0
  -24.5459    9.7819   -0.2661 C   0  0  0  0  0  0  0  0  0  0  0  0
  -24.3670    9.1365   -2.9409 C   0  0  0  0  0  0  0  0  0  0  0  0
  -23.2230    9.1915   -2.1498 C   0  0  0  0  0  0  0  0  0  0  0  0
  -23.3161    9.5133   -0.8163 C   0  0  0  0  0  0  0  0  0  0  0  0
  -20.5809    8.5511   -0.4478 C   0  0  1  0  0  0  0  0  0  0  0  0
  -19.3498    5.4703    0.3148 C   0  0  0  0  0  0  0  0  0  0  0  0
  -15.8383    8.7781   -0.5560 C   0  0  0  0  0  0  0  0  0  0  0  0
  -13.4260    8.7686    0.1852 C   0  0  0  0  0  0  0  0  0  0  0  0
  -11.4314    9.5848   -0.8212 C   0  0  0  0  0  0  0  0  0  0  0  0
  -12.8721    9.0784    1.4218 C   0  0  0  0  0  0  0  0  0  0  0  0
  -19.1839    8.8651    0.0133 C   0  0  1  0  0  0  0  0  0  0  0  0
  -26.8077    9.3383   -3.2610 C   0  0  0  0  0  0  0  0  0  0  0  0
  -18.8794    7.0340   -1.5861 C   0  0  2  0  0  0  0  0  0  0  0  0
  -18.2552    8.2375   -1.0048 C   0  0  2  0  0  0  0  0  0  0  0  0
  -14.7498    8.1857    0.0933 C   0  0  0  0  0  0  0  0  0  0  0  0
  -12.6863    9.0296   -0.9479 C   0  0  0  0  0  0  0  0  0  0  0  0
  -10.8830    9.8918    0.4072 C   0  0  0  0  0  0  0  0  0  0  0  0
  -11.6282    9.6281    1.5367 C   0  0  0  0  0  0  0  0  0  0  0  0
  -25.6056    9.4027   -2.4040 C   0  0  0  0  0  0  0  0  0  0  0  0
  -25.6773    9.7266   -1.0535 C   0  0  0  0  0  0  0  0  0  0  0  0
  -19.9223    6.3546   -0.7571 C   0  0  2  0  0  0  0  0  0  0  0  0
  -13.2098    8.7345   -2.1615 F   0  0  0  0  0  0  0  0  0  0  0  0
  -10.6686    9.8582   -1.9101 F   0  0  0  0  0  0  0  0  0  0  0  0
  -11.1384    9.9102    2.7756 F   0  0  0  0  0  0  0  0  0  0  0  0
  -13.5784    8.8326    2.5687 F   0  0  0  0  0  0  0  0  0  0  0  0
   -9.5878   10.4650    0.5418 N   0  0  0  0  0  0  0  0  0  0  0  0
   -9.5889   12.7406   -0.2821 N   0  0  0  0  0  2  0  0  0  0  0  0
  -15.2493    7.0295    0.5594 N   0  0  0  0  0  0  0  0  0  0  0  0
  -16.5218    6.9276    0.2254 N   0  0  0  0  0  0  0  0  0  0  0  0
  -20.8274    7.2189   -0.1721 O   0  0  0  0  0  0  0  0  0  0  0  0
  -19.9744    4.2290    0.3759 O   0  0  0  0  0  0  0  0  0  0  0  0
  -17.8892    6.0856   -1.9011 O   0  0  0  0  0  0  0  0  0  0  0  0
  -18.9245   10.2372    0.0833 O   0  0  0  0  0  0  0  0  0  0  0  0
  -21.8619    9.6058    0.1983 S   0  0  0  0  0  0  0  0  0  0  0  0
  9  1  1  0
 16  1  1  1
  1 31  1  0
 28  2  2  3
  2 29  2  0
  6  3  2  0
  3 22  1  0
  5  4  2  0
  4 21  1  0
  6  5  1  0
 36  6  1  0
 13  7  1  0
  7 32  1  0
  7 36  1  1
 23  8  1  1
  8 33  1  0
 17  9  2  0
 12 10  2  0
 10 17  1  0
 18 10  1  0
 11 18  2  0
 19 11  1  0
 11 25  1  0
 20 12  1  0
 12 27  1  0
 16 13  1  0
 13 35  1  6
 21 14  1  0
 16 15  1  0
 15 23  1  0
 15 34  1  1
 17 30  1  0
 18 24  1  0
 19 20  2  0
 19 28  1  0
 20 26  1  0
 21 22  2  0
 23 32  1  0
 30 31  2  0
M  CHG  2   2   1  29  -1
M  END
$$$$
