
     RDKit          3D

 36 39  0  0  0  0  0  0  0  0999 V2000
  -17.1365    8.3129   -0.4406 N   0  0  0  0  0  0  0  0  0  0  0  0
   -8.8504    9.2369    1.5035 N   0  0  0  0  0  4  0  0  0  0  0  0
  -24.7489    6.4202   -0.3637 C   0  0  0  0  0  0  0  0  0  0  0  0
  -24.9743    9.1491   -0.0392 C   0  0  0  0  0  0  0  0  0  0  0  0
  -23.7233    8.5564   -0.1854 C   0  0  0  0  0  0  0  0  0  0  0  0
  -23.6148    7.1954   -0.3473 C   0  0  0  0  0  0  0  0  0  0  0  0
  -20.7618    7.6521   -0.7882 C   0  0  1  0  0  0  0  0  0  0  0  0
  -18.9915    8.7661   -3.4741 C   0  0  0  0  0  0  0  0  0  0  0  0
  -16.1348    8.8356    0.2862 C   0  0  0  0  0  0  0  0  0  0  0  0
  -13.6122    8.7844    0.3414 C   0  0  0  0  0  0  0  0  0  0  0  0
  -12.1200    9.0289    2.1774 C   0  0  0  0  0  0  0  0  0  0  0  0
  -12.6067    9.2800   -0.4802 C   0  0  0  0  0  0  0  0  0  0  0  0
  -19.3583    7.2298   -0.4494 C   0  0  1  0  0  0  0  0  0  0  0  0
  -27.4375    9.0349    0.1024 C   0  0  0  0  0  0  0  0  0  0  0  0
  -19.1249    9.5786   -1.1072 C   0  0  2  0  0  0  0  0  0  0  0  0
  -18.5707    8.5086   -0.2563 C   0  0  2  0  0  0  0  0  0  0  0  0
  -14.8986    8.4074   -0.2097 C   0  0  0  0  0  0  0  0  0  0  0  0
  -13.3551    8.6606    1.6897 C   0  0  0  0  0  0  0  0  0  0  0  0
  -11.1228    9.5208    1.3603 C   0  0  0  0  0  0  0  0  0  0  0  0
  -11.3865    9.6420    0.0126 C   0  0  0  0  0  0  0  0  0  0  0  0
  -26.1191    8.3859   -0.0538 C   0  0  0  0  0  0  0  0  0  0  0  0
  -25.9869    7.0114   -0.2184 C   0  0  0  0  0  0  0  0  0  0  0  0
  -19.8803    9.1433   -2.3223 C   0  0  2  0  0  0  0  0  0  0  0  0
  -14.3229    8.1794    2.5057 F   0  0  0  0  0  0  0  0  0  0  0  0
  -11.8239    8.9238    3.4978 F   0  0  0  0  0  0  0  0  0  0  0  0
  -10.4406   10.1213   -0.8417 F   0  0  0  0  0  0  0  0  0  0  0  0
  -12.8270    9.4167   -1.8247 F   0  0  0  0  0  0  0  0  0  0  0  0
   -9.8465    9.9019    1.8603 N   0  0  0  0  0  0  0  0  0  0  0  0
   -7.9251    8.4432    1.6663 N   0  0  0  0  0  2  0  0  0  0  0  0
  -15.2283    7.6205   -1.2469 N   0  0  0  0  0  0  0  0  0  0  0  0
  -16.5412    7.5741   -1.3707 N   0  0  0  0  0  0  0  0  0  0  0  0
  -20.7630    8.1053   -2.0945 O   0  0  0  0  0  0  0  0  0  0  0  0
  -19.1885    9.5729   -4.5897 O   0  0  0  0  0  0  0  0  0  0  0  0
  -18.0949   10.4422   -1.5224 O   0  0  0  0  0  0  0  0  0  0  0  0
  -19.2821    6.4657    0.7190 O   0  0  0  0  0  0  0  0  0  0  0  0
  -22.0236    6.4256   -0.5151 S   0  0  0  0  0  0  0  0  0  0  0  0
  9  1  1  0
 16  1  1  6
  1 31  1  0
 28  2  2  3
  2 29  2  0
  6  3  2  0
  3 22  1  0
  5  4  2  0
  4 21  1  0
  6  5  1  0
 36  6  1  0
 13  7  1  0
  7 32  1  0
  7 36  1  6
 23  8  1  6
  8 33  1  0
 17  9  2  0
 12 10  2  0
 10 17  1  0
 18 10  1  0
 11 18  2  0
 19 11  1  0
 11 25  1  0
 20 12  1  0
 12 27  1  0
 16 13  1  0
 13 35  1  1
 21 14  1  0
 16 15  1  0
 15 23  1  0
 15 34  1  6
 17 30  1  0
 18 24  1  0
 19 20  2  0
 19 28  1  0
 20 26  1  0
 21 22  2  0
 23 32  1  0
 30 31  2  0
M  CHG  2   2   1  29  -1
M  END
$$$$
