
     RDKit          3D

 36 39  0  0  0  0  0  0  0  0999 V2000
  -17.3751    8.2584   -0.5717 N   0  0  0  0  0  0  0  0  0  0  0  0
   -9.6053   11.2479   -1.7635 N   0  0  0  0  0  4  0  0  0  0  0  0
  -24.8286    8.0335   -1.0512 C   0  0  0  0  0  0  0  0  0  0  0  0
  -24.9549    8.6147   -3.7437 C   0  0  0  0  0  0  0  0  0  0  0  0
  -23.8923    9.0749   -2.9711 C   0  0  0  0  0  0  0  0  0  0  0  0
  -23.8325    8.7828   -1.6289 C   0  0  0  0  0  0  0  0  0  0  0  0
  -21.0692    8.3236   -0.7948 C   0  0  1  0  0  0  0  0  0  0  0  0
  -19.5437    5.9750    1.1405 C   0  0  0  0  0  0  0  0  0  0  0  0
  -16.2300    8.6049   -1.1828 C   0  0  0  0  0  0  0  0  0  0  0  0
  -13.8067    8.9802   -0.5861 C   0  0  0  0  0  0  0  0  0  0  0  0
  -11.4812    8.4813   -0.5944 C   0  0  0  0  0  0  0  0  0  0  0  0
  -13.5038   10.1758   -1.2270 C   0  0  0  0  0  0  0  0  0  0  0  0
  -19.7425    8.9647   -0.4920 C   0  0  1  0  0  0  0  0  0  0  0  0
  -27.0785    7.3837   -4.0173 C   0  0  0  0  0  0  0  0  0  0  0  0
  -19.1508    6.7027   -1.2250 C   0  0  2  0  0  0  0  0  0  0  0  0
  -18.6968    8.1052   -1.1707 C   0  0  2  0  0  0  0  0  0  0  0  0
  -15.1782    8.6424   -0.2610 C   0  0  0  0  0  0  0  0  0  0  0  0
  -12.7724    8.1264   -0.2691 C   0  0  0  0  0  0  0  0  0  0  0  0
  -11.1822    9.6686   -1.2306 C   0  0  0  0  0  0  0  0  0  0  0  0
  -12.2215   10.5181   -1.5448 C   0  0  0  0  0  0  0  0  0  0  0  0
  -25.9597    7.8630   -3.1793 C   0  0  0  0  0  0  0  0  0  0  0  0
  -25.8800    7.5795   -1.8203 C   0  0  0  0  0  0  0  0  0  0  0  0
  -20.1537    6.2840   -0.1978 C   0  0  2  0  0  0  0  0  0  0  0  0
  -13.0484    6.9569    0.3554 F   0  0  0  0  0  0  0  0  0  0  0  0
  -10.4326    7.6709   -0.3009 F   0  0  0  0  0  0  0  0  0  0  0  0
  -11.9865   11.7033   -2.1728 F   0  0  0  0  0  0  0  0  0  0  0  0
  -14.5062   11.0482   -1.5568 F   0  0  0  0  0  0  0  0  0  0  0  0
   -9.8504   10.0382   -1.5679 N   0  0  0  0  0  0  0  0  0  0  0  0
   -9.7306   12.3317   -2.3311 N   0  0  0  0  0  2  0  0  0  0  0  0
  -15.7621    8.3048    0.9003 N   0  0  0  0  0  0  0  0  0  0  0  0
  -17.0479    8.0828    0.7041 N   0  0  0  0  0  0  0  0  0  0  0  0
  -21.1795    7.1903   -0.0105 O   0  0  0  0  0  0  0  0  0  0  0  0
  -20.0298    4.7939    1.6913 O   0  0  0  0  0  0  0  0  0  0  0  0
  -18.0455    5.8375   -1.1308 O   0  0  0  0  0  0  0  0  0  0  0  0
  -19.6421   10.2729   -0.9752 O   0  0  0  0  0  0  0  0  0  0  0  0
  -22.4925    9.3807   -0.6291 S   0  0  0  0  0  0  0  0  0  0  0  0
  9  1  1  0
 16  1  1  1
  1 31  1  0
 28  2  2  3
  2 29  2  0
  6  3  2  0
  3 22  1  0
  5  4  2  0
  4 21  1  0
  6  5  1  0
 36  6  1  0
 13  7  1  0
  7 32  1  0
  7 36  1  1
 23  8  1  1
  8 33  1  0
 17  9  2  0
 12 10  2  0
 10 17  1  0
 18 10  1  0
 11 18  2  0
 19 11  1  0
 11 25  1  0
 20 12  1  0
 12 27  1  0
 16 13  1  0
 13 35  1  6
 21 14  1  0
 16 15  1  0
 15 23  1  0
 15 34  1  1
 17 30  1  0
 18 24  1  0
 19 20  2  0
 19 28  1  0
 20 26  1  0
 21 22  2  0
 23 32  1  0
 30 31  2  0
M  CHG  2   2   1  29  -1
M  END
$$$$
