
     RDKit          3D

 36 39  0  0  0  0  0  0  0  0999 V2000
  -16.6494    7.6301   -1.1732 N   0  0  0  0  0  0  0  0  0  0  0  0
  -10.3530   12.2000    1.9267 N   0  0  0  0  0  4  0  0  0  0  0  0
  -23.4501    9.8998   -2.7526 C   0  0  0  0  0  0  0  0  0  0  0  0
  -25.0550    8.2345   -1.2513 C   0  0  0  0  0  0  0  0  0  0  0  0
  -23.7920    8.5991   -0.7935 C   0  0  0  0  0  0  0  0  0  0  0  0
  -22.9947    9.4300   -1.5446 C   0  0  0  0  0  0  0  0  0  0  0  0
  -20.2409    8.5259   -1.1685 C   0  0  1  0  0  0  0  0  0  0  0  0
  -19.1402    5.9839    0.8103 C   0  0  0  0  0  0  0  0  0  0  0  0
  -15.7947    8.6180   -0.8599 C   0  0  0  0  0  0  0  0  0  0  0  0
  -13.4396    8.8757    0.0098 C   0  0  0  0  0  0  0  0  0  0  0  0
  -11.6992   10.4322   -0.4437 C   0  0  0  0  0  0  0  0  0  0  0  0
  -12.9839    8.8211    1.3218 C   0  0  0  0  0  0  0  0  0  0  0  0
  -18.7852    8.8608   -0.9899 C   0  0  1  0  0  0  0  0  0  0  0  0
  -26.8689    8.2985   -2.9263 C   0  0  0  0  0  0  0  0  0  0  0  0
  -18.7728    6.4919   -1.6160 C   0  0  2  0  0  0  0  0  0  0  0  0
  -18.0129    7.7547   -1.6777 C   0  0  2  0  0  0  0  0  0  0  0  0
  -14.5810    8.0871   -0.4098 C   0  0  0  0  0  0  0  0  0  0  0  0
  -12.7803    9.6969   -0.8792 C   0  0  0  0  0  0  0  0  0  0  0  0
  -11.2481   10.3769    0.8591 C   0  0  0  0  0  0  0  0  0  0  0  0
  -11.9120    9.5534    1.7432 C   0  0  0  0  0  0  0  0  0  0  0  0
  -25.5249    8.6972   -2.4588 C   0  0  0  0  0  0  0  0  0  0  0  0
  -24.7023    9.5360   -3.2029 C   0  0  0  0  0  0  0  0  0  0  0  0
  -19.7641    6.3613   -0.5039 C   0  0  2  0  0  0  0  0  0  0  0  0
  -13.2102    9.7631   -2.1616 F   0  0  0  0  0  0  0  0  0  0  0  0
  -11.0208   11.2534   -1.2849 F   0  0  0  0  0  0  0  0  0  0  0  0
  -11.5117    9.4585    3.0413 F   0  0  0  0  0  0  0  0  0  0  0  0
  -13.6145    8.0159    2.2321 F   0  0  0  0  0  0  0  0  0  0  0  0
  -10.1323   11.1345    1.3122 N   0  0  0  0  0  0  0  0  0  0  0  0
  -10.0613   13.3071    2.3762 N   0  0  0  0  0  2  0  0  0  0  0  0
  -14.7713    6.7594   -0.4767 N   0  0  0  0  0  0  0  0  0  0  0  0
  -15.9861    6.5058   -0.9251 N   0  0  0  0  0  0  0  0  0  0  0  0
  -20.5435    7.4854   -0.3097 O   0  0  0  0  0  0  0  0  0  0  0  0
  -19.7576    4.8864    1.4011 O   0  0  0  0  0  0  0  0  0  0  0  0
  -17.8859    5.4027   -1.5373 O   0  0  0  0  0  0  0  0  0  0  0  0
  -18.4305   10.0876   -1.5590 O   0  0  0  0  0  0  0  0  0  0  0  0
  -21.3742    9.8864   -0.9804 S   0  0  0  0  0  0  0  0  0  0  0  0
  9  1  1  0
 16  1  1  1
  1 31  1  0
 28  2  2  3
  2 29  2  0
  6  3  2  0
  3 22  1  0
  5  4  2  0
  4 21  1  0
  6  5  1  0
 36  6  1  0
 13  7  1  0
  7 32  1  0
  7 36  1  1
 23  8  1  1
  8 33  1  0
 17  9  2  0
 12 10  2  0
 10 17  1  0
 18 10  1  0
 11 18  2  0
 19 11  1  0
 11 25  1  0
 20 12  1  0
 12 27  1  0
 16 13  1  0
 13 35  1  6
 21 14  1  0
 16 15  1  0
 15 23  1  0
 15 34  1  1
 17 30  1  0
 18 24  1  0
 19 20  2  0
 19 28  1  0
 20 26  1  0
 21 22  2  0
 23 32  1  0
 30 31  2  0
M  CHG  2   2   1  29  -1
M  END
$$$$
