
     RDKit          3D

 36 39  0  0  0  0  0  0  0  0999 V2000
  -17.1150    7.6303   -0.7298 N   0  0  0  0  0  0  0  0  0  0  0  0
   -9.5873   11.2722   -0.3280 N   0  0  0  0  0  4  0  0  0  0  0  0
  -24.4997    8.3134   -0.2908 C   0  0  0  0  0  0  0  0  0  0  0  0
  -24.9499    9.7512   -2.6002 C   0  0  0  0  0  0  0  0  0  0  0  0
  -23.7448    9.8757   -1.9145 C   0  0  0  0  0  0  0  0  0  0  0  0
  -23.5238    9.1569   -0.7635 C   0  0  0  0  0  0  0  0  0  0  0  0
  -20.7631    8.2250   -0.5335 C   0  0  1  0  0  0  0  0  0  0  0  0
  -19.5097    5.1749    0.3117 C   0  0  0  0  0  0  0  0  0  0  0  0
  -16.1016    8.5104   -0.6727 C   0  0  0  0  0  0  0  0  0  0  0  0
  -13.6814    8.5636    0.0406 C   0  0  0  0  0  0  0  0  0  0  0  0
  -12.2808   10.0836    1.2174 C   0  0  0  0  0  0  0  0  0  0  0  0
  -12.6066    8.2983   -0.7998 C   0  0  0  0  0  0  0  0  0  0  0  0
  -19.3401    8.5489   -0.1686 C   0  0  1  0  0  0  0  0  0  0  0  0
  -27.2084    8.7923   -2.8823 C   0  0  0  0  0  0  0  0  0  0  0  0
  -19.1387    6.6378   -1.6888 C   0  0  2  0  0  0  0  0  0  0  0  0
  -18.4749    7.8630   -1.2049 C   0  0  2  0  0  0  0  0  0  0  0  0
  -14.9545    7.8991   -0.1552 C   0  0  0  0  0  0  0  0  0  0  0  0
  -13.5058    9.4719    1.0621 C   0  0  0  0  0  0  0  0  0  0  0  0
  -11.2148    9.8191    0.3822 C   0  0  0  0  0  0  0  0  0  0  0  0
  -11.3972    8.9095   -0.6376 C   0  0  0  0  0  0  0  0  0  0  0  0
  -25.9366    8.9103   -2.1392 C   0  0  0  0  0  0  0  0  0  0  0  0
  -25.6926    8.1930   -0.9731 C   0  0  0  0  0  0  0  0  0  0  0  0
  -20.1369    6.0099   -0.7691 C   0  0  2  0  0  0  0  0  0  0  0  0
  -14.5418    9.7429    1.8910 F   0  0  0  0  0  0  0  0  0  0  0  0
  -12.0637   10.9842    2.2095 F   0  0  0  0  0  0  0  0  0  0  0  0
  -10.3809    8.6090   -1.4927 F   0  0  0  0  0  0  0  0  0  0  0  0
  -12.7451    7.4017   -1.8253 F   0  0  0  0  0  0  0  0  0  0  0  0
   -9.9487   10.4487    0.5396 N   0  0  0  0  0  0  0  0  0  0  0  0
   -9.1163   11.6133   -1.4118 N   0  0  0  0  0  2  0  0  0  0  0  0
  -15.3474    6.6369    0.0821 N   0  0  0  0  0  0  0  0  0  0  0  0
  -16.6140    6.4934   -0.2588 N   0  0  0  0  0  0  0  0  0  0  0  0
  -21.0018    6.9104   -0.1778 O   0  0  0  0  0  0  0  0  0  0  0  0
  -20.1602    3.9592    0.4953 O   0  0  0  0  0  0  0  0  0  0  0  0
  -18.1741    5.6660   -2.0114 O   0  0  0  0  0  0  0  0  0  0  0  0
  -19.0686    9.9203   -0.1823 O   0  0  0  0  0  0  0  0  0  0  0  0
  -21.9986    9.3221    0.1304 S   0  0  0  0  0  0  0  0  0  0  0  0
  9  1  1  0
 16  1  1  1
  1 31  1  0
 28  2  2  3
  2 29  2  0
  6  3  2  0
  3 22  1  0
  5  4  2  0
  4 21  1  0
  6  5  1  0
 36  6  1  0
 13  7  1  0
  7 32  1  0
  7 36  1  1
 23  8  1  1
  8 33  1  0
 17  9  2  0
 12 10  2  0
 10 17  1  0
 18 10  1  0
 11 18  2  0
 19 11  1  0
 11 25  1  0
 20 12  1  0
 12 27  1  0
 16 13  1  0
 13 35  1  6
 21 14  1  0
 16 15  1  0
 15 23  1  0
 15 34  1  1
 17 30  1  0
 18 24  1  0
 19 20  2  0
 19 28  1  0
 20 26  1  0
 21 22  2  0
 23 32  1  0
 30 31  2  0
M  CHG  2   2   1  29  -1
M  END
$$$$
