
     RDKit          3D

 36 39  0  0  0  0  0  0  0  0999 V2000
  -17.3902    8.4421   -0.3955 N   0  0  0  0  0  0  0  0  0  0  0  0
   -8.9649    9.6861   -0.0334 N   0  0  0  0  0  4  0  0  0  0  0  0
  -23.2511    7.5042   -3.0706 C   0  0  0  0  0  0  0  0  0  0  0  0
  -25.9033    8.2585   -3.0608 C   0  0  0  0  0  0  0  0  0  0  0  0
  -25.0266    8.7471   -2.0961 C   0  0  0  0  0  0  0  0  0  0  0  0
  -23.7048    8.3691   -2.1044 C   0  0  0  0  0  0  0  0  0  0  0  0
  -21.0331    8.0947   -0.9514 C   0  0  1  0  0  0  0  0  0  0  0  0
  -19.4082    5.8315    1.0046 C   0  0  0  0  0  0  0  0  0  0  0  0
  -16.1958    8.7833   -0.9073 C   0  0  0  0  0  0  0  0  0  0  0  0
  -13.8719    9.3255   -0.0860 C   0  0  0  0  0  0  0  0  0  0  0  0
  -12.1374   10.9506   -0.1732 C   0  0  0  0  0  0  0  0  0  0  0  0
  -12.9199    8.3623   -0.3992 C   0  0  0  0  0  0  0  0  0  0  0  0
  -19.8231    8.8660   -0.4996 C   0  0  1  0  0  0  0  0  0  0  0  0
  -26.4105    6.8853   -5.0500 C   0  0  0  0  0  0  0  0  0  0  0  0
  -18.9051    6.7321   -1.2791 C   0  0  2  0  0  0  0  0  0  0  0  0
  -18.6282    8.1722   -1.1190 C   0  0  2  0  0  0  0  0  0  0  0  0
  -15.2585    8.9558    0.1170 C   0  0  0  0  0  0  0  0  0  0  0  0
  -13.4644   10.6372    0.0265 C   0  0  0  0  0  0  0  0  0  0  0  0
  -11.1936    9.9933   -0.4840 C   0  0  0  0  0  0  0  0  0  0  0  0
  -11.6079    8.6831   -0.5951 C   0  0  0  0  0  0  0  0  0  0  0  0
  -25.4636    7.3919   -4.0349 C   0  0  0  0  0  0  0  0  0  0  0  0
  -24.1231    7.0221   -4.0247 C   0  0  0  0  0  0  0  0  0  0  0  0
  -19.9346    6.1435   -0.3681 C   0  0  2  0  0  0  0  0  0  0  0  0
  -14.3779   11.5893    0.3312 F   0  0  0  0  0  0  0  0  0  0  0  0
  -11.6925   12.2290   -0.0723 F   0  0  0  0  0  0  0  0  0  0  0  0
  -10.7210    7.6957   -0.8997 F   0  0  0  0  0  0  0  0  0  0  0  0
  -13.2891    7.0493   -0.5193 F   0  0  0  0  0  0  0  0  0  0  0  0
   -9.8229   10.3132   -0.6908 N   0  0  0  0  0  0  0  0  0  0  0  0
   -7.8424    9.4870    0.4284 N   0  0  0  0  0  2  0  0  0  0  0  0
  -15.9591    8.7010    1.2341 N   0  0  0  0  0  0  0  0  0  0  0  0
  -17.2051    8.4018    0.9197 N   0  0  0  0  0  0  0  0  0  0  0  0
  -21.0736    6.9137   -0.2336 O   0  0  0  0  0  0  0  0  0  0  0  0
  -20.0949    4.7888    1.6178 O   0  0  0  0  0  0  0  0  0  0  0  0
  -17.7164    5.9958   -1.1244 O   0  0  0  0  0  0  0  0  0  0  0  0
  -19.8391   10.2022   -0.9107 O   0  0  0  0  0  0  0  0  0  0  0  0
  -22.5814    8.9701   -0.8677 S   0  0  0  0  0  0  0  0  0  0  0  0
  9  1  1  0
 16  1  1  1
  1 31  1  0
 28  2  2  3
  2 29  2  0
  6  3  2  0
  3 22  1  0
  5  4  2  0
  4 21  1  0
  6  5  1  0
 36  6  1  0
 13  7  1  0
  7 32  1  0
  7 36  1  1
 23  8  1  1
  8 33  1  0
 17  9  2  0
 12 10  2  0
 10 17  1  0
 18 10  1  0
 11 18  2  0
 19 11  1  0
 11 25  1  0
 20 12  1  0
 12 27  1  0
 16 13  1  0
 13 35  1  6
 21 14  1  0
 16 15  1  0
 15 23  1  0
 15 34  1  1
 17 30  1  0
 18 24  1  0
 19 20  2  0
 19 28  1  0
 20 26  1  0
 21 22  2  0
 23 32  1  0
 30 31  2  0
M  CHG  2   2   1  29  -1
M  END
$$$$
