
     RDKit          3D

 36 39  0  0  0  0  0  0  0  0999 V2000
  -16.9115    8.1607   -0.2405 N   0  0  0  0  0  0  0  0  0  0  0  0
   -9.3964   11.8498    0.2968 N   0  0  0  0  0  4  0  0  0  0  0  0
  -23.0000    8.9276   -2.4381 C   0  0  0  0  0  0  0  0  0  0  0  0
  -25.4783   10.0254   -1.9321 C   0  0  0  0  0  0  0  0  0  0  0  0
  -24.4671   10.0947   -0.9779 C   0  0  0  0  0  0  0  0  0  0  0  0
  -23.2325    9.5465   -1.2338 C   0  0  0  0  0  0  0  0  0  0  0  0
  -20.5826    8.5624   -0.4910 C   0  0  1  0  0  0  0  0  0  0  0  0
  -19.2859    5.6135    0.6095 C   0  0  0  0  0  0  0  0  0  0  0  0
  -15.8041    8.8891   -0.4597 C   0  0  0  0  0  0  0  0  0  0  0  0
  -13.4225    9.0044    0.3672 C   0  0  0  0  0  0  0  0  0  0  0  0
  -11.6129   10.1101   -0.7098 C   0  0  0  0  0  0  0  0  0  0  0  0
  -12.6536    8.9759    1.5247 C   0  0  0  0  0  0  0  0  0  0  0  0
  -19.2305    8.9746    0.0238 C   0  0  1  0  0  0  0  0  0  0  0  0
  -26.3470    9.3467   -4.1422 C   0  0  0  0  0  0  0  0  0  0  0  0
  -18.7559    7.0296   -1.3889 C   0  0  2  0  0  0  0  0  0  0  0  0
  -18.2160    8.3040   -0.8784 C   0  0  2  0  0  0  0  0  0  0  0  0
  -14.7571    8.4393    0.3520 C   0  0  0  0  0  0  0  0  0  0  0  0
  -12.8849    9.5827   -0.7624 C   0  0  0  0  0  0  0  0  0  0  0  0
  -10.8509   10.0810    0.4401 C   0  0  0  0  0  0  0  0  0  0  0  0
  -11.3946    9.5011    1.5665 C   0  0  0  0  0  0  0  0  0  0  0  0
  -25.2603    9.4090   -3.1428 C   0  0  0  0  0  0  0  0  0  0  0  0
  -24.0047    8.8608   -3.3810 C   0  0  0  0  0  0  0  0  0  0  0  0
  -19.8226    6.3782   -0.5678 C   0  0  2  0  0  0  0  0  0  0  0  0
  -13.6195    9.6197   -1.8995 F   0  0  0  0  0  0  0  0  0  0  0  0
  -11.0445   10.6887   -1.7982 F   0  0  0  0  0  0  0  0  0  0  0  0
  -10.6892    9.4437    2.7298 F   0  0  0  0  0  0  0  0  0  0  0  0
  -13.1556    8.4092    2.6656 F   0  0  0  0  0  0  0  0  0  0  0  0
   -9.5374   10.6245    0.4980 N   0  0  0  0  0  0  0  0  0  0  0  0
   -8.9193   12.8398   -0.2554 N   0  0  0  0  0  2  0  0  0  0  0  0
  -15.3046    7.4269    1.0440 N   0  0  0  0  0  0  0  0  0  0  0  0
  -16.5659    7.2747    0.6875 N   0  0  0  0  0  0  0  0  0  0  0  0
  -20.7952    7.2489   -0.1154 O   0  0  0  0  0  0  0  0  0  0  0  0
  -19.7450    4.3012    0.6506 O   0  0  0  0  0  0  0  0  0  0  0  0
  -17.7124    6.1018   -1.5603 O   0  0  0  0  0  0  0  0  0  0  0  0
  -19.0285   10.3576   -0.0107 O   0  0  0  0  0  0  0  0  0  0  0  0
  -21.9411    9.6115   -0.0170 S   0  0  0  0  0  0  0  0  0  0  0  0
  9  1  1  0
 16  1  1  1
  1 31  1  0
 28  2  2  3
  2 29  2  0
  6  3  2  0
  3 22  1  0
  5  4  2  0
  4 21  1  0
  6  5  1  0
 36  6  1  0
 13  7  1  0
  7 32  1  0
  7 36  1  1
 23  8  1  1
  8 33  1  0
 17  9  2  0
 12 10  2  0
 10 17  1  0
 18 10  1  0
 11 18  2  0
 19 11  1  0
 11 25  1  0
 20 12  1  0
 12 27  1  0
 16 13  1  0
 13 35  1  6
 21 14  1  0
 16 15  1  0
 15 23  1  0
 15 34  1  1
 17 30  1  0
 18 24  1  0
 19 20  2  0
 19 28  1  0
 20 26  1  0
 21 22  2  0
 23 32  1  0
 30 31  2  0
M  CHG  2   2   1  29  -1
M  END
$$$$
