
     RDKit          3D

 36 39  0  0  0  0  0  0  0  0999 V2000
  -17.5577    8.1485   -0.5715 N   0  0  0  0  0  0  0  0  0  0  0  0
   -9.2785    9.9507   -1.4457 N   0  0  0  0  0  4  0  0  0  0  0  0
  -24.9452    9.9433   -1.0066 C   0  0  0  0  0  0  0  0  0  0  0  0
  -25.0614    8.0575   -3.0149 C   0  0  0  0  0  0  0  0  0  0  0  0
  -24.0459    8.0144   -2.0638 C   0  0  0  0  0  0  0  0  0  0  0  0
  -23.9914    8.9562   -1.0636 C   0  0  0  0  0  0  0  0  0  0  0  0
  -21.2580    8.0858   -0.5038 C   0  0  1  0  0  0  0  0  0  0  0  0
  -19.5146    5.2733    0.2959 C   0  0  0  0  0  0  0  0  0  0  0  0
  -16.4898    8.8093   -1.0488 C   0  0  0  0  0  0  0  0  0  0  0  0
  -14.0416    9.0903   -0.5045 C   0  0  0  0  0  0  0  0  0  0  0  0
  -12.1944    9.5391   -1.9341 C   0  0  0  0  0  0  0  0  0  0  0  0
  -13.3421    9.7205    0.5180 C   0  0  0  0  0  0  0  0  0  0  0  0
  -19.9279    8.6404   -0.0719 C   0  0  1  0  0  0  0  0  0  0  0  0
  -27.0936    9.0673   -3.9898 C   0  0  0  0  0  0  0  0  0  0  0  0
  -19.3400    6.8531   -1.6416 C   0  0  2  0  0  0  0  0  0  0  0  0
  -18.9202    8.1567   -1.0935 C   0  0  2  0  0  0  0  0  0  0  0  0
  -15.3611    8.5396   -0.2674 C   0  0  0  0  0  0  0  0  0  0  0  0
  -13.4500    9.0034   -1.7462 C   0  0  0  0  0  0  0  0  0  0  0  0
  -11.5013   10.1644   -0.9180 C   0  0  0  0  0  0  0  0  0  0  0  0
  -12.0987   10.2479    0.3217 C   0  0  0  0  0  0  0  0  0  0  0  0
  -26.0238    9.0399   -2.9708 C   0  0  0  0  0  0  0  0  0  0  0  0
  -25.9498    9.9827   -1.9513 C   0  0  0  0  0  0  0  0  0  0  0  0
  -20.2423    6.0255   -0.7828 C   0  0  2  0  0  0  0  0  0  0  0  0
  -14.1167    8.3930   -2.7547 F   0  0  0  0  0  0  0  0  0  0  0  0
  -11.5746    9.4759   -3.1400 F   0  0  0  0  0  0  0  0  0  0  0  0
  -11.4623   10.8537    1.3620 F   0  0  0  0  0  0  0  0  0  0  0  0
  -13.8989    9.8249    1.7645 F   0  0  0  0  0  0  0  0  0  0  0  0
  -10.2049   10.7186   -1.1083 N   0  0  0  0  0  0  0  0  0  0  0  0
   -8.8005    8.9441   -1.9664 N   0  0  0  0  0  2  0  0  0  0  0  0
  -15.8209    7.7002    0.6748 N   0  0  0  0  0  0  0  0  0  0  0  0
  -17.1079    7.4798    0.4850 N   0  0  0  0  0  0  0  0  0  0  0  0
  -21.2724    6.7373   -0.1991 O   0  0  0  0  0  0  0  0  0  0  0  0
  -20.1534    4.0889    0.6476 O   0  0  0  0  0  0  0  0  0  0  0  0
  -18.2083    6.0785   -1.9552 O   0  0  0  0  0  0  0  0  0  0  0  0
  -19.9029   10.0377   -0.0320 O   0  0  0  0  0  0  0  0  0  0  0  0
  -22.6898    8.9232    0.1437 S   0  0  0  0  0  0  0  0  0  0  0  0
  9  1  1  0
 16  1  1  1
  1 31  1  0
 28  2  2  3
  2 29  2  0
  6  3  2  0
  3 22  1  0
  5  4  2  0
  4 21  1  0
  6  5  1  0
 36  6  1  0
 13  7  1  0
  7 32  1  0
  7 36  1  1
 23  8  1  1
  8 33  1  0
 17  9  2  0
 12 10  2  0
 10 17  1  0
 18 10  1  0
 11 18  2  0
 19 11  1  0
 11 25  1  0
 20 12  1  0
 12 27  1  0
 16 13  1  0
 13 35  1  6
 21 14  1  0
 16 15  1  0
 15 23  1  0
 15 34  1  1
 17 30  1  0
 18 24  1  0
 19 20  2  0
 19 28  1  0
 20 26  1  0
 21 22  2  0
 23 32  1  0
 30 31  2  0
M  CHG  2   2   1  29  -1
M  END
$$$$
