
     RDKit          3D

 36 39  0  0  0  0  0  0  0  0999 V2000
  -17.4035    8.7395   -0.5483 N   0  0  0  0  0  0  0  0  0  0  0  0
   -9.0783    8.1035   -1.2765 N   0  0  0  0  0  4  0  0  0  0  0  0
  -23.3664    7.8210   -3.2758 C   0  0  0  0  0  0  0  0  0  0  0  0
  -25.9964    7.5110   -2.5076 C   0  0  0  0  0  0  0  0  0  0  0  0
  -25.0897    8.1616   -1.6754 C   0  0  0  0  0  0  0  0  0  0  0  0
  -23.7792    8.3147   -2.0620 C   0  0  0  0  0  0  0  0  0  0  0  0
  -21.0438    8.2769   -1.0330 C   0  0  1  0  0  0  0  0  0  0  0  0
  -19.3531    6.2082    1.0766 C   0  0  0  0  0  0  0  0  0  0  0  0
  -16.1464    8.6125   -1.0048 C   0  0  0  0  0  0  0  0  0  0  0  0
  -13.7928    9.0642   -0.2138 C   0  0  0  0  0  0  0  0  0  0  0  0
  -11.6037    8.5132    0.5355 C   0  0  0  0  0  0  0  0  0  0  0  0
  -13.2113    9.6458   -1.3343 C   0  0  0  0  0  0  0  0  0  0  0  0
  -19.8456    9.1054   -0.6575 C   0  0  1  0  0  0  0  0  0  0  0  0
  -26.5763    6.3247   -4.5948 C   0  0  0  0  0  0  0  0  0  0  0  0
  -18.8914    6.9351   -1.2767 C   0  0  2  0  0  0  0  0  0  0  0  0
  -18.6428    8.3886   -1.2340 C   0  0  2  0  0  0  0  0  0  0  0  0
  -15.2324    9.0614   -0.0454 C   0  0  0  0  0  0  0  0  0  0  0  0
  -12.9678    8.4917    0.7300 C   0  0  0  0  0  0  0  0  0  0  0  0
  -11.0279    9.0909   -0.5774 C   0  0  0  0  0  0  0  0  0  0  0  0
  -11.8589    9.6619   -1.5177 C   0  0  0  0  0  0  0  0  0  0  0  0
  -25.5978    7.0116   -3.7262 C   0  0  0  0  0  0  0  0  0  0  0  0
  -24.2679    7.1767   -4.0975 C   0  0  0  0  0  0  0  0  0  0  0  0
  -19.8994    6.4001   -0.3102 C   0  0  2  0  0  0  0  0  0  0  0  0
  -13.5166    7.9202    1.8283 F   0  0  0  0  0  0  0  0  0  0  0  0
  -10.7543    7.9614    1.4390 F   0  0  0  0  0  0  0  0  0  0  0  0
  -11.3472   10.2466   -2.6360 F   0  0  0  0  0  0  0  0  0  0  0  0
  -14.0003   10.2241   -2.2922 F   0  0  0  0  0  0  0  0  0  0  0  0
   -9.6202    9.1150   -0.7816 N   0  0  0  0  0  0  0  0  0  0  0  0
   -8.7378    6.9219   -1.3003 N   0  0  0  0  0  2  0  0  0  0  0  0
  -16.0113    9.4500    0.9773 N   0  0  0  0  0  0  0  0  0  0  0  0
  -17.2797    9.2561    0.6695 N   0  0  0  0  0  0  0  0  0  0  0  0
  -21.0527    7.1558   -0.2238 O   0  0  0  0  0  0  0  0  0  0  0  0
  -19.8516    5.0669    1.6959 O   0  0  0  0  0  0  0  0  0  0  0  0
  -17.6862    6.2371   -1.0782 O   0  0  0  0  0  0  0  0  0  0  0  0
  -19.8933   10.4043   -1.1726 O   0  0  0  0  0  0  0  0  0  0  0  0
  -22.6090    9.1253   -1.0007 S   0  0  0  0  0  0  0  0  0  0  0  0
  9  1  1  0
 16  1  1  1
  1 31  1  0
 28  2  2  3
  2 29  2  0
  6  3  2  0
  3 22  1  0
  5  4  2  0
  4 21  1  0
  6  5  1  0
 36  6  1  0
 13  7  1  0
  7 32  1  0
  7 36  1  1
 23  8  1  1
  8 33  1  0
 17  9  2  0
 12 10  2  0
 10 17  1  0
 18 10  1  0
 11 18  2  0
 19 11  1  0
 11 25  1  0
 20 12  1  0
 12 27  1  0
 16 13  1  0
 13 35  1  6
 21 14  1  0
 16 15  1  0
 15 23  1  0
 15 34  1  1
 17 30  1  0
 18 24  1  0
 19 20  2  0
 19 28  1  0
 20 26  1  0
 21 22  2  0
 23 32  1  0
 30 31  2  0
M  CHG  2   2   1  29  -1
M  END
$$$$
