
     RDKit          3D

 36 39  0  0  0  0  0  0  0  0999 V2000
  -17.1555    8.0616   -0.2818 N   0  0  0  0  0  0  0  0  0  0  0  0
   -9.3940   10.8416    1.7720 N   0  0  0  0  0  4  0  0  0  0  0  0
  -23.7988    7.1242    0.2219 C   0  0  0  0  0  0  0  0  0  0  0  0
  -25.8595    7.2324   -1.6070 C   0  0  0  0  0  0  0  0  0  0  0  0
  -24.5827    6.8450   -2.0040 C   0  0  0  0  0  0  0  0  0  0  0  0
  -23.5577    6.7918   -1.0892 C   0  0  0  0  0  0  0  0  0  0  0  0
  -20.7331    7.5428   -1.0770 C   0  0  1  0  0  0  0  0  0  0  0  0
  -19.0192   10.0559   -2.6052 C   0  0  0  0  0  0  0  0  0  0  0  0
  -16.2083    8.5363    0.5442 C   0  0  0  0  0  0  0  0  0  0  0  0
  -13.6954    8.7603    0.6091 C   0  0  0  0  0  0  0  0  0  0  0  0
  -11.8391    8.3210    2.0298 C   0  0  0  0  0  0  0  0  0  0  0  0
  -13.1557   10.0192    0.3727 C   0  0  0  0  0  0  0  0  0  0  0  0
  -19.3086    7.0690   -0.9810 C   0  0  1  0  0  0  0  0  0  0  0  0
  -27.4788    7.9761    0.1031 C   0  0  0  0  0  0  0  0  0  0  0  0
  -19.2127    9.3887   -0.1974 C   0  0  2  0  0  0  0  0  0  0  0  0
  -18.5998    8.0526   -0.0738 C   0  0  2  0  0  0  0  0  0  0  0  0
  -14.9393    8.3597   -0.0178 C   0  0  0  0  0  0  0  0  0  0  0  0
  -13.0191    7.9053    1.4523 C   0  0  0  0  0  0  0  0  0  0  0  0
  -11.3046    9.5711    1.7940 C   0  0  0  0  0  0  0  0  0  0  0  0
  -11.9861   10.4215    0.9497 C   0  0  0  0  0  0  0  0  0  0  0  0
  -26.1162    7.5680   -0.2976 C   0  0  0  0  0  0  0  0  0  0  0  0
  -25.0654    7.5079    0.6112 C   0  0  0  0  0  0  0  0  0  0  0  0
  -19.9346    9.6779   -1.4748 C   0  0  2  0  0  0  0  0  0  0  0  0
  -13.5299    6.6746    1.6943 F   0  0  0  0  0  0  0  0  0  0  0  0
  -11.1405    7.5118    2.8661 F   0  0  0  0  0  0  0  0  0  0  0  0
  -11.5064   11.6671    0.6801 F   0  0  0  0  0  0  0  0  0  0  0  0
  -13.8006   10.8948   -0.4592 F   0  0  0  0  0  0  0  0  0  0  0  0
  -10.0865   10.0037    2.3885 N   0  0  0  0  0  0  0  0  0  0  0  0
   -8.4227   11.2187    1.1185 N   0  0  0  0  0  2  0  0  0  0  0  0
  -15.1937    7.7668   -1.1956 N   0  0  0  0  0  0  0  0  0  0  0  0
  -16.4947    7.5983   -1.3373 N   0  0  0  0  0  0  0  0  0  0  0  0
  -20.7548    8.6517   -1.9025 O   0  0  0  0  0  0  0  0  0  0  0  0
  -19.6178   10.9238   -3.5124 O   0  0  0  0  0  0  0  0  0  0  0  0
  -18.2341   10.3831   -0.0170 O   0  0  0  0  0  0  0  0  0  0  0  0
  -19.1927    5.7845   -0.4412 O   0  0  0  0  0  0  0  0  0  0  0  0
  -21.9207    6.3180   -1.5873 S   0  0  0  0  0  0  0  0  0  0  0  0
  9  1  1  0
 16  1  1  6
  1 31  1  0
 28  2  2  3
  2 29  2  0
  6  3  2  0
  3 22  1  0
  5  4  2  0
  4 21  1  0
  6  5  1  0
 36  6  1  0
 13  7  1  0
  7 32  1  0
  7 36  1  6
 23  8  1  6
  8 33  1  0
 17  9  2  0
 12 10  2  0
 10 17  1  0
 18 10  1  0
 11 18  2  0
 19 11  1  0
 11 25  1  0
 20 12  1  0
 12 27  1  0
 16 13  1  0
 13 35  1  1
 21 14  1  0
 16 15  1  0
 15 23  1  0
 15 34  1  6
 17 30  1  0
 18 24  1  0
 19 20  2  0
 19 28  1  0
 20 26  1  0
 21 22  2  0
 23 32  1  0
 30 31  2  0
M  CHG  2   2   1  29  -1
M  END
$$$$
