
     RDKit          3D

 36 39  0  0  0  0  0  0  0  0999 V2000
  -21.1016    8.5004   -0.8794 N   0  0  0  0  0  0  0  0  0  0  0  0
  -28.9735   11.6189   -1.3212 N   0  0  0  0  0  4  0  0  0  0  0  0
  -14.8819    8.1774   -3.2658 C   0  0  0  0  0  0  0  0  0  0  0  0
  -12.6974    6.5484   -2.8446 C   0  0  0  0  0  0  0  0  0  0  0  0
  -13.9886    6.0524   -2.6881 C   0  0  0  0  0  0  0  0  0  0  0  0
  -15.0755    6.8675   -2.8994 C   0  0  0  0  0  0  0  0  0  0  0  0
  -17.6688    7.3420   -1.6376 C   0  0  1  0  0  0  0  0  0  0  0  0
  -18.7998    7.2594    1.5722 C   0  0  0  0  0  0  0  0  0  0  0  0
  -22.0487    9.4463   -0.9932 C   0  0  0  0  0  0  0  0  0  0  0  0
  -24.5060    9.7315   -0.4934 C   0  0  0  0  0  0  0  0  0  0  0  0
  -26.3159   10.7359    0.6781 C   0  0  0  0  0  0  0  0  0  0  0  0
  -25.0693   10.2045   -1.6728 C   0  0  0  0  0  0  0  0  0  0  0  0
  -19.1611    7.2928   -1.8207 C   0  0  1  0  0  0  0  0  0  0  0  0
  -11.1089    8.3644   -3.3727 C   0  0  0  0  0  0  0  0  0  0  0  0
  -18.8285    9.0667   -0.1635 C   0  0  2  0  0  0  0  0  0  0  0  0
  -19.6957    8.5934   -1.2589 C   0  0  2  0  0  0  0  0  0  0  0  0
  -23.2742    8.9680   -0.5167 C   0  0  0  0  0  0  0  0  0  0  0  0
  -25.1468   10.0067    0.6953 C   0  0  0  0  0  0  0  0  0  0  0  0
  -26.8739   11.2047   -0.4936 C   0  0  0  0  0  0  0  0  0  0  0  0
  -26.2278   10.9259   -1.6791 C   0  0  0  0  0  0  0  0  0  0  0  0
  -12.4877    7.8579   -3.2114 C   0  0  0  0  0  0  0  0  0  0  0  0
  -13.6007    8.6651   -3.4196 C   0  0  0  0  0  0  0  0  0  0  0  0
  -18.0180    8.0283    0.5445 C   0  0  2  0  0  0  0  0  0  0  0  0
  -24.6125    9.5541    1.8544 F   0  0  0  0  0  0  0  0  0  0  0  0
  -26.9800   11.0298    1.8248 F   0  0  0  0  0  0  0  0  0  0  0  0
  -26.7318   11.3628   -2.8663 F   0  0  0  0  0  0  0  0  0  0  0  0
  -24.4601    9.9497   -2.8722 F   0  0  0  0  0  0  0  0  0  0  0  0
  -28.0807   11.9578   -0.5151 N   0  0  0  0  0  0  0  0  0  0  0  0
  -29.7555   10.8304   -1.8499 N   0  0  0  0  0  2  0  0  0  0  0  0
  -22.9948    7.7140   -0.1257 N   0  0  0  0  0  0  0  0  0  0  0  0
  -21.7198    7.4534   -0.3436 N   0  0  0  0  0  0  0  0  0  0  0  0
  -17.4000    7.1252   -0.2988 O   0  0  0  0  0  0  0  0  0  0  0  0
  -18.1525    7.1970    2.8017 O   0  0  0  0  0  0  0  0  0  0  0  0
  -19.5990    9.7461    0.7978 O   0  0  0  0  0  0  0  0  0  0  0  0
  -19.5463    7.1813   -3.1601 O   0  0  0  0  0  0  0  0  0  0  0  0
  -16.7269    6.2517   -2.6839 S   0  0  0  0  0  0  0  0  0  0  0  0
  9  1  1  0
 16  1  1  1
  1 31  1  0
 28  2  2  3
  2 29  2  0
  6  3  2  0
  3 22  1  0
  5  4  2  0
  4 21  1  0
  6  5  1  0
 36  6  1  0
 13  7  1  0
  7 32  1  0
  7 36  1  6
 23  8  1  1
  8 33  1  0
 17  9  2  0
 12 10  2  0
 10 17  1  0
 18 10  1  0
 11 18  2  0
 19 11  1  0
 11 25  1  0
 20 12  1  0
 12 27  1  0
 16 13  1  0
 13 35  1  6
 21 14  1  0
 16 15  1  0
 15 23  1  0
 15 34  1  1
 17 30  1  0
 18 24  1  0
 19 20  2  0
 19 28  1  0
 20 26  1  0
 21 22  2  0
 23 32  1  0
 30 31  2  0
M  CHG  2   2   1  29  -1
M  END
$$$$
