
     RDKit          3D

 36 39  0  0  0  0  0  0  0  0999 V2000
  -16.8381    8.1466   -0.5639 N   0  0  0  0  0  0  0  0  0  0  0  0
   -9.2448   11.0603    1.5465 N   0  0  0  0  0  4  0  0  0  0  0  0
  -24.4683    6.6577   -0.0536 C   0  0  0  0  0  0  0  0  0  0  0  0
  -24.4150    9.3873    0.3334 C   0  0  0  0  0  0  0  0  0  0  0  0
  -23.2466    8.6943    0.0297 C   0  0  0  0  0  0  0  0  0  0  0  0
  -23.2771    7.3333   -0.1630 C   0  0  0  0  0  0  0  0  0  0  0  0
  -20.4715    7.5562   -0.9514 C   0  0  1  0  0  0  0  0  0  0  0  0
  -18.5608    8.1424   -3.7072 C   0  0  0  0  0  0  0  0  0  0  0  0
  -15.8440    8.7502    0.1086 C   0  0  0  0  0  0  0  0  0  0  0  0
  -13.3292    8.6256    0.2803 C   0  0  0  0  0  0  0  0  0  0  0  0
  -11.8009    8.8643    2.0871 C   0  0  0  0  0  0  0  0  0  0  0  0
  -12.3759    9.2157   -0.5413 C   0  0  0  0  0  0  0  0  0  0  0  0
  -19.0992    7.1512   -0.4869 C   0  0  1  0  0  0  0  0  0  0  0  0
  -26.8445    9.4791    0.7687 C   0  0  0  0  0  0  0  0  0  0  0  0
  -18.7488    9.3464   -1.5175 C   0  0  2  0  0  0  0  0  0  0  0  0
  -18.2692    8.4176   -0.4767 C   0  0  2  0  0  0  0  0  0  0  0  0
  -14.6083    8.2044   -0.2556 C   0  0  0  0  0  0  0  0  0  0  0  0
  -13.0275    8.4516    1.6137 C   0  0  0  0  0  0  0  0  0  0  0  0
  -10.8556    9.4499    1.2702 C   0  0  0  0  0  0  0  0  0  0  0  0
  -11.1638    9.6211   -0.0627 C   0  0  0  0  0  0  0  0  0  0  0  0
  -25.6156    8.7245    0.4460 C   0  0  0  0  0  0  0  0  0  0  0  0
  -25.6240    7.3481    0.2478 C   0  0  0  0  0  0  0  0  0  0  0  0
  -19.4757    8.7376   -2.6740 C   0  0  2  0  0  0  0  0  0  0  0  0
  -13.9440    7.8783    2.4294 F   0  0  0  0  0  0  0  0  0  0  0  0
  -11.4621    8.7123    3.3927 F   0  0  0  0  0  0  0  0  0  0  0  0
  -10.2701   10.1930   -0.9161 F   0  0  0  0  0  0  0  0  0  0  0  0
  -12.6415    9.4045   -1.8712 F   0  0  0  0  0  0  0  0  0  0  0  0
   -9.5883    9.8771    1.7554 N   0  0  0  0  0  0  0  0  0  0  0  0
   -8.7499   11.9772    0.8931 N   0  0  0  0  0  2  0  0  0  0  0  0
  -14.9304    7.2663   -1.1611 N   0  0  0  0  0  0  0  0  0  0  0  0
  -16.2386    7.2432   -1.3320 N   0  0  0  0  0  0  0  0  0  0  0  0
  -20.4066    7.7824   -2.3139 O   0  0  0  0  0  0  0  0  0  0  0  0
  -18.8383    8.5946   -4.9930 O   0  0  0  0  0  0  0  0  0  0  0  0
  -17.6708   10.0933   -2.0266 O   0  0  0  0  0  0  0  0  0  0  0  0
  -19.0964    6.5930    0.7950 O   0  0  0  0  0  0  0  0  0  0  0  0
  -21.7901    6.4356   -0.5315 S   0  0  0  0  0  0  0  0  0  0  0  0
  9  1  1  0
 16  1  1  6
  1 31  1  0
 28  2  2  3
  2 29  2  0
  6  3  2  0
  3 22  1  0
  5  4  2  0
  4 21  1  0
  6  5  1  0
 36  6  1  0
 13  7  1  0
  7 32  1  0
  7 36  1  6
 23  8  1  6
  8 33  1  0
 17  9  2  0
 12 10  2  0
 10 17  1  0
 18 10  1  0
 11 18  2  0
 19 11  1  0
 11 25  1  0
 20 12  1  0
 12 27  1  0
 16 13  1  0
 13 35  1  1
 21 14  1  0
 16 15  1  0
 15 23  1  0
 15 34  1  6
 17 30  1  0
 18 24  1  0
 19 20  2  0
 19 28  1  0
 20 26  1  0
 21 22  2  0
 23 32  1  0
 30 31  2  0
M  CHG  2   2   1  29  -1
M  END
$$$$
