
     RDKit          3D

 36 39  0  0  0  0  0  0  0  0999 V2000
  -20.7649    8.8085    0.2906 N   0  0  0  0  0  0  0  0  0  0  0  0
  -27.9299   11.6753    3.7642 N   0  0  0  0  0  4  0  0  0  0  0  0
  -14.7541    8.9865    1.2428 C   0  0  0  0  0  0  0  0  0  0  0  0
  -12.1192    8.8815    0.4368 C   0  0  0  0  0  0  0  0  0  0  0  0
  -13.1442    8.9258   -0.5041 C   0  0  0  0  0  0  0  0  0  0  0  0
  -14.4568    8.9785   -0.0984 C   0  0  0  0  0  0  0  0  0  0  0  0
  -17.2291    8.2247   -0.6359 C   0  0  1  0  0  0  0  0  0  0  0  0
  -19.6511    6.1788   -1.8756 C   0  0  0  0  0  0  0  0  0  0  0  0
  -21.6932    8.9832    1.2458 C   0  0  0  0  0  0  0  0  0  0  0  0
  -24.1305    9.6142    1.4210 C   0  0  0  0  0  0  0  0  0  0  0  0
  -26.0412    8.8731    2.6281 C   0  0  0  0  0  0  0  0  0  0  0  0
  -24.5522   10.9190    1.6482 C   0  0  0  0  0  0  0  0  0  0  0  0
  -18.4578    9.0885   -0.5515 C   0  0  1  0  0  0  0  0  0  0  0  0
  -11.2984    8.8421    2.7659 C   0  0  0  0  0  0  0  0  0  0  0  0
  -19.1590    6.9659    0.4521 C   0  0  2  0  0  0  0  0  0  0  0  0
  -19.3671    8.4263    0.4622 C   0  0  2  0  0  0  0  0  0  0  0  0
  -22.9168    9.3489    0.6744 C   0  0  0  0  0  0  0  0  0  0  0  0
  -24.8937    8.5822    1.9228 C   0  0  0  0  0  0  0  0  0  0  0  0
  -26.4585   10.1690    2.8528 C   0  0  0  0  0  0  0  0  0  0  0  0
  -25.6905   11.1966    2.3481 C   0  0  0  0  0  0  0  0  0  0  0  0
  -12.4013    8.8891    1.7835 C   0  0  0  0  0  0  0  0  0  0  0  0
  -13.7354    8.9422    2.1721 C   0  0  0  0  0  0  0  0  0  0  0  0
  -18.6113    6.3770   -0.8087 C   0  0  2  0  0  0  0  0  0  0  0  0
  -24.4983    7.3043    1.7113 F   0  0  0  0  0  0  0  0  0  0  0  0
  -26.8226    7.8882    3.1398 F   0  0  0  0  0  0  0  0  0  0  0  0
  -26.0530   12.4953    2.5387 F   0  0  0  0  0  0  0  0  0  0  0  0
  -23.8188   11.9690    1.1642 F   0  0  0  0  0  0  0  0  0  0  0  0
  -27.6426   10.4731    3.5805 N   0  0  0  0  0  0  0  0  0  0  0  0
  -28.1367   12.8365    3.4157 N   0  0  0  0  0  2  0  0  0  0  0  0
  -22.6559    9.3774   -0.6427 N   0  0  0  0  0  0  0  0  0  0  0  0
  -21.3928    9.0591   -0.8532 N   0  0  0  0  0  0  0  0  0  0  0  0
  -17.5594    7.0890   -1.3520 O   0  0  0  0  0  0  0  0  0  0  0  0
  -19.9526    4.8377   -2.0877 O   0  0  0  0  0  0  0  0  0  0  0  0
  -20.3663    6.3080    0.7500 O   0  0  0  0  0  0  0  0  0  0  0  0
  -18.1831   10.3943   -0.1341 O   0  0  0  0  0  0  0  0  0  0  0  0
  -15.7736    9.0156   -1.2890 S   0  0  0  0  0  0  0  0  0  0  0  0
  9  1  1  0
 16  1  1  6
  1 31  1  0
 28  2  2  3
  2 29  2  0
  6  3  2  0
  3 22  1  0
  5  4  2  0
  4 21  1  0
  6  5  1  0
 36  6  1  0
 13  7  1  0
  7 32  1  0
  7 36  1  6
 23  8  1  6
  8 33  1  0
 17  9  2  0
 12 10  2  0
 10 17  1  0
 18 10  1  0
 11 18  2  0
 19 11  1  0
 11 25  1  0
 20 12  1  0
 12 27  1  0
 16 13  1  0
 13 35  1  1
 21 14  1  0
 16 15  1  0
 15 23  1  0
 15 34  1  6
 17 30  1  0
 18 24  1  0
 19 20  2  0
 19 28  1  0
 20 26  1  0
 21 22  2  0
 23 32  1  0
 30 31  2  0
M  CHG  2   2   1  29  -1
M  END
$$$$
