
     RDKit          3D

 36 39  0  0  0  0  0  0  0  0999 V2000
  -16.7435    7.9904   -0.8356 N   0  0  0  0  0  0  0  0  0  0  0  0
   -9.5327   12.1113    0.3737 N   0  0  0  0  0  4  0  0  0  0  0  0
  -23.8052    9.5182   -2.3566 C   0  0  0  0  0  0  0  0  0  0  0  0
  -25.1790    7.8291   -0.6646 C   0  0  0  0  0  0  0  0  0  0  0  0
  -23.9339    8.3340   -0.3004 C   0  0  0  0  0  0  0  0  0  0  0  0
  -23.2520    9.1762   -1.1465 C   0  0  0  0  0  0  0  0  0  0  0  0
  -20.3847    8.6157   -1.0616 C   0  0  1  0  0  0  0  0  0  0  0  0
  -19.2587    5.7492    0.3888 C   0  0  0  0  0  0  0  0  0  0  0  0
  -15.7684    8.9091   -0.7357 C   0  0  0  0  0  0  0  0  0  0  0  0
  -13.4373    9.0967    0.2130 C   0  0  0  0  0  0  0  0  0  0  0  0
  -11.7687   10.6826   -0.3852 C   0  0  0  0  0  0  0  0  0  0  0  0
  -12.7385    8.8785    1.3946 C   0  0  0  0  0  0  0  0  0  0  0  0
  -18.9933    8.9940   -0.6330 C   0  0  1  0  0  0  0  0  0  0  0  0
  -27.0689    7.6163   -2.2404 C   0  0  0  0  0  0  0  0  0  0  0  0
  -18.6932    6.8541   -1.7882 C   0  0  2  0  0  0  0  0  0  0  0  0
  -18.0535    8.1422   -1.4601 C   0  0  2  0  0  0  0  0  0  0  0  0
  -14.6628    8.3746   -0.0652 C   0  0  0  0  0  0  0  0  0  0  0  0
  -12.9365   10.0150   -0.6843 C   0  0  0  0  0  0  0  0  0  0  0  0
  -11.0762   10.4649    0.7882 C   0  0  0  0  0  0  0  0  0  0  0  0
  -11.5826    9.5450    1.6815 C   0  0  0  0  0  0  0  0  0  0  0  0
  -25.7459    8.1627   -1.8732 C   0  0  0  0  0  0  0  0  0  0  0  0
  -25.0392    9.0156   -2.7140 C   0  0  0  0  0  0  0  0  0  0  0  0
  -19.7769    6.3915   -0.8672 C   0  0  2  0  0  0  0  0  0  0  0  0
  -13.6039   10.2407   -1.8408 F   0  0  0  0  0  0  0  0  0  0  0  0
  -11.2399   11.5949   -1.2399 F   0  0  0  0  0  0  0  0  0  0  0  0
  -10.9421    9.2890    2.8556 F   0  0  0  0  0  0  0  0  0  0  0  0
  -13.2066    7.9733    2.3090 F   0  0  0  0  0  0  0  0  0  0  0  0
   -9.8704   11.1523    1.1003 N   0  0  0  0  0  0  0  0  0  0  0  0
   -9.7184   13.1544   -0.2509 N   0  0  0  0  0  2  0  0  0  0  0  0
  -15.0399    7.1165    0.2154 N   0  0  0  0  0  0  0  0  0  0  0  0
  -16.2597    6.9051   -0.2411 N   0  0  0  0  0  0  0  0  0  0  0  0
  -20.6746    7.3801   -0.5130 O   0  0  0  0  0  0  0  0  0  0  0  0
  -19.9758    4.6117    0.7443 O   0  0  0  0  0  0  0  0  0  0  0  0
  -17.7204    5.8402   -1.8578 O   0  0  0  0  0  0  0  0  0  0  0  0
  -18.6992   10.3431   -0.8523 O   0  0  0  0  0  0  0  0  0  0  0  0
  -21.6546    9.8109   -0.7014 S   0  0  0  0  0  0  0  0  0  0  0  0
  9  1  1  0
 16  1  1  1
  1 31  1  0
 28  2  2  3
  2 29  2  0
  6  3  2  0
  3 22  1  0
  5  4  2  0
  4 21  1  0
  6  5  1  0
 36  6  1  0
 13  7  1  0
  7 32  1  0
  7 36  1  1
 23  8  1  1
  8 33  1  0
 17  9  2  0
 12 10  2  0
 10 17  1  0
 18 10  1  0
 11 18  2  0
 19 11  1  0
 11 25  1  0
 20 12  1  0
 12 27  1  0
 16 13  1  0
 13 35  1  6
 21 14  1  0
 16 15  1  0
 15 23  1  0
 15 34  1  1
 17 30  1  0
 18 24  1  0
 19 20  2  0
 19 28  1  0
 20 26  1  0
 21 22  2  0
 23 32  1  0
 30 31  2  0
M  CHG  2   2   1  29  -1
M  END
$$$$
