
     RDKit          3D

 36 39  0  0  0  0  0  0  0  0999 V2000
  -17.2027    7.4999   -1.3988 N   0  0  0  0  0  0  0  0  0  0  0  0
   -9.6415    9.3991    2.0926 N   0  0  0  0  0  4  0  0  0  0  0  0
  -23.5043    6.2905   -1.9633 C   0  0  0  0  0  0  0  0  0  0  0  0
  -25.9276    7.0636   -3.0276 C   0  0  0  0  0  0  0  0  0  0  0  0
  -24.7675    7.7737   -3.3238 C   0  0  0  0  0  0  0  0  0  0  0  0
  -23.5609    7.3850   -2.7916 C   0  0  0  0  0  0  0  0  0  0  0  0
  -20.8379    7.9752   -1.9088 C   0  0  1  0  0  0  0  0  0  0  0  0
  -19.2149    9.8247    0.4437 C   0  0  0  0  0  0  0  0  0  0  0  0
  -16.4259    7.9100   -0.3823 C   0  0  0  0  0  0  0  0  0  0  0  0
  -14.0185    8.5532    0.0177 C   0  0  0  0  0  0  0  0  0  0  0  0
  -13.1874    9.4804    2.0441 C   0  0  0  0  0  0  0  0  0  0  0  0
  -12.7041    8.4660   -0.4257 C   0  0  0  0  0  0  0  0  0  0  0  0
  -19.4166    7.9512   -2.4011 C   0  0  1  0  0  0  0  0  0  0  0  0
  -27.1296    5.2251   -1.8985 C   0  0  0  0  0  0  0  0  0  0  0  0
  -19.2292    7.3639   -0.0296 C   0  0  2  0  0  0  0  0  0  0  0  0
  -18.6263    7.1819   -1.3636 C   0  0  2  0  0  0  0  0  0  0  0  0
  -15.1132    8.1102   -0.8228 C   0  0  0  0  0  0  0  0  0  0  0  0
  -14.2535    9.0698    1.2735 C   0  0  0  0  0  0  0  0  0  0  0  0
  -11.8831    9.3932    1.6025 C   0  0  0  0  0  0  0  0  0  0  0  0
  -11.6550    8.8754    0.3453 C   0  0  0  0  0  0  0  0  0  0  0  0
  -25.8866    5.9653   -2.1999 C   0  0  0  0  0  0  0  0  0  0  0  0
  -24.6562    5.5896   -1.6719 C   0  0  0  0  0  0  0  0  0  0  0  0
  -20.0445    8.6011    0.1728 C   0  0  2  0  0  0  0  0  0  0  0  0
  -15.5278    9.1623    1.7224 F   0  0  0  0  0  0  0  0  0  0  0  0
  -13.3728    9.9951    3.2863 F   0  0  0  0  0  0  0  0  0  0  0  0
  -10.3888    8.7652   -0.1432 F   0  0  0  0  0  0  0  0  0  0  0  0
  -12.4335    7.9581   -1.6681 F   0  0  0  0  0  0  0  0  0  0  0  0
  -10.7801    9.8160    2.3953 N   0  0  0  0  0  0  0  0  0  0  0  0
   -8.7040    9.1768    1.3282 N   0  0  0  0  0  2  0  0  0  0  0  0
  -15.1659    7.8000   -2.1284 N   0  0  0  0  0  0  0  0  0  0  0  0
  -16.3947    7.4445   -2.4522 N   0  0  0  0  0  0  0  0  0  0  0  0
  -20.9090    8.8820   -0.8675 O   0  0  0  0  0  0  0  0  0  0  0  0
  -19.7753   10.6481    1.4145 O   0  0  0  0  0  0  0  0  0  0  0  0
  -18.2264    7.3383    0.9567 O   0  0  0  0  0  0  0  0  0  0  0  0
  -19.2760    7.3216   -3.6415 O   0  0  0  0  0  0  0  0  0  0  0  0
  -22.0777    8.2943   -3.1464 S   0  0  0  0  0  0  0  0  0  0  0  0
  9  1  1  0
 16  1  1  1
  1 31  1  0
 28  2  2  3
  2 29  2  0
  6  3  2  0
  3 22  1  0
  5  4  2  0
  4 21  1  0
  6  5  1  0
 36  6  1  0
 13  7  1  0
  7 32  1  0
  7 36  1  6
 23  8  1  6
  8 33  1  0
 17  9  2  0
 12 10  2  0
 10 17  1  0
 18 10  1  0
 11 18  2  0
 19 11  1  0
 11 25  1  0
 20 12  1  0
 12 27  1  0
 16 13  1  0
 13 35  1  6
 21 14  1  0
 16 15  1  0
 15 23  1  0
 15 34  1  1
 17 30  1  0
 18 24  1  0
 19 20  2  0
 19 28  1  0
 20 26  1  0
 21 22  2  0
 23 32  1  0
 30 31  2  0
M  CHG  2   2   1  29  -1
M  END
$$$$
