
     RDKit          3D

 36 39  0  0  0  0  0  0  0  0999 V2000
  -17.2205    7.9904   -0.7355 N   0  0  0  0  0  0  0  0  0  0  0  0
   -9.0143   10.4214   -0.5395 N   0  0  0  0  0  4  0  0  0  0  0  0
  -24.3284    9.2948   -2.7474 C   0  0  0  0  0  0  0  0  0  0  0  0
  -25.1218    6.6724   -2.4365 C   0  0  0  0  0  0  0  0  0  0  0  0
  -24.0707    7.1862   -1.6823 C   0  0  0  0  0  0  0  0  0  0  0  0
  -23.6781    8.4944   -1.8397 C   0  0  0  0  0  0  0  0  0  0  0  0
  -20.9120    8.0777   -0.9927 C   0  0  1  0  0  0  0  0  0  0  0  0
  -19.4246    5.8253    1.0818 C   0  0  0  0  0  0  0  0  0  0  0  0
  -16.1402    8.5768   -1.2776 C   0  0  0  0  0  0  0  0  0  0  0  0
  -13.7504    9.0883   -0.6479 C   0  0  0  0  0  0  0  0  0  0  0  0
  -12.3088   10.9168   -1.1331 C   0  0  0  0  0  0  0  0  0  0  0  0
  -12.6326    8.2625   -0.6718 C   0  0  0  0  0  0  0  0  0  0  0  0
  -19.5814    8.7221   -0.7146 C   0  0  1  0  0  0  0  0  0  0  0  0
  -26.8964    6.8971   -4.1396 C   0  0  0  0  0  0  0  0  0  0  0  0
  -19.0061    6.4177   -1.3169 C   0  0  2  0  0  0  0  0  0  0  0  0
  -18.5389    7.8168   -1.3362 C   0  0  2  0  0  0  0  0  0  0  0  0
  -15.0666    8.5432   -0.3811 C   0  0  0  0  0  0  0  0  0  0  0  0
  -13.5754   10.4348   -0.8834 C   0  0  0  0  0  0  0  0  0  0  0  0
  -11.2001   10.0957   -1.1565 C   0  0  0  0  0  0  0  0  0  0  0  0
  -11.3821    8.7497   -0.9201 C   0  0  0  0  0  0  0  0  0  0  0  0
  -25.7828    7.4619   -3.3493 C   0  0  0  0  0  0  0  0  0  0  0  0
  -25.3694    8.7818   -3.4931 C   0  0  0  0  0  0  0  0  0  0  0  0
  -20.0211    6.0657   -0.2765 C   0  0  2  0  0  0  0  0  0  0  0  0
  -14.6530   11.2547   -0.8640 F   0  0  0  0  0  0  0  0  0  0  0  0
  -12.0907   12.2353   -1.3702 F   0  0  0  0  0  0  0  0  0  0  0  0
  -10.3248    7.8917   -0.9306 F   0  0  0  0  0  0  0  0  0  0  0  0
  -12.7691    6.9196   -0.4424 F   0  0  0  0  0  0  0  0  0  0  0  0
   -9.8910   10.5898   -1.4138 N   0  0  0  0  0  0  0  0  0  0  0  0
   -7.9065   10.0859   -0.1235 N   0  0  0  0  0  2  0  0  0  0  0  0
  -15.5709    7.9163    0.6942 N   0  0  0  0  0  0  0  0  0  0  0  0
  -16.8323    7.5983    0.4733 N   0  0  0  0  0  0  0  0  0  0  0  0
  -21.0395    6.9904   -0.1481 O   0  0  0  0  0  0  0  0  0  0  0  0
  -19.8814    4.6493    1.6674 O   0  0  0  0  0  0  0  0  0  0  0  0
  -17.9101    5.5488   -1.1658 O   0  0  0  0  0  0  0  0  0  0  0  0
  -19.4645   10.0006   -1.2683 O   0  0  0  0  0  0  0  0  0  0  0  0
  -22.3261    9.1556   -0.8975 S   0  0  0  0  0  0  0  0  0  0  0  0
  9  1  1  0
 16  1  1  1
  1 31  1  0
 28  2  2  3
  2 29  2  0
  6  3  2  0
  3 22  1  0
  5  4  2  0
  4 21  1  0
  6  5  1  0
 36  6  1  0
 13  7  1  0
  7 32  1  0
  7 36  1  1
 23  8  1  1
  8 33  1  0
 17  9  2  0
 12 10  2  0
 10 17  1  0
 18 10  1  0
 11 18  2  0
 19 11  1  0
 11 25  1  0
 20 12  1  0
 12 27  1  0
 16 13  1  0
 13 35  1  6
 21 14  1  0
 16 15  1  0
 15 23  1  0
 15 34  1  1
 17 30  1  0
 18 24  1  0
 19 20  2  0
 19 28  1  0
 20 26  1  0
 21 22  2  0
 23 32  1  0
 30 31  2  0
M  CHG  2   2   1  29  -1
M  END
$$$$
