
     RDKit          3D

 36 39  0  0  0  0  0  0  0  0999 V2000
  -16.9248    7.8296   -0.4229 N   0  0  0  0  0  0  0  0  0  0  0  0
   -8.7156    9.9653    0.2906 N   0  0  0  0  0  4  0  0  0  0  0  0
  -23.3674    8.2000   -1.9396 C   0  0  0  0  0  0  0  0  0  0  0  0
  -25.7340    9.4463   -1.2696 C   0  0  0  0  0  0  0  0  0  0  0  0
  -24.5652    9.7257   -0.5669 C   0  0  0  0  0  0  0  0  0  0  0  0
  -23.3870    9.1026   -0.9041 C   0  0  0  0  0  0  0  0  0  0  0  0
  -20.5882    8.3471   -0.5316 C   0  0  1  0  0  0  0  0  0  0  0  0
  -19.3439    5.3542    0.5090 C   0  0  0  0  0  0  0  0  0  0  0  0
  -15.8725    8.6626   -0.4839 C   0  0  0  0  0  0  0  0  0  0  0  0
  -13.4889    8.7613    0.3395 C   0  0  0  0  0  0  0  0  0  0  0  0
  -11.7135    9.6233    1.6669 C   0  0  0  0  0  0  0  0  0  0  0  0
  -12.7644    9.1342   -0.7865 C   0  0  0  0  0  0  0  0  0  0  0  0
  -19.2052    8.7144   -0.0676 C   0  0  1  0  0  0  0  0  0  0  0  0
  -26.9815    8.2630   -3.0426 C   0  0  0  0  0  0  0  0  0  0  0  0
  -18.8462    6.7618   -1.5036 C   0  0  2  0  0  0  0  0  0  0  0  0
  -18.2474    8.0164   -1.0101 C   0  0  2  0  0  0  0  0  0  0  0  0
  -14.7830    8.1220    0.2077 C   0  0  0  0  0  0  0  0  0  0  0  0
  -12.9465    9.0140    1.5810 C   0  0  0  0  0  0  0  0  0  0  0  0
  -10.9954    9.9929    0.5481 C   0  0  0  0  0  0  0  0  0  0  0  0
  -11.5438    9.7372   -0.6908 C   0  0  0  0  0  0  0  0  0  0  0  0
  -25.7300    8.5450   -2.3091 C   0  0  0  0  0  0  0  0  0  0  0  0
  -24.5279    7.9257   -2.6334 C   0  0  0  0  0  0  0  0  0  0  0  0
  -19.9008    6.1405   -0.6444 C   0  0  2  0  0  0  0  0  0  0  0  0
  -13.6380    8.6576    2.6894 F   0  0  0  0  0  0  0  0  0  0  0  0
  -11.1420    9.8910    2.8686 F   0  0  0  0  0  0  0  0  0  0  0  0
  -10.8809   10.0797   -1.8298 F   0  0  0  0  0  0  0  0  0  0  0  0
  -13.2726    8.8988   -2.0359 F   0  0  0  0  0  0  0  0  0  0  0  0
   -9.7222   10.6220    0.6329 N   0  0  0  0  0  0  0  0  0  0  0  0
   -7.7400    9.2416    0.4831 N   0  0  0  0  0  2  0  0  0  0  0  0
  -15.2491    6.9492    0.6670 N   0  0  0  0  0  0  0  0  0  0  0  0
  -16.5038    6.7908    0.2906 N   0  0  0  0  0  0  0  0  0  0  0  0
  -20.8276    7.0392   -0.1524 O   0  0  0  0  0  0  0  0  0  0  0  0
  -20.1256    4.2499    0.8320 O   0  0  0  0  0  0  0  0  0  0  0  0
  -17.8396    5.8026   -1.7177 O   0  0  0  0  0  0  0  0  0  0  0  0
  -18.9613   10.0906   -0.1053 O   0  0  0  0  0  0  0  0  0  0  0  0
  -21.8940    9.4360   -0.0026 S   0  0  0  0  0  0  0  0  0  0  0  0
  9  1  1  0
 16  1  1  1
  1 31  1  0
 28  2  2  3
  2 29  2  0
  6  3  2  0
  3 22  1  0
  5  4  2  0
  4 21  1  0
  6  5  1  0
 36  6  1  0
 13  7  1  0
  7 32  1  0
  7 36  1  1
 23  8  1  1
  8 33  1  0
 17  9  2  0
 12 10  2  0
 10 17  1  0
 18 10  1  0
 11 18  2  0
 19 11  1  0
 11 25  1  0
 20 12  1  0
 12 27  1  0
 16 13  1  0
 13 35  1  6
 21 14  1  0
 16 15  1  0
 15 23  1  0
 15 34  1  1
 17 30  1  0
 18 24  1  0
 19 20  2  0
 19 28  1  0
 20 26  1  0
 21 22  2  0
 23 32  1  0
 30 31  2  0
M  CHG  2   2   1  29  -1
M  END
$$$$
