
     RDKit          3D

 36 39  0  0  0  0  0  0  0  0999 V2000
  -17.1497    8.1519   -0.8503 N   0  0  0  0  0  0  0  0  0  0  0  0
   -8.8464   10.0721    0.0136 N   0  0  0  0  0  4  0  0  0  0  0  0
  -24.5901    8.8426    0.3015 C   0  0  0  0  0  0  0  0  0  0  0  0
  -24.7778   10.7679   -1.6634 C   0  0  0  0  0  0  0  0  0  0  0  0
  -23.5751   10.5556   -0.9955 C   0  0  0  0  0  0  0  0  0  0  0  0
  -23.4851    9.5945   -0.0165 C   0  0  0  0  0  0  0  0  0  0  0  0
  -20.7742    8.5166   -0.1938 C   0  0  1  0  0  0  0  0  0  0  0  0
  -19.4020    5.4059   -0.3654 C   0  0  0  0  0  0  0  0  0  0  0  0
  -16.1193    9.0116   -0.7873 C   0  0  0  0  0  0  0  0  0  0  0  0
  -13.6325    8.9545   -0.3608 C   0  0  0  0  0  0  0  0  0  0  0  0
  -11.5978    9.7645   -1.2888 C   0  0  0  0  0  0  0  0  0  0  0  0
  -13.1681    9.3562    0.8861 C   0  0  0  0  0  0  0  0  0  0  0  0
  -19.3293    8.7810    0.1311 C   0  0  1  0  0  0  0  0  0  0  0  0
  -27.1599   10.2634   -2.0775 C   0  0  0  0  0  0  0  0  0  0  0  0
  -19.2357    7.3916   -1.8850 C   0  0  2  0  0  0  0  0  0  0  0  0
  -18.5503    8.4545   -1.1256 C   0  0  2  0  0  0  0  0  0  0  0  0
  -14.9325    8.3288   -0.4991 C   0  0  0  0  0  0  0  0  0  0  0  0
  -12.8275    9.1663   -1.4592 C   0  0  0  0  0  0  0  0  0  0  0  0
  -11.1382   10.1626   -0.0502 C   0  0  0  0  0  0  0  0  0  0  0  0
  -11.9484    9.9478    1.0444 C   0  0  0  0  0  0  0  0  0  0  0  0
  -25.8929   10.0226   -1.3561 C   0  0  0  0  0  0  0  0  0  0  0  0
  -25.7802    9.0561   -0.3626 C   0  0  0  0  0  0  0  0  0  0  0  0
  -20.1370    6.4877   -1.1059 C   0  0  2  0  0  0  0  0  0  0  0  0
  -13.2634    8.7816   -2.6822 F   0  0  0  0  0  0  0  0  0  0  0  0
  -10.7729    9.9921   -2.3424 F   0  0  0  0  0  0  0  0  0  0  0  0
  -11.5474   10.3200    2.2914 F   0  0  0  0  0  0  0  0  0  0  0  0
  -13.9411    9.1612    1.9994 F   0  0  0  0  0  0  0  0  0  0  0  0
   -9.8693   10.7805    0.1295 N   0  0  0  0  0  0  0  0  0  0  0  0
   -7.6538    9.8658   -0.2056 N   0  0  0  0  0  2  0  0  0  0  0  0
  -15.3204    7.0469   -0.3994 N   0  0  0  0  0  0  0  0  0  0  0  0
  -16.6203    6.9577   -0.6071 N   0  0  0  0  0  0  0  0  0  0  0  0
  -20.9592    7.1465   -0.2122 O   0  0  0  0  0  0  0  0  0  0  0  0
  -20.0450    4.1747   -0.4381 O   0  0  0  0  0  0  0  0  0  0  0  0
  -18.2889    6.5921   -2.5508 O   0  0  0  0  0  0  0  0  0  0  0  0
  -19.0817   10.1095    0.4897 O   0  0  0  0  0  0  0  0  0  0  0  0
  -21.9618    9.3279    0.8559 S   0  0  0  0  0  0  0  0  0  0  0  0
  9  1  1  0
 16  1  1  1
  1 31  1  0
 28  2  2  3
  2 29  2  0
  6  3  2  0
  3 22  1  0
  5  4  2  0
  4 21  1  0
  6  5  1  0
 36  6  1  0
 13  7  1  0
  7 32  1  0
  7 36  1  1
 23  8  1  1
  8 33  1  0
 17  9  2  0
 12 10  2  0
 10 17  1  0
 18 10  1  0
 11 18  2  0
 19 11  1  0
 11 25  1  0
 20 12  1  0
 12 27  1  0
 16 13  1  0
 13 35  1  6
 21 14  1  0
 16 15  1  0
 15 23  1  0
 15 34  1  1
 17 30  1  0
 18 24  1  0
 19 20  2  0
 19 28  1  0
 20 26  1  0
 21 22  2  0
 23 32  1  0
 30 31  2  0
M  CHG  2   2   1  29  -1
M  END
$$$$
