
     RDKit          3D

 36 39  0  0  0  0  0  0  0  0999 V2000
  -17.0232    8.0059   -0.7309 N   0  0  0  0  0  0  0  0  0  0  0  0
   -8.9991   10.5990    0.8185 N   0  0  0  0  0  4  0  0  0  0  0  0
  -24.1331    9.5491   -2.9087 C   0  0  0  0  0  0  0  0  0  0  0  0
  -25.0242    6.9955   -2.3719 C   0  0  0  0  0  0  0  0  0  0  0  0
  -23.9129    7.5094   -1.7095 C   0  0  0  0  0  0  0  0  0  0  0  0
  -23.4717    8.7833   -1.9795 C   0  0  0  0  0  0  0  0  0  0  0  0
  -20.6674    8.3218   -1.2971 C   0  0  1  0  0  0  0  0  0  0  0  0
  -19.4689    5.6986    0.5114 C   0  0  0  0  0  0  0  0  0  0  0  0
  -15.9132    8.7095   -1.0098 C   0  0  0  0  0  0  0  0  0  0  0  0
  -13.5944    9.0349   -0.0682 C   0  0  0  0  0  0  0  0  0  0  0  0
  -11.7194    9.9604    1.0653 C   0  0  0  0  0  0  0  0  0  0  0  0
  -12.9165    9.2468   -1.2629 C   0  0  0  0  0  0  0  0  0  0  0  0
  -19.3469    8.8455   -0.8020 C   0  0  1  0  0  0  0  0  0  0  0  0
  -26.8748    7.1863   -3.9963 C   0  0  0  0  0  0  0  0  0  0  0  0
  -18.8013    6.6377   -1.7140 C   0  0  2  0  0  0  0  0  0  0  0  0
  -18.2835    7.9966   -1.4663 C   0  0  2  0  0  0  0  0  0  0  0  0
  -14.9174    8.4429   -0.0639 C   0  0  0  0  0  0  0  0  0  0  0  0
  -12.9779    9.4007    1.1088 C   0  0  0  0  0  0  0  0  0  0  0  0
  -11.0477   10.1702   -0.1216 C   0  0  0  0  0  0  0  0  0  0  0  0
  -11.6702    9.8020   -1.2954 C   0  0  0  0  0  0  0  0  0  0  0  0
  -25.6970    7.7506   -3.3048 C   0  0  0  0  0  0  0  0  0  0  0  0
  -25.2338    9.0361   -3.5632 C   0  0  0  0  0  0  0  0  0  0  0  0
  -19.9234    6.1794   -0.8380 C   0  0  2  0  0  0  0  0  0  0  0  0
  -13.6232    9.2016    2.2826 F   0  0  0  0  0  0  0  0  0  0  0  0
  -11.0754   10.3354    2.1997 F   0  0  0  0  0  0  0  0  0  0  0  0
  -11.0555    9.9851   -2.4966 F   0  0  0  0  0  0  0  0  0  0  0  0
  -13.4987    8.8957   -2.4514 F   0  0  0  0  0  0  0  0  0  0  0  0
   -9.7484   10.7477   -0.1704 N   0  0  0  0  0  0  0  0  0  0  0  0
   -8.7376   10.2993    1.9824 N   0  0  0  0  0  2  0  0  0  0  0  0
  -15.4970    7.5611    0.7669 N   0  0  0  0  0  0  0  0  0  0  0  0
  -16.7292    7.3142    0.3648 N   0  0  0  0  0  0  0  0  0  0  0  0
  -20.9149    7.1236   -0.6533 O   0  0  0  0  0  0  0  0  0  0  0  0
  -20.3082    4.7260    1.0445 O   0  0  0  0  0  0  0  0  0  0  0  0
  -17.7573    5.7007   -1.6082 O   0  0  0  0  0  0  0  0  0  0  0  0
  -19.1309   10.1873   -1.1301 O   0  0  0  0  0  0  0  0  0  0  0  0
  -22.0438    9.4426   -1.1554 S   0  0  0  0  0  0  0  0  0  0  0  0
  9  1  1  0
 16  1  1  1
  1 31  1  0
 28  2  2  3
  2 29  2  0
  6  3  2  0
  3 22  1  0
  5  4  2  0
  4 21  1  0
  6  5  1  0
 36  6  1  0
 13  7  1  0
  7 32  1  0
  7 36  1  1
 23  8  1  1
  8 33  1  0
 17  9  2  0
 12 10  2  0
 10 17  1  0
 18 10  1  0
 11 18  2  0
 19 11  1  0
 11 25  1  0
 20 12  1  0
 12 27  1  0
 16 13  1  0
 13 35  1  6
 21 14  1  0
 16 15  1  0
 15 23  1  0
 15 34  1  1
 17 30  1  0
 18 24  1  0
 19 20  2  0
 19 28  1  0
 20 26  1  0
 21 22  2  0
 23 32  1  0
 30 31  2  0
M  CHG  2   2   1  29  -1
M  END
$$$$
