
     RDKit          3D

116118  0  0  0  0  0  0  0  0999 V2000
   -9.4881   -1.6676  -13.5257 C   0  0  0  0  0  0  0  0  0  0  0  0
  -10.6723   -1.9058  -13.2842 O   0  0  0  0  0  0  0  0  0  0  0  0
   -9.0683   -0.3102  -13.9722 C   0  0  0  0  0  0  0  0  0  0  0  0
   -9.9465    0.7845  -13.8450 C   0  0  0  0  0  0  0  0  0  0  0  0
   -9.5458    2.0276  -14.3538 C   0  0  0  0  0  0  0  0  0  0  0  0
  -11.2834    0.6325  -13.4153 N   0  0  0  0  0  0  0  0  0  0  0  0
   -8.2672    2.2045  -14.8966 C   0  0  0  0  0  0  0  0  0  0  0  0
   -7.3756    1.1363  -14.9513 C   0  0  0  0  0  0  0  0  0  0  0  0
   -7.7757   -0.1156  -14.4929 C   0  0  0  0  0  0  0  0  0  0  0  0
   -8.4874   -2.6266  -13.4798 N   0  0  0  0  0  0  0  0  0  0  0  0
   -8.7796   -4.0024  -13.0577 C   0  0  2  0  0  0  0  0  0  0  0  0
   -7.5289   -4.9038  -13.0286 C   0  0  0  0  0  0  0  0  0  0  0  0
   -6.4733   -4.5779  -13.5686 O   0  0  0  0  0  0  0  0  0  0  0  0
   -9.8144   -4.6137  -13.9944 C   0  0  0  0  0  0  0  0  0  0  0  0
   -7.6159   -6.0242  -12.2336 N   0  0  0  0  0  0  0  0  0  0  0  0
   -6.9862   -6.1030  -10.9020 C   0  0  2  0  0  0  0  0  0  0  0  0
   -5.8879   -7.1877  -10.8715 C   0  0  0  0  0  0  0  0  0  0  0  0
   -4.9670   -7.1997  -10.0552 O   0  0  0  0  0  0  0  0  0  0  0  0
   -8.0326   -6.3696   -9.7974 C   0  0  2  0  0  0  0  0  0  0  0  0
   -9.3112   -5.8517  -10.2018 O   0  0  0  0  0  0  0  0  0  0  0  0
   -7.6592   -5.7266   -8.4657 C   0  0  0  0  0  0  0  0  0  0  0  0
   -5.9614   -8.0763  -11.9092 N   0  0  0  0  0  0  0  0  0  0  0  0
   -6.8330   -9.2544  -11.9217 C   0  0  2  0  0  0  0  0  0  0  0  0
   -5.8639  -10.4519  -11.9810 C   0  0  0  0  0  0  0  0  0  0  0  0
   -6.3018  -11.5994  -12.1373 O   0  0  0  0  0  0  0  0  0  0  0  0
   -7.8330   -9.2432  -13.0973 C   0  0  2  0  0  0  0  0  0  0  0  0
   -7.2377   -8.6698  -14.2685 O   0  0  0  0  0  0  0  0  0  0  0  0
   -9.0945   -8.4427  -12.7796 C   0  0  0  0  0  0  0  0  0  0  0  0
   -4.5111  -10.2259  -11.9045 N   0  0  0  0  0  0  0  0  0  0  0  0
   -3.6953  -10.3101  -13.1133 C   0  0  2  0  0  0  0  0  0  0  0  0
   -3.5492  -11.7713  -13.5798 C   0  0  0  0  0  0  0  0  0  0  0  0
   -3.2576  -12.6911  -12.8238 O   0  0  0  0  0  0  0  0  0  0  0  0
   -2.3288   -9.7535  -12.6959 C   0  0  0  0  0  0  0  0  0  0  0  0
   -2.6074   -8.9746  -11.4142 C   0  0  0  0  0  0  0  0  0  0  0  0
   -3.7323   -9.7672  -10.7694 C   0  0  0  0  0  0  0  0  0  0  0  0
   -3.6078  -11.9406  -14.9501 N   0  0  0  0  0  0  0  0  0  0  0  0
   -3.7052  -13.2762  -15.5531 C   0  0  2  0  0  0  0  0  0  0  0  0
   -2.4280  -13.5531  -16.4032 C   0  0  0  0  0  0  0  0  0  0  0  0
   -1.4021  -14.0628  -15.9460 O   0  0  0  0  0  0  0  0  0  0  0  0
   -4.9552  -13.4161  -16.4412 C   0  0  0  0  0  0  0  0  0  0  0  0
   -6.3135  -12.9613  -15.8644 C   0  0  1  0  0  0  0  0  0  0  0  0
   -7.4807  -13.2409  -16.8094 C   0  0  0  0  0  0  0  0  0  0  0  0
   -6.6058  -13.5221  -14.4749 C   0  0  0  0  0  0  0  0  0  0  0  0
   -2.4712  -13.0727  -17.6861 N   0  0  0  0  0  0  0  0  0  0  0  0
   -1.9325  -11.7784  -18.0695 C   0  0  2  0  0  0  0  0  0  0  0  0
   -2.9350  -11.0607  -18.9997 C   0  0  0  0  0  0  0  0  0  0  0  0
   -3.2637   -9.8882  -18.8505 O   0  0  0  0  0  0  0  0  0  0  0  0
   -0.5343  -11.8627  -18.7160 C   0  0  0  0  0  0  0  0  0  0  0  0
    0.8018  -11.0360  -17.7806 S   0  0  0  0  0  0  0  0  0  0  0  0
   -3.4421  -11.8506  -20.0143 N   0  0  0  0  0  0  0  0  0  0  0  0
   -4.8706  -11.8365  -20.2914 C   0  0  0  0  0  0  0  0  0  0  0  0
   -5.5980  -11.0719  -19.1773 C   0  0  0  0  0  0  0  0  0  0  0  0
   -5.2077  -11.1130  -18.0037 O   0  0  0  0  0  0  0  0  0  0  0  0
   -6.6994  -10.3250  -19.5364 N   0  0  0  0  0  0  0  0  0  0  0  0
   -7.2875  -10.2306  -20.8782 C   0  0  2  0  0  0  0  0  0  0  0  0
   -6.6740   -9.1170  -21.7588 C   0  0  0  0  0  0  0  0  0  0  0  0
   -6.4966   -7.9713  -21.3427 O   0  0  0  0  0  0  0  0  0  0  0  0
   -8.7717   -9.9368  -20.6061 C   0  0  0  0  0  0  0  0  0  0  0  0
   -8.7692   -9.2236  -19.2567 C   0  0  0  0  0  0  0  0  0  0  0  0
   -7.6419   -9.9070  -18.5083 C   0  0  0  0  0  0  0  0  0  0  0  0
   -6.1990   -9.5353  -22.9786 N   0  0  0  0  0  0  0  0  0  0  0  0
   -5.6195   -8.6011  -23.9431 C   0  0  2  0  0  0  0  0  0  0  0  0
   -6.5718   -7.4246  -24.2057 C   0  0  0  0  0  0  0  0  0  0  0  0
   -7.7102   -7.3607  -23.7437 O   0  0  0  0  0  0  0  0  0  0  0  0
   -5.2789   -9.3002  -25.2629 C   0  0  0  0  0  0  0  0  0  0  0  0
   -5.4565   -8.3917  -26.3531 O   0  0  0  0  0  0  0  0  0  0  0  0
   -6.0065   -6.4041  -24.9490 N   0  0  0  0  0  0  0  0  0  0  0  0
   -6.7378   -5.1808  -25.3212 C   0  0  2  0  0  0  0  0  0  0  0  0
   -6.4272   -4.8747  -26.8139 C   0  0  0  0  0  0  0  0  0  0  0  0
   -5.5026   -4.1666  -27.1948 O   0  0  0  0  0  0  0  0  0  0  0  0
   -6.4163   -4.0459  -24.3326 C   0  0  0  0  0  0  0  0  0  0  0  0
   -4.9516   -3.5865  -24.2326 C   0  0  0  0  0  0  0  0  0  0  0  0
   -4.1356   -4.2188  -23.1014 C   0  0  0  0  0  0  0  0  0  0  0  0
   -2.8329   -4.6047  -23.6288 N   0  0  0  0  0  0  0  0  0  0  0  0
   -1.9914   -3.7049  -24.1872 C   0  0  0  0  0  0  0  0  0  0  0  0
   -1.0352   -3.9698  -24.9990 N   0  0  0  0  0  0  0  0  0  0  0  0
   -2.2754   -2.4509  -23.7838 N   0  0  0  0  0  0  0  0  0  0  0  0
   -7.3884   -5.3503  -27.6897 N   0  0  0  0  0  0  0  0  0  0  0  0
   -8.4546   -6.2627  -27.2591 C   0  0  2  0  0  0  0  0  0  0  0  0
   -9.1613   -6.8321  -28.5050 C   0  0  0  0  0  0  0  0  0  0  0  0
   -8.6279   -6.9456  -29.6024 O   0  0  0  0  0  0  0  0  0  0  0  0
   -9.4343   -5.5768  -26.3168 C   0  0  0  0  0  0  0  0  0  0  0  0
  -10.4967   -7.1084  -28.2800 N   0  0  0  0  0  0  0  0  0  0  0  0
  -10.9598   -8.4705  -27.9734 C   0  0  2  0  0  0  0  0  0  0  0  0
  -11.9051   -9.0255  -29.0511 C   0  0  0  0  0  0  0  0  0  0  0  0
  -12.4551  -10.1169  -28.9424 O   0  0  0  0  0  0  0  0  0  0  0  0
  -11.6910   -8.4688  -26.6246 C   0  0  0  0  0  0  0  0  0  0  0  0
  -13.1168   -8.4650  -26.8115 O   0  0  0  0  0  0  0  0  0  0  0  0
  -12.2304   -8.1298  -30.0460 N   0  0  0  0  0  0  0  0  0  0  0  0
  -12.7819   -8.5371  -31.3434 C   0  0  2  0  0  0  0  0  0  0  0  0
  -14.3033   -8.5717  -31.0702 C   0  0  0  0  0  0  0  0  0  0  0  0
  -14.7919   -7.9596  -30.1148 O   0  0  0  0  0  0  0  0  0  0  0  0
  -12.2226   -9.9208  -31.7671 C   0  0  2  0  0  0  0  0  0  0  0  0
  -13.3072  -11.0124  -31.5830 C   0  0  0  0  0  0  0  0  0  0  0  0
  -10.9305  -10.2814  -31.0156 C   0  0  0  0  0  0  0  0  0  0  0  0
  -13.4828  -11.4839  -30.1429 C   0  0  0  0  0  0  0  0  0  0  0  0
  -15.0507   -9.3046  -31.9512 N   0  0  0  0  0  0  0  0  0  0  0  0
  -16.4535   -9.0030  -32.2087 C   0  0  2  0  0  0  0  0  0  0  0  0
  -16.8959   -9.8322  -33.4254 C   0  0  0  0  0  0  0  0  0  0  0  0
  -16.3904   -9.6746  -34.5372 O   0  0  0  0  0  0  0  0  0  0  0  0
  -16.7378   -7.4986  -32.3519 C   0  0  0  0  0  0  0  0  0  0  0  0
  -17.4815   -6.8044  -31.1888 C   0  0  1  0  0  0  0  0  0  0  0  0
  -18.2622   -5.6019  -31.7274 C   0  0  0  0  0  0  0  0  0  0  0  0
  -18.4391   -7.7315  -30.4365 C   0  0  0  0  0  0  0  0  0  0  0  0
  -17.8886  -10.7535  -33.1739 N   0  0  0  0  0  0  0  0  0  0  0  0
  -17.5696  -11.9618  -32.4002 C   0  0  2  0  0  0  0  0  0  0  0  0
  -18.8181  -12.8275  -32.1363 C   0  0  0  0  0  0  0  0  0  0  0  0
  -18.8046  -13.8522  -31.4597 O   0  0  0  0  0  0  0  0  0  0  0  0
  -16.9067  -11.5728  -31.0746 C   0  0  0  0  0  0  0  0  0  0  0  0
  -16.6966  -12.7561  -30.2847 O   0  0  0  0  0  0  0  0  0  0  0  0
  -19.9295  -12.4258  -32.8463 N   0  0  0  0  0  0  0  0  0  0  0  0
  -20.3810  -13.1223  -34.0386 C   0  0  0  0  0  0  0  0  0  0  0  0
  -20.2943  -14.6326  -33.8924 C   0  0  0  0  0  0  0  0  0  0  0  0
  -20.5934  -15.3204  -35.0213 O   0  0  0  0  0  0  0  0  0  0  0  0
  -19.9745  -15.2391  -32.8796 O   0  0  0  0  0  0  0  0  0  0  0  0
   -1.3243   -4.7568  -25.5892 H   0  0  0  0  0  0  0  0  0  0  0  0
  1  2  2  0
  1  3  1  0
  1 10  1  0
  3  4  2  0
  3  9  1  0
  4  5  1  0
  4  6  1  0
  5  7  2  0
  7  8  1  0
  8  9  2  0
 10 11  1  0
 11 12  1  0
 11 14  1  6
 12 13  2  0
 12 15  1  0
 16 15  1  6
 16 17  1  0
 16 19  1  0
 17 18  2  0
 17 22  1  0
 19 20  1  0
 19 21  1  1
 23 22  1  6
 23 24  1  0
 23 26  1  0
 24 25  2  0
 24 29  1  0
 26 27  1  0
 26 28  1  1
 29 30  1  0
 29 35  1  0
 30 31  1  1
 30 33  1  0
 31 32  2  0
 31 36  1  0
 33 34  1  0
 34 35  1  0
 36 37  1  0
 37 38  1  0
 37 40  1  6
 38 39  2  0
 38 44  1  0
 40 41  1  0
 41 42  1  6
 41 43  1  0
 44 45  1  0
 45 46  1  0
 45 48  1  6
 46 47  2  0
 46 50  1  0
 48 49  1  0
 50 51  1  0
 51 52  1  0
 52 53  2  0
 52 54  1  0
 54 55  1  0
 54 60  1  0
 55 56  1  6
 55 58  1  0
 56 57  2  0
 56 61  1  0
 58 59  1  0
 59 60  1  0
 61 62  1  0
 62 63  1  0
 62 65  1  6
 63 64  2  0
 63 67  1  0
 65 66  1  0
 67 68  1  0
 68 69  1  0
 68 71  1  1
 69 70  2  0
 69 78  1  0
 71 72  1  0
 72 73  1  0
 73 74  1  0
 74 75  1  0
 75 76  2  0
 75 77  1  0
 78 79  1  0
 79 80  1  0
 79 82  1  1
 80 81  2  0
 80 83  1  0
 83 84  1  0
 84 85  1  0
 84 87  1  1
 85 86  2  0
 85 89  1  0
 87 88  1  0
 90 89  1  1
 90 91  1  0
 90 93  1  0
 91 92  2  0
 91 97  1  0
 93 94  1  0
 93 95  1  1
 94 96  1  0
 97 98  1  0
 98 99  1  0
 98101  1  6
 99100  2  0
 99105  1  0
101102  1  0
102103  1  6
102104  1  0
105106  1  0
106107  1  0
106109  1  1
107108  2  0
107111  1  0
109110  1  0
111112  1  0
112113  1  0
113114  1  0
113115  2  0
 76116  1  0
M  END
$$$$
