
     RDKit          3D

116118  0  0  0  0  0  0  0  0999 V2000
   -0.9904    0.6155  -33.5425 C   0  0  0  0  0  0  0  0  0  0  0  0
   -0.5052    1.5615  -32.9204 O   0  0  0  0  0  0  0  0  0  0  0  0
   -1.6824    0.8435  -34.8416 C   0  0  0  0  0  0  0  0  0  0  0  0
   -1.6833    2.1225  -35.4330 C   0  0  0  0  0  0  0  0  0  0  0  0
   -2.4163    2.3149  -36.6122 C   0  0  0  0  0  0  0  0  0  0  0  0
   -1.1500    3.2556  -34.7796 N   0  0  0  0  0  0  0  0  0  0  0  0
   -3.0613    1.2430  -37.2413 C   0  0  0  0  0  0  0  0  0  0  0  0
   -2.9942   -0.0347  -36.6920 C   0  0  0  0  0  0  0  0  0  0  0  0
   -2.3095   -0.2326  -35.4963 C   0  0  0  0  0  0  0  0  0  0  0  0
   -1.0036   -0.6881  -33.0698 N   0  0  0  0  0  0  0  0  0  0  0  0
   -0.3571   -1.0361  -31.7980 C   0  0  2  0  0  0  0  0  0  0  0  0
   -1.2498   -1.8977  -30.8824 C   0  0  0  0  0  0  0  0  0  0  0  0
   -2.4248   -2.1401  -31.1524 O   0  0  0  0  0  0  0  0  0  0  0  0
    0.0332    0.2384  -31.0596 C   0  0  0  0  0  0  0  0  0  0  0  0
   -0.6131   -2.5058  -29.8244 N   0  0  0  0  0  0  0  0  0  0  0  0
   -1.2486   -3.5656  -29.0189 C   0  0  2  0  0  0  0  0  0  0  0  0
   -1.9503   -2.9732  -27.7778 C   0  0  0  0  0  0  0  0  0  0  0  0
   -1.3899   -2.2356  -26.9676 O   0  0  0  0  0  0  0  0  0  0  0  0
   -0.2251   -4.6411  -28.5925 C   0  0  2  0  0  0  0  0  0  0  0  0
    0.6687   -4.0996  -27.6052 O   0  0  0  0  0  0  0  0  0  0  0  0
    0.6114   -5.1533  -29.7606 C   0  0  0  0  0  0  0  0  0  0  0  0
   -3.2249   -3.4344  -27.5922 N   0  0  0  0  0  0  0  0  0  0  0  0
   -3.5495   -4.7782  -27.1058 C   0  0  2  0  0  0  0  0  0  0  0  0
   -2.9747   -4.8214  -25.6760 C   0  0  0  0  0  0  0  0  0  0  0  0
   -1.7642   -4.6436  -25.4865 O   0  0  0  0  0  0  0  0  0  0  0  0
   -2.9775   -5.8926  -28.0078 C   0  0  2  0  0  0  0  0  0  0  0  0
   -2.7458   -7.0902  -27.2548 O   0  0  0  0  0  0  0  0  0  0  0  0
   -1.6555   -5.4917  -28.6592 C   0  0  0  0  0  0  0  0  0  0  0  0
   -3.8261   -5.0134  -24.6152 N   0  0  0  0  0  0  0  0  0  0  0  0
   -3.2794   -5.1716  -23.2699 C   0  0  2  0  0  0  0  0  0  0  0  0
   -2.5810   -6.5364  -23.1150 C   0  0  0  0  0  0  0  0  0  0  0  0
   -3.1742   -7.6063  -23.1910 O   0  0  0  0  0  0  0  0  0  0  0  0
   -4.5012   -5.0998  -22.3461 C   0  0  0  0  0  0  0  0  0  0  0  0
   -5.5878   -4.4506  -23.1975 C   0  0  0  0  0  0  0  0  0  0  0  0
   -5.2759   -4.9574  -24.5958 C   0  0  0  0  0  0  0  0  0  0  0  0
   -1.2601   -6.4584  -22.7160 N   0  0  0  0  0  0  0  0  0  0  0  0
   -0.4239   -7.6600  -22.5978 C   0  0  2  0  0  0  0  0  0  0  0  0
   -1.3376   -8.9067  -22.3943 C   0  0  0  0  0  0  0  0  0  0  0  0
   -2.3620   -9.1152  -23.0489 O   0  0  0  0  0  0  0  0  0  0  0  0
    0.5715   -7.5546  -21.4278 C   0  0  0  0  0  0  0  0  0  0  0  0
    0.2389   -6.5847  -20.2732 C   0  0  1  0  0  0  0  0  0  0  0  0
    1.3367   -5.5492  -20.0360 C   0  0  0  0  0  0  0  0  0  0  0  0
   -1.1174   -5.9000  -20.4220 C   0  0  0  0  0  0  0  0  0  0  0  0
   -0.9939   -9.7101  -21.3384 N   0  0  0  0  0  0  0  0  0  0  0  0
   -0.5729  -11.0924  -21.4944 C   0  0  2  0  0  0  0  0  0  0  0  0
   -1.3459  -11.9799  -20.4943 C   0  0  0  0  0  0  0  0  0  0  0  0
   -0.8066  -12.8483  -19.8160 O   0  0  0  0  0  0  0  0  0  0  0  0
    0.9506  -11.2897  -21.3527 C   0  0  0  0  0  0  0  0  0  0  0  0
    1.5861  -11.2031  -19.6404 S   0  0  0  0  0  0  0  0  0  0  0  0
   -2.7025  -11.7228  -20.4295 N   0  0  0  0  0  0  0  0  0  0  0  0
   -3.2804  -11.2158  -19.1940 C   0  0  0  0  0  0  0  0  0  0  0  0
   -4.6440  -11.8796  -18.9596 C   0  0  0  0  0  0  0  0  0  0  0  0
   -5.4367  -12.0744  -19.8896 O   0  0  0  0  0  0  0  0  0  0  0  0
   -4.9486  -12.2634  -17.6712 N   0  0  0  0  0  0  0  0  0  0  0  0
   -6.2801  -12.6060  -17.1567 C   0  0  2  0  0  0  0  0  0  0  0  0
   -7.0789  -11.3959  -16.6184 C   0  0  0  0  0  0  0  0  0  0  0  0
   -6.6719  -10.7001  -15.6870 O   0  0  0  0  0  0  0  0  0  0  0  0
   -5.9876  -13.5987  -16.0198 C   0  0  0  0  0  0  0  0  0  0  0  0
   -4.5906  -13.2145  -15.5399 C   0  0  0  0  0  0  0  0  0  0  0  0
   -3.8931  -12.7883  -16.8166 C   0  0  0  0  0  0  0  0  0  0  0  0
   -8.1913  -11.0604  -17.3520 N   0  0  0  0  0  0  0  0  0  0  0  0
   -8.5696   -9.6674  -17.5874 C   0  0  2  0  0  0  0  0  0  0  0  0
  -10.0290   -9.4197  -17.1766 C   0  0  0  0  0  0  0  0  0  0  0  0
  -10.7318   -8.5418  -17.6756 O   0  0  0  0  0  0  0  0  0  0  0  0
   -8.3673   -9.2735  -19.0539 C   0  0  0  0  0  0  0  0  0  0  0  0
   -7.4966   -8.1420  -19.1367 O   0  0  0  0  0  0  0  0  0  0  0  0
  -10.5080  -10.3238  -16.2457 N   0  0  0  0  0  0  0  0  0  0  0  0
  -11.8147  -10.1773  -15.5816 C   0  0  2  0  0  0  0  0  0  0  0  0
  -11.8237  -11.1079  -14.3356 C   0  0  0  0  0  0  0  0  0  0  0  0
  -11.0424  -12.0356  -14.1621 O   0  0  0  0  0  0  0  0  0  0  0  0
  -12.9541  -10.4107  -16.5895 C   0  0  0  0  0  0  0  0  0  0  0  0
  -14.1288   -9.4177  -16.5740 C   0  0  0  0  0  0  0  0  0  0  0  0
  -13.7770   -7.9708  -16.9323 C   0  0  0  0  0  0  0  0  0  0  0  0
  -13.8652   -7.8166  -18.3788 N   0  0  0  0  0  0  0  0  0  0  0  0
  -14.1808   -6.6343  -18.9550 C   0  0  0  0  0  0  0  0  0  0  0  0
  -15.3168   -6.0439  -18.8906 N   0  0  0  0  0  0  0  0  0  0  0  0
  -13.1335   -6.1225  -19.6310 N   0  0  0  0  0  0  0  0  0  0  0  0
  -12.9026  -10.8974  -13.4936 N   0  0  0  0  0  0  0  0  0  0  0  0
  -13.0097  -11.5500  -12.1831 C   0  0  2  0  0  0  0  0  0  0  0  0
  -14.4966  -11.8148  -11.8747 C   0  0  0  0  0  0  0  0  0  0  0  0
  -15.2714  -12.3562  -12.6546 O   0  0  0  0  0  0  0  0  0  0  0  0
  -12.3429  -10.7269  -11.0895 C   0  0  0  0  0  0  0  0  0  0  0  0
  -14.8913  -11.2845  -10.6610 N   0  0  0  0  0  0  0  0  0  0  0  0
  -16.2037  -10.6418  -10.4920 C   0  0  2  0  0  0  0  0  0  0  0  0
  -17.1710  -11.4940   -9.6548 C   0  0  0  0  0  0  0  0  0  0  0  0
  -18.3831  -11.4884   -9.8451 O   0  0  0  0  0  0  0  0  0  0  0  0
  -16.8291  -10.3900  -11.8702 C   0  0  0  0  0  0  0  0  0  0  0  0
  -17.2583   -9.0236  -11.9993 O   0  0  0  0  0  0  0  0  0  0  0  0
  -16.5594  -12.3959   -8.8120 N   0  0  0  0  0  0  0  0  0  0  0  0
  -16.1474  -12.0633   -7.4434 C   0  0  2  0  0  0  0  0  0  0  0  0
  -14.6523  -12.4574   -7.4335 C   0  0  0  0  0  0  0  0  0  0  0  0
  -13.7684  -11.5971   -7.3637 O   0  0  0  0  0  0  0  0  0  0  0  0
  -16.9803  -12.8660   -6.4095 C   0  0  2  0  0  0  0  0  0  0  0  0
  -18.4488  -12.9896   -6.8897 C   0  0  0  0  0  0  0  0  0  0  0  0
  -16.9005  -12.2578   -4.9995 C   0  0  0  0  0  0  0  0  0  0  0  0
  -18.9620  -11.7733   -7.6541 C   0  0  0  0  0  0  0  0  0  0  0  0
  -14.3887  -13.7984   -7.4952 N   0  0  0  0  0  0  0  0  0  0  0  0
  -14.3250  -14.6273   -6.2977 C   0  0  2  0  0  0  0  0  0  0  0  0
  -12.8628  -15.0611   -6.1047 C   0  0  0  0  0  0  0  0  0  0  0  0
  -12.3709  -15.2064   -4.9850 O   0  0  0  0  0  0  0  0  0  0  0  0
  -15.3188  -15.8007   -6.3142 C   0  0  0  0  0  0  0  0  0  0  0  0
  -15.2031  -16.8430   -5.1793 C   0  0  1  0  0  0  0  0  0  0  0  0
  -13.7478  -16.9271   -4.7098 C   0  0  0  0  0  0  0  0  0  0  0  0
  -16.1037  -16.5414   -3.9791 C   0  0  0  0  0  0  0  0  0  0  0  0
  -12.1581  -15.2720   -7.2693 N   0  0  0  0  0  0  0  0  0  0  0  0
  -11.2866  -14.2070   -7.7859 C   0  0  2  0  0  0  0  0  0  0  0  0
  -11.6403  -12.8291   -7.1909 C   0  0  0  0  0  0  0  0  0  0  0  0
  -12.4960  -12.0845   -7.6615 O   0  0  0  0  0  0  0  0  0  0  0  0
  -11.3710  -14.1596   -9.3151 C   0  0  0  0  0  0  0  0  0  0  0  0
  -12.4660  -14.9819   -9.7549 O   0  0  0  0  0  0  0  0  0  0  0  0
  -10.8097  -12.4418   -6.1611 N   0  0  0  0  0  0  0  0  0  0  0  0
   -9.9838  -13.3898   -5.4332 C   0  0  0  0  0  0  0  0  0  0  0  0
  -10.7463  -14.0786   -4.3134 C   0  0  0  0  0  0  0  0  0  0  0  0
  -10.8751  -15.4189   -4.4683 O   0  0  0  0  0  0  0  0  0  0  0  0
  -11.2156  -13.5348   -3.3235 O   0  0  0  0  0  0  0  0  0  0  0  0
  -15.9280   -6.5905  -18.2751 H   0  0  0  0  0  0  0  0  0  0  0  0
  1  2  2  0
  1  3  1  0
  1 10  1  0
  3  4  2  0
  3  9  1  0
  4  5  1  0
  4  6  1  0
  5  7  2  0
  7  8  1  0
  8  9  2  0
 10 11  1  0
 11 12  1  0
 11 14  1  1
 12 13  2  0
 12 15  1  0
 16 15  1  1
 16 17  1  0
 16 19  1  0
 17 18  2  0
 17 22  1  0
 19 20  1  0
 19 21  1  6
 23 22  1  6
 23 24  1  0
 23 26  1  0
 24 25  2  0
 24 29  1  0
 26 27  1  0
 26 28  1  1
 29 30  1  0
 29 35  1  0
 30 31  1  6
 30 33  1  0
 31 32  2  0
 31 36  1  0
 33 34  1  0
 34 35  1  0
 36 37  1  0
 37 38  1  0
 37 40  1  1
 38 39  2  0
 38 44  1  0
 40 41  1  0
 41 42  1  6
 41 43  1  0
 44 45  1  0
 45 46  1  0
 45 48  1  1
 46 47  2  0
 46 50  1  0
 48 49  1  0
 50 51  1  0
 51 52  1  0
 52 53  2  0
 52 54  1  0
 54 55  1  0
 54 60  1  0
 55 56  1  1
 55 58  1  0
 56 57  2  0
 56 61  1  0
 58 59  1  0
 59 60  1  0
 61 62  1  0
 62 63  1  0
 62 65  1  6
 63 64  2  0
 63 67  1  0
 65 66  1  0
 67 68  1  0
 68 69  1  0
 68 71  1  6
 69 70  2  0
 69 78  1  0
 71 72  1  0
 72 73  1  0
 73 74  1  0
 74 75  1  0
 75 76  2  0
 75 77  1  0
 78 79  1  0
 79 80  1  0
 79 82  1  1
 80 81  2  0
 80 83  1  0
 83 84  1  0
 84 85  1  0
 84 87  1  6
 85 86  2  0
 85 89  1  0
 87 88  1  0
 90 89  1  6
 90 91  1  0
 90 93  1  0
 91 92  2  0
 91 97  1  0
 93 94  1  0
 93 95  1  1
 94 96  1  0
 97 98  1  0
 98 99  1  0
 98101  1  6
 99100  2  0
 99105  1  0
101102  1  0
102103  1  1
102104  1  0
105106  1  0
106107  1  0
106109  1  6
107108  2  0
107111  1  0
109110  1  0
111112  1  0
112113  1  0
113114  1  0
113115  2  0
 76116  1  0
M  END
$$$$
