
     RDKit          3D

116118  0  0  0  0  0  0  0  0999 V2000
  -18.8981  -10.6297   -7.2072 C   0  0  0  0  0  0  0  0  0  0  0  0
  -19.7280  -10.4125   -8.0912 O   0  0  0  0  0  0  0  0  0  0  0  0
  -19.2883  -11.3629   -5.9709 C   0  0  0  0  0  0  0  0  0  0  0  0
  -20.5727  -11.9310   -5.8554 C   0  0  0  0  0  0  0  0  0  0  0  0
  -20.9298  -12.5394   -4.6441 C   0  0  0  0  0  0  0  0  0  0  0  0
  -21.5757  -11.7313   -6.8296 N   0  0  0  0  0  0  0  0  0  0  0  0
  -20.0045  -12.6620   -3.6004 C   0  0  0  0  0  0  0  0  0  0  0  0
  -18.7122  -12.1650   -3.7480 C   0  0  0  0  0  0  0  0  0  0  0  0
  -18.3570  -11.5166   -4.9274 C   0  0  0  0  0  0  0  0  0  0  0  0
  -17.5935  -10.1612   -7.2472 N   0  0  0  0  0  0  0  0  0  0  0  0
  -17.0875   -9.4373   -8.4204 C   0  0  2  0  0  0  0  0  0  0  0  0
  -16.1937  -10.3069   -9.3275 C   0  0  0  0  0  0  0  0  0  0  0  0
  -15.2689  -10.9837   -8.8817 O   0  0  0  0  0  0  0  0  0  0  0  0
  -16.2983   -8.2162   -7.9641 C   0  0  0  0  0  0  0  0  0  0  0  0
  -16.5868  -10.4011  -10.6433 N   0  0  0  0  0  0  0  0  0  0  0  0
  -15.6274  -10.6045  -11.7453 C   0  0  2  0  0  0  0  0  0  0  0  0
  -14.5885   -9.4635  -11.7936 C   0  0  0  0  0  0  0  0  0  0  0  0
  -14.8546   -8.2907  -11.5321 O   0  0  0  0  0  0  0  0  0  0  0  0
  -16.3484  -10.7299  -13.1056 C   0  0  2  0  0  0  0  0  0  0  0  0
  -16.1689   -9.5229  -13.8657 O   0  0  0  0  0  0  0  0  0  0  0  0
  -17.8458  -10.9794  -12.9572 C   0  0  0  0  0  0  0  0  0  0  0  0
  -13.3650   -9.8513  -12.2673 N   0  0  0  0  0  0  0  0  0  0  0  0
  -12.2207   -8.9490  -12.4226 C   0  0  2  0  0  0  0  0  0  0  0  0
  -12.0746   -8.7683  -13.9466 C   0  0  0  0  0  0  0  0  0  0  0  0
  -12.4417   -9.6649  -14.7174 O   0  0  0  0  0  0  0  0  0  0  0  0
  -10.9362   -9.4974  -11.7655 C   0  0  2  0  0  0  0  0  0  0  0  0
   -9.7801   -8.7950  -12.2399 O   0  0  0  0  0  0  0  0  0  0  0  0
  -10.7256  -10.9829  -12.0518 C   0  0  0  0  0  0  0  0  0  0  0  0
  -11.5761   -7.5865  -14.4384 N   0  0  0  0  0  0  0  0  0  0  0  0
  -11.6764   -7.2992  -15.8670 C   0  0  2  0  0  0  0  0  0  0  0  0
  -10.7112   -8.1857  -16.6773 C   0  0  0  0  0  0  0  0  0  0  0  0
   -9.8223   -8.8548  -16.1626 O   0  0  0  0  0  0  0  0  0  0  0  0
  -11.2679   -5.8267  -15.9940 C   0  0  0  0  0  0  0  0  0  0  0  0
  -11.4091   -5.2666  -14.5821 C   0  0  0  0  0  0  0  0  0  0  0  0
  -11.0445   -6.4529  -13.7050 C   0  0  0  0  0  0  0  0  0  0  0  0
  -10.8168   -8.0389  -18.0474 N   0  0  0  0  0  0  0  0  0  0  0  0
  -10.1582   -8.9722  -18.9705 C   0  0  2  0  0  0  0  0  0  0  0  0
  -10.4761   -8.5564  -20.4390 C   0  0  0  0  0  0  0  0  0  0  0  0
  -11.2625   -9.1686  -21.1659 O   0  0  0  0  0  0  0  0  0  0  0  0
  -10.6099  -10.4257  -18.7376 C   0  0  0  0  0  0  0  0  0  0  0  0
   -9.6023  -11.4094  -18.1040 C   0  0  1  0  0  0  0  0  0  0  0  0
   -8.1693  -10.8805  -18.1208 C   0  0  0  0  0  0  0  0  0  0  0  0
   -9.9890  -11.8583  -16.6971 C   0  0  0  0  0  0  0  0  0  0  0  0
   -9.7202   -7.5212  -20.9240 N   0  0  0  0  0  0  0  0  0  0  0  0
   -9.2877   -7.4324  -22.3088 C   0  0  2  0  0  0  0  0  0  0  0  0
   -8.7870   -8.8156  -22.7794 C   0  0  0  0  0  0  0  0  0  0  0  0
   -7.7238   -9.3030  -22.4090 O   0  0  0  0  0  0  0  0  0  0  0  0
   -8.2231   -6.3424  -22.5505 C   0  0  0  0  0  0  0  0  0  0  0  0
   -7.2189   -5.9033  -21.0869 S   0  0  0  0  0  0  0  0  0  0  0  0
   -9.6321   -9.4611  -23.6624 N   0  0  0  0  0  0  0  0  0  0  0  0
   -9.2546   -9.5802  -25.0627 C   0  0  0  0  0  0  0  0  0  0  0  0
   -7.9093  -10.3112  -25.1671 C   0  0  0  0  0  0  0  0  0  0  0  0
   -7.5191  -11.0775  -24.2773 O   0  0  0  0  0  0  0  0  0  0  0  0
   -7.1548  -10.0908  -26.2995 N   0  0  0  0  0  0  0  0  0  0  0  0
   -5.8689  -10.7198  -26.6248 C   0  0  2  0  0  0  0  0  0  0  0  0
   -4.6385   -9.9611  -26.0745 C   0  0  0  0  0  0  0  0  0  0  0  0
   -3.6241   -9.7755  -26.7480 O   0  0  0  0  0  0  0  0  0  0  0  0
   -5.8453  -10.7279  -28.1619 C   0  0  0  0  0  0  0  0  0  0  0  0
   -6.7208   -9.5409  -28.5544 C   0  0  0  0  0  0  0  0  0  0  0  0
   -7.7944   -9.5364  -27.4841 C   0  0  0  0  0  0  0  0  0  0  0  0
   -4.8183   -9.3764  -24.8440 N   0  0  0  0  0  0  0  0  0  0  0  0
   -3.7575   -8.6100  -24.1911 C   0  0  2  0  0  0  0  0  0  0  0  0
   -3.3579   -9.2562  -22.8559 C   0  0  0  0  0  0  0  0  0  0  0  0
   -4.1361   -9.9085  -22.1612 O   0  0  0  0  0  0  0  0  0  0  0  0
   -4.1799   -7.1558  -23.9601 C   0  0  0  0  0  0  0  0  0  0  0  0
   -5.5537   -6.9865  -24.3197 O   0  0  0  0  0  0  0  0  0  0  0  0
   -2.0201   -9.1023  -22.5395 N   0  0  0  0  0  0  0  0  0  0  0  0
   -1.4866   -9.3074  -21.1819 C   0  0  2  0  0  0  0  0  0  0  0  0
   -0.2253   -8.4112  -21.0245 C   0  0  0  0  0  0  0  0  0  0  0  0
    0.0500   -7.7799  -20.0112 O   0  0  0  0  0  0  0  0  0  0  0  0
   -1.2693  -10.8075  -20.9154 C   0  0  0  0  0  0  0  0  0  0  0  0
   -0.4263  -11.5937  -21.9340 C   0  0  0  0  0  0  0  0  0  0  0  0
   -0.6325  -13.1113  -21.9327 C   0  0  0  0  0  0  0  0  0  0  0  0
   -1.9700  -13.3981  -22.4356 N   0  0  0  0  0  0  0  0  0  0  0  0
   -2.1926  -13.7352  -23.7264 C   0  0  0  0  0  0  0  0  0  0  0  0
   -1.2943  -13.9419  -24.6173 N   0  0  0  0  0  0  0  0  0  0  0  0
   -3.5109  -13.8344  -23.9875 N   0  0  0  0  0  0  0  0  0  0  0  0
    0.4967   -8.2586  -22.1961 N   0  0  0  0  0  0  0  0  0  0  0  0
    1.7568   -7.5073  -22.2450 C   0  0  2  0  0  0  0  0  0  0  0  0
    2.3482   -7.6114  -23.6646 C   0  0  0  0  0  0  0  0  0  0  0  0
    2.9381   -8.5978  -24.0897 O   0  0  0  0  0  0  0  0  0  0  0  0
    2.7392   -7.9888  -21.1861 C   0  0  0  0  0  0  0  0  0  0  0  0
    2.2321   -6.4331  -24.3775 N   0  0  0  0  0  0  0  0  0  0  0  0
    3.4066   -5.6056  -24.6933 C   0  0  2  0  0  0  0  0  0  0  0  0
    4.5118   -5.7259  -23.6316 C   0  0  0  0  0  0  0  0  0  0  0  0
    4.2630   -5.8306  -22.4347 O   0  0  0  0  0  0  0  0  0  0  0  0
    2.9804   -4.1358  -24.8020 C   0  0  0  0  0  0  0  0  0  0  0  0
    4.1249   -3.2653  -24.7911 O   0  0  0  0  0  0  0  0  0  0  0  0
    5.7806   -5.8961  -24.1403 N   0  0  0  0  0  0  0  0  0  0  0  0
    6.9710   -6.0436  -23.2949 C   0  0  2  0  0  0  0  0  0  0  0  0
    6.4414   -5.6630  -21.8931 C   0  0  0  0  0  0  0  0  0  0  0  0
    5.4998   -6.2772  -21.3806 O   0  0  0  0  0  0  0  0  0  0  0  0
    8.1061   -5.1022  -23.7770 C   0  0  2  0  0  0  0  0  0  0  0  0
    9.4876   -5.7416  -23.4860 C   0  0  0  0  0  0  0  0  0  0  0  0
    7.9976   -3.6971  -23.1620 C   0  0  0  0  0  0  0  0  0  0  0  0
    9.8791   -5.7422  -22.0116 C   0  0  0  0  0  0  0  0  0  0  0  0
    7.0855   -4.6272  -21.2733 N   0  0  0  0  0  0  0  0  0  0  0  0
    7.9200   -4.8327  -20.0958 C   0  0  2  0  0  0  0  0  0  0  0  0
    9.2008   -4.0020  -20.2779 C   0  0  0  0  0  0  0  0  0  0  0  0
   10.3206   -4.5062  -20.1853 O   0  0  0  0  0  0  0  0  0  0  0  0
    8.1859   -6.3156  -19.7877 C   0  0  0  0  0  0  0  0  0  0  0  0
    7.4717   -6.9229  -18.5592 C   0  0  1  0  0  0  0  0  0  0  0  0
    6.0808   -7.4155  -18.9691 C   0  0  0  0  0  0  0  0  0  0  0  0
    8.2441   -8.0745  -17.9114 C   0  0  0  0  0  0  0  0  0  0  0  0
    8.9968   -2.6672  -20.5503 N   0  0  0  0  0  0  0  0  0  0  0  0
   10.1542   -1.8040  -20.8253 C   0  0  2  0  0  0  0  0  0  0  0  0
    9.7819   -0.3079  -20.7939 C   0  0  0  0  0  0  0  0  0  0  0  0
   10.6058    0.5958  -20.6819 O   0  0  0  0  0  0  0  0  0  0  0  0
   10.7658   -2.1678  -22.1823 C   0  0  0  0  0  0  0  0  0  0  0  0
   10.5237   -1.0986  -23.1131 O   0  0  0  0  0  0  0  0  0  0  0  0
    8.4232   -0.0770  -20.7609 N   0  0  0  0  0  0  0  0  0  0  0  0
    7.8670    1.2589  -20.6321 C   0  0  0  0  0  0  0  0  0  0  0  0
    7.0046    1.4077  -19.3896 C   0  0  0  0  0  0  0  0  0  0  0  0
    7.5035    0.7965  -18.2876 O   0  0  0  0  0  0  0  0  0  0  0  0
    5.9504    2.0235  -19.3165 O   0  0  0  0  0  0  0  0  0  0  0  0
   -1.3544  -13.1917  -25.3136 H   0  0  0  0  0  0  0  0  0  0  0  0
  1  2  2  0
  1  3  1  0
  1 10  1  0
  3  4  2  0
  3  9  1  0
  4  5  1  0
  4  6  1  0
  5  7  2  0
  7  8  1  0
  8  9  2  0
 10 11  1  0
 11 12  1  0
 11 14  1  1
 12 13  2  0
 12 15  1  0
 16 15  1  1
 16 17  1  0
 16 19  1  0
 17 18  2  0
 17 22  1  0
 19 20  1  0
 19 21  1  1
 23 22  1  6
 23 24  1  0
 23 26  1  0
 24 25  2  0
 24 29  1  0
 26 27  1  0
 26 28  1  6
 29 30  1  0
 29 35  1  0
 30 31  1  6
 30 33  1  0
 31 32  2  0
 31 36  1  0
 33 34  1  0
 34 35  1  0
 36 37  1  0
 37 38  1  0
 37 40  1  1
 38 39  2  0
 38 44  1  0
 40 41  1  0
 41 42  1  1
 41 43  1  0
 44 45  1  0
 45 46  1  0
 45 48  1  1
 46 47  2  0
 46 50  1  0
 48 49  1  0
 50 51  1  0
 51 52  1  0
 52 53  2  0
 52 54  1  0
 54 55  1  0
 54 60  1  0
 55 56  1  1
 55 58  1  0
 56 57  2  0
 56 61  1  0
 58 59  1  0
 59 60  1  0
 61 62  1  0
 62 63  1  0
 62 65  1  1
 63 64  2  0
 63 67  1  0
 65 66  1  0
 67 68  1  0
 68 69  1  0
 68 71  1  6
 69 70  2  0
 69 78  1  0
 71 72  1  0
 72 73  1  0
 73 74  1  0
 74 75  1  0
 75 76  2  0
 75 77  1  0
 78 79  1  0
 79 80  1  0
 79 82  1  1
 80 81  2  0
 80 83  1  0
 83 84  1  0
 84 85  1  0
 84 87  1  1
 85 86  2  0
 85 89  1  0
 87 88  1  0
 90 89  1  6
 90 91  1  0
 90 93  1  0
 91 92  2  0
 91 97  1  0
 93 94  1  0
 93 95  1  1
 94 96  1  0
 97 98  1  0
 98 99  1  0
 98101  1  6
 99100  2  0
 99105  1  0
101102  1  0
102103  1  6
102104  1  0
105106  1  0
106107  1  0
106109  1  6
107108  2  0
107111  1  0
109110  1  0
111112  1  0
112113  1  0
113114  1  0
113115  2  0
 76116  1  0
M  END
$$$$
