
     RDKit          3D

116118  0  0  0  0  0  0  0  0999 V2000
  -12.7250  -15.3265   -6.9967 C   0  0  0  0  0  0  0  0  0  0  0  0
  -12.6135  -15.5792   -8.1972 O   0  0  0  0  0  0  0  0  0  0  0  0
  -12.2946  -16.3204   -5.9743 C   0  0  0  0  0  0  0  0  0  0  0  0
  -11.7574  -17.5616   -6.3699 C   0  0  0  0  0  0  0  0  0  0  0  0
  -11.4430  -18.5020   -5.3790 C   0  0  0  0  0  0  0  0  0  0  0  0
  -11.7170  -17.9693   -7.7216 N   0  0  0  0  0  0  0  0  0  0  0  0
  -11.5736  -18.1870   -4.0209 C   0  0  0  0  0  0  0  0  0  0  0  0
  -12.0344  -16.9312   -3.6344 C   0  0  0  0  0  0  0  0  0  0  0  0
  -12.3952  -16.0033   -4.6072 C   0  0  0  0  0  0  0  0  0  0  0  0
  -13.3108  -14.1689   -6.5071 N   0  0  0  0  0  0  0  0  0  0  0  0
  -13.7058  -13.0821   -7.4123 C   0  0  2  0  0  0  0  0  0  0  0  0
  -12.5145  -12.4683   -8.1750 C   0  0  0  0  0  0  0  0  0  0  0  0
  -11.3475  -12.7144   -7.8755 O   0  0  0  0  0  0  0  0  0  0  0  0
  -14.4080  -11.9875   -6.6180 C   0  0  0  0  0  0  0  0  0  0  0  0
  -12.8325  -11.7508   -9.3058 N   0  0  0  0  0  0  0  0  0  0  0  0
  -11.8666  -11.5197  -10.3966 C   0  0  2  0  0  0  0  0  0  0  0  0
  -12.4580  -10.5822  -11.4713 C   0  0  0  0  0  0  0  0  0  0  0  0
  -13.6188  -10.6562  -11.8733 O   0  0  0  0  0  0  0  0  0  0  0  0
  -11.4107  -12.8488  -11.0380 C   0  0  2  0  0  0  0  0  0  0  0  0
  -11.2171  -13.8420  -10.0168 O   0  0  0  0  0  0  0  0  0  0  0  0
  -10.1073  -12.7092  -11.8179 C   0  0  0  0  0  0  0  0  0  0  0  0
  -11.5414   -9.7311  -12.0256 N   0  0  0  0  0  0  0  0  0  0  0  0
  -11.7344   -8.2836  -12.1498 C   0  0  2  0  0  0  0  0  0  0  0  0
  -12.2097   -8.0799  -13.6021 C   0  0  0  0  0  0  0  0  0  0  0  0
  -11.5063   -8.4627  -14.5463 O   0  0  0  0  0  0  0  0  0  0  0  0
  -10.4553   -7.4823  -11.8274 C   0  0  2  0  0  0  0  0  0  0  0  0
   -9.9583   -7.8161  -10.5249 O   0  0  0  0  0  0  0  0  0  0  0  0
  -10.6908   -5.9735  -11.8608 C   0  0  0  0  0  0  0  0  0  0  0  0
  -13.4389   -7.5119  -13.8334 N   0  0  0  0  0  0  0  0  0  0  0  0
  -13.8986   -7.3194  -15.2064 C   0  0  2  0  0  0  0  0  0  0  0  0
  -13.1102   -6.1915  -15.8994 C   0  0  0  0  0  0  0  0  0  0  0  0
  -12.9039   -5.1002  -15.3806 O   0  0  0  0  0  0  0  0  0  0  0  0
  -15.3726   -6.9201  -15.0672 C   0  0  0  0  0  0  0  0  0  0  0  0
  -15.7577   -7.3607  -13.6584 C   0  0  0  0  0  0  0  0  0  0  0  0
  -14.4708   -7.1642  -12.8744 C   0  0  0  0  0  0  0  0  0  0  0  0
  -12.7958   -6.4449  -17.2211 N   0  0  0  0  0  0  0  0  0  0  0  0
  -13.5299   -7.4474  -18.0041 C   0  0  2  0  0  0  0  0  0  0  0  0
  -12.7222   -7.7883  -19.2932 C   0  0  0  0  0  0  0  0  0  0  0  0
  -12.3722   -6.9441  -20.1216 O   0  0  0  0  0  0  0  0  0  0  0  0
  -14.9365   -6.9560  -18.3926 C   0  0  0  0  0  0  0  0  0  0  0  0
  -15.0725   -5.5437  -19.0019 C   0  0  1  0  0  0  0  0  0  0  0  0
  -14.4776   -4.4552  -18.1104 C   0  0  0  0  0  0  0  0  0  0  0  0
  -14.5180   -5.4342  -20.4200 C   0  0  0  0  0  0  0  0  0  0  0  0
  -12.5277   -9.1263  -19.5175 N   0  0  0  0  0  0  0  0  0  0  0  0
  -11.7869   -9.9858  -18.6093 C   0  0  2  0  0  0  0  0  0  0  0  0
  -10.3030   -9.5578  -18.5938 C   0  0  0  0  0  0  0  0  0  0  0  0
   -9.7040   -9.1866  -19.5980 O   0  0  0  0  0  0  0  0  0  0  0  0
  -11.9304  -11.4877  -18.9314 C   0  0  0  0  0  0  0  0  0  0  0  0
  -11.3132  -11.9883  -20.5782 S   0  0  0  0  0  0  0  0  0  0  0  0
   -9.6972   -9.6342  -17.3537 N   0  0  0  0  0  0  0  0  0  0  0  0
   -8.5709  -10.5345  -17.1576 C   0  0  0  0  0  0  0  0  0  0  0  0
   -7.5750  -10.3634  -18.3126 C   0  0  0  0  0  0  0  0  0  0  0  0
   -7.8847   -9.7637  -19.3498 O   0  0  0  0  0  0  0  0  0  0  0  0
   -6.3139  -10.8941  -18.1455 N   0  0  0  0  0  0  0  0  0  0  0  0
   -5.0827  -10.1431  -17.8711 C   0  0  2  0  0  0  0  0  0  0  0  0
   -4.3390   -9.6656  -19.1405 C   0  0  0  0  0  0  0  0  0  0  0  0
   -4.0279  -10.4357  -20.0501 O   0  0  0  0  0  0  0  0  0  0  0  0
   -4.2134  -11.1409  -17.0888 C   0  0  0  0  0  0  0  0  0  0  0  0
   -4.6887  -12.5083  -17.5724 C   0  0  0  0  0  0  0  0  0  0  0  0
   -6.1743  -12.2991  -17.7901 C   0  0  0  0  0  0  0  0  0  0  0  0
   -4.1918   -8.3038  -19.2507 N   0  0  0  0  0  0  0  0  0  0  0  0
   -3.9479   -7.6554  -20.5387 C   0  0  2  0  0  0  0  0  0  0  0  0
   -2.4923   -7.8575  -20.9864 C   0  0  0  0  0  0  0  0  0  0  0  0
   -1.5252   -7.6459  -20.2560 O   0  0  0  0  0  0  0  0  0  0  0  0
   -4.2723   -6.1594  -20.4816 C   0  0  0  0  0  0  0  0  0  0  0  0
   -3.9226   -5.5393  -21.7219 O   0  0  0  0  0  0  0  0  0  0  0  0
   -2.3676   -8.3725  -22.2642 N   0  0  0  0  0  0  0  0  0  0  0  0
   -1.0668   -8.6773  -22.8844 C   0  0  2  0  0  0  0  0  0  0  0  0
   -0.6080   -7.4186  -23.6740 C   0  0  0  0  0  0  0  0  0  0  0  0
   -1.3606   -6.5274  -24.0489 O   0  0  0  0  0  0  0  0  0  0  0  0
   -1.1588   -9.9758  -23.7054 C   0  0  0  0  0  0  0  0  0  0  0  0
   -2.1103   -9.9844  -24.9141 C   0  0  0  0  0  0  0  0  0  0  0  0
   -1.4363  -10.0785  -26.2862 C   0  0  0  0  0  0  0  0  0  0  0  0
   -0.2958  -10.9798  -26.1818 N   0  0  0  0  0  0  0  0  0  0  0  0
    0.1005  -11.7561  -27.2161 C   0  0  0  0  0  0  0  0  0  0  0  0
    0.9182  -12.7411  -27.1494 N   0  0  0  0  0  0  0  0  0  0  0  0
   -0.4778  -11.3691  -28.3701 N   0  0  0  0  0  0  0  0  0  0  0  0
    0.7208   -7.4601  -24.0611 N   0  0  0  0  0  0  0  0  0  0  0  0
    1.4739   -6.2468  -24.4006 C   0  0  2  0  0  0  0  0  0  0  0  0
    1.3176   -5.9646  -25.9078 C   0  0  0  0  0  0  0  0  0  0  0  0
    0.5049   -5.1758  -26.3758 O   0  0  0  0  0  0  0  0  0  0  0  0
    2.9369   -6.3618  -23.9952 C   0  0  0  0  0  0  0  0  0  0  0  0
    2.1238   -6.7726  -26.6872 N   0  0  0  0  0  0  0  0  0  0  0  0
    1.8264   -7.0165  -28.1071 C   0  0  2  0  0  0  0  0  0  0  0  0
    2.8913   -7.8915  -28.7878 C   0  0  0  0  0  0  0  0  0  0  0  0
    4.0800   -7.8282  -28.4909 O   0  0  0  0  0  0  0  0  0  0  0  0
    1.7383   -5.6754  -28.8472 C   0  0  0  0  0  0  0  0  0  0  0  0
    0.4573   -5.0559  -28.6401 O   0  0  0  0  0  0  0  0  0  0  0  0
    2.3866   -8.8737  -29.6115 N   0  0  0  0  0  0  0  0  0  0  0  0
    2.9486  -10.2273  -29.6838 C   0  0  2  0  0  0  0  0  0  0  0  0
    4.0027  -10.0980  -30.8075 C   0  0  0  0  0  0  0  0  0  0  0  0
    4.6929  -11.0650  -31.1463 O   0  0  0  0  0  0  0  0  0  0  0  0
    1.8436  -11.2625  -30.0220 C   0  0  2  0  0  0  0  0  0  0  0  0
    2.4677  -12.4996  -30.7163 C   0  0  0  0  0  0  0  0  0  0  0  0
    0.7149  -10.6532  -30.8700 C   0  0  0  0  0  0  0  0  0  0  0  0
    3.0190  -13.5464  -29.7532 C   0  0  0  0  0  0  0  0  0  0  0  0
    4.1034   -8.8648  -31.3915 N   0  0  0  0  0  0  0  0  0  0  0  0
    4.9200   -8.6383  -32.5777 C   0  0  2  0  0  0  0  0  0  0  0  0
    6.0740   -7.7031  -32.1813 C   0  0  0  0  0  0  0  0  0  0  0  0
    6.6541   -7.0001  -33.0095 O   0  0  0  0  0  0  0  0  0  0  0  0
    4.1124   -8.1417  -33.7885 C   0  0  0  0  0  0  0  0  0  0  0  0
    2.7659   -8.8425  -34.0776 C   0  0  1  0  0  0  0  0  0  0  0  0
    2.9375  -10.3575  -33.9331 C   0  0  0  0  0  0  0  0  0  0  0  0
    1.6267   -8.3749  -33.1687 C   0  0  0  0  0  0  0  0  0  0  0  0
    6.4008   -7.7144  -30.8432 N   0  0  0  0  0  0  0  0  0  0  0  0
    7.5371   -6.9091  -30.3733 C   0  0  2  0  0  0  0  0  0  0  0  0
    8.8347   -7.7369  -30.2796 C   0  0  0  0  0  0  0  0  0  0  0  0
    9.6861   -7.7693  -31.1640 O   0  0  0  0  0  0  0  0  0  0  0  0
    7.2081   -6.2868  -29.0123 C   0  0  0  0  0  0  0  0  0  0  0  0
    6.7907   -7.3226  -28.1060 O   0  0  0  0  0  0  0  0  0  0  0  0
    8.8908   -8.5533  -29.1702 N   0  0  0  0  0  0  0  0  0  0  0  0
    9.7123   -8.2357  -28.0149 C   0  0  0  0  0  0  0  0  0  0  0  0
   10.6740   -9.3591  -27.6642 C   0  0  0  0  0  0  0  0  0  0  0  0
   11.3979   -9.8216  -28.7125 O   0  0  0  0  0  0  0  0  0  0  0  0
   10.8414   -9.8405  -26.5523 O   0  0  0  0  0  0  0  0  0  0  0  0
    1.1647  -12.8872  -26.1649 H   0  0  0  0  0  0  0  0  0  0  0  0
  1  2  2  0
  1  3  1  0
  1 10  1  0
  3  4  2  0
  3  9  1  0
  4  5  1  0
  4  6  1  0
  5  7  2  0
  7  8  1  0
  8  9  2  0
 10 11  1  0
 11 12  1  0
 11 14  1  1
 12 13  2  0
 12 15  1  0
 16 15  1  1
 16 17  1  0
 16 19  1  0
 17 18  2  0
 17 22  1  0
 19 20  1  0
 19 21  1  1
 23 22  1  6
 23 24  1  0
 23 26  1  0
 24 25  2  0
 24 29  1  0
 26 27  1  0
 26 28  1  1
 29 30  1  0
 29 35  1  0
 30 31  1  1
 30 33  1  0
 31 32  2  0
 31 36  1  0
 33 34  1  0
 34 35  1  0
 36 37  1  0
 37 38  1  0
 37 40  1  6
 38 39  2  0
 38 44  1  0
 40 41  1  0
 41 42  1  1
 41 43  1  0
 44 45  1  0
 45 46  1  0
 45 48  1  6
 46 47  2  0
 46 50  1  0
 48 49  1  0
 50 51  1  0
 51 52  1  0
 52 53  2  0
 52 54  1  0
 54 55  1  0
 54 60  1  0
 55 56  1  6
 55 58  1  0
 56 57  2  0
 56 61  1  0
 58 59  1  0
 59 60  1  0
 61 62  1  0
 62 63  1  0
 62 65  1  1
 63 64  2  0
 63 67  1  0
 65 66  1  0
 67 68  1  0
 68 69  1  0
 68 71  1  6
 69 70  2  0
 69 78  1  0
 71 72  1  0
 72 73  1  0
 73 74  1  0
 74 75  1  0
 75 76  2  0
 75 77  1  0
 78 79  1  0
 79 80  1  0
 79 82  1  6
 80 81  2  0
 80 83  1  0
 83 84  1  0
 84 85  1  0
 84 87  1  6
 85 86  2  0
 85 89  1  0
 87 88  1  0
 90 89  1  6
 90 91  1  0
 90 93  1  0
 91 92  2  0
 91 97  1  0
 93 94  1  0
 93 95  1  6
 94 96  1  0
 97 98  1  0
 98 99  1  0
 98101  1  6
 99100  2  0
 99105  1  0
101102  1  0
102103  1  1
102104  1  0
105106  1  0
106107  1  0
106109  1  1
107108  2  0
107111  1  0
109110  1  0
111112  1  0
112113  1  0
113114  1  0
113115  2  0
 76116  1  0
M  END
$$$$
