
     RDKit          3D

116118  0  0  0  0  0  0  0  0999 V2000
    9.9206   -4.3125  -14.5886 C   0  0  0  0  0  0  0  0  0  0  0  0
    9.7788   -3.1416  -14.9437 O   0  0  0  0  0  0  0  0  0  0  0  0
   10.8970   -4.6630  -13.5199 C   0  0  0  0  0  0  0  0  0  0  0  0
   11.2402   -3.7189  -12.5316 C   0  0  0  0  0  0  0  0  0  0  0  0
   12.2250   -4.0586  -11.5937 C   0  0  0  0  0  0  0  0  0  0  0  0
   10.7842   -2.3827  -12.5748 N   0  0  0  0  0  0  0  0  0  0  0  0
   12.7939   -5.3380  -11.5793 C   0  0  0  0  0  0  0  0  0  0  0  0
   12.3960   -6.2920  -12.5123 C   0  0  0  0  0  0  0  0  0  0  0  0
   11.4534   -5.9547  -13.4793 C   0  0  0  0  0  0  0  0  0  0  0  0
    9.2647   -5.3799  -15.1834 N   0  0  0  0  0  0  0  0  0  0  0  0
    8.2669   -5.1593  -16.2380 C   0  0  2  0  0  0  0  0  0  0  0  0
    6.9663   -5.9571  -16.0155 C   0  0  0  0  0  0  0  0  0  0  0  0
    6.9451   -7.1866  -16.0062 O   0  0  0  0  0  0  0  0  0  0  0  0
    8.8611   -5.5390  -17.5889 C   0  0  0  0  0  0  0  0  0  0  0  0
    5.8583   -5.2145  -15.6758 N   0  0  0  0  0  0  0  0  0  0  0  0
    4.5618   -5.8324  -15.3387 C   0  0  2  0  0  0  0  0  0  0  0  0
    3.4396   -5.3021  -16.2569 C   0  0  0  0  0  0  0  0  0  0  0  0
    3.3394   -4.1234  -16.5963 O   0  0  0  0  0  0  0  0  0  0  0  0
    4.1946   -5.6012  -13.8563 C   0  0  2  0  0  0  0  0  0  0  0  0
    4.1092   -6.8629  -13.1725 O   0  0  0  0  0  0  0  0  0  0  0  0
    2.8629   -4.8775  -13.6860 C   0  0  0  0  0  0  0  0  0  0  0  0
    2.4934   -6.2395  -16.5693 N   0  0  0  0  0  0  0  0  0  0  0  0
    1.8553   -6.3564  -17.8834 C   0  0  2  0  0  0  0  0  0  0  0  0
    0.3451   -6.2570  -17.5903 C   0  0  0  0  0  0  0  0  0  0  0  0
   -0.4499   -5.9962  -18.5029 O   0  0  0  0  0  0  0  0  0  0  0  0
    2.2319   -7.6626  -18.6145 C   0  0  2  0  0  0  0  0  0  0  0  0
    2.8666   -7.3810  -19.8685 O   0  0  0  0  0  0  0  0  0  0  0  0
    1.0152   -8.5414  -18.8980 C   0  0  0  0  0  0  0  0  0  0  0  0
   -0.1102   -6.5054  -16.3183 N   0  0  0  0  0  0  0  0  0  0  0  0
   -0.5284   -7.8561  -15.9518 C   0  0  2  0  0  0  0  0  0  0  0  0
   -1.8603   -8.2254  -16.6329 C   0  0  0  0  0  0  0  0  0  0  0  0
   -2.6502   -7.3906  -17.0591 O   0  0  0  0  0  0  0  0  0  0  0  0
   -0.7142   -7.8030  -14.4306 C   0  0  0  0  0  0  0  0  0  0  0  0
    0.0514   -6.5578  -13.9942 C   0  0  0  0  0  0  0  0  0  0  0  0
   -0.1276   -5.6151  -15.1726 C   0  0  0  0  0  0  0  0  0  0  0  0
   -2.1755   -9.5698  -16.5767 N   0  0  0  0  0  0  0  0  0  0  0  0
   -1.9867  -10.4497  -17.7373 C   0  0  2  0  0  0  0  0  0  0  0  0
   -2.9300   -9.9918  -18.8910 C   0  0  0  0  0  0  0  0  0  0  0  0
   -2.7960  -10.3497  -20.0638 O   0  0  0  0  0  0  0  0  0  0  0  0
   -2.2712  -11.9234  -17.3936 C   0  0  0  0  0  0  0  0  0  0  0  0
   -3.2083  -12.2265  -16.2043 C   0  0  1  0  0  0  0  0  0  0  0  0
   -4.3225  -13.2076  -16.5644 C   0  0  0  0  0  0  0  0  0  0  0  0
   -2.4727  -12.6915  -14.9501 C   0  0  0  0  0  0  0  0  0  0  0  0
   -3.8614   -9.0504  -18.5380 N   0  0  0  0  0  0  0  0  0  0  0  0
   -4.8780   -8.5555  -19.4512 C   0  0  2  0  0  0  0  0  0  0  0  0
   -6.1610   -9.4015  -19.2977 C   0  0  0  0  0  0  0  0  0  0  0  0
   -6.2360  -10.5727  -19.6553 O   0  0  0  0  0  0  0  0  0  0  0  0
   -4.4128   -8.5101  -20.9214 C   0  0  0  0  0  0  0  0  0  0  0  0
   -5.5799   -7.7078  -22.0779 S   0  0  0  0  0  0  0  0  0  0  0  0
   -7.2268   -8.7288  -18.7302 N   0  0  0  0  0  0  0  0  0  0  0  0
   -7.9800   -7.7720  -19.5268 C   0  0  0  0  0  0  0  0  0  0  0  0
   -9.3797   -8.3344  -19.8092 C   0  0  0  0  0  0  0  0  0  0  0  0
  -10.2257   -8.4431  -18.9128 O   0  0  0  0  0  0  0  0  0  0  0  0
   -9.6642   -8.7036  -21.1064 N   0  0  0  0  0  0  0  0  0  0  0  0
  -10.3726   -7.8951  -22.1063 C   0  0  2  0  0  0  0  0  0  0  0  0
  -11.9093   -8.0688  -22.0840 C   0  0  0  0  0  0  0  0  0  0  0  0
  -12.5502   -8.1260  -21.0337 O   0  0  0  0  0  0  0  0  0  0  0  0
   -9.8007   -8.3879  -23.4455 C   0  0  0  0  0  0  0  0  0  0  0  0
   -9.3785   -9.8273  -23.1634 C   0  0  0  0  0  0  0  0  0  0  0  0
   -8.8903   -9.7680  -21.7294 C   0  0  0  0  0  0  0  0  0  0  0  0
  -12.5207   -7.9966  -23.3125 N   0  0  0  0  0  0  0  0  0  0  0  0
  -13.8719   -7.4601  -23.4721 C   0  0  2  0  0  0  0  0  0  0  0  0
  -14.2647   -7.3989  -24.9560 C   0  0  0  0  0  0  0  0  0  0  0  0
  -13.8983   -6.5032  -25.7156 O   0  0  0  0  0  0  0  0  0  0  0  0
  -13.9992   -6.0698  -22.8418 C   0  0  0  0  0  0  0  0  0  0  0  0
  -13.9923   -5.0707  -23.8651 O   0  0  0  0  0  0  0  0  0  0  0  0
  -15.0081   -8.4850  -25.3819 N   0  0  0  0  0  0  0  0  0  0  0  0
  -16.4624   -8.4243  -25.6082 C   0  0  2  0  0  0  0  0  0  0  0  0
  -16.9640   -9.8714  -25.8782 C   0  0  0  0  0  0  0  0  0  0  0  0
  -17.9744  -10.3549  -25.3817 O   0  0  0  0  0  0  0  0  0  0  0  0
  -16.7887   -7.3958  -26.7056 C   0  0  0  0  0  0  0  0  0  0  0  0
  -17.2156   -7.9375  -28.0806 C   0  0  0  0  0  0  0  0  0  0  0  0
  -18.7193   -8.1616  -28.2657 C   0  0  0  0  0  0  0  0  0  0  0  0
  -18.9880   -8.3555  -29.6850 N   0  0  0  0  0  0  0  0  0  0  0  0
  -20.0981   -8.9920  -30.1231 C   0  0  0  0  0  0  0  0  0  0  0  0
  -20.3410   -9.3369  -31.3337 N   0  0  0  0  0  0  0  0  0  0  0  0
  -20.9560   -9.2347  -29.1127 N   0  0  0  0  0  0  0  0  0  0  0  0
  -16.0786  -10.6366  -26.6183 N   0  0  0  0  0  0  0  0  0  0  0  0
  -16.4087  -11.9927  -27.0727 C   0  0  2  0  0  0  0  0  0  0  0  0
  -17.9193  -12.0682  -27.3703 C   0  0  0  0  0  0  0  0  0  0  0  0
  -18.4486  -11.5670  -28.3554 O   0  0  0  0  0  0  0  0  0  0  0  0
  -15.9783  -13.0449  -26.0600 C   0  0  0  0  0  0  0  0  0  0  0  0
  -18.6325  -12.6756  -26.3542 N   0  0  0  0  0  0  0  0  0  0  0  0
  -20.0454  -13.0492  -26.5223 C   0  0  2  0  0  0  0  0  0  0  0  0
  -20.9230  -11.8559  -26.9333 C   0  0  0  0  0  0  0  0  0  0  0  0
  -20.6969  -10.7126  -26.5499 O   0  0  0  0  0  0  0  0  0  0  0  0
  -20.5796  -13.6284  -25.2058 C   0  0  0  0  0  0  0  0  0  0  0  0
  -19.6398  -14.5523  -24.6305 O   0  0  0  0  0  0  0  0  0  0  0  0
  -21.8572  -12.1382  -27.9056 N   0  0  0  0  0  0  0  0  0  0  0  0
  -22.8543  -11.1655  -28.3669 C   0  0  2  0  0  0  0  0  0  0  0  0
  -24.1814  -11.9461  -28.2251 C   0  0  0  0  0  0  0  0  0  0  0  0
  -24.2288  -13.1629  -28.4330 O   0  0  0  0  0  0  0  0  0  0  0  0
  -22.5688  -10.7400  -29.8313 C   0  0  2  0  0  0  0  0  0  0  0  0
  -21.0774  -10.3497  -29.9911 C   0  0  0  0  0  0  0  0  0  0  0  0
  -23.4981   -9.6083  -30.3004 C   0  0  0  0  0  0  0  0  0  0  0  0
  -20.7009   -9.0296  -29.3259 C   0  0  0  0  0  0  0  0  0  0  0  0
  -25.2705  -11.2075  -27.8506 N   0  0  0  0  0  0  0  0  0  0  0  0
  -26.6177  -11.7644  -27.8546 C   0  0  2  0  0  0  0  0  0  0  0  0
  -27.2114  -11.5461  -29.2558 C   0  0  0  0  0  0  0  0  0  0  0  0
  -27.3915  -10.4182  -29.7163 O   0  0  0  0  0  0  0  0  0  0  0  0
  -27.5039  -11.2260  -26.7190 C   0  0  0  0  0  0  0  0  0  0  0  0
  -26.9076  -11.2282  -25.2935 C   0  0  1  0  0  0  0  0  0  0  0  0
  -26.7824  -12.6708  -24.7947 C   0  0  0  0  0  0  0  0  0  0  0  0
  -25.5424  -10.5425  -25.2015 C   0  0  0  0  0  0  0  0  0  0  0  0
  -27.5198  -12.6983  -29.9449 N   0  0  0  0  0  0  0  0  0  0  0  0
  -28.5087  -12.6441  -31.0311 C   0  0  2  0  0  0  0  0  0  0  0  0
  -29.7428  -11.8019  -30.6498 C   0  0  0  0  0  0  0  0  0  0  0  0
  -30.2004  -11.7425  -29.5117 O   0  0  0  0  0  0  0  0  0  0  0  0
  -28.9368  -14.0635  -31.4181 C   0  0  0  0  0  0  0  0  0  0  0  0
  -30.3675  -14.1709  -31.3174 O   0  0  0  0  0  0  0  0  0  0  0  0
  -30.3765  -11.2286  -31.7315 N   0  0  0  0  0  0  0  0  0  0  0  0
  -31.5814  -10.4293  -31.5898 C   0  0  0  0  0  0  0  0  0  0  0  0
  -32.0221   -9.8112  -32.9065 C   0  0  0  0  0  0  0  0  0  0  0  0
  -32.6685  -10.6665  -33.7357 O   0  0  0  0  0  0  0  0  0  0  0  0
  -31.8543   -8.6483  -33.2459 O   0  0  0  0  0  0  0  0  0  0  0  0
  -19.4464   -9.5127  -31.8028 H   0  0  0  0  0  0  0  0  0  0  0  0
  1  2  2  0
  1  3  1  0
  1 10  1  0
  3  4  2  0
  3  9  1  0
  4  5  1  0
  4  6  1  0
  5  7  2  0
  7  8  1  0
  8  9  2  0
 10 11  1  0
 11 12  1  0
 11 14  1  6
 12 13  2  0
 12 15  1  0
 16 15  1  6
 16 17  1  0
 16 19  1  0
 17 18  2  0
 17 22  1  0
 19 20  1  0
 19 21  1  6
 23 22  1  1
 23 24  1  0
 23 26  1  0
 24 25  2  0
 24 29  1  0
 26 27  1  0
 26 28  1  6
 29 30  1  0
 29 35  1  0
 30 31  1  6
 30 33  1  0
 31 32  2  0
 31 36  1  0
 33 34  1  0
 34 35  1  0
 36 37  1  0
 37 38  1  0
 37 40  1  1
 38 39  2  0
 38 44  1  0
 40 41  1  0
 41 42  1  6
 41 43  1  0
 44 45  1  0
 45 46  1  0
 45 48  1  6
 46 47  2  0
 46 50  1  0
 48 49  1  0
 50 51  1  0
 51 52  1  0
 52 53  2  0
 52 54  1  0
 54 55  1  0
 54 60  1  0
 55 56  1  6
 55 58  1  0
 56 57  2  0
 56 61  1  0
 58 59  1  0
 59 60  1  0
 61 62  1  0
 62 63  1  0
 62 65  1  6
 63 64  2  0
 63 67  1  0
 65 66  1  0
 67 68  1  0
 68 69  1  0
 68 71  1  6
 69 70  2  0
 69 78  1  0
 71 72  1  0
 72 73  1  0
 73 74  1  0
 74 75  1  0
 75 76  2  0
 75 77  1  0
 78 79  1  0
 79 80  1  0
 79 82  1  1
 80 81  2  0
 80 83  1  0
 83 84  1  0
 84 85  1  0
 84 87  1  1
 85 86  2  0
 85 89  1  0
 87 88  1  0
 90 89  1  6
 90 91  1  0
 90 93  1  0
 91 92  2  0
 91 97  1  0
 93 94  1  0
 93 95  1  1
 94 96  1  0
 97 98  1  0
 98 99  1  0
 98101  1  1
 99100  2  0
 99105  1  0
101102  1  0
102103  1  6
102104  1  0
105106  1  0
106107  1  0
106109  1  1
107108  2  0
107111  1  0
109110  1  0
111112  1  0
112113  1  0
113114  1  0
113115  2  0
 76116  1  0
M  END
$$$$
