
     RDKit          3D

116118  0  0  0  0  0  0  0  0999 V2000
  -17.1182  -12.1242   -5.3991 C   0  0  0  0  0  0  0  0  0  0  0  0
  -18.0385  -12.9183   -5.5985 O   0  0  0  0  0  0  0  0  0  0  0  0
  -17.0735  -11.3218   -4.1451 C   0  0  0  0  0  0  0  0  0  0  0  0
  -17.8831  -11.6724   -3.0464 C   0  0  0  0  0  0  0  0  0  0  0  0
  -17.8744  -10.8434   -1.9161 C   0  0  0  0  0  0  0  0  0  0  0  0
  -18.8482  -12.7012   -3.1188 N   0  0  0  0  0  0  0  0  0  0  0  0
  -17.0154   -9.7402   -1.8397 C   0  0  0  0  0  0  0  0  0  0  0  0
  -16.1625   -9.4419   -2.8993 C   0  0  0  0  0  0  0  0  0  0  0  0
  -16.1935  -10.2283   -4.0474 C   0  0  0  0  0  0  0  0  0  0  0  0
  -16.1194  -11.8588   -6.3239 N   0  0  0  0  0  0  0  0  0  0  0  0
  -16.0503  -12.5957   -7.5922 C   0  0  2  0  0  0  0  0  0  0  0  0
  -14.8614  -12.1672   -8.4757 C   0  0  0  0  0  0  0  0  0  0  0  0
  -14.5994  -10.9857   -8.6942 O   0  0  0  0  0  0  0  0  0  0  0  0
  -17.3467  -12.3967   -8.3680 C   0  0  0  0  0  0  0  0  0  0  0  0
  -14.0202  -13.1787   -8.8804 N   0  0  0  0  0  0  0  0  0  0  0  0
  -12.9435  -13.7066   -8.0213 C   0  0  2  0  0  0  0  0  0  0  0  0
  -11.5802  -13.0873   -8.3975 C   0  0  0  0  0  0  0  0  0  0  0  0
  -10.6323  -13.0057   -7.6170 O   0  0  0  0  0  0  0  0  0  0  0  0
  -12.8690  -15.2479   -8.0921 C   0  0  2  0  0  0  0  0  0  0  0  0
  -11.5070  -15.6615   -8.2938 O   0  0  0  0  0  0  0  0  0  0  0  0
  -13.7135  -15.8264   -9.2229 C   0  0  0  0  0  0  0  0  0  0  0  0
  -11.5540  -12.5286   -9.6461 N   0  0  0  0  0  0  0  0  0  0  0  0
  -10.3599  -11.9377  -10.2567 C   0  0  2  0  0  0  0  0  0  0  0  0
  -10.8984  -10.7724  -11.1104 C   0  0  0  0  0  0  0  0  0  0  0  0
  -12.0572  -10.8034  -11.5451 O   0  0  0  0  0  0  0  0  0  0  0  0
   -9.5500  -12.9555  -11.0876 C   0  0  2  0  0  0  0  0  0  0  0  0
  -10.3923  -13.6293  -12.0317 O   0  0  0  0  0  0  0  0  0  0  0  0
   -8.8864  -14.0201  -10.2163 C   0  0  0  0  0  0  0  0  0  0  0  0
  -10.0948   -9.6830  -11.3436 N   0  0  0  0  0  0  0  0  0  0  0  0
  -10.4129   -8.7724  -12.4405 C   0  0  2  0  0  0  0  0  0  0  0  0
  -10.1266   -9.4299  -13.8043 C   0  0  0  0  0  0  0  0  0  0  0  0
   -9.2086  -10.2211  -13.9883 O   0  0  0  0  0  0  0  0  0  0  0  0
   -9.4800   -7.5739  -12.2298 C   0  0  0  0  0  0  0  0  0  0  0  0
   -9.0298   -7.6892  -10.7768 C   0  0  0  0  0  0  0  0  0  0  0  0
   -8.9832   -9.1913  -10.5510 C   0  0  0  0  0  0  0  0  0  0  0  0
  -10.8828   -8.9305  -14.8476 N   0  0  0  0  0  0  0  0  0  0  0  0
  -10.7730   -9.4809  -16.2048 C   0  0  2  0  0  0  0  0  0  0  0  0
   -9.8245   -8.5794  -17.0523 C   0  0  0  0  0  0  0  0  0  0  0  0
   -9.4789   -7.4451  -16.7129 O   0  0  0  0  0  0  0  0  0  0  0  0
  -12.1445   -9.5798  -16.8976 C   0  0  0  0  0  0  0  0  0  0  0  0
  -13.1620  -10.6076  -16.3565 C   0  0  1  0  0  0  0  0  0  0  0  0
  -12.4953  -11.8706  -15.8144 C   0  0  0  0  0  0  0  0  0  0  0  0
  -14.1257  -10.0278  -15.3242 C   0  0  0  0  0  0  0  0  0  0  0  0
   -9.4904   -9.0855  -18.2814 N   0  0  0  0  0  0  0  0  0  0  0  0
   -8.5499   -8.4370  -19.1799 C   0  0  2  0  0  0  0  0  0  0  0  0
   -8.5260   -9.1903  -20.5281 C   0  0  0  0  0  0  0  0  0  0  0  0
   -8.1682  -10.3590  -20.6343 O   0  0  0  0  0  0  0  0  0  0  0  0
   -7.1305   -8.3036  -18.5907 C   0  0  0  0  0  0  0  0  0  0  0  0
   -6.5119   -9.7872  -17.7191 S   0  0  0  0  0  0  0  0  0  0  0  0
   -8.9337   -8.4371  -21.6129 N   0  0  0  0  0  0  0  0  0  0  0  0
   -8.6489   -8.9046  -22.9612 C   0  0  0  0  0  0  0  0  0  0  0  0
   -7.2073   -9.4269  -23.0252 C   0  0  0  0  0  0  0  0  0  0  0  0
   -6.7770  -10.2402  -22.1978 O   0  0  0  0  0  0  0  0  0  0  0  0
   -6.4106   -8.9637  -24.0503 N   0  0  0  0  0  0  0  0  0  0  0  0
   -4.9977   -9.2944  -24.2723 C   0  0  2  0  0  0  0  0  0  0  0  0
   -4.0081   -8.3575  -23.5407 C   0  0  0  0  0  0  0  0  0  0  0  0
   -4.1532   -7.1346  -23.5188 O   0  0  0  0  0  0  0  0  0  0  0  0
   -4.8274   -9.1641  -25.7946 C   0  0  0  0  0  0  0  0  0  0  0  0
   -5.8877   -8.1448  -26.2023 C   0  0  0  0  0  0  0  0  0  0  0  0
   -7.0356   -8.4463  -25.2592 C   0  0  0  0  0  0  0  0  0  0  0  0
   -3.0503   -8.9954  -22.7897 N   0  0  0  0  0  0  0  0  0  0  0  0
   -1.6777   -9.1594  -23.2670 C   0  0  2  0  0  0  0  0  0  0  0  0
   -1.3006   -8.0367  -24.2454 C   0  0  0  0  0  0  0  0  0  0  0  0
   -1.8972   -7.8324  -25.3018 O   0  0  0  0  0  0  0  0  0  0  0  0
   -1.4779  -10.5226  -23.9365 C   0  0  0  0  0  0  0  0  0  0  0  0
   -0.1197  -10.9437  -23.7842 O   0  0  0  0  0  0  0  0  0  0  0  0
   -0.2744   -7.2255  -23.7956 N   0  0  0  0  0  0  0  0  0  0  0  0
    0.3092   -6.1435  -24.6071 C   0  0  2  0  0  0  0  0  0  0  0  0
    1.7180   -6.6057  -25.0764 C   0  0  0  0  0  0  0  0  0  0  0  0
    2.6163   -6.9559  -24.3204 O   0  0  0  0  0  0  0  0  0  0  0  0
    0.2740   -4.8157  -23.8296 C   0  0  0  0  0  0  0  0  0  0  0  0
   -0.5822   -4.7643  -22.5527 C   0  0  0  0  0  0  0  0  0  0  0  0
   -0.5740   -3.4284  -21.8038 C   0  0  0  0  0  0  0  0  0  0  0  0
   -1.0896   -2.3951  -22.6929 N   0  0  0  0  0  0  0  0  0  0  0  0
   -1.3337   -1.1363  -22.2622 C   0  0  0  0  0  0  0  0  0  0  0  0
   -1.1899   -0.0634  -22.9490 N   0  0  0  0  0  0  0  0  0  0  0  0
   -1.7609   -1.1289  -20.9842 N   0  0  0  0  0  0  0  0  0  0  0  0
    1.9321   -6.4412  -26.4345 N   0  0  0  0  0  0  0  0  0  0  0  0
    2.0870   -7.5822  -27.3448 C   0  0  2  0  0  0  0  0  0  0  0  0
    3.5561   -7.6611  -27.8047 C   0  0  0  0  0  0  0  0  0  0  0  0
    4.4705   -7.0319  -27.2855 O   0  0  0  0  0  0  0  0  0  0  0  0
    1.1288   -7.4937  -28.5246 C   0  0  0  0  0  0  0  0  0  0  0  0
    3.7194   -8.4414  -28.9337 N   0  0  0  0  0  0  0  0  0  0  0  0
    5.0380   -8.9639  -29.3242 C   0  0  2  0  0  0  0  0  0  0  0  0
    5.0426   -9.5389  -30.7498 C   0  0  0  0  0  0  0  0  0  0  0  0
    6.0454  -10.0347  -31.2539 O   0  0  0  0  0  0  0  0  0  0  0  0
    5.4609  -10.0651  -28.3432 C   0  0  0  0  0  0  0  0  0  0  0  0
    6.8608   -9.9659  -28.0297 O   0  0  0  0  0  0  0  0  0  0  0  0
    3.8001   -9.6248  -31.3384 N   0  0  0  0  0  0  0  0  0  0  0  0
    3.6055   -9.9192  -32.7627 C   0  0  2  0  0  0  0  0  0  0  0  0
    4.9970   -9.6175  -33.3653 C   0  0  0  0  0  0  0  0  0  0  0  0
    5.4457   -8.4666  -33.3845 O   0  0  0  0  0  0  0  0  0  0  0  0
    2.4913   -9.0208  -33.3613 C   0  0  2  0  0  0  0  0  0  0  0  0
    2.0969   -9.5297  -34.7710 C   0  0  0  0  0  0  0  0  0  0  0  0
    2.8941   -7.5372  -33.3929 C   0  0  0  0  0  0  0  0  0  0  0  0
    0.5952   -9.5291  -35.0395 C   0  0  0  0  0  0  0  0  0  0  0  0
    5.6819  -10.6964  -33.8540 N   0  0  0  0  0  0  0  0  0  0  0  0
    5.7136  -11.9724  -33.1498 C   0  0  2  0  0  0  0  0  0  0  0  0
    6.8925  -12.7866  -33.7074 C   0  0  0  0  0  0  0  0  0  0  0  0
    6.8278  -13.3626  -34.7940 O   0  0  0  0  0  0  0  0  0  0  0  0
    4.3726  -12.7240  -33.1884 C   0  0  0  0  0  0  0  0  0  0  0  0
    3.3210  -12.2445  -34.2140 C   0  0  1  0  0  0  0  0  0  0  0  0
    2.1601  -13.2422  -34.2595 C   0  0  0  0  0  0  0  0  0  0  0  0
    2.7733  -10.8462  -33.9186 C   0  0  0  0  0  0  0  0  0  0  0  0
    8.0114  -12.8180  -32.9046 N   0  0  0  0  0  0  0  0  0  0  0  0
    9.3334  -12.5852  -33.5036 C   0  0  2  0  0  0  0  0  0  0  0  0
    9.3835  -13.0169  -34.9831 C   0  0  0  0  0  0  0  0  0  0  0  0
    9.4783  -12.2274  -35.9190 O   0  0  0  0  0  0  0  0  0  0  0  0
   10.4078  -13.3260  -32.7005 C   0  0  0  0  0  0  0  0  0  0  0  0
   11.6939  -13.0904  -33.2997 O   0  0  0  0  0  0  0  0  0  0  0  0
    9.1695  -14.3654  -35.1731 N   0  0  0  0  0  0  0  0  0  0  0  0
    9.2252  -14.9813  -36.4877 C   0  0  0  0  0  0  0  0  0  0  0  0
   10.3412  -14.4092  -37.3463 C   0  0  0  0  0  0  0  0  0  0  0  0
   11.2744  -15.3161  -37.7252 O   0  0  0  0  0  0  0  0  0  0  0  0
   10.4416  -13.2467  -37.7126 O   0  0  0  0  0  0  0  0  0  0  0  0
   -0.2317    0.2765  -22.8159 H   0  0  0  0  0  0  0  0  0  0  0  0
  1  2  2  0
  1  3  1  0
  1 10  1  0
  3  4  2  0
  3  9  1  0
  4  5  1  0
  4  6  1  0
  5  7  2  0
  7  8  1  0
  8  9  2  0
 10 11  1  0
 11 12  1  0
 11 14  1  6
 12 13  2  0
 12 15  1  0
 16 15  1  6
 16 17  1  0
 16 19  1  0
 17 18  2  0
 17 22  1  0
 19 20  1  0
 19 21  1  6
 23 22  1  6
 23 24  1  0
 23 26  1  0
 24 25  2  0
 24 29  1  0
 26 27  1  0
 26 28  1  1
 29 30  1  0
 29 35  1  0
 30 31  1  6
 30 33  1  0
 31 32  2  0
 31 36  1  0
 33 34  1  0
 34 35  1  0
 36 37  1  0
 37 38  1  0
 37 40  1  6
 38 39  2  0
 38 44  1  0
 40 41  1  0
 41 42  1  1
 41 43  1  0
 44 45  1  0
 45 46  1  0
 45 48  1  1
 46 47  2  0
 46 50  1  0
 48 49  1  0
 50 51  1  0
 51 52  1  0
 52 53  2  0
 52 54  1  0
 54 55  1  0
 54 60  1  0
 55 56  1  1
 55 58  1  0
 56 57  2  0
 56 61  1  0
 58 59  1  0
 59 60  1  0
 61 62  1  0
 62 63  1  0
 62 65  1  6
 63 64  2  0
 63 67  1  0
 65 66  1  0
 67 68  1  0
 68 69  1  0
 68 71  1  1
 69 70  2  0
 69 78  1  0
 71 72  1  0
 72 73  1  0
 73 74  1  0
 74 75  1  0
 75 76  2  0
 75 77  1  0
 78 79  1  0
 79 80  1  0
 79 82  1  6
 80 81  2  0
 80 83  1  0
 83 84  1  0
 84 85  1  0
 84 87  1  1
 85 86  2  0
 85 89  1  0
 87 88  1  0
 90 89  1  1
 90 91  1  0
 90 93  1  0
 91 92  2  0
 91 97  1  0
 93 94  1  0
 93 95  1  6
 94 96  1  0
 97 98  1  0
 98 99  1  0
 98101  1  6
 99100  2  0
 99105  1  0
101102  1  0
102103  1  1
102104  1  0
105106  1  0
106107  1  0
106109  1  1
107108  2  0
107111  1  0
109110  1  0
111112  1  0
112113  1  0
113114  1  0
113115  2  0
 76116  1  0
M  END
$$$$
