
     RDKit          3D

116118  0  0  0  0  0  0  0  0999 V2000
    9.5885   -8.4020  -15.1073 C   0  0  0  0  0  0  0  0  0  0  0  0
    8.6541   -7.7894  -14.5887 O   0  0  0  0  0  0  0  0  0  0  0  0
   10.9956   -7.9834  -14.8565 C   0  0  0  0  0  0  0  0  0  0  0  0
   11.2804   -6.6809  -14.4002 C   0  0  0  0  0  0  0  0  0  0  0  0
   12.6216   -6.2994  -14.2570 C   0  0  0  0  0  0  0  0  0  0  0  0
   10.2821   -5.6889  -14.2808 N   0  0  0  0  0  0  0  0  0  0  0  0
   13.6575   -7.2161  -14.4749 C   0  0  0  0  0  0  0  0  0  0  0  0
   13.3670   -8.5243  -14.8532 C   0  0  0  0  0  0  0  0  0  0  0  0
   12.0420   -8.9050  -15.0451 C   0  0  0  0  0  0  0  0  0  0  0  0
    9.4182   -9.4497  -15.9998 N   0  0  0  0  0  0  0  0  0  0  0  0
    8.7118  -10.6737  -15.6006 C   0  0  2  0  0  0  0  0  0  0  0  0
    7.3983  -10.8939  -16.3777 C   0  0  0  0  0  0  0  0  0  0  0  0
    6.7436  -11.9300  -16.2781 O   0  0  0  0  0  0  0  0  0  0  0  0
    8.4069  -10.6221  -14.1085 C   0  0  0  0  0  0  0  0  0  0  0  0
    6.9221   -9.8041  -17.0707 N   0  0  0  0  0  0  0  0  0  0  0  0
    5.4865   -9.4707  -17.1358 C   0  0  2  0  0  0  0  0  0  0  0  0
    4.7558  -10.3645  -18.1609 C   0  0  0  0  0  0  0  0  0  0  0  0
    5.3375  -11.0507  -19.0007 O   0  0  0  0  0  0  0  0  0  0  0  0
    5.2680   -7.9795  -17.4741 C   0  0  2  0  0  0  0  0  0  0  0  0
    5.1405   -7.8157  -18.8967 O   0  0  0  0  0  0  0  0  0  0  0  0
    6.4131   -7.0934  -16.9947 C   0  0  0  0  0  0  0  0  0  0  0  0
    3.3939  -10.2383  -18.1307 N   0  0  0  0  0  0  0  0  0  0  0  0
    2.4767  -11.0357  -18.9498 C   0  0  2  0  0  0  0  0  0  0  0  0
    1.5772   -9.9958  -19.6470 C   0  0  0  0  0  0  0  0  0  0  0  0
    1.1954   -8.9914  -19.0320 O   0  0  0  0  0  0  0  0  0  0  0  0
    1.6688  -12.0550  -18.1187 C   0  0  2  0  0  0  0  0  0  0  0  0
    0.4072  -11.5033  -17.7202 O   0  0  0  0  0  0  0  0  0  0  0  0
    2.4061  -12.4873  -16.8529 C   0  0  0  0  0  0  0  0  0  0  0  0
    1.2435  -10.1738  -20.9676 N   0  0  0  0  0  0  0  0  0  0  0  0
    0.4009   -9.1874  -21.6389 C   0  0  2  0  0  0  0  0  0  0  0  0
   -1.0525   -9.2677  -21.1335 C   0  0  0  0  0  0  0  0  0  0  0  0
   -1.6728  -10.3206  -21.0387 O   0  0  0  0  0  0  0  0  0  0  0  0
    0.4626   -9.5727  -23.1218 C   0  0  0  0  0  0  0  0  0  0  0  0
    1.6950  -10.4645  -23.2352 C   0  0  0  0  0  0  0  0  0  0  0  0
    1.7238  -11.1809  -21.8953 C   0  0  0  0  0  0  0  0  0  0  0  0
   -1.6616   -8.0404  -20.9529 N   0  0  0  0  0  0  0  0  0  0  0  0
   -2.2185   -7.6460  -19.6524 C   0  0  2  0  0  0  0  0  0  0  0  0
   -3.6918   -8.1451  -19.5490 C   0  0  0  0  0  0  0  0  0  0  0  0
   -4.4010   -7.9748  -18.5543 O   0  0  0  0  0  0  0  0  0  0  0  0
   -2.1760   -6.1205  -19.4478 C   0  0  0  0  0  0  0  0  0  0  0  0
   -0.8158   -5.4037  -19.5903 C   0  0  1  0  0  0  0  0  0  0  0  0
   -0.6157   -4.7843  -20.9722 C   0  0  0  0  0  0  0  0  0  0  0  0
   -0.5531   -4.3693  -18.4986 C   0  0  0  0  0  0  0  0  0  0  0  0
   -4.1197   -8.9086  -20.6037 N   0  0  0  0  0  0  0  0  0  0  0  0
   -5.3395   -8.6310  -21.3436 C   0  0  2  0  0  0  0  0  0  0  0  0
   -6.4954   -8.3790  -20.3508 C   0  0  0  0  0  0  0  0  0  0  0  0
   -6.5519   -8.9043  -19.2435 O   0  0  0  0  0  0  0  0  0  0  0  0
   -5.7065   -9.7339  -22.3579 C   0  0  0  0  0  0  0  0  0  0  0  0
   -4.6420  -11.2197  -22.3044 S   0  0  0  0  0  0  0  0  0  0  0  0
   -7.4711   -7.5164  -20.8139 N   0  0  0  0  0  0  0  0  0  0  0  0
   -8.7252   -8.0539  -21.3199 C   0  0  0  0  0  0  0  0  0  0  0  0
   -8.9289   -7.5930  -22.7694 C   0  0  0  0  0  0  0  0  0  0  0  0
   -8.0526   -7.7539  -23.6282 O   0  0  0  0  0  0  0  0  0  0  0  0
  -10.1342   -7.0021  -23.0828 N   0  0  0  0  0  0  0  0  0  0  0  0
  -11.2704   -6.8067  -22.1740 C   0  0  2  0  0  0  0  0  0  0  0  0
  -12.2568   -7.9973  -22.1325 C   0  0  0  0  0  0  0  0  0  0  0  0
  -11.9578   -9.0829  -21.6333 O   0  0  0  0  0  0  0  0  0  0  0  0
  -11.9700   -5.5551  -22.7284 C   0  0  0  0  0  0  0  0  0  0  0  0
  -11.6249   -5.5630  -24.2151 C   0  0  0  0  0  0  0  0  0  0  0  0
  -10.2152   -6.1200  -24.2383 C   0  0  0  0  0  0  0  0  0  0  0  0
  -13.5346   -7.7087  -22.5478 N   0  0  0  0  0  0  0  0  0  0  0  0
  -14.7034   -8.3634  -21.9611 C   0  0  2  0  0  0  0  0  0  0  0  0
  -15.5063   -9.1142  -23.0343 C   0  0  0  0  0  0  0  0  0  0  0  0
  -15.9497  -10.2506  -22.8748 O   0  0  0  0  0  0  0  0  0  0  0  0
  -15.6073   -7.3556  -21.2443 C   0  0  0  0  0  0  0  0  0  0  0  0
  -16.5780   -6.8385  -22.1583 O   0  0  0  0  0  0  0  0  0  0  0  0
  -15.7519   -8.3671  -24.1723 N   0  0  0  0  0  0  0  0  0  0  0  0
  -15.3330   -8.7926  -25.5189 C   0  0  2  0  0  0  0  0  0  0  0  0
  -15.9248   -7.7837  -26.5438 C   0  0  0  0  0  0  0  0  0  0  0  0
  -17.0232   -7.2523  -26.4329 O   0  0  0  0  0  0  0  0  0  0  0  0
  -15.7061  -10.2675  -25.7520 C   0  0  0  0  0  0  0  0  0  0  0  0
  -16.1500  -10.6711  -27.1684 C   0  0  0  0  0  0  0  0  0  0  0  0
  -15.0288  -11.1178  -28.1112 C   0  0  0  0  0  0  0  0  0  0  0  0
  -15.4529  -12.3343  -28.7926 N   0  0  0  0  0  0  0  0  0  0  0  0
  -14.6710  -12.9527  -29.7069 C   0  0  0  0  0  0  0  0  0  0  0  0
  -13.4169  -12.7545  -29.8837 N   0  0  0  0  0  0  0  0  0  0  0  0
  -15.3778  -13.8339  -30.4416 N   0  0  0  0  0  0  0  0  0  0  0  0
  -15.1627   -7.6475  -27.6918 N   0  0  0  0  0  0  0  0  0  0  0  0
  -15.6707   -6.9704  -28.8910 C   0  0  2  0  0  0  0  0  0  0  0  0
  -17.1918   -6.7674  -28.7460 C   0  0  0  0  0  0  0  0  0  0  0  0
  -17.7828   -5.7513  -29.0924 O   0  0  0  0  0  0  0  0  0  0  0  0
  -15.3204   -7.7362  -30.1594 C   0  0  0  0  0  0  0  0  0  0  0  0
  -17.8085   -7.8152  -28.0887 N   0  0  0  0  0  0  0  0  0  0  0  0
  -19.2216   -8.1479  -28.3265 C   0  0  2  0  0  0  0  0  0  0  0  0
  -20.1212   -7.7707  -27.1384 C   0  0  0  0  0  0  0  0  0  0  0  0
  -20.4738   -6.6153  -26.9235 O   0  0  0  0  0  0  0  0  0  0  0  0
  -19.3533   -9.6535  -28.5907 C   0  0  0  0  0  0  0  0  0  0  0  0
  -19.7423   -9.9056  -29.9519 O   0  0  0  0  0  0  0  0  0  0  0  0
  -20.6484   -8.8437  -26.4540 N   0  0  0  0  0  0  0  0  0  0  0  0
  -21.5880   -8.6992  -25.3361 C   0  0  2  0  0  0  0  0  0  0  0  0
  -20.6547   -8.7160  -24.1035 C   0  0  0  0  0  0  0  0  0  0  0  0
  -19.9348   -9.6911  -23.8642 O   0  0  0  0  0  0  0  0  0  0  0  0
  -22.6095   -9.8668  -25.3238 C   0  0  2  0  0  0  0  0  0  0  0  0
  -22.7931  -10.3984  -23.8795 C   0  0  0  0  0  0  0  0  0  0  0  0
  -22.2154  -10.9953  -26.2910 C   0  0  0  0  0  0  0  0  0  0  0  0
  -24.0553   -9.8982  -23.1840 C   0  0  0  0  0  0  0  0  0  0  0  0
  -20.6775   -7.5927  -23.3228 N   0  0  0  0  0  0  0  0  0  0  0  0
  -19.8607   -7.4724  -22.1214 C   0  0  2  0  0  0  0  0  0  0  0  0
  -19.7281   -8.8733  -21.5021 C   0  0  0  0  0  0  0  0  0  0  0  0
  -20.3412   -9.8425  -21.9510 O   0  0  0  0  0  0  0  0  0  0  0  0
  -20.3765   -6.4097  -21.1368 C   0  0  0  0  0  0  0  0  0  0  0  0
  -21.9071   -6.2910  -20.9604 C   0  0  1  0  0  0  0  0  0  0  0  0
  -22.4461   -7.5670  -20.3073 C   0  0  0  0  0  0  0  0  0  0  0  0
  -22.3337   -5.0794  -20.1283 C   0  0  0  0  0  0  0  0  0  0  0  0
  -18.8789   -8.9552  -20.4206 N   0  0  0  0  0  0  0  0  0  0  0  0
  -18.6237  -10.2648  -19.8039 C   0  0  2  0  0  0  0  0  0  0  0  0
  -17.6587  -10.1628  -18.6055 C   0  0  0  0  0  0  0  0  0  0  0  0
  -16.4418  -10.2992  -18.6987 O   0  0  0  0  0  0  0  0  0  0  0  0
  -18.0654  -11.2346  -20.8507 C   0  0  0  0  0  0  0  0  0  0  0  0
  -18.9525  -12.3597  -20.9750 O   0  0  0  0  0  0  0  0  0  0  0  0
  -18.2976  -10.0440  -17.3897 N   0  0  0  0  0  0  0  0  0  0  0  0
  -17.5690   -9.8713  -16.1448 C   0  0  0  0  0  0  0  0  0  0  0  0
  -17.0402  -11.1872  -15.5982 C   0  0  0  0  0  0  0  0  0  0  0  0
  -17.9889  -12.1383  -15.4187 O   0  0  0  0  0  0  0  0  0  0  0  0
  -15.8724  -11.4386  -15.3361 O   0  0  0  0  0  0  0  0  0  0  0  0
  -13.2348  -12.7316  -30.8924 H   0  0  0  0  0  0  0  0  0  0  0  0
  1  2  2  0
  1  3  1  0
  1 10  1  0
  3  4  2  0
  3  9  1  0
  4  5  1  0
  4  6  1  0
  5  7  2  0
  7  8  1  0
  8  9  2  0
 10 11  1  0
 11 12  1  0
 11 14  1  1
 12 13  2  0
 12 15  1  0
 16 15  1  6
 16 17  1  0
 16 19  1  0
 17 18  2  0
 17 22  1  0
 19 20  1  0
 19 21  1  6
 23 22  1  1
 23 24  1  0
 23 26  1  0
 24 25  2  0
 24 29  1  0
 26 27  1  0
 26 28  1  1
 29 30  1  0
 29 35  1  0
 30 31  1  1
 30 33  1  0
 31 32  2  0
 31 36  1  0
 33 34  1  0
 34 35  1  0
 36 37  1  0
 37 38  1  0
 37 40  1  6
 38 39  2  0
 38 44  1  0
 40 41  1  0
 41 42  1  6
 41 43  1  0
 44 45  1  0
 45 46  1  0
 45 48  1  6
 46 47  2  0
 46 50  1  0
 48 49  1  0
 50 51  1  0
 51 52  1  0
 52 53  2  0
 52 54  1  0
 54 55  1  0
 54 60  1  0
 55 56  1  6
 55 58  1  0
 56 57  2  0
 56 61  1  0
 58 59  1  0
 59 60  1  0
 61 62  1  0
 62 63  1  0
 62 65  1  6
 63 64  2  0
 63 67  1  0
 65 66  1  0
 67 68  1  0
 68 69  1  0
 68 71  1  6
 69 70  2  0
 69 78  1  0
 71 72  1  0
 72 73  1  0
 73 74  1  0
 74 75  1  0
 75 76  2  0
 75 77  1  0
 78 79  1  0
 79 80  1  0
 79 82  1  6
 80 81  2  0
 80 83  1  0
 83 84  1  0
 84 85  1  0
 84 87  1  1
 85 86  2  0
 85 89  1  0
 87 88  1  0
 90 89  1  6
 90 91  1  0
 90 93  1  0
 91 92  2  0
 91 97  1  0
 93 94  1  0
 93 95  1  6
 94 96  1  0
 97 98  1  0
 98 99  1  0
 98101  1  1
 99100  2  0
 99105  1  0
101102  1  0
102103  1  1
102104  1  0
105106  1  0
106107  1  0
106109  1  6
107108  2  0
107111  1  0
109110  1  0
111112  1  0
112113  1  0
113114  1  0
113115  2  0
 76116  1  0
M  END
$$$$
