
     RDKit          3D

116118  0  0  0  0  0  0  0  0999 V2000
  -14.9157   -3.3818  -38.7840 C   0  0  0  0  0  0  0  0  0  0  0  0
  -13.7712   -3.4996  -39.2238 O   0  0  0  0  0  0  0  0  0  0  0  0
  -16.0682   -3.2252  -39.7144 C   0  0  0  0  0  0  0  0  0  0  0  0
  -15.9395   -3.5771  -41.0729 C   0  0  0  0  0  0  0  0  0  0  0  0
  -17.0199   -3.3360  -41.9328 C   0  0  0  0  0  0  0  0  0  0  0  0
  -14.7047   -3.9675  -41.6367 N   0  0  0  0  0  0  0  0  0  0  0  0
  -18.2337   -2.8401  -41.4413 C   0  0  0  0  0  0  0  0  0  0  0  0
  -18.3797   -2.5647  -40.0842 C   0  0  0  0  0  0  0  0  0  0  0  0
  -17.3008   -2.7546  -39.2255 C   0  0  0  0  0  0  0  0  0  0  0  0
  -15.2148   -3.3092  -37.4318 N   0  0  0  0  0  0  0  0  0  0  0  0
  -14.1486   -3.1987  -36.4282 C   0  0  2  0  0  0  0  0  0  0  0  0
  -14.6829   -3.1438  -34.9828 C   0  0  0  0  0  0  0  0  0  0  0  0
  -15.3251   -2.1852  -34.5573 O   0  0  0  0  0  0  0  0  0  0  0  0
  -13.3189   -1.9502  -36.7019 C   0  0  0  0  0  0  0  0  0  0  0  0
  -14.5314   -4.2950  -34.2436 N   0  0  0  0  0  0  0  0  0  0  0  0
  -13.2327   -4.9793  -34.0982 C   0  0  2  0  0  0  0  0  0  0  0  0
  -12.6242   -4.7229  -32.7026 C   0  0  0  0  0  0  0  0  0  0  0  0
  -11.6938   -5.3793  -32.2358 O   0  0  0  0  0  0  0  0  0  0  0  0
  -12.2410   -4.5491  -35.2016 C   0  0  2  0  0  0  0  0  0  0  0  0
  -12.2660   -3.1193  -35.3493 O   0  0  0  0  0  0  0  0  0  0  0  0
  -12.5616   -5.1722  -36.5563 C   0  0  0  0  0  0  0  0  0  0  0  0
  -13.2887   -3.7719  -31.9775 N   0  0  0  0  0  0  0  0  0  0  0  0
  -12.9019   -3.3481  -30.6289 C   0  0  2  0  0  0  0  0  0  0  0  0
  -11.3609   -3.3893  -30.6375 C   0  0  0  0  0  0  0  0  0  0  0  0
  -10.7602   -4.0123  -31.5229 O   0  0  0  0  0  0  0  0  0  0  0  0
  -13.5119   -4.2397  -29.5264 C   0  0  2  0  0  0  0  0  0  0  0  0
  -12.7925   -4.0932  -28.2952 O   0  0  0  0  0  0  0  0  0  0  0  0
  -13.4938   -5.7205  -29.9002 C   0  0  0  0  0  0  0  0  0  0  0  0
  -10.6647   -2.6913  -29.6809 N   0  0  0  0  0  0  0  0  0  0  0  0
   -9.2088   -2.6075  -29.7645 C   0  0  2  0  0  0  0  0  0  0  0  0
   -8.5577   -3.9623  -29.4256 C   0  0  0  0  0  0  0  0  0  0  0  0
   -8.5152   -4.9017  -30.2118 O   0  0  0  0  0  0  0  0  0  0  0  0
   -8.8216   -1.5616  -28.7121 C   0  0  0  0  0  0  0  0  0  0  0  0
  -10.1146   -0.8017  -28.4331 C   0  0  0  0  0  0  0  0  0  0  0  0
  -11.1827   -1.8692  -28.6033 C   0  0  0  0  0  0  0  0  0  0  0  0
   -8.1721   -4.0948  -28.1051 N   0  0  0  0  0  0  0  0  0  0  0  0
   -7.4373   -5.2771  -27.6370 C   0  0  2  0  0  0  0  0  0  0  0  0
   -6.3196   -4.8312  -26.6458 C   0  0  0  0  0  0  0  0  0  0  0  0
   -5.4212   -4.0399  -26.9427 O   0  0  0  0  0  0  0  0  0  0  0  0
   -6.8085   -6.0618  -28.8030 C   0  0  0  0  0  0  0  0  0  0  0  0
   -7.2658   -7.5190  -29.0313 C   0  0  1  0  0  0  0  0  0  0  0  0
   -8.1109   -8.0608  -27.8799 C   0  0  0  0  0  0  0  0  0  0  0  0
   -7.9790   -7.7338  -30.3639 C   0  0  0  0  0  0  0  0  0  0  0  0
   -6.3241   -5.4799  -25.4386 N   0  0  0  0  0  0  0  0  0  0  0  0
   -6.9073   -4.9142  -24.2335 C   0  0  2  0  0  0  0  0  0  0  0  0
   -5.7954   -4.2606  -23.3838 C   0  0  0  0  0  0  0  0  0  0  0  0
   -4.9570   -3.4976  -23.8529 O   0  0  0  0  0  0  0  0  0  0  0  0
   -7.7148   -5.9346  -23.4050 C   0  0  0  0  0  0  0  0  0  0  0  0
   -7.1422   -7.6660  -23.5384 S   0  0  0  0  0  0  0  0  0  0  0  0
   -5.8143   -4.6116  -22.0470 N   0  0  0  0  0  0  0  0  0  0  0  0
   -5.1276   -3.7757  -21.0738 C   0  0  0  0  0  0  0  0  0  0  0  0
   -5.1240   -4.4796  -19.7102 C   0  0  0  0  0  0  0  0  0  0  0  0
   -6.1775   -4.7661  -19.1277 O   0  0  0  0  0  0  0  0  0  0  0  0
   -3.8986   -4.7930  -19.1622 N   0  0  0  0  0  0  0  0  0  0  0  0
   -3.2613   -6.1154  -19.1537 C   0  0  2  0  0  0  0  0  0  0  0  0
   -3.6435   -6.9919  -17.9380 C   0  0  0  0  0  0  0  0  0  0  0  0
   -4.0975   -6.5130  -16.8980 O   0  0  0  0  0  0  0  0  0  0  0  0
   -1.7578   -5.7956  -19.1275 C   0  0  0  0  0  0  0  0  0  0  0  0
   -1.6783   -4.4336  -18.4434 C   0  0  0  0  0  0  0  0  0  0  0  0
   -2.9304   -3.7307  -18.9296 C   0  0  0  0  0  0  0  0  0  0  0  0
   -3.5886   -8.3472  -18.1579 N   0  0  0  0  0  0  0  0  0  0  0  0
   -4.5858   -9.2607  -17.6010 C   0  0  2  0  0  0  0  0  0  0  0  0
   -4.0598  -10.7040  -17.5895 C   0  0  0  0  0  0  0  0  0  0  0  0
   -3.9315  -11.3846  -18.6064 O   0  0  0  0  0  0  0  0  0  0  0  0
   -5.9029   -9.1925  -18.3802 C   0  0  0  0  0  0  0  0  0  0  0  0
   -5.6420   -9.2842  -19.7834 O   0  0  0  0  0  0  0  0  0  0  0  0
   -3.6708  -11.1465  -16.3379 N   0  0  0  0  0  0  0  0  0  0  0  0
   -4.5719  -11.8723  -15.4263 C   0  0  2  0  0  0  0  0  0  0  0  0
   -4.1387  -13.3659  -15.4165 C   0  0  0  0  0  0  0  0  0  0  0  0
   -3.6783  -13.9569  -16.3860 O   0  0  0  0  0  0  0  0  0  0  0  0
   -6.0398  -11.6121  -15.8086 C   0  0  0  0  0  0  0  0  0  0  0  0
   -7.1204  -12.0253  -14.7948 C   0  0  0  0  0  0  0  0  0  0  0  0
   -6.7123  -11.9404  -13.3211 C   0  0  0  0  0  0  0  0  0  0  0  0
   -7.8364  -12.3766  -12.5026 N   0  0  0  0  0  0  0  0  0  0  0  0
   -8.4517  -11.5463  -11.6300 C   0  0  0  0  0  0  0  0  0  0  0  0
   -8.6532  -11.7760  -10.3850 N   0  0  0  0  0  0  0  0  0  0  0  0
   -8.8464  -10.4069  -12.2315 N   0  0  0  0  0  0  0  0  0  0  0  0
   -4.4634  -14.0302  -14.2457 N   0  0  0  0  0  0  0  0  0  0  0  0
   -5.4065  -15.1547  -14.2213 C   0  0  2  0  0  0  0  0  0  0  0  0
   -5.6554  -15.5690  -12.7577 C   0  0  0  0  0  0  0  0  0  0  0  0
   -5.4210  -14.8499  -11.7935 O   0  0  0  0  0  0  0  0  0  0  0  0
   -4.9104  -16.3222  -15.0633 C   0  0  0  0  0  0  0  0  0  0  0  0
   -6.0773  -16.8799  -12.6398 N   0  0  0  0  0  0  0  0  0  0  0  0
   -7.3994  -17.2164  -12.0892 C   0  0  2  0  0  0  0  0  0  0  0  0
   -7.3056  -18.1121  -10.8434 C   0  0  0  0  0  0  0  0  0  0  0  0
   -6.4248  -18.9552  -10.7065 O   0  0  0  0  0  0  0  0  0  0  0  0
   -8.2282  -17.9390  -13.1591 C   0  0  0  0  0  0  0  0  0  0  0  0
   -8.4206  -19.3218  -12.8149 O   0  0  0  0  0  0  0  0  0  0  0  0
   -8.1637  -17.7673   -9.8225 N   0  0  0  0  0  0  0  0  0  0  0  0
   -8.1417  -18.4109   -8.5039 C   0  0  2  0  0  0  0  0  0  0  0  0
   -9.4124  -19.2911   -8.5341 C   0  0  0  0  0  0  0  0  0  0  0  0
  -10.3536  -19.0758   -7.7632 O   0  0  0  0  0  0  0  0  0  0  0  0
   -8.1817  -17.3482   -7.3742 C   0  0  2  0  0  0  0  0  0  0  0  0
   -9.6322  -16.8415   -7.1712 C   0  0  0  0  0  0  0  0  0  0  0  0
   -7.2122  -16.1837   -7.6357 C   0  0  0  0  0  0  0  0  0  0  0  0
  -10.5927  -17.8941   -6.6266 C   0  0  0  0  0  0  0  0  0  0  0  0
   -9.4205  -20.2950   -9.4635 N   0  0  0  0  0  0  0  0  0  0  0  0
   -9.3812  -21.7008   -9.0798 C   0  0  2  0  0  0  0  0  0  0  0  0
   -9.7559  -21.7915   -7.5915 C   0  0  0  0  0  0  0  0  0  0  0  0
   -8.9039  -21.7462   -6.7034 O   0  0  0  0  0  0  0  0  0  0  0  0
   -8.0501  -22.3901   -9.4233 C   0  0  0  0  0  0  0  0  0  0  0  0
   -7.4175  -22.0649  -10.7951 C   0  0  1  0  0  0  0  0  0  0  0  0
   -7.2375  -20.5499  -10.9281 C   0  0  0  0  0  0  0  0  0  0  0  0
   -6.0710  -22.7551  -11.0256 C   0  0  0  0  0  0  0  0  0  0  0  0
  -11.1029  -21.9243   -7.3360 N   0  0  0  0  0  0  0  0  0  0  0  0
  -11.5604  -22.0734   -5.9471 C   0  0  2  0  0  0  0  0  0  0  0  0
  -13.0788  -22.3282   -5.8613 C   0  0  0  0  0  0  0  0  0  0  0  0
  -13.9267  -21.4970   -6.1749 O   0  0  0  0  0  0  0  0  0  0  0  0
  -11.1875  -20.8266   -5.1382 C   0  0  0  0  0  0  0  0  0  0  0  0
   -9.7674  -20.8169   -4.9105 O   0  0  0  0  0  0  0  0  0  0  0  0
  -13.4053  -23.5276   -5.2653 N   0  0  0  0  0  0  0  0  0  0  0  0
  -14.4079  -24.4210   -5.8197 C   0  0  0  0  0  0  0  0  0  0  0  0
  -13.7922  -25.5370   -6.6474 C   0  0  0  0  0  0  0  0  0  0  0  0
  -13.5967  -26.6931   -5.9676 O   0  0  0  0  0  0  0  0  0  0  0  0
  -13.4896  -25.4707   -7.8306 O   0  0  0  0  0  0  0  0  0  0  0  0
   -7.7776  -12.1191   -9.9763 H   0  0  0  0  0  0  0  0  0  0  0  0
  1  2  2  0
  1  3  1  0
  1 10  1  0
  3  4  2  0
  3  9  1  0
  4  5  1  0
  4  6  1  0
  5  7  2  0
  7  8  1  0
  8  9  2  0
 10 11  1  0
 11 12  1  0
 11 14  1  6
 12 13  2  0
 12 15  1  0
 16 15  1  1
 16 17  1  0
 16 19  1  0
 17 18  2  0
 17 22  1  0
 19 20  1  0
 19 21  1  6
 23 22  1  6
 23 24  1  0
 23 26  1  0
 24 25  2  0
 24 29  1  0
 26 27  1  0
 26 28  1  6
 29 30  1  0
 29 35  1  0
 30 31  1  1
 30 33  1  0
 31 32  2  0
 31 36  1  0
 33 34  1  0
 34 35  1  0
 36 37  1  0
 37 38  1  0
 37 40  1  6
 38 39  2  0
 38 44  1  0
 40 41  1  0
 41 42  1  1
 41 43  1  0
 44 45  1  0
 45 46  1  0
 45 48  1  1
 46 47  2  0
 46 50  1  0
 48 49  1  0
 50 51  1  0
 51 52  1  0
 52 53  2  0
 52 54  1  0
 54 55  1  0
 54 60  1  0
 55 56  1  1
 55 58  1  0
 56 57  2  0
 56 61  1  0
 58 59  1  0
 59 60  1  0
 61 62  1  0
 62 63  1  0
 62 65  1  6
 63 64  2  0
 63 67  1  0
 65 66  1  0
 67 68  1  0
 68 69  1  0
 68 71  1  6
 69 70  2  0
 69 78  1  0
 71 72  1  0
 72 73  1  0
 73 74  1  0
 74 75  1  0
 75 76  2  0
 75 77  1  0
 78 79  1  0
 79 80  1  0
 79 82  1  6
 80 81  2  0
 80 83  1  0
 83 84  1  0
 84 85  1  0
 84 87  1  6
 85 86  2  0
 85 89  1  0
 87 88  1  0
 90 89  1  6
 90 91  1  0
 90 93  1  0
 91 92  2  0
 91 97  1  0
 93 94  1  0
 93 95  1  6
 94 96  1  0
 97 98  1  0
 98 99  1  0
 98101  1  1
 99100  2  0
 99105  1  0
101102  1  0
102103  1  1
102104  1  0
105106  1  0
106107  1  0
106109  1  1
107108  2  0
107111  1  0
109110  1  0
111112  1  0
112113  1  0
113114  1  0
113115  2  0
 76116  1  0
M  END
$$$$
