
     RDKit          3D

116118  0  0  0  0  0  0  0  0999 V2000
  -13.3180   -4.3236  -29.1822 C   0  0  0  0  0  0  0  0  0  0  0  0
  -12.6999   -3.4215  -29.7492 O   0  0  0  0  0  0  0  0  0  0  0  0
  -14.0254   -5.3668  -29.9756 C   0  0  0  0  0  0  0  0  0  0  0  0
  -13.9855   -5.3392  -31.3839 C   0  0  0  0  0  0  0  0  0  0  0  0
  -14.7330   -6.2888  -32.0942 C   0  0  0  0  0  0  0  0  0  0  0  0
  -13.3935   -4.2758  -32.1007 N   0  0  0  0  0  0  0  0  0  0  0  0
  -15.4337   -7.2997  -31.4250 C   0  0  0  0  0  0  0  0  0  0  0  0
  -15.4083   -7.3669  -30.0344 C   0  0  0  0  0  0  0  0  0  0  0  0
  -14.7089   -6.4032  -29.3135 C   0  0  0  0  0  0  0  0  0  0  0  0
  -13.4701   -4.4024  -27.8060 N   0  0  0  0  0  0  0  0  0  0  0  0
  -12.8136   -3.4348  -26.9177 C   0  0  2  0  0  0  0  0  0  0  0  0
  -12.3268   -4.0619  -25.5958 C   0  0  0  0  0  0  0  0  0  0  0  0
  -12.5255   -5.2434  -25.3185 O   0  0  0  0  0  0  0  0  0  0  0  0
  -13.7760   -2.2954  -26.6056 C   0  0  0  0  0  0  0  0  0  0  0  0
  -11.5246   -3.2629  -24.8130 N   0  0  0  0  0  0  0  0  0  0  0  0
  -10.9683   -3.7169  -23.5244 C   0  0  2  0  0  0  0  0  0  0  0  0
  -10.0615   -2.6346  -22.9000 C   0  0  0  0  0  0  0  0  0  0  0  0
   -9.5510   -1.7202  -23.5462 O   0  0  0  0  0  0  0  0  0  0  0  0
  -10.1902   -5.0421  -23.6808 C   0  0  2  0  0  0  0  0  0  0  0  0
   -8.8128   -4.8443  -23.3199 O   0  0  0  0  0  0  0  0  0  0  0  0
  -10.2347   -5.5860  -25.1051 C   0  0  0  0  0  0  0  0  0  0  0  0
   -9.7787   -2.8473  -21.5784 N   0  0  0  0  0  0  0  0  0  0  0  0
  -10.1464   -1.9246  -20.5008 C   0  0  2  0  0  0  0  0  0  0  0  0
   -9.9758   -2.7499  -19.2099 C   0  0  0  0  0  0  0  0  0  0  0  0
  -10.7068   -3.7256  -18.9942 O   0  0  0  0  0  0  0  0  0  0  0  0
  -11.5750   -1.3623  -20.6596 C   0  0  2  0  0  0  0  0  0  0  0  0
  -11.7670   -0.2132  -19.8244 O   0  0  0  0  0  0  0  0  0  0  0  0
  -12.6468   -2.3865  -20.2923 C   0  0  0  0  0  0  0  0  0  0  0  0
   -8.9768   -2.4181  -18.3274 N   0  0  0  0  0  0  0  0  0  0  0  0
   -8.0665   -3.4533  -17.8444 C   0  0  2  0  0  0  0  0  0  0  0  0
   -8.7822   -4.4054  -16.8669 C   0  0  0  0  0  0  0  0  0  0  0  0
   -8.1871   -5.1953  -16.1428 O   0  0  0  0  0  0  0  0  0  0  0  0
   -6.9608   -2.6837  -17.1121 C   0  0  0  0  0  0  0  0  0  0  0  0
   -7.0842   -1.2529  -17.6267 C   0  0  0  0  0  0  0  0  0  0  0  0
   -8.5776   -1.1021  -17.8644 C   0  0  0  0  0  0  0  0  0  0  0  0
  -10.1586   -4.4190  -16.9898 N   0  0  0  0  0  0  0  0  0  0  0  0
  -10.9934   -5.2910  -16.1533 C   0  0  2  0  0  0  0  0  0  0  0  0
  -10.0871   -6.0607  -15.1450 C   0  0  0  0  0  0  0  0  0  0  0  0
   -9.6584   -5.5668  -14.0992 O   0  0  0  0  0  0  0  0  0  0  0  0
  -11.7969   -6.2982  -16.9961 C   0  0  0  0  0  0  0  0  0  0  0  0
  -11.2549   -6.6770  -18.3916 C   0  0  1  0  0  0  0  0  0  0  0  0
   -9.7851   -7.0918  -18.3625 C   0  0  0  0  0  0  0  0  0  0  0  0
  -12.0935   -7.7335  -19.1066 C   0  0  0  0  0  0  0  0  0  0  0  0
   -9.6857   -7.3037  -15.5598 N   0  0  0  0  0  0  0  0  0  0  0  0
   -8.7758   -8.1418  -14.7968 C   0  0  2  0  0  0  0  0  0  0  0  0
   -8.6417   -9.5159  -15.4891 C   0  0  0  0  0  0  0  0  0  0  0  0
   -9.5481  -10.0289  -16.1375 O   0  0  0  0  0  0  0  0  0  0  0  0
   -9.1825   -8.3006  -13.3172 C   0  0  0  0  0  0  0  0  0  0  0  0
   -9.8275   -6.7840  -12.5250 S   0  0  0  0  0  0  0  0  0  0  0  0
   -7.4157  -10.1295  -15.3127 N   0  0  0  0  0  0  0  0  0  0  0  0
   -6.1950   -9.3480  -15.4414 C   0  0  0  0  0  0  0  0  0  0  0  0
   -5.3142   -9.9566  -16.5409 C   0  0  0  0  0  0  0  0  0  0  0  0
   -5.0954   -9.3561  -17.6005 O   0  0  0  0  0  0  0  0  0  0  0  0
   -4.7637  -11.1967  -16.2976 N   0  0  0  0  0  0  0  0  0  0  0  0
   -3.4407  -11.4639  -15.7203 C   0  0  2  0  0  0  0  0  0  0  0  0
   -2.3018  -11.5440  -16.7637 C   0  0  0  0  0  0  0  0  0  0  0  0
   -2.5212  -11.6147  -17.9737 O   0  0  0  0  0  0  0  0  0  0  0  0
   -3.6160  -12.8206  -15.0188 C   0  0  0  0  0  0  0  0  0  0  0  0
   -4.7298  -13.5059  -15.8058 C   0  0  0  0  0  0  0  0  0  0  0  0
   -5.6392  -12.3550  -16.1885 C   0  0  0  0  0  0  0  0  0  0  0  0
   -1.0359  -11.3725  -16.2573 N   0  0  0  0  0  0  0  0  0  0  0  0
   -0.0142  -10.6104  -16.9744 C   0  0  2  0  0  0  0  0  0  0  0  0
    1.2939  -11.4095  -17.0761 C   0  0  0  0  0  0  0  0  0  0  0  0
    2.3813  -10.9768  -16.6966 O   0  0  0  0  0  0  0  0  0  0  0  0
    0.2512   -9.2603  -16.3010 C   0  0  0  0  0  0  0  0  0  0  0  0
    1.2364   -8.5343  -17.0411 O   0  0  0  0  0  0  0  0  0  0  0  0
    1.1276  -12.6927  -17.5651 N   0  0  0  0  0  0  0  0  0  0  0  0
    0.6807  -12.9773  -18.9395 C   0  0  2  0  0  0  0  0  0  0  0  0
    0.6117  -14.5217  -19.1087 C   0  0  0  0  0  0  0  0  0  0  0  0
    0.9532  -15.1204  -20.1217 O   0  0  0  0  0  0  0  0  0  0  0  0
    1.5734  -12.2402  -19.9537 C   0  0  0  0  0  0  0  0  0  0  0  0
    3.0693  -12.5980  -19.9729 C   0  0  0  0  0  0  0  0  0  0  0  0
    3.9155  -11.8496  -21.0070 C   0  0  0  0  0  0  0  0  0  0  0  0
    5.0776  -12.6661  -21.3339 N   0  0  0  0  0  0  0  0  0  0  0  0
    6.3203  -12.3471  -20.9057 C   0  0  0  0  0  0  0  0  0  0  0  0
    6.7783  -12.5246  -19.7216 N   0  0  0  0  0  0  0  0  0  0  0  0
    7.0551  -11.8010  -21.8945 N   0  0  0  0  0  0  0  0  0  0  0  0
   -0.0220  -15.1670  -18.0603 N   0  0  0  0  0  0  0  0  0  0  0  0
    0.6545  -16.1830  -17.2450 C   0  0  2  0  0  0  0  0  0  0  0  0
    0.0313  -17.5611  -17.5420 C   0  0  0  0  0  0  0  0  0  0  0  0
   -1.1498  -17.8320  -17.3593 O   0  0  0  0  0  0  0  0  0  0  0  0
    0.5960  -15.8434  -15.7620 C   0  0  0  0  0  0  0  0  0  0  0  0
    0.9689  -18.4943  -17.9424 N   0  0  0  0  0  0  0  0  0  0  0  0
    0.5721  -19.7604  -18.5778 C   0  0  2  0  0  0  0  0  0  0  0  0
    0.0371  -20.7838  -17.5631 C   0  0  0  0  0  0  0  0  0  0  0  0
   -1.1090  -20.7381  -17.1276 O   0  0  0  0  0  0  0  0  0  0  0  0
    1.7798  -20.3664  -19.3046 C   0  0  0  0  0  0  0  0  0  0  0  0
    2.5083  -19.3565  -20.0237 O   0  0  0  0  0  0  0  0  0  0  0  0
    0.8743  -21.8526  -17.3298 N   0  0  0  0  0  0  0  0  0  0  0  0
    0.5708  -23.2200  -17.7673 C   0  0  2  0  0  0  0  0  0  0  0  0
    0.6733  -23.1149  -19.3064 C   0  0  0  0  0  0  0  0  0  0  0  0
   -0.1873  -22.5180  -19.9617 O   0  0  0  0  0  0  0  0  0  0  0  0
   -0.8437  -23.6462  -17.2936 C   0  0  2  0  0  0  0  0  0  0  0  0
   -1.8137  -23.7063  -18.5010 C   0  0  0  0  0  0  0  0  0  0  0  0
   -1.3862  -22.7311  -16.1833 C   0  0  0  0  0  0  0  0  0  0  0  0
   -3.1760  -24.3130  -18.1799 C   0  0  0  0  0  0  0  0  0  0  0  0
    1.7677  -23.7090  -19.8732 N   0  0  0  0  0  0  0  0  0  0  0  0
    1.7216  -25.0684  -20.3977 C   0  0  2  0  0  0  0  0  0  0  0  0
    0.3153  -25.3016  -20.9735 C   0  0  0  0  0  0  0  0  0  0  0  0
   -0.5825  -24.4673  -20.8526 O   0  0  0  0  0  0  0  0  0  0  0  0
    2.1528  -26.1321  -19.3744 C   0  0  0  0  0  0  0  0  0  0  0  0
    2.4384  -27.5539  -19.9082 C   0  0  1  0  0  0  0  0  0  0  0  0
    3.6776  -27.5222  -20.8075 C   0  0  0  0  0  0  0  0  0  0  0  0
    2.6442  -28.5915  -18.8022 C   0  0  0  0  0  0  0  0  0  0  0  0
    0.1442  -26.5018  -21.6273 N   0  0  0  0  0  0  0  0  0  0  0  0
   -1.1490  -26.7985  -22.2600 C   0  0  2  0  0  0  0  0  0  0  0  0
   -1.3705  -25.9705  -23.5418 C   0  0  0  0  0  0  0  0  0  0  0  0
   -2.4781  -25.7389  -24.0189 O   0  0  0  0  0  0  0  0  0  0  0  0
   -2.2866  -26.5465  -21.2650 C   0  0  0  0  0  0  0  0  0  0  0  0
   -3.2446  -27.6150  -21.3600 O   0  0  0  0  0  0  0  0  0  0  0  0
   -0.2018  -25.6288  -24.1882 N   0  0  0  0  0  0  0  0  0  0  0  0
   -0.1938  -25.0463  -25.5190 C   0  0  0  0  0  0  0  0  0  0  0  0
    0.1614  -26.0626  -26.5918 C   0  0  0  0  0  0  0  0  0  0  0  0
    0.3140  -27.3285  -26.1324 O   0  0  0  0  0  0  0  0  0  0  0  0
    0.2979  -25.8299  -27.7847 O   0  0  0  0  0  0  0  0  0  0  0  0
    6.9864  -11.6057  -19.3171 H   0  0  0  0  0  0  0  0  0  0  0  0
  1  2  2  0
  1  3  1  0
  1 10  1  0
  3  4  2  0
  3  9  1  0
  4  5  1  0
  4  6  1  0
  5  7  2  0
  7  8  1  0
  8  9  2  0
 10 11  1  0
 11 12  1  0
 11 14  1  1
 12 13  2  0
 12 15  1  0
 16 15  1  6
 16 17  1  0
 16 19  1  0
 17 18  2  0
 17 22  1  0
 19 20  1  0
 19 21  1  6
 23 22  1  6
 23 24  1  0
 23 26  1  0
 24 25  2  0
 24 29  1  0
 26 27  1  0
 26 28  1  1
 29 30  1  0
 29 35  1  0
 30 31  1  1
 30 33  1  0
 31 32  2  0
 31 36  1  0
 33 34  1  0
 34 35  1  0
 36 37  1  0
 37 38  1  0
 37 40  1  6
 38 39  2  0
 38 44  1  0
 40 41  1  0
 41 42  1  1
 41 43  1  0
 44 45  1  0
 45 46  1  0
 45 48  1  1
 46 47  2  0
 46 50  1  0
 48 49  1  0
 50 51  1  0
 51 52  1  0
 52 53  2  0
 52 54  1  0
 54 55  1  0
 54 60  1  0
 55 56  1  6
 55 58  1  0
 56 57  2  0
 56 61  1  0
 58 59  1  0
 59 60  1  0
 61 62  1  0
 62 63  1  0
 62 65  1  1
 63 64  2  0
 63 67  1  0
 65 66  1  0
 67 68  1  0
 68 69  1  0
 68 71  1  6
 69 70  2  0
 69 78  1  0
 71 72  1  0
 72 73  1  0
 73 74  1  0
 74 75  1  0
 75 76  2  0
 75 77  1  0
 78 79  1  0
 79 80  1  0
 79 82  1  1
 80 81  2  0
 80 83  1  0
 83 84  1  0
 84 85  1  0
 84 87  1  1
 85 86  2  0
 85 89  1  0
 87 88  1  0
 90 89  1  1
 90 91  1  0
 90 93  1  0
 91 92  2  0
 91 97  1  0
 93 94  1  0
 93 95  1  1
 94 96  1  0
 97 98  1  0
 98 99  1  0
 98101  1  1
 99100  2  0
 99105  1  0
101102  1  0
102103  1  1
102104  1  0
105106  1  0
106107  1  0
106109  1  1
107108  2  0
107111  1  0
109110  1  0
111112  1  0
112113  1  0
113114  1  0
113115  2  0
 76116  1  0
M  END
$$$$
