
     RDKit          3D

116118  0  0  0  0  0  0  0  0999 V2000
   -4.0008   -1.4316  -11.6764 C   0  0  0  0  0  0  0  0  0  0  0  0
   -2.9985   -1.9153  -12.2044 O   0  0  0  0  0  0  0  0  0  0  0  0
   -3.9177   -0.1349  -10.9485 C   0  0  0  0  0  0  0  0  0  0  0  0
   -2.6931    0.5574  -10.8647 C   0  0  0  0  0  0  0  0  0  0  0  0
   -2.6378    1.7309  -10.1001 C   0  0  0  0  0  0  0  0  0  0  0  0
   -1.4832    0.0099  -11.3457 N   0  0  0  0  0  0  0  0  0  0  0  0
   -3.7910    2.2565   -9.5046 C   0  0  0  0  0  0  0  0  0  0  0  0
   -5.0141    1.6078   -9.6536 C   0  0  0  0  0  0  0  0  0  0  0  0
   -5.0761    0.4164  -10.3706 C   0  0  0  0  0  0  0  0  0  0  0  0
   -5.2342   -2.0649  -11.6467 N   0  0  0  0  0  0  0  0  0  0  0  0
   -5.4910   -3.2554  -12.4671 C   0  0  2  0  0  0  0  0  0  0  0  0
   -6.9691   -3.3947  -12.8835 C   0  0  0  0  0  0  0  0  0  0  0  0
   -7.5758   -2.4930  -13.4590 O   0  0  0  0  0  0  0  0  0  0  0  0
   -5.0680   -4.5029  -11.7010 C   0  0  0  0  0  0  0  0  0  0  0  0
   -7.5255   -4.6419  -12.7109 N   0  0  0  0  0  0  0  0  0  0  0  0
   -8.5416   -5.1913  -13.6283 C   0  0  2  0  0  0  0  0  0  0  0  0
   -8.8123   -6.6812  -13.3275 C   0  0  0  0  0  0  0  0  0  0  0  0
   -7.9325   -7.5415  -13.3089 O   0  0  0  0  0  0  0  0  0  0  0  0
   -8.1258   -5.0103  -15.1050 C   0  0  2  0  0  0  0  0  0  0  0  0
   -6.8730   -4.3089  -15.1764 O   0  0  0  0  0  0  0  0  0  0  0  0
   -9.1550   -4.2281  -15.9144 C   0  0  0  0  0  0  0  0  0  0  0  0
  -10.1398   -6.9850  -13.1963 N   0  0  0  0  0  0  0  0  0  0  0  0
  -11.2203   -6.2496  -13.8594 C   0  0  2  0  0  0  0  0  0  0  0  0
  -11.9525   -7.3136  -14.7011 C   0  0  0  0  0  0  0  0  0  0  0  0
  -13.0504   -7.0554  -15.2117 O   0  0  0  0  0  0  0  0  0  0  0  0
  -10.7030   -5.0723  -14.7132 C   0  0  2  0  0  0  0  0  0  0  0  0
  -11.1011   -3.8172  -14.1465 O   0  0  0  0  0  0  0  0  0  0  0  0
  -11.2267   -5.1202  -16.1472 C   0  0  0  0  0  0  0  0  0  0  0  0
  -11.3529   -8.5310  -14.9144 N   0  0  0  0  0  0  0  0  0  0  0  0
  -10.4120   -8.6886  -16.0206 C   0  0  2  0  0  0  0  0  0  0  0  0
  -11.1456   -8.6743  -17.3755 C   0  0  0  0  0  0  0  0  0  0  0  0
  -10.5836   -8.8804  -18.4451 O   0  0  0  0  0  0  0  0  0  0  0  0
   -9.7684  -10.0607  -15.7870 C   0  0  0  0  0  0  0  0  0  0  0  0
  -10.0573  -10.3752  -14.3225 C   0  0  0  0  0  0  0  0  0  0  0  0
  -11.4121   -9.7259  -14.0935 C   0  0  0  0  0  0  0  0  0  0  0  0
  -12.4575   -8.2450  -17.3086 N   0  0  0  0  0  0  0  0  0  0  0  0
  -13.4494   -8.6552  -18.3110 C   0  0  2  0  0  0  0  0  0  0  0  0
  -12.7389   -8.8713  -19.6818 C   0  0  0  0  0  0  0  0  0  0  0  0
  -13.1729   -9.6154  -20.5647 O   0  0  0  0  0  0  0  0  0  0  0  0
  -14.5703   -7.6118  -18.4709 C   0  0  0  0  0  0  0  0  0  0  0  0
  -15.3216   -7.1492  -17.2035 C   0  0  1  0  0  0  0  0  0  0  0  0
  -15.9337   -5.7578  -17.3537 C   0  0  0  0  0  0  0  0  0  0  0  0
  -16.3723   -8.1450  -16.7186 C   0  0  0  0  0  0  0  0  0  0  0  0
  -11.5140   -8.2682  -19.8003 N   0  0  0  0  0  0  0  0  0  0  0  0
  -10.4569   -8.7758  -20.6590 C   0  0  2  0  0  0  0  0  0  0  0  0
   -9.9488   -7.6395  -21.5733 C   0  0  0  0  0  0  0  0  0  0  0  0
  -10.6698   -6.7316  -21.9746 O   0  0  0  0  0  0  0  0  0  0  0  0
  -10.8761  -10.0099  -21.4843 C   0  0  0  0  0  0  0  0  0  0  0  0
  -12.2946  -10.9463  -20.8101 S   0  0  0  0  0  0  0  0  0  0  0  0
   -8.6120   -7.7310  -21.9125 N   0  0  0  0  0  0  0  0  0  0  0  0
   -7.6405   -6.8769  -21.2460 C   0  0  0  0  0  0  0  0  0  0  0  0
   -7.0080   -5.9275  -22.2726 C   0  0  0  0  0  0  0  0  0  0  0  0
   -6.5619   -4.8218  -21.9416 O   0  0  0  0  0  0  0  0  0  0  0  0
   -6.9442   -6.3597  -23.5799 N   0  0  0  0  0  0  0  0  0  0  0  0
   -6.1307   -7.4697  -24.0912 C   0  0  2  0  0  0  0  0  0  0  0  0
   -4.7017   -7.0599  -24.5182 C   0  0  0  0  0  0  0  0  0  0  0  0
   -3.9707   -7.8054  -25.1716 O   0  0  0  0  0  0  0  0  0  0  0  0
   -6.9251   -7.9745  -25.3067 C   0  0  0  0  0  0  0  0  0  0  0  0
   -7.6949   -6.7464  -25.7850 C   0  0  0  0  0  0  0  0  0  0  0  0
   -8.0263   -6.0237  -24.4943 C   0  0  0  0  0  0  0  0  0  0  0  0
   -4.3677   -5.7535  -24.2535 N   0  0  0  0  0  0  0  0  0  0  0  0
   -2.9756   -5.3090  -24.1964 C   0  0  2  0  0  0  0  0  0  0  0  0
   -2.0209   -6.4481  -24.5853 C   0  0  0  0  0  0  0  0  0  0  0  0
   -2.1374   -7.1038  -25.6197 O   0  0  0  0  0  0  0  0  0  0  0  0
   -2.6147   -4.7791  -22.8052 C   0  0  0  0  0  0  0  0  0  0  0  0
   -3.7097   -4.0290  -22.2726 O   0  0  0  0  0  0  0  0  0  0  0  0
   -0.9704   -6.6220  -23.7023 N   0  0  0  0  0  0  0  0  0  0  0  0
    0.4429   -6.5586  -24.1123 C   0  0  2  0  0  0  0  0  0  0  0  0
    1.1052   -7.9193  -23.7540 C   0  0  0  0  0  0  0  0  0  0  0  0
    2.2945   -8.1696  -23.9093 O   0  0  0  0  0  0  0  0  0  0  0  0
    1.1183   -5.3149  -23.5074 C   0  0  0  0  0  0  0  0  0  0  0  0
    2.5699   -5.4627  -23.0205 C   0  0  0  0  0  0  0  0  0  0  0  0
    3.6507   -5.2109  -24.0759 C   0  0  0  0  0  0  0  0  0  0  0  0
    3.0833   -4.3828  -25.1325 N   0  0  0  0  0  0  0  0  0  0  0  0
    3.6446   -3.2088  -25.5016 C   0  0  0  0  0  0  0  0  0  0  0  0
    4.1641   -2.9479  -26.6441 N   0  0  0  0  0  0  0  0  0  0  0  0
    3.5985   -2.3067  -24.5016 N   0  0  0  0  0  0  0  0  0  0  0  0
    0.1981   -8.8969  -23.3814 N   0  0  0  0  0  0  0  0  0  0  0  0
    0.2314   -9.5296  -22.0573 C   0  0  2  0  0  0  0  0  0  0  0  0
    1.5663  -10.2830  -21.8947 C   0  0  0  0  0  0  0  0  0  0  0  0
    2.6661   -9.7738  -22.0761 O   0  0  0  0  0  0  0  0  0  0  0  0
   -0.9653  -10.4460  -21.8424 C   0  0  0  0  0  0  0  0  0  0  0  0
    1.3897  -11.6261  -21.6204 N   0  0  0  0  0  0  0  0  0  0  0  0
    2.4068  -12.6256  -21.9816 C   0  0  2  0  0  0  0  0  0  0  0  0
    1.8012  -13.8521  -22.6830 C   0  0  0  0  0  0  0  0  0  0  0  0
    0.9465  -13.7521  -23.5575 O   0  0  0  0  0  0  0  0  0  0  0  0
    3.1386  -13.0888  -20.7151 C   0  0  0  0  0  0  0  0  0  0  0  0
    2.3392  -12.8538  -19.5432 O   0  0  0  0  0  0  0  0  0  0  0  0
    2.4228  -15.0461  -22.3902 N   0  0  0  0  0  0  0  0  0  0  0  0
    1.7286  -16.1821  -21.7729 C   0  0  2  0  0  0  0  0  0  0  0  0
    2.8026  -17.2938  -21.8030 C   0  0  0  0  0  0  0  0  0  0  0  0
    3.6172  -17.3662  -22.7290 O   0  0  0  0  0  0  0  0  0  0  0  0
    0.4615  -16.5578  -22.5856 C   0  0  2  0  0  0  0  0  0  0  0  0
    0.5781  -18.0111  -23.1116 C   0  0  0  0  0  0  0  0  0  0  0  0
    0.1888  -15.5674  -23.7296 C   0  0  0  0  0  0  0  0  0  0  0  0
   -0.1453  -18.2590  -24.4316 C   0  0  0  0  0  0  0  0  0  0  0  0
    2.7902  -18.1636  -20.7470 N   0  0  0  0  0  0  0  0  0  0  0  0
    1.5979  -18.9208  -20.3862 C   0  0  2  0  0  0  0  0  0  0  0  0
    1.3916  -20.0078  -21.4537 C   0  0  0  0  0  0  0  0  0  0  0  0
    1.7219  -19.8362  -22.6276 O   0  0  0  0  0  0  0  0  0  0  0  0
    0.3598  -18.0375  -20.1589 C   0  0  0  0  0  0  0  0  0  0  0  0
   -0.1483  -17.8902  -18.7070 C   0  0  1  0  0  0  0  0  0  0  0  0
   -1.4266  -17.0467  -18.6966 C   0  0  0  0  0  0  0  0  0  0  0  0
   -0.4215  -19.2286  -18.0169 C   0  0  0  0  0  0  0  0  0  0  0  0
    0.8168  -21.1731  -20.9964 N   0  0  0  0  0  0  0  0  0  0  0  0
    1.3666  -22.4652  -21.4306 C   0  0  2  0  0  0  0  0  0  0  0  0
    0.3961  -23.6308  -21.1528 C   0  0  0  0  0  0  0  0  0  0  0  0
   -0.7423  -23.4790  -20.7180 O   0  0  0  0  0  0  0  0  0  0  0  0
    2.7099  -22.7198  -20.7387 C   0  0  0  0  0  0  0  0  0  0  0  0
    3.6751  -21.7644  -21.2118 O   0  0  0  0  0  0  0  0  0  0  0  0
    0.9696  -24.8755  -21.3027 N   0  0  0  0  0  0  0  0  0  0  0  0
    0.1749  -26.0795  -21.4737 C   0  0  0  0  0  0  0  0  0  0  0  0
   -0.0382  -26.8212  -20.1643 C   0  0  0  0  0  0  0  0  0  0  0  0
   -0.8139  -27.9276  -20.2697 O   0  0  0  0  0  0  0  0  0  0  0  0
    0.4313  -26.5110  -19.0785 O   0  0  0  0  0  0  0  0  0  0  0  0
    4.5785   -3.8103  -27.0125 H   0  0  0  0  0  0  0  0  0  0  0  0
  1  2  2  0
  1  3  1  0
  1 10  1  0
  3  4  2  0
  3  9  1  0
  4  5  1  0
  4  6  1  0
  5  7  2  0
  7  8  1  0
  8  9  2  0
 10 11  1  0
 11 12  1  0
 11 14  1  1
 12 13  2  0
 12 15  1  0
 16 15  1  1
 16 17  1  0
 16 19  1  0
 17 18  2  0
 17 22  1  0
 19 20  1  0
 19 21  1  6
 23 22  1  6
 23 24  1  0
 23 26  1  0
 24 25  2  0
 24 29  1  0
 26 27  1  0
 26 28  1  6
 29 30  1  0
 29 35  1  0
 30 31  1  6
 30 33  1  0
 31 32  2  0
 31 36  1  0
 33 34  1  0
 34 35  1  0
 36 37  1  0
 37 38  1  0
 37 40  1  6
 38 39  2  0
 38 44  1  0
 40 41  1  0
 41 42  1  6
 41 43  1  0
 44 45  1  0
 45 46  1  0
 45 48  1  6
 46 47  2  0
 46 50  1  0
 48 49  1  0
 50 51  1  0
 51 52  1  0
 52 53  2  0
 52 54  1  0
 54 55  1  0
 54 60  1  0
 55 56  1  6
 55 58  1  0
 56 57  2  0
 56 61  1  0
 58 59  1  0
 59 60  1  0
 61 62  1  0
 62 63  1  0
 62 65  1  1
 63 64  2  0
 63 67  1  0
 65 66  1  0
 67 68  1  0
 68 69  1  0
 68 71  1  1
 69 70  2  0
 69 78  1  0
 71 72  1  0
 72 73  1  0
 73 74  1  0
 74 75  1  0
 75 76  2  0
 75 77  1  0
 78 79  1  0
 79 80  1  0
 79 82  1  6
 80 81  2  0
 80 83  1  0
 83 84  1  0
 84 85  1  0
 84 87  1  1
 85 86  2  0
 85 89  1  0
 87 88  1  0
 90 89  1  6
 90 91  1  0
 90 93  1  0
 91 92  2  0
 91 97  1  0
 93 94  1  0
 93 95  1  6
 94 96  1  0
 97 98  1  0
 98 99  1  0
 98101  1  6
 99100  2  0
 99105  1  0
101102  1  0
102103  1  6
102104  1  0
105106  1  0
106107  1  0
106109  1  1
107108  2  0
107111  1  0
109110  1  0
111112  1  0
112113  1  0
113114  1  0
113115  2  0
 76116  1  0
M  END
$$$$
