
     RDKit          3D

116118  0  0  0  0  0  0  0  0999 V2000
    1.1993    2.5821  -10.3337 C   0  0  0  0  0  0  0  0  0  0  0  0
    2.0636    2.9433   -9.5339 O   0  0  0  0  0  0  0  0  0  0  0  0
    1.0142    1.1366  -10.6415 C   0  0  0  0  0  0  0  0  0  0  0  0
    2.0137    0.2029  -10.3026 C   0  0  0  0  0  0  0  0  0  0  0  0
    1.8385   -1.1344  -10.6846 C   0  0  0  0  0  0  0  0  0  0  0  0
    3.2663    0.5952   -9.7810 N   0  0  0  0  0  0  0  0  0  0  0  0
    0.6584   -1.5554  -11.3097 C   0  0  0  0  0  0  0  0  0  0  0  0
   -0.3582   -0.6414  -11.5748 C   0  0  0  0  0  0  0  0  0  0  0  0
   -0.1796    0.6987  -11.2438 C   0  0  0  0  0  0  0  0  0  0  0  0
    0.4021    3.4610  -11.0514 N   0  0  0  0  0  0  0  0  0  0  0  0
    0.7364    4.8887  -11.1322 C   0  0  2  0  0  0  0  0  0  0  0  0
   -0.5073    5.7970  -11.2078 C   0  0  0  0  0  0  0  0  0  0  0  0
   -0.4225    7.0235  -11.2360 O   0  0  0  0  0  0  0  0  0  0  0  0
    1.6125    5.1383  -12.3538 C   0  0  0  0  0  0  0  0  0  0  0  0
   -1.7092    5.1530  -11.3961 N   0  0  0  0  0  0  0  0  0  0  0  0
   -2.7909    5.7182  -12.2248 C   0  0  2  0  0  0  0  0  0  0  0  0
   -4.1712    5.2085  -11.7573 C   0  0  0  0  0  0  0  0  0  0  0  0
   -4.8056    5.7158  -10.8328 O   0  0  0  0  0  0  0  0  0  0  0  0
   -2.5812    5.3990  -13.7214 C   0  0  2  0  0  0  0  0  0  0  0  0
   -1.6307    4.3298  -13.8635 O   0  0  0  0  0  0  0  0  0  0  0  0
   -2.0690    6.5981  -14.5127 C   0  0  0  0  0  0  0  0  0  0  0  0
   -4.5793    4.0649  -12.3876 N   0  0  0  0  0  0  0  0  0  0  0  0
   -5.8116    3.3419  -12.0612 C   0  0  2  0  0  0  0  0  0  0  0  0
   -6.0653    2.4381  -13.2840 C   0  0  0  0  0  0  0  0  0  0  0  0
   -6.1477    2.9321  -14.4163 O   0  0  0  0  0  0  0  0  0  0  0  0
   -6.9963    4.2865  -11.7671 C   0  0  2  0  0  0  0  0  0  0  0  0
   -8.0426    4.1084  -12.7306 O   0  0  0  0  0  0  0  0  0  0  0  0
   -6.5870    5.7578  -11.7941 C   0  0  0  0  0  0  0  0  0  0  0  0
   -6.1531    1.0786  -13.1080 N   0  0  0  0  0  0  0  0  0  0  0  0
   -5.8946    0.1863  -14.2353 C   0  0  2  0  0  0  0  0  0  0  0  0
   -7.0398    0.2508  -15.2641 C   0  0  0  0  0  0  0  0  0  0  0  0
   -7.8014    1.2063  -15.3615 O   0  0  0  0  0  0  0  0  0  0  0  0
   -5.8276   -1.2131  -13.6120 C   0  0  0  0  0  0  0  0  0  0  0  0
   -5.5973   -0.9600  -12.1254 C   0  0  0  0  0  0  0  0  0  0  0  0
   -6.3520    0.3356  -11.8777 C   0  0  0  0  0  0  0  0  0  0  0  0
   -7.2485   -0.9255  -15.9589 N   0  0  0  0  0  0  0  0  0  0  0  0
   -8.4337   -1.1147  -16.8054 C   0  0  2  0  0  0  0  0  0  0  0  0
   -8.3251   -2.4815  -17.5475 C   0  0  0  0  0  0  0  0  0  0  0  0
   -8.2256   -2.5860  -18.7725 O   0  0  0  0  0  0  0  0  0  0  0  0
   -8.5916    0.0192  -17.8350 C   0  0  0  0  0  0  0  0  0  0  0  0
   -7.3304    0.5081  -18.5797 C   0  0  1  0  0  0  0  0  0  0  0  0
   -6.1052    0.5981  -17.6719 C   0  0  0  0  0  0  0  0  0  0  0  0
   -7.0079   -0.3026  -19.8325 C   0  0  0  0  0  0  0  0  0  0  0  0
   -8.4745   -3.5864  -16.7505 N   0  0  0  0  0  0  0  0  0  0  0  0
   -8.5350   -4.9415  -17.2723 C   0  0  2  0  0  0  0  0  0  0  0  0
   -9.6726   -5.0404  -18.3122 C   0  0  0  0  0  0  0  0  0  0  0  0
   -9.9380   -4.1383  -19.1002 O   0  0  0  0  0  0  0  0  0  0  0  0
   -8.6877   -6.0154  -16.1753 C   0  0  0  0  0  0  0  0  0  0  0  0
   -9.5467   -5.4574  -14.6605 S   0  0  0  0  0  0  0  0  0  0  0  0
  -10.3777   -6.2288  -18.2793 N   0  0  0  0  0  0  0  0  0  0  0  0
  -10.9808   -6.7415  -19.5003 C   0  0  0  0  0  0  0  0  0  0  0  0
  -11.5200   -8.1558  -19.2470 C   0  0  0  0  0  0  0  0  0  0  0  0
  -11.2027   -8.7976  -18.2377 O   0  0  0  0  0  0  0  0  0  0  0  0
  -12.3842   -8.6814  -20.1834 N   0  0  0  0  0  0  0  0  0  0  0  0
  -12.8746  -10.0641  -20.2362 C   0  0  2  0  0  0  0  0  0  0  0  0
  -11.9668  -11.0251  -21.0391 C   0  0  0  0  0  0  0  0  0  0  0  0
  -11.5305  -10.7401  -22.1552 O   0  0  0  0  0  0  0  0  0  0  0  0
  -14.2482   -9.9383  -20.9150 C   0  0  0  0  0  0  0  0  0  0  0  0
  -14.1229   -8.6878  -21.7810 C   0  0  0  0  0  0  0  0  0  0  0  0
  -13.2337   -7.7825  -20.9517 C   0  0  0  0  0  0  0  0  0  0  0  0
  -11.5564  -12.1445  -20.3559 N   0  0  0  0  0  0  0  0  0  0  0  0
  -10.3059  -12.8307  -20.6784 C   0  0  2  0  0  0  0  0  0  0  0  0
  -10.0832  -12.8771  -22.1978 C   0  0  0  0  0  0  0  0  0  0  0  0
  -10.8088  -12.2979  -23.0050 O   0  0  0  0  0  0  0  0  0  0  0  0
  -10.2839  -14.2511  -20.1052 C   0  0  0  0  0  0  0  0  0  0  0  0
   -9.1236  -14.9448  -20.5720 O   0  0  0  0  0  0  0  0  0  0  0  0
   -8.9460  -13.5689  -22.5744 N   0  0  0  0  0  0  0  0  0  0  0  0
   -8.5177  -13.7081  -23.9769 C   0  0  2  0  0  0  0  0  0  0  0  0
   -8.2604  -15.2174  -24.2496 C   0  0  0  0  0  0  0  0  0  0  0  0
   -9.1418  -16.0367  -24.4797 O   0  0  0  0  0  0  0  0  0  0  0  0
   -7.3312  -12.7720  -24.2674 C   0  0  0  0  0  0  0  0  0  0  0  0
   -7.4000  -11.3434  -23.7010 C   0  0  0  0  0  0  0  0  0  0  0  0
   -6.1626  -10.8778  -22.9279 C   0  0  0  0  0  0  0  0  0  0  0  0
   -5.5020   -9.8308  -23.6969 N   0  0  0  0  0  0  0  0  0  0  0  0
   -4.2606   -9.3911  -23.3889 C   0  0  0  0  0  0  0  0  0  0  0  0
   -3.9030   -8.8599  -22.2783 N   0  0  0  0  0  0  0  0  0  0  0  0
   -3.4054   -9.5775  -24.4135 N   0  0  0  0  0  0  0  0  0  0  0  0
   -6.9435  -15.5995  -24.0568 N   0  0  0  0  0  0  0  0  0  0  0  0
   -5.8213  -14.6847  -24.2983 C   0  0  2  0  0  0  0  0  0  0  0  0
   -4.6321  -15.1047  -23.4122 C   0  0  0  0  0  0  0  0  0  0  0  0
   -3.6504  -14.4010  -23.2056 O   0  0  0  0  0  0  0  0  0  0  0  0
   -6.2183  -13.2340  -24.0622 C   0  0  0  0  0  0  0  0  0  0  0  0
   -4.7420  -16.4041  -22.9543 N   0  0  0  0  0  0  0  0  0  0  0  0
   -3.6642  -17.0421  -22.1828 C   0  0  2  0  0  0  0  0  0  0  0  0
   -3.1619  -18.3388  -22.8380 C   0  0  0  0  0  0  0  0  0  0  0  0
   -3.7115  -18.8351  -23.8163 O   0  0  0  0  0  0  0  0  0  0  0  0
   -4.1695  -17.3630  -20.7701 C   0  0  0  0  0  0  0  0  0  0  0  0
   -5.5955  -17.1998  -20.6836 O   0  0  0  0  0  0  0  0  0  0  0  0
   -1.9499  -18.7899  -22.3633 N   0  0  0  0  0  0  0  0  0  0  0  0
   -1.2324  -19.9285  -22.9483 C   0  0  2  0  0  0  0  0  0  0  0  0
   -1.6554  -21.1022  -22.0351 C   0  0  0  0  0  0  0  0  0  0  0  0
   -2.0829  -20.8981  -20.8941 O   0  0  0  0  0  0  0  0  0  0  0  0
    0.2990  -19.6812  -22.9271 C   0  0  2  0  0  0  0  0  0  0  0  0
    0.7127  -19.0180  -21.5888 C   0  0  0  0  0  0  0  0  0  0  0  0
    0.7717  -18.8529  -24.1333 C   0  0  0  0  0  0  0  0  0  0  0  0
   -0.2965  -18.0074  -21.0526 C   0  0  0  0  0  0  0  0  0  0  0  0
   -1.5338  -22.3528  -22.5765 N   0  0  0  0  0  0  0  0  0  0  0  0
   -2.0627  -23.5362  -21.9095 C   0  0  2  0  0  0  0  0  0  0  0  0
   -2.8781  -24.3316  -22.9420 C   0  0  0  0  0  0  0  0  0  0  0  0
   -3.0759  -23.9061  -24.0806 O   0  0  0  0  0  0  0  0  0  0  0  0
   -2.8427  -23.2144  -20.6238 C   0  0  0  0  0  0  0  0  0  0  0  0
   -2.0403  -23.1559  -19.3045 C   0  0  1  0  0  0  0  0  0  0  0  0
   -2.2208  -21.7794  -18.6579 C   0  0  0  0  0  0  0  0  0  0  0  0
   -2.4364  -24.2408  -18.3003 C   0  0  0  0  0  0  0  0  0  0  0  0
   -3.3613  -25.5422  -22.4966 N   0  0  0  0  0  0  0  0  0  0  0  0
   -3.6684  -26.5974  -23.4727 C   0  0  2  0  0  0  0  0  0  0  0  0
   -4.2820  -27.8443  -22.8045 C   0  0  0  0  0  0  0  0  0  0  0  0
   -3.6538  -28.5997  -22.0678 O   0  0  0  0  0  0  0  0  0  0  0  0
   -2.4004  -26.9808  -24.2428 C   0  0  0  0  0  0  0  0  0  0  0  0
   -1.3782  -27.3698  -23.3089 O   0  0  0  0  0  0  0  0  0  0  0  0
   -5.5675  -28.1183  -23.2204 N   0  0  0  0  0  0  0  0  0  0  0  0
   -5.9460  -28.1133  -24.6230 C   0  0  0  0  0  0  0  0  0  0  0  0
   -6.7826  -26.8990  -24.9908 C   0  0  0  0  0  0  0  0  0  0  0  0
   -8.0611  -27.1863  -25.3368 O   0  0  0  0  0  0  0  0  0  0  0  0
   -6.4035  -25.7362  -24.9820 O   0  0  0  0  0  0  0  0  0  0  0  0
   -4.7485   -8.6302  -21.7457 H   0  0  0  0  0  0  0  0  0  0  0  0
  1  2  2  0
  1  3  1  0
  1 10  1  0
  3  4  2  0
  3  9  1  0
  4  5  1  0
  4  6  1  0
  5  7  2  0
  7  8  1  0
  8  9  2  0
 10 11  1  0
 11 12  1  0
 11 14  1  6
 12 13  2  0
 12 15  1  0
 16 15  1  1
 16 17  1  0
 16 19  1  0
 17 18  2  0
 17 22  1  0
 19 20  1  0
 19 21  1  6
 23 22  1  6
 23 24  1  0
 23 26  1  0
 24 25  2  0
 24 29  1  0
 26 27  1  0
 26 28  1  6
 29 30  1  0
 29 35  1  0
 30 31  1  6
 30 33  1  0
 31 32  2  0
 31 36  1  0
 33 34  1  0
 34 35  1  0
 36 37  1  0
 37 38  1  0
 37 40  1  6
 38 39  2  0
 38 44  1  0
 40 41  1  0
 41 42  1  1
 41 43  1  0
 44 45  1  0
 45 46  1  0
 45 48  1  1
 46 47  2  0
 46 50  1  0
 48 49  1  0
 50 51  1  0
 51 52  1  0
 52 53  2  0
 52 54  1  0
 54 55  1  0
 54 60  1  0
 55 56  1  6
 55 58  1  0
 56 57  2  0
 56 61  1  0
 58 59  1  0
 59 60  1  0
 61 62  1  0
 62 63  1  0
 62 65  1  6
 63 64  2  0
 63 67  1  0
 65 66  1  0
 67 68  1  0
 68 69  1  0
 68 71  1  1
 69 70  2  0
 69 78  1  0
 71 72  1  0
 72 73  1  0
 73 74  1  0
 74 75  1  0
 75 76  2  0
 75 77  1  0
 78 79  1  0
 79 80  1  0
 79 82  1  1
 80 81  2  0
 80 83  1  0
 83 84  1  0
 84 85  1  0
 84 87  1  1
 85 86  2  0
 85 89  1  0
 87 88  1  0
 90 89  1  1
 90 91  1  0
 90 93  1  0
 91 92  2  0
 91 97  1  0
 93 94  1  0
 93 95  1  6
 94 96  1  0
 97 98  1  0
 98 99  1  0
 98101  1  1
 99100  2  0
 99105  1  0
101102  1  0
102103  1  1
102104  1  0
105106  1  0
106107  1  0
106109  1  1
107108  2  0
107111  1  0
109110  1  0
111112  1  0
112113  1  0
113114  1  0
113115  2  0
 76116  1  0
M  END
$$$$
