
     RDKit          3D

116118  0  0  0  0  0  0  0  0999 V2000
  -20.6661    0.1628  -26.0837 C   0  0  0  0  0  0  0  0  0  0  0  0
  -21.7961    0.0114  -25.6173 O   0  0  0  0  0  0  0  0  0  0  0  0
  -20.3579    1.3373  -26.9461 C   0  0  0  0  0  0  0  0  0  0  0  0
  -21.2765    2.4002  -27.0566 C   0  0  0  0  0  0  0  0  0  0  0  0
  -20.9870    3.4467  -27.9431 C   0  0  0  0  0  0  0  0  0  0  0  0
  -22.5605    2.3509  -26.4701 N   0  0  0  0  0  0  0  0  0  0  0  0
  -19.7723    3.4850  -28.6386 C   0  0  0  0  0  0  0  0  0  0  0  0
  -18.8353    2.4691  -28.4682 C   0  0  0  0  0  0  0  0  0  0  0  0
  -19.1283    1.3993  -27.6273 C   0  0  0  0  0  0  0  0  0  0  0  0
  -19.6381   -0.7530  -25.9175 N   0  0  0  0  0  0  0  0  0  0  0  0
  -19.8091   -1.9314  -25.0581 C   0  0  2  0  0  0  0  0  0  0  0  0
  -18.5507   -2.2634  -24.2310 C   0  0  0  0  0  0  0  0  0  0  0  0
  -17.4307   -1.8739  -24.5566 O   0  0  0  0  0  0  0  0  0  0  0  0
  -20.1769   -3.1371  -25.9142 C   0  0  0  0  0  0  0  0  0  0  0  0
  -18.7737   -2.8910  -23.0264 N   0  0  0  0  0  0  0  0  0  0  0  0
  -17.6765   -3.2904  -22.1248 C   0  0  2  0  0  0  0  0  0  0  0  0
  -16.7483   -4.3204  -22.8037 C   0  0  0  0  0  0  0  0  0  0  0  0
  -16.7278   -4.5203  -24.0179 O   0  0  0  0  0  0  0  0  0  0  0  0
  -18.2175   -3.8540  -20.7923 C   0  0  2  0  0  0  0  0  0  0  0  0
  -18.5906   -2.7729  -19.9212 O   0  0  0  0  0  0  0  0  0  0  0  0
  -17.1968   -4.7213  -20.0626 C   0  0  0  0  0  0  0  0  0  0  0  0
  -16.0278   -5.0790  -21.9221 N   0  0  0  0  0  0  0  0  0  0  0  0
  -14.6032   -5.3868  -22.0763 C   0  0  2  0  0  0  0  0  0  0  0  0
  -14.1786   -5.9502  -20.7056 C   0  0  0  0  0  0  0  0  0  0  0  0
  -14.3146   -5.2661  -19.6827 O   0  0  0  0  0  0  0  0  0  0  0  0
  -13.7699   -4.1569  -22.4949 C   0  0  2  0  0  0  0  0  0  0  0  0
  -13.4110   -4.2311  -23.8808 O   0  0  0  0  0  0  0  0  0  0  0  0
  -12.4794   -4.0275  -21.6884 C   0  0  0  0  0  0  0  0  0  0  0  0
  -13.6919   -7.2323  -20.6278 N   0  0  0  0  0  0  0  0  0  0  0  0
  -13.4874   -7.8491  -19.3195 C   0  0  2  0  0  0  0  0  0  0  0  0
  -12.2843   -7.2170  -18.5934 C   0  0  0  0  0  0  0  0  0  0  0  0
  -11.1206   -7.4219  -18.9192 O   0  0  0  0  0  0  0  0  0  0  0  0
  -13.1984   -9.3229  -19.6287 C   0  0  0  0  0  0  0  0  0  0  0  0
  -13.7110   -9.5238  -21.0514 C   0  0  0  0  0  0  0  0  0  0  0  0
  -13.4497   -8.1760  -21.7031 C   0  0  0  0  0  0  0  0  0  0  0  0
  -12.6114   -6.5321  -17.4385 N   0  0  0  0  0  0  0  0  0  0  0  0
  -11.5749   -6.0103  -16.5382 C   0  0  2  0  0  0  0  0  0  0  0  0
  -10.6390   -7.1767  -16.0976 C   0  0  0  0  0  0  0  0  0  0  0  0
  -11.0447   -8.2110  -15.5618 O   0  0  0  0  0  0  0  0  0  0  0  0
  -12.1809   -5.3378  -15.2927 C   0  0  0  0  0  0  0  0  0  0  0  0
  -12.9842   -4.0334  -15.4870 C   0  0  1  0  0  0  0  0  0  0  0  0
  -13.1492   -3.2419  -14.1909 C   0  0  0  0  0  0  0  0  0  0  0  0
  -12.4348   -3.1367  -16.5936 C   0  0  0  0  0  0  0  0  0  0  0  0
   -9.2984   -6.9253  -16.2316 N   0  0  0  0  0  0  0  0  0  0  0  0
   -8.4535   -7.6079  -17.1974 C   0  0  2  0  0  0  0  0  0  0  0  0
   -6.9715   -7.4190  -16.8060 C   0  0  0  0  0  0  0  0  0  0  0  0
   -6.2854   -6.4881  -17.2158 O   0  0  0  0  0  0  0  0  0  0  0  0
   -8.7061   -7.1666  -18.6538 C   0  0  0  0  0  0  0  0  0  0  0  0
   -8.3556   -5.4059  -19.0007 S   0  0  0  0  0  0  0  0  0  0  0  0
   -6.4736   -8.3917  -15.9595 N   0  0  0  0  0  0  0  0  0  0  0  0
   -5.0918   -8.8266  -16.0972 C   0  0  0  0  0  0  0  0  0  0  0  0
   -4.3693   -7.9174  -17.1003 C   0  0  0  0  0  0  0  0  0  0  0  0
   -4.4208   -6.6844  -17.0089 O   0  0  0  0  0  0  0  0  0  0  0  0
   -3.6478   -8.5283  -18.1035 N   0  0  0  0  0  0  0  0  0  0  0  0
   -3.2606   -9.9432  -18.1596 C   0  0  2  0  0  0  0  0  0  0  0  0
   -1.9118  -10.2557  -17.4702 C   0  0  0  0  0  0  0  0  0  0  0  0
   -1.4873   -9.5925  -16.5231 O   0  0  0  0  0  0  0  0  0  0  0  0
   -3.1690  -10.2369  -19.6658 C   0  0  0  0  0  0  0  0  0  0  0  0
   -2.8285   -8.8858  -20.2889 C   0  0  0  0  0  0  0  0  0  0  0  0
   -3.5865   -7.9040  -19.4174 C   0  0  0  0  0  0  0  0  0  0  0  0
   -1.3011  -11.4146  -17.8854 N   0  0  0  0  0  0  0  0  0  0  0  0
   -1.1452  -12.5661  -16.9972 C   0  0  2  0  0  0  0  0  0  0  0  0
   -1.4155  -13.8780  -17.7494 C   0  0  0  0  0  0  0  0  0  0  0  0
   -2.4461  -14.5357  -17.6120 O   0  0  0  0  0  0  0  0  0  0  0  0
   -2.0705  -12.4629  -15.7808 C   0  0  0  0  0  0  0  0  0  0  0  0
   -3.3069  -11.8536  -16.1618 O   0  0  0  0  0  0  0  0  0  0  0  0
   -0.4259  -14.2165  -18.6548 N   0  0  0  0  0  0  0  0  0  0  0  0
    1.0030  -14.2688  -18.3011 C   0  0  2  0  0  0  0  0  0  0  0  0
    1.3175  -15.7060  -17.7970 C   0  0  0  0  0  0  0  0  0  0  0  0
    0.4663  -16.5520  -17.5503 O   0  0  0  0  0  0  0  0  0  0  0  0
    1.3519  -13.1336  -17.3222 C   0  0  0  0  0  0  0  0  0  0  0  0
    1.2689  -11.6913  -17.8505 C   0  0  0  0  0  0  0  0  0  0  0  0
    1.1696  -11.5487  -19.3722 C   0  0  0  0  0  0  0  0  0  0  0  0
    2.4465  -11.9358  -19.9586 N   0  0  0  0  0  0  0  0  0  0  0  0
    3.2071  -11.0631  -20.6581 C   0  0  0  0  0  0  0  0  0  0  0  0
    2.9669  -10.6346  -21.8423 N   0  0  0  0  0  0  0  0  0  0  0  0
    4.2870  -10.6765  -19.9509 N   0  0  0  0  0  0  0  0  0  0  0  0
    2.6540  -15.9087  -17.4967 N   0  0  0  0  0  0  0  0  0  0  0  0
    3.1920  -17.2387  -17.1867 C   0  0  2  0  0  0  0  0  0  0  0  0
    3.6948  -17.2494  -15.7296 C   0  0  0  0  0  0  0  0  0  0  0  0
    4.2917  -16.3167  -15.2048 O   0  0  0  0  0  0  0  0  0  0  0  0
    4.2853  -17.6445  -18.1654 C   0  0  0  0  0  0  0  0  0  0  0  0
    3.4907  -18.4651  -15.1047 N   0  0  0  0  0  0  0  0  0  0  0  0
    3.2896  -19.7022  -15.8749 C   0  0  2  0  0  0  0  0  0  0  0  0
    1.9095  -19.7557  -16.5497 C   0  0  0  0  0  0  0  0  0  0  0  0
    1.2093  -18.7580  -16.6909 O   0  0  0  0  0  0  0  0  0  0  0  0
    3.4338  -20.9122  -14.9427 C   0  0  0  0  0  0  0  0  0  0  0  0
    4.6612  -20.8444  -14.1966 O   0  0  0  0  0  0  0  0  0  0  0  0
    1.6078  -20.9606  -17.1453 N   0  0  0  0  0  0  0  0  0  0  0  0
    0.3536  -21.6832  -16.9040 C   0  0  2  0  0  0  0  0  0  0  0  0
    0.8460  -23.0867  -16.4817 C   0  0  0  0  0  0  0  0  0  0  0  0
    1.5489  -23.2384  -15.4771 O   0  0  0  0  0  0  0  0  0  0  0  0
   -0.5143  -21.7200  -18.1894 C   0  0  2  0  0  0  0  0  0  0  0  0
   -1.9551  -21.2445  -17.8728 C   0  0  0  0  0  0  0  0  0  0  0  0
   -0.5145  -23.1074  -18.8523 C   0  0  0  0  0  0  0  0  0  0  0  0
   -2.0258  -20.0374  -16.9427 C   0  0  0  0  0  0  0  0  0  0  0  0
    0.4453  -24.1240  -17.2787 N   0  0  0  0  0  0  0  0  0  0  0  0
   -0.9621  -24.3854  -17.5539 C   0  0  2  0  0  0  0  0  0  0  0  0
   -1.1228  -25.8974  -17.7813 C   0  0  0  0  0  0  0  0  0  0  0  0
   -2.0496  -26.3590  -18.4481 O   0  0  0  0  0  0  0  0  0  0  0  0
   -1.5302  -23.5267  -18.6962 C   0  0  0  0  0  0  0  0  0  0  0  0
   -1.0259  -23.8262  -20.1258 C   0  0  1  0  0  0  0  0  0  0  0  0
    0.2597  -24.6550  -20.0504 C   0  0  0  0  0  0  0  0  0  0  0  0
   -2.0502  -24.5618  -20.9930 C   0  0  0  0  0  0  0  0  0  0  0  0
   -0.1588  -26.6824  -17.1880 N   0  0  0  0  0  0  0  0  0  0  0  0
   -0.5562  -27.6588  -16.1637 C   0  0  2  0  0  0  0  0  0  0  0  0
   -1.7151  -28.5581  -16.6391 C   0  0  0  0  0  0  0  0  0  0  0  0
   -2.2915  -29.3646  -15.9142 O   0  0  0  0  0  0  0  0  0  0  0  0
   -0.9472  -26.9312  -14.8731 C   0  0  0  0  0  0  0  0  0  0  0  0
   -2.2536  -26.3513  -15.0332 O   0  0  0  0  0  0  0  0  0  0  0  0
   -1.9567  -28.4786  -17.9940 N   0  0  0  0  0  0  0  0  0  0  0  0
   -2.2308  -29.6539  -18.8026 C   0  0  0  0  0  0  0  0  0  0  0  0
   -3.7046  -29.7844  -19.1502 C   0  0  0  0  0  0  0  0  0  0  0  0
   -4.0113  -30.8875  -19.8756 O   0  0  0  0  0  0  0  0  0  0  0  0
   -4.5911  -29.0077  -18.8236 O   0  0  0  0  0  0  0  0  0  0  0  0
    3.6953  -10.9948  -22.4676 H   0  0  0  0  0  0  0  0  0  0  0  0
  1  2  2  0
  1  3  1  0
  1 10  1  0
  3  4  2  0
  3  9  1  0
  4  5  1  0
  4  6  1  0
  5  7  2  0
  7  8  1  0
  8  9  2  0
 10 11  1  0
 11 12  1  0
 11 14  1  6
 12 13  2  0
 12 15  1  0
 16 15  1  6
 16 17  1  0
 16 19  1  0
 17 18  2  0
 17 22  1  0
 19 20  1  0
 19 21  1  1
 23 22  1  1
 23 24  1  0
 23 26  1  0
 24 25  2  0
 24 29  1  0
 26 27  1  0
 26 28  1  1
 29 30  1  0
 29 35  1  0
 30 31  1  6
 30 33  1  0
 31 32  2  0
 31 36  1  0
 33 34  1  0
 34 35  1  0
 36 37  1  0
 37 38  1  0
 37 40  1  1
 38 39  2  0
 38 44  1  0
 40 41  1  0
 41 42  1  1
 41 43  1  0
 44 45  1  0
 45 46  1  0
 45 48  1  6
 46 47  2  0
 46 50  1  0
 48 49  1  0
 50 51  1  0
 51 52  1  0
 52 53  2  0
 52 54  1  0
 54 55  1  0
 54 60  1  0
 55 56  1  1
 55 58  1  0
 56 57  2  0
 56 61  1  0
 58 59  1  0
 59 60  1  0
 61 62  1  0
 62 63  1  0
 62 65  1  1
 63 64  2  0
 63 67  1  0
 65 66  1  0
 67 68  1  0
 68 69  1  0
 68 71  1  1
 69 70  2  0
 69 78  1  0
 71 72  1  0
 72 73  1  0
 73 74  1  0
 74 75  1  0
 75 76  2  0
 75 77  1  0
 78 79  1  0
 79 80  1  0
 79 82  1  6
 80 81  2  0
 80 83  1  0
 83 84  1  0
 84 85  1  0
 84 87  1  1
 85 86  2  0
 85 89  1  0
 87 88  1  0
 90 89  1  6
 90 91  1  0
 90 93  1  0
 91 92  2  0
 91 97  1  0
 93 94  1  0
 93 95  1  1
 94 96  1  0
 97 98  1  0
 98 99  1  0
 98101  1  6
 99100  2  0
 99105  1  0
101102  1  0
102103  1  1
102104  1  0
105106  1  0
106107  1  0
106109  1  1
107108  2  0
107111  1  0
109110  1  0
111112  1  0
112113  1  0
113114  1  0
113115  2  0
 76116  1  0
M  END
$$$$
