
     RDKit          3D

116118  0  0  0  0  0  0  0  0999 V2000
  -26.8175  -10.1913  -19.1858 C   0  0  0  0  0  0  0  0  0  0  0  0
  -27.3521   -9.2710  -19.8059 O   0  0  0  0  0  0  0  0  0  0  0  0
  -27.6298  -11.3355  -18.6865 C   0  0  0  0  0  0  0  0  0  0  0  0
  -28.8459  -11.6725  -19.3136 C   0  0  0  0  0  0  0  0  0  0  0  0
  -29.6214  -12.7018  -18.7621 C   0  0  0  0  0  0  0  0  0  0  0  0
  -29.4071  -10.8846  -20.3428 N   0  0  0  0  0  0  0  0  0  0  0  0
  -29.1605  -13.4416  -17.6662 C   0  0  0  0  0  0  0  0  0  0  0  0
  -27.9229  -13.1531  -17.0970 C   0  0  0  0  0  0  0  0  0  0  0  0
  -27.1624  -12.1033  -17.6040 C   0  0  0  0  0  0  0  0  0  0  0  0
  -25.4741  -10.2066  -18.8420 N   0  0  0  0  0  0  0  0  0  0  0  0
  -24.5896   -9.0921  -19.2053 C   0  0  2  0  0  0  0  0  0  0  0  0
  -23.1257   -9.3183  -18.7768 C   0  0  0  0  0  0  0  0  0  0  0  0
  -22.8304   -9.8811  -17.7241 O   0  0  0  0  0  0  0  0  0  0  0  0
  -25.1032   -7.8060  -18.5695 C   0  0  0  0  0  0  0  0  0  0  0  0
  -22.1701   -8.9911  -19.7119 N   0  0  0  0  0  0  0  0  0  0  0  0
  -20.7412   -9.3098  -19.5311 C   0  0  2  0  0  0  0  0  0  0  0  0
  -20.0309   -8.2197  -18.6999 C   0  0  0  0  0  0  0  0  0  0  0  0
  -20.0517   -7.0235  -18.9887 O   0  0  0  0  0  0  0  0  0  0  0  0
  -20.0283   -9.4973  -20.8885 C   0  0  2  0  0  0  0  0  0  0  0  0
  -19.6810   -8.2151  -21.4382 O   0  0  0  0  0  0  0  0  0  0  0  0
  -20.8900  -10.2339  -21.9089 C   0  0  0  0  0  0  0  0  0  0  0  0
  -19.2751   -8.7144  -17.6724 N   0  0  0  0  0  0  0  0  0  0  0  0
  -18.5902   -7.8803  -16.6810 C   0  0  2  0  0  0  0  0  0  0  0  0
  -17.4517   -7.2007  -17.4674 C   0  0  0  0  0  0  0  0  0  0  0  0
  -16.9580   -7.7600  -18.4555 O   0  0  0  0  0  0  0  0  0  0  0  0
  -18.0735   -8.6923  -15.4742 C   0  0  2  0  0  0  0  0  0  0  0  0
  -18.3173  -10.0928  -15.6593 O   0  0  0  0  0  0  0  0  0  0  0  0
  -18.7400   -8.2751  -14.1648 C   0  0  0  0  0  0  0  0  0  0  0  0
  -17.0248   -5.9516  -17.0871 N   0  0  0  0  0  0  0  0  0  0  0  0
  -15.9549   -5.2954  -17.8344 C   0  0  2  0  0  0  0  0  0  0  0  0
  -14.5981   -5.9751  -17.5675 C   0  0  0  0  0  0  0  0  0  0  0  0
  -14.1071   -6.0771  -16.4491 O   0  0  0  0  0  0  0  0  0  0  0  0
  -15.9360   -3.8585  -17.2995 C   0  0  0  0  0  0  0  0  0  0  0  0
  -17.2914   -3.6839  -16.6216 C   0  0  0  0  0  0  0  0  0  0  0  0
  -17.5833   -5.0723  -16.0770 C   0  0  0  0  0  0  0  0  0  0  0  0
  -13.8961   -6.3136  -18.7088 N   0  0  0  0  0  0  0  0  0  0  0  0
  -12.5056   -6.7815  -18.6419 C   0  0  2  0  0  0  0  0  0  0  0  0
  -11.5435   -5.5676  -18.8185 C   0  0  0  0  0  0  0  0  0  0  0  0
  -11.9175   -4.3924  -18.7961 O   0  0  0  0  0  0  0  0  0  0  0  0
  -12.2027   -7.8395  -19.7187 C   0  0  0  0  0  0  0  0  0  0  0  0
  -12.8504   -7.6693  -21.1101 C   0  0  1  0  0  0  0  0  0  0  0  0
  -14.3770   -7.6741  -21.0564 C   0  0  0  0  0  0  0  0  0  0  0  0
  -12.3470   -6.4464  -21.8728 C   0  0  0  0  0  0  0  0  0  0  0  0
  -10.2496   -5.8950  -19.1301 N   0  0  0  0  0  0  0  0  0  0  0  0
   -9.0982   -5.1989  -18.5804 C   0  0  2  0  0  0  0  0  0  0  0  0
   -7.8147   -5.7000  -19.2783 C   0  0  0  0  0  0  0  0  0  0  0  0
   -6.7769   -5.9459  -18.6721 O   0  0  0  0  0  0  0  0  0  0  0  0
   -8.9824   -5.3200  -17.0469 C   0  0  0  0  0  0  0  0  0  0  0  0
   -8.9339   -7.0323  -16.4073 S   0  0  0  0  0  0  0  0  0  0  0  0
   -7.9257   -5.8425  -20.6487 N   0  0  0  0  0  0  0  0  0  0  0  0
   -6.7264   -6.0254  -21.4524 C   0  0  0  0  0  0  0  0  0  0  0  0
   -6.2538   -7.4809  -21.3380 C   0  0  0  0  0  0  0  0  0  0  0  0
   -6.5653   -8.1878  -20.3712 O   0  0  0  0  0  0  0  0  0  0  0  0
   -5.4765   -7.9770  -22.3626 N   0  0  0  0  0  0  0  0  0  0  0  0
   -4.1816   -8.6545  -22.2235 C   0  0  2  0  0  0  0  0  0  0  0  0
   -2.9661   -7.6981  -22.2254 C   0  0  0  0  0  0  0  0  0  0  0  0
   -2.9288   -6.6822  -22.9208 O   0  0  0  0  0  0  0  0  0  0  0  0
   -4.1257   -9.5885  -23.4432 C   0  0  0  0  0  0  0  0  0  0  0  0
   -4.9974   -8.8932  -24.4854 C   0  0  0  0  0  0  0  0  0  0  0  0
   -6.0932   -8.2604  -23.6507 C   0  0  0  0  0  0  0  0  0  0  0  0
   -2.0047   -7.9775  -21.2841 N   0  0  0  0  0  0  0  0  0  0  0  0
   -0.8465   -7.1077  -21.0818 C   0  0  2  0  0  0  0  0  0  0  0  0
    0.2052   -7.3327  -22.1788 C   0  0  0  0  0  0  0  0  0  0  0  0
   -0.0698   -7.7494  -23.3032 O   0  0  0  0  0  0  0  0  0  0  0  0
   -0.2162   -7.3279  -19.7031 C   0  0  0  0  0  0  0  0  0  0  0  0
   -0.2864   -6.1210  -18.9391 O   0  0  0  0  0  0  0  0  0  0  0  0
    1.4839   -6.9524  -21.8127 N   0  0  0  0  0  0  0  0  0  0  0  0
    2.6372   -7.0281  -22.7259 C   0  0  2  0  0  0  0  0  0  0  0  0
    3.3504   -8.3884  -22.4820 C   0  0  0  0  0  0  0  0  0  0  0  0
    2.8340   -9.4824  -22.6759 O   0  0  0  0  0  0  0  0  0  0  0  0
    3.5234   -5.7795  -22.5700 C   0  0  0  0  0  0  0  0  0  0  0  0
    4.8342   -5.7356  -23.3738 C   0  0  0  0  0  0  0  0  0  0  0  0
    4.7786   -4.9510  -24.6880 C   0  0  0  0  0  0  0  0  0  0  0  0
    4.2884   -5.8366  -25.7365 N   0  0  0  0  0  0  0  0  0  0  0  0
    5.1251   -6.4536  -26.6018 C   0  0  0  0  0  0  0  0  0  0  0  0
    4.9959   -7.6458  -27.0549 N   0  0  0  0  0  0  0  0  0  0  0  0
    6.1498   -5.6511  -26.9508 N   0  0  0  0  0  0  0  0  0  0  0  0
    4.5868   -8.2649  -21.8710 N   0  0  0  0  0  0  0  0  0  0  0  0
    5.0108   -9.1502  -20.7796 C   0  0  2  0  0  0  0  0  0  0  0  0
    4.2876  -10.5039  -20.9221 C   0  0  0  0  0  0  0  0  0  0  0  0
    3.1121  -10.6862  -20.6276 O   0  0  0  0  0  0  0  0  0  0  0  0
    4.7654   -8.5183  -19.4163 C   0  0  0  0  0  0  0  0  0  0  0  0
    5.1341  -11.5203  -21.3229 N   0  0  0  0  0  0  0  0  0  0  0  0
    4.9400  -12.9068  -20.8713 C   0  0  2  0  0  0  0  0  0  0  0  0
    5.6734  -13.2027  -19.5531 C   0  0  0  0  0  0  0  0  0  0  0  0
    6.1672  -12.3159  -18.8638 O   0  0  0  0  0  0  0  0  0  0  0  0
    5.4501  -13.8706  -21.9505 C   0  0  0  0  0  0  0  0  0  0  0  0
    6.8866  -13.8589  -22.0144 O   0  0  0  0  0  0  0  0  0  0  0  0
    5.5680  -14.5052  -19.1172 N   0  0  0  0  0  0  0  0  0  0  0  0
    5.7972  -14.9064  -17.7244 C   0  0  2  0  0  0  0  0  0  0  0  0
    6.4372  -16.3058  -17.8748 C   0  0  0  0  0  0  0  0  0  0  0  0
    5.9457  -17.2930  -17.3178 O   0  0  0  0  0  0  0  0  0  0  0  0
    4.4605  -14.9457  -16.9379 C   0  0  2  0  0  0  0  0  0  0  0  0
    3.3109  -15.4158  -17.8651 C   0  0  0  0  0  0  0  0  0  0  0  0
    4.1330  -13.5958  -16.2787 C   0  0  0  0  0  0  0  0  0  0  0  0
    3.6103  -15.2749  -19.3543 C   0  0  0  0  0  0  0  0  0  0  0  0
    7.5551  -16.3690  -18.6610 N   0  0  0  0  0  0  0  0  0  0  0  0
    7.8304  -17.5151  -19.5187 C   0  0  2  0  0  0  0  0  0  0  0  0
    8.7709  -18.4594  -18.7522 C   0  0  0  0  0  0  0  0  0  0  0  0
    8.7956  -18.4931  -17.5214 O   0  0  0  0  0  0  0  0  0  0  0  0
    8.3512  -17.1237  -20.9116 C   0  0  0  0  0  0  0  0  0  0  0  0
    7.5122  -17.5661  -22.1316 C   0  0  1  0  0  0  0  0  0  0  0  0
    6.0445  -17.7067  -21.7179 C   0  0  0  0  0  0  0  0  0  0  0  0
    7.6116  -16.6078  -23.3208 C   0  0  0  0  0  0  0  0  0  0  0  0
    9.5712  -19.2542  -19.5430 N   0  0  0  0  0  0  0  0  0  0  0  0
   10.8944  -19.6606  -19.0486 C   0  0  2  0  0  0  0  0  0  0  0  0
   11.6922  -20.4475  -20.1078 C   0  0  0  0  0  0  0  0  0  0  0  0
   11.1791  -20.9826  -21.0869 O   0  0  0  0  0  0  0  0  0  0  0  0
   10.7408  -20.4969  -17.7739 C   0  0  0  0  0  0  0  0  0  0  0  0
   10.8846  -21.8900  -18.1010 O   0  0  0  0  0  0  0  0  0  0  0  0
   13.0212  -20.6190  -19.7842 N   0  0  0  0  0  0  0  0  0  0  0  0
   14.0055  -19.5663  -19.9668 C   0  0  0  0  0  0  0  0  0  0  0  0
   14.0015  -19.0115  -21.3817 C   0  0  0  0  0  0  0  0  0  0  0  0
   13.6871  -17.6958  -21.4643 O   0  0  0  0  0  0  0  0  0  0  0  0
   14.2641  -19.6372  -22.3993 O   0  0  0  0  0  0  0  0  0  0  0  0
    4.3520   -7.6178  -27.8524 H   0  0  0  0  0  0  0  0  0  0  0  0
  1  2  2  0
  1  3  1  0
  1 10  1  0
  3  4  2  0
  3  9  1  0
  4  5  1  0
  4  6  1  0
  5  7  2  0
  7  8  1  0
  8  9  2  0
 10 11  1  0
 11 12  1  0
 11 14  1  1
 12 13  2  0
 12 15  1  0
 16 15  1  6
 16 17  1  0
 16 19  1  0
 17 18  2  0
 17 22  1  0
 19 20  1  0
 19 21  1  6
 23 22  1  6
 23 24  1  0
 23 26  1  0
 24 25  2  0
 24 29  1  0
 26 27  1  0
 26 28  1  1
 29 30  1  0
 29 35  1  0
 30 31  1  1
 30 33  1  0
 31 32  2  0
 31 36  1  0
 33 34  1  0
 34 35  1  0
 36 37  1  0
 37 38  1  0
 37 40  1  6
 38 39  2  0
 38 44  1  0
 40 41  1  0
 41 42  1  1
 41 43  1  0
 44 45  1  0
 45 46  1  0
 45 48  1  1
 46 47  2  0
 46 50  1  0
 48 49  1  0
 50 51  1  0
 51 52  1  0
 52 53  2  0
 52 54  1  0
 54 55  1  0
 54 60  1  0
 55 56  1  6
 55 58  1  0
 56 57  2  0
 56 61  1  0
 58 59  1  0
 59 60  1  0
 61 62  1  0
 62 63  1  0
 62 65  1  1
 63 64  2  0
 63 67  1  0
 65 66  1  0
 67 68  1  0
 68 69  1  0
 68 71  1  1
 69 70  2  0
 69 78  1  0
 71 72  1  0
 72 73  1  0
 73 74  1  0
 74 75  1  0
 75 76  2  0
 75 77  1  0
 78 79  1  0
 79 80  1  0
 79 82  1  1
 80 81  2  0
 80 83  1  0
 83 84  1  0
 84 85  1  0
 84 87  1  6
 85 86  2  0
 85 89  1  0
 87 88  1  0
 90 89  1  6
 90 91  1  0
 90 93  1  0
 91 92  2  0
 91 97  1  0
 93 94  1  0
 93 95  1  6
 94 96  1  0
 97 98  1  0
 98 99  1  0
 98101  1  6
 99100  2  0
 99105  1  0
101102  1  0
102103  1  1
102104  1  0
105106  1  0
106107  1  0
106109  1  1
107108  2  0
107111  1  0
109110  1  0
111112  1  0
112113  1  0
113114  1  0
113115  2  0
 76116  1  0
M  END
$$$$
