
     RDKit          3D

116118  0  0  0  0  0  0  0  0999 V2000
  -23.0787   -6.4202  -13.4242 C   0  0  0  0  0  0  0  0  0  0  0  0
  -23.7813   -5.6092  -14.0291 O   0  0  0  0  0  0  0  0  0  0  0  0
  -23.5544   -7.0265  -12.1497 C   0  0  0  0  0  0  0  0  0  0  0  0
  -24.8856   -6.8409  -11.7263 C   0  0  0  0  0  0  0  0  0  0  0  0
  -25.2706   -7.3564  -10.4809 C   0  0  0  0  0  0  0  0  0  0  0  0
  -25.7811   -5.9866  -12.4070 N   0  0  0  0  0  0  0  0  0  0  0  0
  -24.3818   -8.1167   -9.7111 C   0  0  0  0  0  0  0  0  0  0  0  0
  -23.0898   -8.3605  -10.1697 C   0  0  0  0  0  0  0  0  0  0  0  0
  -22.6779   -7.8157  -11.3825 C   0  0  0  0  0  0  0  0  0  0  0  0
  -21.7965   -6.7704  -13.8200 N   0  0  0  0  0  0  0  0  0  0  0  0
  -21.2094   -6.2201  -15.0483 C   0  0  2  0  0  0  0  0  0  0  0  0
  -20.3753   -7.2520  -15.8340 C   0  0  0  0  0  0  0  0  0  0  0  0
  -19.5646   -7.9951  -15.2839 O   0  0  0  0  0  0  0  0  0  0  0  0
  -20.3287   -5.0259  -14.7013 C   0  0  0  0  0  0  0  0  0  0  0  0
  -20.7012   -7.3988  -17.1633 N   0  0  0  0  0  0  0  0  0  0  0  0
  -19.7641   -7.9647  -18.1521 C   0  0  2  0  0  0  0  0  0  0  0  0
  -18.4253   -7.1958  -18.1504 C   0  0  0  0  0  0  0  0  0  0  0  0
  -17.9862   -6.5937  -19.1299 O   0  0  0  0  0  0  0  0  0  0  0  0
  -20.3758   -7.9713  -19.5705 C   0  0  2  0  0  0  0  0  0  0  0  0
  -21.7903   -7.7268  -19.4926 O   0  0  0  0  0  0  0  0  0  0  0  0
  -20.1618   -9.2949  -20.2974 C   0  0  0  0  0  0  0  0  0  0  0  0
  -17.7087   -7.3385  -16.9938 N   0  0  0  0  0  0  0  0  0  0  0  0
  -16.3824   -6.7557  -16.7719 C   0  0  2  0  0  0  0  0  0  0  0  0
  -15.5289   -7.2790  -17.9442 C   0  0  0  0  0  0  0  0  0  0  0  0
  -15.8175   -8.3499  -18.4944 O   0  0  0  0  0  0  0  0  0  0  0  0
  -15.7906   -7.1285  -15.3960 C   0  0  2  0  0  0  0  0  0  0  0  0
  -16.4816   -6.4466  -14.3413 O   0  0  0  0  0  0  0  0  0  0  0  0
  -14.3093   -6.7730  -15.2850 C   0  0  0  0  0  0  0  0  0  0  0  0
  -14.4757   -6.5230  -18.3984 N   0  0  0  0  0  0  0  0  0  0  0  0
  -13.6173   -7.0440  -19.4593 C   0  0  2  0  0  0  0  0  0  0  0  0
  -12.7294   -8.1902  -18.9379 C   0  0  0  0  0  0  0  0  0  0  0  0
  -11.8508   -8.0298  -18.0982 O   0  0  0  0  0  0  0  0  0  0  0  0
  -12.7460   -5.8512  -19.8711 C   0  0  0  0  0  0  0  0  0  0  0  0
  -13.4877   -4.6312  -19.3339 C   0  0  0  0  0  0  0  0  0  0  0  0
  -14.1309   -5.1547  -18.0604 C   0  0  0  0  0  0  0  0  0  0  0  0
  -12.8869   -9.3855  -19.6133 N   0  0  0  0  0  0  0  0  0  0  0  0
  -12.0880  -10.5694  -19.2711 C   0  0  2  0  0  0  0  0  0  0  0  0
  -10.5869  -10.1640  -19.1578 C   0  0  0  0  0  0  0  0  0  0  0  0
   -9.7780  -10.2794  -20.0819 O   0  0  0  0  0  0  0  0  0  0  0  0
  -12.2416  -11.6885  -20.3174 C   0  0  0  0  0  0  0  0  0  0  0  0
  -11.2224  -11.7479  -21.4759 C   0  0  1  0  0  0  0  0  0  0  0  0
   -9.7875  -11.9479  -20.9916 C   0  0  0  0  0  0  0  0  0  0  0  0
  -11.5732  -12.7790  -22.5458 C   0  0  0  0  0  0  0  0  0  0  0  0
  -10.1841   -9.7796  -17.9055 N   0  0  0  0  0  0  0  0  0  0  0  0
   -9.2186   -8.7188  -17.6710 C   0  0  2  0  0  0  0  0  0  0  0  0
   -7.8275   -9.3390  -17.4148 C   0  0  0  0  0  0  0  0  0  0  0  0
   -7.6402  -10.2555  -16.6210 O   0  0  0  0  0  0  0  0  0  0  0  0
   -9.6217   -7.7634  -16.5288 C   0  0  0  0  0  0  0  0  0  0  0  0
   -9.5250   -8.4805  -14.8496 S   0  0  0  0  0  0  0  0  0  0  0  0
   -6.8028   -8.7711  -18.1483 N   0  0  0  0  0  0  0  0  0  0  0  0
   -6.5420   -9.2385  -19.5015 C   0  0  0  0  0  0  0  0  0  0  0  0
   -5.6486  -10.4851  -19.4465 C   0  0  0  0  0  0  0  0  0  0  0  0
   -6.1163  -11.6223  -19.5849 O   0  0  0  0  0  0  0  0  0  0  0  0
   -4.2987  -10.2888  -19.2486 N   0  0  0  0  0  0  0  0  0  0  0  0
   -3.3554   -9.6976  -20.2056 C   0  0  2  0  0  0  0  0  0  0  0  0
   -2.7149  -10.7201  -21.1734 C   0  0  0  0  0  0  0  0  0  0  0  0
   -3.3439  -11.6734  -21.6346 O   0  0  0  0  0  0  0  0  0  0  0  0
   -2.2775   -9.0639  -19.3113 C   0  0  0  0  0  0  0  0  0  0  0  0
   -2.3082   -9.9046  -18.0378 C   0  0  0  0  0  0  0  0  0  0  0  0
   -3.7765  -10.2518  -17.8900 C   0  0  0  0  0  0  0  0  0  0  0  0
   -1.4490  -10.4010  -21.6023 N   0  0  0  0  0  0  0  0  0  0  0  0
   -1.1436  -10.1889  -23.0167 C   0  0  2  0  0  0  0  0  0  0  0  0
    0.1929   -9.4500  -23.1832 C   0  0  0  0  0  0  0  0  0  0  0  0
    0.2896   -8.2236  -23.1990 O   0  0  0  0  0  0  0  0  0  0  0  0
   -2.2603   -9.4102  -23.7189 C   0  0  0  0  0  0  0  0  0  0  0  0
   -1.8355   -9.0290  -25.0302 O   0  0  0  0  0  0  0  0  0  0  0  0
    1.2915  -10.2889  -23.2386 N   0  0  0  0  0  0  0  0  0  0  0  0
    1.8282  -10.8278  -24.5000 C   0  0  2  0  0  0  0  0  0  0  0  0
    3.2087  -10.1589  -24.7556 C   0  0  0  0  0  0  0  0  0  0  0  0
    3.3925   -9.2337  -25.5374 O   0  0  0  0  0  0  0  0  0  0  0  0
    0.7961  -10.6670  -25.6304 C   0  0  0  0  0  0  0  0  0  0  0  0
    0.5790  -11.8669  -26.5681 C   0  0  0  0  0  0  0  0  0  0  0  0
    1.8314  -12.3839  -27.2821 C   0  0  0  0  0  0  0  0  0  0  0  0
    1.9655  -11.6801  -28.5513 N   0  0  0  0  0  0  0  0  0  0  0  0
    1.5161  -12.2069  -29.7132 C   0  0  0  0  0  0  0  0  0  0  0  0
    0.3413  -12.0577  -30.2040 N   0  0  0  0  0  0  0  0  0  0  0  0
    2.4717  -12.9343  -30.3245 N   0  0  0  0  0  0  0  0  0  0  0  0
    4.2624  -10.8051  -24.1316 N   0  0  0  0  0  0  0  0  0  0  0  0
    5.3731  -10.0710  -23.5134 C   0  0  2  0  0  0  0  0  0  0  0  0
    6.6980  -10.7751  -23.8666 C   0  0  0  0  0  0  0  0  0  0  0  0
    6.7678  -11.8408  -24.4674 O   0  0  0  0  0  0  0  0  0  0  0  0
    5.1881   -9.9353  -22.0083 C   0  0  0  0  0  0  0  0  0  0  0  0
    7.8012  -10.1271  -23.3437 N   0  0  0  0  0  0  0  0  0  0  0  0
    8.6191  -10.7343  -22.2824 C   0  0  2  0  0  0  0  0  0  0  0  0
    7.8953  -10.7609  -20.9264 C   0  0  0  0  0  0  0  0  0  0  0  0
    8.4956  -10.8964  -19.8650 O   0  0  0  0  0  0  0  0  0  0  0  0
    9.9265   -9.9455  -22.1320 C   0  0  0  0  0  0  0  0  0  0  0  0
    9.7580   -8.8355  -21.2336 O   0  0  0  0  0  0  0  0  0  0  0  0
    6.5583  -10.4340  -20.9828 N   0  0  0  0  0  0  0  0  0  0  0  0
    5.6466  -10.5849  -19.8428 C   0  0  2  0  0  0  0  0  0  0  0  0
    5.2623   -9.1226  -19.5193 C   0  0  0  0  0  0  0  0  0  0  0  0
    6.1239   -8.2910  -19.2154 O   0  0  0  0  0  0  0  0  0  0  0  0
    6.3610  -11.2874  -18.6584 C   0  0  2  0  0  0  0  0  0  0  0  0
    7.7008  -10.5736  -18.3458 C   0  0  0  0  0  0  0  0  0  0  0  0
    6.5718  -12.7890  -18.9137 C   0  0  0  0  0  0  0  0  0  0  0  0
    8.7543  -10.7122  -19.4403 C   0  0  0  0  0  0  0  0  0  0  0  0
    3.9298   -8.8236  -19.6034 N   0  0  0  0  0  0  0  0  0  0  0  0
    3.4138   -7.5023  -19.2675 C   0  0  2  0  0  0  0  0  0  0  0  0
    1.9166   -7.4809  -19.6161 C   0  0  0  0  0  0  0  0  0  0  0  0
    1.4496   -6.6787  -20.4254 O   0  0  0  0  0  0  0  0  0  0  0  0
    4.2121   -6.3545  -19.9079 C   0  0  0  0  0  0  0  0  0  0  0  0
    4.6927   -6.5518  -21.3632 C   0  0  1  0  0  0  0  0  0  0  0  0
    6.1744   -6.9391  -21.3635 C   0  0  0  0  0  0  0  0  0  0  0  0
    3.8951   -7.6080  -22.1318 C   0  0  0  0  0  0  0  0  0  0  0  0
    1.1512   -8.4195  -18.9599 N   0  0  0  0  0  0  0  0  0  0  0  0
    0.1308   -9.1669  -19.7087 C   0  0  2  0  0  0  0  0  0  0  0  0
    0.0208   -8.6910  -21.1713 C   0  0  0  0  0  0  0  0  0  0  0  0
   -0.3835   -7.5777  -21.4957 O   0  0  0  0  0  0  0  0  0  0  0  0
   -1.2264   -9.0413  -19.0088 C   0  0  0  0  0  0  0  0  0  0  0  0
   -1.2008   -9.7982  -17.7861 O   0  0  0  0  0  0  0  0  0  0  0  0
    0.2843   -9.6793  -22.0956 N   0  0  0  0  0  0  0  0  0  0  0  0
   -0.5214  -10.8842  -22.1930 C   0  0  0  0  0  0  0  0  0  0  0  0
   -1.7506  -10.6877  -23.0651 C   0  0  0  0  0  0  0  0  0  0  0  0
   -1.7443  -11.4133  -24.2098 O   0  0  0  0  0  0  0  0  0  0  0  0
   -2.7045   -9.9662  -22.8098 O   0  0  0  0  0  0  0  0  0  0  0  0
    0.1326  -11.0544  -30.2372 H   0  0  0  0  0  0  0  0  0  0  0  0
  1  2  2  0
  1  3  1  0
  1 10  1  0
  3  4  2  0
  3  9  1  0
  4  5  1  0
  4  6  1  0
  5  7  2  0
  7  8  1  0
  8  9  2  0
 10 11  1  0
 11 12  1  0
 11 14  1  1
 12 13  2  0
 12 15  1  0
 16 15  1  1
 16 17  1  0
 16 19  1  0
 17 18  2  0
 17 22  1  0
 19 20  1  0
 19 21  1  1
 23 22  1  6
 23 24  1  0
 23 26  1  0
 24 25  2  0
 24 29  1  0
 26 27  1  0
 26 28  1  6
 29 30  1  0
 29 35  1  0
 30 31  1  1
 30 33  1  0
 31 32  2  0
 31 36  1  0
 33 34  1  0
 34 35  1  0
 36 37  1  0
 37 38  1  0
 37 40  1  6
 38 39  2  0
 38 44  1  0
 40 41  1  0
 41 42  1  1
 41 43  1  0
 44 45  1  0
 45 46  1  0
 45 48  1  1
 46 47  2  0
 46 50  1  0
 48 49  1  0
 50 51  1  0
 51 52  1  0
 52 53  2  0
 52 54  1  0
 54 55  1  0
 54 60  1  0
 55 56  1  6
 55 58  1  0
 56 57  2  0
 56 61  1  0
 58 59  1  0
 59 60  1  0
 61 62  1  0
 62 63  1  0
 62 65  1  1
 63 64  2  0
 63 67  1  0
 65 66  1  0
 67 68  1  0
 68 69  1  0
 68 71  1  6
 69 70  2  0
 69 78  1  0
 71 72  1  0
 72 73  1  0
 73 74  1  0
 74 75  1  0
 75 76  2  0
 75 77  1  0
 78 79  1  0
 79 80  1  0
 79 82  1  1
 80 81  2  0
 80 83  1  0
 83 84  1  0
 84 85  1  0
 84 87  1  1
 85 86  2  0
 85 89  1  0
 87 88  1  0
 90 89  1  6
 90 91  1  0
 90 93  1  0
 91 92  2  0
 91 97  1  0
 93 94  1  0
 93 95  1  6
 94 96  1  0
 97 98  1  0
 98 99  1  0
 98101  1  6
 99100  2  0
 99105  1  0
101102  1  0
102103  1  1
102104  1  0
105106  1  0
106107  1  0
106109  1  1
107108  2  0
107111  1  0
109110  1  0
111112  1  0
112113  1  0
113114  1  0
113115  2  0
 76116  1  0
M  END
$$$$
