
     RDKit          3D

116118  0  0  0  0  0  0  0  0999 V2000
   -1.0160  -18.9219  -13.1471 C   0  0  0  0  0  0  0  0  0  0  0  0
   -1.0171  -18.3386  -14.2320 O   0  0  0  0  0  0  0  0  0  0  0  0
    0.0462  -19.9154  -12.8267 C   0  0  0  0  0  0  0  0  0  0  0  0
    1.0330  -20.2353  -13.7805 C   0  0  0  0  0  0  0  0  0  0  0  0
    1.9645  -21.2361  -13.4712 C   0  0  0  0  0  0  0  0  0  0  0  0
    0.9938  -19.7376  -15.1018 N   0  0  0  0  0  0  0  0  0  0  0  0
    1.9743  -21.8448  -12.2101 C   0  0  0  0  0  0  0  0  0  0  0  0
    1.0431  -21.4709  -11.2447 C   0  0  0  0  0  0  0  0  0  0  0  0
    0.0824  -20.5121  -11.5529 C   0  0  0  0  0  0  0  0  0  0  0  0
   -2.0103  -18.7692  -12.1925 N   0  0  0  0  0  0  0  0  0  0  0  0
   -3.1138  -17.8222  -12.3974 C   0  0  2  0  0  0  0  0  0  0  0  0
   -2.6344  -16.4163  -12.8115 C   0  0  0  0  0  0  0  0  0  0  0  0
   -1.9347  -15.7200  -12.0782 O   0  0  0  0  0  0  0  0  0  0  0  0
   -3.9356  -17.7134  -11.1187 C   0  0  0  0  0  0  0  0  0  0  0  0
   -2.9070  -16.0484  -14.1095 N   0  0  0  0  0  0  0  0  0  0  0  0
   -3.3969  -14.7036  -14.4668 C   0  0  2  0  0  0  0  0  0  0  0  0
   -4.9016  -14.5601  -14.1523 C   0  0  0  0  0  0  0  0  0  0  0  0
   -5.6917  -15.5036  -14.1659 O   0  0  0  0  0  0  0  0  0  0  0  0
   -3.1276  -14.3810  -15.9532 C   0  0  2  0  0  0  0  0  0  0  0  0
   -1.7175  -14.4595  -16.2216 O   0  0  0  0  0  0  0  0  0  0  0  0
   -3.6100  -12.9896  -16.3501 C   0  0  0  0  0  0  0  0  0  0  0  0
   -5.3058  -13.2660  -13.9689 N   0  0  0  0  0  0  0  0  0  0  0  0
   -5.2856  -12.5743  -12.6771 C   0  0  2  0  0  0  0  0  0  0  0  0
   -4.9612  -11.1087  -13.0281 C   0  0  0  0  0  0  0  0  0  0  0  0
   -3.9151  -10.8297  -13.6286 O   0  0  0  0  0  0  0  0  0  0  0  0
   -4.2688  -13.1857  -11.6898 C   0  0  2  0  0  0  0  0  0  0  0  0
   -3.5675  -14.2811  -12.2923 O   0  0  0  0  0  0  0  0  0  0  0  0
   -4.9348  -13.7057  -10.4174 C   0  0  0  0  0  0  0  0  0  0  0  0
   -5.8652  -10.1252  -12.7079 N   0  0  0  0  0  0  0  0  0  0  0  0
   -6.9334   -9.7925  -13.6471 C   0  0  2  0  0  0  0  0  0  0  0  0
   -6.3756   -9.0505  -14.8769 C   0  0  0  0  0  0  0  0  0  0  0  0
   -5.5512   -8.1468  -14.7985 O   0  0  0  0  0  0  0  0  0  0  0  0
   -7.8682   -8.8691  -12.8567 C   0  0  0  0  0  0  0  0  0  0  0  0
   -7.5049   -9.1153  -11.3957 C   0  0  0  0  0  0  0  0  0  0  0  0
   -6.0142   -9.4042  -11.4575 C   0  0  0  0  0  0  0  0  0  0  0  0
   -7.0021   -9.3687  -16.0669 N   0  0  0  0  0  0  0  0  0  0  0  0
   -6.6355   -8.7072  -17.3259 C   0  0  2  0  0  0  0  0  0  0  0  0
   -7.0151   -7.1973  -17.2453 C   0  0  0  0  0  0  0  0  0  0  0  0
   -6.4009   -6.3756  -16.5604 O   0  0  0  0  0  0  0  0  0  0  0  0
   -7.3349   -9.3500  -18.5377 C   0  0  0  0  0  0  0  0  0  0  0  0
   -8.2037  -10.6038  -18.2972 C   0  0  1  0  0  0  0  0  0  0  0  0
   -7.3734  -11.8743  -18.1242 C   0  0  0  0  0  0  0  0  0  0  0  0
   -9.1913  -10.4505  -17.1432 C   0  0  0  0  0  0  0  0  0  0  0  0
   -8.1710   -6.8555  -17.8975 N   0  0  0  0  0  0  0  0  0  0  0  0
   -8.2817   -5.6944  -18.7648 C   0  0  2  0  0  0  0  0  0  0  0  0
   -9.6954   -5.6507  -19.3852 C   0  0  0  0  0  0  0  0  0  0  0  0
   -9.9896   -4.9219  -20.3273 O   0  0  0  0  0  0  0  0  0  0  0  0
   -7.1923   -5.6371  -19.8556 C   0  0  0  0  0  0  0  0  0  0  0  0
   -7.2334   -4.1456  -20.9126 S   0  0  0  0  0  0  0  0  0  0  0  0
  -10.6106   -6.4959  -18.7865 N   0  0  0  0  0  0  0  0  0  0  0  0
  -11.0595   -7.6865  -19.4925 C   0  0  0  0  0  0  0  0  0  0  0  0
  -12.2583   -7.3297  -20.3816 C   0  0  0  0  0  0  0  0  0  0  0  0
  -12.8686   -6.2618  -20.2462 O   0  0  0  0  0  0  0  0  0  0  0  0
  -12.6234   -8.2416  -21.3487 N   0  0  0  0  0  0  0  0  0  0  0  0
  -13.4862   -7.9828  -22.5079 C   0  0  2  0  0  0  0  0  0  0  0  0
  -14.9936   -8.1910  -22.2310 C   0  0  0  0  0  0  0  0  0  0  0  0
  -15.4021   -8.8921  -21.3043 O   0  0  0  0  0  0  0  0  0  0  0  0
  -12.9945   -8.9895  -23.5606 C   0  0  0  0  0  0  0  0  0  0  0  0
  -12.4239  -10.1410  -22.7372 C   0  0  0  0  0  0  0  0  0  0  0  0
  -11.8173   -9.4392  -21.5382 C   0  0  0  0  0  0  0  0  0  0  0  0
  -15.8369   -7.4165  -22.9908 N   0  0  0  0  0  0  0  0  0  0  0  0
  -17.2914   -7.5224  -22.8807 C   0  0  2  0  0  0  0  0  0  0  0  0
  -17.9033   -8.0400  -24.1913 C   0  0  0  0  0  0  0  0  0  0  0  0
  -19.1109   -8.2118  -24.3517 O   0  0  0  0  0  0  0  0  0  0  0  0
  -17.9229   -6.1780  -22.5063 C   0  0  0  0  0  0  0  0  0  0  0  0
  -19.3147   -6.3558  -22.2297 O   0  0  0  0  0  0  0  0  0  0  0  0
  -16.9792   -8.2250  -25.2040 N   0  0  0  0  0  0  0  0  0  0  0  0
  -17.3462   -8.2604  -26.6301 C   0  0  2  0  0  0  0  0  0  0  0  0
  -16.3363   -9.1912  -27.3597 C   0  0  0  0  0  0  0  0  0  0  0  0
  -16.5729   -9.7776  -28.4091 O   0  0  0  0  0  0  0  0  0  0  0  0
  -17.4505   -6.8304  -27.1895 C   0  0  0  0  0  0  0  0  0  0  0  0
  -17.9031   -5.7224  -26.2232 C   0  0  0  0  0  0  0  0  0  0  0  0
  -18.9046   -4.7144  -26.7947 C   0  0  0  0  0  0  0  0  0  0  0  0
  -19.5025   -3.9769  -25.6890 N   0  0  0  0  0  0  0  0  0  0  0  0
  -19.6913   -2.6385  -25.7400 C   0  0  0  0  0  0  0  0  0  0  0  0
  -20.7990   -2.0424  -25.9872 N   0  0  0  0  0  0  0  0  0  0  0  0
  -18.5466   -1.9715  -25.4939 N   0  0  0  0  0  0  0  0  0  0  0  0
  -15.1803   -9.4312  -26.6362 N   0  0  0  0  0  0  0  0  0  0  0  0
  -13.9162   -8.7472  -26.9342 C   0  0  2  0  0  0  0  0  0  0  0  0
  -12.8113   -9.3151  -26.0217 C   0  0  0  0  0  0  0  0  0  0  0  0
  -13.0293   -9.9739  -25.0116 O   0  0  0  0  0  0  0  0  0  0  0  0
  -14.0474   -7.2371  -26.7912 C   0  0  0  0  0  0  0  0  0  0  0  0
  -11.5453   -8.9165  -26.4071 N   0  0  0  0  0  0  0  0  0  0  0  0
  -10.7888   -9.6459  -27.4365 C   0  0  2  0  0  0  0  0  0  0  0  0
   -9.2733   -9.4126  -27.3266 C   0  0  0  0  0  0  0  0  0  0  0  0
   -8.4808   -9.8477  -28.1560 O   0  0  0  0  0  0  0  0  0  0  0  0
  -11.2602   -9.2006  -28.8270 C   0  0  0  0  0  0  0  0  0  0  0  0
  -11.0753  -10.2489  -29.7938 O   0  0  0  0  0  0  0  0  0  0  0  0
   -8.8987   -8.5272  -26.3400 N   0  0  0  0  0  0  0  0  0  0  0  0
   -7.4982   -8.2390  -26.0099 C   0  0  2  0  0  0  0  0  0  0  0  0
   -7.5528   -6.7614  -25.5580 C   0  0  0  0  0  0  0  0  0  0  0  0
   -8.5220   -6.3243  -24.9286 O   0  0  0  0  0  0  0  0  0  0  0  0
   -6.5885   -8.4480  -27.2492 C   0  0  2  0  0  0  0  0  0  0  0  0
   -7.2363   -7.8017  -28.5001 C   0  0  0  0  0  0  0  0  0  0  0  0
   -6.2634   -9.9316  -27.4891 C   0  0  0  0  0  0  0  0  0  0  0  0
   -6.6370   -8.2637  -29.8248 C   0  0  0  0  0  0  0  0  0  0  0  0
   -6.4686   -5.9958  -25.8899 N   0  0  0  0  0  0  0  0  0  0  0  0
   -5.4610   -5.6190  -24.9060 C   0  0  2  0  0  0  0  0  0  0  0  0
   -4.3537   -4.8462  -25.6410 C   0  0  0  0  0  0  0  0  0  0  0  0
   -4.6083   -3.9058  -26.3943 O   0  0  0  0  0  0  0  0  0  0  0  0
   -4.9397   -6.8072  -24.0808 C   0  0  0  0  0  0  0  0  0  0  0  0
   -5.1491   -6.7532  -22.5507 C   0  0  1  0  0  0  0  0  0  0  0  0
   -6.2456   -5.7361  -22.2212 C   0  0  0  0  0  0  0  0  0  0  0  0
   -5.5152   -8.1063  -21.9363 C   0  0  0  0  0  0  0  0  0  0  0  0
   -3.0719   -5.2842  -25.3909 N   0  0  0  0  0  0  0  0  0  0  0  0
   -2.2310   -5.7263  -26.5125 C   0  0  2  0  0  0  0  0  0  0  0  0
   -1.4531   -4.5572  -27.1496 C   0  0  0  0  0  0  0  0  0  0  0  0
   -0.6246   -4.6993  -28.0449 O   0  0  0  0  0  0  0  0  0  0  0  0
   -3.0944   -6.4241  -27.5686 C   0  0  0  0  0  0  0  0  0  0  0  0
   -3.9912   -7.3406  -26.9173 O   0  0  0  0  0  0  0  0  0  0  0  0
   -1.6666   -3.3463  -26.5263 N   0  0  0  0  0  0  0  0  0  0  0  0
   -1.0585   -3.0139  -25.2495 C   0  0  0  0  0  0  0  0  0  0  0  0
   -1.3677   -1.5903  -24.8162 C   0  0  0  0  0  0  0  0  0  0  0  0
   -2.2175   -1.4994  -23.7643 O   0  0  0  0  0  0  0  0  0  0  0  0
   -0.9129   -0.5719  -25.3180 O   0  0  0  0  0  0  0  0  0  0  0  0
  -21.5593   -2.5963  -25.5794 H   0  0  0  0  0  0  0  0  0  0  0  0
  1  2  2  0
  1  3  1  0
  1 10  1  0
  3  4  2  0
  3  9  1  0
  4  5  1  0
  4  6  1  0
  5  7  2  0
  7  8  1  0
  8  9  2  0
 10 11  1  0
 11 12  1  0
 11 14  1  1
 12 13  2  0
 12 15  1  0
 16 15  1  6
 16 17  1  0
 16 19  1  0
 17 18  2  0
 17 22  1  0
 19 20  1  0
 19 21  1  1
 23 22  1  6
 23 24  1  0
 23 26  1  0
 24 25  2  0
 24 29  1  0
 26 27  1  0
 26 28  1  1
 29 30  1  0
 29 35  1  0
 30 31  1  6
 30 33  1  0
 31 32  2  0
 31 36  1  0
 33 34  1  0
 34 35  1  0
 36 37  1  0
 37 38  1  0
 37 40  1  6
 38 39  2  0
 38 44  1  0
 40 41  1  0
 41 42  1  1
 41 43  1  0
 44 45  1  0
 45 46  1  0
 45 48  1  6
 46 47  2  0
 46 50  1  0
 48 49  1  0
 50 51  1  0
 51 52  1  0
 52 53  2  0
 52 54  1  0
 54 55  1  0
 54 60  1  0
 55 56  1  1
 55 58  1  0
 56 57  2  0
 56 61  1  0
 58 59  1  0
 59 60  1  0
 61 62  1  0
 62 63  1  0
 62 65  1  6
 63 64  2  0
 63 67  1  0
 65 66  1  0
 67 68  1  0
 68 69  1  0
 68 71  1  6
 69 70  2  0
 69 78  1  0
 71 72  1  0
 72 73  1  0
 73 74  1  0
 74 75  1  0
 75 76  2  0
 75 77  1  0
 78 79  1  0
 79 80  1  0
 79 82  1  1
 80 81  2  0
 80 83  1  0
 83 84  1  0
 84 85  1  0
 84 87  1  6
 85 86  2  0
 85 89  1  0
 87 88  1  0
 90 89  1  6
 90 91  1  0
 90 93  1  0
 91 92  2  0
 91 97  1  0
 93 94  1  0
 93 95  1  6
 94 96  1  0
 97 98  1  0
 98 99  1  0
 98101  1  6
 99100  2  0
 99105  1  0
101102  1  0
102103  1  6
102104  1  0
105106  1  0
106107  1  0
106109  1  6
107108  2  0
107111  1  0
109110  1  0
111112  1  0
112113  1  0
113114  1  0
113115  2  0
 76116  1  0
M  END
$$$$
