
     RDKit          3D

116118  0  0  0  0  0  0  0  0999 V2000
   10.2986  -12.5939  -18.6416 C   0  0  0  0  0  0  0  0  0  0  0  0
    9.8804  -13.1908  -19.6346 O   0  0  0  0  0  0  0  0  0  0  0  0
   11.4279  -11.6303  -18.7616 C   0  0  0  0  0  0  0  0  0  0  0  0
   12.1363  -11.5111  -19.9739 C   0  0  0  0  0  0  0  0  0  0  0  0
   13.2451  -10.6547  -20.0207 C   0  0  0  0  0  0  0  0  0  0  0  0
   11.9008  -12.3676  -21.0721 N   0  0  0  0  0  0  0  0  0  0  0  0
   13.5914   -9.8654  -18.9172 C   0  0  0  0  0  0  0  0  0  0  0  0
   12.8417   -9.9318  -17.7456 C   0  0  0  0  0  0  0  0  0  0  0  0
   11.7662  -10.8120  -17.6681 C   0  0  0  0  0  0  0  0  0  0  0  0
    9.8246  -12.8145  -17.3571 N   0  0  0  0  0  0  0  0  0  0  0  0
    8.3830  -12.8845  -17.0865 C   0  0  2  0  0  0  0  0  0  0  0  0
    7.6360  -11.5860  -17.4522 C   0  0  0  0  0  0  0  0  0  0  0  0
    7.8793  -10.9573  -18.4807 O   0  0  0  0  0  0  0  0  0  0  0  0
    8.1560  -13.1931  -15.6116 C   0  0  0  0  0  0  0  0  0  0  0  0
    6.5766  -11.2545  -16.6384 N   0  0  0  0  0  0  0  0  0  0  0  0
    5.1965  -11.6975  -16.9126 C   0  0  2  0  0  0  0  0  0  0  0  0
    4.9161  -13.0707  -16.2651 C   0  0  0  0  0  0  0  0  0  0  0  0
    5.6701  -13.6056  -15.4528 O   0  0  0  0  0  0  0  0  0  0  0  0
    4.9123  -11.7531  -18.4299 C   0  0  2  0  0  0  0  0  0  0  0  0
    5.8704  -12.6095  -19.0744 O   0  0  0  0  0  0  0  0  0  0  0  0
    4.9807  -10.3808  -19.0921 C   0  0  0  0  0  0  0  0  0  0  0  0
    3.8071  -13.6988  -16.7624 N   0  0  0  0  0  0  0  0  0  0  0  0
    2.7982  -14.3635  -15.9328 C   0  0  2  0  0  0  0  0  0  0  0  0
    1.5667  -13.4390  -16.0064 C   0  0  0  0  0  0  0  0  0  0  0  0
    1.6084  -12.3064  -15.5082 O   0  0  0  0  0  0  0  0  0  0  0  0
    3.2776  -14.5968  -14.4843 C   0  0  2  0  0  0  0  0  0  0  0  0
    2.9200  -15.9098  -14.0335 O   0  0  0  0  0  0  0  0  0  0  0  0
    2.6771  -13.5910  -13.5042 C   0  0  0  0  0  0  0  0  0  0  0  0
    0.4426  -13.8687  -16.6689 N   0  0  0  0  0  0  0  0  0  0  0  0
   -0.6230  -12.9177  -16.9752 C   0  0  2  0  0  0  0  0  0  0  0  0
   -1.3822  -12.5094  -15.6981 C   0  0  0  0  0  0  0  0  0  0  0  0
   -0.8208  -12.1400  -14.6729 O   0  0  0  0  0  0  0  0  0  0  0  0
   -1.5593  -13.6792  -17.9212 C   0  0  0  0  0  0  0  0  0  0  0  0
   -0.7177  -14.8405  -18.4408 C   0  0  0  0  0  0  0  0  0  0  0  0
    0.1806  -15.1679  -17.2595 C   0  0  0  0  0  0  0  0  0  0  0  0
   -2.7420  -12.7516  -15.7415 N   0  0  0  0  0  0  0  0  0  0  0  0
   -3.5802  -12.6291  -14.5417 C   0  0  2  0  0  0  0  0  0  0  0  0
   -5.0518  -12.9985  -14.9002 C   0  0  0  0  0  0  0  0  0  0  0  0
   -5.9651  -13.0407  -14.0722 O   0  0  0  0  0  0  0  0  0  0  0  0
   -3.5352  -11.2075  -13.9519 C   0  0  0  0  0  0  0  0  0  0  0  0
   -3.8793  -11.0274  -12.4573 C   0  0  1  0  0  0  0  0  0  0  0  0
   -3.0141   -9.9697  -11.7746 C   0  0  0  0  0  0  0  0  0  0  0  0
   -5.3590  -10.7539  -12.1999 C   0  0  0  0  0  0  0  0  0  0  0  0
   -5.2482  -13.4023  -16.1951 N   0  0  0  0  0  0  0  0  0  0  0  0
   -6.2586  -12.8231  -17.0646 C   0  0  2  0  0  0  0  0  0  0  0  0
   -7.4746  -12.3868  -16.2182 C   0  0  0  0  0  0  0  0  0  0  0  0
   -7.3725  -11.7044  -15.2037 O   0  0  0  0  0  0  0  0  0  0  0  0
   -6.6867  -13.7572  -18.2152 C   0  0  0  0  0  0  0  0  0  0  0  0
   -7.5327  -15.2916  -17.6922 S   0  0  0  0  0  0  0  0  0  0  0  0
   -8.6932  -12.8353  -16.6917 N   0  0  0  0  0  0  0  0  0  0  0  0
   -9.5976  -11.9027  -17.3475 C   0  0  0  0  0  0  0  0  0  0  0  0
   -9.9065  -10.7388  -16.3962 C   0  0  0  0  0  0  0  0  0  0  0  0
   -9.9877  -10.9075  -15.1730 O   0  0  0  0  0  0  0  0  0  0  0  0
  -10.0786   -9.4912  -16.9566 N   0  0  0  0  0  0  0  0  0  0  0  0
  -11.1041   -9.1106  -17.9357 C   0  0  2  0  0  0  0  0  0  0  0  0
  -10.6851   -9.3353  -19.4075 C   0  0  0  0  0  0  0  0  0  0  0  0
   -9.7968  -10.1270  -19.7256 O   0  0  0  0  0  0  0  0  0  0  0  0
  -11.3258   -7.6130  -17.6683 C   0  0  0  0  0  0  0  0  0  0  0  0
   -9.9942   -7.1356  -17.0953 C   0  0  0  0  0  0  0  0  0  0  0  0
   -9.5219   -8.3260  -16.2842 C   0  0  0  0  0  0  0  0  0  0  0  0
  -11.4773   -8.7096  -20.3398 N   0  0  0  0  0  0  0  0  0  0  0  0
  -12.6673   -9.3514  -20.8974 C   0  0  2  0  0  0  0  0  0  0  0  0
  -13.3284   -8.4542  -21.9547 C   0  0  0  0  0  0  0  0  0  0  0  0
  -14.1567   -7.5863  -21.6822 O   0  0  0  0  0  0  0  0  0  0  0  0
  -13.6802   -9.6985  -19.8019 C   0  0  0  0  0  0  0  0  0  0  0  0
  -14.3725  -10.9021  -20.1447 O   0  0  0  0  0  0  0  0  0  0  0  0
  -12.8521   -8.6588  -23.2372 N   0  0  0  0  0  0  0  0  0  0  0  0
  -13.0065   -7.6710  -24.3189 C   0  0  2  0  0  0  0  0  0  0  0  0
  -13.6599   -8.3908  -25.5328 C   0  0  0  0  0  0  0  0  0  0  0  0
  -13.7602   -7.9025  -26.6520 O   0  0  0  0  0  0  0  0  0  0  0  0
  -11.6617   -6.9797  -24.6056 C   0  0  0  0  0  0  0  0  0  0  0  0
  -11.3717   -5.6602  -23.8699 C   0  0  0  0  0  0  0  0  0  0  0  0
  -11.1903   -4.4301  -24.7639 C   0  0  0  0  0  0  0  0  0  0  0  0
   -9.7786   -4.3088  -25.1051 N   0  0  0  0  0  0  0  0  0  0  0  0
   -9.1635   -5.1858  -25.9309 C   0  0  0  0  0  0  0  0  0  0  0  0
   -8.4236   -4.8852  -26.9336 N   0  0  0  0  0  0  0  0  0  0  0  0
   -9.4212   -6.4595  -25.5742 N   0  0  0  0  0  0  0  0  0  0  0  0
  -14.2686   -9.5905  -25.2047 N   0  0  0  0  0  0  0  0  0  0  0  0
  -15.7282   -9.7405  -25.1642 C   0  0  2  0  0  0  0  0  0  0  0  0
  -16.3310   -9.1295  -26.4445 C   0  0  0  0  0  0  0  0  0  0  0  0
  -15.6992   -8.9461  -27.4784 O   0  0  0  0  0  0  0  0  0  0  0  0
  -16.3221   -9.1197  -23.9072 C   0  0  0  0  0  0  0  0  0  0  0  0
  -17.6380   -8.7144  -26.2721 N   0  0  0  0  0  0  0  0  0  0  0  0
  -18.5726   -8.6240  -27.4046 C   0  0  2  0  0  0  0  0  0  0  0  0
  -20.0201   -8.3727  -26.9522 C   0  0  0  0  0  0  0  0  0  0  0  0
  -20.5915   -9.1010  -26.1468 O   0  0  0  0  0  0  0  0  0  0  0  0
  -18.5237   -9.9282  -28.2112 C   0  0  0  0  0  0  0  0  0  0  0  0
  -18.8372   -9.6905  -29.5943 O   0  0  0  0  0  0  0  0  0  0  0  0
  -20.5527   -7.1734  -27.3714 N   0  0  0  0  0  0  0  0  0  0  0  0
  -21.3828   -6.3203  -26.5133 C   0  0  2  0  0  0  0  0  0  0  0  0
  -22.0998   -5.4068  -27.5340 C   0  0  0  0  0  0  0  0  0  0  0  0
  -21.5272   -4.4272  -28.0227 O   0  0  0  0  0  0  0  0  0  0  0  0
  -20.5016   -5.5214  -25.5172 C   0  0  2  0  0  0  0  0  0  0  0  0
  -20.2516   -4.0903  -26.0571 C   0  0  0  0  0  0  0  0  0  0  0  0
  -19.1798   -6.2412  -25.2026 C   0  0  0  0  0  0  0  0  0  0  0  0
  -19.4318   -3.2038  -25.1248 C   0  0  0  0  0  0  0  0  0  0  0  0
  -23.3812   -5.7625  -27.8556 N   0  0  0  0  0  0  0  0  0  0  0  0
  -23.8927   -5.6537  -29.2164 C   0  0  2  0  0  0  0  0  0  0  0  0
  -25.4281   -5.6370  -29.1404 C   0  0  0  0  0  0  0  0  0  0  0  0
  -26.1147   -6.5040  -29.6823 O   0  0  0  0  0  0  0  0  0  0  0  0
  -23.3343   -6.7268  -30.1658 C   0  0  0  0  0  0  0  0  0  0  0  0
  -21.7986   -6.8094  -30.3164 C   0  0  1  0  0  0  0  0  0  0  0  0
  -21.4229   -8.1264  -31.0017 C   0  0  0  0  0  0  0  0  0  0  0  0
  -21.1986   -5.6421  -31.1037 C   0  0  0  0  0  0  0  0  0  0  0  0
  -25.9656   -4.5892  -28.4258 N   0  0  0  0  0  0  0  0  0  0  0  0
  -26.8059   -4.8736  -27.2538 C   0  0  2  0  0  0  0  0  0  0  0  0
  -28.3096   -4.7889  -27.5845 C   0  0  0  0  0  0  0  0  0  0  0  0
  -29.1887   -5.2857  -26.8855 O   0  0  0  0  0  0  0  0  0  0  0  0
  -26.4597   -3.9066  -26.1167 C   0  0  0  0  0  0  0  0  0  0  0  0
  -27.2262   -2.6996  -26.2712 O   0  0  0  0  0  0  0  0  0  0  0  0
  -28.5744   -4.2246  -28.8141 N   0  0  0  0  0  0  0  0  0  0  0  0
  -29.8893   -3.7182  -29.1676 C   0  0  0  0  0  0  0  0  0  0  0  0
  -30.6272   -3.1425  -27.9701 C   0  0  0  0  0  0  0  0  0  0  0  0
  -31.6992   -3.8704  -27.5726 O   0  0  0  0  0  0  0  0  0  0  0  0
  -30.3257   -2.1253  -27.3617 O   0  0  0  0  0  0  0  0  0  0  0  0
   -7.4975   -5.2993  -26.7845 H   0  0  0  0  0  0  0  0  0  0  0  0
  1  2  2  0
  1  3  1  0
  1 10  1  0
  3  4  2  0
  3  9  1  0
  4  5  1  0
  4  6  1  0
  5  7  2  0
  7  8  1  0
  8  9  2  0
 10 11  1  0
 11 12  1  0
 11 14  1  1
 12 13  2  0
 12 15  1  0
 16 15  1  6
 16 17  1  0
 16 19  1  0
 17 18  2  0
 17 22  1  0
 19 20  1  0
 19 21  1  6
 23 22  1  6
 23 24  1  0
 23 26  1  0
 24 25  2  0
 24 29  1  0
 26 27  1  0
 26 28  1  1
 29 30  1  0
 29 35  1  0
 30 31  1  1
 30 33  1  0
 31 32  2  0
 31 36  1  0
 33 34  1  0
 34 35  1  0
 36 37  1  0
 37 38  1  0
 37 40  1  6
 38 39  2  0
 38 44  1  0
 40 41  1  0
 41 42  1  6
 41 43  1  0
 44 45  1  0
 45 46  1  0
 45 48  1  6
 46 47  2  0
 46 50  1  0
 48 49  1  0
 50 51  1  0
 51 52  1  0
 52 53  2  0
 52 54  1  0
 54 55  1  0
 54 60  1  0
 55 56  1  6
 55 58  1  0
 56 57  2  0
 56 61  1  0
 58 59  1  0
 59 60  1  0
 61 62  1  0
 62 63  1  0
 62 65  1  1
 63 64  2  0
 63 67  1  0
 65 66  1  0
 67 68  1  0
 68 69  1  0
 68 71  1  6
 69 70  2  0
 69 78  1  0
 71 72  1  0
 72 73  1  0
 73 74  1  0
 74 75  1  0
 75 76  2  0
 75 77  1  0
 78 79  1  0
 79 80  1  0
 79 82  1  1
 80 81  2  0
 80 83  1  0
 83 84  1  0
 84 85  1  0
 84 87  1  1
 85 86  2  0
 85 89  1  0
 87 88  1  0
 90 89  1  6
 90 91  1  0
 90 93  1  0
 91 92  2  0
 91 97  1  0
 93 94  1  0
 93 95  1  6
 94 96  1  0
 97 98  1  0
 98 99  1  0
 98101  1  6
 99100  2  0
 99105  1  0
101102  1  0
102103  1  6
102104  1  0
105106  1  0
106107  1  0
106109  1  1
107108  2  0
107111  1  0
109110  1  0
111112  1  0
112113  1  0
113114  1  0
113115  2  0
 76116  1  0
M  END
$$$$
