
     RDKit          3D

116118  0  0  0  0  0  0  0  0999 V2000
  -26.3144   -7.0161  -23.7025 C   0  0  0  0  0  0  0  0  0  0  0  0
  -26.3429   -8.0544  -24.3645 O   0  0  0  0  0  0  0  0  0  0  0  0
  -27.2877   -5.9220  -23.9744 C   0  0  0  0  0  0  0  0  0  0  0  0
  -28.6293   -6.2230  -24.2831 C   0  0  0  0  0  0  0  0  0  0  0  0
  -29.4930   -5.1700  -24.6150 C   0  0  0  0  0  0  0  0  0  0  0  0
  -29.0808   -7.5482  -24.4705 N   0  0  0  0  0  0  0  0  0  0  0  0
  -29.0611   -3.8393  -24.5556 C   0  0  0  0  0  0  0  0  0  0  0  0
  -27.7542   -3.5434  -24.1769 C   0  0  0  0  0  0  0  0  0  0  0  0
  -26.8714   -4.5806  -23.8898 C   0  0  0  0  0  0  0  0  0  0  0  0
  -25.3599   -6.7502  -22.7323 N   0  0  0  0  0  0  0  0  0  0  0  0
  -24.3241   -7.7375  -22.4024 C   0  0  2  0  0  0  0  0  0  0  0  0
  -23.0260   -7.0967  -21.8714 C   0  0  0  0  0  0  0  0  0  0  0  0
  -22.5782   -6.0470  -22.3295 O   0  0  0  0  0  0  0  0  0  0  0  0
  -24.0016   -8.5695  -23.6377 C   0  0  0  0  0  0  0  0  0  0  0  0
  -22.4805   -7.6859  -20.7534 N   0  0  0  0  0  0  0  0  0  0  0  0
  -21.5970   -6.9572  -19.8236 C   0  0  2  0  0  0  0  0  0  0  0  0
  -20.3676   -7.8103  -19.4437 C   0  0  0  0  0  0  0  0  0  0  0  0
  -20.3940   -9.0372  -19.3519 O   0  0  0  0  0  0  0  0  0  0  0  0
  -22.3558   -6.5161  -18.5525 C   0  0  2  0  0  0  0  0  0  0  0  0
  -23.7667   -6.7291  -18.7282 O   0  0  0  0  0  0  0  0  0  0  0  0
  -22.1358   -5.0447  -18.2167 C   0  0  0  0  0  0  0  0  0  0  0  0
  -19.2677   -7.0715  -19.1029 N   0  0  0  0  0  0  0  0  0  0  0  0
  -17.8867   -7.4827  -19.3706 C   0  0  2  0  0  0  0  0  0  0  0  0
  -17.1663   -7.3233  -18.0171 C   0  0  0  0  0  0  0  0  0  0  0  0
  -17.0767   -6.2078  -17.4876 O   0  0  0  0  0  0  0  0  0  0  0  0
  -17.2261   -6.6557  -20.4940 C   0  0  2  0  0  0  0  0  0  0  0  0
  -16.1189   -5.8991  -19.9874 O   0  0  0  0  0  0  0  0  0  0  0  0
  -18.2000   -5.6740  -21.1425 C   0  0  0  0  0  0  0  0  0  0  0  0
  -16.6669   -8.4369  -17.3865 N   0  0  0  0  0  0  0  0  0  0  0  0
  -15.3166   -8.4073  -16.8302 C   0  0  2  0  0  0  0  0  0  0  0  0
  -14.2581   -8.4156  -17.9499 C   0  0  0  0  0  0  0  0  0  0  0  0
  -14.4210   -8.9851  -19.0231 O   0  0  0  0  0  0  0  0  0  0  0  0
  -15.2129   -9.6928  -16.0008 C   0  0  0  0  0  0  0  0  0  0  0  0
  -16.6594  -10.1231  -15.7781 C   0  0  0  0  0  0  0  0  0  0  0  0
  -17.3510   -9.6726  -17.0541 C   0  0  0  0  0  0  0  0  0  0  0  0
  -13.0405   -7.8719  -17.5871 N   0  0  0  0  0  0  0  0  0  0  0  0
  -12.3052   -8.3570  -16.4119 C   0  0  2  0  0  0  0  0  0  0  0  0
  -11.1199   -7.3904  -16.1095 C   0  0  0  0  0  0  0  0  0  0  0  0
  -10.9252   -6.8749  -15.0059 O   0  0  0  0  0  0  0  0  0  0  0  0
  -11.7657   -9.7839  -16.6201 C   0  0  0  0  0  0  0  0  0  0  0  0
  -12.7761  -10.9043  -16.9493 C   0  0  1  0  0  0  0  0  0  0  0  0
  -13.7169  -10.5343  -18.0946 C   0  0  0  0  0  0  0  0  0  0  0  0
  -12.1224  -12.2586  -17.2121 C   0  0  0  0  0  0  0  0  0  0  0  0
  -10.3636   -7.0436  -17.1985 N   0  0  0  0  0  0  0  0  0  0  0  0
   -9.0589   -6.4119  -17.0926 C   0  0  2  0  0  0  0  0  0  0  0  0
   -8.0828   -7.0816  -18.0846 C   0  0  0  0  0  0  0  0  0  0  0  0
   -8.3108   -8.1614  -18.6205 O   0  0  0  0  0  0  0  0  0  0  0  0
   -8.4885   -6.4182  -15.6592 C   0  0  0  0  0  0  0  0  0  0  0  0
   -9.3421   -7.5370  -14.4917 S   0  0  0  0  0  0  0  0  0  0  0  0
   -6.9215   -6.3685  -18.3158 N   0  0  0  0  0  0  0  0  0  0  0  0
   -5.9099   -6.9114  -19.2099 C   0  0  0  0  0  0  0  0  0  0  0  0
   -5.6386   -5.9095  -20.3403 C   0  0  0  0  0  0  0  0  0  0  0  0
   -5.9089   -4.7081  -20.2181 O   0  0  0  0  0  0  0  0  0  0  0  0
   -5.0690   -6.3979  -21.4966 N   0  0  0  0  0  0  0  0  0  0  0  0
   -5.1063   -7.7886  -21.9653 C   0  0  2  0  0  0  0  0  0  0  0  0
   -3.9482   -8.6648  -21.4332 C   0  0  0  0  0  0  0  0  0  0  0  0
   -2.7760   -8.2867  -21.4484 O   0  0  0  0  0  0  0  0  0  0  0  0
   -5.0174   -7.6605  -23.4947 C   0  0  0  0  0  0  0  0  0  0  0  0
   -4.2644   -6.3515  -23.7160 C   0  0  0  0  0  0  0  0  0  0  0  0
   -4.7538   -5.4765  -22.5789 C   0  0  0  0  0  0  0  0  0  0  0  0
   -4.3368   -9.8220  -20.8023 N   0  0  0  0  0  0  0  0  0  0  0  0
   -3.9188  -10.1342  -19.4360 C   0  0  2  0  0  0  0  0  0  0  0  0
   -2.8954  -11.2799  -19.4250 C   0  0  0  0  0  0  0  0  0  0  0  0
   -2.9121  -12.2086  -20.2318 O   0  0  0  0  0  0  0  0  0  0  0  0
   -5.1174  -10.4980  -18.5542 C   0  0  0  0  0  0  0  0  0  0  0  0
   -6.0738  -11.2388  -19.3169 O   0  0  0  0  0  0  0  0  0  0  0  0
   -1.9049  -11.1346  -18.4705 N   0  0  0  0  0  0  0  0  0  0  0  0
   -0.5107  -11.5571  -18.6883 C   0  0  2  0  0  0  0  0  0  0  0  0
    0.0137  -10.8338  -19.9612 C   0  0  0  0  0  0  0  0  0  0  0  0
   -0.5132  -10.9108  -21.0646 O   0  0  0  0  0  0  0  0  0  0  0  0
   -0.4171  -13.0931  -18.7148 C   0  0  0  0  0  0  0  0  0  0  0  0
    0.8470  -13.7367  -18.1198 C   0  0  0  0  0  0  0  0  0  0  0  0
    0.8700  -13.8624  -16.5936 C   0  0  0  0  0  0  0  0  0  0  0  0
    0.7880  -15.2747  -16.2433 N   0  0  0  0  0  0  0  0  0  0  0  0
    1.7396  -15.8846  -15.5004 C   0  0  0  0  0  0  0  0  0  0  0  0
    1.5374  -16.7711  -14.5967 N   0  0  0  0  0  0  0  0  0  0  0  0
    2.9716  -15.4443  -15.8232 N   0  0  0  0  0  0  0  0  0  0  0  0
    1.2347  -10.2065  -19.7797 N   0  0  0  0  0  0  0  0  0  0  0  0
    2.2760  -10.2094  -20.8142 C   0  0  2  0  0  0  0  0  0  0  0  0
    3.4725  -11.0457  -20.3193 C   0  0  0  0  0  0  0  0  0  0  0  0
    4.3607  -10.6089  -19.5969 O   0  0  0  0  0  0  0  0  0  0  0  0
    2.6930   -8.7956  -21.1954 C   0  0  0  0  0  0  0  0  0  0  0  0
    3.4932  -12.3174  -20.8602 N   0  0  0  0  0  0  0  0  0  0  0  0
    4.2981  -12.6348  -22.0500 C   0  0  2  0  0  0  0  0  0  0  0  0
    5.7398  -13.0324  -21.6941 C   0  0  0  0  0  0  0  0  0  0  0  0
    6.5440  -12.2331  -21.2255 O   0  0  0  0  0  0  0  0  0  0  0  0
    4.3346  -11.4158  -22.9809 C   0  0  0  0  0  0  0  0  0  0  0  0
    4.0581  -11.7967  -24.3396 O   0  0  0  0  0  0  0  0  0  0  0  0
    5.9965  -14.3841  -21.7641 N   0  0  0  0  0  0  0  0  0  0  0  0
    6.8190  -15.0966  -20.7797 C   0  0  2  0  0  0  0  0  0  0  0  0
    8.2227  -15.0708  -21.4274 C   0  0  0  0  0  0  0  0  0  0  0  0
    8.7449  -16.1055  -21.8552 O   0  0  0  0  0  0  0  0  0  0  0  0
    6.2904  -16.5393  -20.5647 C   0  0  2  0  0  0  0  0  0  0  0  0
    6.0059  -17.2113  -21.9320 C   0  0  0  0  0  0  0  0  0  0  0  0
    5.0524  -16.5758  -19.6534 C   0  0  0  0  0  0  0  0  0  0  0  0
    6.9233  -18.3866  -22.2549 C   0  0  0  0  0  0  0  0  0  0  0  0
    8.8239  -13.8438  -21.4992 N   0  0  0  0  0  0  0  0  0  0  0  0
   10.0785  -13.5590  -20.8137 C   0  0  2  0  0  0  0  0  0  0  0  0
   11.1676  -13.3801  -21.8839 C   0  0  0  0  0  0  0  0  0  0  0  0
   12.0198  -12.4949  -21.8015 O   0  0  0  0  0  0  0  0  0  0  0  0
   10.4359  -14.5987  -19.7384 C   0  0  0  0  0  0  0  0  0  0  0  0
    9.4688  -14.7412  -18.5417 C   0  0  1  0  0  0  0  0  0  0  0  0
   10.1904  -15.4333  -17.3817 C   0  0  0  0  0  0  0  0  0  0  0  0
    8.8975  -13.4069  -18.0561 C   0  0  0  0  0  0  0  0  0  0  0  0
   11.1141  -14.2784  -22.9268 N   0  0  0  0  0  0  0  0  0  0  0  0
   12.3558  -14.6517  -23.6191 C   0  0  2  0  0  0  0  0  0  0  0  0
   13.5132  -14.9112  -22.6338 C   0  0  0  0  0  0  0  0  0  0  0  0
   14.6014  -14.3459  -22.6989 O   0  0  0  0  0  0  0  0  0  0  0  0
   12.7467  -13.5562  -24.6166 C   0  0  0  0  0  0  0  0  0  0  0  0
   14.1187  -13.7388  -25.0073 O   0  0  0  0  0  0  0  0  0  0  0  0
   13.2682  -15.9425  -21.7524 N   0  0  0  0  0  0  0  0  0  0  0  0
   14.0134  -17.1890  -21.7914 C   0  0  0  0  0  0  0  0  0  0  0  0
   13.1138  -18.3924  -22.0203 C   0  0  0  0  0  0  0  0  0  0  0  0
   13.7548  -19.4842  -22.5037 O   0  0  0  0  0  0  0  0  0  0  0  0
   11.9128  -18.4445  -21.7953 O   0  0  0  0  0  0  0  0  0  0  0  0
    2.0422  -16.4875  -13.7506 H   0  0  0  0  0  0  0  0  0  0  0  0
  1  2  2  0
  1  3  1  0
  1 10  1  0
  3  4  2  0
  3  9  1  0
  4  5  1  0
  4  6  1  0
  5  7  2  0
  7  8  1  0
  8  9  2  0
 10 11  1  0
 11 12  1  0
 11 14  1  6
 12 13  2  0
 12 15  1  0
 16 15  1  6
 16 17  1  0
 16 19  1  0
 17 18  2  0
 17 22  1  0
 19 20  1  0
 19 21  1  6
 23 22  1  1
 23 24  1  0
 23 26  1  0
 24 25  2  0
 24 29  1  0
 26 27  1  0
 26 28  1  1
 29 30  1  0
 29 35  1  0
 30 31  1  6
 30 33  1  0
 31 32  2  0
 31 36  1  0
 33 34  1  0
 34 35  1  0
 36 37  1  0
 37 38  1  0
 37 40  1  6
 38 39  2  0
 38 44  1  0
 40 41  1  0
 41 42  1  6
 41 43  1  0
 44 45  1  0
 45 46  1  0
 45 48  1  1
 46 47  2  0
 46 50  1  0
 48 49  1  0
 50 51  1  0
 51 52  1  0
 52 53  2  0
 52 54  1  0
 54 55  1  0
 54 60  1  0
 55 56  1  1
 55 58  1  0
 56 57  2  0
 56 61  1  0
 58 59  1  0
 59 60  1  0
 61 62  1  0
 62 63  1  0
 62 65  1  1
 63 64  2  0
 63 67  1  0
 65 66  1  0
 67 68  1  0
 68 69  1  0
 68 71  1  6
 69 70  2  0
 69 78  1  0
 71 72  1  0
 72 73  1  0
 73 74  1  0
 74 75  1  0
 75 76  2  0
 75 77  1  0
 78 79  1  0
 79 80  1  0
 79 82  1  1
 80 81  2  0
 80 83  1  0
 83 84  1  0
 84 85  1  0
 84 87  1  6
 85 86  2  0
 85 89  1  0
 87 88  1  0
 90 89  1  6
 90 91  1  0
 90 93  1  0
 91 92  2  0
 91 97  1  0
 93 94  1  0
 93 95  1  1
 94 96  1  0
 97 98  1  0
 98 99  1  0
 98101  1  1
 99100  2  0
 99105  1  0
101102  1  0
102103  1  1
102104  1  0
105106  1  0
106107  1  0
106109  1  6
107108  2  0
107111  1  0
109110  1  0
111112  1  0
112113  1  0
113114  1  0
113115  2  0
 76116  1  0
M  END
$$$$
