
     RDKit          3D

116118  0  0  0  0  0  0  0  0999 V2000
  -20.2054    8.8156  -22.2718 C   0  0  0  0  0  0  0  0  0  0  0  0
  -19.9245   10.0036  -22.1068 O   0  0  0  0  0  0  0  0  0  0  0  0
  -21.4265    8.4285  -23.0316 C   0  0  0  0  0  0  0  0  0  0  0  0
  -22.1975    9.4087  -23.6876 C   0  0  0  0  0  0  0  0  0  0  0  0
  -23.3846    9.0147  -24.3205 C   0  0  0  0  0  0  0  0  0  0  0  0
  -21.9308   10.7896  -23.5569 N   0  0  0  0  0  0  0  0  0  0  0  0
  -23.7547    7.6655  -24.3797 C   0  0  0  0  0  0  0  0  0  0  0  0
  -22.9495    6.6920  -23.7940 C   0  0  0  0  0  0  0  0  0  0  0  0
  -21.7919    7.0726  -23.1213 C   0  0  0  0  0  0  0  0  0  0  0  0
  -19.4791    7.7712  -21.7196 N   0  0  0  0  0  0  0  0  0  0  0  0
  -18.1988    8.0171  -21.0436 C   0  0  2  0  0  0  0  0  0  0  0  0
  -17.5474    6.7306  -20.4973 C   0  0  0  0  0  0  0  0  0  0  0  0
  -18.1982    5.7128  -20.2678 O   0  0  0  0  0  0  0  0  0  0  0  0
  -18.4089    8.9970  -19.8958 C   0  0  0  0  0  0  0  0  0  0  0  0
  -16.1728    6.7385  -20.4263 N   0  0  0  0  0  0  0  0  0  0  0  0
  -15.3509    5.5816  -20.8290 C   0  0  2  0  0  0  0  0  0  0  0  0
  -16.0854    4.2538  -20.5442 C   0  0  0  0  0  0  0  0  0  0  0  0
  -17.1426    4.1828  -19.9183 O   0  0  0  0  0  0  0  0  0  0  0  0
  -13.9756    5.5940  -20.1258 C   0  0  2  0  0  0  0  0  0  0  0  0
  -13.4432    4.2596  -20.0724 O   0  0  0  0  0  0  0  0  0  0  0  0
  -14.0479    6.1339  -18.7012 C   0  0  0  0  0  0  0  0  0  0  0  0
  -15.3960    3.1441  -20.9504 N   0  0  0  0  0  0  0  0  0  0  0  0
  -15.8232    1.7680  -20.6824 C   0  0  2  0  0  0  0  0  0  0  0  0
  -14.8718    1.2766  -19.5735 C   0  0  0  0  0  0  0  0  0  0  0  0
  -13.6605    1.5249  -19.6377 O   0  0  0  0  0  0  0  0  0  0  0  0
  -15.7778    0.8746  -21.9403 C   0  0  2  0  0  0  0  0  0  0  0  0
  -15.6967    1.6709  -23.1294 O   0  0  0  0  0  0  0  0  0  0  0  0
  -17.0110   -0.0182  -22.0637 C   0  0  0  0  0  0  0  0  0  0  0  0
  -15.3892    0.6020  -18.4945 N   0  0  0  0  0  0  0  0  0  0  0  0
  -14.4853    0.0151  -17.5085 C   0  0  2  0  0  0  0  0  0  0  0  0
  -13.7616   -1.2160  -18.0870 C   0  0  0  0  0  0  0  0  0  0  0  0
  -14.3379   -2.2579  -18.3781 O   0  0  0  0  0  0  0  0  0  0  0  0
  -15.3987   -0.4088  -16.3520 C   0  0  0  0  0  0  0  0  0  0  0  0
  -16.6855    0.3808  -16.5707 C   0  0  0  0  0  0  0  0  0  0  0  0
  -16.7755    0.4765  -18.0847 C   0  0  0  0  0  0  0  0  0  0  0  0
  -12.3834   -1.1145  -18.0965 N   0  0  0  0  0  0  0  0  0  0  0  0
  -11.5846   -1.6403  -19.2111 C   0  0  2  0  0  0  0  0  0  0  0  0
  -11.9229   -3.1474  -19.4229 C   0  0  0  0  0  0  0  0  0  0  0  0
  -13.0740   -3.5821  -19.5089 O   0  0  0  0  0  0  0  0  0  0  0  0
  -10.0737   -1.4820  -18.9603 C   0  0  0  0  0  0  0  0  0  0  0  0
   -9.3892   -0.1804  -19.4310 C   0  0  1  0  0  0  0  0  0  0  0  0
   -8.0685   -0.4352  -20.1551 C   0  0  0  0  0  0  0  0  0  0  0  0
  -10.2945    0.7162  -20.2720 C   0  0  0  0  0  0  0  0  0  0  0  0
  -10.8456   -3.9936  -19.3827 N   0  0  0  0  0  0  0  0  0  0  0  0
  -10.9187   -5.3936  -19.7664 C   0  0  2  0  0  0  0  0  0  0  0  0
   -9.5183   -6.0331  -19.6427 C   0  0  0  0  0  0  0  0  0  0  0  0
   -8.7275   -6.0964  -20.5786 O   0  0  0  0  0  0  0  0  0  0  0  0
  -11.5099   -5.6141  -21.1741 C   0  0  0  0  0  0  0  0  0  0  0  0
  -10.5658   -6.7627  -22.2386 S   0  0  0  0  0  0  0  0  0  0  0  0
   -9.2277   -6.5389  -18.3897 N   0  0  0  0  0  0  0  0  0  0  0  0
   -9.6223   -7.8985  -18.0534 C   0  0  0  0  0  0  0  0  0  0  0  0
   -9.4483   -8.7985  -19.2841 C   0  0  0  0  0  0  0  0  0  0  0  0
   -9.9596   -8.5102  -20.3735 O   0  0  0  0  0  0  0  0  0  0  0  0
   -8.6878   -9.9382  -19.1331 N   0  0  0  0  0  0  0  0  0  0  0  0
   -7.3179  -10.1416  -19.6202 C   0  0  2  0  0  0  0  0  0  0  0  0
   -7.2369  -10.6933  -21.0629 C   0  0  0  0  0  0  0  0  0  0  0  0
   -8.0168  -10.3389  -21.9479 O   0  0  0  0  0  0  0  0  0  0  0  0
   -6.7250  -11.1558  -18.6286 C   0  0  0  0  0  0  0  0  0  0  0  0
   -7.9359  -11.9370  -18.1258 C   0  0  0  0  0  0  0  0  0  0  0  0
   -9.0292  -10.8877  -18.0834 C   0  0  0  0  0  0  0  0  0  0  0  0
   -6.1422  -11.4819  -21.3234 N   0  0  0  0  0  0  0  0  0  0  0  0
   -5.8272  -11.9433  -22.6750 C   0  0  2  0  0  0  0  0  0  0  0  0
   -4.6354  -12.9125  -22.6586 C   0  0  0  0  0  0  0  0  0  0  0  0
   -4.1779  -13.4381  -23.6725 O   0  0  0  0  0  0  0  0  0  0  0  0
   -5.5300  -10.7682  -23.6117 C   0  0  0  0  0  0  0  0  0  0  0  0
   -4.7696  -11.2228  -24.7344 O   0  0  0  0  0  0  0  0  0  0  0  0
   -4.0726  -13.0841  -21.4066 N   0  0  0  0  0  0  0  0  0  0  0  0
   -2.9482  -14.0002  -21.1497 C   0  0  2  0  0  0  0  0  0  0  0  0
   -2.8230  -14.1821  -19.6103 C   0  0  0  0  0  0  0  0  0  0  0  0
   -3.7769  -14.2766  -18.8472 O   0  0  0  0  0  0  0  0  0  0  0  0
   -1.6790  -13.4993  -21.8617 C   0  0  0  0  0  0  0  0  0  0  0  0
   -0.4151  -14.3694  -21.7533 C   0  0  0  0  0  0  0  0  0  0  0  0
   -0.6093  -15.8587  -22.0525 C   0  0  0  0  0  0  0  0  0  0  0  0
    0.7022  -16.4864  -22.1534 N   0  0  0  0  0  0  0  0  0  0  0  0
    1.4490  -16.4079  -23.2784 C   0  0  0  0  0  0  0  0  0  0  0  0
    2.7244  -16.2892  -23.3299 N   0  0  0  0  0  0  0  0  0  0  0  0
    0.6801  -16.4700  -24.3833 N   0  0  0  0  0  0  0  0  0  0  0  0
   -1.5243  -14.0730  -19.1424 N   0  0  0  0  0  0  0  0  0  0  0  0
   -1.0195  -14.8991  -18.0391 C   0  0  2  0  0  0  0  0  0  0  0  0
   -0.6464  -16.2915  -18.5850 C   0  0  0  0  0  0  0  0  0  0  0  0
   -1.1190  -16.7751  -19.6069 O   0  0  0  0  0  0  0  0  0  0  0  0
   -2.0247  -14.9890  -16.8991 C   0  0  0  0  0  0  0  0  0  0  0  0
    0.2048  -16.9827  -17.7436 N   0  0  0  0  0  0  0  0  0  0  0  0
    1.4443  -16.3758  -17.2345 C   0  0  2  0  0  0  0  0  0  0  0  0
    2.5300  -17.4221  -16.9349 C   0  0  0  0  0  0  0  0  0  0  0  0
    3.6746  -17.1089  -16.6231 O   0  0  0  0  0  0  0  0  0  0  0  0
    1.1393  -15.5949  -15.9496 C   0  0  0  0  0  0  0  0  0  0  0  0
    1.5992  -16.3106  -14.7903 O   0  0  0  0  0  0  0  0  0  0  0  0
    2.0722  -18.7192  -16.8596 N   0  0  0  0  0  0  0  0  0  0  0  0
    2.4980  -19.6612  -15.8182 C   0  0  2  0  0  0  0  0  0  0  0  0
    3.9220  -20.0528  -16.2759 C   0  0  0  0  0  0  0  0  0  0  0  0
    4.7368  -20.5313  -15.4800 O   0  0  0  0  0  0  0  0  0  0  0  0
    1.5386  -20.8787  -15.7545 C   0  0  2  0  0  0  0  0  0  0  0  0
    0.6528  -20.7927  -14.4856 C   0  0  0  0  0  0  0  0  0  0  0  0
    2.2917  -22.2176  -15.8232 C   0  0  0  0  0  0  0  0  0  0  0  0
    1.3860  -20.2981  -13.2427 C   0  0  0  0  0  0  0  0  0  0  0  0
    4.2015  -19.8446  -17.5990 N   0  0  0  0  0  0  0  0  0  0  0  0
    3.6717  -20.7117  -18.6442 C   0  0  2  0  0  0  0  0  0  0  0  0
    4.8605  -21.4226  -19.3112 C   0  0  0  0  0  0  0  0  0  0  0  0
    4.7370  -22.0416  -20.3687 O   0  0  0  0  0  0  0  0  0  0  0  0
    2.7550  -19.9793  -19.6382 C   0  0  0  0  0  0  0  0  0  0  0  0
    2.9456  -18.4529  -19.7849 C   0  0  1  0  0  0  0  0  0  0  0  0
    3.0439  -17.8148  -18.3962 C   0  0  0  0  0  0  0  0  0  0  0  0
    4.1787  -18.0675  -20.6055 C   0  0  0  0  0  0  0  0  0  0  0  0
    6.0583  -21.3114  -18.6400 N   0  0  0  0  0  0  0  0  0  0  0  0
    6.3038  -22.1552  -17.4618 C   0  0  2  0  0  0  0  0  0  0  0  0
    6.2743  -23.6574  -17.8085 C   0  0  0  0  0  0  0  0  0  0  0  0
    5.2404  -24.2893  -18.0077 O   0  0  0  0  0  0  0  0  0  0  0  0
    5.2716  -21.8440  -16.3729 C   0  0  0  0  0  0  0  0  0  0  0  0
    5.6252  -22.5482  -15.1698 O   0  0  0  0  0  0  0  0  0  0  0  0
    7.5094  -24.2656  -17.7369 N   0  0  0  0  0  0  0  0  0  0  0  0
    7.9805  -25.1860  -18.7575 C   0  0  0  0  0  0  0  0  0  0  0  0
    6.9581  -26.2634  -19.0794 C   0  0  0  0  0  0  0  0  0  0  0  0
    6.8296  -27.2144  -18.1223 O   0  0  0  0  0  0  0  0  0  0  0  0
    6.2671  -26.3199  -20.0870 O   0  0  0  0  0  0  0  0  0  0  0  0
    3.0933  -16.3762  -22.3772 H   0  0  0  0  0  0  0  0  0  0  0  0
  1  2  2  0
  1  3  1  0
  1 10  1  0
  3  4  2  0
  3  9  1  0
  4  5  1  0
  4  6  1  0
  5  7  2  0
  7  8  1  0
  8  9  2  0
 10 11  1  0
 11 12  1  0
 11 14  1  1
 12 13  2  0
 12 15  1  0
 16 15  1  1
 16 17  1  0
 16 19  1  0
 17 18  2  0
 17 22  1  0
 19 20  1  0
 19 21  1  1
 23 22  1  6
 23 24  1  0
 23 26  1  0
 24 25  2  0
 24 29  1  0
 26 27  1  0
 26 28  1  6
 29 30  1  0
 29 35  1  0
 30 31  1  6
 30 33  1  0
 31 32  2  0
 31 36  1  0
 33 34  1  0
 34 35  1  0
 36 37  1  0
 37 38  1  0
 37 40  1  1
 38 39  2  0
 38 44  1  0
 40 41  1  0
 41 42  1  6
 41 43  1  0
 44 45  1  0
 45 46  1  0
 45 48  1  6
 46 47  2  0
 46 50  1  0
 48 49  1  0
 50 51  1  0
 51 52  1  0
 52 53  2  0
 52 54  1  0
 54 55  1  0
 54 60  1  0
 55 56  1  6
 55 58  1  0
 56 57  2  0
 56 61  1  0
 58 59  1  0
 59 60  1  0
 61 62  1  0
 62 63  1  0
 62 65  1  6
 63 64  2  0
 63 67  1  0
 65 66  1  0
 67 68  1  0
 68 69  1  0
 68 71  1  1
 69 70  2  0
 69 78  1  0
 71 72  1  0
 72 73  1  0
 73 74  1  0
 74 75  1  0
 75 76  2  0
 75 77  1  0
 78 79  1  0
 79 80  1  0
 79 82  1  1
 80 81  2  0
 80 83  1  0
 83 84  1  0
 84 85  1  0
 84 87  1  1
 85 86  2  0
 85 89  1  0
 87 88  1  0
 90 89  1  6
 90 91  1  0
 90 93  1  0
 91 92  2  0
 91 97  1  0
 93 94  1  0
 93 95  1  1
 94 96  1  0
 97 98  1  0
 98 99  1  0
 98101  1  6
 99100  2  0
 99105  1  0
101102  1  0
102103  1  1
102104  1  0
105106  1  0
106107  1  0
106109  1  1
107108  2  0
107111  1  0
109110  1  0
111112  1  0
112113  1  0
113114  1  0
113115  2  0
 76116  1  0
M  END
$$$$
