
     RDKit          3D

116118  0  0  0  0  0  0  0  0999 V2000
  -23.4558   -8.3638  -24.7623 C   0  0  0  0  0  0  0  0  0  0  0  0
  -23.2439   -9.4942  -25.2036 O   0  0  0  0  0  0  0  0  0  0  0  0
  -24.8035   -7.9970  -24.2452 C   0  0  0  0  0  0  0  0  0  0  0  0
  -25.8370   -8.9542  -24.2092 C   0  0  0  0  0  0  0  0  0  0  0  0
  -27.1129   -8.5474  -23.7948 C   0  0  0  0  0  0  0  0  0  0  0  0
  -25.6895  -10.2442  -24.7652 N   0  0  0  0  0  0  0  0  0  0  0  0
  -27.3396   -7.2425  -23.3403 C   0  0  0  0  0  0  0  0  0  0  0  0
  -26.2960   -6.3211  -23.3073 C   0  0  0  0  0  0  0  0  0  0  0  0
  -25.0344   -6.6967  -23.7598 C   0  0  0  0  0  0  0  0  0  0  0  0
  -22.5151   -7.3450  -24.7780 N   0  0  0  0  0  0  0  0  0  0  0  0
  -21.1107   -7.6197  -25.1073 C   0  0  2  0  0  0  0  0  0  0  0  0
  -20.4735   -8.6861  -24.1938 C   0  0  0  0  0  0  0  0  0  0  0  0
  -20.9894   -9.7878  -24.0135 O   0  0  0  0  0  0  0  0  0  0  0  0
  -20.3031   -6.3312  -25.0098 C   0  0  0  0  0  0  0  0  0  0  0  0
  -19.2178   -8.3910  -23.7134 N   0  0  0  0  0  0  0  0  0  0  0  0
  -18.4802   -9.2962  -22.8120 C   0  0  2  0  0  0  0  0  0  0  0  0
  -17.0974   -8.7125  -22.4502 C   0  0  0  0  0  0  0  0  0  0  0  0
  -16.3171   -8.2485  -23.2811 O   0  0  0  0  0  0  0  0  0  0  0  0
  -18.3222  -10.7030  -23.4300 C   0  0  2  0  0  0  0  0  0  0  0  0
  -16.9291  -11.0510  -23.5007 O   0  0  0  0  0  0  0  0  0  0  0  0
  -18.9072  -10.7973  -24.8354 C   0  0  0  0  0  0  0  0  0  0  0  0
  -16.7635   -8.8617  -21.1319 N   0  0  0  0  0  0  0  0  0  0  0  0
  -17.0169   -7.8514  -20.1009 C   0  0  2  0  0  0  0  0  0  0  0  0
  -16.0841   -8.2432  -18.9378 C   0  0  0  0  0  0  0  0  0  0  0  0
  -16.4084   -9.1487  -18.1582 O   0  0  0  0  0  0  0  0  0  0  0  0
  -18.4997   -7.7922  -19.6765 C   0  0  2  0  0  0  0  0  0  0  0  0
  -18.7502   -6.6446  -18.8549 O   0  0  0  0  0  0  0  0  0  0  0  0
  -18.9284   -9.0285  -18.8886 C   0  0  0  0  0  0  0  0  0  0  0  0
  -14.8729   -7.6088  -18.8049 N   0  0  0  0  0  0  0  0  0  0  0  0
  -13.6854   -8.3850  -18.4568 C   0  0  2  0  0  0  0  0  0  0  0  0
  -13.7413   -8.8509  -16.9891 C   0  0  0  0  0  0  0  0  0  0  0  0
  -14.7625   -8.8148  -16.3120 O   0  0  0  0  0  0  0  0  0  0  0  0
  -12.5170   -7.4118  -18.6541 C   0  0  0  0  0  0  0  0  0  0  0  0
  -13.0857   -6.3035  -19.5346 C   0  0  0  0  0  0  0  0  0  0  0  0
  -14.5379   -6.2268  -19.0934 C   0  0  0  0  0  0  0  0  0  0  0  0
  -12.5101   -9.1570  -16.4412 N   0  0  0  0  0  0  0  0  0  0  0  0
  -12.2655  -10.4452  -15.7795 C   0  0  2  0  0  0  0  0  0  0  0  0
  -10.7885  -10.4983  -15.2833 C   0  0  0  0  0  0  0  0  0  0  0  0
  -10.0224  -11.4351  -15.5220 O   0  0  0  0  0  0  0  0  0  0  0  0
  -12.5360  -11.6345  -16.7193 C   0  0  0  0  0  0  0  0  0  0  0  0
  -12.8205  -13.0137  -16.0859 C   0  0  1  0  0  0  0  0  0  0  0  0
  -12.1863  -13.1726  -14.7053 C   0  0  0  0  0  0  0  0  0  0  0  0
  -14.3045  -13.3684  -16.0355 C   0  0  0  0  0  0  0  0  0  0  0  0
  -10.4229   -9.4783  -14.4440 N   0  0  0  0  0  0  0  0  0  0  0  0
   -9.8827   -8.2143  -14.9163 C   0  0  2  0  0  0  0  0  0  0  0  0
   -8.5230   -8.4631  -15.6053 C   0  0  0  0  0  0  0  0  0  0  0  0
   -7.6269   -9.1276  -15.0950 O   0  0  0  0  0  0  0  0  0  0  0  0
   -9.7594   -7.1475  -13.8088 C   0  0  0  0  0  0  0  0  0  0  0  0
   -8.5485   -7.5333  -12.4942 S   0  0  0  0  0  0  0  0  0  0  0  0
   -8.3915   -7.8677  -16.8458 N   0  0  0  0  0  0  0  0  0  0  0  0
   -7.6334   -6.6322  -16.9740 C   0  0  0  0  0  0  0  0  0  0  0  0
   -7.1298   -6.4912  -18.4168 C   0  0  0  0  0  0  0  0  0  0  0  0
   -7.0691   -5.3887  -18.9755 O   0  0  0  0  0  0  0  0  0  0  0  0
   -6.7343   -7.6416  -19.0650 N   0  0  0  0  0  0  0  0  0  0  0  0
   -5.6949   -8.5781  -18.6202 C   0  0  2  0  0  0  0  0  0  0  0  0
   -4.2727   -8.2222  -19.1128 C   0  0  0  0  0  0  0  0  0  0  0  0
   -3.7809   -7.1043  -18.9524 O   0  0  0  0  0  0  0  0  0  0  0  0
   -6.1410   -9.9255  -19.2108 C   0  0  0  0  0  0  0  0  0  0  0  0
   -6.9428   -9.5415  -20.4515 C   0  0  0  0  0  0  0  0  0  0  0  0
   -7.6312   -8.2574  -20.0326 C   0  0  0  0  0  0  0  0  0  0  0  0
   -3.5432   -9.2809  -19.5978 N   0  0  0  0  0  0  0  0  0  0  0  0
   -2.0828   -9.3103  -19.5246 C   0  0  2  0  0  0  0  0  0  0  0  0
   -1.4604   -9.0567  -20.9060 C   0  0  0  0  0  0  0  0  0  0  0  0
   -1.8381   -8.1641  -21.6638 O   0  0  0  0  0  0  0  0  0  0  0  0
   -1.5781  -10.6430  -18.9627 C   0  0  0  0  0  0  0  0  0  0  0  0
   -0.4305  -11.0763  -19.6979 O   0  0  0  0  0  0  0  0  0  0  0  0
   -0.3834   -9.8763  -21.1920 N   0  0  0  0  0  0  0  0  0  0  0  0
    0.9761   -9.3625  -21.4320 C   0  0  2  0  0  0  0  0  0  0  0  0
    1.9309  -10.0439  -20.4109 C   0  0  0  0  0  0  0  0  0  0  0  0
    1.6594  -10.2299  -19.2307 O   0  0  0  0  0  0  0  0  0  0  0  0
    0.9757   -7.8236  -21.4117 C   0  0  0  0  0  0  0  0  0  0  0  0
    0.1125   -7.1010  -22.4600 C   0  0  0  0  0  0  0  0  0  0  0  0
    0.1204   -5.5714  -22.3832 C   0  0  0  0  0  0  0  0  0  0  0  0
    0.6244   -5.0463  -23.6459 N   0  0  0  0  0  0  0  0  0  0  0  0
   -0.0340   -5.2324  -24.8126 C   0  0  0  0  0  0  0  0  0  0  0  0
   -0.0751   -4.4095  -25.7947 N   0  0  0  0  0  0  0  0  0  0  0  0
   -0.6677   -6.4215  -24.8344 N   0  0  0  0  0  0  0  0  0  0  0  0
    3.1970  -10.2908  -20.9143 N   0  0  0  0  0  0  0  0  0  0  0  0
    3.7686  -11.6418  -20.9629 C   0  0  2  0  0  0  0  0  0  0  0  0
    4.9887  -11.7044  -20.0230 C   0  0  0  0  0  0  0  0  0  0  0  0
    5.3599  -10.7716  -19.3203 O   0  0  0  0  0  0  0  0  0  0  0  0
    4.1286  -12.0487  -22.3852 C   0  0  0  0  0  0  0  0  0  0  0  0
    5.6839  -12.8940  -20.1314 N   0  0  0  0  0  0  0  0  0  0  0  0
    5.3998  -14.0349  -19.2473 C   0  0  2  0  0  0  0  0  0  0  0  0
    6.3783  -15.2010  -19.4613 C   0  0  0  0  0  0  0  0  0  0  0  0
    6.0006  -16.3639  -19.5636 O   0  0  0  0  0  0  0  0  0  0  0  0
    3.9709  -14.5328  -19.5007 C   0  0  0  0  0  0  0  0  0  0  0  0
    3.9642  -15.9315  -19.8341 O   0  0  0  0  0  0  0  0  0  0  0  0
    7.6776  -14.8209  -19.7161 N   0  0  0  0  0  0  0  0  0  0  0  0
    8.8426  -15.5702  -19.2316 C   0  0  2  0  0  0  0  0  0  0  0  0
    8.2220  -16.9166  -18.7925 C   0  0  0  0  0  0  0  0  0  0  0  0
    7.1004  -16.9616  -18.2766 O   0  0  0  0  0  0  0  0  0  0  0  0
    9.5275  -14.8209  -18.0584 C   0  0  2  0  0  0  0  0  0  0  0  0
   10.7451  -15.6321  -17.5471 C   0  0  0  0  0  0  0  0  0  0  0  0
    8.5459  -14.5039  -16.9181 C   0  0  0  0  0  0  0  0  0  0  0  0
   11.6833  -16.1146  -18.6489 C   0  0  0  0  0  0  0  0  0  0  0  0
    8.9855  -18.0283  -19.0228 N   0  0  0  0  0  0  0  0  0  0  0  0
    8.3930  -19.3048  -19.4032 C   0  0  2  0  0  0  0  0  0  0  0  0
    9.5391  -20.3009  -19.6436 C   0  0  0  0  0  0  0  0  0  0  0  0
   10.1629  -20.3293  -20.7050 O   0  0  0  0  0  0  0  0  0  0  0  0
    7.4139  -19.1952  -20.5839 C   0  0  0  0  0  0  0  0  0  0  0  0
    6.9128  -17.7826  -20.9599 C   0  0  1  0  0  0  0  0  0  0  0  0
    6.1483  -17.1806  -19.7773 C   0  0  0  0  0  0  0  0  0  0  0  0
    8.0343  -16.8272  -21.3745 C   0  0  0  0  0  0  0  0  0  0  0  0
    9.8084  -21.1459  -18.5896 N   0  0  0  0  0  0  0  0  0  0  0  0
   10.2508  -22.5204  -18.8645 C   0  0  2  0  0  0  0  0  0  0  0  0
    9.0846  -23.4273  -19.3063 C   0  0  0  0  0  0  0  0  0  0  0  0
    7.9689  -23.3986  -18.7939 O   0  0  0  0  0  0  0  0  0  0  0  0
   10.9350  -23.1060  -17.6247 C   0  0  0  0  0  0  0  0  0  0  0  0
   12.2279  -23.6165  -17.9938 O   0  0  0  0  0  0  0  0  0  0  0  0
    9.4452  -24.3772  -20.2379 N   0  0  0  0  0  0  0  0  0  0  0  0
   10.3087  -25.4979  -19.9079 C   0  0  0  0  0  0  0  0  0  0  0  0
    9.5411  -26.8049  -19.7968 C   0  0  0  0  0  0  0  0  0  0  0  0
    8.1946  -26.6691  -19.8703 O   0  0  0  0  0  0  0  0  0  0  0  0
   10.0321  -27.9174  -19.6667 O   0  0  0  0  0  0  0  0  0  0  0  0
   -0.1366   -3.4592  -25.4145 H   0  0  0  0  0  0  0  0  0  0  0  0
  1  2  2  0
  1  3  1  0
  1 10  1  0
  3  4  2  0
  3  9  1  0
  4  5  1  0
  4  6  1  0
  5  7  2  0
  7  8  1  0
  8  9  2  0
 10 11  1  0
 11 12  1  0
 11 14  1  1
 12 13  2  0
 12 15  1  0
 16 15  1  6
 16 17  1  0
 16 19  1  0
 17 18  2  0
 17 22  1  0
 19 20  1  0
 19 21  1  6
 23 22  1  6
 23 24  1  0
 23 26  1  0
 24 25  2  0
 24 29  1  0
 26 27  1  0
 26 28  1  1
 29 30  1  0
 29 35  1  0
 30 31  1  1
 30 33  1  0
 31 32  2  0
 31 36  1  0
 33 34  1  0
 34 35  1  0
 36 37  1  0
 37 38  1  0
 37 40  1  6
 38 39  2  0
 38 44  1  0
 40 41  1  0
 41 42  1  1
 41 43  1  0
 44 45  1  0
 45 46  1  0
 45 48  1  1
 46 47  2  0
 46 50  1  0
 48 49  1  0
 50 51  1  0
 51 52  1  0
 52 53  2  0
 52 54  1  0
 54 55  1  0
 54 60  1  0
 55 56  1  6
 55 58  1  0
 56 57  2  0
 56 61  1  0
 58 59  1  0
 59 60  1  0
 61 62  1  0
 62 63  1  0
 62 65  1  6
 63 64  2  0
 63 67  1  0
 65 66  1  0
 67 68  1  0
 68 69  1  0
 68 71  1  1
 69 70  2  0
 69 78  1  0
 71 72  1  0
 72 73  1  0
 73 74  1  0
 74 75  1  0
 75 76  2  0
 75 77  1  0
 78 79  1  0
 79 80  1  0
 79 82  1  6
 80 81  2  0
 80 83  1  0
 83 84  1  0
 84 85  1  0
 84 87  1  6
 85 86  2  0
 85 89  1  0
 87 88  1  0
 90 89  1  1
 90 91  1  0
 90 93  1  0
 91 92  2  0
 91 97  1  0
 93 94  1  0
 93 95  1  1
 94 96  1  0
 97 98  1  0
 98 99  1  0
 98101  1  6
 99100  2  0
 99105  1  0
101102  1  0
102103  1  1
102104  1  0
105106  1  0
106107  1  0
106109  1  1
107108  2  0
107111  1  0
109110  1  0
111112  1  0
112113  1  0
113114  1  0
113115  2  0
 76116  1  0
M  END
$$$$
