
     RDKit          3D

116118  0  0  0  0  0  0  0  0999 V2000
   11.3992  -14.8719  -10.8898 C   0  0  0  0  0  0  0  0  0  0  0  0
   10.4842  -14.0787  -10.6642 O   0  0  0  0  0  0  0  0  0  0  0  0
   11.9554  -15.7125   -9.7933 C   0  0  0  0  0  0  0  0  0  0  0  0
   11.4174  -15.6341   -8.4933 C   0  0  0  0  0  0  0  0  0  0  0  0
   12.0232  -16.3784   -7.4715 C   0  0  0  0  0  0  0  0  0  0  0  0
   10.4312  -14.6862   -8.1414 N   0  0  0  0  0  0  0  0  0  0  0  0
   13.0831  -17.2506   -7.7482 C   0  0  0  0  0  0  0  0  0  0  0  0
   13.5619  -17.3803   -9.0493 C   0  0  0  0  0  0  0  0  0  0  0  0
   13.0016  -16.6129  -10.0665 C   0  0  0  0  0  0  0  0  0  0  0  0
   12.0231  -14.9937  -12.1224 N   0  0  0  0  0  0  0  0  0  0  0  0
   11.4731  -14.3360  -13.3146 C   0  0  2  0  0  0  0  0  0  0  0  0
   10.1116  -14.9145  -13.7497 C   0  0  0  0  0  0  0  0  0  0  0  0
    9.7700  -16.0637  -13.4759 O   0  0  0  0  0  0  0  0  0  0  0  0
   12.4613  -14.4628  -14.4677 C   0  0  0  0  0  0  0  0  0  0  0  0
    9.2386  -14.0217  -14.3290 N   0  0  0  0  0  0  0  0  0  0  0  0
    7.8615  -14.3908  -14.7078 C   0  0  2  0  0  0  0  0  0  0  0  0
    7.1125  -13.1860  -15.3170 C   0  0  0  0  0  0  0  0  0  0  0  0
    7.1291  -12.0571  -14.8271 O   0  0  0  0  0  0  0  0  0  0  0  0
    7.0767  -14.9556  -13.5033 C   0  0  2  0  0  0  0  0  0  0  0  0
    6.2270  -13.9348  -12.9529 O   0  0  0  0  0  0  0  0  0  0  0  0
    7.9897  -15.4637  -12.3921 C   0  0  0  0  0  0  0  0  0  0  0  0
    6.3294  -13.5093  -16.3913 N   0  0  0  0  0  0  0  0  0  0  0  0
    5.9730  -12.5717  -17.4598 C   0  0  2  0  0  0  0  0  0  0  0  0
    4.5694  -12.0627  -17.0755 C   0  0  0  0  0  0  0  0  0  0  0  0
    3.7005  -12.8597  -16.6978 O   0  0  0  0  0  0  0  0  0  0  0  0
    6.0041  -13.2230  -18.8587 C   0  0  2  0  0  0  0  0  0  0  0  0
    7.3412  -13.5928  -19.2200 O   0  0  0  0  0  0  0  0  0  0  0  0
    5.4714  -12.2913  -19.9455 C   0  0  0  0  0  0  0  0  0  0  0  0
    4.3100  -10.7143  -17.1138 N   0  0  0  0  0  0  0  0  0  0  0  0
    2.9685  -10.2278  -16.8014 C   0  0  2  0  0  0  0  0  0  0  0  0
    1.9788  -10.5750  -17.9301 C   0  0  0  0  0  0  0  0  0  0  0  0
    2.0364  -10.0786  -19.0494 O   0  0  0  0  0  0  0  0  0  0  0  0
    3.1259   -8.7065  -16.6912 C   0  0  0  0  0  0  0  0  0  0  0  0
    4.6232   -8.4890  -16.4969 C   0  0  0  0  0  0  0  0  0  0  0  0
    5.2410   -9.6179  -17.3052 C   0  0  0  0  0  0  0  0  0  0  0  0
    0.9166  -11.3652  -17.5335 N   0  0  0  0  0  0  0  0  0  0  0  0
   -0.1423  -11.7531  -18.4744 C   0  0  2  0  0  0  0  0  0  0  0  0
   -0.7757  -10.4712  -19.0957 C   0  0  0  0  0  0  0  0  0  0  0  0
   -0.9895   -9.4380  -18.4567 O   0  0  0  0  0  0  0  0  0  0  0  0
   -1.2393  -12.5905  -17.7918 C   0  0  0  0  0  0  0  0  0  0  0  0
   -0.9025  -13.2786  -16.4510 C   0  0  1  0  0  0  0  0  0  0  0  0
   -2.1437  -13.5815  -15.6137 C   0  0  0  0  0  0  0  0  0  0  0  0
   -0.0445  -14.5317  -16.6061 C   0  0  0  0  0  0  0  0  0  0  0  0
   -1.2034  -10.6063  -20.3908 N   0  0  0  0  0  0  0  0  0  0  0  0
   -2.4477  -10.0374  -20.8813 C   0  0  2  0  0  0  0  0  0  0  0  0
   -3.6231  -10.9587  -20.4875 C   0  0  0  0  0  0  0  0  0  0  0  0
   -3.9191  -11.9700  -21.1158 O   0  0  0  0  0  0  0  0  0  0  0  0
   -2.4401   -9.7614  -22.3991 C   0  0  0  0  0  0  0  0  0  0  0  0
   -1.0618  -10.5341  -23.3192 S   0  0  0  0  0  0  0  0  0  0  0  0
   -4.3245  -10.5470  -19.3699 N   0  0  0  0  0  0  0  0  0  0  0  0
   -5.5959  -11.1766  -19.0463 C   0  0  0  0  0  0  0  0  0  0  0  0
   -5.9919  -10.8148  -17.6084 C   0  0  0  0  0  0  0  0  0  0  0  0
   -6.0332  -11.6696  -16.7146 O   0  0  0  0  0  0  0  0  0  0  0  0
   -6.2891   -9.4945  -17.3464 N   0  0  0  0  0  0  0  0  0  0  0  0
   -7.6306   -8.9046  -17.2602 C   0  0  2  0  0  0  0  0  0  0  0  0
   -8.1873   -8.4035  -18.6133 C   0  0  0  0  0  0  0  0  0  0  0  0
   -7.4589   -7.9534  -19.4988 O   0  0  0  0  0  0  0  0  0  0  0  0
   -7.4491   -7.7259  -16.2901 C   0  0  0  0  0  0  0  0  0  0  0  0
   -5.9846   -7.3291  -16.4556 C   0  0  0  0  0  0  0  0  0  0  0  0
   -5.2930   -8.6569  -16.6935 C   0  0  0  0  0  0  0  0  0  0  0  0
   -9.5255   -8.6413  -18.8157 N   0  0  0  0  0  0  0  0  0  0  0  0
  -10.2008   -8.2503  -20.0526 C   0  0  2  0  0  0  0  0  0  0  0  0
  -11.1456   -7.0637  -19.8089 C   0  0  0  0  0  0  0  0  0  0  0  0
  -11.1682   -6.4225  -18.7592 O   0  0  0  0  0  0  0  0  0  0  0  0
  -10.9809   -9.4215  -20.6577 C   0  0  0  0  0  0  0  0  0  0  0  0
  -12.0624   -9.7820  -19.7942 O   0  0  0  0  0  0  0  0  0  0  0  0
  -11.9194   -6.7317  -20.9064 N   0  0  0  0  0  0  0  0  0  0  0  0
  -12.1446   -5.3421  -21.3400 C   0  0  2  0  0  0  0  0  0  0  0  0
  -13.6623   -5.0364  -21.1932 C   0  0  0  0  0  0  0  0  0  0  0  0
  -14.1714   -3.9456  -21.4217 O   0  0  0  0  0  0  0  0  0  0  0  0
  -11.5584   -5.1207  -22.7458 C   0  0  0  0  0  0  0  0  0  0  0  0
  -10.5285   -3.9906  -22.9146 C   0  0  0  0  0  0  0  0  0  0  0  0
  -10.6800   -2.8081  -21.9531 C   0  0  0  0  0  0  0  0  0  0  0  0
  -10.0541   -1.6377  -22.5551 N   0  0  0  0  0  0  0  0  0  0  0  0
  -10.0915   -0.4219  -21.9637 C   0  0  0  0  0  0  0  0  0  0  0  0
  -10.7473    0.5985  -22.3788 N   0  0  0  0  0  0  0  0  0  0  0  0
   -9.3365   -0.3952  -20.8478 N   0  0  0  0  0  0  0  0  0  0  0  0
  -14.3847   -6.0724  -20.6257 N   0  0  0  0  0  0  0  0  0  0  0  0
  -15.7671   -6.3687  -21.0201 C   0  0  2  0  0  0  0  0  0  0  0  0
  -16.7062   -6.0393  -19.8429 C   0  0  0  0  0  0  0  0  0  0  0  0
  -16.4768   -6.3441  -18.6784 O   0  0  0  0  0  0  0  0  0  0  0  0
  -15.9228   -7.8113  -21.4815 C   0  0  0  0  0  0  0  0  0  0  0  0
  -17.8878   -5.4511  -20.2529 N   0  0  0  0  0  0  0  0  0  0  0  0
  -18.6426   -5.9631  -21.4071 C   0  0  2  0  0  0  0  0  0  0  0  0
  -17.9121   -5.7250  -22.7385 C   0  0  0  0  0  0  0  0  0  0  0  0
  -16.7860   -5.2408  -22.7914 O   0  0  0  0  0  0  0  0  0  0  0  0
  -20.0142   -5.2779  -21.4638 C   0  0  0  0  0  0  0  0  0  0  0  0
  -20.9047   -5.9801  -22.3479 O   0  0  0  0  0  0  0  0  0  0  0  0
  -18.5361   -6.2668  -23.8407 N   0  0  0  0  0  0  0  0  0  0  0  0
  -18.8769   -7.6898  -23.9512 C   0  0  2  0  0  0  0  0  0  0  0  0
  -17.9248   -8.1817  -25.0657 C   0  0  0  0  0  0  0  0  0  0  0  0
  -17.5790   -9.3660  -25.1298 O   0  0  0  0  0  0  0  0  0  0  0  0
  -20.3719   -7.8682  -24.3253 C   0  0  2  0  0  0  0  0  0  0  0  0
  -21.0698   -6.4866  -24.4032 C   0  0  0  0  0  0  0  0  0  0  0  0
  -21.1051   -8.8133  -23.3591 C   0  0  0  0  0  0  0  0  0  0  0  0
  -20.4258   -5.5144  -25.3866 C   0  0  0  0  0  0  0  0  0  0  0  0
  -17.5128   -7.2319  -25.9602 N   0  0  0  0  0  0  0  0  0  0  0  0
  -16.7389   -7.5751  -27.1469 C   0  0  2  0  0  0  0  0  0  0  0  0
  -17.7205   -8.0780  -28.2179 C   0  0  0  0  0  0  0  0  0  0  0  0
  -18.7934   -8.6040  -27.9198 O   0  0  0  0  0  0  0  0  0  0  0  0
  -15.5849   -8.5507  -26.8617 C   0  0  0  0  0  0  0  0  0  0  0  0
  -14.5821   -8.1572  -25.7539 C   0  0  1  0  0  0  0  0  0  0  0  0
  -13.6718   -7.0363  -26.2640 C   0  0  0  0  0  0  0  0  0  0  0  0
  -15.2535   -7.7093  -24.4535 C   0  0  0  0  0  0  0  0  0  0  0  0
  -17.3087   -7.8940  -29.5194 N   0  0  0  0  0  0  0  0  0  0  0  0
  -17.3472   -6.5452  -30.1023 C   0  0  2  0  0  0  0  0  0  0  0  0
  -17.5674   -5.4573  -29.0318 C   0  0  0  0  0  0  0  0  0  0  0  0
  -17.0800   -5.5028  -27.9056 O   0  0  0  0  0  0  0  0  0  0  0  0
  -18.4459   -6.4682  -31.1675 C   0  0  0  0  0  0  0  0  0  0  0  0
  -19.3305   -7.5923  -31.0178 O   0  0  0  0  0  0  0  0  0  0  0  0
  -18.4791   -4.4924  -29.4036 N   0  0  0  0  0  0  0  0  0  0  0  0
  -18.8268   -3.3796  -28.5368 C   0  0  0  0  0  0  0  0  0  0  0  0
  -19.8525   -2.4537  -29.1697 C   0  0  0  0  0  0  0  0  0  0  0  0
  -19.7051   -1.1479  -28.8379 O   0  0  0  0  0  0  0  0  0  0  0  0
  -20.7485   -2.7882  -29.9320 O   0  0  0  0  0  0  0  0  0  0  0  0
  -10.6219    1.3577  -21.7012 H   0  0  0  0  0  0  0  0  0  0  0  0
  1  2  2  0
  1  3  1  0
  1 10  1  0
  3  4  2  0
  3  9  1  0
  4  5  1  0
  4  6  1  0
  5  7  2  0
  7  8  1  0
  8  9  2  0
 10 11  1  0
 11 12  1  0
 11 14  1  6
 12 13  2  0
 12 15  1  0
 16 15  1  1
 16 17  1  0
 16 19  1  0
 17 18  2  0
 17 22  1  0
 19 20  1  0
 19 21  1  1
 23 22  1  1
 23 24  1  0
 23 26  1  0
 24 25  2  0
 24 29  1  0
 26 27  1  0
 26 28  1  6
 29 30  1  0
 29 35  1  0
 30 31  1  6
 30 33  1  0
 31 32  2  0
 31 36  1  0
 33 34  1  0
 34 35  1  0
 36 37  1  0
 37 38  1  0
 37 40  1  1
 38 39  2  0
 38 44  1  0
 40 41  1  0
 41 42  1  6
 41 43  1  0
 44 45  1  0
 45 46  1  0
 45 48  1  6
 46 47  2  0
 46 50  1  0
 48 49  1  0
 50 51  1  0
 51 52  1  0
 52 53  2  0
 52 54  1  0
 54 55  1  0
 54 60  1  0
 55 56  1  6
 55 58  1  0
 56 57  2  0
 56 61  1  0
 58 59  1  0
 59 60  1  0
 61 62  1  0
 62 63  1  0
 62 65  1  1
 63 64  2  0
 63 67  1  0
 65 66  1  0
 67 68  1  0
 68 69  1  0
 68 71  1  6
 69 70  2  0
 69 78  1  0
 71 72  1  0
 72 73  1  0
 73 74  1  0
 74 75  1  0
 75 76  2  0
 75 77  1  0
 78 79  1  0
 79 80  1  0
 79 82  1  1
 80 81  2  0
 80 83  1  0
 83 84  1  0
 84 85  1  0
 84 87  1  6
 85 86  2  0
 85 89  1  0
 87 88  1  0
 90 89  1  6
 90 91  1  0
 90 93  1  0
 91 92  2  0
 91 97  1  0
 93 94  1  0
 93 95  1  1
 94 96  1  0
 97 98  1  0
 98 99  1  0
 98101  1  1
 99100  2  0
 99105  1  0
101102  1  0
102103  1  6
102104  1  0
105106  1  0
106107  1  0
106109  1  6
107108  2  0
107111  1  0
109110  1  0
111112  1  0
112113  1  0
113114  1  0
113115  2  0
 76116  1  0
M  END
$$$$
