
     RDKit          3D

 40 45  0  0  0  0  0  0  0  0999 V2000
   -0.4919  -14.0404   22.8987 C   0  0  0  0  0  0  0  0  0  0  0  0
    0.3465  -14.5538   24.0658 C   0  0  0  0  0  0  0  0  0  0  0  0
   -0.3774  -14.5339   25.3408 C   0  0  0  0  0  0  0  0  0  0  0  0
   -1.5908  -14.0884   25.3443 O   0  0  0  0  0  0  0  0  0  0  0  0
    0.1150  -14.9631   26.5942 N   0  0  0  0  0  0  0  0  0  0  0  0
    1.4037  -15.4037   27.0844 C   0  0  0  0  0  0  0  0  0  0  0  0
    0.7365  -15.9713   28.2835 C   0  0  2  0  0  0  0  0  0  0  0  0
   -0.4209  -15.1497   27.9118 C   0  0  0  0  0  0  0  0  0  0  0  0
    1.3269  -15.8179   29.5761 N   0  0  0  0  0  0  0  0  0  0  0  0
    2.4568  -15.0970   29.9297 C   0  0  0  0  0  0  0  0  0  0  0  0
    3.6110  -15.5666   29.5782 O   0  0  0  0  0  0  0  0  0  0  0  0
    2.5643  -13.8362   30.6639 C   0  0  0  0  0  0  0  0  0  0  0  0
    3.2105  -13.8447   31.9352 N   0  0  0  0  0  0  0  0  0  0  0  0
    2.5737  -14.0440   33.1484 C   0  0  0  0  0  0  0  0  0  0  0  0
    1.1237  -14.2336   33.2376 C   0  0  2  0  0  0  0  0  0  0  0  0
    0.1874  -13.0949   33.4115 C   0  0  0  0  0  0  0  0  0  0  0  0
    0.4013  -14.0636   34.5129 C   0  0  0  0  0  0  0  0  0  0  0  0
    3.4709  -14.0388   34.1666 C   0  0  0  0  0  0  0  0  0  0  0  0
    3.2916  -14.2491   35.6046 C   0  0  0  0  0  0  0  0  0  0  0  0
    2.9972  -13.2715   36.3184 O   0  0  0  0  0  0  0  0  0  0  0  0
    3.4486  -15.5250   36.1977 N   0  0  0  0  0  0  0  0  0  0  0  0
    3.6420  -16.6788   35.3583 C   0  0  0  0  0  0  0  0  0  0  0  0
    3.6993  -17.9822   36.0985 C   0  0  0  0  0  0  0  0  0  0  0  0
    4.5522  -17.8306   37.2883 C   0  0  0  0  0  0  0  0  0  0  0  0
    5.4574  -18.8067   37.6209 C   0  0  0  0  0  0  0  0  0  0  0  0
    5.6225  -19.9688   36.8796 O   0  0  0  0  0  0  0  0  0  0  0  0
    4.9931  -21.1781   37.2556 C   0  0  0  0  0  0  0  0  0  0  0  0
    6.2682  -18.6620   38.7492 C   0  0  0  0  0  0  0  0  0  0  0  0
    6.1306  -17.5190   39.5067 C   0  0  0  0  0  0  0  0  0  0  0  0
    5.2228  -16.5375   39.1768 C   0  0  0  0  0  0  0  0  0  0  0  0
    4.4295  -16.7002   38.0567 C   0  0  0  0  0  0  0  0  0  0  0  0
    3.4182  -15.7114   37.6396 C   0  0  0  0  0  0  0  0  0  0  0  0
    4.6959  -13.8319   33.6030 C   0  0  0  0  0  0  0  0  0  0  0  0
    5.9515  -13.7407   34.1669 C   0  0  0  0  0  0  0  0  0  0  0  0
    7.0578  -13.5318   33.3837 C   0  0  0  0  0  0  0  0  0  0  0  0
    8.6837  -13.4066   34.0414 Cl  0  0  0  0  0  0  0  0  0  0  0  0
    6.8608  -13.4202   32.0461 C   0  0  0  0  0  0  0  0  0  0  0  0
    5.6223  -13.5024   31.4086 C   0  0  0  0  0  0  0  0  0  0  0  0
    5.4801  -13.3789   29.9642 C   0  0  0  0  0  0  0  0  0  0  0  0
    4.5136  -13.7137   32.2124 C   0  0  0  0  0  0  0  0  0  0  0  0
  1  2  1  0
  2  3  1  0
  3  4  2  0
  3  5  1  0
  5  6  1  0
  5  8  1  0
  6  7  1  0
  7  8  1  0
  7  9  1  1
  9 10  1  0
 10 11  2  0
 10 12  1  0
 12 13  1  0
 13 14  1  0
 13 40  1  0
 15 14  1  1
 14 18  2  0
 15 16  1  0
 15 17  1  0
 16 17  1  0
 18 19  1  0
 18 33  1  0
 19 20  2  0
 19 21  1  0
 21 22  1  0
 21 32  1  0
 22 23  1  0
 23 24  1  0
 24 25  2  0
 24 31  1  0
 25 26  1  0
 25 28  1  0
 26 27  1  0
 28 29  2  0
 29 30  1  0
 30 31  2  0
 31 32  1  0
 33 34  2  0
 33 40  1  0
 34 35  1  0
 35 36  1  0
 35 37  2  0
 37 38  1  0
 38 39  1  0
 38 40  2  0
M  END
$$$$
