
     RDKit          3D

 40 45  0  0  0  0  0  0  0  0999 V2000
    2.0552  -15.2076   22.3063 C   0  0  0  0  0  0  0  0  0  0  0  0
    1.6267  -14.0137   23.1547 C   0  0  0  0  0  0  0  0  0  0  0  0
    0.6081  -14.3583   24.1517 C   0  0  0  0  0  0  0  0  0  0  0  0
   -0.4946  -14.8894   23.7360 O   0  0  0  0  0  0  0  0  0  0  0  0
    0.7037  -14.1741   25.5498 N   0  0  0  0  0  0  0  0  0  0  0  0
    1.7177  -13.6505   26.4402 C   0  0  0  0  0  0  0  0  0  0  0  0
    1.0179  -14.2853   27.5858 C   0  0  2  0  0  0  0  0  0  0  0  0
   -0.1357  -14.4128   26.6884 C   0  0  0  0  0  0  0  0  0  0  0  0
    0.8777  -13.5825   28.8226 N   0  0  0  0  0  0  0  0  0  0  0  0
    1.1148  -14.0417   30.1088 C   0  0  0  0  0  0  0  0  0  0  0  0
    1.5517  -15.2522   30.2502 O   0  0  0  0  0  0  0  0  0  0  0  0
    0.9484  -13.3524   31.3884 C   0  0  0  0  0  0  0  0  0  0  0  0
    1.7431  -13.7748   32.4947 N   0  0  0  0  0  0  0  0  0  0  0  0
    1.3347  -14.6681   33.4706 C   0  0  0  0  0  0  0  0  0  0  0  0
   -0.0102  -15.2491   33.4717 C   0  0  2  0  0  0  0  0  0  0  0  0
   -1.2333  -14.4095   33.5227 C   0  0  0  0  0  0  0  0  0  0  0  0
   -0.8500  -15.2458   34.6850 C   0  0  0  0  0  0  0  0  0  0  0  0
    2.3349  -14.8970   34.3588 C   0  0  0  0  0  0  0  0  0  0  0  0
    2.4004  -15.7832   35.5227 C   0  0  0  0  0  0  0  0  0  0  0  0
    1.5427  -15.6575   36.4173 O   0  0  0  0  0  0  0  0  0  0  0  0
    3.4097  -16.7670   35.6558 N   0  0  0  0  0  0  0  0  0  0  0  0
    4.0731  -17.2668   34.4797 C   0  0  0  0  0  0  0  0  0  0  0  0
    5.0526  -18.3721   34.7420 C   0  0  0  0  0  0  0  0  0  0  0  0
    5.8715  -18.0300   35.9161 C   0  0  0  0  0  0  0  0  0  0  0  0
    7.2252  -18.2535   35.9057 C   0  0  0  0  0  0  0  0  0  0  0  0
    7.8924  -18.8027   34.8191 O   0  0  0  0  0  0  0  0  0  0  0  0
    8.8448  -18.0574   34.0861 C   0  0  0  0  0  0  0  0  0  0  0  0
    8.0027  -17.9271   37.0194 C   0  0  0  0  0  0  0  0  0  0  0  0
    7.3717  -17.3786   38.1149 C   0  0  0  0  0  0  0  0  0  0  0  0
    6.0132  -17.1535   38.1297 C   0  0  0  0  0  0  0  0  0  0  0  0
    5.2618  -17.4841   37.0176 C   0  0  0  0  0  0  0  0  0  0  0  0
    3.8006  -17.2967   36.9525 C   0  0  0  0  0  0  0  0  0  0  0  0
    3.3957  -14.1421   33.9515 C   0  0  0  0  0  0  0  0  0  0  0  0
    4.6620  -13.9955   34.4786 C   0  0  0  0  0  0  0  0  0  0  0  0
    5.5784  -13.1689   33.8804 C   0  0  0  0  0  0  0  0  0  0  0  0
    7.2070  -12.9399   34.5028 Cl  0  0  0  0  0  0  0  0  0  0  0  0
    5.1854  -12.5110   32.7610 C   0  0  0  0  0  0  0  0  0  0  0  0
    3.9237  -12.6117   32.1735 C   0  0  0  0  0  0  0  0  0  0  0  0
    3.5667  -11.8803   30.9655 C   0  0  0  0  0  0  0  0  0  0  0  0
    3.0082  -13.4503   32.7886 C   0  0  0  0  0  0  0  0  0  0  0  0
  1  2  1  0
  2  3  1  0
  3  4  2  0
  3  5  1  0
  5  6  1  0
  5  8  1  0
  6  7  1  0
  7  8  1  0
  7  9  1  1
  9 10  1  0
 10 11  2  0
 10 12  1  0
 12 13  1  0
 13 14  1  0
 13 40  1  0
 15 14  1  1
 14 18  2  0
 15 16  1  0
 15 17  1  0
 16 17  1  0
 18 19  1  0
 18 33  1  0
 19 20  2  0
 19 21  1  0
 21 22  1  0
 21 32  1  0
 22 23  1  0
 23 24  1  0
 24 25  2  0
 24 31  1  0
 25 26  1  0
 25 28  1  0
 26 27  1  0
 28 29  2  0
 29 30  1  0
 30 31  2  0
 31 32  1  0
 33 34  2  0
 33 40  1  0
 34 35  1  0
 35 36  1  0
 35 37  2  0
 37 38  1  0
 38 39  1  0
 38 40  2  0
M  END
$$$$
