
     RDKit          3D

 40 45  0  0  0  0  0  0  0  0999 V2000
   -0.6040  -10.7456   31.1469 C   0  0  0  0  0  0  0  0  0  0  0  0
   -0.2413  -12.2206   31.0001 C   0  0  0  0  0  0  0  0  0  0  0  0
    1.0948  -12.4260   30.4318 C   0  0  0  0  0  0  0  0  0  0  0  0
    1.7507  -11.3875   30.0293 O   0  0  0  0  0  0  0  0  0  0  0  0
    1.7616  -13.6625   30.2769 N   0  0  0  0  0  0  0  0  0  0  0  0
    3.0573  -14.0635   29.7714 C   0  0  0  0  0  0  0  0  0  0  0  0
    2.5673  -15.4615   29.6677 C   0  0  2  0  0  0  0  0  0  0  0  0
    1.4682  -15.0412   30.5439 C   0  0  0  0  0  0  0  0  0  0  0  0
    3.4075  -16.5496   30.0591 N   0  0  0  0  0  0  0  0  0  0  0  0
    4.7484  -16.5232   30.4091 C   0  0  0  0  0  0  0  0  0  0  0  0
    5.5502  -15.8080   29.6867 O   0  0  0  0  0  0  0  0  0  0  0  0
    5.4362  -17.1972   31.5104 C   0  0  0  0  0  0  0  0  0  0  0  0
    6.8595  -17.2783   31.4727 N   0  0  0  0  0  0  0  0  0  0  0  0
    7.5826  -18.2238   30.7654 C   0  0  0  0  0  0  0  0  0  0  0  0
    6.9244  -19.2830   29.9965 C   0  0  2  0  0  0  0  0  0  0  0  0
    5.4689  -19.5523   30.1085 C   0  0  0  0  0  0  0  0  0  0  0  0
    6.4535  -20.5240   30.6411 C   0  0  0  0  0  0  0  0  0  0  0  0
    8.9153  -18.0047   30.8978 C   0  0  0  0  0  0  0  0  0  0  0  0
   10.0646  -18.6984   30.3128 C   0  0  0  0  0  0  0  0  0  0  0  0
    9.8890  -19.8244   29.8098 O   0  0  0  0  0  0  0  0  0  0  0  0
   11.3596  -18.1262   30.3102 N   0  0  0  0  0  0  0  0  0  0  0  0
   12.4972  -18.9464   29.9841 C   0  0  0  0  0  0  0  0  0  0  0  0
   13.8202  -18.2508   30.1091 C   0  0  0  0  0  0  0  0  0  0  0  0
   13.7263  -16.9115   29.5060 C   0  0  0  0  0  0  0  0  0  0  0  0
   14.7388  -16.4371   28.7109 C   0  0  0  0  0  0  0  0  0  0  0  0
   15.8863  -17.1671   28.4321 O   0  0  0  0  0  0  0  0  0  0  0  0
   16.9702  -16.5949   27.7266 C   0  0  0  0  0  0  0  0  0  0  0  0
   14.6489  -15.1667   28.1370 C   0  0  0  0  0  0  0  0  0  0  0  0
   13.5218  -14.4160   28.3925 C   0  0  0  0  0  0  0  0  0  0  0  0
   12.5038  -14.8881   29.1906 C   0  0  0  0  0  0  0  0  0  0  0  0
   12.6125  -16.1476   29.7494 C   0  0  0  0  0  0  0  0  0  0  0  0
   11.5817  -16.7254   30.6315 C   0  0  0  0  0  0  0  0  0  0  0  0
    9.0505  -16.9094   31.6997 C   0  0  0  0  0  0  0  0  0  0  0  0
   10.1733  -16.2499   32.1551 C   0  0  0  0  0  0  0  0  0  0  0  0
   10.0590  -15.1463   32.9613 C   0  0  0  0  0  0  0  0  0  0  0  0
   11.4504  -14.2628   33.5737 Cl  0  0  0  0  0  0  0  0  0  0  0  0
    8.8059  -14.7399   33.2853 C   0  0  0  0  0  0  0  0  0  0  0  0
    7.6283  -15.3570   32.8614 C   0  0  0  0  0  0  0  0  0  0  0  0
    6.3110  -14.8656   33.2422 C   0  0  0  0  0  0  0  0  0  0  0  0
    7.7592  -16.4706   32.0476 C   0  0  0  0  0  0  0  0  0  0  0  0
  1  2  1  0
  2  3  1  0
  3  4  2  0
  3  5  1  0
  5  6  1  0
  5  8  1  0
  6  7  1  0
  7  8  1  0
  7  9  1  1
  9 10  1  0
 10 11  2  0
 10 12  1  0
 12 13  1  0
 13 14  1  0
 13 40  1  0
 15 14  1  1
 14 18  2  0
 15 16  1  0
 15 17  1  0
 16 17  1  0
 18 19  1  0
 18 33  1  0
 19 20  2  0
 19 21  1  0
 21 22  1  0
 21 32  1  0
 22 23  1  0
 23 24  1  0
 24 25  2  0
 24 31  1  0
 25 26  1  0
 25 28  1  0
 26 27  1  0
 28 29  2  0
 29 30  1  0
 30 31  2  0
 31 32  1  0
 33 34  2  0
 33 40  1  0
 34 35  1  0
 35 36  1  0
 35 37  2  0
 37 38  1  0
 38 39  1  0
 38 40  2  0
M  END
$$$$
