
     RDKit          3D

 40 45  0  0  0  0  0  0  0  0999 V2000
    1.3498  -14.6655   21.6308 C   0  0  0  0  0  0  0  0  0  0  0  0
    1.9586  -14.7752   23.0257 C   0  0  0  0  0  0  0  0  0  0  0  0
    1.0217  -15.3143   24.0166 C   0  0  0  0  0  0  0  0  0  0  0  0
   -0.1321  -15.7243   23.6025 O   0  0  0  0  0  0  0  0  0  0  0  0
    1.2486  -15.4427   25.4057 N   0  0  0  0  0  0  0  0  0  0  0  0
    0.4452  -15.8650   26.5333 C   0  0  0  0  0  0  0  0  0  0  0  0
    1.4313  -15.2395   27.4507 C   0  0  2  0  0  0  0  0  0  0  0  0
    2.3457  -15.2219   26.3034 C   0  0  0  0  0  0  0  0  0  0  0  0
    1.8189  -15.9065   28.6540 N   0  0  0  0  0  0  0  0  0  0  0  0
    2.5204  -15.3982   29.7360 C   0  0  0  0  0  0  0  0  0  0  0  0
    2.8668  -14.1511   29.7030 O   0  0  0  0  0  0  0  0  0  0  0  0
    2.9498  -16.0673   30.9641 C   0  0  0  0  0  0  0  0  0  0  0  0
    4.0186  -15.4913   31.7121 N   0  0  0  0  0  0  0  0  0  0  0  0
    3.8657  -14.7315   32.8595 C   0  0  0  0  0  0  0  0  0  0  0  0
    2.5435  -14.4112   33.4031 C   0  0  2  0  0  0  0  0  0  0  0  0
    1.3393  -15.2157   33.0771 C   0  0  0  0  0  0  0  0  0  0  0  0
    1.4811  -13.8351   32.5565 C   0  0  0  0  0  0  0  0  0  0  0  0
    5.0746  -14.3681   33.3577 C   0  0  0  0  0  0  0  0  0  0  0  0
    5.4286  -13.6102   34.5596 C   0  0  0  0  0  0  0  0  0  0  0  0
    5.0174  -12.4394   34.6693 O   0  0  0  0  0  0  0  0  0  0  0  0
    6.2243  -14.1704   35.5879 N   0  0  0  0  0  0  0  0  0  0  0  0
    6.8124  -13.3081   36.5797 C   0  0  0  0  0  0  0  0  0  0  0  0
    7.7095  -14.0079   37.5572 C   0  0  0  0  0  0  0  0  0  0  0  0
    7.0661  -15.2536   38.0048 C   0  0  0  0  0  0  0  0  0  0  0  0
    7.0945  -15.6110   39.3292 C   0  0  0  0  0  0  0  0  0  0  0  0
    7.7156  -14.8444   40.3060 O   0  0  0  0  0  0  0  0  0  0  0  0
    6.9685  -14.0331   41.1911 C   0  0  0  0  0  0  0  0  0  0  0  0
    6.4822  -16.7924   39.7544 C   0  0  0  0  0  0  0  0  0  0  0  0
    5.8553  -17.5763   38.8101 C   0  0  0  0  0  0  0  0  0  0  0  0
    5.8252  -17.2215   37.4799 C   0  0  0  0  0  0  0  0  0  0  0  0
    6.4376  -16.0487   37.0797 C   0  0  0  0  0  0  0  0  0  0  0  0
    6.4720  -15.6008   35.6752 C   0  0  0  0  0  0  0  0  0  0  0  0
    6.0137  -14.8973   32.5216 C   0  0  0  0  0  0  0  0  0  0  0  0
    7.3917  -14.8438   32.5534 C   0  0  0  0  0  0  0  0  0  0  0  0
    8.1395  -15.4701   31.5893 C   0  0  0  0  0  0  0  0  0  0  0  0
    9.8976  -15.4391   31.5744 Cl  0  0  0  0  0  0  0  0  0  0  0  0
    7.4684  -16.1355   30.6160 C   0  0  0  0  0  0  0  0  0  0  0  0
    6.0795  -16.2313   30.5220 C   0  0  0  0  0  0  0  0  0  0  0  0
    5.4204  -16.9674   29.4518 C   0  0  0  0  0  0  0  0  0  0  0  0
    5.3369  -15.5938   31.5027 C   0  0  0  0  0  0  0  0  0  0  0  0
  1  2  1  0
  2  3  1  0
  3  4  2  0
  3  5  1  0
  5  6  1  0
  5  8  1  0
  6  7  1  0
  7  8  1  0
  7  9  1  1
  9 10  1  0
 10 11  2  0
 10 12  1  0
 12 13  1  0
 13 14  1  0
 13 40  1  0
 15 14  1  6
 14 18  2  0
 15 16  1  0
 15 17  1  0
 16 17  1  0
 18 19  1  0
 18 33  1  0
 19 20  2  0
 19 21  1  0
 21 22  1  0
 21 32  1  0
 22 23  1  0
 23 24  1  0
 24 25  2  0
 24 31  1  0
 25 26  1  0
 25 28  1  0
 26 27  1  0
 28 29  2  0
 29 30  1  0
 30 31  2  0
 31 32  1  0
 33 34  2  0
 33 40  1  0
 34 35  1  0
 35 36  1  0
 35 37  2  0
 37 38  1  0
 38 39  1  0
 38 40  2  0
M  END
$$$$
