
     RDKit          3D

 40 45  0  0  0  0  0  0  0  0999 V2000
   14.3687  -19.8581   26.7318 C   0  0  0  0  0  0  0  0  0  0  0  0
   13.6735  -19.7645   28.0870 C   0  0  0  0  0  0  0  0  0  0  0  0
   12.2112  -19.7476   27.9783 C   0  0  0  0  0  0  0  0  0  0  0  0
   11.6506  -20.5993   27.1839 O   0  0  0  0  0  0  0  0  0  0  0  0
   11.3268  -18.8861   28.6663 N   0  0  0  0  0  0  0  0  0  0  0  0
   11.4640  -17.9521   29.7635 C   0  0  0  0  0  0  0  0  0  0  0  0
    9.9883  -17.9537   29.9294 C   0  0  2  0  0  0  0  0  0  0  0  0
    9.9333  -18.5534   28.5915 C   0  0  0  0  0  0  0  0  0  0  0  0
    9.2915  -16.7324   30.1863 N   0  0  0  0  0  0  0  0  0  0  0  0
    8.8009  -16.2548   31.3915 C   0  0  0  0  0  0  0  0  0  0  0  0
    8.8633  -17.0338   32.4237 O   0  0  0  0  0  0  0  0  0  0  0  0
    8.2009  -14.9575   31.7033 C   0  0  0  0  0  0  0  0  0  0  0  0
    7.0009  -14.9328   32.4736 N   0  0  0  0  0  0  0  0  0  0  0  0
    5.7917  -15.4787   32.0774 C   0  0  0  0  0  0  0  0  0  0  0  0
    5.6248  -16.1194   30.7706 C   0  0  2  0  0  0  0  0  0  0  0  0
    4.9567  -15.4354   29.6351 C   0  0  0  0  0  0  0  0  0  0  0  0
    4.3050  -16.5864   30.3042 C   0  0  0  0  0  0  0  0  0  0  0  0
    4.8575  -15.3297   33.0505 C   0  0  0  0  0  0  0  0  0  0  0  0
    3.4637  -15.7735   33.1185 C   0  0  0  0  0  0  0  0  0  0  0  0
    3.2245  -16.9302   33.5143 O   0  0  0  0  0  0  0  0  0  0  0  0
    2.3920  -14.9279   32.7435 N   0  0  0  0  0  0  0  0  0  0  0  0
    1.0440  -15.4327   32.7781 C   0  0  0  0  0  0  0  0  0  0  0  0
    0.0090  -14.4744   32.2678 C   0  0  0  0  0  0  0  0  0  0  0  0
    0.2698  -13.1351   32.8195 C   0  0  0  0  0  0  0  0  0  0  0  0
   -0.7648  -12.3648   33.2873 C   0  0  0  0  0  0  0  0  0  0  0  0
   -2.0879  -12.7850   33.2701 O   0  0  0  0  0  0  0  0  0  0  0  0
   -2.5915  -13.5899   32.2220 C   0  0  0  0  0  0  0  0  0  0  0  0
   -0.5171  -11.0944   33.8126 C   0  0  0  0  0  0  0  0  0  0  0  0
    0.7860  -10.6472   33.8458 C   0  0  0  0  0  0  0  0  0  0  0  0
    1.8271  -11.4167   33.3765 C   0  0  0  0  0  0  0  0  0  0  0  0
    1.5606  -12.6708   32.8601 C   0  0  0  0  0  0  0  0  0  0  0  0
    2.6093  -13.5543   32.3179 C   0  0  0  0  0  0  0  0  0  0  0  0
    5.4711  -14.6799   34.0811 C   0  0  0  0  0  0  0  0  0  0  0  0
    4.9971  -14.2785   35.3128 C   0  0  0  0  0  0  0  0  0  0  0  0
    5.8174  -13.6346   36.2034 C   0  0  0  0  0  0  0  0  0  0  0  0
    5.2736  -13.0986   37.7873 Cl  0  0  0  0  0  0  0  0  0  0  0  0
    7.1000  -13.4139   35.8202 C   0  0  0  0  0  0  0  0  0  0  0  0
    7.6463  -13.7917   34.5931 C   0  0  0  0  0  0  0  0  0  0  0  0
    9.0361  -13.5286   34.2454 C   0  0  0  0  0  0  0  0  0  0  0  0
    6.8059  -14.4413   33.7034 C   0  0  0  0  0  0  0  0  0  0  0  0
  1  2  1  0
  2  3  1  0
  3  4  2  0
  3  5  1  0
  5  6  1  0
  5  8  1  0
  6  7  1  0
  7  8  1  0
  7  9  1  6
  9 10  1  0
 10 11  2  0
 10 12  1  0
 12 13  1  0
 13 14  1  0
 13 40  1  0
 15 14  1  1
 14 18  2  0
 15 16  1  0
 15 17  1  0
 16 17  1  0
 18 19  1  0
 18 33  1  0
 19 20  2  0
 19 21  1  0
 21 22  1  0
 21 32  1  0
 22 23  1  0
 23 24  1  0
 24 25  2  0
 24 31  1  0
 25 26  1  0
 25 28  1  0
 26 27  1  0
 28 29  2  0
 29 30  1  0
 30 31  2  0
 31 32  1  0
 33 34  2  0
 33 40  1  0
 34 35  1  0
 35 36  1  0
 35 37  2  0
 37 38  1  0
 38 39  1  0
 38 40  2  0
M  END
$$$$
