
     RDKit          3D

 40 45  0  0  0  0  0  0  0  0999 V2000
   -0.9228  -19.1904   41.0116 C   0  0  0  0  0  0  0  0  0  0  0  0
   -1.6335  -18.2158   40.0770 C   0  0  0  0  0  0  0  0  0  0  0  0
   -0.7312  -17.2092   39.5088 C   0  0  0  0  0  0  0  0  0  0  0  0
   -0.2125  -16.3365   40.3089 O   0  0  0  0  0  0  0  0  0  0  0  0
   -0.3536  -17.0886   38.1521 N   0  0  0  0  0  0  0  0  0  0  0  0
    0.6378  -16.3136   37.4368 C   0  0  0  0  0  0  0  0  0  0  0  0
   -0.0780  -16.5980   36.1672 C   0  0  2  0  0  0  0  0  0  0  0  0
   -0.7666  -17.6634   36.9042 C   0  0  0  0  0  0  0  0  0  0  0  0
    0.6561  -16.9175   34.9831 N   0  0  0  0  0  0  0  0  0  0  0  0
    0.8703  -16.1322   33.8611 C   0  0  0  0  0  0  0  0  0  0  0  0
    0.4625  -14.9039   33.8932 O   0  0  0  0  0  0  0  0  0  0  0  0
    1.5122  -16.4772   32.5926 C   0  0  0  0  0  0  0  0  0  0  0  0
    2.4580  -15.5636   32.0407 N   0  0  0  0  0  0  0  0  0  0  0  0
    3.8239  -15.6035   32.2636 C   0  0  0  0  0  0  0  0  0  0  0  0
    4.4335  -16.6009   33.1467 C   0  0  2  0  0  0  0  0  0  0  0  0
    3.7368  -17.1221   34.3493 C   0  0  0  0  0  0  0  0  0  0  0  0
    4.9217  -16.2430   34.4924 C   0  0  0  0  0  0  0  0  0  0  0  0
    4.4523  -14.6263   31.5621 C   0  0  0  0  0  0  0  0  0  0  0  0
    5.8735  -14.2962   31.4386 C   0  0  0  0  0  0  0  0  0  0  0  0
    6.2677  -13.1907   31.8562 O   0  0  0  0  0  0  0  0  0  0  0  0
    6.8004  -15.1940   30.8564 N   0  0  0  0  0  0  0  0  0  0  0  0
    8.0657  -14.6983   30.3806 C   0  0  0  0  0  0  0  0  0  0  0  0
    8.9189  -15.7269   29.6993 C   0  0  0  0  0  0  0  0  0  0  0  0
    8.9048  -16.9710   30.4855 C   0  0  0  0  0  0  0  0  0  0  0  0
   10.0656  -17.6725   30.6933 C   0  0  0  0  0  0  0  0  0  0  0  0
   11.2940  -17.2678   30.1889 O   0  0  0  0  0  0  0  0  0  0  0  0
   11.9750  -18.0281   29.2100 C   0  0  0  0  0  0  0  0  0  0  0  0
   10.0525  -18.8523   31.4412 C   0  0  0  0  0  0  0  0  0  0  0  0
    8.8492  -19.2816   31.9577 C   0  0  0  0  0  0  0  0  0  0  0  0
    7.6819  -18.5809   31.7508 C   0  0  0  0  0  0  0  0  0  0  0  0
    7.7163  -17.4161   31.0074 C   0  0  0  0  0  0  0  0  0  0  0  0
    6.5136  -16.6131   30.7190 C   0  0  0  0  0  0  0  0  0  0  0  0
    3.4809  -13.9502   30.8835 C   0  0  0  0  0  0  0  0  0  0  0  0
    3.5550  -12.8755   30.0220 C   0  0  0  0  0  0  0  0  0  0  0  0
    2.4224  -12.3613   29.4442 C   0  0  0  0  0  0  0  0  0  0  0  0
    2.4507  -10.9942   28.3387 Cl  0  0  0  0  0  0  0  0  0  0  0  0
    1.2418  -12.9519   29.7565 C   0  0  0  0  0  0  0  0  0  0  0  0
    1.0927  -14.0398   30.6176 C   0  0  0  0  0  0  0  0  0  0  0  0
   -0.2064  -14.6315   30.9072 C   0  0  0  0  0  0  0  0  0  0  0  0
    2.2453  -14.5487   31.1940 C   0  0  0  0  0  0  0  0  0  0  0  0
  1  2  1  0
  2  3  1  0
  3  4  2  0
  3  5  1  0
  5  6  1  0
  5  8  1  0
  6  7  1  0
  7  8  1  0
  7  9  1  6
  9 10  1  0
 10 11  2  0
 10 12  1  0
 12 13  1  0
 13 14  1  0
 13 40  1  0
 15 14  1  1
 14 18  2  0
 15 16  1  0
 15 17  1  0
 16 17  1  0
 18 19  1  0
 18 33  1  0
 19 20  2  0
 19 21  1  0
 21 22  1  0
 21 32  1  0
 22 23  1  0
 23 24  1  0
 24 25  2  0
 24 31  1  0
 25 26  1  0
 25 28  1  0
 26 27  1  0
 28 29  2  0
 29 30  1  0
 30 31  2  0
 31 32  1  0
 33 34  2  0
 33 40  1  0
 34 35  1  0
 35 36  1  0
 35 37  2  0
 37 38  1  0
 38 39  1  0
 38 40  2  0
M  END
$$$$
