
     RDKit          3D

 40 45  0  0  0  0  0  0  0  0999 V2000
   -0.6220  -19.0359   27.2234 C   0  0  0  0  0  0  0  0  0  0  0  0
    0.5781  -18.2422   26.7148 C   0  0  0  0  0  0  0  0  0  0  0  0
    0.3667  -16.7920   26.7667 C   0  0  0  0  0  0  0  0  0  0  0  0
   -0.5932  -16.2918   26.0603 O   0  0  0  0  0  0  0  0  0  0  0  0
    1.1110  -15.8604   27.5255 N   0  0  0  0  0  0  0  0  0  0  0  0
    1.3779  -14.4419   27.4175 C   0  0  0  0  0  0  0  0  0  0  0  0
    2.5071  -14.5973   28.3693 C   0  0  2  0  0  0  0  0  0  0  0  0
    1.9145  -15.8947   28.7135 C   0  0  0  0  0  0  0  0  0  0  0  0
    2.7239  -13.6246   29.3939 N   0  0  0  0  0  0  0  0  0  0  0  0
    3.6411  -13.6538   30.4328 C   0  0  0  0  0  0  0  0  0  0  0  0
    4.4873  -14.6331   30.4680 O   0  0  0  0  0  0  0  0  0  0  0  0
    3.8202  -12.7176   31.5426 C   0  0  0  0  0  0  0  0  0  0  0  0
    4.3095  -13.2224   32.7834 N   0  0  0  0  0  0  0  0  0  0  0  0
    3.5279  -13.8011   33.7689 C   0  0  0  0  0  0  0  0  0  0  0  0
    2.0737  -13.9157   33.6332 C   0  0  2  0  0  0  0  0  0  0  0  0
    1.3158  -15.0619   34.1949 C   0  0  0  0  0  0  0  0  0  0  0  0
    1.4598  -14.9061   32.7278 C   0  0  0  0  0  0  0  0  0  0  0  0
    4.2968  -14.2188   34.8062 C   0  0  0  0  0  0  0  0  0  0  0  0
    3.9422  -14.9178   36.0431 C   0  0  0  0  0  0  0  0  0  0  0  0
    3.5136  -14.2504   37.0036 O   0  0  0  0  0  0  0  0  0  0  0  0
    4.0787  -16.3209   36.1729 N   0  0  0  0  0  0  0  0  0  0  0  0
    3.9161  -16.9332   37.4659 C   0  0  0  0  0  0  0  0  0  0  0  0
    4.1791  -18.4097   37.4910 C   0  0  0  0  0  0  0  0  0  0  0  0
    3.5300  -19.0408   36.3306 C   0  0  0  0  0  0  0  0  0  0  0  0
    2.8490  -20.2231   36.4756 C   0  0  0  0  0  0  0  0  0  0  0  0
    2.7319  -20.8839   37.6909 O   0  0  0  0  0  0  0  0  0  0  0  0
    3.7189  -21.7959   38.1315 C   0  0  0  0  0  0  0  0  0  0  0  0
    2.2314  -20.8211   35.3745 C   0  0  0  0  0  0  0  0  0  0  0  0
    2.3272  -20.1902   34.1531 C   0  0  0  0  0  0  0  0  0  0  0  0
    3.0105  -19.0040   34.0031 C   0  0  0  0  0  0  0  0  0  0  0  0
    3.6151  -18.4290   35.1051 C   0  0  0  0  0  0  0  0  0  0  0  0
    4.3832  -17.1723   35.0339 C   0  0  0  0  0  0  0  0  0  0  0  0
    5.5849  -13.9037   34.4856 C   0  0  0  0  0  0  0  0  0  0  0  0
    6.7659  -14.1019   35.1703 C   0  0  0  0  0  0  0  0  0  0  0  0
    7.9623  -13.6985   34.6348 C   0  0  0  0  0  0  0  0  0  0  0  0
    9.5004  -13.9227   35.4570 Cl  0  0  0  0  0  0  0  0  0  0  0  0
    7.9293  -13.1031   33.4163 C   0  0  0  0  0  0  0  0  0  0  0  0
    6.7742  -12.8713   32.6686 C   0  0  0  0  0  0  0  0  0  0  0  0
    6.8086  -12.2301   31.3611 C   0  0  0  0  0  0  0  0  0  0  0  0
    5.5729  -13.2840   33.2219 C   0  0  0  0  0  0  0  0  0  0  0  0
  1  2  1  0
  2  3  1  0
  3  4  2  0
  3  5  1  0
  5  6  1  0
  5  8  1  0
  6  7  1  0
  7  8  1  0
  7  9  1  1
  9 10  1  0
 10 11  2  0
 10 12  1  0
 12 13  1  0
 13 14  1  0
 13 40  1  0
 15 14  1  1
 14 18  2  0
 15 16  1  0
 15 17  1  0
 16 17  1  0
 18 19  1  0
 18 33  1  0
 19 20  2  0
 19 21  1  0
 21 22  1  0
 21 32  1  0
 22 23  1  0
 23 24  1  0
 24 25  2  0
 24 31  1  0
 25 26  1  0
 25 28  1  0
 26 27  1  0
 28 29  2  0
 29 30  1  0
 30 31  2  0
 31 32  1  0
 33 34  2  0
 33 40  1  0
 34 35  1  0
 35 36  1  0
 35 37  2  0
 37 38  1  0
 38 39  1  0
 38 40  2  0
M  END
$$$$
