
     RDKit          3D

 40 45  0  0  0  0  0  0  0  0999 V2000
   16.6719  -23.4760   18.9719 C   0  0  0  0  0  0  0  0  0  0  0  0
   16.1549  -23.9118   20.3399 C   0  0  0  0  0  0  0  0  0  0  0  0
   17.0008  -23.4476   21.4441 C   0  0  0  0  0  0  0  0  0  0  0  0
   18.2742  -23.6545   21.3631 O   0  0  0  0  0  0  0  0  0  0  0  0
   16.5676  -22.7790   22.6115 N   0  0  0  0  0  0  0  0  0  0  0  0
   15.2809  -22.3637   23.1281 C   0  0  0  0  0  0  0  0  0  0  0  0
   15.9725  -21.4587   24.0809 C   0  0  2  0  0  0  0  0  0  0  0  0
   17.1867  -22.2261   23.7817 C   0  0  0  0  0  0  0  0  0  0  0  0
   15.5178  -21.3525   25.4319 N   0  0  0  0  0  0  0  0  0  0  0  0
   14.4872  -20.5760   25.9380 C   0  0  0  0  0  0  0  0  0  0  0  0
   13.8432  -19.8112   25.1154 O   0  0  0  0  0  0  0  0  0  0  0  0
   13.9833  -20.4766   27.3078 C   0  0  0  0  0  0  0  0  0  0  0  0
   13.5963  -19.1939   27.7966 N   0  0  0  0  0  0  0  0  0  0  0  0
   12.2892  -18.7669   27.9579 C   0  0  0  0  0  0  0  0  0  0  0  0
   11.1498  -19.6123   27.5927 C   0  0  2  0  0  0  0  0  0  0  0  0
   11.3220  -20.9137   26.8997 C   0  0  0  0  0  0  0  0  0  0  0  0
   10.7192  -19.7609   26.1891 C   0  0  0  0  0  0  0  0  0  0  0  0
   12.2556  -17.5161   28.4835 C   0  0  0  0  0  0  0  0  0  0  0  0
   11.1264  -16.6680   28.8707 C   0  0  0  0  0  0  0  0  0  0  0  0
   11.2040  -15.4415   28.6668 O   0  0  0  0  0  0  0  0  0  0  0  0
    9.9615  -17.2042   29.4706 N   0  0  0  0  0  0  0  0  0  0  0  0
    9.9922  -18.5375   30.0133 C   0  0  0  0  0  0  0  0  0  0  0  0
    8.6731  -19.0263   30.5339 C   0  0  0  0  0  0  0  0  0  0  0  0
    8.0365  -17.9618   31.3263 C   0  0  0  0  0  0  0  0  0  0  0  0
    7.4261  -18.2568   32.5192 C   0  0  0  0  0  0  0  0  0  0  0  0
    7.3689  -19.5418   33.0417 O   0  0  0  0  0  0  0  0  0  0  0  0
    6.7320  -19.8074   34.2760 C   0  0  0  0  0  0  0  0  0  0  0  0
    6.8235  -17.2463   33.2722 C   0  0  0  0  0  0  0  0  0  0  0  0
    6.8636  -15.9587   32.7827 C   0  0  0  0  0  0  0  0  0  0  0  0
    7.4743  -15.6586   31.5855 C   0  0  0  0  0  0  0  0  0  0  0  0
    8.0643  -16.6732   30.8554 C   0  0  0  0  0  0  0  0  0  0  0  0
    8.7226  -16.4474   29.5553 C   0  0  0  0  0  0  0  0  0  0  0  0
   13.5534  -17.1344   28.6597 C   0  0  0  0  0  0  0  0  0  0  0  0
   14.0979  -15.9701   29.1603 C   0  0  0  0  0  0  0  0  0  0  0  0
   15.4576  -15.8139   29.2488 C   0  0  0  0  0  0  0  0  0  0  0  0
   16.2124  -14.3555   29.8773 Cl  0  0  0  0  0  0  0  0  0  0  0  0
   16.2310  -16.8452   28.8258 C   0  0  0  0  0  0  0  0  0  0  0  0
   15.7497  -18.0490   28.3100 C   0  0  0  0  0  0  0  0  0  0  0  0
   16.6362  -19.1207   27.8775 C   0  0  0  0  0  0  0  0  0  0  0  0
   14.3741  -18.1927   28.2265 C   0  0  0  0  0  0  0  0  0  0  0  0
  1  2  1  0
  2  3  1  0
  3  4  2  0
  3  5  1  0
  5  6  1  0
  5  8  1  0
  6  7  1  0
  7  8  1  0
  7  9  1  1
  9 10  1  0
 10 11  2  0
 10 12  1  0
 12 13  1  0
 13 14  1  0
 13 40  1  0
 15 14  1  6
 14 18  2  0
 15 16  1  0
 15 17  1  0
 16 17  1  0
 18 19  1  0
 18 33  1  0
 19 20  2  0
 19 21  1  0
 21 22  1  0
 21 32  1  0
 22 23  1  0
 23 24  1  0
 24 25  2  0
 24 31  1  0
 25 26  1  0
 25 28  1  0
 26 27  1  0
 28 29  2  0
 29 30  1  0
 30 31  2  0
 31 32  1  0
 33 34  2  0
 33 40  1  0
 34 35  1  0
 35 36  1  0
 35 37  2  0
 37 38  1  0
 38 39  1  0
 38 40  2  0
M  END
$$$$
