
     RDKit          3D

 40 45  0  0  0  0  0  0  0  0999 V2000
   -0.4960  -18.8580   42.7389 C   0  0  0  0  0  0  0  0  0  0  0  0
    0.2299  -17.6534   42.1468 C   0  0  0  0  0  0  0  0  0  0  0  0
    0.0314  -17.5219   40.6999 C   0  0  0  0  0  0  0  0  0  0  0  0
   -1.0603  -17.9909   40.1907 O   0  0  0  0  0  0  0  0  0  0  0  0
    0.9203  -16.9205   39.7803 N   0  0  0  0  0  0  0  0  0  0  0  0
    0.8834  -16.6470   38.3594 C   0  0  0  0  0  0  0  0  0  0  0  0
    2.3529  -16.4337   38.3777 C   0  0  2  0  0  0  0  0  0  0  0  0
    2.2235  -16.3231   39.8349 C   0  0  0  0  0  0  0  0  0  0  0  0
    2.9335  -15.3589   37.6355 N   0  0  0  0  0  0  0  0  0  0  0  0
    3.9399  -15.4109   36.6838 C   0  0  0  0  0  0  0  0  0  0  0  0
    4.4415  -16.5687   36.3935 O   0  0  0  0  0  0  0  0  0  0  0  0
    4.5531  -14.3259   35.9176 C   0  0  0  0  0  0  0  0  0  0  0  0
    5.2466  -14.6526   34.7151 N   0  0  0  0  0  0  0  0  0  0  0  0
    4.6604  -14.7647   33.4657 C   0  0  0  0  0  0  0  0  0  0  0  0
    3.2194  -14.5873   33.2700 C   0  0  2  0  0  0  0  0  0  0  0  0
    2.2499  -14.7070   34.3877 C   0  0  0  0  0  0  0  0  0  0  0  0
    2.2887  -15.7314   33.3170 C   0  0  0  0  0  0  0  0  0  0  0  0
    5.5949  -15.0424   32.5216 C   0  0  0  0  0  0  0  0  0  0  0  0
    5.4745  -15.2072   31.0716 C   0  0  0  0  0  0  0  0  0  0  0  0
    5.0994  -14.2346   30.3897 O   0  0  0  0  0  0  0  0  0  0  0  0
    5.7670  -16.4366   30.4333 N   0  0  0  0  0  0  0  0  0  0  0  0
    5.8525  -17.6409   31.2179 C   0  0  0  0  0  0  0  0  0  0  0  0
    6.2619  -18.8585   30.4435 C   0  0  0  0  0  0  0  0  0  0  0  0
    5.5196  -18.9013   29.1732 C   0  0  0  0  0  0  0  0  0  0  0  0
    4.9872  -20.0823   28.7212 C   0  0  0  0  0  0  0  0  0  0  0  0
    5.1113  -21.2806   29.4112 O   0  0  0  0  0  0  0  0  0  0  0  0
    4.9863  -22.5260   28.7530 C   0  0  0  0  0  0  0  0  0  0  0  0
    4.2812  -20.1225   27.5165 C   0  0  0  0  0  0  0  0  0  0  0  0
    4.1383  -18.9498   26.8070 C   0  0  0  0  0  0  0  0  0  0  0  0
    4.6718  -17.7626   27.2568 C   0  0  0  0  0  0  0  0  0  0  0  0
    5.3675  -17.7443   28.4511 C   0  0  0  0  0  0  0  0  0  0  0  0
    5.9887  -16.5243   28.9987 C   0  0  0  0  0  0  0  0  0  0  0  0
    6.7930  -15.1118   33.1704 C   0  0  0  0  0  0  0  0  0  0  0  0
    8.0666  -15.3599   32.7021 C   0  0  0  0  0  0  0  0  0  0  0  0
    9.1377  -15.3733   33.5585 C   0  0  0  0  0  0  0  0  0  0  0  0
   10.7840  -15.6828   33.0239 Cl  0  0  0  0  0  0  0  0  0  0  0  0
    8.8882  -15.1345   34.8704 C   0  0  0  0  0  0  0  0  0  0  0  0
    7.6287  -14.8764   35.4128 C   0  0  0  0  0  0  0  0  0  0  0  0
    7.4297  -14.6222   36.8332 C   0  0  0  0  0  0  0  0  0  0  0  0
    6.5560  -14.8659   34.5359 C   0  0  0  0  0  0  0  0  0  0  0  0
  1  2  1  0
  2  3  1  0
  3  4  2  0
  3  5  1  0
  5  6  1  0
  5  8  1  0
  6  7  1  0
  7  8  1  0
  7  9  1  6
  9 10  1  0
 10 11  2  0
 10 12  1  0
 12 13  1  0
 13 14  1  0
 13 40  1  0
 15 14  1  1
 14 18  2  0
 15 16  1  0
 15 17  1  0
 16 17  1  0
 18 19  1  0
 18 33  1  0
 19 20  2  0
 19 21  1  0
 21 22  1  0
 21 32  1  0
 22 23  1  0
 23 24  1  0
 24 25  2  0
 24 31  1  0
 25 26  1  0
 25 28  1  0
 26 27  1  0
 28 29  2  0
 29 30  1  0
 30 31  2  0
 31 32  1  0
 33 34  2  0
 33 40  1  0
 34 35  1  0
 35 36  1  0
 35 37  2  0
 37 38  1  0
 38 39  1  0
 38 40  2  0
M  END
$$$$
