
     RDKit          3D

 40 45  0  0  0  0  0  0  0  0999 V2000
   -2.5121  -14.1232   22.9731 C   0  0  0  0  0  0  0  0  0  0  0  0
   -1.3330  -14.0878   23.9412 C   0  0  0  0  0  0  0  0  0  0  0  0
   -1.6495  -14.6733   25.2478 C   0  0  0  0  0  0  0  0  0  0  0  0
   -2.8456  -15.1249   25.4382 O   0  0  0  0  0  0  0  0  0  0  0  0
   -0.7690  -14.8060   26.3453 N   0  0  0  0  0  0  0  0  0  0  0  0
    0.6367  -14.5358   26.5606 C   0  0  0  0  0  0  0  0  0  0  0  0
    0.5953  -15.3765   27.7841 C   0  0  2  0  0  0  0  0  0  0  0  0
   -0.8645  -15.2531   27.7052 C   0  0  0  0  0  0  0  0  0  0  0  0
    1.2776  -14.9581   28.9683 N   0  0  0  0  0  0  0  0  0  0  0  0
    2.6310  -15.0340   29.2581 C   0  0  0  0  0  0  0  0  0  0  0  0
    3.3207  -15.9733   28.6939 O   0  0  0  0  0  0  0  0  0  0  0  0
    3.4443  -14.1886   30.1322 C   0  0  0  0  0  0  0  0  0  0  0  0
    4.1324  -14.8021   31.2203 N   0  0  0  0  0  0  0  0  0  0  0  0
    3.5798  -15.0652   32.4622 C   0  0  0  0  0  0  0  0  0  0  0  0
    2.2022  -14.6894   32.7898 C   0  0  2  0  0  0  0  0  0  0  0  0
    1.3225  -13.9898   31.8202 C   0  0  0  0  0  0  0  0  0  0  0  0
    1.8220  -13.2829   33.0236 C   0  0  0  0  0  0  0  0  0  0  0  0
    4.4775  -15.6945   33.2622 C   0  0  0  0  0  0  0  0  0  0  0  0
    4.3512  -16.2085   34.6274 C   0  0  0  0  0  0  0  0  0  0  0  0
    3.3876  -16.9498   34.8991 O   0  0  0  0  0  0  0  0  0  0  0  0
    5.2875  -15.8814   35.6377 N   0  0  0  0  0  0  0  0  0  0  0  0
    6.1750  -14.7637   35.4478 C   0  0  0  0  0  0  0  0  0  0  0  0
    7.1826  -14.5779   36.5434 C   0  0  0  0  0  0  0  0  0  0  0  0
    6.5188  -14.7316   37.8480 C   0  0  0  0  0  0  0  0  0  0  0  0
    6.8009  -13.8667   38.8751 C   0  0  0  0  0  0  0  0  0  0  0  0
    7.7062  -12.8209   38.7557 O   0  0  0  0  0  0  0  0  0  0  0  0
    9.1011  -13.0528   38.7368 C   0  0  0  0  0  0  0  0  0  0  0  0
    6.1695  -14.0114   40.1128 C   0  0  0  0  0  0  0  0  0  0  0  0
    5.2638  -15.0389   40.2646 C   0  0  0  0  0  0  0  0  0  0  0  0
    4.9785  -15.9096   39.2366 C   0  0  0  0  0  0  0  0  0  0  0  0
    5.6146  -15.7495   38.0199 C   0  0  0  0  0  0  0  0  0  0  0  0
    5.3857  -16.6454   36.8713 C   0  0  0  0  0  0  0  0  0  0  0  0
    5.6189  -15.8353   32.5284 C   0  0  0  0  0  0  0  0  0  0  0  0
    6.8363  -16.4030   32.8422 C   0  0  0  0  0  0  0  0  0  0  0  0
    7.8527  -16.4345   31.9220 C   0  0  0  0  0  0  0  0  0  0  0  0
    9.4259  -17.1432   32.2606 Cl  0  0  0  0  0  0  0  0  0  0  0  0
    7.6070  -15.8878   30.7049 C   0  0  0  0  0  0  0  0  0  0  0  0
    6.4025  -15.2984   30.3193 C   0  0  0  0  0  0  0  0  0  0  0  0
    6.2019  -14.7331   28.9920 C   0  0  0  0  0  0  0  0  0  0  0  0
    5.3847  -15.2737   31.2592 C   0  0  0  0  0  0  0  0  0  0  0  0
  1  2  1  0
  2  3  1  0
  3  4  2  0
  3  5  1  0
  5  6  1  0
  5  8  1  0
  6  7  1  0
  7  8  1  0
  7  9  1  1
  9 10  1  0
 10 11  2  0
 10 12  1  0
 12 13  1  0
 13 14  1  0
 13 40  1  0
 15 14  1  6
 14 18  2  0
 15 16  1  0
 15 17  1  0
 16 17  1  0
 18 19  1  0
 18 33  1  0
 19 20  2  0
 19 21  1  0
 21 22  1  0
 21 32  1  0
 22 23  1  0
 23 24  1  0
 24 25  2  0
 24 31  1  0
 25 26  1  0
 25 28  1  0
 26 27  1  0
 28 29  2  0
 29 30  1  0
 30 31  2  0
 31 32  1  0
 33 34  2  0
 33 40  1  0
 34 35  1  0
 35 36  1  0
 35 37  2  0
 37 38  1  0
 38 39  1  0
 38 40  2  0
M  END
$$$$
