
     RDKit          3D

 40 45  0  0  0  0  0  0  0  0999 V2000
    3.5003  -25.3688   27.8617 C   0  0  0  0  0  0  0  0  0  0  0  0
    3.6025  -25.2134   29.3763 C   0  0  0  0  0  0  0  0  0  0  0  0
    4.9714  -24.9513   29.8320 C   0  0  0  0  0  0  0  0  0  0  0  0
    5.7436  -25.9644   30.0519 O   0  0  0  0  0  0  0  0  0  0  0  0
    5.5544  -23.6837   30.0575 N   0  0  0  0  0  0  0  0  0  0  0  0
    6.8742  -23.2229   30.4329 C   0  0  0  0  0  0  0  0  0  0  0  0
    6.2960  -21.9011   30.7846 C   0  0  2  0  0  0  0  0  0  0  0  0
    5.1177  -22.3178   30.0161 C   0  0  0  0  0  0  0  0  0  0  0  0
    6.9822  -20.6982   30.4307 N   0  0  0  0  0  0  0  0  0  0  0  0
    7.1953  -19.5663   31.2019 C   0  0  0  0  0  0  0  0  0  0  0  0
    6.7008  -19.5451   32.3983 O   0  0  0  0  0  0  0  0  0  0  0  0
    7.9212  -18.3394   30.8732 C   0  0  0  0  0  0  0  0  0  0  0  0
    7.3459  -17.0897   31.2487 N   0  0  0  0  0  0  0  0  0  0  0  0
    6.2552  -16.5004   30.6321 C   0  0  0  0  0  0  0  0  0  0  0  0
    5.5970  -17.1137   29.4760 C   0  0  2  0  0  0  0  0  0  0  0  0
    4.7798  -18.3472   29.5947 C   0  0  0  0  0  0  0  0  0  0  0  0
    6.0849  -18.3783   28.8926 C   0  0  0  0  0  0  0  0  0  0  0  0
    5.9253  -15.3386   31.2512 C   0  0  0  0  0  0  0  0  0  0  0  0
    4.8365  -14.3925   30.9988 C   0  0  0  0  0  0  0  0  0  0  0  0
    4.7740  -13.8381   29.8851 O   0  0  0  0  0  0  0  0  0  0  0  0
    3.8652  -14.0923   31.9842 N   0  0  0  0  0  0  0  0  0  0  0  0
    2.9856  -12.9684   31.7944 C   0  0  0  0  0  0  0  0  0  0  0  0
    2.0675  -12.6967   32.9491 C   0  0  0  0  0  0  0  0  0  0  0  0
    1.4910  -13.9652   33.4230 C   0  0  0  0  0  0  0  0  0  0  0  0
    0.1590  -14.0445   33.7425 C   0  0  0  0  0  0  0  0  0  0  0  0
   -0.7075  -12.9642   33.6442 O   0  0  0  0  0  0  0  0  0  0  0  0
   -1.7378  -12.9320   32.6760 C   0  0  0  0  0  0  0  0  0  0  0  0
   -0.3886  -15.2489   34.1906 C   0  0  0  0  0  0  0  0  0  0  0  0
    0.4442  -16.3417   34.2983 C   0  0  0  0  0  0  0  0  0  0  0  0
    1.7817  -16.2661   33.9795 C   0  0  0  0  0  0  0  0  0  0  0  0
    2.3040  -15.0647   33.5385 C   0  0  0  0  0  0  0  0  0  0  0  0
    3.7267  -14.8870   33.1942 C   0  0  0  0  0  0  0  0  0  0  0  0
    6.8136  -15.1782   32.2740 C   0  0  0  0  0  0  0  0  0  0  0  0
    6.9390  -14.1827   33.2207 C   0  0  0  0  0  0  0  0  0  0  0  0
    7.9248  -14.2409   34.1722 C   0  0  0  0  0  0  0  0  0  0  0  0
    8.1365  -13.0049   35.4048 Cl  0  0  0  0  0  0  0  0  0  0  0  0
    8.7598  -15.3096   34.1383 C   0  0  0  0  0  0  0  0  0  0  0  0
    8.6915  -16.3511   33.2122 C   0  0  0  0  0  0  0  0  0  0  0  0
    9.6180  -17.4749   33.2343 C   0  0  0  0  0  0  0  0  0  0  0  0
    7.6906  -16.2790   32.2568 C   0  0  0  0  0  0  0  0  0  0  0  0
  1  2  1  0
  2  3  1  0
  3  4  2  0
  3  5  1  0
  5  6  1  0
  5  8  1  0
  6  7  1  0
  7  8  1  0
  7  9  1  6
  9 10  1  0
 10 11  2  0
 10 12  1  0
 12 13  1  0
 13 14  1  0
 13 40  1  0
 15 14  1  1
 14 18  2  0
 15 16  1  0
 15 17  1  0
 16 17  1  0
 18 19  1  0
 18 33  1  0
 19 20  2  0
 19 21  1  0
 21 22  1  0
 21 32  1  0
 22 23  1  0
 23 24  1  0
 24 25  2  0
 24 31  1  0
 25 26  1  0
 25 28  1  0
 26 27  1  0
 28 29  2  0
 29 30  1  0
 30 31  2  0
 31 32  1  0
 33 34  2  0
 33 40  1  0
 34 35  1  0
 35 36  1  0
 35 37  2  0
 37 38  1  0
 38 39  1  0
 38 40  2  0
M  END
$$$$
