
     RDKit          3D

 40 45  0  0  0  0  0  0  0  0999 V2000
   13.2744  -25.2211   26.2120 C   0  0  0  0  0  0  0  0  0  0  0  0
   12.7981  -23.9276   25.5574 C   0  0  0  0  0  0  0  0  0  0  0  0
   11.4154  -23.5867   25.9068 C   0  0  0  0  0  0  0  0  0  0  0  0
   10.4962  -24.4668   25.6803 O   0  0  0  0  0  0  0  0  0  0  0  0
   10.9676  -22.3758   26.4821 N   0  0  0  0  0  0  0  0  0  0  0  0
   11.6190  -21.1785   26.9692 C   0  0  0  0  0  0  0  0  0  0  0  0
   10.3712  -20.8088   27.6844 C   0  0  2  0  0  0  0  0  0  0  0  0
    9.7019  -21.7984   26.8327 C   0  0  0  0  0  0  0  0  0  0  0  0
    9.9167  -19.4536   27.6856 N   0  0  0  0  0  0  0  0  0  0  0  0
    9.9339  -18.5376   28.7257 C   0  0  0  0  0  0  0  0  0  0  0  0
   10.0810  -18.9894   29.9300 O   0  0  0  0  0  0  0  0  0  0  0  0
    9.8110  -17.0804   28.6844 C   0  0  0  0  0  0  0  0  0  0  0  0
    9.1067  -16.4291   29.7397 N   0  0  0  0  0  0  0  0  0  0  0  0
    7.7357  -16.2401   29.7813 C   0  0  0  0  0  0  0  0  0  0  0  0
    6.8626  -16.6758   28.6885 C   0  0  2  0  0  0  0  0  0  0  0  0
    5.4785  -17.1561   28.9270 C   0  0  0  0  0  0  0  0  0  0  0  0
    6.5332  -18.0999   28.4864 C   0  0  0  0  0  0  0  0  0  0  0  0
    7.3716  -15.6282   30.9366 C   0  0  0  0  0  0  0  0  0  0  0  0
    6.0516  -15.2604   31.4529 C   0  0  0  0  0  0  0  0  0  0  0  0
    5.3556  -14.4621   30.7970 O   0  0  0  0  0  0  0  0  0  0  0  0
    5.5549  -15.7823   32.6716 N   0  0  0  0  0  0  0  0  0  0  0  0
    4.4076  -15.1707   33.2904 C   0  0  0  0  0  0  0  0  0  0  0  0
    4.0371  -15.7522   34.6225 C   0  0  0  0  0  0  0  0  0  0  0  0
    4.0921  -17.2210   34.5461 C   0  0  0  0  0  0  0  0  0  0  0  0
    3.1039  -17.9821   35.1178 C   0  0  0  0  0  0  0  0  0  0  0  0
    2.0192  -17.4329   35.7881 O   0  0  0  0  0  0  0  0  0  0  0  0
    0.7113  -17.5033   35.2547 C   0  0  0  0  0  0  0  0  0  0  0  0
    3.1552  -19.3761   35.0438 C   0  0  0  0  0  0  0  0  0  0  0  0
    4.2183  -19.9536   34.3840 C   0  0  0  0  0  0  0  0  0  0  0  0
    5.2126  -19.1934   33.8096 C   0  0  0  0  0  0  0  0  0  0  0  0
    5.1435  -17.8155   33.8946 C   0  0  0  0  0  0  0  0  0  0  0  0
    6.1721  -16.9244   33.3270 C   0  0  0  0  0  0  0  0  0  0  0  0
    8.5195  -15.4196   31.6435 C   0  0  0  0  0  0  0  0  0  0  0  0
    8.7340  -14.8432   32.8783 C   0  0  0  0  0  0  0  0  0  0  0  0
   10.0001  -14.7481   33.3967 C   0  0  0  0  0  0  0  0  0  0  0  0
   10.3386  -14.0252   34.9635 Cl  0  0  0  0  0  0  0  0  0  0  0  0
   11.0178  -15.2411   32.6473 C   0  0  0  0  0  0  0  0  0  0  0  0
   10.8746  -15.8362   31.3933 C   0  0  0  0  0  0  0  0  0  0  0  0
   12.0108  -16.3510   30.6414 C   0  0  0  0  0  0  0  0  0  0  0  0
    9.5899  -15.9254   30.8821 C   0  0  0  0  0  0  0  0  0  0  0  0
  1  2  1  0
  2  3  1  0
  3  4  2  0
  3  5  1  0
  5  6  1  0
  5  8  1  0
  6  7  1  0
  7  8  1  0
  7  9  1  6
  9 10  1  0
 10 11  2  0
 10 12  1  0
 12 13  1  0
 13 14  1  0
 13 40  1  0
 15 14  1  1
 14 18  2  0
 15 16  1  0
 15 17  1  0
 16 17  1  0
 18 19  1  0
 18 33  1  0
 19 20  2  0
 19 21  1  0
 21 22  1  0
 21 32  1  0
 22 23  1  0
 23 24  1  0
 24 25  2  0
 24 31  1  0
 25 26  1  0
 25 28  1  0
 26 27  1  0
 28 29  2  0
 29 30  1  0
 30 31  2  0
 31 32  1  0
 33 34  2  0
 33 40  1  0
 34 35  1  0
 35 36  1  0
 35 37  2  0
 37 38  1  0
 38 39  1  0
 38 40  2  0
M  END
$$$$
