
     RDKit          3D

 40 45  0  0  0  0  0  0  0  0999 V2000
   -2.0617  -15.2082   25.2280 C   0  0  0  0  0  0  0  0  0  0  0  0
   -0.5883  -14.8972   25.4749 C   0  0  0  0  0  0  0  0  0  0  0  0
   -0.2210  -14.9626   26.8930 C   0  0  0  0  0  0  0  0  0  0  0  0
   -1.0665  -14.5137   27.7615 O   0  0  0  0  0  0  0  0  0  0  0  0
    0.9812  -15.4792   27.4273 N   0  0  0  0  0  0  0  0  0  0  0  0
    1.5501  -15.5656   28.7554 C   0  0  0  0  0  0  0  0  0  0  0  0
    2.8782  -15.8437   28.1520 C   0  0  2  0  0  0  0  0  0  0  0  0
    2.1488  -16.1352   26.9128 C   0  0  0  0  0  0  0  0  0  0  0  0
    3.7330  -16.8384   28.7203 N   0  0  0  0  0  0  0  0  0  0  0  0
    5.1138  -16.8243   28.8410 C   0  0  0  0  0  0  0  0  0  0  0  0
    5.7420  -15.7452   28.4985 O   0  0  0  0  0  0  0  0  0  0  0  0
    6.0171  -17.8726   29.3156 C   0  0  0  0  0  0  0  0  0  0  0  0
    6.9412  -17.5527   30.3537 N   0  0  0  0  0  0  0  0  0  0  0  0
    6.6619  -17.6037   31.7089 C   0  0  0  0  0  0  0  0  0  0  0  0
    5.3347  -17.9681   32.2107 C   0  0  2  0  0  0  0  0  0  0  0  0
    4.1033  -17.7661   31.4067 C   0  0  0  0  0  0  0  0  0  0  0  0
    4.3541  -16.9412   32.6124 C   0  0  0  0  0  0  0  0  0  0  0  0
    7.7620  -17.2844   32.4367 C   0  0  0  0  0  0  0  0  0  0  0  0
    7.9752  -17.2413   33.8848 C   0  0  0  0  0  0  0  0  0  0  0  0
    8.7913  -18.0344   34.3915 O   0  0  0  0  0  0  0  0  0  0  0  0
    7.2778  -16.3311   34.7151 N   0  0  0  0  0  0  0  0  0  0  0  0
    7.2991  -16.5136   36.1432 C   0  0  0  0  0  0  0  0  0  0  0  0
    6.4464  -15.5435   36.9058 C   0  0  0  0  0  0  0  0  0  0  0  0
    6.6506  -14.1881   36.3697 C   0  0  0  0  0  0  0  0  0  0  0  0
    6.7851  -13.1196   37.2199 C   0  0  0  0  0  0  0  0  0  0  0  0
    6.7372  -13.2426   38.6019 O   0  0  0  0  0  0  0  0  0  0  0  0
    7.1896  -14.4134   39.2534 C   0  0  0  0  0  0  0  0  0  0  0  0
    6.9807  -11.8334   36.7111 C   0  0  0  0  0  0  0  0  0  0  0  0
    7.0346  -11.6765   35.3431 C   0  0  0  0  0  0  0  0  0  0  0  0
    6.8992  -12.7461   34.4863 C   0  0  0  0  0  0  0  0  0  0  0  0
    6.7058  -14.0105   35.0101 C   0  0  0  0  0  0  0  0  0  0  0  0
    6.5314  -15.2089   34.1687 C   0  0  0  0  0  0  0  0  0  0  0  0
    8.7573  -17.0233   31.5410 C   0  0  0  0  0  0  0  0  0  0  0  0
   10.0742  -16.6576   31.7275 C   0  0  0  0  0  0  0  0  0  0  0  0
   10.9030  -16.4522   30.6543 C   0  0  0  0  0  0  0  0  0  0  0  0
   12.5896  -15.9854   30.8257 Cl  0  0  0  0  0  0  0  0  0  0  0  0
   10.3729  -16.6234   29.4173 C   0  0  0  0  0  0  0  0  0  0  0  0
    9.0530  -16.9919   29.1548 C   0  0  0  0  0  0  0  0  0  0  0  0
    8.5473  -17.1642   27.7998 C   0  0  0  0  0  0  0  0  0  0  0  0
    8.2272  -17.1960   30.2486 C   0  0  0  0  0  0  0  0  0  0  0  0
  1  2  1  0
  2  3  1  0
  3  4  2  0
  3  5  1  0
  5  6  1  0
  5  8  1  0
  6  7  1  0
  7  8  1  0
  7  9  1  1
  9 10  1  0
 10 11  2  0
 10 12  1  0
 12 13  1  0
 13 14  1  0
 13 40  1  0
 15 14  1  6
 14 18  2  0
 15 16  1  0
 15 17  1  0
 16 17  1  0
 18 19  1  0
 18 33  1  0
 19 20  2  0
 19 21  1  0
 21 22  1  0
 21 32  1  0
 22 23  1  0
 23 24  1  0
 24 25  2  0
 24 31  1  0
 25 26  1  0
 25 28  1  0
 26 27  1  0
 28 29  2  0
 29 30  1  0
 30 31  2  0
 31 32  1  0
 33 34  2  0
 33 40  1  0
 34 35  1  0
 35 36  1  0
 35 37  2  0
 37 38  1  0
 38 39  1  0
 38 40  2  0
M  END
$$$$
