
     RDKit          3D

 40 45  0  0  0  0  0  0  0  0999 V2000
   -3.9872  -16.3160   23.3520 C   0  0  0  0  0  0  0  0  0  0  0  0
   -2.5311  -16.1725   23.7855 C   0  0  0  0  0  0  0  0  0  0  0  0
   -2.3432  -15.1585   24.8280 C   0  0  0  0  0  0  0  0  0  0  0  0
   -3.0662  -14.0884   24.7728 O   0  0  0  0  0  0  0  0  0  0  0  0
   -1.4416  -15.2264   25.9143 N   0  0  0  0  0  0  0  0  0  0  0  0
   -0.4556  -16.1879   26.3597 C   0  0  0  0  0  0  0  0  0  0  0  0
   -0.4369  -15.5295   27.6906 C   0  0  2  0  0  0  0  0  0  0  0  0
   -1.1016  -14.3977   27.0350 C   0  0  0  0  0  0  0  0  0  0  0  0
    0.8012  -15.3232   28.3744 N   0  0  0  0  0  0  0  0  0  0  0  0
    1.2821  -15.9670   29.5037 C   0  0  0  0  0  0  0  0  0  0  0  0
    0.5403  -16.8804   30.0438 O   0  0  0  0  0  0  0  0  0  0  0  0
    2.5465  -15.7783   30.2150 C   0  0  0  0  0  0  0  0  0  0  0  0
    2.5046  -15.2952   31.5562 N   0  0  0  0  0  0  0  0  0  0  0  0
    2.6103  -16.0851   32.6884 C   0  0  0  0  0  0  0  0  0  0  0  0
    2.7420  -17.5418   32.6042 C   0  0  2  0  0  0  0  0  0  0  0  0
    3.0611  -18.3758   33.7900 C   0  0  0  0  0  0  0  0  0  0  0  0
    4.0569  -18.2038   32.7055 C   0  0  0  0  0  0  0  0  0  0  0  0
    2.5785  -15.3213   33.8097 C   0  0  0  0  0  0  0  0  0  0  0  0
    2.6985  -15.6860   35.2228 C   0  0  0  0  0  0  0  0  0  0  0  0
    1.8126  -16.3982   35.7325 O   0  0  0  0  0  0  0  0  0  0  0  0
    3.7854  -15.2476   36.0170 N   0  0  0  0  0  0  0  0  0  0  0  0
    3.7785  -15.5051   37.4336 C   0  0  0  0  0  0  0  0  0  0  0  0
    4.9359  -14.9088   38.1786 C   0  0  0  0  0  0  0  0  0  0  0  0
    6.1779  -15.1541   37.4279 C   0  0  0  0  0  0  0  0  0  0  0  0
    7.3168  -15.5496   38.0830 C   0  0  0  0  0  0  0  0  0  0  0  0
    7.3717  -15.7374   39.4575 O   0  0  0  0  0  0  0  0  0  0  0  0
    7.1156  -14.6763   40.3567 C   0  0  0  0  0  0  0  0  0  0  0  0
    8.4951  -15.7842   37.3703 C   0  0  0  0  0  0  0  0  0  0  0  0
    8.4745  -15.6083   36.0037 C   0  0  0  0  0  0  0  0  0  0  0  0
    7.3339  -15.2107   35.3426 C   0  0  0  0  0  0  0  0  0  0  0  0
    6.1784  -14.9832   36.0663 C   0  0  0  0  0  0  0  0  0  0  0  0
    4.9178  -14.5367   35.4451 C   0  0  0  0  0  0  0  0  0  0  0  0
    2.4488  -14.0283   33.3947 C   0  0  0  0  0  0  0  0  0  0  0  0
    2.3705  -12.8493   34.1064 C   0  0  0  0  0  0  0  0  0  0  0  0
    2.2472  -11.6467   33.4587 C   0  0  0  0  0  0  0  0  0  0  0  0
    2.1429  -10.1107   34.3083 Cl  0  0  0  0  0  0  0  0  0  0  0  0
    2.2063  -11.6718   32.1030 C   0  0  0  0  0  0  0  0  0  0  0  0
    2.2805  -12.8243   31.3199 C   0  0  0  0  0  0  0  0  0  0  0  0
    2.2359  -12.7813   29.8647 C   0  0  0  0  0  0  0  0  0  0  0  0
    2.4048  -14.0319   31.9878 C   0  0  0  0  0  0  0  0  0  0  0  0
  1  2  1  0
  2  3  1  0
  3  4  2  0
  3  5  1  0
  5  6  1  0
  5  8  1  0
  6  7  1  0
  7  8  1  0
  7  9  1  6
  9 10  1  0
 10 11  2  0
 10 12  1  0
 12 13  1  0
 13 14  1  0
 13 40  1  0
 15 14  1  1
 14 18  2  0
 15 16  1  0
 15 17  1  0
 16 17  1  0
 18 19  1  0
 18 33  1  0
 19 20  2  0
 19 21  1  0
 21 22  1  0
 21 32  1  0
 22 23  1  0
 23 24  1  0
 24 25  2  0
 24 31  1  0
 25 26  1  0
 25 28  1  0
 26 27  1  0
 28 29  2  0
 29 30  1  0
 30 31  2  0
 31 32  1  0
 33 34  2  0
 33 40  1  0
 34 35  1  0
 35 36  1  0
 35 37  2  0
 37 38  1  0
 38 39  1  0
 38 40  2  0
M  END
$$$$
