
     RDKit          3D

 40 45  0  0  0  0  0  0  0  0999 V2000
   -1.7239  -11.0247   33.4030 C   0  0  0  0  0  0  0  0  0  0  0  0
   -1.2083  -12.4092   33.0212 C   0  0  0  0  0  0  0  0  0  0  0  0
   -0.1055  -12.3614   32.0559 C   0  0  0  0  0  0  0  0  0  0  0  0
   -0.0791  -11.3839   31.2107 O   0  0  0  0  0  0  0  0  0  0  0  0
    0.9590  -13.2850   31.9491 N   0  0  0  0  0  0  0  0  0  0  0  0
    2.1429  -13.3820   31.1219 C   0  0  0  0  0  0  0  0  0  0  0  0
    2.2724  -14.8119   31.5013 C   0  0  2  0  0  0  0  0  0  0  0  0
    1.3408  -14.5086   32.5934 C   0  0  0  0  0  0  0  0  0  0  0  0
    3.5566  -15.3640   31.7996 N   0  0  0  0  0  0  0  0  0  0  0  0
    3.8633  -16.6279   32.2788 C   0  0  0  0  0  0  0  0  0  0  0  0
    2.9138  -17.5068   32.3243 O   0  0  0  0  0  0  0  0  0  0  0  0
    5.1400  -17.1562   32.7597 C   0  0  0  0  0  0  0  0  0  0  0  0
    6.3423  -16.6662   32.1694 N   0  0  0  0  0  0  0  0  0  0  0  0
    6.8999  -17.1396   30.9938 C   0  0  0  0  0  0  0  0  0  0  0  0
    6.3018  -18.2492   30.2472 C   0  0  2  0  0  0  0  0  0  0  0  0
    5.5109  -19.3141   30.9135 C   0  0  0  0  0  0  0  0  0  0  0  0
    6.8424  -19.6192   30.3381 C   0  0  0  0  0  0  0  0  0  0  0  0
    8.0169  -16.4369   30.6769 C   0  0  0  0  0  0  0  0  0  0  0  0
    8.9157  -16.5321   29.5248 C   0  0  0  0  0  0  0  0  0  0  0  0
    8.4187  -16.6448   28.3880 O   0  0  0  0  0  0  0  0  0  0  0  0
   10.3235  -16.5043   29.6721 N   0  0  0  0  0  0  0  0  0  0  0  0
   10.9092  -16.8069   30.9522 C   0  0  0  0  0  0  0  0  0  0  0  0
   12.4001  -16.6505   31.0052 C   0  0  0  0  0  0  0  0  0  0  0  0
   12.9969  -17.2523   29.8019 C   0  0  0  0  0  0  0  0  0  0  0  0
   14.1275  -18.0234   29.9008 C   0  0  0  0  0  0  0  0  0  0  0  0
   14.7656  -18.2782   31.1071 O   0  0  0  0  0  0  0  0  0  0  0  0
   16.0181  -17.6980   31.4149 C   0  0  0  0  0  0  0  0  0  0  0  0
   14.6929  -18.5961   28.7590 C   0  0  0  0  0  0  0  0  0  0  0  0
   14.0833  -18.3640   27.5451 C   0  0  0  0  0  0  0  0  0  0  0  0
   12.9490  -17.5900   27.4414 C   0  0  0  0  0  0  0  0  0  0  0  0
   12.4056  -17.0320   28.5833 C   0  0  0  0  0  0  0  0  0  0  0  0
   11.2060  -16.1747   28.5642 C   0  0  0  0  0  0  0  0  0  0  0  0
    8.1803  -15.5044   31.6591 C   0  0  0  0  0  0  0  0  0  0  0  0
    9.1410  -14.5307   31.8366 C   0  0  0  0  0  0  0  0  0  0  0  0
    9.0942  -13.6891   32.9184 C   0  0  0  0  0  0  0  0  0  0  0  0
   10.2877  -12.4290   33.2004 Cl  0  0  0  0  0  0  0  0  0  0  0  0
    8.0719  -13.8580   33.7941 C   0  0  0  0  0  0  0  0  0  0  0  0
    7.0672  -14.8193   33.6776 C   0  0  0  0  0  0  0  0  0  0  0  0
    5.9923  -14.9445   34.6525 C   0  0  0  0  0  0  0  0  0  0  0  0
    7.1273  -15.6625   32.5797 C   0  0  0  0  0  0  0  0  0  0  0  0
  1  2  1  0
  2  3  1  0
  3  4  2  0
  3  5  1  0
  5  6  1  0
  5  8  1  0
  6  7  1  0
  7  8  1  0
  7  9  1  1
  9 10  1  0
 10 11  2  0
 10 12  1  0
 12 13  1  0
 13 14  1  0
 13 40  1  0
 15 14  1  1
 14 18  2  0
 15 16  1  0
 15 17  1  0
 16 17  1  0
 18 19  1  0
 18 33  1  0
 19 20  2  0
 19 21  1  0
 21 22  1  0
 21 32  1  0
 22 23  1  0
 23 24  1  0
 24 25  2  0
 24 31  1  0
 25 26  1  0
 25 28  1  0
 26 27  1  0
 28 29  2  0
 29 30  1  0
 30 31  2  0
 31 32  1  0
 33 34  2  0
 33 40  1  0
 34 35  1  0
 35 36  1  0
 35 37  2  0
 37 38  1  0
 38 39  1  0
 38 40  2  0
M  END
$$$$
