
     RDKit          3D

 40 45  0  0  0  0  0  0  0  0999 V2000
    0.7695  -14.2920   24.6349 C   0  0  0  0  0  0  0  0  0  0  0  0
   -0.4016  -13.7186   25.4275 C   0  0  0  0  0  0  0  0  0  0  0  0
   -0.4598  -14.2210   26.8039 C   0  0  0  0  0  0  0  0  0  0  0  0
   -1.6114  -14.5707   27.2754 O   0  0  0  0  0  0  0  0  0  0  0  0
    0.6305  -14.3735   27.6901 N   0  0  0  0  0  0  0  0  0  0  0  0
    0.7811  -14.8655   29.0431 C   0  0  0  0  0  0  0  0  0  0  0  0
    2.1137  -14.2143   29.1155 C   0  0  2  0  0  0  0  0  0  0  0  0
    2.0421  -14.1201   27.6531 C   0  0  0  0  0  0  0  0  0  0  0  0
    3.2135  -14.8915   29.7277 N   0  0  0  0  0  0  0  0  0  0  0  0
    3.4862  -15.0518   31.0773 C   0  0  0  0  0  0  0  0  0  0  0  0
    2.7885  -14.3637   31.9234 O   0  0  0  0  0  0  0  0  0  0  0  0
    4.4736  -15.9105   31.7315 C   0  0  0  0  0  0  0  0  0  0  0  0
    4.7854  -15.6639   33.1011 N   0  0  0  0  0  0  0  0  0  0  0  0
    4.2278  -16.3355   34.1758 C   0  0  0  0  0  0  0  0  0  0  0  0
    3.2055  -17.3690   33.9944 C   0  0  2  0  0  0  0  0  0  0  0  0
    3.3622  -18.7398   34.5422 C   0  0  0  0  0  0  0  0  0  0  0  0
    3.4144  -18.5074   33.0791 C   0  0  0  0  0  0  0  0  0  0  0  0
    4.7647  -15.8996   35.3435 C   0  0  0  0  0  0  0  0  0  0  0  0
    4.5342  -16.3281   36.7246 C   0  0  0  0  0  0  0  0  0  0  0  0
    4.8099  -17.5015   37.0392 O   0  0  0  0  0  0  0  0  0  0  0  0
    4.0053  -15.4492   37.7004 N   0  0  0  0  0  0  0  0  0  0  0  0
    3.2047  -14.3268   37.2851 C   0  0  0  0  0  0  0  0  0  0  0  0
    2.7837  -13.4178   38.4016 C   0  0  0  0  0  0  0  0  0  0  0  0
    2.3194  -14.2262   39.5404 C   0  0  0  0  0  0  0  0  0  0  0  0
    1.1877  -13.8683   40.2287 C   0  0  0  0  0  0  0  0  0  0  0  0
    0.4287  -12.7513   39.9067 O   0  0  0  0  0  0  0  0  0  0  0  0
    0.2790  -11.6762   40.8132 C   0  0  0  0  0  0  0  0  0  0  0  0
    0.7460  -14.6367   41.3085 C   0  0  0  0  0  0  0  0  0  0  0  0
    1.4760  -15.7534   41.6537 C   0  0  0  0  0  0  0  0  0  0  0  0
    2.6128  -16.1156   40.9661 C   0  0  0  0  0  0  0  0  0  0  0  0
    3.0332  -15.3414   39.9010 C   0  0  0  0  0  0  0  0  0  0  0  0
    4.2481  -15.6422   39.1212 C   0  0  0  0  0  0  0  0  0  0  0  0
    5.6745  -14.9371   35.0167 C   0  0  0  0  0  0  0  0  0  0  0  0
    6.5063  -14.1685   35.8041 C   0  0  0  0  0  0  0  0  0  0  0  0
    7.3564  -13.2524   35.2393 C   0  0  0  0  0  0  0  0  0  0  0  0
    8.4403  -12.2437   36.1879 Cl  0  0  0  0  0  0  0  0  0  0  0  0
    7.3401  -13.1395   33.8875 C   0  0  0  0  0  0  0  0  0  0  0  0
    6.5273  -13.8828   33.0308 C   0  0  0  0  0  0  0  0  0  0  0  0
    6.5625  -13.7160   31.5843 C   0  0  0  0  0  0  0  0  0  0  0  0
    5.6736  -14.8044   33.6154 C   0  0  0  0  0  0  0  0  0  0  0  0
  1  2  1  0
  2  3  1  0
  3  4  2  0
  3  5  1  0
  5  6  1  0
  5  8  1  0
  6  7  1  0
  7  8  1  0
  7  9  1  6
  9 10  1  0
 10 11  2  0
 10 12  1  0
 12 13  1  0
 13 14  1  0
 13 40  1  0
 15 14  1  1
 14 18  2  0
 15 16  1  0
 15 17  1  0
 16 17  1  0
 18 19  1  0
 18 33  1  0
 19 20  2  0
 19 21  1  0
 21 22  1  0
 21 32  1  0
 22 23  1  0
 23 24  1  0
 24 25  2  0
 24 31  1  0
 25 26  1  0
 25 28  1  0
 26 27  1  0
 28 29  2  0
 29 30  1  0
 30 31  2  0
 31 32  1  0
 33 34  2  0
 33 40  1  0
 34 35  1  0
 35 36  1  0
 35 37  2  0
 37 38  1  0
 38 39  1  0
 38 40  2  0
M  END
$$$$
