
     RDKit          3D

 40 45  0  0  0  0  0  0  0  0999 V2000
   -4.3009  -14.6638   24.1943 C   0  0  0  0  0  0  0  0  0  0  0  0
   -3.8411  -14.7285   25.6479 C   0  0  0  0  0  0  0  0  0  0  0  0
   -2.7814  -15.7179   25.8679 C   0  0  0  0  0  0  0  0  0  0  0  0
   -2.9289  -16.8925   25.3490 O   0  0  0  0  0  0  0  0  0  0  0  0
   -1.5866  -15.5223   26.5971 N   0  0  0  0  0  0  0  0  0  0  0  0
   -0.4128  -16.3268   26.8619 C   0  0  0  0  0  0  0  0  0  0  0  0
   -0.0558  -15.4120   27.9759 C   0  0  2  0  0  0  0  0  0  0  0  0
   -1.0094  -14.4688   27.3815 C   0  0  0  0  0  0  0  0  0  0  0  0
    1.3028  -15.0143   28.1734 N   0  0  0  0  0  0  0  0  0  0  0  0
    2.1769  -15.3948   29.1797 C   0  0  0  0  0  0  0  0  0  0  0  0
    1.7732  -16.2836   30.0302 O   0  0  0  0  0  0  0  0  0  0  0  0
    3.5410  -14.9399   29.4487 C   0  0  0  0  0  0  0  0  0  0  0  0
    3.9691  -14.8451   30.8057 N   0  0  0  0  0  0  0  0  0  0  0  0
    3.5539  -13.8763   31.7035 C   0  0  0  0  0  0  0  0  0  0  0  0
    2.6344  -12.8047   31.3130 C   0  0  2  0  0  0  0  0  0  0  0  0
    2.3089  -12.5218   29.8927 C   0  0  0  0  0  0  0  0  0  0  0  0
    3.1215  -11.5640   30.6799 C   0  0  0  0  0  0  0  0  0  0  0  0
    4.1074  -14.0865   32.9247 C   0  0  0  0  0  0  0  0  0  0  0  0
    3.9412  -13.3685   34.1900 C   0  0  0  0  0  0  0  0  0  0  0  0
    3.7120  -12.1446   34.1559 O   0  0  0  0  0  0  0  0  0  0  0  0
    4.0392  -14.0263   35.4399 N   0  0  0  0  0  0  0  0  0  0  0  0
    3.8383  -15.4503   35.5101 C   0  0  0  0  0  0  0  0  0  0  0  0
    3.8728  -16.0143   36.8996 C   0  0  0  0  0  0  0  0  0  0  0  0
    5.0053  -15.4295   37.6356 C   0  0  0  0  0  0  0  0  0  0  0  0
    5.8014  -16.2206   38.4248 C   0  0  0  0  0  0  0  0  0  0  0  0
    5.5963  -17.5851   38.5781 O   0  0  0  0  0  0  0  0  0  0  0  0
    6.3683  -18.5308   37.8642 C   0  0  0  0  0  0  0  0  0  0  0  0
    6.8774  -15.6659   39.1219 C   0  0  0  0  0  0  0  0  0  0  0  0
    7.1098  -14.3140   38.9906 C   0  0  0  0  0  0  0  0  0  0  0  0
    6.3127  -13.5163   38.2002 C   0  0  0  0  0  0  0  0  0  0  0  0
    5.2526  -14.0847   37.5191 C   0  0  0  0  0  0  0  0  0  0  0  0
    4.3361  -13.3047   36.6671 C   0  0  0  0  0  0  0  0  0  0  0  0
    4.8877  -15.1997   32.8104 C   0  0  0  0  0  0  0  0  0  0  0  0
    5.6696  -15.8599   33.7354 C   0  0  0  0  0  0  0  0  0  0  0  0
    6.3727  -16.9837   33.3838 C   0  0  0  0  0  0  0  0  0  0  0  0
    7.3859  -17.8693   34.5157 Cl  0  0  0  0  0  0  0  0  0  0  0  0
    6.2641  -17.4092   32.1002 C   0  0  0  0  0  0  0  0  0  0  0  0
    5.4934  -16.7926   31.1139 C   0  0  0  0  0  0  0  0  0  0  0  0
    5.4160  -17.3049   29.7526 C   0  0  0  0  0  0  0  0  0  0  0  0
    4.7886  -15.6583   31.4833 C   0  0  0  0  0  0  0  0  0  0  0  0
  1  2  1  0
  2  3  1  0
  3  4  2  0
  3  5  1  0
  5  6  1  0
  5  8  1  0
  6  7  1  0
  7  8  1  0
  7  9  1  6
  9 10  1  0
 10 11  2  0
 10 12  1  0
 12 13  1  0
 13 14  1  0
 13 40  1  0
 15 14  1  6
 14 18  2  0
 15 16  1  0
 15 17  1  0
 16 17  1  0
 18 19  1  0
 18 33  1  0
 19 20  2  0
 19 21  1  0
 21 22  1  0
 21 32  1  0
 22 23  1  0
 23 24  1  0
 24 25  2  0
 24 31  1  0
 25 26  1  0
 25 28  1  0
 26 27  1  0
 28 29  2  0
 29 30  1  0
 30 31  2  0
 31 32  1  0
 33 34  2  0
 33 40  1  0
 34 35  1  0
 35 36  1  0
 35 37  2  0
 37 38  1  0
 38 39  1  0
 38 40  2  0
M  END
$$$$
