
     RDKit          3D

 40 45  0  0  0  0  0  0  0  0999 V2000
    0.9666  -12.7157   25.0965 C   0  0  0  0  0  0  0  0  0  0  0  0
    1.3350  -14.0832   25.6648 C   0  0  0  0  0  0  0  0  0  0  0  0
    0.6060  -14.4049   26.8958 C   0  0  0  0  0  0  0  0  0  0  0  0
   -0.6753  -14.5581   26.8213 O   0  0  0  0  0  0  0  0  0  0  0  0
    1.1637  -14.5750   28.1833 N   0  0  0  0  0  0  0  0  0  0  0  0
    0.6210  -14.8110   29.5042 C   0  0  0  0  0  0  0  0  0  0  0  0
    1.9233  -14.4098   30.0944 C   0  0  2  0  0  0  0  0  0  0  0  0
    2.4815  -14.5930   28.7500 C   0  0  0  0  0  0  0  0  0  0  0  0
    2.4712  -15.1411   31.1935 N   0  0  0  0  0  0  0  0  0  0  0  0
    2.9503  -14.6565   32.4005 C   0  0  0  0  0  0  0  0  0  0  0  0
    2.9897  -13.3731   32.5666 O   0  0  0  0  0  0  0  0  0  0  0  0
    3.4371  -15.3886   33.5698 C   0  0  0  0  0  0  0  0  0  0  0  0
    4.8184  -15.2842   33.9087 N   0  0  0  0  0  0  0  0  0  0  0  0
    5.8229  -16.0931   33.4052 C   0  0  0  0  0  0  0  0  0  0  0  0
    5.5388  -17.1893   32.4757 C   0  0  2  0  0  0  0  0  0  0  0  0
    4.1561  -17.5344   32.0605 C   0  0  0  0  0  0  0  0  0  0  0  0
    4.9258  -18.4503   32.9356 C   0  0  0  0  0  0  0  0  0  0  0  0
    7.0324  -15.7113   33.8882 C   0  0  0  0  0  0  0  0  0  0  0  0
    8.3780  -16.2220   33.6186 C   0  0  0  0  0  0  0  0  0  0  0  0
    9.0275  -16.7176   34.5590 O   0  0  0  0  0  0  0  0  0  0  0  0
    8.9544  -16.1615   32.3270 N   0  0  0  0  0  0  0  0  0  0  0  0
   10.3579  -16.4381   32.1624 C   0  0  0  0  0  0  0  0  0  0  0  0
   10.8683  -16.2482   30.7648 C   0  0  0  0  0  0  0  0  0  0  0  0
    9.9197  -16.8486   29.8131 C   0  0  0  0  0  0  0  0  0  0  0  0
   10.3771  -17.5934   28.7554 C   0  0  0  0  0  0  0  0  0  0  0  0
   11.7260  -17.8218   28.5190 O   0  0  0  0  0  0  0  0  0  0  0  0
   12.2069  -19.1076   28.1794 C   0  0  0  0  0  0  0  0  0  0  0  0
    9.4767  -18.1649   27.8532 C   0  0  0  0  0  0  0  0  0  0  0  0
    8.1299  -17.9587   28.0598 C   0  0  0  0  0  0  0  0  0  0  0  0
    7.6667  -17.2112   29.1194 C   0  0  0  0  0  0  0  0  0  0  0  0
    8.5743  -16.6538   30.0005 C   0  0  0  0  0  0  0  0  0  0  0  0
    8.1698  -15.8236   31.1501 C   0  0  0  0  0  0  0  0  0  0  0  0
    6.8031  -14.6482   34.7118 C   0  0  0  0  0  0  0  0  0  0  0  0
    7.6675  -13.8730   35.4565 C   0  0  0  0  0  0  0  0  0  0  0  0
    7.1974  -12.8339   36.2183 C   0  0  0  0  0  0  0  0  0  0  0  0
    8.2472  -11.8099   37.1885 Cl  0  0  0  0  0  0  0  0  0  0  0  0
    5.8598  -12.6082   36.2049 C   0  0  0  0  0  0  0  0  0  0  0  0
    4.9290  -13.3501   35.4767 C   0  0  0  0  0  0  0  0  0  0  0  0
    3.5036  -13.0514   35.5021 C   0  0  0  0  0  0  0  0  0  0  0  0
    5.4182  -14.3966   34.7117 C   0  0  0  0  0  0  0  0  0  0  0  0
  1  2  1  0
  2  3  1  0
  3  4  2  0
  3  5  1  0
  5  6  1  0
  5  8  1  0
  6  7  1  0
  7  8  1  0
  7  9  1  1
  9 10  1  0
 10 11  2  0
 10 12  1  0
 12 13  1  0
 13 14  1  0
 13 40  1  0
 15 14  1  1
 14 18  2  0
 15 16  1  0
 15 17  1  0
 16 17  1  0
 18 19  1  0
 18 33  1  0
 19 20  2  0
 19 21  1  0
 21 22  1  0
 21 32  1  0
 22 23  1  0
 23 24  1  0
 24 25  2  0
 24 31  1  0
 25 26  1  0
 25 28  1  0
 26 27  1  0
 28 29  2  0
 29 30  1  0
 30 31  2  0
 31 32  1  0
 33 34  2  0
 33 40  1  0
 34 35  1  0
 35 36  1  0
 35 37  2  0
 37 38  1  0
 38 39  1  0
 38 40  2  0
M  END
$$$$
