
     RDKit          3D

 40 45  0  0  0  0  0  0  0  0999 V2000
    2.2402  -25.3886   26.4386 C   0  0  0  0  0  0  0  0  0  0  0  0
    3.3942  -24.7815   25.6460 C   0  0  0  0  0  0  0  0  0  0  0  0
    3.9322  -23.5647   26.2625 C   0  0  0  0  0  0  0  0  0  0  0  0
    3.0968  -22.6517   26.6359 O   0  0  0  0  0  0  0  0  0  0  0  0
    5.2945  -23.2758   26.5036 N   0  0  0  0  0  0  0  0  0  0  0  0
    6.0172  -22.1288   27.0109 C   0  0  0  0  0  0  0  0  0  0  0  0
    7.2754  -22.7001   26.4669 C   0  0  2  0  0  0  0  0  0  0  0  0
    6.5435  -23.9673   26.3620 C   0  0  0  0  0  0  0  0  0  0  0  0
    8.4820  -22.6412   27.2308 N   0  0  0  0  0  0  0  0  0  0  0  0
    9.7661  -22.3514   26.7967 C   0  0  0  0  0  0  0  0  0  0  0  0
    9.9199  -21.9682   25.5696 O   0  0  0  0  0  0  0  0  0  0  0  0
   11.0309  -22.4065   27.5298 C   0  0  0  0  0  0  0  0  0  0  0  0
   11.9997  -21.3883   27.2883 N   0  0  0  0  0  0  0  0  0  0  0  0
   13.1423  -21.5450   26.5221 C   0  0  0  0  0  0  0  0  0  0  0  0
   13.4861  -22.8266   25.9013 C   0  0  2  0  0  0  0  0  0  0  0  0
   12.4530  -23.7430   25.3570 C   0  0  0  0  0  0  0  0  0  0  0  0
   13.2105  -24.1089   26.5775 C   0  0  0  0  0  0  0  0  0  0  0  0
   13.8337  -20.3794   26.4497 C   0  0  0  0  0  0  0  0  0  0  0  0
   15.0631  -20.0360   25.7321 C   0  0  0  0  0  0  0  0  0  0  0  0
   14.9779  -19.6676   24.5451 O   0  0  0  0  0  0  0  0  0  0  0  0
   16.3348  -20.1172   26.3489 N   0  0  0  0  0  0  0  0  0  0  0  0
   17.5228  -20.0009   25.5437 C   0  0  0  0  0  0  0  0  0  0  0  0
   18.8049  -20.1990   26.2967 C   0  0  0  0  0  0  0  0  0  0  0  0
   18.7442  -19.4580   27.5669 C   0  0  0  0  0  0  0  0  0  0  0  0
   19.8268  -18.7344   27.9993 C   0  0  0  0  0  0  0  0  0  0  0  0
   21.0170  -18.6570   27.2888 O   0  0  0  0  0  0  0  0  0  0  0  0
   22.2473  -19.0453   27.8680 C   0  0  0  0  0  0  0  0  0  0  0  0
   19.7686  -18.0295   29.2040 C   0  0  0  0  0  0  0  0  0  0  0  0
   18.6008  -18.0841   29.9336 C   0  0  0  0  0  0  0  0  0  0  0  0
   17.5124  -18.8098   29.5036 C   0  0  0  0  0  0  0  0  0  0  0  0
   17.5907  -19.5007   28.3089 C   0  0  0  0  0  0  0  0  0  0  0  0
   16.4829  -20.3186   27.7815 C   0  0  0  0  0  0  0  0  0  0  0  0
   13.1303  -19.4652   27.1780 C   0  0  0  0  0  0  0  0  0  0  0  0
   13.3701  -18.1318   27.4376 C   0  0  0  0  0  0  0  0  0  0  0  0
   12.5011  -17.4003   28.2061 C   0  0  0  0  0  0  0  0  0  0  0  0
   12.7505  -15.6987   28.5725 Cl  0  0  0  0  0  0  0  0  0  0  0  0
   11.4094  -18.0421   28.6926 C   0  0  0  0  0  0  0  0  0  0  0  0
   11.1041  -19.3854   28.4705 C   0  0  0  0  0  0  0  0  0  0  0  0
    9.9098  -20.0136   29.0190 C   0  0  0  0  0  0  0  0  0  0  0  0
   11.9908  -20.1120   27.6924 C   0  0  0  0  0  0  0  0  0  0  0  0
  1  2  1  0
  2  3  1  0
  3  4  2  0
  3  5  1  0
  5  6  1  0
  5  8  1  0
  6  7  1  0
  7  8  1  0
  7  9  1  1
  9 10  1  0
 10 11  2  0
 10 12  1  0
 12 13  1  0
 13 14  1  0
 13 40  1  0
 15 14  1  1
 14 18  2  0
 15 16  1  0
 15 17  1  0
 16 17  1  0
 18 19  1  0
 18 33  1  0
 19 20  2  0
 19 21  1  0
 21 22  1  0
 21 32  1  0
 22 23  1  0
 23 24  1  0
 24 25  2  0
 24 31  1  0
 25 26  1  0
 25 28  1  0
 26 27  1  0
 28 29  2  0
 29 30  1  0
 30 31  2  0
 31 32  1  0
 33 34  2  0
 33 40  1  0
 34 35  1  0
 35 36  1  0
 35 37  2  0
 37 38  1  0
 38 39  1  0
 38 40  2  0
M  END
$$$$
