
     RDKit          3D

 40 45  0  0  0  0  0  0  0  0999 V2000
    1.6520  -15.9519   22.3756 C   0  0  0  0  0  0  0  0  0  0  0  0
    2.4364  -17.1872   22.8086 C   0  0  0  0  0  0  0  0  0  0  0  0
    1.8971  -17.8094   24.0219 C   0  0  0  0  0  0  0  0  0  0  0  0
    0.7236  -18.3476   23.9593 O   0  0  0  0  0  0  0  0  0  0  0  0
    2.5362  -17.8919   25.2799 N   0  0  0  0  0  0  0  0  0  0  0  0
    2.2284  -18.5398   26.5371 C   0  0  0  0  0  0  0  0  0  0  0  0
    3.2344  -17.6789   27.2096 C   0  0  2  0  0  0  0  0  0  0  0  0
    3.7453  -17.3883   25.8653 C   0  0  0  0  0  0  0  0  0  0  0  0
    4.1103  -18.2308   28.1952 N   0  0  0  0  0  0  0  0  0  0  0  0
    4.3499  -17.7839   29.4852 C   0  0  0  0  0  0  0  0  0  0  0  0
    3.8988  -16.6166   29.8168 O   0  0  0  0  0  0  0  0  0  0  0  0
    5.0567  -18.4446   30.5826 C   0  0  0  0  0  0  0  0  0  0  0  0
    5.8195  -17.6401   31.4797 N   0  0  0  0  0  0  0  0  0  0  0  0
    5.4743  -17.3696   32.7930 C   0  0  0  0  0  0  0  0  0  0  0  0
    4.2327  -17.8741   33.3848 C   0  0  2  0  0  0  0  0  0  0  0  0
    2.9464  -17.8714   32.6439 C   0  0  0  0  0  0  0  0  0  0  0  0
    3.1488  -16.9614   33.7964 C   0  0  0  0  0  0  0  0  0  0  0  0
    6.4278  -16.6124   33.3924 C   0  0  0  0  0  0  0  0  0  0  0  0
    6.5350  -16.1143   34.7652 C   0  0  0  0  0  0  0  0  0  0  0  0
    6.5726  -16.9392   35.6980 O   0  0  0  0  0  0  0  0  0  0  0  0
    6.5913  -14.7296   35.0545 N   0  0  0  0  0  0  0  0  0  0  0  0
    6.2209  -13.7771   34.0403 C   0  0  0  0  0  0  0  0  0  0  0  0
    6.4139  -12.3430   34.4354 C   0  0  0  0  0  0  0  0  0  0  0  0
    5.9093  -12.1416   35.8033 C   0  0  0  0  0  0  0  0  0  0  0  0
    5.1644  -11.0310   36.1105 C   0  0  0  0  0  0  0  0  0  0  0  0
    4.8480  -10.0516   35.1789 O   0  0  0  0  0  0  0  0  0  0  0  0
    5.1512   -8.6897   35.4100 C   0  0  0  0  0  0  0  0  0  0  0  0
    4.6839  -10.8408   37.4083 C   0  0  0  0  0  0  0  0  0  0  0  0
    4.9789  -11.7954   38.3575 C   0  0  0  0  0  0  0  0  0  0  0  0
    5.7269  -12.9109   38.0534 C   0  0  0  0  0  0  0  0  0  0  0  0
    6.1934  -13.0801   36.7633 C   0  0  0  0  0  0  0  0  0  0  0  0
    7.0172  -14.2323   36.3530 C   0  0  0  0  0  0  0  0  0  0  0  0
    7.3942  -16.3921   32.4550 C   0  0  0  0  0  0  0  0  0  0  0  0
    8.5823  -15.6945   32.5218 C   0  0  0  0  0  0  0  0  0  0  0  0
    9.4101  -15.6146   31.4312 C   0  0  0  0  0  0  0  0  0  0  0  0
   10.9363  -14.7416   31.4528 Cl  0  0  0  0  0  0  0  0  0  0  0  0
    9.0099  -16.2457   30.2990 C   0  0  0  0  0  0  0  0  0  0  0  0
    7.8242  -16.9681   30.1603 C   0  0  0  0  0  0  0  0  0  0  0  0
    7.4554  -17.6279   28.9152 C   0  0  0  0  0  0  0  0  0  0  0  0
    6.9978  -17.0403   31.2701 C   0  0  0  0  0  0  0  0  0  0  0  0
  1  2  1  0
  2  3  1  0
  3  4  2  0
  3  5  1  0
  5  6  1  0
  5  8  1  0
  6  7  1  0
  7  8  1  0
  7  9  1  1
  9 10  1  0
 10 11  2  0
 10 12  1  0
 12 13  1  0
 13 14  1  0
 13 40  1  0
 15 14  1  6
 14 18  2  0
 15 16  1  0
 15 17  1  0
 16 17  1  0
 18 19  1  0
 18 33  1  0
 19 20  2  0
 19 21  1  0
 21 22  1  0
 21 32  1  0
 22 23  1  0
 23 24  1  0
 24 25  2  0
 24 31  1  0
 25 26  1  0
 25 28  1  0
 26 27  1  0
 28 29  2  0
 29 30  1  0
 30 31  2  0
 31 32  1  0
 33 34  2  0
 33 40  1  0
 34 35  1  0
 35 36  1  0
 35 37  2  0
 37 38  1  0
 38 39  1  0
 38 40  2  0
M  END
$$$$
