
     RDKit          3D

 31 33  0  0  0  0  0  0  0  0999 V2000
  -40.4177  -45.8445   21.1733 C   0  0  0  0  0  0  0  0  0  0  0  0
  -38.0218  -43.1464   22.3565 C   0  0  1  0  0  0  0  0  0  0  0  0
  -38.6041  -45.0092   19.8047 C   0  0  0  0  0  0  0  0  0  0  0  0
  -38.9383  -43.9559   19.0029 C   0  0  0  0  0  0  0  0  0  0  0  0
  -38.5213  -43.8243   17.6601 C   0  0  0  0  0  0  0  0  0  0  0  0
  -38.6491  -42.4175   15.5771 C   0  0  0  0  0  0  0  0  0  0  0  0
  -39.0420  -45.1345   21.1673 C   0  0  1  0  0  0  0  0  0  0  0  0
  -39.0788  -41.1019   15.0252 C   0  0  0  0  0  0  0  0  0  0  0  0
  -40.5693  -39.2867   14.9583 C   0  0  0  0  0  0  0  0  0  0  0  0
  -39.8555  -38.6410   13.9719 C   0  0  0  0  0  0  0  0  0  0  0  0
  -38.7095  -39.2663   13.5055 C   0  0  0  0  0  0  0  0  0  0  0  0
  -38.3465  -40.4785   14.0395 C   0  0  0  0  0  0  0  0  0  0  0  0
  -37.7428  -44.7896   17.1156 C   0  0  0  0  0  0  0  0  0  0  0  0
  -37.3807  -45.8808   17.9037 C   0  0  0  0  0  0  0  0  0  0  0  0
  -37.7971  -45.9681   19.1736 C   0  0  0  0  0  0  0  0  0  0  0  0
  -38.5889  -46.0877   23.3518 C   0  0  0  0  0  0  0  0  0  0  0  0
  -39.4925  -45.0965   23.9334 C   0  0  0  0  0  0  0  0  0  0  0  0
  -39.2458  -43.8813   21.9452 C   0  0  1  0  0  0  0  0  0  0  0  0
  -36.9793  -44.0175   22.7074 F   0  0  0  0  0  0  0  0  0  0  0  0
  -37.5308  -42.4768   21.2245 F   0  0  0  0  0  0  0  0  0  0  0  0
  -38.1608  -42.2860   23.4065 F   0  0  0  0  0  0  0  0  0  0  0  0
  -37.4299  -47.0286   19.9192 F   0  0  0  0  0  0  0  0  0  0  0  0
  -38.9207  -42.6931   16.9091 N   0  0  0  0  0  0  0  0  0  0  0  0
  -40.1826  -40.4843   15.4641 N   0  0  0  0  0  0  0  0  0  0  0  0
  -38.1884  -45.9728   21.9552 N   0  0  0  0  0  0  0  0  0  0  0  0
  -38.1352  -47.0511   24.0351 N   0  0  0  0  0  0  0  0  0  0  0  0
  -38.0672  -43.2307   14.8549 O   0  0  0  0  0  0  0  0  0  0  0  0
  -39.9998  -44.1848   23.0696 O   0  0  0  0  0  0  0  0  0  0  0  0
  -40.3806  -37.0943   13.3384 Cl  0  0  0  0  0  0  0  0  0  0  0  0
  -36.9031  -41.2766   13.4592 Cl  0  0  0  0  0  0  0  0  0  0  0  0
  -37.9672  -48.0161   23.7099 H   0  0  0  0  0  0  0  0  0  0  0  0
  7  1  1  6
 18  2  1  0
  2 19  1  1
  2 20  1  0
  2 21  1  0
  3  4  2  0
  7  3  1  0
  3 15  1  0
  4  5  1  0
  5 13  2  0
  5 23  1  0
  6  8  1  0
 23  6  1  0
  6 27  2  0
  7 18  1  0
 25  7  1  0
  8 12  1  0
  8 24  2  0
  9 10  2  0
 24  9  1  0
 11 10  1  0
 10 29  1  0
 12 11  2  0
 12 30  1  0
 14 13  1  0
 15 14  2  0
 15 22  1  0
 16 17  1  0
 16 25  1  0
 16 26  2  0
 17 28  1  0
 18 28  1  1
 26 31  1  0
M  END
$$$$
