
     RDKit          3D

 31 33  0  0  0  0  0  0  0  0999 V2000
  -39.9253  -46.6934   21.1818 C   0  0  0  0  0  0  0  0  0  0  0  0
  -38.6349  -43.1453   21.5890 C   0  0  1  0  0  0  0  0  0  0  0  0
  -38.9121  -45.4504   19.3684 C   0  0  0  0  0  0  0  0  0  0  0  0
  -37.7776  -45.7189   18.6579 C   0  0  0  0  0  0  0  0  0  0  0  0
  -37.6924  -45.6411   17.2504 C   0  0  0  0  0  0  0  0  0  0  0  0
  -35.5015  -45.0494   16.1623 C   0  0  0  0  0  0  0  0  0  0  0  0
  -38.9827  -45.5257   20.8015 C   0  0  1  0  0  0  0  0  0  0  0  0
  -34.0687  -45.4275   16.3183 C   0  0  0  0  0  0  0  0  0  0  0  0
  -32.3920  -46.8188   17.1980 C   0  0  0  0  0  0  0  0  0  0  0  0
  -31.3796  -46.1084   16.5899 C   0  0  0  0  0  0  0  0  0  0  0  0
  -31.7457  -45.0162   15.8185 C   0  0  0  0  0  0  0  0  0  0  0  0
  -33.0768  -44.6998   15.6992 C   0  0  0  0  0  0  0  0  0  0  0  0
  -38.7902  -45.2803   16.5441 C   0  0  0  0  0  0  0  0  0  0  0  0
  -39.9675  -44.9983   17.2350 C   0  0  0  0  0  0  0  0  0  0  0  0
  -40.0069  -45.0840   18.5709 C   0  0  0  0  0  0  0  0  0  0  0  0
  -37.7607  -45.8972   22.8642 C   0  0  0  0  0  0  0  0  0  0  0  0
  -38.8517  -45.2460   23.5872 C   0  0  0  0  0  0  0  0  0  0  0  0
  -39.5147  -44.3411   21.5300 C   0  0  1  0  0  0  0  0  0  0  0  0
  -38.5150  -42.5194   20.3389 F   0  0  0  0  0  0  0  0  0  0  0  0
  -39.2808  -42.1845   22.3831 F   0  0  0  0  0  0  0  0  0  0  0  0
  -37.3596  -43.3576   22.0258 F   0  0  0  0  0  0  0  0  0  0  0  0
  -41.1574  -44.8131   19.2179 F   0  0  0  0  0  0  0  0  0  0  0  0
  -36.4692  -45.9396   16.6041 N   0  0  0  0  0  0  0  0  0  0  0  0
  -33.6978  -46.4789   17.0593 N   0  0  0  0  0  0  0  0  0  0  0  0
  -37.7261  -45.8507   21.4079 N   0  0  0  0  0  0  0  0  0  0  0  0
  -36.8320  -46.5033   23.4733 N   0  0  0  0  0  0  0  0  0  0  0  0
  -35.8035  -43.9683   15.6511 O   0  0  0  0  0  0  0  0  0  0  0  0
  -39.8433  -44.7345   22.8192 O   0  0  0  0  0  0  0  0  0  0  0  0
  -29.7018  -46.5721   16.7879 Cl  0  0  0  0  0  0  0  0  0  0  0  0
  -33.5506  -43.3245   14.7290 Cl  0  0  0  0  0  0  0  0  0  0  0  0
  -36.7183  -47.5244   23.5707 H   0  0  0  0  0  0  0  0  0  0  0  0
  7  1  1  6
 18  2  1  0
  2 19  1  6
  2 20  1  0
  2 21  1  0
  3  4  2  0
  7  3  1  0
  3 15  1  0
  4  5  1  0
  5 13  2  0
  5 23  1  0
  6  8  1  0
 23  6  1  0
  6 27  2  0
  7 18  1  0
 25  7  1  0
  8 12  1  0
  8 24  2  0
  9 10  2  0
 24  9  1  0
 11 10  1  0
 10 29  1  0
 12 11  2  0
 12 30  1  0
 14 13  1  0
 15 14  2  0
 15 22  1  0
 16 17  1  0
 16 25  1  0
 16 26  2  0
 17 28  1  0
 18 28  1  1
 26 31  1  0
M  END
$$$$
