
     RDKit          3D

 31 33  0  0  0  0  0  0  0  0999 V2000
  -40.4412  -46.7754   21.1135 C   0  0  0  0  0  0  0  0  0  0  0  0
  -39.2428  -43.2961   22.0506 C   0  0  1  0  0  0  0  0  0  0  0  0
  -39.0080  -45.4518   19.6802 C   0  0  0  0  0  0  0  0  0  0  0  0
  -37.7007  -45.3619   19.2969 C   0  0  0  0  0  0  0  0  0  0  0  0
  -37.2817  -45.1955   17.9586 C   0  0  0  0  0  0  0  0  0  0  0  0
  -35.2837  -45.2857   16.4307 C   0  0  0  0  0  0  0  0  0  0  0  0
  -39.4208  -45.6131   21.0469 C   0  0  1  0  0  0  0  0  0  0  0  0
  -33.8123  -45.5185   16.4036 C   0  0  0  0  0  0  0  0  0  0  0  0
  -31.9538  -46.8901   15.9728 C   0  0  0  0  0  0  0  0  0  0  0  0
  -31.0547  -45.9220   16.3648 C   0  0  0  0  0  0  0  0  0  0  0  0
  -31.5739  -44.7091   16.7905 C   0  0  0  0  0  0  0  0  0  0  0  0
  -32.9359  -44.5332   16.8011 C   0  0  0  0  0  0  0  0  0  0  0  0
  -38.2164  -45.1180   16.9815 C   0  0  0  0  0  0  0  0  0  0  0  0
  -39.5620  -45.2059   17.3345 C   0  0  0  0  0  0  0  0  0  0  0  0
  -39.9181  -45.3638   18.6159 C   0  0  0  0  0  0  0  0  0  0  0  0
  -38.7332  -46.1442   23.3121 C   0  0  0  0  0  0  0  0  0  0  0  0
  -39.9576  -45.5087   23.7959 C   0  0  0  0  0  0  0  0  0  0  0  0
  -40.0974  -44.4611   21.7045 C   0  0  1  0  0  0  0  0  0  0  0  0
  -38.1984  -43.6502   22.9181 F   0  0  0  0  0  0  0  0  0  0  0  0
  -38.5821  -42.8941   20.8789 F   0  0  0  0  0  0  0  0  0  0  0  0
  -39.8755  -42.2390   22.6375 F   0  0  0  0  0  0  0  0  0  0  0  0
  -41.2245  -45.4527   18.9337 F   0  0  0  0  0  0  0  0  0  0  0  0
  -35.9005  -45.1129   17.6611 N   0  0  0  0  0  0  0  0  0  0  0  0
  -33.2942  -46.6834   15.9955 N   0  0  0  0  0  0  0  0  0  0  0  0
  -38.3501  -46.0093   21.9124 N   0  0  0  0  0  0  0  0  0  0  0  0
  -37.9850  -46.8121   24.0835 N   0  0  0  0  0  0  0  0  0  0  0  0
  -35.9236  -45.2503   15.3768 O   0  0  0  0  0  0  0  0  0  0  0  0
  -40.7301  -44.9237   22.8493 O   0  0  0  0  0  0  0  0  0  0  0  0
  -29.3286  -46.2188   16.3243 Cl  0  0  0  0  0  0  0  0  0  0  0  0
  -33.6023  -43.0077   17.3360 Cl  0  0  0  0  0  0  0  0  0  0  0  0
  -37.0730  -47.2346   23.8491 H   0  0  0  0  0  0  0  0  0  0  0  0
  7  1  1  6
 18  2  1  0
  2 19  1  1
  2 20  1  0
  2 21  1  0
  3  4  2  0
  7  3  1  0
  3 15  1  0
  4  5  1  0
  5 13  2  0
  5 23  1  0
  6  8  1  0
 23  6  1  0
  6 27  2  0
  7 18  1  0
 25  7  1  0
  8 12  1  0
  8 24  2  0
  9 10  2  0
 24  9  1  0
 11 10  1  0
 10 29  1  0
 12 11  2  0
 12 30  1  0
 14 13  1  0
 15 14  2  0
 15 22  1  0
 16 17  1  0
 16 25  1  0
 16 26  2  0
 17 28  1  0
 18 28  1  1
 26 31  1  0
M  END
$$$$
