
     RDKit          3D

 31 33  0  0  0  0  0  0  0  0999 V2000
  -39.9867  -46.9680   21.0762 C   0  0  0  0  0  0  0  0  0  0  0  0
  -39.2004  -43.3777   22.0308 C   0  0  1  0  0  0  0  0  0  0  0  0
  -38.9745  -45.3943   19.5402 C   0  0  0  0  0  0  0  0  0  0  0  0
  -37.7562  -45.1128   18.9920 C   0  0  0  0  0  0  0  0  0  0  0  0
  -37.5529  -44.8412   17.6212 C   0  0  0  0  0  0  0  0  0  0  0  0
  -35.5111  -45.2728   16.2143 C   0  0  0  0  0  0  0  0  0  0  0  0
  -39.1685  -45.6610   20.9386 C   0  0  1  0  0  0  0  0  0  0  0  0
  -34.0758  -45.5457   16.5065 C   0  0  0  0  0  0  0  0  0  0  0  0
  -32.3984  -46.6684   17.7094 C   0  0  0  0  0  0  0  0  0  0  0  0
  -31.3818  -46.0337   17.0289 C   0  0  0  0  0  0  0  0  0  0  0  0
  -31.7462  -45.1211   16.0509 C   0  0  0  0  0  0  0  0  0  0  0  0
  -33.0797  -44.8971   15.8111 C   0  0  0  0  0  0  0  0  0  0  0  0
  -38.6166  -44.8557   16.7829 C   0  0  0  0  0  0  0  0  0  0  0  0
  -39.8769  -45.1394   17.3063 C   0  0  0  0  0  0  0  0  0  0  0  0
  -40.0275  -45.3918   18.6129 C   0  0  0  0  0  0  0  0  0  0  0  0
  -38.1072  -46.1526   23.0642 C   0  0  0  0  0  0  0  0  0  0  0  0
  -39.3347  -45.7289   23.7357 C   0  0  0  0  0  0  0  0  0  0  0  0
  -39.9121  -44.6486   21.7382 C   0  0  1  0  0  0  0  0  0  0  0  0
  -40.0303  -42.4475   22.6749 F   0  0  0  0  0  0  0  0  0  0  0  0
  -38.2098  -43.6585   22.9852 F   0  0  0  0  0  0  0  0  0  0  0  0
  -38.6683  -42.7250   20.9571 F   0  0  0  0  0  0  0  0  0  0  0  0
  -41.2542  -45.6699   19.0962 F   0  0  0  0  0  0  0  0  0  0  0  0
  -36.2491  -44.5599   17.1477 N   0  0  0  0  0  0  0  0  0  0  0  0
  -33.7065  -46.4236   17.4473 N   0  0  0  0  0  0  0  0  0  0  0  0
  -37.9430  -45.9154   21.6356 N   0  0  0  0  0  0  0  0  0  0  0  0
  -37.1701  -46.7219   23.6957 N   0  0  0  0  0  0  0  0  0  0  0  0
  -36.0161  -45.6774   15.1642 O   0  0  0  0  0  0  0  0  0  0  0  0
  -40.3071  -45.2396   22.9296 O   0  0  0  0  0  0  0  0  0  0  0  0
  -29.7010  -46.3710   17.3901 Cl  0  0  0  0  0  0  0  0  0  0  0  0
  -33.5513  -43.7484   14.5800 Cl  0  0  0  0  0  0  0  0  0  0  0  0
  -36.8329  -47.6885   23.5651 H   0  0  0  0  0  0  0  0  0  0  0  0
  7  1  1  6
 18  2  1  0
  2 19  1  1
  2 20  1  0
  2 21  1  0
  3  4  2  0
  7  3  1  0
  3 15  1  0
  4  5  1  0
  5 13  2  0
  5 23  1  0
  6  8  1  0
 23  6  1  0
  6 27  2  0
  7 18  1  0
 25  7  1  0
  8 12  1  0
  8 24  2  0
  9 10  2  0
 24  9  1  0
 11 10  1  0
 10 29  1  0
 12 11  2  0
 12 30  1  0
 14 13  1  0
 15 14  2  0
 15 22  1  0
 16 17  1  0
 16 25  1  0
 16 26  2  0
 17 28  1  0
 18 28  1  1
 26 31  1  0
M  END
$$$$
