
     RDKit          3D

 31 33  0  0  0  0  0  0  0  0999 V2000
  -40.0173  -46.8914   21.1125 C   0  0  0  0  0  0  0  0  0  0  0  0
  -38.7909  -43.4344   22.0946 C   0  0  1  0  0  0  0  0  0  0  0  0
  -38.8201  -45.4424   19.5870 C   0  0  0  0  0  0  0  0  0  0  0  0
  -37.5908  -45.1641   19.0622 C   0  0  0  0  0  0  0  0  0  0  0  0
  -37.3585  -44.9065   17.6932 C   0  0  0  0  0  0  0  0  0  0  0  0
  -35.3529  -45.2373   16.2092 C   0  0  0  0  0  0  0  0  0  0  0  0
  -39.0437  -45.6948   20.9836 C   0  0  1  0  0  0  0  0  0  0  0  0
  -33.9063  -45.5359   16.4050 C   0  0  0  0  0  0  0  0  0  0  0  0
  -32.1786  -46.7822   17.3964 C   0  0  0  0  0  0  0  0  0  0  0  0
  -31.1924  -46.0693   16.7495 C   0  0  0  0  0  0  0  0  0  0  0  0
  -31.5986  -45.0521   15.8997 C   0  0  0  0  0  0  0  0  0  0  0  0
  -32.9412  -44.8075   15.7458 C   0  0  0  0  0  0  0  0  0  0  0  0
  -38.4039  -44.9321   16.8325 C   0  0  0  0  0  0  0  0  0  0  0  0
  -39.6747  -45.2129   17.3316 C   0  0  0  0  0  0  0  0  0  0  0  0
  -39.8530  -45.4519   18.6373 C   0  0  0  0  0  0  0  0  0  0  0  0
  -38.0484  -46.3320   23.1025 C   0  0  0  0  0  0  0  0  0  0  0  0
  -39.2130  -45.7651   23.7804 C   0  0  0  0  0  0  0  0  0  0  0  0
  -39.6550  -44.6048   21.7932 C   0  0  1  0  0  0  0  0  0  0  0  0
  -38.4181  -42.7437   20.9315 F   0  0  0  0  0  0  0  0  0  0  0  0
  -39.5707  -42.5041   22.8000 F   0  0  0  0  0  0  0  0  0  0  0  0
  -37.6303  -43.6991   22.7617 F   0  0  0  0  0  0  0  0  0  0  0  0
  -41.0892  -45.7274   19.0970 F   0  0  0  0  0  0  0  0  0  0  0  0
  -36.0454  -44.6276   17.2449 N   0  0  0  0  0  0  0  0  0  0  0  0
  -33.4968  -46.5145   17.2217 N   0  0  0  0  0  0  0  0  0  0  0  0
  -37.8581  -46.1049   21.6755 N   0  0  0  0  0  0  0  0  0  0  0  0
  -37.1882  -47.0182   23.7270 N   0  0  0  0  0  0  0  0  0  0  0  0
  -35.9066  -45.5310   15.1468 O   0  0  0  0  0  0  0  0  0  0  0  0
  -40.1185  -45.1523   22.9808 O   0  0  0  0  0  0  0  0  0  0  0  0
  -29.4976  -46.4389   16.9956 Cl  0  0  0  0  0  0  0  0  0  0  0  0
  -33.4655  -43.5271   14.6767 Cl  0  0  0  0  0  0  0  0  0  0  0  0
  -37.0287  -47.0327   24.7465 H   0  0  0  0  0  0  0  0  0  0  0  0
  7  1  1  6
 18  2  1  0
  2 19  1  6
  2 20  1  0
  2 21  1  0
  3  4  2  0
  7  3  1  0
  3 15  1  0
  4  5  1  0
  5 13  2  0
  5 23  1  0
  6  8  1  0
 23  6  1  0
  6 27  2  0
  7 18  1  0
 25  7  1  0
  8 12  1  0
  8 24  2  0
  9 10  2  0
 24  9  1  0
 11 10  1  0
 10 29  1  0
 12 11  2  0
 12 30  1  0
 14 13  1  0
 15 14  2  0
 15 22  1  0
 16 17  1  0
 16 25  1  0
 16 26  2  0
 17 28  1  0
 18 28  1  1
 26 31  1  0
M  END
$$$$
