
     RDKit          3D

 31 33  0  0  0  0  0  0  0  0999 V2000
  -39.1906  -43.7244   21.7444 C   0  0  0  0  0  0  0  0  0  0  0  0
  -37.3323  -45.1900   18.7748 C   0  0  1  0  0  0  0  0  0  0  0  0
  -40.2264  -45.2423   20.1686 C   0  0  0  0  0  0  0  0  0  0  0  0
  -41.0813  -46.0634   20.8461 C   0  0  0  0  0  0  0  0  0  0  0  0
  -42.3333  -46.4832   20.3453 C   0  0  0  0  0  0  0  0  0  0  0  0
  -44.3813  -47.0479   21.6947 C   0  0  0  0  0  0  0  0  0  0  0  0
  -38.9515  -44.8293   20.6868 C   0  0  1  0  0  0  0  0  0  0  0  0
  -44.8976  -47.9537   22.7592 C   0  0  0  0  0  0  0  0  0  0  0  0
  -44.8042  -49.9617   23.9759 C   0  0  0  0  0  0  0  0  0  0  0  0
  -45.8879  -49.6249   24.7579 C   0  0  0  0  0  0  0  0  0  0  0  0
  -46.4880  -48.3988   24.5164 C   0  0  0  0  0  0  0  0  0  0  0  0
  -45.9826  -47.5921   23.5264 C   0  0  0  0  0  0  0  0  0  0  0  0
  -42.7285  -46.0574   19.1218 C   0  0  0  0  0  0  0  0  0  0  0  0
  -41.8820  -45.2176   18.4000 C   0  0  0  0  0  0  0  0  0  0  0  0
  -40.7023  -44.8422   18.9107 C   0  0  0  0  0  0  0  0  0  0  0  0
  -36.9543  -45.4926   21.8939 C   0  0  0  0  0  0  0  0  0  0  0  0
  -36.2732  -44.3236   21.3400 C   0  0  0  0  0  0  0  0  0  0  0  0
  -37.9722  -44.2471   19.7281 C   0  0  1  0  0  0  0  0  0  0  0  0
  -38.2769  -45.9887   18.1125 F   0  0  0  0  0  0  0  0  0  0  0  0
  -36.7600  -44.4263   17.7452 F   0  0  0  0  0  0  0  0  0  0  0  0
  -36.4174  -46.0528   19.3046 F   0  0  0  0  0  0  0  0  0  0  0  0
  -39.9025  -44.0248   18.1982 F   0  0  0  0  0  0  0  0  0  0  0  0
  -43.1501  -47.3366   21.1247 N   0  0  0  0  0  0  0  0  0  0  0  0
  -44.3302  -49.1409   23.0056 N   0  0  0  0  0  0  0  0  0  0  0  0
  -38.2674  -45.8737   21.3894 N   0  0  0  0  0  0  0  0  0  0  0  0
  -36.4287  -46.1941   22.8062 N   0  0  0  0  0  0  0  0  0  0  0  0
  -45.0438  -46.0698   21.3402 O   0  0  0  0  0  0  0  0  0  0  0  0
  -36.9897  -43.5902   20.4548 O   0  0  0  0  0  0  0  0  0  0  0  0
  -46.4772  -50.7065   26.0039 Cl  0  0  0  0  0  0  0  0  0  0  0  0
  -46.7313  -46.0434   23.2127 Cl  0  0  0  0  0  0  0  0  0  0  0  0
  -36.6311  -46.1484   23.8172 H   0  0  0  0  0  0  0  0  0  0  0  0
  7  1  1  1
 18  2  1  0
  2 19  1  6
  2 20  1  0
  2 21  1  0
  3  4  2  0
  7  3  1  0
  3 15  1  0
  4  5  1  0
  5 13  2  0
  5 23  1  0
  6  8  1  0
 23  6  1  0
  6 27  2  0
  7 18  1  0
 25  7  1  0
  8 12  1  0
  8 24  2  0
  9 10  2  0
 24  9  1  0
 11 10  1  0
 10 29  1  0
 12 11  2  0
 12 30  1  0
 14 13  1  0
 15 14  2  0
 15 22  1  0
 16 17  1  0
 16 25  1  0
 16 26  2  0
 17 28  1  0
 18 28  1  1
 26 31  1  0
M  END
$$$$
