
     RDKit          3D

 31 33  0  0  0  0  0  0  0  0999 V2000
  -40.1662  -46.6514   21.2682 C   0  0  0  0  0  0  0  0  0  0  0  0
  -38.6577  -43.2314   21.9376 C   0  0  1  0  0  0  0  0  0  0  0  0
  -39.0336  -45.3609   19.5617 C   0  0  0  0  0  0  0  0  0  0  0  0
  -37.8399  -45.2761   18.9045 C   0  0  0  0  0  0  0  0  0  0  0  0
  -37.7199  -45.1059   17.5077 C   0  0  0  0  0  0  0  0  0  0  0  0
  -35.4065  -45.9560   16.9978 C   0  0  0  0  0  0  0  0  0  0  0  0
  -39.1414  -45.5261   20.9849 C   0  0  1  0  0  0  0  0  0  0  0  0
  -34.0054  -45.4719   16.8476 C   0  0  0  0  0  0  0  0  0  0  0  0
  -32.4483  -43.7365   16.5567 C   0  0  0  0  0  0  0  0  0  0  0  0
  -31.3732  -44.5987   16.5692 C   0  0  0  0  0  0  0  0  0  0  0  0
  -31.6446  -45.9489   16.7283 C   0  0  0  0  0  0  0  0  0  0  0  0
  -32.9493  -46.3557   16.8636 C   0  0  0  0  0  0  0  0  0  0  0  0
  -38.8436  -45.0191   16.7567 C   0  0  0  0  0  0  0  0  0  0  0  0
  -40.0813  -45.1015   17.3926 C   0  0  0  0  0  0  0  0  0  0  0  0
  -40.1521  -45.2633   18.7202 C   0  0  0  0  0  0  0  0  0  0  0  0
  -37.9931  -46.1136   23.0397 C   0  0  0  0  0  0  0  0  0  0  0  0
  -39.0556  -45.4408   23.7850 C   0  0  0  0  0  0  0  0  0  0  0  0
  -39.6117  -44.3597   21.7819 C   0  0  1  0  0  0  0  0  0  0  0  0
  -38.1780  -42.7748   20.7006 F   0  0  0  0  0  0  0  0  0  0  0  0
  -39.3772  -42.1363   22.4417 F   0  0  0  0  0  0  0  0  0  0  0  0
  -37.5531  -43.4782   22.7000 F   0  0  0  0  0  0  0  0  0  0  0  0
  -41.3591  -45.3468   19.3133 F   0  0  0  0  0  0  0  0  0  0  0  0
  -36.4355  -45.0292   16.9182 N   0  0  0  0  0  0  0  0  0  0  0  0
  -33.7256  -44.1719   16.6930 N   0  0  0  0  0  0  0  0  0  0  0  0
  -37.9226  -45.9731   21.5907 N   0  0  0  0  0  0  0  0  0  0  0  0
  -37.1198  -46.8189   23.6233 N   0  0  0  0  0  0  0  0  0  0  0  0
  -35.6297  -47.1542   17.1877 O   0  0  0  0  0  0  0  0  0  0  0  0
  -39.9943  -44.8149   23.0354 O   0  0  0  0  0  0  0  0  0  0  0  0
  -29.7342  -44.0061   16.3907 Cl  0  0  0  0  0  0  0  0  0  0  0  0
  -33.3039  -48.0560   17.0650 Cl  0  0  0  0  0  0  0  0  0  0  0  0
  -37.2184  -47.8000   23.9282 H   0  0  0  0  0  0  0  0  0  0  0  0
  7  1  1  6
 18  2  1  0
  2 19  1  6
  2 20  1  0
  2 21  1  0
  3  4  2  0
  7  3  1  0
  3 15  1  0
  4  5  1  0
  5 13  2  0
  5 23  1  0
  6  8  1  0
 23  6  1  0
  6 27  2  0
  7 18  1  0
 25  7  1  0
  8 12  1  0
  8 24  2  0
  9 10  2  0
 24  9  1  0
 11 10  1  0
 10 29  1  0
 12 11  2  0
 12 30  1  0
 14 13  1  0
 15 14  2  0
 15 22  1  0
 16 17  1  0
 16 25  1  0
 16 26  2  0
 17 28  1  0
 18 28  1  1
 26 31  1  0
M  END
$$$$
