
     RDKit          3D

 31 33  0  0  0  0  0  0  0  0999 V2000
  -40.4554  -46.6418   21.3191 C   0  0  0  0  0  0  0  0  0  0  0  0
  -38.7936  -43.3292   22.1469 C   0  0  1  0  0  0  0  0  0  0  0  0
  -38.9664  -45.5028   19.7876 C   0  0  0  0  0  0  0  0  0  0  0  0
  -37.7163  -45.7574   19.3012 C   0  0  0  0  0  0  0  0  0  0  0  0
  -37.3638  -45.6480   17.9381 C   0  0  0  0  0  0  0  0  0  0  0  0
  -35.4107  -45.5567   16.3533 C   0  0  0  0  0  0  0  0  0  0  0  0
  -39.3095  -45.6104   21.1786 C   0  0  1  0  0  0  0  0  0  0  0  0
  -33.9269  -45.4217   16.3549 C   0  0  0  0  0  0  0  0  0  0  0  0
  -31.9643  -44.2783   15.7532 C   0  0  0  0  0  0  0  0  0  0  0  0
  -31.1487  -45.1981   16.3761 C   0  0  0  0  0  0  0  0  0  0  0  0
  -31.7651  -46.2666   17.0090 C   0  0  0  0  0  0  0  0  0  0  0  0
  -33.1353  -46.3558   16.9853 C   0  0  0  0  0  0  0  0  0  0  0  0
  -38.3072  -45.2692   17.0432 C   0  0  0  0  0  0  0  0  0  0  0  0
  -39.5955  -45.0007   17.5024 C   0  0  0  0  0  0  0  0  0  0  0  0
  -39.8894  -45.1165   18.8039 C   0  0  0  0  0  0  0  0  0  0  0  0
  -38.5504  -46.2151   23.4022 C   0  0  0  0  0  0  0  0  0  0  0  0
  -39.6576  -45.4362   23.9542 C   0  0  0  0  0  0  0  0  0  0  0  0
  -39.8012  -44.3841   21.8655 C   0  0  1  0  0  0  0  0  0  0  0  0
  -38.1635  -42.8793   20.9767 F   0  0  0  0  0  0  0  0  0  0  0  0
  -39.4844  -42.1982   22.6103 F   0  0  0  0  0  0  0  0  0  0  0  0
  -37.7896  -43.6699   23.0060 F   0  0  0  0  0  0  0  0  0  0  0  0
  -41.1430  -44.8581   19.2249 F   0  0  0  0  0  0  0  0  0  0  0  0
  -36.0388  -45.9340   17.5311 N   0  0  0  0  0  0  0  0  0  0  0  0
  -33.3155  -44.3965   15.7488 N   0  0  0  0  0  0  0  0  0  0  0  0
  -38.2420  -46.1302   21.9802 N   0  0  0  0  0  0  0  0  0  0  0  0
  -37.8408  -46.9661   24.1324 N   0  0  0  0  0  0  0  0  0  0  0  0
  -36.0507  -45.3349   15.3224 O   0  0  0  0  0  0  0  0  0  0  0  0
  -40.4121  -44.7650   23.0515 O   0  0  0  0  0  0  0  0  0  0  0  0
  -29.4061  -45.0183   16.3647 Cl  0  0  0  0  0  0  0  0  0  0  0  0
  -33.9238  -47.6990   17.7800 Cl  0  0  0  0  0  0  0  0  0  0  0  0
  -38.0420  -47.9434   24.3961 H   0  0  0  0  0  0  0  0  0  0  0  0
  7  1  1  6
 18  2  1  0
  2 19  1  6
  2 20  1  0
  2 21  1  0
  3  4  2  0
  7  3  1  0
  3 15  1  0
  4  5  1  0
  5 13  2  0
  5 23  1  0
  6  8  1  0
 23  6  1  0
  6 27  2  0
  7 18  1  0
 25  7  1  0
  8 12  1  0
  8 24  2  0
  9 10  2  0
 24  9  1  0
 11 10  1  0
 10 29  1  0
 12 11  2  0
 12 30  1  0
 14 13  1  0
 15 14  2  0
 15 22  1  0
 16 17  1  0
 16 25  1  0
 16 26  2  0
 17 28  1  0
 18 28  1  1
 26 31  1  0
M  END
$$$$
