
     RDKit          3D

 31 33  0  0  0  0  0  0  0  0999 V2000
  -39.9952  -46.8852   21.3876 C   0  0  0  0  0  0  0  0  0  0  0  0
  -38.5389  -43.4235   21.9490 C   0  0  1  0  0  0  0  0  0  0  0  0
  -38.7339  -45.7026   19.6933 C   0  0  0  0  0  0  0  0  0  0  0  0
  -37.5354  -45.9813   19.1018 C   0  0  0  0  0  0  0  0  0  0  0  0
  -37.3069  -45.9050   17.7103 C   0  0  0  0  0  0  0  0  0  0  0  0
  -35.1782  -45.3863   16.4717 C   0  0  0  0  0  0  0  0  0  0  0  0
  -38.9506  -45.7765   21.1117 C   0  0  1  0  0  0  0  0  0  0  0  0
  -33.7082  -45.5783   16.6211 C   0  0  0  0  0  0  0  0  0  0  0  0
  -31.8620  -46.8101   17.3926 C   0  0  0  0  0  0  0  0  0  0  0  0
  -30.9530  -45.9080   16.8835 C   0  0  0  0  0  0  0  0  0  0  0  0
  -31.4607  -44.8020   16.2194 C   0  0  0  0  0  0  0  0  0  0  0  0
  -32.8218  -44.6607   16.1025 C   0  0  0  0  0  0  0  0  0  0  0  0
  -38.3240  -45.5352   16.8960 C   0  0  0  0  0  0  0  0  0  0  0  0
  -39.5630  -45.2428   17.4637 C   0  0  0  0  0  0  0  0  0  0  0  0
  -39.7388  -45.3274   18.7886 C   0  0  0  0  0  0  0  0  0  0  0  0
  -37.9636  -46.2263   23.2819 C   0  0  0  0  0  0  0  0  0  0  0  0
  -39.0794  -45.5111   23.8989 C   0  0  0  0  0  0  0  0  0  0  0  0
  -39.4793  -44.5631   21.7937 C   0  0  1  0  0  0  0  0  0  0  0  0
  -38.0343  -42.9871   20.7146 F   0  0  0  0  0  0  0  0  0  0  0  0
  -39.2793  -42.3252   22.4143 F   0  0  0  0  0  0  0  0  0  0  0  0
  -37.4504  -43.6453   22.7416 F   0  0  0  0  0  0  0  0  0  0  0  0
  -40.9467  -45.0463   19.3154 F   0  0  0  0  0  0  0  0  0  0  0  0
  -36.0268  -46.2143   17.1916 N   0  0  0  0  0  0  0  0  0  0  0  0
  -33.2011  -46.6402   17.2594 N   0  0  0  0  0  0  0  0  0  0  0  0
  -37.7822  -46.1789   21.8365 N   0  0  0  0  0  0  0  0  0  0  0  0
  -37.1383  -46.8893   23.9748 N   0  0  0  0  0  0  0  0  0  0  0  0
  -35.6142  -44.5087   15.7225 O   0  0  0  0  0  0  0  0  0  0  0  0
  -39.9573  -44.9384   23.0409 O   0  0  0  0  0  0  0  0  0  0  0  0
  -29.2288  -46.1550   17.0716 Cl  0  0  0  0  0  0  0  0  0  0  0  0
  -33.4737  -43.2700   15.2669 Cl  0  0  0  0  0  0  0  0  0  0  0  0
  -36.4510  -47.5772   23.6291 H   0  0  0  0  0  0  0  0  0  0  0  0
  7  1  1  6
 18  2  1  0
  2 19  1  6
  2 20  1  0
  2 21  1  0
  3  4  2  0
  7  3  1  0
  3 15  1  0
  4  5  1  0
  5 13  2  0
  5 23  1  0
  6  8  1  0
 23  6  1  0
  6 27  2  0
  7 18  1  0
 25  7  1  0
  8 12  1  0
  8 24  2  0
  9 10  2  0
 24  9  1  0
 11 10  1  0
 10 29  1  0
 12 11  2  0
 12 30  1  0
 14 13  1  0
 15 14  2  0
 15 22  1  0
 16 17  1  0
 16 25  1  0
 16 26  2  0
 17 28  1  0
 18 28  1  1
 26 31  1  0
M  END
$$$$
