
     RDKit          3D

 31 33  0  0  0  0  0  0  0  0999 V2000
  -40.3172  -46.8614   21.3511 C   0  0  0  0  0  0  0  0  0  0  0  0
  -39.0253  -43.4306   22.3415 C   0  0  1  0  0  0  0  0  0  0  0  0
  -39.0141  -45.4699   19.8591 C   0  0  0  0  0  0  0  0  0  0  0  0
  -37.7534  -45.2594   19.3791 C   0  0  0  0  0  0  0  0  0  0  0  0
  -37.4571  -45.0275   18.0179 C   0  0  0  0  0  0  0  0  0  0  0  0
  -35.4379  -45.4239   16.5688 C   0  0  0  0  0  0  0  0  0  0  0  0
  -39.3024  -45.6968   21.2482 C   0  0  1  0  0  0  0  0  0  0  0  0
  -34.0037  -45.7777   16.7639 C   0  0  0  0  0  0  0  0  0  0  0  0
  -32.3248  -47.0927   17.7502 C   0  0  0  0  0  0  0  0  0  0  0  0
  -31.3120  -46.4143   17.1072 C   0  0  0  0  0  0  0  0  0  0  0  0
  -31.6791  -45.3785   16.2621 C   0  0  0  0  0  0  0  0  0  0  0  0
  -33.0115  -45.0829   16.1087 C   0  0  0  0  0  0  0  0  0  0  0  0
  -38.4695  -45.0087   17.1184 C   0  0  0  0  0  0  0  0  0  0  0  0
  -39.7708  -45.2198   17.5712 C   0  0  0  0  0  0  0  0  0  0  0  0
  -40.0097  -45.4365   18.8710 C   0  0  0  0  0  0  0  0  0  0  0  0
  -38.4150  -46.3359   23.4140 C   0  0  0  0  0  0  0  0  0  0  0  0
  -39.5882  -45.7248   24.0363 C   0  0  0  0  0  0  0  0  0  0  0  0
  -39.9122  -44.5780   22.0187 C   0  0  1  0  0  0  0  0  0  0  0  0
  -38.8680  -42.5649   21.2485 F   0  0  0  0  0  0  0  0  0  0  0  0
  -39.6846  -42.6434   23.2989 F   0  0  0  0  0  0  0  0  0  0  0  0
  -37.7635  -43.7435   22.7565 F   0  0  0  0  0  0  0  0  0  0  0  0
  -41.2747  -45.6446   19.2857 F   0  0  0  0  0  0  0  0  0  0  0  0
  -36.1156  -44.8198   17.6175 N   0  0  0  0  0  0  0  0  0  0  0  0
  -33.6318  -46.7748   17.5761 N   0  0  0  0  0  0  0  0  0  0  0  0
  -38.1594  -46.1337   21.9934 N   0  0  0  0  0  0  0  0  0  0  0  0
  -37.6028  -47.0397   24.0816 N   0  0  0  0  0  0  0  0  0  0  0  0
  -35.9946  -45.6686   15.4956 O   0  0  0  0  0  0  0  0  0  0  0  0
  -40.4407  -45.0953   23.1926 O   0  0  0  0  0  0  0  0  0  0  0  0
  -29.6325  -46.8485   17.3524 Cl  0  0  0  0  0  0  0  0  0  0  0  0
  -33.4865  -43.7785   15.0455 Cl  0  0  0  0  0  0  0  0  0  0  0  0
  -36.6812  -47.3847   23.7707 H   0  0  0  0  0  0  0  0  0  0  0  0
  7  1  1  6
 18  2  1  0
  2 19  1  6
  2 20  1  0
  2 21  1  0
  3  4  2  0
  7  3  1  0
  3 15  1  0
  4  5  1  0
  5 13  2  0
  5 23  1  0
  6  8  1  0
 23  6  1  0
  6 27  2  0
  7 18  1  0
 25  7  1  0
  8 12  1  0
  8 24  2  0
  9 10  2  0
 24  9  1  0
 11 10  1  0
 10 29  1  0
 12 11  2  0
 12 30  1  0
 14 13  1  0
 15 14  2  0
 15 22  1  0
 16 17  1  0
 16 25  1  0
 16 26  2  0
 17 28  1  0
 18 28  1  1
 26 31  1  0
M  END
$$$$
