
     RDKit          3D

 31 33  0  0  0  0  0  0  0  0999 V2000
  -39.9216  -46.6719   21.1190 C   0  0  0  0  0  0  0  0  0  0  0  0
  -39.1433  -43.1150   22.1974 C   0  0  1  0  0  0  0  0  0  0  0  0
  -38.8057  -45.0790   19.6775 C   0  0  0  0  0  0  0  0  0  0  0  0
  -37.5518  -44.8284   19.1990 C   0  0  0  0  0  0  0  0  0  0  0  0
  -37.2692  -44.5298   17.8480 C   0  0  0  0  0  0  0  0  0  0  0  0
  -35.2447  -44.8557   16.3888 C   0  0  0  0  0  0  0  0  0  0  0  0
  -39.0803  -45.3738   21.0567 C   0  0  1  0  0  0  0  0  0  0  0  0
  -33.8249  -45.2546   16.6013 C   0  0  0  0  0  0  0  0  0  0  0  0
  -32.1792  -46.4626   17.7646 C   0  0  0  0  0  0  0  0  0  0  0  0
  -31.1596  -45.9807   16.9725 C   0  0  0  0  0  0  0  0  0  0  0  0
  -31.5057  -45.1009   15.9585 C   0  0  0  0  0  0  0  0  0  0  0  0
  -32.8254  -44.7576   15.7946 C   0  0  0  0  0  0  0  0  0  0  0  0
  -38.2885  -44.4842   16.9573 C   0  0  0  0  0  0  0  0  0  0  0  0
  -39.5832  -44.7347   17.4089 C   0  0  0  0  0  0  0  0  0  0  0  0
  -39.8092  -45.0145   18.6989 C   0  0  0  0  0  0  0  0  0  0  0  0
  -38.1447  -45.9272   23.2257 C   0  0  0  0  0  0  0  0  0  0  0  0
  -39.4020  -45.5012   23.8380 C   0  0  0  0  0  0  0  0  0  0  0  0
  -39.8540  -44.3690   21.8369 C   0  0  1  0  0  0  0  0  0  0  0  0
  -40.0342  -42.0866   22.5403 F   0  0  0  0  0  0  0  0  0  0  0  0
  -38.4378  -43.3563   23.3869 F   0  0  0  0  0  0  0  0  0  0  0  0
  -38.3196  -42.5943   21.2421 F   0  0  0  0  0  0  0  0  0  0  0  0
  -41.0680  -45.2598   19.1123 F   0  0  0  0  0  0  0  0  0  0  0  0
  -35.9338  -44.2845   17.4484 N   0  0  0  0  0  0  0  0  0  0  0  0
  -33.4732  -46.1028   17.5755 N   0  0  0  0  0  0  0  0  0  0  0  0
  -37.8986  -45.6609   21.8141 N   0  0  0  0  0  0  0  0  0  0  0  0
  -37.2515  -46.5234   23.8946 N   0  0  0  0  0  0  0  0  0  0  0  0
  -35.7799  -45.0356   15.2921 O   0  0  0  0  0  0  0  0  0  0  0  0
  -40.3219  -44.9805   22.9910 O   0  0  0  0  0  0  0  0  0  0  0  0
  -29.4973  -46.4641   17.2415 Cl  0  0  0  0  0  0  0  0  0  0  0  0
  -33.2739  -43.6489   14.5192 Cl  0  0  0  0  0  0  0  0  0  0  0  0
  -37.2597  -47.5098   24.1981 H   0  0  0  0  0  0  0  0  0  0  0  0
  7  1  1  6
 18  2  1  0
  2 19  1  1
  2 20  1  0
  2 21  1  0
  3  4  2  0
  7  3  1  0
  3 15  1  0
  4  5  1  0
  5 13  2  0
  5 23  1  0
  6  8  1  0
 23  6  1  0
  6 27  2  0
  7 18  1  0
 25  7  1  0
  8 12  1  0
  8 24  2  0
  9 10  2  0
 24  9  1  0
 11 10  1  0
 10 29  1  0
 12 11  2  0
 12 30  1  0
 14 13  1  0
 15 14  2  0
 15 22  1  0
 16 17  1  0
 16 25  1  0
 16 26  2  0
 17 28  1  0
 18 28  1  1
 26 31  1  0
M  END
$$$$
