
     RDKit          3D

 31 33  0  0  0  0  0  0  0  0999 V2000
  -40.0313  -46.7874   21.2366 C   0  0  0  0  0  0  0  0  0  0  0  0
  -38.5588  -43.3166   21.6898 C   0  0  1  0  0  0  0  0  0  0  0  0
  -38.8954  -45.6022   19.4574 C   0  0  0  0  0  0  0  0  0  0  0  0
  -37.7460  -45.9011   18.7840 C   0  0  0  0  0  0  0  0  0  0  0  0
  -37.6136  -45.8273   17.3799 C   0  0  0  0  0  0  0  0  0  0  0  0
  -35.4490  -45.2958   16.2110 C   0  0  0  0  0  0  0  0  0  0  0  0
  -39.0141  -45.6738   20.8875 C   0  0  1  0  0  0  0  0  0  0  0  0
  -34.0016  -45.5981   16.3947 C   0  0  0  0  0  0  0  0  0  0  0  0
  -32.2706  -46.8836   17.3286 C   0  0  0  0  0  0  0  0  0  0  0  0
  -31.2862  -46.1373   16.7176 C   0  0  0  0  0  0  0  0  0  0  0  0
  -31.6950  -45.0825   15.9162 C   0  0  0  0  0  0  0  0  0  0  0  0
  -33.0383  -44.8358   15.7720 C   0  0  0  0  0  0  0  0  0  0  0  0
  -38.6783  -45.4391   16.6384 C   0  0  0  0  0  0  0  0  0  0  0  0
  -39.8695  -45.1258   17.2909 C   0  0  0  0  0  0  0  0  0  0  0  0
  -39.9541  -45.2087   18.6249 C   0  0  0  0  0  0  0  0  0  0  0  0
  -37.8784  -46.1131   22.9860 C   0  0  0  0  0  0  0  0  0  0  0  0
  -38.9532  -45.4023   23.6764 C   0  0  0  0  0  0  0  0  0  0  0  0
  -39.5015  -44.4616   21.6016 C   0  0  1  0  0  0  0  0  0  0  0  0
  -38.4565  -42.6257   20.4729 F   0  0  0  0  0  0  0  0  0  0  0  0
  -39.1214  -42.3726   22.5636 F   0  0  0  0  0  0  0  0  0  0  0  0
  -37.2799  -43.6172   22.0589 F   0  0  0  0  0  0  0  0  0  0  0  0
  -41.1174  -44.9071   19.2343 F   0  0  0  0  0  0  0  0  0  0  0  0
  -36.3783  -46.1583   16.7735 N   0  0  0  0  0  0  0  0  0  0  0  0
  -33.5895  -46.6127   17.1647 N   0  0  0  0  0  0  0  0  0  0  0  0
  -37.7967  -46.0683   21.5315 N   0  0  0  0  0  0  0  0  0  0  0  0
  -37.0040  -46.7700   23.6221 N   0  0  0  0  0  0  0  0  0  0  0  0
  -35.7963  -44.2995   15.5721 O   0  0  0  0  0  0  0  0  0  0  0  0
  -39.8909  -44.8363   22.8794 O   0  0  0  0  0  0  0  0  0  0  0  0
  -29.5904  -46.5119   16.9485 Cl  0  0  0  0  0  0  0  0  0  0  0  0
  -33.5659  -43.5082   14.7639 Cl  0  0  0  0  0  0  0  0  0  0  0  0
  -36.8138  -47.7816   23.5479 H   0  0  0  0  0  0  0  0  0  0  0  0
  7  1  1  6
 18  2  1  0
  2 19  1  6
  2 20  1  0
  2 21  1  0
  3  4  2  0
  7  3  1  0
  3 15  1  0
  4  5  1  0
  5 13  2  0
  5 23  1  0
  6  8  1  0
 23  6  1  0
  6 27  2  0
  7 18  1  0
 25  7  1  0
  8 12  1  0
  8 24  2  0
  9 10  2  0
 24  9  1  0
 11 10  1  0
 10 29  1  0
 12 11  2  0
 12 30  1  0
 14 13  1  0
 15 14  2  0
 15 22  1  0
 16 17  1  0
 16 25  1  0
 16 26  2  0
 17 28  1  0
 18 28  1  1
 26 31  1  0
M  END
$$$$
