
     RDKit          3D

 31 33  0  0  0  0  0  0  0  0999 V2000
  -40.1226  -46.8657   21.4737 C   0  0  0  0  0  0  0  0  0  0  0  0
  -38.8066  -43.3408   21.9862 C   0  0  1  0  0  0  0  0  0  0  0  0
  -38.9974  -45.6196   19.7298 C   0  0  0  0  0  0  0  0  0  0  0  0
  -37.8276  -45.8871   19.0786 C   0  0  0  0  0  0  0  0  0  0  0  0
  -37.6667  -45.7964   17.6785 C   0  0  0  0  0  0  0  0  0  0  0  0
  -35.4770  -45.2051   16.5876 C   0  0  0  0  0  0  0  0  0  0  0  0
  -39.1451  -45.7080   21.1562 C   0  0  1  0  0  0  0  0  0  0  0  0
  -34.0315  -45.5157   16.7725 C   0  0  0  0  0  0  0  0  0  0  0  0
  -32.3102  -46.8489   17.6559 C   0  0  0  0  0  0  0  0  0  0  0  0
  -31.3195  -46.0693   17.0992 C   0  0  0  0  0  0  0  0  0  0  0  0
  -31.7200  -44.9724   16.3520 C   0  0  0  0  0  0  0  0  0  0  0  0
  -33.0618  -44.7194   16.2048 C   0  0  0  0  0  0  0  0  0  0  0  0
  -38.7234  -45.4236   16.9178 C   0  0  0  0  0  0  0  0  0  0  0  0
  -39.9348  -45.1423   17.5473 C   0  0  0  0  0  0  0  0  0  0  0  0
  -40.0462  -45.2403   18.8783 C   0  0  0  0  0  0  0  0  0  0  0  0
  -38.0396  -46.1174   23.2767 C   0  0  0  0  0  0  0  0  0  0  0  0
  -39.1584  -45.4576   23.9478 C   0  0  0  0  0  0  0  0  0  0  0  0
  -39.6985  -44.5231   21.8680 C   0  0  1  0  0  0  0  0  0  0  0  0
  -38.2766  -42.9567   20.7451 F   0  0  0  0  0  0  0  0  0  0  0  0
  -39.6025  -42.2471   22.3624 F   0  0  0  0  0  0  0  0  0  0  0  0
  -37.7384  -43.4743   22.8249 F   0  0  0  0  0  0  0  0  0  0  0  0
  -41.2285  -44.9698   19.4653 F   0  0  0  0  0  0  0  0  0  0  0  0
  -36.4119  -46.0949   17.0958 N   0  0  0  0  0  0  0  0  0  0  0  0
  -33.6274  -46.5707   17.4907 N   0  0  0  0  0  0  0  0  0  0  0  0
  -37.9271  -46.0570   21.8248 N   0  0  0  0  0  0  0  0  0  0  0  0
  -37.1532  -46.7428   23.9277 N   0  0  0  0  0  0  0  0  0  0  0  0
  -35.8180  -44.1782   15.9953 O   0  0  0  0  0  0  0  0  0  0  0  0
  -40.1006  -44.9244   23.1338 O   0  0  0  0  0  0  0  0  0  0  0  0
  -29.6261  -46.4544   17.3304 Cl  0  0  0  0  0  0  0  0  0  0  0  0
  -33.5789  -43.3388   15.2647 Cl  0  0  0  0  0  0  0  0  0  0  0  0
  -36.8855  -47.7332   23.8158 H   0  0  0  0  0  0  0  0  0  0  0  0
  7  1  1  6
 18  2  1  0
  2 19  1  6
  2 20  1  0
  2 21  1  0
  3  4  2  0
  7  3  1  0
  3 15  1  0
  4  5  1  0
  5 13  2  0
  5 23  1  0
  6  8  1  0
 23  6  1  0
  6 27  2  0
  7 18  1  0
 25  7  1  0
  8 12  1  0
  8 24  2  0
  9 10  2  0
 24  9  1  0
 11 10  1  0
 10 29  1  0
 12 11  2  0
 12 30  1  0
 14 13  1  0
 15 14  2  0
 15 22  1  0
 16 17  1  0
 16 25  1  0
 16 26  2  0
 17 28  1  0
 18 28  1  1
 26 31  1  0
M  END
$$$$
