
     RDKit          3D

 24 28  0  0  0  0  0  0  0  0999 V2000
  -19.1352  -25.9560  -17.8708 N   0  0  0  0  0  0  0  0  0  0  0  0
  -24.2384  -27.6397  -14.4252 C   0  0  0  0  0  0  0  0  0  0  0  0
  -25.1736  -27.3599  -15.3944 C   0  0  0  0  0  0  0  0  0  0  0  0
  -24.7807  -27.4315  -16.7118 C   0  0  0  0  0  0  0  0  0  0  0  0
  -23.4848  -27.7747  -17.0391 C   0  0  0  0  0  0  0  0  0  0  0  0
  -20.2570  -27.6168  -16.9732 C   0  0  0  0  0  0  0  0  0  0  0  0
  -18.9748  -27.0323  -18.6823 C   0  0  0  0  0  0  0  0  0  0  0  0
  -18.9831  -29.4889  -19.9334 C   0  0  0  0  0  0  0  0  0  0  0  0
  -19.6688  -28.1040  -18.1497 C   0  0  0  0  0  0  0  0  0  0  0  0
  -19.7002  -24.0249  -15.8145 C   0  0  0  0  0  0  0  0  0  0  0  0
  -20.6914  -28.5911  -14.7616 N   0  0  0  0  0  0  0  0  0  0  0  0
  -21.7875  -28.3171  -13.9127 C   0  0  0  0  0  0  0  0  0  0  0  0
  -21.8445  -28.3346  -12.6519 O   0  0  0  0  0  0  0  0  0  0  0  0
  -21.1039  -28.4477  -16.1019 C   0  0  1  0  0  0  0  0  0  0  0  0
  -18.2701  -27.1925  -19.8657 C   0  0  0  0  0  0  0  0  0  0  0  0
  -18.2931  -28.4322  -20.4678 C   0  0  0  0  0  0  0  0  0  0  0  0
  -19.6843  -29.3387  -18.7607 C   0  0  0  0  0  0  0  0  0  0  0  0
  -20.3017  -25.3943  -15.7480 C   0  0  2  0  0  0  0  0  0  0  0  0
  -20.8484  -23.0324  -15.6110 C   0  0  0  0  0  0  0  0  0  0  0  0
  -21.9164  -23.9073  -14.9955 C   0  0  0  0  0  0  0  0  0  0  0  0
  -22.5116  -28.0647  -16.0764 C   0  0  0  0  0  0  0  0  0  0  0  0
  -22.9244  -27.9873  -14.7713 C   0  0  0  0  0  0  0  0  0  0  0  0
  -19.9218  -26.3067  -16.8182 C   0  0  0  0  0  0  0  0  0  0  0  0
  -21.7519  -25.1302  -15.7568 N   0  0  0  0  0  4  0  0  0  0  0  0
  1  7  1  0
 23  1  1  0
  3  2  2  0
 22  2  1  0
  4  3  1  0
  5  4  2  0
 21  5  1  0
  6  9  1  0
 14  6  1  1
 23  6  2  0
  9  7  2  0
  7 15  1  0
  8 16  1  0
 17  8  2  0
  9 17  1  0
 18 10  1  0
 10 19  1  0
 11 12  1  0
 14 11  1  0
 12 13  2  0
 12 22  1  0
 14 21  1  0
 15 16  2  0
 18 23  1  6
 18 24  1  0
 19 20  1  0
 20 24  1  0
 21 22  2  0
M  CHG  1  24   1
M  END
$$$$
