
     RDKit          3D

 24 28  0  0  0  0  0  0  0  0999 V2000
  -21.3418  -26.4944  -14.1547 N   0  0  0  0  0  0  0  0  0  0  0  0
  -20.2478  -29.0783  -20.0108 C   0  0  0  0  0  0  0  0  0  0  0  0
  -21.2321  -28.4233  -20.7136 C   0  0  0  0  0  0  0  0  0  0  0  0
  -21.6598  -27.2026  -20.2422 C   0  0  0  0  0  0  0  0  0  0  0  0
  -21.1106  -26.6616  -19.0977 C   0  0  0  0  0  0  0  0  0  0  0  0
  -20.1661  -26.5653  -16.0080 C   0  0  0  0  0  0  0  0  0  0  0  0
  -21.3519  -25.2441  -14.6833 C   0  0  0  0  0  0  0  0  0  0  0  0
  -21.0388  -22.9457  -16.1732 C   0  0  0  0  0  0  0  0  0  0  0  0
  -20.6190  -25.2464  -15.8566 C   0  0  0  0  0  0  0  0  0  0  0  0
  -21.2076  -29.3189  -13.5894 C   0  0  0  0  0  0  0  0  0  0  0  0
  -18.4738  -28.0842  -16.9344 N   0  0  0  0  0  0  0  0  0  0  0  0
  -18.6585  -29.0376  -17.9611 C   0  0  0  0  0  0  0  0  0  0  0  0
  -18.0752  -30.1427  -18.1385 O   0  0  0  0  0  0  0  0  0  0  0  0
  -19.3496  -27.0015  -17.1526 C   0  0  1  0  0  0  0  0  0  0  0  0
  -21.9409  -24.0675  -14.2459 C   0  0  0  0  0  0  0  0  0  0  0  0
  -21.7667  -22.9349  -15.0120 C   0  0  0  0  0  0  0  0  0  0  0  0
  -20.4518  -24.1078  -16.6140 C   0  0  0  0  0  0  0  0  0  0  0  0
  -20.3950  -28.7280  -14.6994 C   0  0  2  0  0  0  0  0  0  0  0  0
  -21.8134  -30.6158  -14.1332 C   0  0  0  0  0  0  0  0  0  0  0  0
  -20.9406  -30.8917  -15.3360 C   0  0  0  0  0  0  0  0  0  0  0  0
  -20.1084  -27.3035  -18.3617 C   0  0  0  0  0  0  0  0  0  0  0  0
  -19.6978  -28.5174  -18.8488 C   0  0  0  0  0  0  0  0  0  0  0  0
  -20.6153  -27.3123  -14.9626 C   0  0  0  0  0  0  0  0  0  0  0  0
  -20.7588  -29.5540  -15.8648 N   0  0  0  0  0  4  0  0  0  0  0  0
  1  7  1  0
 23  1  1  0
  3  2  2  0
 22  2  1  0
  4  3  1  0
  5  4  2  0
 21  5  1  0
  6  9  1  0
 14  6  1  1
 23  6  2  0
  9  7  2  0
  7 15  1  0
  8 16  1  0
 17  8  2  0
  9 17  1  0
 18 10  1  0
 10 19  1  0
 11 12  1  0
 14 11  1  0
 12 13  2  0
 12 22  1  0
 14 21  1  0
 15 16  2  0
 18 23  1  6
 18 24  1  0
 19 20  1  0
 20 24  1  0
 21 22  2  0
M  CHG  1  24   1
M  END
$$$$
