
     RDKit          3D

 24 28  0  0  0  0  0  0  0  0999 V2000
  -21.9666  -28.8917  -18.5550 N   0  0  0  0  0  0  0  0  0  0  0  0
  -20.6015  -24.1307  -14.4223 C   0  0  0  0  0  0  0  0  0  0  0  0
  -20.8073  -23.0730  -15.2772 C   0  0  0  0  0  0  0  0  0  0  0  0
  -21.6790  -23.2510  -16.3277 C   0  0  0  0  0  0  0  0  0  0  0  0
  -22.3217  -24.4587  -16.5084 C   0  0  0  0  0  0  0  0  0  0  0  0
  -22.5988  -27.6609  -16.8498 C   0  0  0  0  0  0  0  0  0  0  0  0
  -23.2324  -28.4732  -18.8107 C   0  0  0  0  0  0  0  0  0  0  0  0
  -25.7555  -27.3621  -18.8085 C   0  0  0  0  0  0  0  0  0  0  0  0
  -23.6690  -27.6918  -17.7559 C   0  0  0  0  0  0  0  0  0  0  0  0
  -19.2691  -29.3371  -17.6450 C   0  0  0  0  0  0  0  0  0  0  0  0
  -22.0476  -27.5229  -14.4610 N   0  0  0  0  0  0  0  0  0  0  0  0
  -21.1870  -26.5897  -13.8400 C   0  0  0  0  0  0  0  0  0  0  0  0
  -20.4658  -26.7292  -12.8136 O   0  0  0  0  0  0  0  0  0  0  0  0
  -22.6490  -26.9151  -15.5817 C   0  0  1  0  0  0  0  0  0  0  0  0
  -24.0753  -28.7037  -19.8873 C   0  0  0  0  0  0  0  0  0  0  0  0
  -25.3305  -28.1349  -19.8576 C   0  0  0  0  0  0  0  0  0  0  0  0
  -24.9261  -27.1286  -17.7374 C   0  0  0  0  0  0  0  0  0  0  0  0
  -20.2617  -28.6472  -16.7617 C   0  0  2  0  0  0  0  0  0  0  0  0
  -17.9672  -28.5367  -17.5486 C   0  0  0  0  0  0  0  0  0  0  0  0
  -18.1814  -27.7371  -16.2839 C   0  0  0  0  0  0  0  0  0  0  0  0
  -22.1331  -25.5523  -15.6561 C   0  0  0  0  0  0  0  0  0  0  0  0
  -21.2611  -25.3531  -14.6171 C   0  0  0  0  0  0  0  0  0  0  0  0
  -21.5698  -28.3969  -17.3520 C   0  0  0  0  0  0  0  0  0  0  0  0
  -19.5834  -27.3880  -16.4054 N   0  0  0  0  0  4  0  0  0  0  0  0
  1  7  1  0
 23  1  1  0
  3  2  2  0
 22  2  1  0
  4  3  1  0
  5  4  2  0
 21  5  1  0
  6  9  1  0
 14  6  1  6
 23  6  2  0
  9  7  2  0
  7 15  1  0
  8 16  1  0
 17  8  2  0
  9 17  1  0
 18 10  1  0
 10 19  1  0
 11 12  1  0
 14 11  1  0
 12 13  2  0
 12 22  1  0
 14 21  1  0
 15 16  2  0
 18 23  1  6
 18 24  1  0
 19 20  1  0
 20 24  1  0
 21 22  2  0
M  CHG  1  24   1
M  END
$$$$
