
     RDKit          3D

 24 28  0  0  0  0  0  0  0  0999 V2000
  -19.0740  -29.1181  -16.7850 N   0  0  0  0  0  0  0  0  0  0  0  0
  -22.4826  -23.8879  -15.0075 C   0  0  0  0  0  0  0  0  0  0  0  0
  -21.5164  -22.9313  -15.2159 C   0  0  0  0  0  0  0  0  0  0  0  0
  -20.5338  -23.1961  -16.1431 C   0  0  0  0  0  0  0  0  0  0  0  0
  -20.5280  -24.3888  -16.8371 C   0  0  0  0  0  0  0  0  0  0  0  0
  -20.5868  -27.5946  -17.2461 C   0  0  0  0  0  0  0  0  0  0  0  0
  -18.6950  -28.5142  -17.9401 C   0  0  0  0  0  0  0  0  0  0  0  0
  -18.4157  -26.9773  -20.2118 C   0  0  0  0  0  0  0  0  0  0  0  0
  -19.6257  -27.5440  -18.2664 C   0  0  0  0  0  0  0  0  0  0  0  0
  -20.7475  -30.3940  -14.7291 C   0  0  0  0  0  0  0  0  0  0  0  0
  -22.9154  -27.1974  -16.5757 N   0  0  0  0  0  0  0  0  0  0  0  0
  -23.3815  -26.2339  -15.6529 C   0  0  0  0  0  0  0  0  0  0  0  0
  -24.3848  -26.2807  -14.8885 O   0  0  0  0  0  0  0  0  0  0  0  0
  -21.7570  -26.7023  -17.2080 C   0  0  1  0  0  0  0  0  0  0  0  0
  -17.6014  -28.7200  -18.7673 C   0  0  0  0  0  0  0  0  0  0  0  0
  -17.4890  -27.9363  -19.8956 C   0  0  0  0  0  0  0  0  0  0  0  0
  -19.5027  -26.7668  -19.3972 C   0  0  0  0  0  0  0  0  0  0  0  0
  -20.9301  -28.9652  -15.1375 C   0  0  2  0  0  0  0  0  0  0  0  0
  -20.3948  -30.3815  -13.2391 C   0  0  0  0  0  0  0  0  0  0  0  0
  -20.8499  -29.0028  -12.8187 C   0  0  0  0  0  0  0  0  0  0  0  0
  -21.4967  -25.3806  -16.6473 C   0  0  0  0  0  0  0  0  0  0  0  0
  -22.4652  -25.0962  -15.7196 C   0  0  0  0  0  0  0  0  0  0  0  0
  -20.2356  -28.5589  -16.3519 C   0  0  0  0  0  0  0  0  0  0  0  0
  -20.4484  -28.2118  -13.9657 N   0  0  0  0  0  4  0  0  0  0  0  0
  1  7  1  0
 23  1  1  0
  3  2  2  0
 22  2  1  0
  4  3  1  0
  5  4  2  0
 21  5  1  0
  6  9  1  0
 14  6  1  1
 23  6  2  0
  9  7  2  0
  7 15  1  0
  8 16  1  0
 17  8  2  0
  9 17  1  0
 18 10  1  0
 10 19  1  0
 11 12  1  0
 14 11  1  0
 12 13  2  0
 12 22  1  0
 14 21  1  0
 15 16  2  0
 18 23  1  6
 18 24  1  0
 19 20  1  0
 20 24  1  0
 21 22  2  0
M  CHG  1  24   1
M  END
$$$$
