
     RDKit          3D

 24 28  0  0  0  0  0  0  0  0999 V2000
  -21.4100  -26.6757  -14.8356 N   0  0  0  0  0  0  0  0  0  0  0  0
  -19.8780  -29.1991  -20.4978 C   0  0  0  0  0  0  0  0  0  0  0  0
  -21.0897  -28.9606  -21.1036 C   0  0  0  0  0  0  0  0  0  0  0  0
  -21.8456  -27.9058  -20.6442 C   0  0  0  0  0  0  0  0  0  0  0  0
  -21.3918  -27.1177  -19.6063 C   0  0  0  0  0  0  0  0  0  0  0  0
  -20.2217  -26.4494  -16.6683 C   0  0  0  0  0  0  0  0  0  0  0  0
  -21.3163  -25.3456  -15.0903 C   0  0  0  0  0  0  0  0  0  0  0  0
  -20.8075  -22.8182  -16.0669 C   0  0  0  0  0  0  0  0  0  0  0  0
  -20.5721  -25.1600  -16.2416 C   0  0  0  0  0  0  0  0  0  0  0  0
  -19.7104  -29.4278  -14.8355 C   0  0  0  0  0  0  0  0  0  0  0  0
  -18.2270  -27.4188  -17.7222 N   0  0  0  0  0  0  0  0  0  0  0  0
  -18.1907  -28.4678  -18.6684 C   0  0  0  0  0  0  0  0  0  0  0  0
  -17.2967  -29.3377  -18.8618 O   0  0  0  0  0  0  0  0  0  0  0  0
  -19.4285  -26.6993  -17.8829 C   0  0  1  0  0  0  0  0  0  0  0  0
  -21.8168  -24.2440  -14.4131 C   0  0  0  0  0  0  0  0  0  0  0  0
  -21.5459  -22.9935  -14.9256 C   0  0  0  0  0  0  0  0  0  0  0  0
  -20.3077  -23.9049  -16.7443 C   0  0  0  0  0  0  0  0  0  0  0  0
  -20.6340  -28.8133  -15.8410 C   0  0  2  0  0  0  0  0  0  0  0  0
  -20.4809  -30.5761  -14.1781 C   0  0  0  0  0  0  0  0  0  0  0  0
  -21.5985  -30.8135  -15.1677 C   0  0  0  0  0  0  0  0  0  0  0  0
  -20.1644  -27.3352  -18.9705 C   0  0  0  0  0  0  0  0  0  0  0  0
  -19.4282  -28.3905  -19.4437 C   0  0  0  0  0  0  0  0  0  0  0  0
  -20.7401  -27.3609  -15.8005 C   0  0  0  0  0  0  0  0  0  0  0  0
  -21.9290  -29.4547  -15.5506 N   0  0  0  0  0  4  0  0  0  0  0  0
  1  7  1  0
 23  1  1  0
  3  2  2  0
 22  2  1  0
  4  3  1  0
  5  4  2  0
 21  5  1  0
  6  9  1  0
 14  6  1  1
 23  6  2  0
  9  7  2  0
  7 15  1  0
  8 16  1  0
 17  8  2  0
  9 17  1  0
 18 10  1  0
 10 19  1  0
 11 12  1  0
 14 11  1  0
 12 13  2  0
 12 22  1  0
 14 21  1  0
 15 16  2  0
 18 23  1  1
 18 24  1  0
 19 20  1  0
 20 24  1  0
 21 22  2  0
M  CHG  1  24   1
M  END
$$$$
