
     RDKit          3D

 24 28  0  0  0  0  0  0  0  0999 V2000
  -17.3546  -28.1113  -17.6291 N   0  0  0  0  0  0  0  0  0  0  0  0
  -22.2585  -25.0226  -14.6005 C   0  0  0  0  0  0  0  0  0  0  0  0
  -21.6894  -23.7772  -14.4693 C   0  0  0  0  0  0  0  0  0  0  0  0
  -20.7100  -23.4162  -15.3668 C   0  0  0  0  0  0  0  0  0  0  0  0
  -20.3185  -24.2854  -16.3645 C   0  0  0  0  0  0  0  0  0  0  0  0
  -19.2835  -27.0619  -17.6558 C   0  0  0  0  0  0  0  0  0  0  0  0
  -17.1769  -26.9647  -18.3337 C   0  0  0  0  0  0  0  0  0  0  0  0
  -17.3843  -24.5525  -19.6524 C   0  0  0  0  0  0  0  0  0  0  0  0
  -18.3738  -26.2720  -18.3741 C   0  0  0  0  0  0  0  0  0  0  0  0
  -18.3712  -30.5325  -16.4046 C   0  0  0  0  0  0  0  0  0  0  0  0
  -21.5804  -27.6893  -17.0558 N   0  0  0  0  0  0  0  0  0  0  0  0
  -22.3163  -27.2472  -15.9333 C   0  0  0  0  0  0  0  0  0  0  0  0
  -23.2138  -27.8482  -15.2801 O   0  0  0  0  0  0  0  0  0  0  0  0
  -20.6873  -26.6713  -17.4470 C   0  0  1  0  0  0  0  0  0  0  0  0
  -16.0601  -26.4399  -18.9661 C   0  0  0  0  0  0  0  0  0  0  0  0
  -16.1948  -25.2323  -19.6170 C   0  0  0  0  0  0  0  0  0  0  0  0
  -18.4963  -25.0657  -19.0280 C   0  0  0  0  0  0  0  0  0  0  0  0
  -19.1889  -29.2785  -16.4228 C   0  0  2  0  0  0  0  0  0  0  0  0
  -18.2565  -30.9588  -14.9384 C   0  0  0  0  0  0  0  0  0  0  0  0
  -19.3846  -30.1849  -14.2956 C   0  0  0  0  0  0  0  0  0  0  0  0
  -20.8784  -25.5579  -16.5235 C   0  0  0  0  0  0  0  0  0  0  0  0
  -21.8514  -25.8968  -15.6191 C   0  0  0  0  0  0  0  0  0  0  0  0
  -18.6463  -28.1787  -17.2090 C   0  0  0  0  0  0  0  0  0  0  0  0
  -19.2932  -28.9192  -14.9970 N   0  0  0  0  0  4  0  0  0  0  0  0
  1  7  1  0
 23  1  1  0
  3  2  2  0
 22  2  1  0
  4  3  1  0
  5  4  2  0
 21  5  1  0
  6  9  1  0
 14  6  1  1
 23  6  2  0
  9  7  2  0
  7 15  1  0
  8 16  1  0
 17  8  2  0
  9 17  1  0
 18 10  1  0
 10 19  1  0
 11 12  1  0
 14 11  1  0
 12 13  2  0
 12 22  1  0
 14 21  1  0
 15 16  2  0
 18 23  1  6
 18 24  1  0
 19 20  1  0
 20 24  1  0
 21 22  2  0
M  CHG  1  24   1
M  END
$$$$
