
     RDKit          3D

 24 28  0  0  0  0  0  0  0  0999 V2000
  -19.7919  -29.3424  -14.2376 N   0  0  0  0  0  0  0  0  0  0  0  0
  -22.2205  -23.6046  -17.0164 C   0  0  0  0  0  0  0  0  0  0  0  0
  -21.5622  -22.7284  -16.1853 C   0  0  0  0  0  0  0  0  0  0  0  0
  -20.4861  -23.2015  -15.4688 C   0  0  0  0  0  0  0  0  0  0  0  0
  -20.0883  -24.5175  -15.5885 C   0  0  0  0  0  0  0  0  0  0  0  0
  -20.4076  -27.7339  -15.6000 C   0  0  0  0  0  0  0  0  0  0  0  0
  -20.7233  -28.6003  -13.5860 C   0  0  0  0  0  0  0  0  0  0  0  0
  -22.6149  -26.7753  -12.7541 C   0  0  0  0  0  0  0  0  0  0  0  0
  -21.1383  -27.5724  -14.4137 C   0  0  0  0  0  0  0  0  0  0  0  0
  -17.5785  -28.4329  -16.9116 C   0  0  0  0  0  0  0  0  0  0  0  0
  -21.5724  -27.1724  -17.6874 N   0  0  0  0  0  0  0  0  0  0  0  0
  -22.3569  -26.0245  -17.9405 C   0  0  0  0  0  0  0  0  0  0  0  0
  -23.3524  -25.8907  -18.7049 O   0  0  0  0  0  0  0  0  0  0  0  0
  -20.5634  -26.8416  -16.7603 C   0  0  1  0  0  0  0  0  0  0  0  0
  -21.2659  -28.7181  -12.3154 C   0  0  0  0  0  0  0  0  0  0  0  0
  -22.2093  -27.7909  -11.9279 C   0  0  0  0  0  0  0  0  0  0  0  0
  -22.0821  -26.6514  -14.0152 C   0  0  0  0  0  0  0  0  0  0  0  0
  -18.6567  -29.3634  -16.4496 C   0  0  2  0  0  0  0  0  0  0  0  0
  -16.2609  -29.2068  -16.8128 C   0  0  0  0  0  0  0  0  0  0  0  0
  -16.7403  -30.6385  -16.7431 C   0  0  0  0  0  0  0  0  0  0  0  0
  -20.7374  -25.4322  -16.4252 C   0  0  0  0  0  0  0  0  0  0  0  0
  -21.8060  -24.9399  -17.1290 C   0  0  0  0  0  0  0  0  0  0  0  0
  -19.5921  -28.8167  -15.4758 C   0  0  0  0  0  0  0  0  0  0  0  0
  -17.9069  -30.5038  -15.8927 N   0  0  0  0  0  4  0  0  0  0  0  0
  1  7  1  0
 23  1  1  0
  3  2  2  0
 22  2  1  0
  4  3  1  0
  5  4  2  0
 21  5  1  0
  6  9  1  0
 14  6  1  1
 23  6  2  0
  9  7  2  0
  7 15  1  0
  8 16  1  0
 17  8  2  0
  9 17  1  0
 18 10  1  0
 10 19  1  0
 11 12  1  0
 14 11  1  0
 12 13  2  0
 12 22  1  0
 14 21  1  0
 15 16  2  0
 18 23  1  1
 18 24  1  0
 19 20  1  0
 20 24  1  0
 21 22  2  0
M  CHG  1  24   1
M  END
$$$$
