
     RDKit          3D

 24 28  0  0  0  0  0  0  0  0999 V2000
  -17.9679  -28.4100  -16.7939 N   0  0  0  0  0  0  0  0  0  0  0  0
  -22.6173  -24.2989  -15.1377 C   0  0  0  0  0  0  0  0  0  0  0  0
  -21.8124  -23.2083  -14.9038 C   0  0  0  0  0  0  0  0  0  0  0  0
  -20.6123  -23.1349  -15.5743 C   0  0  0  0  0  0  0  0  0  0  0  0
  -20.2379  -24.1312  -16.4526 C   0  0  0  0  0  0  0  0  0  0  0  0
  -19.6375  -27.1454  -17.4536 C   0  0  0  0  0  0  0  0  0  0  0  0
  -17.5780  -27.7986  -17.9415 C   0  0  0  0  0  0  0  0  0  0  0  0
  -17.3212  -26.3205  -20.2544 C   0  0  0  0  0  0  0  0  0  0  0  0
  -18.6061  -26.9897  -18.3914 C   0  0  0  0  0  0  0  0  0  0  0  0
  -20.6503  -29.7995  -15.4555 C   0  0  0  0  0  0  0  0  0  0  0  0
  -22.0904  -27.1992  -17.3536 N   0  0  0  0  0  0  0  0  0  0  0  0
  -22.9178  -26.5327  -16.4218 C   0  0  0  0  0  0  0  0  0  0  0  0
  -24.0457  -26.8733  -15.9691 O   0  0  0  0  0  0  0  0  0  0  0  0
  -20.9231  -26.4357  -17.5571 C   0  0  1  0  0  0  0  0  0  0  0  0
  -16.3964  -27.8698  -18.6635 C   0  0  0  0  0  0  0  0  0  0  0  0
  -16.2977  -27.1194  -19.8154 C   0  0  0  0  0  0  0  0  0  0  0  0
  -18.4959  -26.2442  -19.5446 C   0  0  0  0  0  0  0  0  0  0  0  0
  -19.9668  -28.4747  -15.3165 C   0  0  2  0  0  0  0  0  0  0  0  0
  -20.2816  -30.6145  -14.2127 C   0  0  0  0  0  0  0  0  0  0  0  0
  -19.8026  -29.5413  -13.2623 C   0  0  0  0  0  0  0  0  0  0  0  0
  -21.0347  -25.2520  -16.7113 C   0  0  0  0  0  0  0  0  0  0  0  0
  -22.2250  -25.3049  -16.0330 C   0  0  0  0  0  0  0  0  0  0  0  0
  -19.2322  -28.0140  -16.4871 C   0  0  0  0  0  0  0  0  0  0  0  0
  -19.0701  -28.6733  -14.1636 N   0  0  0  0  0  4  0  0  0  0  0  0
  1  7  1  0
 23  1  1  0
  3  2  2  0
 22  2  1  0
  4  3  1  0
  5  4  2  0
 21  5  1  0
  6  9  1  0
 14  6  1  1
 23  6  2  0
  9  7  2  0
  7 15  1  0
  8 16  1  0
 17  8  2  0
  9 17  1  0
 18 10  1  0
 10 19  1  0
 11 12  1  0
 14 11  1  0
 12 13  2  0
 12 22  1  0
 14 21  1  0
 15 16  2  0
 18 23  1  6
 18 24  1  0
 19 20  1  0
 20 24  1  0
 21 22  2  0
M  CHG  1  24   1
M  END
$$$$
