
     RDKit          3D

 24 28  0  0  0  0  0  0  0  0999 V2000
  -21.9684  -29.8595  -13.9371 N   0  0  0  0  0  0  0  0  0  0  0  0
  -21.3022  -24.5123  -17.5892 C   0  0  0  0  0  0  0  0  0  0  0  0
  -22.2334  -23.7129  -16.9681 C   0  0  0  0  0  0  0  0  0  0  0  0
  -22.5282  -23.9693  -15.6481 C   0  0  0  0  0  0  0  0  0  0  0  0
  -21.9022  -25.0002  -14.9776 C   0  0  0  0  0  0  0  0  0  0  0  0
  -20.8817  -28.0215  -14.4502 C   0  0  0  0  0  0  0  0  0  0  0  0
  -21.9442  -29.0844  -12.8230 C   0  0  0  0  0  0  0  0  0  0  0  0
  -21.5920  -27.1415  -10.8990 C   0  0  0  0  0  0  0  0  0  0  0  0
  -21.2656  -27.9124  -13.1056 C   0  0  0  0  0  0  0  0  0  0  0  0
  -21.5428  -28.8474  -17.4071 C   0  0  0  0  0  0  0  0  0  0  0  0
  -19.3686  -27.3609  -16.2678 N   0  0  0  0  0  0  0  0  0  0  0  0
  -19.6697  -26.5149  -17.3590 C   0  0  0  0  0  0  0  0  0  0  0  0
  -19.2020  -26.5273  -18.5313 O   0  0  0  0  0  0  0  0  0  0  0  0
  -20.1387  -26.9645  -15.1556 C   0  0  1  0  0  0  0  0  0  0  0  0
  -22.4576  -29.2890  -11.5513 C   0  0  0  0  0  0  0  0  0  0  0  0
  -22.2657  -28.2997  -10.6109 C   0  0  0  0  0  0  0  0  0  0  0  0
  -21.0799  -26.9306  -12.1571 C   0  0  0  0  0  0  0  0  0  0  0  0
  -21.1518  -29.7563  -16.2834 C   0  0  2  0  0  0  0  0  0  0  0  0
  -20.3903  -28.8770  -18.4148 C   0  0  0  0  0  0  0  0  0  0  0  0
  -19.6526  -30.1339  -18.0138 C   0  0  0  0  0  0  0  0  0  0  0  0
  -20.9512  -25.8301  -15.5818 C   0  0  0  0  0  0  0  0  0  0  0  0
  -20.6731  -25.5570  -16.8963 C   0  0  0  0  0  0  0  0  0  0  0  0
  -21.3177  -29.2137  -14.9416 C   0  0  0  0  0  0  0  0  0  0  0  0
  -19.7381  -30.0615  -16.5683 N   0  0  0  0  0  4  0  0  0  0  0  0
  1  7  1  0
 23  1  1  0
  3  2  2  0
 22  2  1  0
  4  3  1  0
  5  4  2  0
 21  5  1  0
  6  9  1  0
 14  6  1  6
 23  6  2  0
  9  7  2  0
  7 15  1  0
  8 16  1  0
 17  8  2  0
  9 17  1  0
 18 10  1  0
 10 19  1  0
 11 12  1  0
 14 11  1  0
 12 13  2  0
 12 22  1  0
 14 21  1  0
 15 16  2  0
 18 23  1  1
 18 24  1  0
 19 20  1  0
 20 24  1  0
 21 22  2  0
M  CHG  1  24   1
M  END
$$$$
