
     RDKit          3D

 24 28  0  0  0  0  0  0  0  0999 V2000
  -19.2591  -25.9455  -16.4077 N   0  0  0  0  0  0  0  0  0  0  0  0
  -24.4016  -29.2101  -14.1046 C   0  0  0  0  0  0  0  0  0  0  0  0
  -24.6584  -28.4459  -12.9901 C   0  0  0  0  0  0  0  0  0  0  0  0
  -24.2576  -27.1290  -13.0029 C   0  0  0  0  0  0  0  0  0  0  0  0
  -23.6181  -26.6015  -14.1061 C   0  0  0  0  0  0  0  0  0  0  0  0
  -21.4050  -26.4092  -16.4541 C   0  0  0  0  0  0  0  0  0  0  0  0
  -19.9248  -24.7828  -16.1894 C   0  0  0  0  0  0  0  0  0  0  0  0
  -21.7535  -22.7559  -15.8045 C   0  0  0  0  0  0  0  0  0  0  0  0
  -21.2852  -25.0330  -16.2111 C   0  0  0  0  0  0  0  0  0  0  0  0
  -18.5508  -28.5474  -17.6284 C   0  0  0  0  0  0  0  0  0  0  0  0
  -22.7440  -28.2988  -17.2702 N   0  0  0  0  0  0  0  0  0  0  0  0
  -23.3828  -29.2879  -16.4888 C   0  0  0  0  0  0  0  0  0  0  0  0
  -23.6221  -30.4951  -16.7691 O   0  0  0  0  0  0  0  0  0  0  0  0
  -22.7055  -27.0935  -16.5403 C   0  0  1  0  0  0  0  0  0  0  0  0
  -19.4692  -23.4916  -15.9704 C   0  0  0  0  0  0  0  0  0  0  0  0
  -20.4074  -22.4996  -15.7813 C   0  0  0  0  0  0  0  0  0  0  0  0
  -22.2136  -24.0330  -16.0209 C   0  0  0  0  0  0  0  0  0  0  0  0
  -19.7961  -28.3372  -16.8243 C   0  0  2  0  0  0  0  0  0  0  0  0
  -17.7158  -29.5885  -16.8777 C   0  0  0  0  0  0  0  0  0  0  0  0
  -18.7426  -30.2173  -15.9640 C   0  0  0  0  0  0  0  0  0  0  0  0
  -23.3431  -27.3532  -15.2539 C   0  0  0  0  0  0  0  0  0  0  0  0
  -23.7506  -28.6618  -15.2195 C   0  0  0  0  0  0  0  0  0  0  0  0
  -20.1613  -26.9498  -16.5713 C   0  0  0  0  0  0  0  0  0  0  0  0
  -19.5160  -29.0564  -15.5684 N   0  0  0  0  0  4  0  0  0  0  0  0
  1  7  1  0
 23  1  1  0
  3  2  2  0
 22  2  1  0
  4  3  1  0
  5  4  2  0
 21  5  1  0
  6  9  1  0
 14  6  1  1
 23  6  2  0
  9  7  2  0
  7 15  1  0
  8 16  1  0
 17  8  2  0
  9 17  1  0
 18 10  1  0
 10 19  1  0
 11 12  1  0
 14 11  1  0
 12 13  2  0
 12 22  1  0
 14 21  1  0
 15 16  2  0
 18 23  1  1
 18 24  1  0
 19 20  1  0
 20 24  1  0
 21 22  2  0
M  CHG  1  24   1
M  END
$$$$
