
     RDKit          3D

 24 28  0  0  0  0  0  0  0  0999 V2000
  -20.3473  -29.4798  -14.3092 N   0  0  0  0  0  0  0  0  0  0  0  0
  -21.7530  -23.7145  -17.5894 C   0  0  0  0  0  0  0  0  0  0  0  0
  -22.0469  -22.9023  -16.5189 C   0  0  0  0  0  0  0  0  0  0  0  0
  -21.5809  -23.2742  -15.2781 C   0  0  0  0  0  0  0  0  0  0  0  0
  -20.8420  -24.4294  -15.1241 C   0  0  0  0  0  0  0  0  0  0  0  0
  -20.1482  -27.5756  -15.3847 C   0  0  0  0  0  0  0  0  0  0  0  0
  -21.0996  -28.5649  -13.6461 C   0  0  0  0  0  0  0  0  0  0  0  0
  -22.4328  -26.3400  -12.7119 C   0  0  0  0  0  0  0  0  0  0  0  0
  -21.0005  -27.3468  -14.2944 C   0  0  0  0  0  0  0  0  0  0  0  0
  -18.0184  -30.6434  -15.7291 C   0  0  0  0  0  0  0  0  0  0  0  0
  -19.8442  -26.8673  -17.7160 N   0  0  0  0  0  0  0  0  0  0  0  0
  -20.5819  -25.8797  -18.4072 C   0  0  0  0  0  0  0  0  0  0  0  0
  -20.8625  -25.8069  -19.6357 O   0  0  0  0  0  0  0  0  0  0  0  0
  -19.7885  -26.5241  -16.3500 C   0  0  1  0  0  0  0  0  0  0  0  0
  -21.8821  -28.6726  -12.5065 C   0  0  0  0  0  0  0  0  0  0  0  0
  -22.5364  -27.5431  -12.0637 C   0  0  0  0  0  0  0  0  0  0  0  0
  -21.6593  -26.2245  -13.8423 C   0  0  0  0  0  0  0  0  0  0  0  0
  -18.8799  -29.5679  -16.3145 C   0  0  2  0  0  0  0  0  0  0  0  0
  -18.1686  -31.8671  -16.6373 C   0  0  0  0  0  0  0  0  0  0  0  0
  -18.7311  -31.2557  -17.9001 C   0  0  0  0  0  0  0  0  0  0  0  0
  -20.5269  -25.2754  -16.1933 C   0  0  0  0  0  0  0  0  0  0  0  0
  -21.0009  -24.8862  -17.4194 C   0  0  0  0  0  0  0  0  0  0  0  0
  -19.7593  -28.8800  -15.3788 C   0  0  0  0  0  0  0  0  0  0  0  0
  -19.6494  -30.2757  -17.3535 N   0  0  0  0  0  4  0  0  0  0  0  0
  1  7  1  0
 23  1  1  0
  3  2  2  0
 22  2  1  0
  4  3  1  0
  5  4  2  0
 21  5  1  0
  6  9  1  0
 14  6  1  1
 23  6  2  0
  9  7  2  0
  7 15  1  0
  8 16  1  0
 17  8  2  0
  9 17  1  0
 18 10  1  0
 10 19  1  0
 11 12  1  0
 14 11  1  0
 12 13  2  0
 12 22  1  0
 14 21  1  0
 15 16  2  0
 18 23  1  1
 18 24  1  0
 19 20  1  0
 20 24  1  0
 21 22  2  0
M  CHG  1  24   1
M  END
$$$$
