
     RDKit          3D

 24 28  0  0  0  0  0  0  0  0999 V2000
  -21.3264  -27.1561  -14.4423 N   0  0  0  0  0  0  0  0  0  0  0  0
  -20.3047  -28.2517  -20.7532 C   0  0  0  0  0  0  0  0  0  0  0  0
  -21.3410  -27.5033  -21.2611 C   0  0  0  0  0  0  0  0  0  0  0  0
  -21.8064  -26.4488  -20.5085 C   0  0  0  0  0  0  0  0  0  0  0  0
  -21.2428  -26.1600  -19.2824 C   0  0  0  0  0  0  0  0  0  0  0  0
  -20.1977  -26.7333  -16.2780 C   0  0  0  0  0  0  0  0  0  0  0  0
  -21.3752  -25.8143  -14.6423 C   0  0  0  0  0  0  0  0  0  0  0  0
  -21.1469  -23.2102  -15.5183 C   0  0  0  0  0  0  0  0  0  0  0  0
  -20.6729  -25.5057  -15.7936 C   0  0  0  0  0  0  0  0  0  0  0  0
  -20.4118  -29.9258  -14.2611 C   0  0  0  0  0  0  0  0  0  0  0  0
  -18.4720  -27.9071  -17.5716 N   0  0  0  0  0  0  0  0  0  0  0  0
  -18.6491  -28.6049  -18.7877 C   0  0  0  0  0  0  0  0  0  0  0  0
  -18.0234  -29.6074  -19.2312 O   0  0  0  0  0  0  0  0  0  0  0  0
  -19.4025  -26.8499  -17.5112 C   0  0  1  0  0  0  0  0  0  0  0  0
  -21.9762  -24.7991  -13.9138 C   0  0  0  0  0  0  0  0  0  0  0  0
  -21.8447  -23.5075  -14.3767 C   0  0  0  0  0  0  0  0  0  0  0  0
  -20.5482  -24.2106  -16.2465 C   0  0  0  0  0  0  0  0  0  0  0  0
  -20.3493  -29.1588  -15.5454 C   0  0  2  0  0  0  0  0  0  0  0  0
  -21.2878  -31.1533  -14.5269 C   0  0  0  0  0  0  0  0  0  0  0  0
  -21.2752  -31.2291  -16.0364 C   0  0  0  0  0  0  0  0  0  0  0  0
  -20.1882  -26.9024  -18.7395 C   0  0  0  0  0  0  0  0  0  0  0  0
  -19.7406  -27.9477  -19.5055 C   0  0  0  0  0  0  0  0  0  0  0  0
  -20.6047  -27.7282  -15.4429 C   0  0  0  0  0  0  0  0  0  0  0  0
  -21.3572  -29.8252  -16.3896 N   0  0  0  0  0  4  0  0  0  0  0  0
  1  7  1  0
 23  1  1  0
  3  2  2  0
 22  2  1  0
  4  3  1  0
  5  4  2  0
 21  5  1  0
  6  9  1  0
 14  6  1  1
 23  6  2  0
  9  7  2  0
  7 15  1  0
  8 16  1  0
 17  8  2  0
  9 17  1  0
 18 10  1  0
 10 19  1  0
 11 12  1  0
 14 11  1  0
 12 13  2  0
 12 22  1  0
 14 21  1  0
 15 16  2  0
 18 23  1  1
 18 24  1  0
 19 20  1  0
 20 24  1  0
 21 22  2  0
M  CHG  1  24   1
M  END
$$$$
