
     RDKit          3D

 24 28  0  0  0  0  0  0  0  0999 V2000
  -22.1340  -25.9413  -14.9640 N   0  0  0  0  0  0  0  0  0  0  0  0
  -19.2259  -31.3151  -16.6134 C   0  0  0  0  0  0  0  0  0  0  0  0
  -20.4256  -31.9307  -16.8848 C   0  0  0  0  0  0  0  0  0  0  0  0
  -21.4976  -31.1364  -17.2239 C   0  0  0  0  0  0  0  0  0  0  0  0
  -21.3616  -29.7646  -17.2867 C   0  0  0  0  0  0  0  0  0  0  0  0
  -20.5824  -26.8009  -16.2586 C   0  0  0  0  0  0  0  0  0  0  0  0
  -21.4763  -24.9047  -15.5432 C   0  0  0  0  0  0  0  0  0  0  0  0
  -19.8230  -23.2222  -16.9702 C   0  0  0  0  0  0  0  0  0  0  0  0
  -20.4867  -25.4059  -16.3698 C   0  0  0  0  0  0  0  0  0  0  0  0
  -21.9412  -28.7208  -13.5152 C   0  0  0  0  0  0  0  0  0  0  0  0
  -18.3430  -27.7347  -16.6356 N   0  0  0  0  0  0  0  0  0  0  0  0
  -17.9349  -29.0725  -16.4331 C   0  0  0  0  0  0  0  0  0  0  0  0
  -16.8021  -29.5200  -16.1022 O   0  0  0  0  0  0  0  0  0  0  0  0
  -19.7048  -27.7219  -16.9991 C   0  0  1  0  0  0  0  0  0  0  0  0
  -21.6427  -23.5329  -15.4280 C   0  0  0  0  0  0  0  0  0  0  0  0
  -20.8011  -22.7174  -16.1536 C   0  0  0  0  0  0  0  0  0  0  0  0
  -19.6513  -24.5807  -17.0903 C   0  0  0  0  0  0  0  0  0  0  0  0
  -22.0530  -28.4264  -14.9789 C   0  0  2  0  0  0  0  0  0  0  0  0
  -23.2935  -29.2919  -13.0793 C   0  0  0  0  0  0  0  0  0  0  0  0
  -23.9039  -29.7007  -14.4002 C   0  0  0  0  0  0  0  0  0  0  0  0
  -20.1549  -29.1097  -17.0164 C   0  0  0  0  0  0  0  0  0  0  0  0
  -19.1008  -29.9197  -16.6807 C   0  0  0  0  0  0  0  0  0  0  0  0
  -21.5909  -27.1100  -15.3983 C   0  0  0  0  0  0  0  0  0  0  0  0
  -23.4905  -28.6035  -15.2531 N   0  0  0  0  0  4  0  0  0  0  0  0
  1  7  1  0
 23  1  1  0
  3  2  2  0
 22  2  1  0
  4  3  1  0
  5  4  2  0
 21  5  1  0
  6  9  1  0
 14  6  1  1
 23  6  2  0
  9  7  2  0
  7 15  1  0
  8 16  1  0
 17  8  2  0
  9 17  1  0
 18 10  1  0
 10 19  1  0
 11 12  1  0
 14 11  1  0
 12 13  2  0
 12 22  1  0
 14 21  1  0
 15 16  2  0
 18 23  1  1
 18 24  1  0
 19 20  1  0
 20 24  1  0
 21 22  2  0
M  CHG  1  24   1
M  END
$$$$
