
     RDKit          3D

 24 28  0  0  0  0  0  0  0  0999 V2000
  -18.7499  -29.2366  -17.8095 N   0  0  0  0  0  0  0  0  0  0  0  0
  -21.4742  -24.0085  -14.4776 C   0  0  0  0  0  0  0  0  0  0  0  0
  -21.6283  -23.1204  -15.5166 C   0  0  0  0  0  0  0  0  0  0  0  0
  -21.6498  -23.6223  -16.7982 C   0  0  0  0  0  0  0  0  0  0  0  0
  -21.5196  -24.9777  -17.0226 C   0  0  0  0  0  0  0  0  0  0  0  0
  -20.1898  -27.9159  -16.8073 C   0  0  0  0  0  0  0  0  0  0  0  0
  -18.7011  -28.0370  -18.4429 C   0  0  0  0  0  0  0  0  0  0  0  0
  -19.0148  -25.4502  -19.3430 C   0  0  0  0  0  0  0  0  0  0  0  0
  -19.5974  -27.1733  -17.8393 C   0  0  0  0  0  0  0  0  0  0  0  0
  -19.7441  -31.6504  -16.4756 C   0  0  0  0  0  0  0  0  0  0  0  0
  -21.0873  -27.6755  -14.5344 N   0  0  0  0  0  0  0  0  0  0  0  0
  -21.1697  -26.4868  -13.7746 C   0  0  0  0  0  0  0  0  0  0  0  0
  -21.1125  -26.3339  -12.5230 O   0  0  0  0  0  0  0  0  0  0  0  0
  -21.2049  -27.3535  -15.9017 C   0  0  1  0  0  0  0  0  0  0  0  0
  -17.9455  -27.5977  -19.5194 C   0  0  0  0  0  0  0  0  0  0  0  0
  -18.1244  -26.2995  -19.9466 C   0  0  0  0  0  0  0  0  0  0  0  0
  -19.7677  -25.8776  -18.2753 C   0  0  0  0  0  0  0  0  0  0  0  0
  -19.9731  -30.2817  -15.9137 C   0  0  2  0  0  0  0  0  0  0  0  0
  -18.9547  -32.4301  -15.4204 C   0  0  0  0  0  0  0  0  0  0  0  0
  -19.1931  -31.6065  -14.1755 C   0  0  0  0  0  0  0  0  0  0  0  0
  -21.3616  -25.9054  -15.9870 C   0  0  0  0  0  0  0  0  0  0  0  0
  -21.3428  -25.3840  -14.7192 C   0  0  0  0  0  0  0  0  0  0  0  0
  -19.6622  -29.1706  -16.8031 C   0  0  0  0  0  0  0  0  0  0  0  0
  -19.1220  -30.2607  -14.7104 N   0  0  0  0  0  4  0  0  0  0  0  0
  1  7  1  0
 23  1  1  0
  3  2  2  0
 22  2  1  0
  4  3  1  0
  5  4  2  0
 21  5  1  0
  6  9  1  0
 14  6  1  6
 23  6  2  0
  9  7  2  0
  7 15  1  0
  8 16  1  0
 17  8  2  0
  9 17  1  0
 18 10  1  0
 10 19  1  0
 11 12  1  0
 14 11  1  0
 12 13  2  0
 12 22  1  0
 14 21  1  0
 15 16  2  0
 18 23  1  6
 18 24  1  0
 19 20  1  0
 20 24  1  0
 21 22  2  0
M  CHG  1  24   1
M  END
$$$$
