
     RDKit          3D

 24 28  0  0  0  0  0  0  0  0999 V2000
  -22.2255  -26.7790  -14.8387 N   0  0  0  0  0  0  0  0  0  0  0  0
  -18.3154  -28.7441  -19.7174 C   0  0  0  0  0  0  0  0  0  0  0  0
  -18.6452  -27.8029  -20.6647 C   0  0  0  0  0  0  0  0  0  0  0  0
  -19.1354  -26.5922  -20.2299 C   0  0  0  0  0  0  0  0  0  0  0  0
  -19.2874  -26.3409  -18.8816 C   0  0  0  0  0  0  0  0  0  0  0  0
  -20.2780  -26.8644  -15.8497 C   0  0  0  0  0  0  0  0  0  0  0  0
  -21.9453  -25.5244  -15.2746 C   0  0  0  0  0  0  0  0  0  0  0  0
  -20.8830  -23.2219  -16.3567 C   0  0  0  0  0  0  0  0  0  0  0  0
  -20.7215  -25.5355  -15.9195 C   0  0  0  0  0  0  0  0  0  0  0  0
  -21.7350  -29.9397  -15.9291 C   0  0  0  0  0  0  0  0  0  0  0  0
  -18.5300  -28.5784  -16.0396 N   0  0  0  0  0  0  0  0  0  0  0  0
  -18.1920  -29.3234  -17.1920 C   0  0  0  0  0  0  0  0  0  0  0  0
  -17.7315  -30.4954  -17.2781 O   0  0  0  0  0  0  0  0  0  0  0  0
  -19.0044  -27.3118  -16.4367 C   0  0  1  0  0  0  0  0  0  0  0  0
  -22.6530  -24.3366  -15.1687 C   0  0  0  0  0  0  0  0  0  0  0  0
  -22.0963  -23.2023  -15.7195 C   0  0  0  0  0  0  0  0  0  0  0  0
  -20.1750  -24.3951  -16.4661 C   0  0  0  0  0  0  0  0  0  0  0  0
  -21.1739  -29.0318  -14.8790 C   0  0  2  0  0  0  0  0  0  0  0  0
  -20.7084  -31.0570  -16.1353 C   0  0  0  0  0  0  0  0  0  0  0  0
  -19.8723  -30.9528  -14.8804 C   0  0  0  0  0  0  0  0  0  0  0  0
  -18.9608  -27.2777  -17.8947 C   0  0  0  0  0  0  0  0  0  0  0  0
  -18.4748  -28.4761  -18.3499 C   0  0  0  0  0  0  0  0  0  0  0  0
  -21.2060  -27.6085  -15.1880 C   0  0  0  0  0  0  0  0  0  0  0  0
  -19.7910  -29.5147  -14.7148 N   0  0  0  0  0  4  0  0  0  0  0  0
  1  7  1  0
 23  1  1  0
  3  2  2  0
 22  2  1  0
  4  3  1  0
  5  4  2  0
 21  5  1  0
  6  9  1  0
 14  6  1  6
 23  6  2  0
  9  7  2  0
  7 15  1  0
  8 16  1  0
 17  8  2  0
  9 17  1  0
 18 10  1  0
 10 19  1  0
 11 12  1  0
 14 11  1  0
 12 13  2  0
 12 22  1  0
 14 21  1  0
 15 16  2  0
 18 23  1  6
 18 24  1  0
 19 20  1  0
 20 24  1  0
 21 22  2  0
M  CHG  1  24   1
M  END
$$$$
