
     RDKit          3D

 24 28  0  0  0  0  0  0  0  0999 V2000
  -18.4303  -28.7947  -17.1128 N   0  0  0  0  0  0  0  0  0  0  0  0
  -22.4809  -24.1684  -15.0151 C   0  0  0  0  0  0  0  0  0  0  0  0
  -21.6309  -23.0907  -15.1046 C   0  0  0  0  0  0  0  0  0  0  0  0
  -20.5991  -23.1550  -16.0136 C   0  0  0  0  0  0  0  0  0  0  0  0
  -20.4317  -24.2720  -16.8063 C   0  0  0  0  0  0  0  0  0  0  0  0
  -20.0952  -27.4133  -17.4897 C   0  0  0  0  0  0  0  0  0  0  0  0
  -18.0809  -28.0273  -18.1766 C   0  0  0  0  0  0  0  0  0  0  0  0
  -17.8980  -26.2269  -20.2564 C   0  0  0  0  0  0  0  0  0  0  0  0
  -19.1074  -27.1403  -18.4473 C   0  0  0  0  0  0  0  0  0  0  0  0
  -20.0111  -30.4706  -15.2863 C   0  0  0  0  0  0  0  0  0  0  0  0
  -22.4718  -27.3526  -16.8754 N   0  0  0  0  0  0  0  0  0  0  0  0
  -23.0747  -26.5364  -15.8917 C   0  0  0  0  0  0  0  0  0  0  0  0
  -24.0855  -26.7682  -15.1722 O   0  0  0  0  0  0  0  0  0  0  0  0
  -21.3644  -26.6709  -17.4193 C   0  0  1  0  0  0  0  0  0  0  0  0
  -16.9386  -28.0136  -18.9625 C   0  0  0  0  0  0  0  0  0  0  0  0
  -16.8763  -27.1023  -19.9948 C   0  0  0  0  0  0  0  0  0  0  0  0
  -19.0337  -26.2339  -19.4821 C   0  0  0  0  0  0  0  0  0  0  0  0
  -20.3551  -29.0389  -15.5577 C   0  0  2  0  0  0  0  0  0  0  0  0
  -19.7261  -30.5750  -13.7854 C   0  0  0  0  0  0  0  0  0  0  0  0
  -20.3688  -29.3146  -13.2537 C   0  0  0  0  0  0  0  0  0  0  0  0
  -21.2794  -25.3833  -16.7384 C   0  0  0  0  0  0  0  0  0  0  0  0
  -22.2998  -25.2980  -15.8266 C   0  0  0  0  0  0  0  0  0  0  0  0
  -19.6667  -28.4238  -16.6847 C   0  0  0  0  0  0  0  0  0  0  0  0
  -20.0223  -28.3626  -14.2910 N   0  0  0  0  0  4  0  0  0  0  0  0
  1  7  1  0
 23  1  1  0
  3  2  2  0
 22  2  1  0
  4  3  1  0
  5  4  2  0
 21  5  1  0
  6  9  1  0
 14  6  1  1
 23  6  2  0
  9  7  2  0
  7 15  1  0
  8 16  1  0
 17  8  2  0
  9 17  1  0
 18 10  1  0
 10 19  1  0
 11 12  1  0
 14 11  1  0
 12 13  2  0
 12 22  1  0
 14 21  1  0
 15 16  2  0
 18 23  1  6
 18 24  1  0
 19 20  1  0
 20 24  1  0
 21 22  2  0
M  CHG  1  24   1
M  END
$$$$
