
     RDKit          3D

 24 28  0  0  0  0  0  0  0  0999 V2000
  -19.8963  -28.6575  -14.4174 N   0  0  0  0  0  0  0  0  0  0  0  0
  -22.7281  -23.8673  -18.3652 C   0  0  0  0  0  0  0  0  0  0  0  0
  -21.8167  -22.8724  -18.0975 C   0  0  0  0  0  0  0  0  0  0  0  0
  -20.6051  -23.2347  -17.5538 C   0  0  0  0  0  0  0  0  0  0  0  0
  -20.3236  -24.5595  -17.2891 C   0  0  0  0  0  0  0  0  0  0  0  0
  -20.7907  -27.5145  -16.0654 C   0  0  0  0  0  0  0  0  0  0  0  0
  -20.5501  -27.6037  -13.8653 C   0  0  0  0  0  0  0  0  0  0  0  0
  -22.0039  -25.3306  -13.2998 C   0  0  0  0  0  0  0  0  0  0  0  0
  -21.1296  -26.8556  -14.8744 C   0  0  0  0  0  0  0  0  0  0  0  0
  -17.9701  -29.6040  -16.7661 C   0  0  0  0  0  0  0  0  0  0  0  0
  -22.4760  -27.5103  -17.8512 N   0  0  0  0  0  0  0  0  0  0  0  0
  -23.2426  -26.4087  -18.2936 C   0  0  0  0  0  0  0  0  0  0  0  0
  -24.4076  -26.3904  -18.7790 O   0  0  0  0  0  0  0  0  0  0  0  0
  -21.2286  -27.0436  -17.3896 C   0  0  1  0  0  0  0  0  0  0  0  0
  -20.7010  -27.2067  -12.5453 C   0  0  0  0  0  0  0  0  0  0  0  0
  -21.4332  -26.0662  -12.2941 C   0  0  0  0  0  0  0  0  0  0  0  0
  -21.8593  -25.7172  -14.6109 C   0  0  0  0  0  0  0  0  0  0  0  0
  -19.4649  -29.5893  -16.6819 C   0  0  2  0  0  0  0  0  0  0  0  0
  -17.5390  -31.0673  -16.6334 C   0  0  0  0  0  0  0  0  0  0  0  0
  -18.8222  -31.8037  -16.9425 C   0  0  0  0  0  0  0  0  0  0  0  0
  -21.2295  -25.5934  -17.5503 C   0  0  0  0  0  0  0  0  0  0  0  0
  -22.4295  -25.2102  -18.0914 C   0  0  0  0  0  0  0  0  0  0  0  0
  -20.0392  -28.6100  -15.7690 C   0  0  0  0  0  0  0  0  0  0  0  0
  -19.7965  -30.9656  -16.2713 N   0  0  0  0  0  4  0  0  0  0  0  0
  1  7  1  0
 23  1  1  0
  3  2  2  0
 22  2  1  0
  4  3  1  0
  5  4  2  0
 21  5  1  0
  6  9  1  0
 14  6  1  1
 23  6  2  0
  9  7  2  0
  7 15  1  0
  8 16  1  0
 17  8  2  0
  9 17  1  0
 18 10  1  0
 10 19  1  0
 11 12  1  0
 14 11  1  0
 12 13  2  0
 12 22  1  0
 14 21  1  0
 15 16  2  0
 18 23  1  1
 18 24  1  0
 19 20  1  0
 20 24  1  0
 21 22  2  0
M  CHG  1  24   1
M  END
$$$$
