
     RDKit          3D

 24 28  0  0  0  0  0  0  0  0999 V2000
  -22.3553  -26.9689  -15.4368 N   0  0  0  0  0  0  0  0  0  0  0  0
  -18.0218  -28.7179  -19.8721 C   0  0  0  0  0  0  0  0  0  0  0  0
  -18.5423  -28.0093  -20.9298 C   0  0  0  0  0  0  0  0  0  0  0  0
  -19.2728  -26.8760  -20.6518 C   0  0  0  0  0  0  0  0  0  0  0  0
  -19.4708  -26.4721  -19.3472 C   0  0  0  0  0  0  0  0  0  0  0  0
  -20.3240  -26.7512  -16.2421 C   0  0  0  0  0  0  0  0  0  0  0  0
  -22.0881  -25.6393  -15.4951 C   0  0  0  0  0  0  0  0  0  0  0  0
  -21.0271  -23.1156  -15.8202 C   0  0  0  0  0  0  0  0  0  0  0  0
  -20.8124  -25.4590  -15.9991 C   0  0  0  0  0  0  0  0  0  0  0  0
  -21.7708  -29.8528  -14.7954 C   0  0  0  0  0  0  0  0  0  0  0  0
  -18.2580  -28.0783  -16.2479 N   0  0  0  0  0  0  0  0  0  0  0  0
  -17.7749  -28.8940  -17.2959 C   0  0  0  0  0  0  0  0  0  0  0  0
  -17.0808  -29.9463  -17.2331 O   0  0  0  0  0  0  0  0  0  0  0  0
  -18.9865  -27.0060  -16.8015 C   0  0  1  0  0  0  0  0  0  0  0  0
  -22.8493  -24.5340  -15.1464 C   0  0  0  0  0  0  0  0  0  0  0  0
  -22.2919  -23.2855  -15.3204 C   0  0  0  0  0  0  0  0  0  0  0  0
  -20.2658  -24.2059  -16.1684 C   0  0  0  0  0  0  0  0  0  0  0  0
  -21.2149  -29.1125  -15.9721 C   0  0  2  0  0  0  0  0  0  0  0  0
  -22.6973  -30.9348  -15.3572 C   0  0  0  0  0  0  0  0  0  0  0  0
  -22.2447  -31.0215  -16.7967 C   0  0  0  0  0  0  0  0  0  0  0  0
  -18.9542  -27.1715  -18.2508 C   0  0  0  0  0  0  0  0  0  0  0  0
  -18.2304  -28.2966  -18.5505 C   0  0  0  0  0  0  0  0  0  0  0  0
  -21.2765  -27.6592  -15.8940 C   0  0  0  0  0  0  0  0  0  0  0  0
  -22.0104  -29.6238  -17.1029 N   0  0  0  0  0  4  0  0  0  0  0  0
  1  7  1  0
 23  1  1  0
  3  2  2  0
 22  2  1  0
  4  3  1  0
  5  4  2  0
 21  5  1  0
  6  9  1  0
 14  6  1  1
 23  6  2  0
  9  7  2  0
  7 15  1  0
  8 16  1  0
 17  8  2  0
  9 17  1  0
 18 10  1  0
 10 19  1  0
 11 12  1  0
 14 11  1  0
 12 13  2  0
 12 22  1  0
 14 21  1  0
 15 16  2  0
 18 23  1  1
 18 24  1  0
 19 20  1  0
 20 24  1  0
 21 22  2  0
M  CHG  1  24   1
M  END
$$$$
