
     RDKit          3D

 24 28  0  0  0  0  0  0  0  0999 V2000
  -18.1138  -29.0021  -17.5452 N   0  0  0  0  0  0  0  0  0  0  0  0
  -21.9038  -24.4339  -14.6957 C   0  0  0  0  0  0  0  0  0  0  0  0
  -21.2908  -23.2958  -15.1655 C   0  0  0  0  0  0  0  0  0  0  0  0
  -20.5784  -23.3831  -16.3402 C   0  0  0  0  0  0  0  0  0  0  0  0
  -20.4885  -24.5817  -17.0181 C   0  0  0  0  0  0  0  0  0  0  0  0
  -19.9028  -27.7344  -17.4246 C   0  0  0  0  0  0  0  0  0  0  0  0
  -17.9870  -28.0394  -18.4938 C   0  0  0  0  0  0  0  0  0  0  0  0
  -18.2514  -25.9080  -20.2224 C   0  0  0  0  0  0  0  0  0  0  0  0
  -19.0984  -27.2167  -18.4504 C   0  0  0  0  0  0  0  0  0  0  0  0
  -19.0882  -29.4589  -14.4718 C   0  0  0  0  0  0  0  0  0  0  0  0
  -21.9703  -27.8415  -16.1042 N   0  0  0  0  0  0  0  0  0  0  0  0
  -22.3688  -26.9573  -15.0763 C   0  0  0  0  0  0  0  0  0  0  0  0
  -23.0732  -27.1871  -14.0544 O   0  0  0  0  0  0  0  0  0  0  0  0
  -21.1901  -27.1327  -17.0401 C   0  0  1  0  0  0  0  0  0  0  0  0
  -16.9866  -27.7909  -19.4212 C   0  0  0  0  0  0  0  0  0  0  0  0
  -17.1470  -26.7182  -20.2718 C   0  0  0  0  0  0  0  0  0  0  0  0
  -19.2477  -26.1474  -19.3061 C   0  0  0  0  0  0  0  0  0  0  0  0
  -19.7489  -29.6765  -15.7976 C   0  0  2  0  0  0  0  0  0  0  0  0
  -20.2105  -29.3607  -13.4347 C   0  0  0  0  0  0  0  0  0  0  0  0
  -21.3759  -29.9804  -14.1713 C   0  0  0  0  0  0  0  0  0  0  0  0
  -21.1009  -25.7558  -16.5657 C   0  0  0  0  0  0  0  0  0  0  0  0
  -21.8047  -25.6462  -15.3943 C   0  0  0  0  0  0  0  0  0  0  0  0
  -19.2883  -28.8219  -16.8838 C   0  0  0  0  0  0  0  0  0  0  0  0
  -21.1768  -29.4537  -15.5074 N   0  0  0  0  0  4  0  0  0  0  0  0
  1  7  1  0
 23  1  1  0
  3  2  2  0
 22  2  1  0
  4  3  1  0
  5  4  2  0
 21  5  1  0
  6  9  1  0
 14  6  1  1
 23  6  2  0
  9  7  2  0
  7 15  1  0
  8 16  1  0
 17  8  2  0
  9 17  1  0
 18 10  1  0
 10 19  1  0
 11 12  1  0
 14 11  1  0
 12 13  2  0
 12 22  1  0
 14 21  1  0
 15 16  2  0
 18 23  1  6
 18 24  1  0
 19 20  1  0
 20 24  1  0
 21 22  2  0
M  CHG  1  24   1
M  END
$$$$
