
     RDKit          3D

 24 28  0  0  0  0  0  0  0  0999 V2000
  -18.0761  -27.7158  -17.8438 N   0  0  0  0  0  0  0  0  0  0  0  0
  -21.9063  -25.7085  -12.8878 C   0  0  0  0  0  0  0  0  0  0  0  0
  -21.6481  -24.3581  -12.9275 C   0  0  0  0  0  0  0  0  0  0  0  0
  -21.2256  -23.8154  -14.1199 C   0  0  0  0  0  0  0  0  0  0  0  0
  -21.0691  -24.6116  -15.2361 C   0  0  0  0  0  0  0  0  0  0  0  0
  -20.0039  -27.1161  -16.9798 C   0  0  0  0  0  0  0  0  0  0  0  0
  -18.3781  -26.4925  -18.3488 C   0  0  0  0  0  0  0  0  0  0  0  0
  -19.4755  -24.0626  -19.0503 C   0  0  0  0  0  0  0  0  0  0  0  0
  -19.5904  -26.0777  -17.8271 C   0  0  0  0  0  0  0  0  0  0  0  0
  -18.2594  -30.4712  -16.8890 C   0  0  0  0  0  0  0  0  0  0  0  0
  -21.6477  -28.2480  -15.5493 N   0  0  0  0  0  0  0  0  0  0  0  0
  -21.9571  -27.9428  -14.2046 C   0  0  0  0  0  0  0  0  0  0  0  0
  -22.3471  -28.7101  -13.2814 O   0  0  0  0  0  0  0  0  0  0  0  0
  -21.2567  -27.0650  -16.2086 C   0  0  1  0  0  0  0  0  0  0  0  0
  -17.7003  -25.6747  -19.2402 C   0  0  0  0  0  0  0  0  0  0  0  0
  -18.2739  -24.4660  -19.5716 C   0  0  0  0  0  0  0  0  0  0  0  0
  -20.1540  -24.8671  -18.1660 C   0  0  0  0  0  0  0  0  0  0  0  0
  -19.0741  -29.3721  -16.2808 C   0  0  2  0  0  0  0  0  0  0  0  0
  -17.4110  -31.0630  -15.7599 C   0  0  0  0  0  0  0  0  0  0  0  0
  -18.1360  -30.5700  -14.5287 C   0  0  0  0  0  0  0  0  0  0  0  0
  -21.3238  -25.9875  -15.2271 C   0  0  0  0  0  0  0  0  0  0  0  0
  -21.7432  -26.5068  -14.0295 C   0  0  0  0  0  0  0  0  0  0  0  0
  -19.0700  -28.1062  -17.0016 C   0  0  0  0  0  0  0  0  0  0  0  0
  -18.4953  -29.2248  -14.9332 N   0  0  0  0  0  4  0  0  0  0  0  0
  1  7  1  0
 23  1  1  0
  3  2  2  0
 22  2  1  0
  4  3  1  0
  5  4  2  0
 21  5  1  0
  6  9  1  0
 14  6  1  1
 23  6  2  0
  9  7  2  0
  7 15  1  0
  8 16  1  0
 17  8  2  0
  9 17  1  0
 18 10  1  0
 10 19  1  0
 11 12  1  0
 14 11  1  0
 12 13  2  0
 12 22  1  0
 14 21  1  0
 15 16  2  0
 18 23  1  6
 18 24  1  0
 19 20  1  0
 20 24  1  0
 21 22  2  0
M  CHG  1  24   1
M  END
$$$$
