
     RDKit          3D

 28 32  0  0  0  0  0  0  0  0999 V2000
  -15.5712  -14.8975    0.9814 C   0  0  0  0  0  0  0  0  0  0  0  0
  -16.1352  -19.9567    2.7154 C   0  0  0  0  0  0  0  0  0  0  0  0
  -15.0458  -26.4234   -0.3007 C   0  0  0  0  0  0  0  0  0  0  0  0
  -16.7418  -24.4331    0.3341 N   0  0  0  0  0  0  0  0  0  0  0  0
  -14.7715  -18.0354    3.7166 C   0  0  0  0  0  0  0  0  0  0  0  0
  -14.1152  -18.7552   -1.0058 C   0  0  0  0  0  0  0  0  0  0  0  0
  -15.4128  -24.1702    0.3260 C   0  0  0  0  0  0  0  0  0  0  0  0
  -17.2472  -25.6439    0.0389 C   0  0  0  0  0  0  0  0  0  0  0  0
  -14.3796  -18.6869    4.7189 O   0  0  0  0  0  0  0  0  0  0  0  0
  -14.7657  -16.6160    3.8446 N   0  0  0  0  0  0  0  0  0  0  0  0
  -15.8481  -15.8005    3.3249 C   0  0  0  0  0  0  0  0  0  0  0  0
  -16.0801  -16.0472    1.8530 C   0  0  1  0  0  0  0  0  0  0  0  0
  -17.0349  -15.2201    1.0856 C   0  0  2  0  0  0  0  0  0  0  0  0
  -17.6972  -15.8630   -0.1203 C   0  0  0  0  0  0  0  0  0  0  0  0
  -15.2068  -18.7291    2.4913 C   0  0  1  0  0  0  0  0  0  0  0  0
  -14.7205  -20.0945    2.1788 C   0  0  2  0  0  0  0  0  0  0  0  0
  -14.6776  -20.5240    0.7253 C   0  0  1  0  0  0  0  0  0  0  0  0
  -14.9866  -19.3833   -0.0745 N   0  0  0  0  0  0  0  0  0  0  0  0
  -13.3873  -21.1908    0.4325 C   0  0  2  0  0  0  0  0  0  0  0  0
  -13.2013  -21.4653   -1.0447 C   0  0  0  0  0  0  0  0  0  0  0  0
  -12.9196  -19.8236   -1.8194 S   0  0  0  0  0  0  0  0  0  0  0  0
  -14.1898  -17.4934   -1.2426 N   0  0  0  0  0  0  0  0  0  0  0  0
  -15.6926  -21.6474    0.5811 C   0  0  0  0  0  0  0  0  0  0  0  0
  -14.9281  -22.8745    0.6452 N   0  0  0  0  0  0  0  0  0  0  0  0
  -13.5846  -22.5649    1.0888 C   0  0  0  0  0  0  0  0  0  0  0  0
  -14.6025  -25.1913    0.0039 N   0  0  0  0  0  0  0  0  0  0  0  0
  -16.4006  -26.6813   -0.2898 C   0  0  0  0  0  0  0  0  0  0  0  0
  -14.3428  -17.1983   -2.2343 H   0  0  0  0  0  0  0  0  0  0  0  0
 12  1  1  0
 13  1  1  0
 15  2  1  0
 16  2  1  1
 26  3  2  0
  3 27  1  0
  7  4  2  0
  4  8  1  0
  5  9  2  0
  5 10  1  0
 15  5  1  1
 18  6  1  0
  6 21  1  0
  6 22  2  0
 24  7  1  0
  7 26  1  0
  8 27  2  0
 10 11  1  0
 12 11  1  1
 12 13  1  0
 13 14  1  6
 16 15  1  0
 17 16  1  0
 17 18  1  0
 17 19  1  0
 17 23  1  1
 19 20  1  6
 19 25  1  0
 20 21  1  0
 23 24  1  0
 24 25  1  0
 22 28  1  0
M  END
$$$$
