
     RDKit          3D

 28 32  0  0  0  0  0  0  0  0999 V2000
  -15.8459  -12.1055    1.3438 C   0  0  0  0  0  0  0  0  0  0  0  0
  -17.0840  -18.9645    1.5105 C   0  0  0  0  0  0  0  0  0  0  0  0
  -14.6959  -25.8646    1.4508 C   0  0  0  0  0  0  0  0  0  0  0  0
  -16.5988  -24.1138    0.7062 N   0  0  0  0  0  0  0  0  0  0  0  0
  -16.0828  -16.7164    2.2157 C   0  0  0  0  0  0  0  0  0  0  0  0
  -14.1939  -18.7559   -1.7082 C   0  0  0  0  0  0  0  0  0  0  0  0
  -15.3779  -23.6343    1.0448 C   0  0  0  0  0  0  0  0  0  0  0  0
  -16.8985  -25.4247    0.7267 C   0  0  0  0  0  0  0  0  0  0  0  0
  -15.2878  -16.7827    3.1885 O   0  0  0  0  0  0  0  0  0  0  0  0
  -16.9235  -15.5669    2.1647 N   0  0  0  0  0  0  0  0  0  0  0  0
  -16.6808  -14.4874    1.2252 C   0  0  0  0  0  0  0  0  0  0  0  0
  -15.5780  -13.5697    1.6974 C   0  0  1  0  0  0  0  0  0  0  0  0
  -14.7067  -12.8694    0.7304 C   0  0  2  0  0  0  0  0  0  0  0  0
  -13.3020  -12.5188    1.1888 C   0  0  0  0  0  0  0  0  0  0  0  0
  -16.1201  -17.7839    1.2002 C   0  0  1  0  0  0  0  0  0  0  0  0
  -15.5739  -19.1306    1.4944 C   0  0  2  0  0  0  0  0  0  0  0  0
  -15.0832  -19.9734    0.3334 C   0  0  1  0  0  0  0  0  0  0  0  0
  -15.2416  -19.2056   -0.8588 N   0  0  0  0  0  0  0  0  0  0  0  0
  -13.7138  -20.4669    0.6096 C   0  0  2  0  0  0  0  0  0  0  0  0
  -13.0921  -21.1475   -0.5914 C   0  0  0  0  0  0  0  0  0  0  0  0
  -12.7337  -19.8020   -1.7897 S   0  0  0  0  0  0  0  0  0  0  0  0
  -14.2990  -17.6609   -2.3744 N   0  0  0  0  0  0  0  0  0  0  0  0
  -15.9209  -21.2428    0.3422 C   0  0  0  0  0  0  0  0  0  0  0  0
  -15.1104  -22.2405    1.0071 N   0  0  0  0  0  0  0  0  0  0  0  0
  -13.9791  -21.5841    1.6291 C   0  0  0  0  0  0  0  0  0  0  0  0
  -14.4583  -24.5420    1.4100 N   0  0  0  0  0  0  0  0  0  0  0  0
  -15.9421  -26.3433    1.1043 C   0  0  0  0  0  0  0  0  0  0  0  0
  -13.8551  -17.6294   -3.3210 H   0  0  0  0  0  0  0  0  0  0  0  0
 12  1  1  0
 13  1  1  0
 15  2  1  0
 16  2  1  6
 26  3  2  0
  3 27  1  0
  7  4  2  0
  4  8  1  0
  5  9  2  0
  5 10  1  0
 15  5  1  1
 18  6  1  0
  6 21  1  0
  6 22  2  0
 24  7  1  0
  7 26  1  0
  8 27  2  0
 10 11  1  0
 12 11  1  6
 12 13  1  0
 13 14  1  1
 16 15  1  0
 17 16  1  0
 17 18  1  0
 17 19  1  0
 17 23  1  6
 19 20  1  6
 19 25  1  0
 20 21  1  0
 23 24  1  0
 24 25  1  0
 22 28  1  0
M  END
$$$$
