
     RDKit          3D

 28 32  0  0  0  0  0  0  0  0999 V2000
  -16.3799  -14.0541    0.9086 C   0  0  0  0  0  0  0  0  0  0  0  0
  -16.8198  -18.6460    1.3539 C   0  0  0  0  0  0  0  0  0  0  0  0
  -17.0709  -25.4553    0.2991 C   0  0  0  0  0  0  0  0  0  0  0  0
  -14.5479  -24.6936    0.8424 N   0  0  0  0  0  0  0  0  0  0  0  0
  -15.3908  -16.9906    2.6848 C   0  0  0  0  0  0  0  0  0  0  0  0
  -14.0031  -18.6899   -1.6030 C   0  0  0  0  0  0  0  0  0  0  0  0
  -15.4872  -23.7338    0.6633 C   0  0  0  0  0  0  0  0  0  0  0  0
  -14.8233  -26.0073    0.7601 C   0  0  0  0  0  0  0  0  0  0  0  0
  -14.5715  -17.3028    3.5871 O   0  0  0  0  0  0  0  0  0  0  0  0
  -16.1716  -15.8216    2.9182 N   0  0  0  0  0  0  0  0  0  0  0  0
  -15.5566  -14.5483    3.2458 C   0  0  0  0  0  0  0  0  0  0  0  0
  -15.9238  -13.4746    2.2491 C   0  0  1  0  0  0  0  0  0  0  0  0
  -15.1120  -13.2574    1.0331 C   0  0  2  0  0  0  0  0  0  0  0  0
  -15.1046  -11.8577    0.4441 C   0  0  0  0  0  0  0  0  0  0  0  0
  -15.5141  -17.8080    1.4647 C   0  0  1  0  0  0  0  0  0  0  0  0
  -15.4546  -19.2880    1.5334 C   0  0  2  0  0  0  0  0  0  0  0  0
  -14.9892  -20.0435    0.3040 C   0  0  1  0  0  0  0  0  0  0  0  0
  -15.0870  -19.1601   -0.8123 N   0  0  0  0  0  0  0  0  0  0  0  0
  -13.6523  -20.6336    0.5486 C   0  0  2  0  0  0  0  0  0  0  0  0
  -13.0470  -21.2313   -0.7038 C   0  0  0  0  0  0  0  0  0  0  0  0
  -12.5985  -19.8008   -1.7655 S   0  0  0  0  0  0  0  0  0  0  0  0
  -14.0394  -17.5333   -2.1642 N   0  0  0  0  0  0  0  0  0  0  0  0
  -15.8922  -21.2613    0.1830 C   0  0  0  0  0  0  0  0  0  0  0  0
  -15.1465  -22.3590    0.7604 N   0  0  0  0  0  0  0  0  0  0  0  0
  -13.9930  -21.8254    1.4549 C   0  0  0  0  0  0  0  0  0  0  0  0
  -16.7325  -24.1576    0.3943 N   0  0  0  0  0  0  0  0  0  0  0  0
  -16.1077  -26.4251    0.4830 C   0  0  0  0  0  0  0  0  0  0  0  0
  -13.4522  -17.3946   -3.0185 H   0  0  0  0  0  0  0  0  0  0  0  0
 12  1  1  0
 13  1  1  0
 15  2  1  0
 16  2  1  6
 26  3  2  0
  3 27  1  0
  7  4  2  0
  4  8  1  0
  5  9  2  0
  5 10  1  0
 15  5  1  1
 18  6  1  0
  6 21  1  0
  6 22  2  0
 24  7  1  0
  7 26  1  0
  8 27  2  0
 10 11  1  0
 12 11  1  1
 12 13  1  0
 13 14  1  6
 16 15  1  0
 17 16  1  0
 17 18  1  0
 17 19  1  0
 17 23  1  6
 19 20  1  6
 19 25  1  0
 20 21  1  0
 23 24  1  0
 24 25  1  0
 22 28  1  0
M  END
$$$$
