
     RDKit          3D

 28 32  0  0  0  0  0  0  0  0999 V2000
  -14.5543  -13.8137    0.1589 C   0  0  0  0  0  0  0  0  0  0  0  0
  -16.6533  -19.0762    2.0191 C   0  0  0  0  0  0  0  0  0  0  0  0
  -18.0384  -24.9608    0.8174 C   0  0  0  0  0  0  0  0  0  0  0  0
  -15.3802  -24.6715    0.5156 N   0  0  0  0  0  0  0  0  0  0  0  0
  -15.5240  -16.8514    2.5924 C   0  0  0  0  0  0  0  0  0  0  0  0
  -13.7744  -18.8599   -1.4882 C   0  0  0  0  0  0  0  0  0  0  0  0
  -16.1248  -23.5681    0.7676 C   0  0  0  0  0  0  0  0  0  0  0  0
  -15.9128  -25.9018    0.4103 C   0  0  0  0  0  0  0  0  0  0  0  0
  -16.0952  -16.9131    3.7117 O   0  0  0  0  0  0  0  0  0  0  0  0
  -14.6523  -15.7425    2.3888 N   0  0  0  0  0  0  0  0  0  0  0  0
  -15.1077  -14.3750    2.5595 C   0  0  0  0  0  0  0  0  0  0  0  0
  -15.6122  -13.7855    1.2637 C   0  0  1  0  0  0  0  0  0  0  0  0
  -15.0565  -12.5211    0.7374 C   0  0  2  0  0  0  0  0  0  0  0  0
  -15.9663  -11.6718   -0.1328 C   0  0  0  0  0  0  0  0  0  0  0  0
  -15.7625  -17.8837    1.5679 C   0  0  1  0  0  0  0  0  0  0  0  0
  -15.1758  -19.2385    1.7047 C   0  0  2  0  0  0  0  0  0  0  0  0
  -14.9235  -20.0401    0.4426 C   0  0  1  0  0  0  0  0  0  0  0  0
  -14.8940  -19.1272   -0.6537 N   0  0  0  0  0  0  0  0  0  0  0  0
  -13.7203  -20.8875    0.6133 C   0  0  2  0  0  0  0  0  0  0  0  0
  -13.3008  -21.5612   -0.6759 C   0  0  0  0  0  0  0  0  0  0  0  0
  -12.6257  -20.2209   -1.7354 S   0  0  0  0  0  0  0  0  0  0  0  0
  -13.6061  -17.7052   -2.0288 N   0  0  0  0  0  0  0  0  0  0  0  0
  -16.0539  -21.0530    0.3461 C   0  0  0  0  0  0  0  0  0  0  0  0
  -15.5152  -22.2900    0.8697 N   0  0  0  0  0  0  0  0  0  0  0  0
  -14.2495  -22.0111    1.5162 C   0  0  0  0  0  0  0  0  0  0  0  0
  -17.4462  -23.7575    0.9112 N   0  0  0  0  0  0  0  0  0  0  0  0
  -17.2720  -26.0784    0.5606 C   0  0  0  0  0  0  0  0  0  0  0  0
  -14.3184  -16.9681   -1.8202 H   0  0  0  0  0  0  0  0  0  0  0  0
 12  1  1  0
 13  1  1  0
 15  2  1  0
 16  2  1  1
 26  3  2  0
  3 27  1  0
  7  4  2  0
  4  8  1  0
  5  9  2  0
  5 10  1  0
 15  5  1  1
 18  6  1  0
  6 21  1  0
  6 22  2  0
 24  7  1  0
  7 26  1  0
  8 27  2  0
 10 11  1  0
 12 11  1  1
 12 13  1  0
 13 14  1  6
 16 15  1  0
 17 16  1  0
 17 18  1  0
 17 19  1  0
 17 23  1  6
 19 20  1  6
 19 25  1  0
 20 21  1  0
 23 24  1  0
 24 25  1  0
 22 28  1  0
M  END
$$$$
