
     RDKit          3D

 28 32  0  0  0  0  0  0  0  0999 V2000
  -15.2744  -12.7700    0.4087 C   0  0  0  0  0  0  0  0  0  0  0  0
  -16.6238  -18.8557    1.7737 C   0  0  0  0  0  0  0  0  0  0  0  0
  -18.4361  -24.8167    1.1617 C   0  0  0  0  0  0  0  0  0  0  0  0
  -15.7893  -24.7263    0.6850 N   0  0  0  0  0  0  0  0  0  0  0  0
  -15.1907  -16.7939    2.2728 C   0  0  0  0  0  0  0  0  0  0  0  0
  -13.8184  -19.2042   -1.7003 C   0  0  0  0  0  0  0  0  0  0  0  0
  -16.4416  -23.5635    0.9255 C   0  0  0  0  0  0  0  0  0  0  0  0
  -16.4078  -25.9204    0.6746 C   0  0  0  0  0  0  0  0  0  0  0  0
  -15.4515  -16.9402    3.4948 O   0  0  0  0  0  0  0  0  0  0  0  0
  -14.5427  -15.5786    1.9066 N   0  0  0  0  0  0  0  0  0  0  0  0
  -14.9972  -14.2935    2.4053 C   0  0  0  0  0  0  0  0  0  0  0  0
  -15.9732  -13.6370    1.4579 C   0  0  1  0  0  0  0  0  0  0  0  0
  -16.1651  -12.1714    1.4605 C   0  0  2  0  0  0  0  0  0  0  0  0
  -17.5192  -11.6478    1.0152 C   0  0  0  0  0  0  0  0  0  0  0  0
  -15.5477  -17.8390    1.2968 C   0  0  1  0  0  0  0  0  0  0  0  0
  -15.1780  -19.2555    1.5324 C   0  0  2  0  0  0  0  0  0  0  0  0
  -15.0070  -20.1605    0.3280 C   0  0  1  0  0  0  0  0  0  0  0  0
  -14.9367  -19.3323   -0.8319 N   0  0  0  0  0  0  0  0  0  0  0  0
  -13.8618  -21.0759    0.5413 C   0  0  2  0  0  0  0  0  0  0  0  0
  -13.5157  -21.8674   -0.7019 C   0  0  0  0  0  0  0  0  0  0  0  0
  -12.7713  -20.6566   -1.8657 S   0  0  0  0  0  0  0  0  0  0  0  0
  -13.5819  -18.1055   -2.3255 N   0  0  0  0  0  0  0  0  0  0  0  0
  -16.2062  -21.0960    0.3222 C   0  0  0  0  0  0  0  0  0  0  0  0
  -15.7435  -22.3273    0.9257 N   0  0  0  0  0  0  0  0  0  0  0  0
  -14.4488  -22.0926    1.5311 C   0  0  0  0  0  0  0  0  0  0  0  0
  -17.7608  -23.6542    1.1584 N   0  0  0  0  0  0  0  0  0  0  0  0
  -17.7633  -25.9953    0.9158 C   0  0  0  0  0  0  0  0  0  0  0  0
  -13.1907  -18.1772   -3.2929 H   0  0  0  0  0  0  0  0  0  0  0  0
 12  1  1  0
 13  1  1  0
 15  2  1  0
 16  2  1  1
 26  3  2  0
  3 27  1  0
  7  4  2  0
  4  8  1  0
  5  9  2  0
  5 10  1  0
 15  5  1  1
 18  6  1  0
  6 21  1  0
  6 22  2  0
 24  7  1  0
  7 26  1  0
  8 27  2  0
 10 11  1  0
 12 11  1  1
 12 13  1  0
 13 14  1  6
 16 15  1  0
 17 16  1  0
 17 18  1  0
 17 19  1  0
 17 23  1  6
 19 20  1  6
 19 25  1  0
 20 21  1  0
 23 24  1  0
 24 25  1  0
 22 28  1  0
M  END
$$$$
