
     RDKit          3D

 28 32  0  0  0  0  0  0  0  0999 V2000
  -14.5496  -12.8682    3.9582 C   0  0  0  0  0  0  0  0  0  0  0  0
  -16.4362  -18.3612    0.5974 C   0  0  0  0  0  0  0  0  0  0  0  0
  -17.0260  -25.2603    1.1830 C   0  0  0  0  0  0  0  0  0  0  0  0
  -14.5947  -24.4274    1.9805 N   0  0  0  0  0  0  0  0  0  0  0  0
  -14.9980  -16.5229    1.6490 C   0  0  0  0  0  0  0  0  0  0  0  0
  -13.4276  -19.3148   -1.9548 C   0  0  0  0  0  0  0  0  0  0  0  0
  -15.4099  -23.5396    1.3619 C   0  0  0  0  0  0  0  0  0  0  0  0
  -14.9490  -25.7039    2.2119 C   0  0  0  0  0  0  0  0  0  0  0  0
  -14.1160  -16.5368    2.5461 O   0  0  0  0  0  0  0  0  0  0  0  0
  -15.8930  -15.4140    1.6607 N   0  0  0  0  0  0  0  0  0  0  0  0
  -15.4270  -14.0624    1.9117 C   0  0  0  0  0  0  0  0  0  0  0  0
  -15.7220  -13.6204    3.3255 C   0  0  1  0  0  0  0  0  0  0  0  0
  -14.9967  -14.2077    4.4717 C   0  0  2  0  0  0  0  0  0  0  0  0
  -15.7185  -14.2395    5.8074 C   0  0  0  0  0  0  0  0  0  0  0  0
  -15.0768  -17.6076    0.6543 C   0  0  1  0  0  0  0  0  0  0  0  0
  -15.1584  -19.0250    1.0820 C   0  0  2  0  0  0  0  0  0  0  0  0
  -14.6471  -20.0900    0.1316 C   0  0  1  0  0  0  0  0  0  0  0  0
  -14.5989  -19.5196   -1.1755 N   0  0  0  0  0  0  0  0  0  0  0  0
  -13.3748  -20.6537    0.6403 C   0  0  2  0  0  0  0  0  0  0  0  0
  -12.7123  -21.5781   -0.3589 C   0  0  0  0  0  0  0  0  0  0  0  0
  -12.0896  -20.4886   -1.7006 S   0  0  0  0  0  0  0  0  0  0  0  0
  -13.3445  -18.3406   -2.7904 N   0  0  0  0  0  0  0  0  0  0  0  0
  -15.6147  -21.2586    0.2381 C   0  0  0  0  0  0  0  0  0  0  0  0
  -14.9897  -22.2017    1.1404 N   0  0  0  0  0  0  0  0  0  0  0  0
  -13.8626  -21.5571    1.7822 C   0  0  0  0  0  0  0  0  0  0  0  0
  -16.6134  -23.9969    0.9806 N   0  0  0  0  0  0  0  0  0  0  0  0
  -16.1889  -26.1568    1.8137 C   0  0  0  0  0  0  0  0  0  0  0  0
  -12.5593  -18.3650   -3.4809 H   0  0  0  0  0  0  0  0  0  0  0  0
 12  1  1  0
 13  1  1  0
 15  2  1  0
 16  2  1  6
 26  3  2  0
  3 27  1  0
  7  4  2  0
  4  8  1  0
  5  9  2  0
  5 10  1  0
 15  5  1  1
 18  6  1  0
  6 21  1  0
  6 22  2  0
 24  7  1  0
  7 26  1  0
  8 27  2  0
 10 11  1  0
 12 11  1  6
 12 13  1  0
 13 14  1  1
 16 15  1  0
 17 16  1  0
 17 18  1  0
 17 19  1  0
 17 23  1  6
 19 20  1  6
 19 25  1  0
 20 21  1  0
 23 24  1  0
 24 25  1  0
 22 28  1  0
M  END
$$$$
