
     RDKit          3D

 28 32  0  0  0  0  0  0  0  0999 V2000
  -15.9470  -14.1347    3.9425 C   0  0  0  0  0  0  0  0  0  0  0  0
  -17.0411  -19.0090    1.2676 C   0  0  0  0  0  0  0  0  0  0  0  0
  -14.7427  -26.0640    1.5537 C   0  0  0  0  0  0  0  0  0  0  0  0
  -16.7083  -24.2672    1.1681 N   0  0  0  0  0  0  0  0  0  0  0  0
  -15.9056  -16.8171    1.9460 C   0  0  0  0  0  0  0  0  0  0  0  0
  -14.1177  -19.1724   -1.8392 C   0  0  0  0  0  0  0  0  0  0  0  0
  -15.4306  -23.8216    1.2334 C   0  0  0  0  0  0  0  0  0  0  0  0
  -17.0342  -25.5665    1.2877 C   0  0  0  0  0  0  0  0  0  0  0  0
  -15.5098  -17.0166    3.1234 O   0  0  0  0  0  0  0  0  0  0  0  0
  -16.2822  -15.4808    1.6244 N   0  0  0  0  0  0  0  0  0  0  0  0
  -15.2994  -14.4181    1.5167 C   0  0  0  0  0  0  0  0  0  0  0  0
  -14.8779  -13.9037    2.8727 C   0  0  1  0  0  0  0  0  0  0  0  0
  -15.5645  -12.7522    3.4952 C   0  0  2  0  0  0  0  0  0  0  0  0
  -14.7579  -11.9024    4.4613 C   0  0  0  0  0  0  0  0  0  0  0  0
  -15.9659  -17.9239    0.9746 C   0  0  1  0  0  0  0  0  0  0  0  0
  -15.5517  -19.2947    1.3593 C   0  0  2  0  0  0  0  0  0  0  0  0
  -15.0591  -20.2262    0.2691 C   0  0  1  0  0  0  0  0  0  0  0  0
  -15.1858  -19.5425   -0.9770 N   0  0  0  0  0  0  0  0  0  0  0  0
  -13.7031  -20.7220    0.6015 C   0  0  2  0  0  0  0  0  0  0  0  0
  -13.0760  -21.4968   -0.5379 C   0  0  0  0  0  0  0  0  0  0  0  0
  -12.6756  -20.2463   -1.8227 S   0  0  0  0  0  0  0  0  0  0  0  0
  -14.1930  -18.1260   -2.5830 N   0  0  0  0  0  0  0  0  0  0  0  0
  -15.9197  -21.4773    0.3543 C   0  0  0  0  0  0  0  0  0  0  0  0
  -15.1374  -22.4388    1.1012 N   0  0  0  0  0  0  0  0  0  0  0  0
  -14.0038  -21.7591    1.6933 C   0  0  0  0  0  0  0  0  0  0  0  0
  -14.4814  -24.7514    1.4267 N   0  0  0  0  0  0  0  0  0  0  0  0
  -16.0468  -26.5081    1.4858 C   0  0  0  0  0  0  0  0  0  0  0  0
  -13.8889  -18.2211   -3.5792 H   0  0  0  0  0  0  0  0  0  0  0  0
 12  1  1  0
 13  1  1  0
 15  2  1  0
 16  2  1  6
 26  3  2  0
  3 27  1  0
  7  4  2  0
  4  8  1  0
  5  9  2  0
  5 10  1  0
 15  5  1  1
 18  6  1  0
  6 21  1  0
  6 22  2  0
 24  7  1  0
  7 26  1  0
  8 27  2  0
 10 11  1  0
 12 11  1  6
 12 13  1  0
 13 14  1  1
 16 15  1  0
 17 16  1  0
 17 18  1  0
 17 19  1  0
 17 23  1  6
 19 20  1  6
 19 25  1  0
 20 21  1  0
 23 24  1  0
 24 25  1  0
 22 28  1  0
M  END
$$$$
