
     RDKit          3D

 28 32  0  0  0  0  0  0  0  0999 V2000
  -16.6211  -13.6110    2.8822 C   0  0  0  0  0  0  0  0  0  0  0  0
  -16.1709  -19.3235    1.3385 C   0  0  0  0  0  0  0  0  0  0  0  0
  -14.6939  -26.4435    0.8243 C   0  0  0  0  0  0  0  0  0  0  0  0
  -16.3351  -24.4562    0.0512 N   0  0  0  0  0  0  0  0  0  0  0  0
  -14.8341  -17.2837    2.1169 C   0  0  0  0  0  0  0  0  0  0  0  0
  -13.5190  -19.2482   -2.0690 C   0  0  0  0  0  0  0  0  0  0  0  0
  -15.0859  -24.1364    0.4667 C   0  0  0  0  0  0  0  0  0  0  0  0
  -16.7877  -25.7219    0.0092 C   0  0  0  0  0  0  0  0  0  0  0  0
  -15.2255  -17.5127    3.2904 O   0  0  0  0  0  0  0  0  0  0  0  0
  -14.1563  -16.0478    1.9072 N   0  0  0  0  0  0  0  0  0  0  0  0
  -14.8718  -14.8407    1.5360 C   0  0  0  0  0  0  0  0  0  0  0  0
  -16.2928  -14.8507    2.0478 C   0  0  1  0  0  0  0  0  0  0  0  0
  -16.5789  -14.9837    3.4919 C   0  0  2  0  0  0  0  0  0  0  0  0
  -17.9030  -15.6170    3.8818 C   0  0  0  0  0  0  0  0  0  0  0  0
  -15.0775  -18.2587    1.0387 C   0  0  1  0  0  0  0  0  0  0  0  0
  -14.7009  -19.6832    1.2045 C   0  0  2  0  0  0  0  0  0  0  0  0
  -14.4007  -20.4939   -0.0411 C   0  0  1  0  0  0  0  0  0  0  0  0
  -14.5498  -19.6312   -1.1679 N   0  0  0  0  0  0  0  0  0  0  0  0
  -13.0851  -21.1617    0.0945 C   0  0  2  0  0  0  0  0  0  0  0  0
  -12.6384  -21.8241   -1.1914 C   0  0  0  0  0  0  0  0  0  0  0  0
  -12.2063  -20.4489   -2.3301 S   0  0  0  0  0  0  0  0  0  0  0  0
  -13.5379  -18.1044   -2.6566 N   0  0  0  0  0  0  0  0  0  0  0  0
  -15.3835  -21.6546   -0.0432 C   0  0  0  0  0  0  0  0  0  0  0  0
  -14.6546  -22.7840    0.4929 N   0  0  0  0  0  0  0  0  0  0  0  0
  -13.4103  -22.3090    1.0618 C   0  0  0  0  0  0  0  0  0  0  0  0
  -14.3004  -25.1581    0.8434 N   0  0  0  0  0  0  0  0  0  0  0  0
  -15.9676  -26.7592    0.3996 C   0  0  0  0  0  0  0  0  0  0  0  0
  -13.0268  -18.0222   -3.5655 H   0  0  0  0  0  0  0  0  0  0  0  0
 12  1  1  0
 13  1  1  0
 15  2  1  0
 16  2  1  6
 26  3  2  0
  3 27  1  0
  7  4  2  0
  4  8  1  0
  5  9  2  0
  5 10  1  0
 15  5  1  1
 18  6  1  0
  6 21  1  0
  6 22  2  0
 24  7  1  0
  7 26  1  0
  8 27  2  0
 10 11  1  0
 12 11  1  1
 12 13  1  0
 13 14  1  6
 16 15  1  0
 17 16  1  0
 17 18  1  0
 17 19  1  0
 17 23  1  6
 19 20  1  6
 19 25  1  0
 20 21  1  0
 23 24  1  0
 24 25  1  0
 22 28  1  0
M  END
$$$$
