
     RDKit          3D

 28 32  0  0  0  0  0  0  0  0999 V2000
  -16.4368  -12.4011    2.5134 C   0  0  0  0  0  0  0  0  0  0  0  0
  -16.9644  -18.5852    1.2508 C   0  0  0  0  0  0  0  0  0  0  0  0
  -14.5626  -25.9359    0.8777 C   0  0  0  0  0  0  0  0  0  0  0  0
  -16.5906  -24.1709    0.7656 N   0  0  0  0  0  0  0  0  0  0  0  0
  -15.6580  -16.9165    2.6869 C   0  0  0  0  0  0  0  0  0  0  0  0
  -14.0593  -18.6558   -1.5270 C   0  0  0  0  0  0  0  0  0  0  0  0
  -15.3269  -23.6954    0.8763 C   0  0  0  0  0  0  0  0  0  0  0  0
  -16.8728  -25.4846    0.7096 C   0  0  0  0  0  0  0  0  0  0  0  0
  -14.7574  -17.0616    3.5533 O   0  0  0  0  0  0  0  0  0  0  0  0
  -16.6387  -15.9183    2.9567 N   0  0  0  0  0  0  0  0  0  0  0  0
  -16.2942  -14.6709    3.6142 C   0  0  0  0  0  0  0  0  0  0  0  0
  -15.6386  -13.6976    2.6634 C   0  0  1  0  0  0  0  0  0  0  0  0
  -16.2674  -13.3600    1.3691 C   0  0  2  0  0  0  0  0  0  0  0  0
  -15.3452  -12.9425    0.2371 C   0  0  0  0  0  0  0  0  0  0  0  0
  -15.6723  -17.7476    1.4699 C   0  0  1  0  0  0  0  0  0  0  0  0
  -15.6225  -19.2268    1.5604 C   0  0  2  0  0  0  0  0  0  0  0  0
  -15.0495  -19.9969    0.3867 C   0  0  1  0  0  0  0  0  0  0  0  0
  -15.1485  -19.1657   -0.7689 N   0  0  0  0  0  0  0  0  0  0  0  0
  -13.6913  -20.4875    0.7180 C   0  0  2  0  0  0  0  0  0  0  0  0
  -12.9877  -21.0917   -0.4786 C   0  0  0  0  0  0  0  0  0  0  0  0
  -12.5801  -19.6769   -1.5771 S   0  0  0  0  0  0  0  0  0  0  0  0
  -14.1419  -17.5267   -2.1371 N   0  0  0  0  0  0  0  0  0  0  0  0
  -15.8655  -21.2754    0.2746 C   0  0  0  0  0  0  0  0  0  0  0  0
  -15.0803  -22.2983    0.9316 N   0  0  0  0  0  0  0  0  0  0  0  0
  -13.9991  -21.6632    1.6564 C   0  0  0  0  0  0  0  0  0  0  0  0
  -14.3455  -24.6101    0.9289 N   0  0  0  0  0  0  0  0  0  0  0  0
  -15.8527  -26.4104    0.7650 C   0  0  0  0  0  0  0  0  0  0  0  0
  -13.7470  -17.4725   -3.1041 H   0  0  0  0  0  0  0  0  0  0  0  0
 12  1  1  0
 13  1  1  0
 15  2  1  0
 16  2  1  6
 26  3  2  0
  3 27  1  0
  7  4  2  0
  4  8  1  0
  5  9  2  0
  5 10  1  0
 15  5  1  1
 18  6  1  0
  6 21  1  0
  6 22  2  0
 24  7  1  0
  7 26  1  0
  8 27  2  0
 10 11  1  0
 12 11  1  1
 12 13  1  0
 13 14  1  6
 16 15  1  0
 17 16  1  0
 17 18  1  0
 17 19  1  0
 17 23  1  6
 19 20  1  6
 19 25  1  0
 20 21  1  0
 23 24  1  0
 24 25  1  0
 22 28  1  0
M  END
$$$$
