
     RDKit          3D

 28 32  0  0  0  0  0  0  0  0999 V2000
  -14.7786  -13.9206    1.1599 C   0  0  0  0  0  0  0  0  0  0  0  0
  -16.6570  -19.3114    1.7017 C   0  0  0  0  0  0  0  0  0  0  0  0
  -15.6969  -25.6595   -0.3449 C   0  0  0  0  0  0  0  0  0  0  0  0
  -14.3051  -24.5824    1.6907 N   0  0  0  0  0  0  0  0  0  0  0  0
  -15.8385  -17.0121    2.4742 C   0  0  0  0  0  0  0  0  0  0  0  0
  -13.8740  -18.6209   -1.6217 C   0  0  0  0  0  0  0  0  0  0  0  0
  -14.7966  -23.7558    0.7365 C   0  0  0  0  0  0  0  0  0  0  0  0
  -14.4834  -25.9151    1.6629 C   0  0  0  0  0  0  0  0  0  0  0  0
  -14.9681  -17.0440    3.3820 O   0  0  0  0  0  0  0  0  0  0  0  0
  -16.7960  -15.9596    2.5543 N   0  0  0  0  0  0  0  0  0  0  0  0
  -16.4183  -14.6157    2.9522 C   0  0  0  0  0  0  0  0  0  0  0  0
  -16.1732  -13.7247    1.7577 C   0  0  1  0  0  0  0  0  0  0  0  0
  -15.1810  -12.6307    1.8171 C   0  0  2  0  0  0  0  0  0  0  0  0
  -15.4161  -11.4305    0.9169 C   0  0  0  0  0  0  0  0  0  0  0  0
  -15.8428  -18.0211    1.3999 C   0  0  1  0  0  0  0  0  0  0  0  0
  -15.1432  -19.3169    1.5731 C   0  0  2  0  0  0  0  0  0  0  0  0
  -14.6569  -20.0393    0.3318 C   0  0  1  0  0  0  0  0  0  0  0  0
  -14.8787  -19.1807   -0.7860 N   0  0  0  0  0  0  0  0  0  0  0  0
  -13.2628  -20.5008    0.5284 C   0  0  2  0  0  0  0  0  0  0  0  0
  -12.6528  -21.0533   -0.7423 C   0  0  0  0  0  0  0  0  0  0  0  0
  -12.3797  -19.5989   -1.8308 S   0  0  0  0  0  0  0  0  0  0  0  0
  -14.0387  -17.4786   -2.1892 N   0  0  0  0  0  0  0  0  0  0  0  0
  -15.4471  -21.3365    0.2548 C   0  0  0  0  0  0  0  0  0  0  0  0
  -14.5814  -22.3544    0.8105 N   0  0  0  0  0  0  0  0  0  0  0  0
  -13.4567  -21.7092    1.4558 C   0  0  0  0  0  0  0  0  0  0  0  0
  -15.4846  -24.3347   -0.2607 N   0  0  0  0  0  0  0  0  0  0  0  0
  -15.1926  -26.4931    0.6313 C   0  0  0  0  0  0  0  0  0  0  0  0
  -13.9190  -17.4357   -3.2274 H   0  0  0  0  0  0  0  0  0  0  0  0
 12  1  1  0
 13  1  1  0
 15  2  1  0
 16  2  1  6
 26  3  2  0
  3 27  1  0
  7  4  2  0
  4  8  1  0
  5  9  2  0
  5 10  1  0
 15  5  1  1
 18  6  1  0
  6 21  1  0
  6 22  2  0
 24  7  1  0
  7 26  1  0
  8 27  2  0
 10 11  1  0
 12 11  1  1
 12 13  1  0
 13 14  1  6
 16 15  1  0
 17 16  1  0
 17 18  1  0
 17 19  1  0
 17 23  1  6
 19 20  1  6
 19 25  1  0
 20 21  1  0
 23 24  1  0
 24 25  1  0
 22 28  1  0
M  END
$$$$
