
     RDKit          3D

 28 32  0  0  0  0  0  0  0  0999 V2000
  -16.2242  -12.4078    2.5968 C   0  0  0  0  0  0  0  0  0  0  0  0
  -16.2753  -18.5736    2.1812 C   0  0  0  0  0  0  0  0  0  0  0  0
  -18.3848  -24.3181    0.8463 C   0  0  0  0  0  0  0  0  0  0  0  0
  -15.7076  -24.3811    1.1096 N   0  0  0  0  0  0  0  0  0  0  0  0
  -14.8006  -16.5517    2.7204 C   0  0  0  0  0  0  0  0  0  0  0  0
  -13.5454  -18.7965   -1.4002 C   0  0  0  0  0  0  0  0  0  0  0  0
  -16.3199  -23.1752    1.0306 C   0  0  0  0  0  0  0  0  0  0  0  0
  -16.3803  -25.5447    1.0619 C   0  0  0  0  0  0  0  0  0  0  0  0
  -15.0877  -16.7164    3.9341 O   0  0  0  0  0  0  0  0  0  0  0  0
  -14.0682  -15.3721    2.3994 N   0  0  0  0  0  0  0  0  0  0  0  0
  -14.3847  -14.0913    3.0046 C   0  0  0  0  0  0  0  0  0  0  0  0
  -15.0158  -13.1426    2.0133 C   0  0  1  0  0  0  0  0  0  0  0  0
  -16.3686  -13.3964    1.4746 C   0  0  2  0  0  0  0  0  0  0  0  0
  -16.6804  -12.8467    0.0937 C   0  0  0  0  0  0  0  0  0  0  0  0
  -15.2123  -17.5412    1.7087 C   0  0  1  0  0  0  0  0  0  0  0  0
  -14.8462  -18.9708    1.8524 C   0  0  2  0  0  0  0  0  0  0  0  0
  -14.7397  -19.8123    0.5955 C   0  0  1  0  0  0  0  0  0  0  0  0
  -14.6523  -18.9231   -0.5170 N   0  0  0  0  0  0  0  0  0  0  0  0
  -13.6346  -20.7895    0.7329 C   0  0  2  0  0  0  0  0  0  0  0  0
  -13.3486  -21.5234   -0.5599 C   0  0  0  0  0  0  0  0  0  0  0  0
  -12.5703  -20.2830   -1.6691 S   0  0  0  0  0  0  0  0  0  0  0  0
  -13.2696  -17.6757   -1.9674 N   0  0  0  0  0  0  0  0  0  0  0  0
  -15.9810  -20.6904    0.5623 C   0  0  0  0  0  0  0  0  0  0  0  0
  -15.5651  -21.9740    1.0857 N   0  0  0  0  0  0  0  0  0  0  0  0
  -14.2500  -21.8334    1.6760 C   0  0  0  0  0  0  0  0  0  0  0  0
  -17.6561  -23.1896    0.8999 N   0  0  0  0  0  0  0  0  0  0  0  0
  -17.7525  -25.5411    0.9275 C   0  0  0  0  0  0  0  0  0  0  0  0
  -12.7044  -17.7080   -2.8469 H   0  0  0  0  0  0  0  0  0  0  0  0
 12  1  1  0
 13  1  1  0
 15  2  1  0
 16  2  1  1
 26  3  2  0
  3 27  1  0
  7  4  2  0
  4  8  1  0
  5  9  2  0
  5 10  1  0
 15  5  1  1
 18  6  1  0
  6 21  1  0
  6 22  2  0
 24  7  1  0
  7 26  1  0
  8 27  2  0
 10 11  1  0
 12 11  1  1
 12 13  1  0
 13 14  1  6
 16 15  1  0
 17 16  1  0
 17 18  1  0
 17 19  1  0
 17 23  1  6
 19 20  1  6
 19 25  1  0
 20 21  1  0
 23 24  1  0
 24 25  1  0
 22 28  1  0
M  END
$$$$
