
     RDKit          3D

 28 32  0  0  0  0  0  0  0  0999 V2000
  -17.3905  -15.1331    2.7092 C   0  0  0  0  0  0  0  0  0  0  0  0
  -16.0326  -18.5890    0.2858 C   0  0  0  0  0  0  0  0  0  0  0  0
  -14.7872  -26.3773    0.8848 C   0  0  0  0  0  0  0  0  0  0  0  0
  -16.5592  -24.3996    0.4491 N   0  0  0  0  0  0  0  0  0  0  0  0
  -14.5155  -17.2713    1.8719 C   0  0  0  0  0  0  0  0  0  0  0  0
  -13.3077  -19.5241   -2.2927 C   0  0  0  0  0  0  0  0  0  0  0  0
  -15.2511  -24.0751    0.5868 C   0  0  0  0  0  0  0  0  0  0  0  0
  -17.0076  -25.6655    0.5209 C   0  0  0  0  0  0  0  0  0  0  0  0
  -14.1432  -17.7443    2.9766 O   0  0  0  0  0  0  0  0  0  0  0  0
  -14.8425  -15.8843    1.8570 N   0  0  0  0  0  0  0  0  0  0  0  0
  -14.8910  -15.1006    3.0778 C   0  0  0  0  0  0  0  0  0  0  0  0
  -16.2517  -15.1618    3.7304 C   0  0  1  0  0  0  0  0  0  0  0  0
  -17.1716  -14.0060    3.6785 C   0  0  2  0  0  0  0  0  0  0  0  0
  -18.1664  -13.8588    4.8164 C   0  0  0  0  0  0  0  0  0  0  0  0
  -14.5991  -18.1287    0.6760 C   0  0  1  0  0  0  0  0  0  0  0  0
  -14.9772  -19.5577    0.7917 C   0  0  2  0  0  0  0  0  0  0  0  0
  -14.4911  -20.5157   -0.2783 C   0  0  1  0  0  0  0  0  0  0  0  0
  -14.4648  -19.8074   -1.5168 N   0  0  0  0  0  0  0  0  0  0  0  0
  -13.2127  -21.1362    0.1409 C   0  0  2  0  0  0  0  0  0  0  0  0
  -12.5754  -21.9497   -0.9655 C   0  0  0  0  0  0  0  0  0  0  0  0
  -11.9722  -20.7240   -2.1937 S   0  0  0  0  0  0  0  0  0  0  0  0
  -13.2349  -18.4656   -3.0195 N   0  0  0  0  0  0  0  0  0  0  0  0
  -15.4637  -21.6850   -0.2794 C   0  0  0  0  0  0  0  0  0  0  0  0
  -14.8270  -22.7228    0.5029 N   0  0  0  0  0  0  0  0  0  0  0  0
  -13.6837  -22.1559    1.1879 C   0  0  0  0  0  0  0  0  0  0  0  0
  -14.4015  -25.0921    0.8028 N   0  0  0  0  0  0  0  0  0  0  0  0
  -16.1212  -26.6978    0.7432 C   0  0  0  0  0  0  0  0  0  0  0  0
  -13.1314  -18.5973   -4.0519 H   0  0  0  0  0  0  0  0  0  0  0  0
 12  1  1  0
 13  1  1  0
 15  2  1  0
 16  2  1  6
 26  3  2  0
  3 27  1  0
  7  4  2  0
  4  8  1  0
  5  9  2  0
  5 10  1  0
 15  5  1  1
 18  6  1  0
  6 21  1  0
  6 22  2  0
 24  7  1  0
  7 26  1  0
  8 27  2  0
 10 11  1  0
 12 11  1  6
 12 13  1  0
 13 14  1  1
 16 15  1  0
 17 16  1  0
 17 18  1  0
 17 19  1  0
 17 23  1  6
 19 20  1  6
 19 25  1  0
 20 21  1  0
 23 24  1  0
 24 25  1  0
 22 28  1  0
M  END
$$$$
