
     RDKit          3D

 28 32  0  0  0  0  0  0  0  0999 V2000
  -16.8422  -12.2268    2.1260 C   0  0  0  0  0  0  0  0  0  0  0  0
  -16.4747  -18.6096    2.1615 C   0  0  0  0  0  0  0  0  0  0  0  0
  -17.7733  -24.5455    1.2578 C   0  0  0  0  0  0  0  0  0  0  0  0
  -15.1211  -24.2292    0.9310 N   0  0  0  0  0  0  0  0  0  0  0  0
  -15.4142  -16.3175    2.5799 C   0  0  0  0  0  0  0  0  0  0  0  0
  -13.6449  -18.5038   -1.4084 C   0  0  0  0  0  0  0  0  0  0  0  0
  -15.8837  -23.1259    1.1221 C   0  0  0  0  0  0  0  0  0  0  0  0
  -15.6331  -25.4724    0.8980 C   0  0  0  0  0  0  0  0  0  0  0  0
  -15.8821  -16.3777    3.7462 O   0  0  0  0  0  0  0  0  0  0  0  0
  -14.6701  -15.1455    2.2579 N   0  0  0  0  0  0  0  0  0  0  0  0
  -15.0238  -13.8464    2.8002 C   0  0  0  0  0  0  0  0  0  0  0  0
  -15.5324  -12.9107    1.7293 C   0  0  1  0  0  0  0  0  0  0  0  0
  -16.7772  -13.2079    0.9898 C   0  0  2  0  0  0  0  0  0  0  0  0
  -16.8963  -12.6550   -0.4196 C   0  0  0  0  0  0  0  0  0  0  0  0
  -15.6394  -17.4140    1.6212 C   0  0  1  0  0  0  0  0  0  0  0  0
  -15.0002  -18.7374    1.8181 C   0  0  2  0  0  0  0  0  0  0  0  0
  -14.7493  -19.6000    0.5966 C   0  0  1  0  0  0  0  0  0  0  0  0
  -14.7493  -18.7458   -0.5464 N   0  0  0  0  0  0  0  0  0  0  0  0
  -13.5292  -20.4166    0.7957 C   0  0  2  0  0  0  0  0  0  0  0  0
  -13.1136  -21.1500   -0.4618 C   0  0  0  0  0  0  0  0  0  0  0  0
  -12.4754  -19.8561   -1.5989 S   0  0  0  0  0  0  0  0  0  0  0  0
  -13.5037  -17.3764   -2.0110 N   0  0  0  0  0  0  0  0  0  0  0  0
  -15.8626  -20.6357    0.5683 C   0  0  0  0  0  0  0  0  0  0  0  0
  -15.2957  -21.8340    1.1489 N   0  0  0  0  0  0  0  0  0  0  0  0
  -14.0273  -21.4999    1.7632 C   0  0  0  0  0  0  0  0  0  0  0  0
  -17.2014  -23.3290    1.2807 N   0  0  0  0  0  0  0  0  0  0  0  0
  -16.9886  -25.6629    1.0626 C   0  0  0  0  0  0  0  0  0  0  0  0
  -13.1648  -17.3990   -3.0003 H   0  0  0  0  0  0  0  0  0  0  0  0
 12  1  1  0
 13  1  1  0
 15  2  1  0
 16  2  1  1
 26  3  2  0
  3 27  1  0
  7  4  2  0
  4  8  1  0
  5  9  2  0
  5 10  1  0
 15  5  1  1
 18  6  1  0
  6 21  1  0
  6 22  2  0
 24  7  1  0
  7 26  1  0
  8 27  2  0
 10 11  1  0
 12 11  1  1
 12 13  1  0
 13 14  1  6
 16 15  1  0
 17 16  1  0
 17 18  1  0
 17 19  1  0
 17 23  1  6
 19 20  1  6
 19 25  1  0
 20 21  1  0
 23 24  1  0
 24 25  1  0
 22 28  1  0
M  END
$$$$
