
     RDKit          3D

 28 32  0  0  0  0  0  0  0  0999 V2000
  -15.6123  -13.5922    0.6057 C   0  0  0  0  0  0  0  0  0  0  0  0
  -16.4964  -18.7374    1.4701 C   0  0  0  0  0  0  0  0  0  0  0  0
  -15.3872  -26.1196    1.4699 C   0  0  0  0  0  0  0  0  0  0  0  0
  -16.9715  -24.0643    0.7585 N   0  0  0  0  0  0  0  0  0  0  0  0
  -14.9585  -16.9042    2.3800 C   0  0  0  0  0  0  0  0  0  0  0  0
  -13.7090  -19.1813   -1.6597 C   0  0  0  0  0  0  0  0  0  0  0  0
  -15.6826  -23.8028    1.0837 C   0  0  0  0  0  0  0  0  0  0  0  0
  -17.4906  -25.3048    0.7763 C   0  0  0  0  0  0  0  0  0  0  0  0
  -15.0877  -17.2341    3.5872 O   0  0  0  0  0  0  0  0  0  0  0  0
  -14.5612  -15.5582    2.1325 N   0  0  0  0  0  0  0  0  0  0  0  0
  -15.0791  -14.4545    2.9201 C   0  0  0  0  0  0  0  0  0  0  0  0
  -15.9527  -13.5384    2.0963 C   0  0  1  0  0  0  0  0  0  0  0  0
  -15.3853  -12.3515    1.4223 C   0  0  2  0  0  0  0  0  0  0  0  0
  -16.3176  -11.1767    1.1838 C   0  0  0  0  0  0  0  0  0  0  0  0
  -15.2110  -17.8777    1.3027 C   0  0  1  0  0  0  0  0  0  0  0  0
  -15.1021  -19.3347    1.5556 C   0  0  2  0  0  0  0  0  0  0  0  0
  -14.7736  -20.2416    0.3857 C   0  0  1  0  0  0  0  0  0  0  0  0
  -14.8099  -19.4507   -0.8014 N   0  0  0  0  0  0  0  0  0  0  0  0
  -13.5061  -20.9635    0.6453 C   0  0  2  0  0  0  0  0  0  0  0  0
  -13.0213  -21.7328   -0.5651 C   0  0  0  0  0  0  0  0  0  0  0  0
  -12.4498  -20.4609   -1.7610 S   0  0  0  0  0  0  0  0  0  0  0  0
  -13.6318  -18.0803   -2.3198 N   0  0  0  0  0  0  0  0  0  0  0  0
  -15.8158  -21.3493    0.3975 C   0  0  0  0  0  0  0  0  0  0  0  0
  -15.1814  -22.4749    1.0494 N   0  0  0  0  0  0  0  0  0  0  0  0
  -13.9487  -22.0253    1.6625 C   0  0  0  0  0  0  0  0  0  0  0  0
  -14.9275  -24.8568    1.4325 N   0  0  0  0  0  0  0  0  0  0  0  0
  -16.7009  -26.3759    1.1370 C   0  0  0  0  0  0  0  0  0  0  0  0
  -13.1258  -18.1027   -3.2349 H   0  0  0  0  0  0  0  0  0  0  0  0
 12  1  1  0
 13  1  1  0
 15  2  1  0
 16  2  1  6
 26  3  2  0
  3 27  1  0
  7  4  2  0
  4  8  1  0
  5  9  2  0
  5 10  1  0
 15  5  1  1
 18  6  1  0
  6 21  1  0
  6 22  2  0
 24  7  1  0
  7 26  1  0
  8 27  2  0
 10 11  1  0
 12 11  1  1
 12 13  1  0
 13 14  1  6
 16 15  1  0
 17 16  1  0
 17 18  1  0
 17 19  1  0
 17 23  1  6
 19 20  1  6
 19 25  1  0
 20 21  1  0
 23 24  1  0
 24 25  1  0
 22 28  1  0
M  END
$$$$
