
     RDKit          3D

 48 50  0  0  0  0  0  0  0  0999 V2000
   16.2143   15.1283   15.3109 N   0  0  0  0  0  0  0  0  0  0  0  0
   15.9944   16.4333   15.0926 C   0  0  0  0  0  0  0  0  0  0  0  0
   16.9961   17.3214   15.1500 N   0  0  0  0  0  0  0  0  0  0  0  0
   18.2287   16.8792   15.4303 C   0  0  0  0  0  0  0  0  0  0  0  0
   18.4642   15.5406   15.6555 C   0  0  0  0  0  0  0  0  0  0  0  0
   17.4332   14.6214   15.5973 C   0  0  0  0  0  0  0  0  0  0  0  0
   17.6785   13.2402   15.8299 N   0  0  0  0  0  0  0  0  0  0  0  0
   19.7740   15.4228   15.9033 N   0  0  0  0  0  0  0  0  0  0  0  0
   20.3230   16.6488   15.8320 C   0  0  0  0  0  0  0  0  0  0  0  0
   19.3854   17.5686   15.5400 N   0  0  0  0  0  0  0  0  0  0  0  0
   19.5697   18.9976   15.3748 C   0  0  1  0  0  0  0  0  0  0  0  0
   18.5187   19.7085   16.1668 C   0  0  2  0  0  0  0  0  0  0  0  0
   18.0084   20.8159   15.4745 O   0  0  0  0  0  0  0  0  0  0  0  0
   19.3558   20.2738   17.3304 C   0  0  2  0  0  0  0  0  0  0  0  0
   18.7988   21.4365   17.8049 O   0  0  0  0  0  0  0  0  0  0  0  0
   20.6576   20.5120   16.5982 C   0  0  2  0  0  0  0  0  0  0  0  0
   20.8149   19.3122   15.9050 O   0  0  0  0  0  0  0  0  0  0  0  0
   21.8365   20.7059   17.4583 C   0  0  0  0  0  0  0  0  0  0  0  0
   22.6515   19.6294   17.6843 O   0  0  0  0  0  0  0  0  0  0  0  0
   17.9677   22.6702   20.1716 O   0  0  0  0  0  0  0  0  0  0  0  0
   18.9268   21.4632   19.4863 P   0  0  1  0  0  5  0  0  0  0  0  0
   18.4947   20.1293   20.0378 O   0  0  0  0  0  0  0  0  0  0  0  0
   20.5716   21.6797   19.8686 O   0  0  0  0  0  0  0  0  0  0  0  0
   23.5942   19.7414   19.0596 P   0  0  1  0  0  5  0  0  0  0  0  0
   22.9973   20.7038   20.0772 O   0  0  0  0  0  0  0  0  0  0  0  0
   23.8966   18.2270   19.7550 O   0  0  0  0  0  0  0  0  0  0  0  0
   25.0931   20.3879   18.6148 O   0  0  0  0  0  0  0  0  0  0  0  0
   25.9722   19.2941   17.6652 P   0  0  2  0  0  5  0  0  0  0  0  0
   27.3888   19.8057   17.4146 O   0  0  0  0  0  0  0  0  0  0  0  0
   25.2360   19.1841   16.1247 O   0  0  0  0  0  0  0  0  0  0  0  0
   26.0071   17.7495   18.2939 O   0  0  0  0  0  0  0  0  0  0  0  0
   26.4253   16.8484   17.3189 C   0  0  0  0  0  0  0  0  0  0  0  0
   27.7000   16.1561   17.7411 C   0  0  2  0  0  0  0  0  0  0  0  0
   27.5576   14.6670   17.6178 C   0  0  0  0  0  0  0  0  0  0  0  0
   27.8905   16.4604   19.2259 C   0  0  0  0  0  0  0  0  0  0  0  0
   28.8423   16.7369   16.9598 C   0  0  1  0  0  0  0  0  0  0  0  0
   28.9182   18.0821   17.2529 O   0  0  0  0  0  0  0  0  0  0  0  0
   30.1240   16.0070   17.3241 C   0  0  0  0  0  0  0  0  0  0  0  0
   30.0457   14.9210   17.9175 O   0  0  0  0  0  0  0  0  0  0  0  0
   31.3294   16.6148   16.9635 N   0  0  0  0  0  0  0  0  0  0  0  0
   32.6429   16.1946   17.1741 C   0  0  0  0  0  0  0  0  0  0  0  0
   32.9350   14.9144   17.8149 C   0  0  0  0  0  0  0  0  0  0  0  0
   33.4473   13.7744   17.0901 C   0  0  0  0  0  0  0  0  0  0  0  0
   32.8747   12.7517   16.7085 O   0  0  0  0  0  0  0  0  0  0  0  0
   34.8739   13.8434   16.7549 N   0  0  0  0  0  0  0  0  0  0  0  0
   35.4873   12.7833   16.0062 C   0  0  0  0  0  0  0  0  0  0  0  0
   36.9747   12.6666   16.1955 C   0  0  0  0  0  0  0  0  0  0  0  0
   37.3157   12.6658   17.5537 O   0  0  0  0  0  0  0  0  0  0  0  0
  1  2  2  0
  1  6  1  0
  2  3  1  0
  3  4  2  0
  4  5  1  0
  4 10  1  0
  5  6  2  0
  5  8  1  0
  6  7  1  0
  8  9  2  0
  9 10  1  0
 11 10  1  1
 11 12  1  0
 11 17  1  0
 12 13  1  6
 12 14  1  0
 14 15  1  6
 14 16  1  0
 15 21  1  0
 16 17  1  0
 16 18  1  1
 18 19  1  0
 19 24  1  0
 21 20  1  1
 21 22  2  0
 21 23  1  0
 24 25  2  0
 24 26  1  1
 24 27  1  0
 27 28  1  0
 28 29  2  0
 28 30  1  6
 28 31  1  0
 31 32  1  0
 32 33  1  0
 33 34  1  1
 33 35  1  0
 33 36  1  0
 36 37  1  1
 36 38  1  0
 38 39  2  0
 38 40  1  0
 40 41  1  0
 41 42  1  0
 42 43  1  0
 43 44  2  0
 43 45  1  0
 45 46  1  0
 46 47  1  0
 47 48  1  0
M  END
$$$$
