
     RDKit          3D

 48 50  0  0  0  0  0  0  0  0999 V2000
   20.6207   23.4468   26.0366 N   0  0  0  0  0  0  0  0  0  0  0  0
   20.6206   22.1442   26.3562 C   0  0  0  0  0  0  0  0  0  0  0  0
   20.0843   21.2316   25.5346 N   0  0  0  0  0  0  0  0  0  0  0  0
   19.5458   21.6466   24.3808 C   0  0  0  0  0  0  0  0  0  0  0  0
   19.5417   22.9825   24.0438 C   0  0  0  0  0  0  0  0  0  0  0  0
   20.0939   23.9268   24.8891 C   0  0  0  0  0  0  0  0  0  0  0  0
   20.0889   25.3051   24.5393 N   0  0  0  0  0  0  0  0  0  0  0  0
   18.9434   23.0703   22.8501 N   0  0  0  0  0  0  0  0  0  0  0  0
   18.5927   21.8291   22.4680 C   0  0  0  0  0  0  0  0  0  0  0  0
   18.9554   20.9291   23.4001 N   0  0  0  0  0  0  0  0  0  0  0  0
   18.7593   19.4925   23.3658 C   0  0  1  0  0  0  0  0  0  0  0  0
   17.3161   19.2149   23.0881 C   0  0  2  0  0  0  0  0  0  0  0  0
   16.8362   18.1463   23.8587 O   0  0  0  0  0  0  0  0  0  0  0  0
   17.3864   18.7040   21.6360 C   0  0  2  0  0  0  0  0  0  0  0  0
   16.3660   17.8187   21.3863 O   0  0  0  0  0  0  0  0  0  0  0  0
   18.7396   18.0300   21.6823 C   0  0  2  0  0  0  0  0  0  0  0  0
   19.5177   19.0024   22.3097 O   0  0  0  0  0  0  0  0  0  0  0  0
   19.3398   17.7341   20.3711 C   0  0  0  0  0  0  0  0  0  0  0  0
   19.8535   18.7776   19.6489 O   0  0  0  0  0  0  0  0  0  0  0  0
   17.7355   15.5167   20.5867 O   0  0  0  0  0  0  0  0  0  0  0  0
   16.8635   16.2670   21.8208 P   0  0  1  0  0  5  0  0  0  0  0  0
   17.7341   16.3506   23.0477 O   0  0  0  0  0  0  0  0  0  0  0  0
   15.4685   15.3803   22.2283 O   0  0  0  0  0  0  0  0  0  0  0  0
   20.5791   18.3419   18.2080 P   0  0  1  0  0  5  0  0  0  0  0  0
   19.5551   18.1265   17.1020 O   0  0  0  0  0  0  0  0  0  0  0  0
   21.7711   19.4462   17.7304 O   0  0  0  0  0  0  0  0  0  0  0  0
   21.3499   16.8537   18.4397 O   0  0  0  0  0  0  0  0  0  0  0  0
   22.8820   16.8407   17.7163 P   0  0  2  0  0  5  0  0  0  0  0  0
   22.8832   15.9761   16.4578 O   0  0  0  0  0  0  0  0  0  0  0  0
   23.9932   16.1051   18.7892 O   0  0  0  0  0  0  0  0  0  0  0  0
   23.4709   18.3652   17.3833 O   0  0  0  0  0  0  0  0  0  0  0  0
   23.7577   18.4784   16.0259 C   0  0  0  0  0  0  0  0  0  0  0  0
   24.3474   19.8340   15.7144 C   0  0  2  0  0  0  0  0  0  0  0  0
   23.2731   20.7916   15.2883 C   0  0  0  0  0  0  0  0  0  0  0  0
   25.2709   19.6424   14.5128 C   0  0  0  0  0  0  0  0  0  0  0  0
   25.1516   20.2900   16.8968 C   0  0  1  0  0  0  0  0  0  0  0  0
   26.3201   19.5585   16.9247 O   0  0  0  0  0  0  0  0  0  0  0  0
   25.4217   21.7803   16.7773 C   0  0  0  0  0  0  0  0  0  0  0  0
   25.6172   22.4373   17.8106 O   0  0  0  0  0  0  0  0  0  0  0  0
   25.4316   22.3263   15.4911 N   0  0  0  0  0  0  0  0  0  0  0  0
   25.7466   23.6179   15.0683 C   0  0  0  0  0  0  0  0  0  0  0  0
   26.3443   23.8610   13.7574 C   0  0  0  0  0  0  0  0  0  0  0  0
   25.6284   24.4973   12.6757 C   0  0  0  0  0  0  0  0  0  0  0  0
   24.8614   25.4621   12.6886 O   0  0  0  0  0  0  0  0  0  0  0  0
   25.8480   23.9023   11.3528 N   0  0  0  0  0  0  0  0  0  0  0  0
   25.1550   24.4219   10.2081 C   0  0  0  0  0  0  0  0  0  0  0  0
   26.0514   24.8569    9.0816 C   0  0  0  0  0  0  0  0  0  0  0  0
   26.6972   26.0625    9.3825 O   0  0  0  0  0  0  0  0  0  0  0  0
  1  2  2  0
  1  6  1  0
  2  3  1  0
  3  4  2  0
  4  5  1  0
  4 10  1  0
  5  6  2  0
  5  8  1  0
  6  7  1  0
  8  9  2  0
  9 10  1  0
 11 10  1  6
 11 12  1  0
 11 17  1  0
 12 13  1  1
 12 14  1  0
 14 15  1  1
 14 16  1  0
 15 21  1  0
 16 17  1  0
 16 18  1  6
 18 19  1  0
 19 24  1  0
 21 20  1  6
 21 22  2  0
 21 23  1  0
 24 25  2  0
 24 26  1  6
 24 27  1  0
 27 28  1  0
 28 29  2  0
 28 30  1  1
 28 31  1  0
 31 32  1  0
 32 33  1  0
 33 34  1  6
 33 35  1  0
 33 36  1  0
 36 37  1  6
 36 38  1  0
 38 39  2  0
 38 40  1  0
 40 41  1  0
 41 42  1  0
 42 43  1  0
 43 44  2  0
 43 45  1  0
 45 46  1  0
 46 47  1  0
 47 48  1  0
M  END
$$$$
