
     RDKit          3D

 48 50  0  0  0  0  0  0  0  0999 V2000
   20.2456   28.0934   21.4684 N   0  0  0  0  0  0  0  0  0  0  0  0
   20.3047   27.0482   22.3069 C   0  0  0  0  0  0  0  0  0  0  0  0
   20.5128   25.8062   21.8488 N   0  0  0  0  0  0  0  0  0  0  0  0
   20.6626   25.6269   20.5301 C   0  0  0  0  0  0  0  0  0  0  0  0
   20.6040   26.6946   19.6613 C   0  0  0  0  0  0  0  0  0  0  0  0
   20.3892   27.9772   20.1303 C   0  0  0  0  0  0  0  0  0  0  0  0
   20.3293   29.0778   19.2319 N   0  0  0  0  0  0  0  0  0  0  0  0
   20.7894   26.1948   18.4338 N   0  0  0  0  0  0  0  0  0  0  0  0
   20.9564   24.8648   18.5468 C   0  0  0  0  0  0  0  0  0  0  0  0
   20.8820   24.4885   19.8365 N   0  0  0  0  0  0  0  0  0  0  0  0
   21.0107   23.1482   20.3755 C   0  0  1  0  0  0  0  0  0  0  0  0
   19.6468   22.6395   20.7188 C   0  0  2  0  0  0  0  0  0  0  0  0
   19.6474   21.9300   21.9282 O   0  0  0  0  0  0  0  0  0  0  0  0
   19.4303   21.5965   19.6053 C   0  0  2  0  0  0  0  0  0  0  0  0
   18.6056   20.5885   20.0424 O   0  0  0  0  0  0  0  0  0  0  0  0
   20.8598   21.1373   19.4232 C   0  0  2  0  0  0  0  0  0  0  0  0
   21.5415   22.3526   19.3676 O   0  0  0  0  0  0  0  0  0  0  0  0
   21.1294   20.3996   18.1781 C   0  0  0  0  0  0  0  0  0  0  0  0
   21.2534   21.1179   17.0192 O   0  0  0  0  0  0  0  0  0  0  0  0
   16.1934   19.4438   19.2149 O   0  0  0  0  0  0  0  0  0  0  0  0
   17.0395   20.8777   19.4877 P   0  0  1  0  0  5  0  0  0  0  0  0
   16.2934   21.6934   20.5115 O   0  0  0  0  0  0  0  0  0  0  0  0
   17.1658   21.8085   18.0678 O   0  0  0  0  0  0  0  0  0  0  0  0
   22.6047   20.7490   16.1079 P   0  0  1  0  0  5  0  0  0  0  0  0
   22.2708   19.8111   14.9559 O   0  0  0  0  0  0  0  0  0  0  0  0
   23.4035   22.1362   15.5546 O   0  0  0  0  0  0  0  0  0  0  0  0
   23.6930   19.9160   17.1001 O   0  0  0  0  0  0  0  0  0  0  0  0
   23.4651   18.2410   16.9847 P   0  0  2  0  0  5  0  0  0  0  0  0
   22.1176   17.9171   16.3438 O   0  0  0  0  0  0  0  0  0  0  0  0
   23.4023   17.5821   18.5623 O   0  0  0  0  0  0  0  0  0  0  0  0
   24.7008   17.4575   16.1840 O   0  0  0  0  0  0  0  0  0  0  0  0
   25.8297   18.2707   16.1394 C   0  0  0  0  0  0  0  0  0  0  0  0
   26.9770   17.6357   16.8897 C   0  0  2  0  0  0  0  0  0  0  0  0
   27.2740   16.2701   16.3425 C   0  0  0  0  0  0  0  0  0  0  0  0
   26.5029   17.4417   18.3288 C   0  0  0  0  0  0  0  0  0  0  0  0
   28.1439   18.5795   16.8694 C   0  0  1  0  0  0  0  0  0  0  0  0
   27.8580   19.6283   17.7176 O   0  0  0  0  0  0  0  0  0  0  0  0
   29.3994   17.8368   17.2937 C   0  0  0  0  0  0  0  0  0  0  0  0
   30.1464   18.3574   18.1355 O   0  0  0  0  0  0  0  0  0  0  0  0
   29.6387   16.5953   16.6988 N   0  0  0  0  0  0  0  0  0  0  0  0
   30.4871   15.5608   17.0941 C   0  0  0  0  0  0  0  0  0  0  0  0
   31.8611   15.4791   16.6039 C   0  0  0  0  0  0  0  0  0  0  0  0
   32.4226   14.2714   16.0439 C   0  0  0  0  0  0  0  0  0  0  0  0
   32.9501   14.0735   14.9476 O   0  0  0  0  0  0  0  0  0  0  0  0
   32.3550   13.0941   16.9167 N   0  0  0  0  0  0  0  0  0  0  0  0
   32.7328   11.8043   16.4126 C   0  0  0  0  0  0  0  0  0  0  0  0
   34.1086   11.3544   16.8206 C   0  0  0  0  0  0  0  0  0  0  0  0
   34.3215   11.5491   18.1909 O   0  0  0  0  0  0  0  0  0  0  0  0
  1  2  2  0
  1  6  1  0
  2  3  1  0
  3  4  2  0
  4  5  1  0
  4 10  1  0
  5  6  2  0
  5  8  1  0
  6  7  1  0
  8  9  2  0
  9 10  1  0
 11 10  1  6
 11 12  1  0
 11 17  1  0
 12 13  1  1
 12 14  1  0
 14 15  1  1
 14 16  1  0
 15 21  1  0
 16 17  1  0
 16 18  1  6
 18 19  1  0
 19 24  1  0
 21 20  1  6
 21 22  2  0
 21 23  1  0
 24 25  2  0
 24 26  1  6
 24 27  1  0
 27 28  1  0
 28 29  2  0
 28 30  1  1
 28 31  1  0
 31 32  1  0
 32 33  1  0
 33 34  1  6
 33 35  1  0
 33 36  1  0
 36 37  1  1
 36 38  1  0
 38 39  2  0
 38 40  1  0
 40 41  1  0
 41 42  1  0
 42 43  1  0
 43 44  2  0
 43 45  1  0
 45 46  1  0
 46 47  1  0
 47 48  1  0
M  END
$$$$
