
     RDKit          3D

 48 50  0  0  0  0  0  0  0  0999 V2000
   25.6884  -27.8992   33.3594 N   0  0  0  0  0  0  0  0  0  0  0  0
   26.0097  -29.1201   33.8125 C   0  0  0  0  0  0  0  0  0  0  0  0
   27.2860  -29.4577   34.0418 N   0  0  0  0  0  0  0  0  0  0  0  0
   28.2407  -28.5476   33.8098 C   0  0  0  0  0  0  0  0  0  0  0  0
   27.9202  -27.2909   33.3449 C   0  0  0  0  0  0  0  0  0  0  0  0
   26.6045  -26.9392   33.1069 C   0  0  0  0  0  0  0  0  0  0  0  0
   26.2757  -25.6415   32.6273 N   0  0  0  0  0  0  0  0  0  0  0  0
   29.0755  -26.6278   33.2181 N   0  0  0  0  0  0  0  0  0  0  0  0
   30.0712  -27.4508   33.5932 C   0  0  0  0  0  0  0  0  0  0  0  0
   29.5791  -28.6469   33.9644 N   0  0  0  0  0  0  0  0  0  0  0  0
   30.3212  -29.8014   34.4334 C   0  0  1  0  0  0  0  0  0  0  0  0
   30.2336  -30.8771   33.3980 C   0  0  2  0  0  0  0  0  0  0  0  0
   30.0594  -32.1418   33.9780 O   0  0  0  0  0  0  0  0  0  0  0  0
   31.6646  -30.8564   32.8269 C   0  0  2  0  0  0  0  0  0  0  0  0
   32.0170  -32.1006   32.3633 O   0  0  0  0  0  0  0  0  0  0  0  0
   32.4191  -30.4699   34.0795 C   0  0  2  0  0  0  0  0  0  0  0  0
   31.6487  -29.4102   34.5572 O   0  0  0  0  0  0  0  0  0  0  0  0
   33.7908  -29.9819   33.8620 C   0  0  0  0  0  0  0  0  0  0  0  0
   34.1381  -29.5815   32.5997 O   0  0  0  0  0  0  0  0  0  0  0  0
   29.7811  -32.7761   33.8991 O   0  0  0  0  0  0  0  0  0  0  0  0
   30.7047  -33.1456   32.5364 P   0  0  1  0  0  5  0  0  0  0  0  0
   29.8277  -33.0469   31.3152 O   0  0  0  0  0  0  0  0  0  0  0  0
   31.3219  -34.7305   32.6108 O   0  0  0  0  0  0  0  0  0  0  0  0
   35.7726  -29.3164   32.3741 P   0  0  1  0  0  5  0  0  0  0  0  0
   36.5506  -30.6224   32.2890 O   0  0  0  0  0  0  0  0  0  0  0  0
   36.0833  -28.3315   31.0318 O   0  0  0  0  0  0  0  0  0  0  0  0
   36.3621  -28.4986   33.7328 O   0  0  0  0  0  0  0  0  0  0  0  0
   36.8119  -26.9123   33.3430 P   0  0  2  0  0  5  0  0  0  0  0  0
   37.9115  -26.4124   34.2769 O   0  0  0  0  0  0  0  0  0  0  0  0
   35.4733  -25.8789   33.6025 O   0  0  0  0  0  0  0  0  0  0  0  0
   37.2638  -26.7243   31.7484 O   0  0  0  0  0  0  0  0  0  0  0  0
   37.7846  -25.4489   31.5488 C   0  0  0  0  0  0  0  0  0  0  0  0
   39.2299  -25.5227   31.1152 C   0  0  2  0  0  0  0  0  0  0  0  0
   39.3668  -26.3555   29.8741 C   0  0  0  0  0  0  0  0  0  0  0  0
   39.9813  -26.2560   32.2247 C   0  0  0  0  0  0  0  0  0  0  0  0
   39.7638  -24.1258   30.9869 C   0  0  1  0  0  0  0  0  0  0  0  0
   41.0469  -24.1124   31.4918 O   0  0  0  0  0  0  0  0  0  0  0  0
   39.7273  -23.7050   29.5276 C   0  0  0  0  0  0  0  0  0  0  0  0
   38.6418  -23.3745   29.0275 O   0  0  0  0  0  0  0  0  0  0  0  0
   40.9373  -23.7181   28.8289 N   0  0  0  0  0  0  0  0  0  0  0  0
   41.2055  -23.4075   27.4956 C   0  0  0  0  0  0  0  0  0  0  0  0
   42.0655  -22.2815   27.1385 C   0  0  0  0  0  0  0  0  0  0  0  0
   41.8662  -21.4910   25.9457 C   0  0  0  0  0  0  0  0  0  0  0  0
   40.9942  -21.5665   25.0779 O   0  0  0  0  0  0  0  0  0  0  0  0
   42.8575  -20.4306   25.7324 N   0  0  0  0  0  0  0  0  0  0  0  0
   42.8131  -19.6364   24.5375 C   0  0  0  0  0  0  0  0  0  0  0  0
   43.8484  -18.5474   24.4744 C   0  0  0  0  0  0  0  0  0  0  0  0
   44.2542  -18.3077   23.1558 O   0  0  0  0  0  0  0  0  0  0  0  0
  1  2  2  0
  1  6  1  0
  2  3  1  0
  3  4  2  0
  4  5  1  0
  4 10  1  0
  5  6  2  0
  5  8  1  0
  6  7  1  0
  8  9  2  0
  9 10  1  0
 11 10  1  6
 11 12  1  0
 11 17  1  0
 12 13  1  1
 12 14  1  0
 14 15  1  1
 14 16  1  0
 15 21  1  0
 16 17  1  0
 16 18  1  6
 18 19  1  0
 19 24  1  0
 21 20  1  1
 21 22  2  0
 21 23  1  0
 24 25  2  0
 24 26  1  6
 24 27  1  0
 27 28  1  0
 28 29  2  0
 28 30  1  6
 28 31  1  0
 31 32  1  0
 32 33  1  0
 33 34  1  6
 33 35  1  0
 33 36  1  0
 36 37  1  6
 36 38  1  0
 38 39  2  0
 38 40  1  0
 40 41  1  0
 41 42  1  0
 42 43  1  0
 43 44  2  0
 43 45  1  0
 45 46  1  0
 46 47  1  0
 47 48  1  0
M  END
$$$$
