
     RDKit          3D

 48 50  0  0  0  0  0  0  0  0999 V2000
   39.4123  -32.5368   37.3892 N   0  0  0  0  0  0  0  0  0  0  0  0
   38.6841  -33.0347   36.3788 C   0  0  0  0  0  0  0  0  0  0  0  0
   38.2432  -32.2445   35.3905 N   0  0  0  0  0  0  0  0  0  0  0  0
   38.5458  -30.9405   35.4299 C   0  0  0  0  0  0  0  0  0  0  0  0
   39.2937  -30.4202   36.4633 C   0  0  0  0  0  0  0  0  0  0  0  0
   39.7500  -31.2324   37.4848 C   0  0  0  0  0  0  0  0  0  0  0  0
   40.5220  -30.6934   38.5505 N   0  0  0  0  0  0  0  0  0  0  0  0
   39.4228  -29.1114   36.2161 N   0  0  0  0  0  0  0  0  0  0  0  0
   38.7756  -28.8388   35.0688 C   0  0  0  0  0  0  0  0  0  0  0  0
   38.2237  -29.9564   34.5621 N   0  0  0  0  0  0  0  0  0  0  0  0
   37.4480  -30.0856   33.3435 C   0  0  1  0  0  0  0  0  0  0  0  0
   36.0849  -29.5186   33.5837 C   0  0  2  0  0  0  0  0  0  0  0  0
   35.0857  -30.3008   32.9874 O   0  0  0  0  0  0  0  0  0  0  0  0
   36.1581  -28.2140   32.7670 C   0  0  2  0  0  0  0  0  0  0  0  0
   34.9122  -27.8618   32.3079 O   0  0  0  0  0  0  0  0  0  0  0  0
   37.0756  -28.6753   31.6565 C   0  0  2  0  0  0  0  0  0  0  0  0
   38.0831  -29.3207   32.3728 O   0  0  0  0  0  0  0  0  0  0  0  0
   37.6909  -27.5997   30.8617 C   0  0  0  0  0  0  0  0  0  0  0  0
   38.3830  -26.6239   31.5273 O   0  0  0  0  0  0  0  0  0  0  0  0
   32.6477  -26.9522   33.6712 O   0  0  0  0  0  0  0  0  0  0  0  0
   33.7689  -28.2012   33.5003 P   0  0  1  0  0  5  0  0  0  0  0  0
   33.0343  -29.4657   33.1374 O   0  0  0  0  0  0  0  0  0  0  0  0
   34.6143  -28.4847   34.9506 O   0  0  0  0  0  0  0  0  0  0  0  0
   37.6766  -25.1101   31.4827 P   0  0  1  0  0  5  0  0  0  0  0  0
   36.3877  -25.0637   32.2920 O   0  0  0  0  0  0  0  0  0  0  0  0
   38.7458  -23.8888   31.9660 O   0  0  0  0  0  0  0  0  0  0  0  0
   37.2446  -24.7817   29.8802 O   0  0  0  0  0  0  0  0  0  0  0  0
   38.2337  -23.5769   29.2160 P   0  0  2  0  0  5  0  0  0  0  0  0
   38.1110  -22.2751   30.0043 O   0  0  0  0  0  0  0  0  0  0  0  0
   37.6836  -23.2196   27.6359 O   0  0  0  0  0  0  0  0  0  0  0  0
   39.8321  -24.0329   29.0782 O   0  0  0  0  0  0  0  0  0  0  0  0
   40.3925  -23.4640   27.9380 C   0  0  0  0  0  0  0  0  0  0  0  0
   41.5969  -22.6248   28.2950 C   0  0  2  0  0  0  0  0  0  0  0  0
   42.7743  -23.0024   27.4440 C   0  0  0  0  0  0  0  0  0  0  0  0
   41.9622  -22.9766   29.7359 C   0  0  0  0  0  0  0  0  0  0  0  0
   41.2126  -21.1762   28.2147 C   0  0  1  0  0  0  0  0  0  0  0  0
   41.5968  -20.5680   29.3911 O   0  0  0  0  0  0  0  0  0  0  0  0
   41.8834  -20.5436   27.0072 C   0  0  0  0  0  0  0  0  0  0  0  0
   41.7945  -19.3171   26.8480 O   0  0  0  0  0  0  0  0  0  0  0  0
   42.5677  -21.3965   26.1372 N   0  0  0  0  0  0  0  0  0  0  0  0
   42.7828  -21.2901   24.7629 C   0  0  0  0  0  0  0  0  0  0  0  0
   43.7389  -20.3288   24.2183 C   0  0  0  0  0  0  0  0  0  0  0  0
   43.3514  -19.2529   23.3353 C   0  0  0  0  0  0  0  0  0  0  0  0
   42.2337  -18.8086   23.0657 O   0  0  0  0  0  0  0  0  0  0  0  0
   44.4625  -18.5826   22.6507 N   0  0  0  0  0  0  0  0  0  0  0  0
   44.2061  -17.7573   21.5045 C   0  0  0  0  0  0  0  0  0  0  0  0
   44.7974  -18.2722   20.2212 C   0  0  0  0  0  0  0  0  0  0  0  0
   44.5196  -19.6332   20.0436 O   0  0  0  0  0  0  0  0  0  0  0  0
  1  2  2  0
  1  6  1  0
  2  3  1  0
  3  4  2  0
  4  5  1  0
  4 10  1  0
  5  6  2  0
  5  8  1  0
  6  7  1  0
  8  9  2  0
  9 10  1  0
 11 10  1  1
 11 12  1  0
 11 17  1  0
 12 13  1  6
 12 14  1  0
 14 15  1  6
 14 16  1  0
 15 21  1  0
 16 17  1  0
 16 18  1  1
 18 19  1  0
 19 24  1  0
 21 20  1  1
 21 22  2  0
 21 23  1  0
 24 25  2  0
 24 26  1  1
 24 27  1  0
 27 28  1  0
 28 29  2  0
 28 30  1  6
 28 31  1  0
 31 32  1  0
 32 33  1  0
 33 34  1  6
 33 35  1  0
 33 36  1  0
 36 37  1  1
 36 38  1  0
 38 39  2  0
 38 40  1  0
 40 41  1  0
 41 42  1  0
 42 43  1  0
 43 44  2  0
 43 45  1  0
 45 46  1  0
 46 47  1  0
 47 48  1  0
M  END
$$$$
