
     RDKit          3D

 48 50  0  0  0  0  0  0  0  0999 V2000
   20.4235   21.4080   23.4357 N   0  0  0  0  0  0  0  0  0  0  0  0
   19.4660   21.1770   22.5252 C   0  0  0  0  0  0  0  0  0  0  0  0
   19.4919   21.7783   21.3280 N   0  0  0  0  0  0  0  0  0  0  0  0
   20.4983   22.6189   21.0554 C   0  0  0  0  0  0  0  0  0  0  0  0
   21.4864   22.8620   21.9841 C   0  0  0  0  0  0  0  0  0  0  0  0
   21.4628   22.2435   23.2203 C   0  0  0  0  0  0  0  0  0  0  0  0
   22.4838   22.4956   24.1774 N   0  0  0  0  0  0  0  0  0  0  0  0
   22.3328   23.7304   21.4183 N   0  0  0  0  0  0  0  0  0  0  0  0
   21.8784   24.0101   20.1834 C   0  0  0  0  0  0  0  0  0  0  0  0
   20.7424   23.3332   19.9349 N   0  0  0  0  0  0  0  0  0  0  0  0
   19.9449   23.3585   18.7239 C   0  0  1  0  0  0  0  0  0  0  0  0
   20.2395   24.6254   17.9855 C   0  0  2  0  0  0  0  0  0  0  0  0
   19.0777   25.1889   17.4388 O   0  0  0  0  0  0  0  0  0  0  0  0
   21.0620   24.0915   16.7968 C   0  0  2  0  0  0  0  0  0  0  0  0
   20.9010   24.8992   15.6973 O   0  0  0  0  0  0  0  0  0  0  0  0
   20.3963   22.7440   16.6281 C   0  0  2  0  0  0  0  0  0  0  0  0
   20.3536   22.2837   17.9438 O   0  0  0  0  0  0  0  0  0  0  0  0
   21.1476   21.7680   15.8219 C   0  0  0  0  0  0  0  0  0  0  0  0
   22.3369   21.3046   16.3173 O   0  0  0  0  0  0  0  0  0  0  0  0
   21.6770   27.3468   14.5923 O   0  0  0  0  0  0  0  0  0  0  0  0
   21.9019   26.2477   15.8523 P   0  0  1  0  0  5  0  0  0  0  0  0
   21.6041   26.9390   17.1575 O   0  0  0  0  0  0  0  0  0  0  0  0
   23.5078   25.6858   15.9121 O   0  0  0  0  0  0  0  0  0  0  0  0
   23.1147   20.1912   15.3437 P   0  0  1  0  0  5  0  0  0  0  0  0
   23.1762   20.6531   13.8943 O   0  0  0  0  0  0  0  0  0  0  0  0
   24.6557   19.7966   15.9252 O   0  0  0  0  0  0  0  0  0  0  0  0
   22.2048   18.7648   15.3507 O   0  0  0  0  0  0  0  0  0  0  0  0
   22.4611   17.8842   16.7754 P   0  0  2  0  0  5  0  0  0  0  0  0
   21.5599   16.6527   16.8246 O   0  0  0  0  0  0  0  0  0  0  0  0
   22.0049   18.8504   18.1116 O   0  0  0  0  0  0  0  0  0  0  0  0
   24.0557   17.4562   17.0123 O   0  0  0  0  0  0  0  0  0  0  0  0
   24.1800   16.7133   18.1830 C   0  0  0  0  0  0  0  0  0  0  0  0
   25.6043   16.2468   18.3724 C   0  0  2  0  0  0  0  0  0  0  0  0
   25.8978   16.0243   19.8274 C   0  0  0  0  0  0  0  0  0  0  0  0
   26.5036   17.3920   17.9102 C   0  0  0  0  0  0  0  0  0  0  0  0
   25.8352   15.0459   17.5023 C   0  0  1  0  0  0  0  0  0  0  0  0
   25.6467   15.4277   16.1908 O   0  0  0  0  0  0  0  0  0  0  0  0
   27.2387   14.5148   17.7392 C   0  0  0  0  0  0  0  0  0  0  0  0
   27.4529   13.8179   18.7422 O   0  0  0  0  0  0  0  0  0  0  0  0
   28.2158   14.8511   16.7986 N   0  0  0  0  0  0  0  0  0  0  0  0
   29.5467   14.4435   16.7043 C   0  0  0  0  0  0  0  0  0  0  0  0
   30.6151   15.4027   16.4335 C   0  0  0  0  0  0  0  0  0  0  0  0
   31.5074   15.2831   15.3035 C   0  0  0  0  0  0  0  0  0  0  0  0
   32.1539   16.1457   14.7057 O   0  0  0  0  0  0  0  0  0  0  0  0
   31.6708   13.9205   14.7847 N   0  0  0  0  0  0  0  0  0  0  0  0
   32.6550   13.6501   13.7753 C   0  0  0  0  0  0  0  0  0  0  0  0
   32.1023   13.5340   12.3815 C   0  0  0  0  0  0  0  0  0  0  0  0
   30.7367   13.8422   12.3489 O   0  0  0  0  0  0  0  0  0  0  0  0
  1  2  2  0
  1  6  1  0
  2  3  1  0
  3  4  2  0
  4  5  1  0
  4 10  1  0
  5  6  2  0
  5  8  1  0
  6  7  1  0
  8  9  2  0
  9 10  1  0
 11 10  1  1
 11 12  1  0
 11 17  1  0
 12 13  1  6
 12 14  1  0
 14 15  1  6
 14 16  1  0
 15 21  1  0
 16 17  1  0
 16 18  1  6
 18 19  1  0
 19 24  1  0
 21 20  1  6
 21 22  2  0
 21 23  1  0
 24 25  2  0
 24 26  1  1
 24 27  1  0
 27 28  1  0
 28 29  2  0
 28 30  1  1
 28 31  1  0
 31 32  1  0
 32 33  1  0
 33 34  1  1
 33 35  1  0
 33 36  1  0
 36 37  1  6
 36 38  1  0
 38 39  2  0
 38 40  1  0
 40 41  1  0
 41 42  1  0
 42 43  1  0
 43 44  2  0
 43 45  1  0
 45 46  1  0
 46 47  1  0
 47 48  1  0
M  END
$$$$
