
     RDKit          3D

 48 50  0  0  0  0  0  0  0  0999 V2000
   30.6102   16.9064   14.0988 N   0  0  0  0  0  0  0  0  0  0  0  0
   30.3261   18.2163   14.1496 C   0  0  0  0  0  0  0  0  0  0  0  0
   29.2432   18.6634   14.8000 N   0  0  0  0  0  0  0  0  0  0  0  0
   28.4452   17.7726   15.4027 C   0  0  0  0  0  0  0  0  0  0  0  0
   28.7292   16.4253   15.3563 C   0  0  0  0  0  0  0  0  0  0  0  0
   29.8455   15.9605   14.6861 C   0  0  0  0  0  0  0  0  0  0  0  0
   30.1370   14.5694   14.6396 N   0  0  0  0  0  0  0  0  0  0  0  0
   27.7599   15.8099   16.0435 N   0  0  0  0  0  0  0  0  0  0  0  0
   26.9100   16.7491   16.4964 C   0  0  0  0  0  0  0  0  0  0  0  0
   27.3133   17.9740   16.1123 N   0  0  0  0  0  0  0  0  0  0  0  0
   26.6751   19.2448   16.3969 C   0  0  1  0  0  0  0  0  0  0  0  0
   25.9227   19.6833   15.1810 C   0  0  2  0  0  0  0  0  0  0  0  0
   26.0556   21.0612   14.9580 O   0  0  0  0  0  0  0  0  0  0  0  0
   24.4676   19.4568   15.6348 C   0  0  2  0  0  0  0  0  0  0  0  0
   23.6232   20.3386   15.0051 O   0  0  0  0  0  0  0  0  0  0  0  0
   24.6247   19.7573   17.1088 C   0  0  2  0  0  0  0  0  0  0  0  0
   25.7677   19.0241   17.4258 O   0  0  0  0  0  0  0  0  0  0  0  0
   23.5237   19.2895   17.9667 C   0  0  0  0  0  0  0  0  0  0  0  0
   23.7417   18.1868   18.7483 O   0  0  0  0  0  0  0  0  0  0  0  0
   25.8673   21.8606   15.6844 O   0  0  0  0  0  0  0  0  0  0  0  0
   24.3873   21.8363   14.8747 P   0  0  1  0  0  5  0  0  0  0  0  0
   24.6257   22.1465   13.4197 O   0  0  0  0  0  0  0  0  0  0  0  0
   23.3184   23.0090   15.4917 O   0  0  0  0  0  0  0  0  0  0  0  0
   22.5449   17.0233   18.6672 P   0  0  1  0  0  5  0  0  0  0  0  0
   22.8914   15.9245   17.6718 O   0  0  0  0  0  0  0  0  0  0  0  0
   22.1756   16.3758   20.1880 O   0  0  0  0  0  0  0  0  0  0  0  0
   21.1362   17.7616   18.0902 O   0  0  0  0  0  0  0  0  0  0  0  0
   19.9074   17.7272   19.2563 P   0  0  2  0  0  5  0  0  0  0  0  0
   19.6115   16.2947   19.6941 O   0  0  0  0  0  0  0  0  0  0  0  0
   18.4608   18.3085   18.5518 O   0  0  0  0  0  0  0  0  0  0  0  0
   20.2215   18.6936   20.5790 O   0  0  0  0  0  0  0  0  0  0  0  0
   20.1437   20.0355   20.2169 C   0  0  0  0  0  0  0  0  0  0  0  0
   20.1518   20.9215   21.4405 C   0  0  2  0  0  0  0  0  0  0  0  0
   20.4747   22.3382   21.0641 C   0  0  0  0  0  0  0  0  0  0  0  0
   21.2931   20.4290   22.3283 C   0  0  0  0  0  0  0  0  0  0  0  0
   18.8468   20.7536   22.1626 C   0  0  1  0  0  0  0  0  0  0  0  0
   19.1208   20.3152   23.4409 O   0  0  0  0  0  0  0  0  0  0  0  0
   18.1004   22.0768   22.1678 C   0  0  0  0  0  0  0  0  0  0  0  0
   17.7439   22.5666   21.0858 O   0  0  0  0  0  0  0  0  0  0  0  0
   17.8598   22.6692   23.4103 N   0  0  0  0  0  0  0  0  0  0  0  0
   17.0865   23.7835   23.7370 C   0  0  0  0  0  0  0  0  0  0  0  0
   15.6492   23.8108   23.4757 C   0  0  0  0  0  0  0  0  0  0  0  0
   15.0906   23.6603   22.1518 C   0  0  0  0  0  0  0  0  0  0  0  0
   15.5928   23.2009   21.1241 O   0  0  0  0  0  0  0  0  0  0  0  0
   13.7076   24.1275   22.0061 N   0  0  0  0  0  0  0  0  0  0  0  0
   13.0054   23.9178   20.7718 C   0  0  0  0  0  0  0  0  0  0  0  0
   11.5873   24.4185   20.7689 C   0  0  0  0  0  0  0  0  0  0  0  0
   11.3531   25.2881   21.8412 O   0  0  0  0  0  0  0  0  0  0  0  0
  1  2  2  0
  1  6  1  0
  2  3  1  0
  3  4  2  0
  4  5  1  0
  4 10  1  0
  5  6  2  0
  5  8  1  0
  6  7  1  0
  8  9  2  0
  9 10  1  0
 11 10  1  6
 11 12  1  0
 11 17  1  0
 12 13  1  1
 12 14  1  0
 14 15  1  6
 14 16  1  0
 15 21  1  0
 16 17  1  0
 16 18  1  1
 18 19  1  0
 19 24  1  0
 21 20  1  1
 21 22  2  0
 21 23  1  0
 24 25  2  0
 24 26  1  1
 24 27  1  0
 27 28  1  0
 28 29  2  0
 28 30  1  6
 28 31  1  0
 31 32  1  0
 32 33  1  0
 33 34  1  6
 33 35  1  0
 33 36  1  0
 36 37  1  1
 36 38  1  0
 38 39  2  0
 38 40  1  0
 40 41  1  0
 41 42  1  0
 42 43  1  0
 43 44  2  0
 43 45  1  0
 45 46  1  0
 46 47  1  0
 47 48  1  0
M  END
$$$$
