
     RDKit          3D

 48 50  0  0  0  0  0  0  0  0999 V2000
   21.3800   25.6134   24.7018 N   0  0  0  0  0  0  0  0  0  0  0  0
   20.7080   25.8801   23.5720 C   0  0  0  0  0  0  0  0  0  0  0  0
   20.4578   24.9177   22.6738 N   0  0  0  0  0  0  0  0  0  0  0  0
   20.8930   23.6767   22.9269 C   0  0  0  0  0  0  0  0  0  0  0  0
   21.5836   23.3932   24.0849 C   0  0  0  0  0  0  0  0  0  0  0  0
   21.8438   24.3836   25.0137 C   0  0  0  0  0  0  0  0  0  0  0  0
   22.5565   24.0889   26.2083 N   0  0  0  0  0  0  0  0  0  0  0  0
   21.8738   22.0876   24.0429 N   0  0  0  0  0  0  0  0  0  0  0  0
   21.3772   21.5875   22.8971 C   0  0  0  0  0  0  0  0  0  0  0  0
   20.7645   22.5530   22.1881 N   0  0  0  0  0  0  0  0  0  0  0  0
   20.1031   22.4226   20.9040 C   0  0  1  0  0  0  0  0  0  0  0  0
   20.8047   23.2987   19.9153 C   0  0  2  0  0  0  0  0  0  0  0  0
   19.8990   23.9519   19.0673 O   0  0  0  0  0  0  0  0  0  0  0  0
   21.5280   22.2490   19.0497 C   0  0  2  0  0  0  0  0  0  0  0  0
   21.6904   22.7112   17.7663 O   0  0  0  0  0  0  0  0  0  0  0  0
   20.5185   21.1261   19.1376 C   0  0  2  0  0  0  0  0  0  0  0  0
   20.2448   21.0993   20.5047 O   0  0  0  0  0  0  0  0  0  0  0  0
   21.0177   19.7993   18.7408 C   0  0  0  0  0  0  0  0  0  0  0  0
   22.0082   19.2325   19.4971 O   0  0  0  0  0  0  0  0  0  0  0  0
   20.2311   24.5685   16.2713 O   0  0  0  0  0  0  0  0  0  0  0  0
   20.1818   23.1181   17.1317 P   0  0  1  0  0  5  0  0  0  0  0  0
   19.7205   22.0215   16.2072 O   0  0  0  0  0  0  0  0  0  0  0  0
   19.0872   23.2006   18.4331 O   0  0  0  0  0  0  0  0  0  0  0  0
   23.3625   18.7622   18.6385 P   0  0  1  0  0  5  0  0  0  0  0  0
   23.9607   19.9183   17.8488 O   0  0  0  0  0  0  0  0  0  0  0  0
   24.5267   18.0305   19.6273 O   0  0  0  0  0  0  0  0  0  0  0  0
   22.8843   17.6051   17.5005 O   0  0  0  0  0  0  0  0  0  0  0  0
   24.0985   17.3446   16.3477 P   0  0  2  0  0  5  0  0  0  0  0  0
   24.3622   18.6119   15.5380 O   0  0  0  0  0  0  0  0  0  0  0  0
   23.5511   16.1774   15.2230 O   0  0  0  0  0  0  0  0  0  0  0  0
   25.5168   16.7573   16.9999 O   0  0  0  0  0  0  0  0  0  0  0  0
   26.4355   16.4993   15.9864 C   0  0  0  0  0  0  0  0  0  0  0  0
   27.7458   16.0153   16.5619 C   0  0  2  0  0  0  0  0  0  0  0  0
   27.5171   14.8699   17.5046 C   0  0  0  0  0  0  0  0  0  0  0  0
   28.3088   17.1664   17.3934 C   0  0  0  0  0  0  0  0  0  0  0  0
   28.6827   15.7096   15.4300 C   0  0  1  0  0  0  0  0  0  0  0  0
   29.6129   16.7251   15.3611 O   0  0  0  0  0  0  0  0  0  0  0  0
   29.3377   14.3598   15.6691 C   0  0  0  0  0  0  0  0  0  0  0  0
   28.6386   13.4194   16.0746 O   0  0  0  0  0  0  0  0  0  0  0  0
   30.7081   14.2612   15.4149 N   0  0  0  0  0  0  0  0  0  0  0  0
   31.6257   13.2889   15.8136 C   0  0  0  0  0  0  0  0  0  0  0  0
   32.6511   13.5799   16.8130 C   0  0  0  0  0  0  0  0  0  0  0  0
   34.0656   13.4774   16.5370 C   0  0  0  0  0  0  0  0  0  0  0  0
   34.7507   14.0351   15.6774 O   0  0  0  0  0  0  0  0  0  0  0  0
   34.8043   12.5661   17.4181 N   0  0  0  0  0  0  0  0  0  0  0  0
   36.2378   12.5173   17.3609 C   0  0  0  0  0  0  0  0  0  0  0  0
   36.8982   13.8500   17.1384 C   0  0  0  0  0  0  0  0  0  0  0  0
   38.2908   13.7516   17.2472 O   0  0  0  0  0  0  0  0  0  0  0  0
  1  2  2  0
  1  6  1  0
  2  3  1  0
  3  4  2  0
  4  5  1  0
  4 10  1  0
  5  6  2  0
  5  8  1  0
  6  7  1  0
  8  9  2  0
  9 10  1  0
 11 10  1  1
 11 12  1  0
 11 17  1  0
 12 13  1  6
 12 14  1  0
 14 15  1  6
 14 16  1  0
 15 21  1  0
 16 17  1  0
 16 18  1  1
 18 19  1  0
 19 24  1  0
 21 20  1  6
 21 22  2  0
 21 23  1  0
 24 25  2  0
 24 26  1  1
 24 27  1  0
 27 28  1  0
 28 29  2  0
 28 30  1  6
 28 31  1  0
 31 32  1  0
 32 33  1  0
 33 34  1  1
 33 35  1  0
 33 36  1  0
 36 37  1  1
 36 38  1  0
 38 39  2  0
 38 40  1  0
 40 41  1  0
 41 42  1  0
 42 43  1  0
 43 44  2  0
 43 45  1  0
 45 46  1  0
 46 47  1  0
 47 48  1  0
M  END
$$$$
