
     RDKit          3D

 48 50  0  0  0  0  0  0  0  0999 V2000
   30.8983  -32.6276   25.9661 N   0  0  0  0  0  0  0  0  0  0  0  0
   29.8385  -32.7230   26.7827 C   0  0  0  0  0  0  0  0  0  0  0  0
   29.9572  -32.4943   28.0977 N   0  0  0  0  0  0  0  0  0  0  0  0
   31.1608  -32.1657   28.5844 C   0  0  0  0  0  0  0  0  0  0  0  0
   32.2549  -32.0648   27.7532 C   0  0  0  0  0  0  0  0  0  0  0  0
   32.1363  -32.3003   26.3961 C   0  0  0  0  0  0  0  0  0  0  0  0
   33.2668  -32.1954   25.5399 N   0  0  0  0  0  0  0  0  0  0  0  0
   33.2904  -31.7248   28.5296 N   0  0  0  0  0  0  0  0  0  0  0  0
   32.8455  -31.6205   29.7948 C   0  0  0  0  0  0  0  0  0  0  0  0
   31.5284  -31.8890   29.8546 N   0  0  0  0  0  0  0  0  0  0  0  0
   30.6772  -31.8832   31.0289 C   0  0  1  0  0  0  0  0  0  0  0  0
   30.8216  -33.1970   31.7288 C   0  0  2  0  0  0  0  0  0  0  0  0
   29.5897  -33.6697   32.2032 O   0  0  0  0  0  0  0  0  0  0  0  0
   31.6338  -32.7835   32.9713 C   0  0  2  0  0  0  0  0  0  0  0  0
   31.3499  -33.6111   34.0304 O   0  0  0  0  0  0  0  0  0  0  0  0
   31.0859  -31.3870   33.1644 C   0  0  2  0  0  0  0  0  0  0  0  0
   31.1455  -30.8788   31.8671 O   0  0  0  0  0  0  0  0  0  0  0  0
   31.8850  -30.5135   34.0393 C   0  0  0  0  0  0  0  0  0  0  0  0
   33.2413  -30.4863   33.8552 O   0  0  0  0  0  0  0  0  0  0  0  0
   28.8454  -34.7213   34.5860 O   0  0  0  0  0  0  0  0  0  0  0  0
   30.1822  -34.7320   33.5569 P   0  0  1  0  0  5  0  0  0  0  0  0
   29.7210  -34.4074   32.1598 O   0  0  0  0  0  0  0  0  0  0  0  0
   30.9296  -36.2612   33.5194 O   0  0  0  0  0  0  0  0  0  0  0  0
   34.1401  -30.8534   35.2153 P   0  0  1  0  0  5  0  0  0  0  0  0
   34.2335  -32.3560   35.4426 O   0  0  0  0  0  0  0  0  0  0  0  0
   35.6777  -30.1442   35.1787 O   0  0  0  0  0  0  0  0  0  0  0  0
   33.3356  -30.2173   36.5610 O   0  0  0  0  0  0  0  0  0  0  0  0
   34.1263  -28.8393   37.1498 P   0  0  2  0  0  5  0  0  0  0  0  0
   35.4481  -29.2125   37.8168 O   0  0  0  0  0  0  0  0  0  0  0  0
   33.1663  -28.1340   38.3779 O   0  0  0  0  0  0  0  0  0  0  0  0
   34.3638  -27.6648   35.9896 O   0  0  0  0  0  0  0  0  0  0  0  0
   33.2834  -26.7872   35.9728 C   0  0  0  0  0  0  0  0  0  0  0  0
   33.5771  -25.5930   35.0954 C   0  0  2  0  0  0  0  0  0  0  0  0
   34.7066  -24.7850   35.6647 C   0  0  0  0  0  0  0  0  0  0  0  0
   32.3344  -24.7056   35.1361 C   0  0  0  0  0  0  0  0  0  0  0  0
   33.8040  -26.0736   33.6918 C   0  0  1  0  0  0  0  0  0  0  0  0
   33.7615  -24.9786   32.8548 O   0  0  0  0  0  0  0  0  0  0  0  0
   35.1411  -26.7908   33.6152 C   0  0  0  0  0  0  0  0  0  0  0  0
   35.4295  -27.6140   34.4965 O   0  0  0  0  0  0  0  0  0  0  0  0
   35.9759  -26.4721   32.5408 N   0  0  0  0  0  0  0  0  0  0  0  0
   37.2486  -26.9472   32.2234 C   0  0  0  0  0  0  0  0  0  0  0  0
   38.3312  -26.0328   31.8673 C   0  0  0  0  0  0  0  0  0  0  0  0
   39.5067  -26.4554   31.1413 C   0  0  0  0  0  0  0  0  0  0  0  0
   40.5957  -26.8574   31.5557 O   0  0  0  0  0  0  0  0  0  0  0  0
   39.3867  -26.3972   29.6803 N   0  0  0  0  0  0  0  0  0  0  0  0
   40.5381  -26.6318   28.8557 C   0  0  0  0  0  0  0  0  0  0  0  0
   41.7491  -25.8236   29.2321 C   0  0  0  0  0  0  0  0  0  0  0  0
   41.5214  -24.4534   29.0536 O   0  0  0  0  0  0  0  0  0  0  0  0
  1  2  2  0
  1  6  1  0
  2  3  1  0
  3  4  2  0
  4  5  1  0
  4 10  1  0
  5  6  2  0
  5  8  1  0
  6  7  1  0
  8  9  2  0
  9 10  1  0
 11 10  1  6
 11 12  1  0
 11 17  1  0
 12 13  1  1
 12 14  1  0
 14 15  1  1
 14 16  1  0
 15 21  1  0
 16 17  1  0
 16 18  1  1
 18 19  1  0
 19 24  1  0
 21 20  1  1
 21 22  2  0
 21 23  1  0
 24 25  2  0
 24 26  1  6
 24 27  1  0
 27 28  1  0
 28 29  2  0
 28 30  1  1
 28 31  1  0
 31 32  1  0
 32 33  1  0
 33 34  1  1
 33 35  1  0
 33 36  1  0
 36 37  1  6
 36 38  1  0
 38 39  2  0
 38 40  1  0
 40 41  1  0
 41 42  1  0
 42 43  1  0
 43 44  2  0
 43 45  1  0
 45 46  1  0
 46 47  1  0
 47 48  1  0
M  END
$$$$
