
     RDKit          3D

 48 50  0  0  0  0  0  0  0  0999 V2000
   18.8294   14.8821   15.8334 N   0  0  0  0  0  0  0  0  0  0  0  0
   18.3679   15.8602   15.0401 C   0  0  0  0  0  0  0  0  0  0  0  0
   18.7058   17.1393   15.2529 N   0  0  0  0  0  0  0  0  0  0  0  0
   19.5185   17.4248   16.2783 C   0  0  0  0  0  0  0  0  0  0  0  0
   19.9979   16.4268   17.0983 C   0  0  0  0  0  0  0  0  0  0  0  0
   19.6513   15.1061   16.8818 C   0  0  0  0  0  0  0  0  0  0  0  0
   20.1473   14.0775   17.7291 N   0  0  0  0  0  0  0  0  0  0  0  0
   20.7717   17.0255   18.0112 N   0  0  0  0  0  0  0  0  0  0  0  0
   20.7668   18.3468   17.7589 C   0  0  0  0  0  0  0  0  0  0  0  0
   19.9972   18.6194   16.6894 N   0  0  0  0  0  0  0  0  0  0  0  0
   19.7339   19.9167   16.0970 C   0  0  1  0  0  0  0  0  0  0  0  0
   18.3627   20.3561   16.5016 C   0  0  2  0  0  0  0  0  0  0  0  0
   17.6806   20.9687   15.4407 O   0  0  0  0  0  0  0  0  0  0  0  0
   18.6945   21.4759   17.5067 C   0  0  2  0  0  0  0  0  0  0  0  0
   17.6981   22.4216   17.5214 O   0  0  0  0  0  0  0  0  0  0  0  0
   19.9722   21.9905   16.8821 C   0  0  2  0  0  0  0  0  0  0  0  0
   20.6607   20.8042   16.6302 O   0  0  0  0  0  0  0  0  0  0  0  0
   20.8059   22.8309   17.7572 C   0  0  0  0  0  0  0  0  0  0  0  0
   20.8081   24.1824   17.5388 O   0  0  0  0  0  0  0  0  0  0  0  0
   16.2112   20.7819   15.8142 O   0  0  0  0  0  0  0  0  0  0  0  0
   16.2154   21.6646   17.2520 P   0  0  1  0  0  5  0  0  0  0  0  0
   15.9210   20.7292   18.3958 O   0  0  0  0  0  0  0  0  0  0  0  0
   15.0190   22.8758   17.2451 O   0  0  0  0  0  0  0  0  0  0  0  0
   21.2529   25.1044   18.8595 P   0  0  1  0  0  5  0  0  0  0  0  0
   20.2652   26.2336   19.1191 O   0  0  0  0  0  0  0  0  0  0  0  0
   21.4854   24.1644   20.2491 O   0  0  0  0  0  0  0  0  0  0  0  0
   22.7355   25.8401   18.5081 O   0  0  0  0  0  0  0  0  0  0  0  0
   23.5514   25.0111   17.2760 P   0  0  2  0  0  5  0  0  0  0  0  0
   24.7431   25.8209   16.7707 O   0  0  0  0  0  0  0  0  0  0  0  0
   22.5013   24.8399   15.9362 O   0  0  0  0  0  0  0  0  0  0  0  0
   24.0280   23.4739   17.7142 O   0  0  0  0  0  0  0  0  0  0  0  0
   23.6334   22.5584   16.7427 C   0  0  0  0  0  0  0  0  0  0  0  0
   24.7243   21.5451   16.4874 C   0  0  2  0  0  0  0  0  0  0  0  0
   25.2354   21.6628   15.0810 C   0  0  0  0  0  0  0  0  0  0  0  0
   24.0767   20.1669   16.6084 C   0  0  0  0  0  0  0  0  0  0  0  0
   25.7781   21.6983   17.5452 C   0  0  1  0  0  0  0  0  0  0  0  0
   25.1641   21.5966   18.7756 O   0  0  0  0  0  0  0  0  0  0  0  0
   26.8413   20.6299   17.3551 C   0  0  0  0  0  0  0  0  0  0  0  0
   27.6696   20.7662   16.4425 O   0  0  0  0  0  0  0  0  0  0  0  0
   26.8182   19.5429   18.2329 N   0  0  0  0  0  0  0  0  0  0  0  0
   27.6089   18.3939   18.2572 C   0  0  0  0  0  0  0  0  0  0  0  0
   27.0268   17.0695   18.0522 C   0  0  0  0  0  0  0  0  0  0  0  0
   25.6525   16.7596   18.3726 C   0  0  0  0  0  0  0  0  0  0  0  0
   24.6546   17.4830   18.3785 O   0  0  0  0  0  0  0  0  0  0  0  0
   25.4041   15.3640   18.7510 N   0  0  0  0  0  0  0  0  0  0  0  0
   24.0705   14.9296   19.0563 C   0  0  0  0  0  0  0  0  0  0  0  0
   23.5785   15.3378   20.4175 C   0  0  0  0  0  0  0  0  0  0  0  0
   24.5545   15.1188   21.3975 O   0  0  0  0  0  0  0  0  0  0  0  0
  1  2  2  0
  1  6  1  0
  2  3  1  0
  3  4  2  0
  4  5  1  0
  4 10  1  0
  5  6  2  0
  5  8  1  0
  6  7  1  0
  8  9  2  0
  9 10  1  0
 11 10  1  1
 11 12  1  0
 11 17  1  0
 12 13  1  6
 12 14  1  0
 14 15  1  6
 14 16  1  0
 15 21  1  0
 16 17  1  0
 16 18  1  1
 18 19  1  0
 19 24  1  0
 21 20  1  6
 21 22  2  0
 21 23  1  0
 24 25  2  0
 24 26  1  1
 24 27  1  0
 27 28  1  0
 28 29  2  0
 28 30  1  6
 28 31  1  0
 31 32  1  0
 32 33  1  0
 33 34  1  6
 33 35  1  0
 33 36  1  0
 36 37  1  1
 36 38  1  0
 38 39  2  0
 38 40  1  0
 40 41  1  0
 41 42  1  0
 42 43  1  0
 43 44  2  0
 43 45  1  0
 45 46  1  0
 46 47  1  0
 47 48  1  0
M  END
$$$$
