
     RDKit          3D

 48 50  0  0  0  0  0  0  0  0999 V2000
   25.3171  -30.8191   34.8031 N   0  0  0  0  0  0  0  0  0  0  0  0
   25.9768  -31.8943   34.3473 C   0  0  0  0  0  0  0  0  0  0  0  0
   27.2579  -31.8073   33.9643 N   0  0  0  0  0  0  0  0  0  0  0  0
   27.8716  -30.6198   34.0465 C   0  0  0  0  0  0  0  0  0  0  0  0
   27.2022  -29.5101   34.5139 C   0  0  0  0  0  0  0  0  0  0  0  0
   25.8803  -29.5960   34.9096 C   0  0  0  0  0  0  0  0  0  0  0  0
   25.1913  -28.4494   35.3920 N   0  0  0  0  0  0  0  0  0  0  0  0
   28.0756  -28.4969   34.4759 N   0  0  0  0  0  0  0  0  0  0  0  0
   29.2418  -28.9703   34.0012 C   0  0  0  0  0  0  0  0  0  0  0  0
   29.1407  -30.2838   33.7277 N   0  0  0  0  0  0  0  0  0  0  0  0
   30.1709  -31.1598   33.2036 C   0  0  1  0  0  0  0  0  0  0  0  0
   30.3707  -30.8471   31.7546 C   0  0  2  0  0  0  0  0  0  0  0  0
   30.5496  -32.0108   30.9931 O   0  0  0  0  0  0  0  0  0  0  0  0
   31.7386  -30.1385   31.7899 C   0  0  2  0  0  0  0  0  0  0  0  0
   32.4114  -30.3297   30.6076 O   0  0  0  0  0  0  0  0  0  0  0  0
   32.3690  -30.8875   32.9429 C   0  0  2  0  0  0  0  0  0  0  0  0
   31.3438  -30.8652   33.8879 O   0  0  0  0  0  0  0  0  0  0  0  0
   33.5557  -30.2479   33.5343 C   0  0  0  0  0  0  0  0  0  0  0  0
   33.3619  -29.3341   34.5352 O   0  0  0  0  0  0  0  0  0  0  0  0
   31.2446  -32.8284   31.0649 O   0  0  0  0  0  0  0  0  0  0  0  0
   31.9131  -31.7862   29.9189 P   0  0  1  0  0  5  0  0  0  0  0  0
   30.8805  -31.5057   28.8582 O   0  0  0  0  0  0  0  0  0  0  0  0
   33.2691  -32.4805   29.1587 O   0  0  0  0  0  0  0  0  0  0  0  0
   34.7619  -28.6514   35.1406 P   0  0  1  0  0  5  0  0  0  0  0  0
   34.5008  -27.2888   35.7678 O   0  0  0  0  0  0  0  0  0  0  0  0
   35.5607  -29.6796   36.2236 O   0  0  0  0  0  0  0  0  0  0  0  0
   35.8165  -28.3849   33.8446 O   0  0  0  0  0  0  0  0  0  0  0  0
   36.2633  -26.7534   33.7468 P   0  0  2  0  0  5  0  0  0  0  0  0
   36.7406  -26.2368   35.1020 O   0  0  0  0  0  0  0  0  0  0  0  0
   34.8813  -25.8248   33.3533 O   0  0  0  0  0  0  0  0  0  0  0  0
   37.4014  -26.4474   32.5665 O   0  0  0  0  0  0  0  0  0  0  0  0
   37.4574  -25.0819   32.3021 C   0  0  0  0  0  0  0  0  0  0  0  0
   38.3597  -24.8013   31.1234 C   0  0  2  0  0  0  0  0  0  0  0  0
   39.4783  -23.8832   31.5218 C   0  0  0  0  0  0  0  0  0  0  0  0
   37.5149  -24.0491   30.0967 C   0  0  0  0  0  0  0  0  0  0  0  0
   38.8085  -26.1097   30.5411 C   0  0  1  0  0  0  0  0  0  0  0  0
   37.7946  -26.5889   29.7388 O   0  0  0  0  0  0  0  0  0  0  0  0
   40.0942  -25.8984   29.7597 C   0  0  0  0  0  0  0  0  0  0  0  0
   41.1789  -26.0694   30.3357 O   0  0  0  0  0  0  0  0  0  0  0  0
   39.9723  -25.5173   28.4209 N   0  0  0  0  0  0  0  0  0  0  0  0
   40.9593  -25.2360   27.4760 C   0  0  0  0  0  0  0  0  0  0  0  0
   41.7239  -23.9919   27.5269 C   0  0  0  0  0  0  0  0  0  0  0  0
   42.9743  -23.8116   26.8260 C   0  0  0  0  0  0  0  0  0  0  0  0
   44.0712  -24.3442   27.0063 O   0  0  0  0  0  0  0  0  0  0  0  0
   42.9336  -22.8418   25.7258 N   0  0  0  0  0  0  0  0  0  0  0  0
   44.0997  -22.6241   24.9175 C   0  0  0  0  0  0  0  0  0  0  0  0
   44.3291  -23.6690   23.8605 C   0  0  0  0  0  0  0  0  0  0  0  0
   45.1827  -23.1969   22.8558 O   0  0  0  0  0  0  0  0  0  0  0  0
  1  2  2  0
  1  6  1  0
  2  3  1  0
  3  4  2  0
  4  5  1  0
  4 10  1  0
  5  6  2  0
  5  8  1  0
  6  7  1  0
  8  9  2  0
  9 10  1  0
 11 10  1  1
 11 12  1  0
 11 17  1  0
 12 13  1  6
 12 14  1  0
 14 15  1  6
 14 16  1  0
 15 21  1  0
 16 17  1  0
 16 18  1  1
 18 19  1  0
 19 24  1  0
 21 20  1  1
 21 22  2  0
 21 23  1  0
 24 25  2  0
 24 26  1  1
 24 27  1  0
 27 28  1  0
 28 29  2  0
 28 30  1  6
 28 31  1  0
 31 32  1  0
 32 33  1  0
 33 34  1  1
 33 35  1  0
 33 36  1  0
 36 37  1  6
 36 38  1  0
 38 39  2  0
 38 40  1  0
 40 41  1  0
 41 42  1  0
 42 43  1  0
 43 44  2  0
 43 45  1  0
 45 46  1  0
 46 47  1  0
 47 48  1  0
M  END
$$$$
