
     RDKit          3D

 48 50  0  0  0  0  0  0  0  0999 V2000
   32.3589  -37.1531   24.3512 N   0  0  0  0  0  0  0  0  0  0  0  0
   31.2163  -36.4558   24.4375 C   0  0  0  0  0  0  0  0  0  0  0  0
   30.7270  -36.0765   25.6259 N   0  0  0  0  0  0  0  0  0  0  0  0
   31.4044  -36.4078   26.7326 C   0  0  0  0  0  0  0  0  0  0  0  0
   32.5791  -37.1234   26.6537 C   0  0  0  0  0  0  0  0  0  0  0  0
   33.0868  -37.5166   25.4294 C   0  0  0  0  0  0  0  0  0  0  0  0
   34.2995  -38.2550   25.3501 N   0  0  0  0  0  0  0  0  0  0  0  0
   33.0060  -37.2906   27.9108 N   0  0  0  0  0  0  0  0  0  0  0  0
   32.1223  -36.6968   28.7330 C   0  0  0  0  0  0  0  0  0  0  0  0
   31.1204  -36.1423   28.0265 N   0  0  0  0  0  0  0  0  0  0  0  0
   29.9765  -35.4120   28.5377 C   0  0  1  0  0  0  0  0  0  0  0  0
   29.1132  -36.3581   29.3101 C   0  0  2  0  0  0  0  0  0  0  0  0
   27.7507  -36.1300   29.0705 O   0  0  0  0  0  0  0  0  0  0  0  0
   29.3823  -35.8934   30.7544 C   0  0  2  0  0  0  0  0  0  0  0  0
   28.2893  -36.1357   31.5506 O   0  0  0  0  0  0  0  0  0  0  0  0
   29.5964  -34.4183   30.4977 C   0  0  2  0  0  0  0  0  0  0  0  0
   30.4654  -34.4450   29.4075 O   0  0  0  0  0  0  0  0  0  0  0  0
   30.2490  -33.6782   31.5901 C   0  0  0  0  0  0  0  0  0  0  0  0
   31.6160  -33.7074   31.6595 O   0  0  0  0  0  0  0  0  0  0  0  0
   28.5934  -36.6673   34.2780 O   0  0  0  0  0  0  0  0  0  0  0  0
   28.6979  -37.2877   32.7126 P   0  0  1  0  0  5  0  0  0  0  0  0
   27.7643  -38.4643   32.5942 O   0  0  0  0  0  0  0  0  0  0  0  0
   30.2722  -37.8310   32.3596 O   0  0  0  0  0  0  0  0  0  0  0  0
   32.3821  -32.4173   30.9238 P   0  0  1  0  0  5  0  0  0  0  0  0
   33.8622  -32.3628   31.2767 O   0  0  0  0  0  0  0  0  0  0  0  0
   32.1533  -32.4076   29.2457 O   0  0  0  0  0  0  0  0  0  0  0  0
   31.6968  -30.9912   31.5232 O   0  0  0  0  0  0  0  0  0  0  0  0
   32.2833  -30.6365   33.0727 P   0  0  2  0  0  5  0  0  0  0  0  0
   31.8811  -31.7212   34.0692 O   0  0  0  0  0  0  0  0  0  0  0  0
   31.5444  -29.1963   33.6267 O   0  0  0  0  0  0  0  0  0  0  0  0
   33.9308  -30.3800   33.1154 O   0  0  0  0  0  0  0  0  0  0  0  0
   34.2421  -29.1801   32.4821 C   0  0  0  0  0  0  0  0  0  0  0  0
   35.3695  -28.4737   33.1977 C   0  0  2  0  0  0  0  0  0  0  0  0
   36.1286  -27.5940   32.2477 C   0  0  0  0  0  0  0  0  0  0  0  0
   36.3378  -29.5591   33.6646 C   0  0  0  0  0  0  0  0  0  0  0  0
   34.8062  -27.7578   34.3906 C   0  0  1  0  0  0  0  0  0  0  0  0
   35.5121  -28.1638   35.5033 O   0  0  0  0  0  0  0  0  0  0  0  0
   34.9100  -26.2578   34.1728 C   0  0  0  0  0  0  0  0  0  0  0  0
   33.9331  -25.6522   33.7075 O   0  0  0  0  0  0  0  0  0  0  0  0
   36.1186  -25.6453   34.5140 N   0  0  0  0  0  0  0  0  0  0  0  0
   36.4825  -24.2990   34.4776 C   0  0  0  0  0  0  0  0  0  0  0  0
   35.9699  -23.3490   35.4622 C   0  0  0  0  0  0  0  0  0  0  0  0
   36.2958  -21.9417   35.4367 C   0  0  0  0  0  0  0  0  0  0  0  0
   36.9633  -21.2944   34.6275 O   0  0  0  0  0  0  0  0  0  0  0  0
   35.7463  -21.1582   36.5487 N   0  0  0  0  0  0  0  0  0  0  0  0
   36.1324  -19.7862   36.7198 C   0  0  0  0  0  0  0  0  0  0  0  0
   35.2854  -18.8015   35.9618 C   0  0  0  0  0  0  0  0  0  0  0  0
   35.2386  -19.1154   34.5978 O   0  0  0  0  0  0  0  0  0  0  0  0
  1  2  2  0
  1  6  1  0
  2  3  1  0
  3  4  2  0
  4  5  1  0
  4 10  1  0
  5  6  2  0
  5  8  1  0
  6  7  1  0
  8  9  2  0
  9 10  1  0
 11 10  1  1
 11 12  1  0
 11 17  1  0
 12 13  1  6
 12 14  1  0
 14 15  1  1
 14 16  1  0
 15 21  1  0
 16 17  1  0
 16 18  1  1
 18 19  1  0
 19 24  1  0
 21 20  1  1
 21 22  2  0
 21 23  1  0
 24 25  2  0
 24 26  1  6
 24 27  1  0
 27 28  1  0
 28 29  2  0
 28 30  1  1
 28 31  1  0
 31 32  1  0
 32 33  1  0
 33 34  1  6
 33 35  1  0
 33 36  1  0
 36 37  1  1
 36 38  1  0
 38 39  2  0
 38 40  1  0
 40 41  1  0
 41 42  1  0
 42 43  1  0
 43 44  2  0
 43 45  1  0
 45 46  1  0
 46 47  1  0
 47 48  1  0
M  END
$$$$
