
     RDKit          3D

 48 50  0  0  0  0  0  0  0  0999 V2000
   28.8712   24.3618   15.1418 N   0  0  0  0  0  0  0  0  0  0  0  0
   28.1308   25.4462   15.4151 C   0  0  0  0  0  0  0  0  0  0  0  0
   27.0149   25.3530   16.1512 N   0  0  0  0  0  0  0  0  0  0  0  0
   26.6509   24.1495   16.6125 C   0  0  0  0  0  0  0  0  0  0  0  0
   27.4055   23.0301   16.3373 C   0  0  0  0  0  0  0  0  0  0  0  0
   28.5571   23.1226   15.5781 C   0  0  0  0  0  0  0  0  0  0  0  0
   29.3346   21.9660   15.2954 N   0  0  0  0  0  0  0  0  0  0  0  0
   26.7882   22.0019   16.9309 N   0  0  0  0  0  0  0  0  0  0  0  0
   25.6917   22.4756   17.5497 C   0  0  0  0  0  0  0  0  0  0  0  0
   25.5848   23.8044   17.3671 N   0  0  0  0  0  0  0  0  0  0  0  0
   24.5491   24.6857   17.8711 C   0  0  1  0  0  0  0  0  0  0  0  0
   23.5324   24.8916   16.7937 C   0  0  2  0  0  0  0  0  0  0  0  0
   23.0924   26.2219   16.7434 O   0  0  0  0  0  0  0  0  0  0  0  0
   22.3512   24.0656   17.3388 C   0  0  2  0  0  0  0  0  0  0  0  0
   21.1567   24.5888   16.9067 O   0  0  0  0  0  0  0  0  0  0  0  0
   22.5733   24.2749   18.8201 C   0  0  2  0  0  0  0  0  0  0  0  0
   23.9417   24.0335   18.9371 O   0  0  0  0  0  0  0  0  0  0  0  0
   21.8619   23.3346   19.7016 C   0  0  0  0  0  0  0  0  0  0  0  0
   22.1214   21.9980   19.5590 O   0  0  0  0  0  0  0  0  0  0  0  0
   22.5309   26.9808   16.4550 O   0  0  0  0  0  0  0  0  0  0  0  0
   21.4641   25.8395   15.8180 P   0  0  1  0  0  5  0  0  0  0  0  0
   22.0626   25.2659   14.5598 O   0  0  0  0  0  0  0  0  0  0  0  0
   19.9670   26.5415   15.4127 O   0  0  0  0  0  0  0  0  0  0  0  0
   21.4251   21.0214   20.7227 P   0  0  1  0  0  5  0  0  0  0  0  0
   22.2030   19.7265   20.9132 O   0  0  0  0  0  0  0  0  0  0  0  0
   21.2140   21.8298   22.1959 O   0  0  0  0  0  0  0  0  0  0  0  0
   19.8858   20.5767   20.1792 O   0  0  0  0  0  0  0  0  0  0  0  0
   19.9690   19.8103   18.6704 P   0  0  2  0  0  5  0  0  0  0  0  0
   21.3989   19.3757   18.3579 O   0  0  0  0  0  0  0  0  0  0  0  0
   19.5471   20.9375   17.4543 O   0  0  0  0  0  0  0  0  0  0  0  0
   18.9173   18.5243   18.5212 O   0  0  0  0  0  0  0  0  0  0  0  0
   17.6029   18.9698   18.6280 C   0  0  0  0  0  0  0  0  0  0  0  0
   16.6344   17.8187   18.4884 C   0  0  2  0  0  0  0  0  0  0  0  0
   17.2085   16.7502   17.6044 C   0  0  0  0  0  0  0  0  0  0  0  0
   15.4023   18.3696   17.7728 C   0  0  0  0  0  0  0  0  0  0  0  0
   16.2485   17.3479   19.8603 C   0  0  1  0  0  0  0  0  0  0  0  0
   15.1434   16.5327   19.7354 O   0  0  0  0  0  0  0  0  0  0  0  0
   17.4215   16.6157   20.4897 C   0  0  0  0  0  0  0  0  0  0  0  0
   18.0289   17.1538   21.4272 O   0  0  0  0  0  0  0  0  0  0  0  0
   17.7486   15.3630   19.9638 N   0  0  0  0  0  0  0  0  0  0  0  0
   18.8362   14.5330   20.2366 C   0  0  0  0  0  0  0  0  0  0  0  0
   19.0210   13.2692   19.5270 C   0  0  0  0  0  0  0  0  0  0  0  0
   19.2182   13.1948   18.0977 C   0  0  0  0  0  0  0  0  0  0  0  0
   19.5141   14.0764   17.2886 O   0  0  0  0  0  0  0  0  0  0  0  0
   19.0379   11.8601   17.5160 N   0  0  0  0  0  0  0  0  0  0  0  0
   19.0447   11.6915   16.0905 C   0  0  0  0  0  0  0  0  0  0  0  0
   19.8968   10.5527   15.6017 C   0  0  0  0  0  0  0  0  0  0  0  0
   21.0905   10.4629   16.3284 O   0  0  0  0  0  0  0  0  0  0  0  0
  1  2  2  0
  1  6  1  0
  2  3  1  0
  3  4  2  0
  4  5  1  0
  4 10  1  0
  5  6  2  0
  5  8  1  0
  6  7  1  0
  8  9  2  0
  9 10  1  0
 11 10  1  6
 11 12  1  0
 11 17  1  0
 12 13  1  1
 12 14  1  0
 14 15  1  6
 14 16  1  0
 15 21  1  0
 16 17  1  0
 16 18  1  1
 18 19  1  0
 19 24  1  0
 21 20  1  1
 21 22  2  0
 21 23  1  0
 24 25  2  0
 24 26  1  1
 24 27  1  0
 27 28  1  0
 28 29  2  0
 28 30  1  6
 28 31  1  0
 31 32  1  0
 32 33  1  0
 33 34  1  6
 33 35  1  0
 33 36  1  0
 36 37  1  6
 36 38  1  0
 38 39  2  0
 38 40  1  0
 40 41  1  0
 41 42  1  0
 42 43  1  0
 43 44  2  0
 43 45  1  0
 45 46  1  0
 46 47  1  0
 47 48  1  0
M  END
$$$$
