
     RDKit          3D

 48 50  0  0  0  0  0  0  0  0999 V2000
   16.7032   15.2455   14.9888 N   0  0  0  0  0  0  0  0  0  0  0  0
   17.4473   15.8862   14.0751 C   0  0  0  0  0  0  0  0  0  0  0  0
   18.3680   16.7875   14.4433 N   0  0  0  0  0  0  0  0  0  0  0  0
   18.5330   17.0377   15.7485 C   0  0  0  0  0  0  0  0  0  0  0  0
   17.7737   16.3841   16.6942 C   0  0  0  0  0  0  0  0  0  0  0  0
   16.8228   15.4538   16.3180 C   0  0  0  0  0  0  0  0  0  0  0  0
   16.0401   14.7802   17.2957 N   0  0  0  0  0  0  0  0  0  0  0  0
   18.1724   16.8457   17.8853 N   0  0  0  0  0  0  0  0  0  0  0  0
   19.1443   17.7520   17.6764 C   0  0  0  0  0  0  0  0  0  0  0  0
   19.3860   17.8886   16.3599 N   0  0  0  0  0  0  0  0  0  0  0  0
   20.3553   18.7605   15.7245 C   0  0  1  0  0  0  0  0  0  0  0  0
   20.3090   20.0953   16.3976 C   0  0  2  0  0  0  0  0  0  0  0  0
   20.4128   21.1453   15.4742 O   0  0  0  0  0  0  0  0  0  0  0  0
   21.6344   20.0775   17.1834 C   0  0  2  0  0  0  0  0  0  0  0  0
   22.1181   21.3534   17.3422 O   0  0  0  0  0  0  0  0  0  0  0  0
   22.4707   19.2557   16.2278 C   0  0  2  0  0  0  0  0  0  0  0  0
   21.6087   18.1992   15.9356 O   0  0  0  0  0  0  0  0  0  0  0  0
   23.7087   18.6976   16.7961 C   0  0  0  0  0  0  0  0  0  0  0  0
   23.6179   17.9907   17.9650 O   0  0  0  0  0  0  0  0  0  0  0  0
   20.0508   21.8611   19.1540 O   0  0  0  0  0  0  0  0  0  0  0  0
   20.8448   22.3781   17.7581 P   0  0  1  0  0  5  0  0  0  0  0  0
   21.3815   23.7664   17.9918 O   0  0  0  0  0  0  0  0  0  0  0  0
   19.7873   22.4432   16.4255 O   0  0  0  0  0  0  0  0  0  0  0  0
   24.3106   18.7367   19.2901 P   0  0  1  0  0  5  0  0  0  0  0  0
   24.6358   20.1976   19.0106 O   0  0  0  0  0  0  0  0  0  0  0  0
   23.3622   18.5778   20.6843 O   0  0  0  0  0  0  0  0  0  0  0  0
   25.7865   17.9728   19.6080 O   0  0  0  0  0  0  0  0  0  0  0  0
   25.9537   16.5605   18.6869 P   0  0  2  0  0  5  0  0  0  0  0  0
   24.7780   16.3934   17.7271 O   0  0  0  0  0  0  0  0  0  0  0  0
   25.8978   15.2084   19.7337 O   0  0  0  0  0  0  0  0  0  0  0  0
   27.4019   16.4734   17.8640 O   0  0  0  0  0  0  0  0  0  0  0  0
   28.3723   15.8848   18.6700 C   0  0  0  0  0  0  0  0  0  0  0  0
   29.7007   15.8266   17.9528 C   0  0  2  0  0  0  0  0  0  0  0  0
   30.6991   16.7292   18.6170 C   0  0  0  0  0  0  0  0  0  0  0  0
   29.4643   16.3848   16.5507 C   0  0  0  0  0  0  0  0  0  0  0  0
   30.1303   14.3918   17.8552 C   0  0  1  0  0  0  0  0  0  0  0  0
   29.3114   13.7635   16.9408 O   0  0  0  0  0  0  0  0  0  0  0  0
   31.5905   14.3306   17.4404 C   0  0  0  0  0  0  0  0  0  0  0  0
   32.1652   15.3812   17.1186 O   0  0  0  0  0  0  0  0  0  0  0  0
   32.2037   13.0750   17.4459 N   0  0  0  0  0  0  0  0  0  0  0  0
   33.5098   12.7142   17.1141 C   0  0  0  0  0  0  0  0  0  0  0  0
   33.9641   12.7079   15.7254 C   0  0  0  0  0  0  0  0  0  0  0  0
   33.4065   13.5769   14.7148 C   0  0  0  0  0  0  0  0  0  0  0  0
   32.3833   14.2640   14.7330 O   0  0  0  0  0  0  0  0  0  0  0  0
   34.1790   13.6549   13.4699 N   0  0  0  0  0  0  0  0  0  0  0  0
   33.7358   14.5060   12.4024 C   0  0  0  0  0  0  0  0  0  0  0  0
   34.6912   15.6128   12.0504 C   0  0  0  0  0  0  0  0  0  0  0  0
   34.2013   16.3903   10.9938 O   0  0  0  0  0  0  0  0  0  0  0  0
  1  2  2  0
  1  6  1  0
  2  3  1  0
  3  4  2  0
  4  5  1  0
  4 10  1  0
  5  6  2  0
  5  8  1  0
  6  7  1  0
  8  9  2  0
  9 10  1  0
 11 10  1  1
 11 12  1  0
 11 17  1  0
 12 13  1  6
 12 14  1  0
 14 15  1  6
 14 16  1  0
 15 21  1  0
 16 17  1  0
 16 18  1  1
 18 19  1  0
 19 24  1  0
 21 20  1  1
 21 22  2  0
 21 23  1  0
 24 25  2  0
 24 26  1  1
 24 27  1  0
 27 28  1  0
 28 29  2  0
 28 30  1  1
 28 31  1  0
 31 32  1  0
 32 33  1  0
 33 34  1  1
 33 35  1  0
 33 36  1  0
 36 37  1  6
 36 38  1  0
 38 39  2  0
 38 40  1  0
 40 41  1  0
 41 42  1  0
 42 43  1  0
 43 44  2  0
 43 45  1  0
 45 46  1  0
 46 47  1  0
 47 48  1  0
M  END
$$$$
