
     RDKit          3D

 48 50  0  0  0  0  0  0  0  0999 V2000
   25.4802   20.8104   23.5211 N   0  0  0  0  0  0  0  0  0  0  0  0
   25.2856   22.0968   23.1952 C   0  0  0  0  0  0  0  0  0  0  0  0
   24.3916   22.4445   22.2595 N   0  0  0  0  0  0  0  0  0  0  0  0
   23.6909   21.4779   21.6528 C   0  0  0  0  0  0  0  0  0  0  0  0
   23.8836   20.1539   21.9814 C   0  0  0  0  0  0  0  0  0  0  0  0
   24.8052   19.7914   22.9460 C   0  0  0  0  0  0  0  0  0  0  0  0
   25.0024   18.4243   23.2838 N   0  0  0  0  0  0  0  0  0  0  0  0
   23.0463   19.4472   21.2131 N   0  0  0  0  0  0  0  0  0  0  0  0
   22.3629   20.3097   20.4395 C   0  0  0  0  0  0  0  0  0  0  0  0
   22.7445   21.5747   20.6935 N   0  0  0  0  0  0  0  0  0  0  0  0
   22.2490   22.7891   20.0746 C   0  0  1  0  0  0  0  0  0  0  0  0
   22.9296   22.9631   18.7542 C   0  0  2  0  0  0  0  0  0  0  0  0
   23.2709   24.3027   18.5195 O   0  0  0  0  0  0  0  0  0  0  0  0
   21.7803   22.6329   17.7823 C   0  0  2  0  0  0  0  0  0  0  0  0
   21.9382   23.3136   16.5995 O   0  0  0  0  0  0  0  0  0  0  0  0
   20.6172   23.1515   18.5983 C   0  0  2  0  0  0  0  0  0  0  0  0
   20.8891   22.6086   19.8536 O   0  0  0  0  0  0  0  0  0  0  0  0
   19.2895   22.6816   18.1700 C   0  0  0  0  0  0  0  0  0  0  0  0
   18.9897   21.3570   18.3429 O   0  0  0  0  0  0  0  0  0  0  0  0
   19.4028   24.1184   15.7404 O   0  0  0  0  0  0  0  0  0  0  0  0
   20.8196   24.5740   16.5351 P   0  0  1  0  0  5  0  0  0  0  0  0
   20.4727   25.0014   17.9376 O   0  0  0  0  0  0  0  0  0  0  0  0
   21.5762   25.8873   15.7597 O   0  0  0  0  0  0  0  0  0  0  0  0
   18.4944   20.5646   16.9575 P   0  0  1  0  0  5  0  0  0  0  0  0
   17.1807   21.1217   16.4266 O   0  0  0  0  0  0  0  0  0  0  0  0
   19.6884   20.5655   15.7563 O   0  0  0  0  0  0  0  0  0  0  0  0
   18.1987   18.9474   17.3576 O   0  0  0  0  0  0  0  0  0  0  0  0
   19.5817   17.9975   17.1214 P   0  0  2  0  0  5  0  0  0  0  0  0
   19.3438   16.9484   16.0379 O   0  0  0  0  0  0  0  0  0  0  0  0
   19.9026   17.1225   18.5562 O   0  0  0  0  0  0  0  0  0  0  0  0
   20.9499   18.8904   16.7854 O   0  0  0  0  0  0  0  0  0  0  0  0
   22.0001   18.0422   16.4460 C   0  0  0  0  0  0  0  0  0  0  0  0
   23.2086   18.8355   16.0072 C   0  0  2  0  0  0  0  0  0  0  0  0
   22.7884   20.0672   15.2595 C   0  0  0  0  0  0  0  0  0  0  0  0
   23.9716   17.9566   15.0178 C   0  0  0  0  0  0  0  0  0  0  0  0
   24.0689   19.1019   17.2078 C   0  0  1  0  0  0  0  0  0  0  0  0
   23.3115   18.8649   18.3354 O   0  0  0  0  0  0  0  0  0  0  0  0
   25.2971   18.2092   17.1552 C   0  0  0  0  0  0  0  0  0  0  0  0
   26.2773   18.5792   16.4918 O   0  0  0  0  0  0  0  0  0  0  0  0
   25.2442   17.0080   17.8670 N   0  0  0  0  0  0  0  0  0  0  0  0
   26.2095   16.0120   18.0170 C   0  0  0  0  0  0  0  0  0  0  0  0
   27.2250   15.7811   16.9921 C   0  0  0  0  0  0  0  0  0  0  0  0
   28.2707   14.7942   17.1336 C   0  0  0  0  0  0  0  0  0  0  0  0
   28.2235   13.6422   17.5693 O   0  0  0  0  0  0  0  0  0  0  0  0
   29.5989   15.2309   16.6889 N   0  0  0  0  0  0  0  0  0  0  0  0
   30.2935   14.4937   15.6717 C   0  0  0  0  0  0  0  0  0  0  0  0
   30.7075   13.1068   16.0803 C   0  0  0  0  0  0  0  0  0  0  0  0
   31.6753   13.1426   17.0918 O   0  0  0  0  0  0  0  0  0  0  0  0
  1  2  2  0
  1  6  1  0
  2  3  1  0
  3  4  2  0
  4  5  1  0
  4 10  1  0
  5  6  2  0
  5  8  1  0
  6  7  1  0
  8  9  2  0
  9 10  1  0
 11 10  1  6
 11 12  1  0
 11 17  1  0
 12 13  1  6
 12 14  1  0
 14 15  1  6
 14 16  1  0
 15 21  1  0
 16 17  1  0
 16 18  1  6
 18 19  1  0
 19 24  1  0
 21 20  1  6
 21 22  2  0
 21 23  1  0
 24 25  2  0
 24 26  1  6
 24 27  1  0
 27 28  1  0
 28 29  2  0
 28 30  1  1
 28 31  1  0
 31 32  1  0
 32 33  1  0
 33 34  1  6
 33 35  1  0
 33 36  1  0
 36 37  1  1
 36 38  1  0
 38 39  2  0
 38 40  1  0
 40 41  1  0
 41 42  1  0
 42 43  1  0
 43 44  2  0
 43 45  1  0
 45 46  1  0
 46 47  1  0
 47 48  1  0
M  END
$$$$
