
     RDKit          3D

 30 34  0  0  0  0  0  0  0  0999 V2000
  -62.0298   34.3354  -18.8813 S   0  0  1  0  0  6  0  0  0  0  0  0
  -62.6167   29.2964  -25.6656 O   0  0  0  0  0  0  0  0  0  0  0  0
  -67.2193   31.6658  -22.4960 O   0  0  0  0  0  0  0  0  0  0  0  0
  -60.7261   33.9427  -19.5140 O   0  0  0  0  0  0  0  0  0  0  0  0
  -61.9042   34.7378  -17.4647 O   0  0  0  0  0  0  0  0  0  0  0  0
  -62.8811   35.4673  -19.8639 N   0  0  0  0  0  0  0  0  0  0  0  0
  -63.7121   34.6875  -20.6959 C   0  0  0  0  0  0  0  0  0  0  0  0
  -64.3615   35.1433  -21.8541 C   0  0  0  0  0  0  0  0  0  0  0  0
  -63.1685   32.9730  -19.1051 C   0  0  0  0  0  0  0  0  0  0  0  0
  -63.8748   33.4058  -20.3329 C   0  0  0  0  0  0  0  0  0  0  0  0
  -64.6827   32.5624  -21.1135 C   0  0  0  0  0  0  0  0  0  0  0  0
  -65.3155   33.0083  -22.2436 C   0  0  0  0  0  0  0  0  0  0  0  0
  -65.1577   34.3148  -22.6255 C   0  0  0  0  0  0  0  0  0  0  0  0
  -66.1396   32.1106  -23.0322 C   0  0  0  0  0  0  0  0  0  0  0  0
  -65.7847   31.7256  -24.3486 N   0  0  0  0  0  0  0  0  0  0  0  0
  -66.5364   32.2224  -25.4698 C   0  0  0  0  0  0  0  0  0  0  0  0
  -65.5817   33.0436  -26.3334 C   0  0  0  0  0  0  0  0  0  0  0  0
  -64.6791   30.8277  -24.5900 C   0  0  0  0  0  0  0  0  0  0  0  0
  -64.0676   31.0820  -25.9242 C   0  0  0  0  0  0  0  0  0  0  0  0
  -63.0380   30.2569  -26.3703 C   0  0  0  0  0  0  0  0  0  0  0  0
  -62.5050   30.5082  -27.5690 N   0  0  0  0  0  0  0  0  0  0  0  0
  -62.8959   31.5144  -28.3875 C   0  0  0  0  0  0  0  0  0  0  0  0
  -63.8794   32.2856  -27.9379 N   0  0  0  0  0  0  0  0  0  0  0  0
  -64.4781   32.1088  -26.7420 C   0  0  0  0  0  0  0  0  0  0  0  0
  -62.2293   31.6924  -29.6759 C   0  0  0  0  0  0  0  0  0  0  0  0
  -61.2069   30.8321  -30.0001 C   0  0  0  0  0  0  0  0  0  0  0  0
  -60.5686   30.9887  -31.2060 C   0  0  0  0  0  0  0  0  0  0  0  0
  -62.6078   32.6884  -30.5366 C   0  0  0  0  0  0  0  0  0  0  0  0
  -61.9506   32.8284  -31.7475 C   0  0  0  0  0  0  0  0  0  0  0  0
  -60.9250   31.9889  -32.1062 C   0  0  0  0  0  0  0  0  0  0  0  0
  1  4  2  0
  1  5  2  0
  6  1  1  0
  1  9  1  1
 20  2  2  0
 14  3  2  0
  7  6  1  0
  8  7  2  0
 10  7  1  0
 13  8  1  0
 10  9  1  0
 11 10  2  0
 12 11  1  0
 12 13  2  0
 14 12  1  0
 15 14  1  0
 15 16  1  0
 18 15  1  0
 16 17  1  0
 17 24  1  0
 19 18  1  0
 19 20  1  0
 19 24  2  0
 20 21  1  0
 21 22  2  0
 22 23  1  0
 22 25  1  0
 23 24  1  0
 25 26  2  0
 25 28  1  0
 26 27  1  0
 27 30  2  0
 28 29  2  0
 29 30  1  0
M  END
$$$$
