
     RDKit          3D

 30 34  0  0  0  0  0  0  0  0999 V2000
  -59.0142   24.5178  -25.9729 S   0  0  1  0  0  6  0  0  0  0  0  0
  -62.1325   33.5257  -24.5510 O   0  0  0  0  0  0  0  0  0  0  0  0
  -64.5936   28.7590  -26.0803 O   0  0  0  0  0  0  0  0  0  0  0  0
  -59.4474   23.8387  -24.7058 O   0  0  0  0  0  0  0  0  0  0  0  0
  -57.6328   24.1865  -26.3809 O   0  0  0  0  0  0  0  0  0  0  0  0
  -60.1868   24.3131  -27.2196 N   0  0  0  0  0  0  0  0  0  0  0  0
  -61.0434   25.4293  -27.1122 C   0  0  0  0  0  0  0  0  0  0  0  0
  -62.3069   25.5457  -27.7130 C   0  0  0  0  0  0  0  0  0  0  0  0
  -59.2565   26.2769  -25.7506 C   0  0  0  0  0  0  0  0  0  0  0  0
  -60.5938   26.4484  -26.3638 C   0  0  0  0  0  0  0  0  0  0  0  0
  -61.3913   27.5936  -26.2028 C   0  0  0  0  0  0  0  0  0  0  0  0
  -62.6241   27.7058  -26.7892 C   0  0  0  0  0  0  0  0  0  0  0  0
  -63.0951   26.6724  -27.5560 C   0  0  0  0  0  0  0  0  0  0  0  0
  -63.4267   28.9003  -26.5995 C   0  0  0  0  0  0  0  0  0  0  0  0
  -62.9593   30.1862  -26.9669 N   0  0  0  0  0  0  0  0  0  0  0  0
  -62.7453   30.5040  -28.3533 C   0  0  0  0  0  0  0  0  0  0  0  0
  -63.6918   31.6471  -28.7125 C   0  0  0  0  0  0  0  0  0  0  0  0
  -62.6808   31.1916  -25.9676 C   0  0  0  0  0  0  0  0  0  0  0  0
  -62.8714   32.5610  -26.5217 C   0  0  0  0  0  0  0  0  0  0  0  0
  -62.5684   33.6652  -25.7288 C   0  0  0  0  0  0  0  0  0  0  0  0
  -62.7509   34.8820  -26.2486 N   0  0  0  0  0  0  0  0  0  0  0  0
  -63.2127   35.1214  -27.4994 C   0  0  0  0  0  0  0  0  0  0  0  0
  -63.4935   34.0509  -28.2340 N   0  0  0  0  0  0  0  0  0  0  0  0
  -63.3412   32.7845  -27.7949 C   0  0  0  0  0  0  0  0  0  0  0  0
  -63.3767   36.5010  -27.9529 C   0  0  0  0  0  0  0  0  0  0  0  0
  -63.2718   37.5057  -27.0201 C   0  0  0  0  0  0  0  0  0  0  0  0
  -63.4267   38.8073  -27.4303 C   0  0  0  0  0  0  0  0  0  0  0  0
  -63.6305   36.7880  -29.2679 C   0  0  0  0  0  0  0  0  0  0  0  0
  -63.7833   38.1075  -29.6598 C   0  0  0  0  0  0  0  0  0  0  0  0
  -63.6857   39.1377  -28.7575 C   0  0  0  0  0  0  0  0  0  0  0  0
  1  4  2  0
  1  5  2  0
  6  1  1  0
  1  9  1  1
 20  2  2  0
 14  3  2  0
  7  6  1  0
  8  7  2  0
 10  7  1  0
 13  8  1  0
 10  9  1  0
 11 10  2  0
 12 11  1  0
 12 13  2  0
 14 12  1  0
 15 14  1  0
 15 16  1  0
 18 15  1  0
 16 17  1  0
 17 24  1  0
 19 18  1  0
 19 20  1  0
 19 24  2  0
 20 21  1  0
 21 22  2  0
 22 23  1  0
 22 25  1  0
 23 24  1  0
 25 26  2  0
 25 28  1  0
 26 27  1  0
 27 30  2  0
 28 29  2  0
 29 30  1  0
M  END
$$$$
