
     RDKit          3D

 30 34  0  0  0  0  0  0  0  0999 V2000
  -68.3737   25.7965  -26.7895 S   0  0  1  0  0  6  0  0  0  0  0  0
  -61.1734   33.2222  -30.1237 O   0  0  0  0  0  0  0  0  0  0  0  0
  -61.9462   28.4099  -28.2653 O   0  0  0  0  0  0  0  0  0  0  0  0
  -68.4257   24.8778  -27.9758 O   0  0  0  0  0  0  0  0  0  0  0  0
  -69.6538   25.8922  -26.0569 O   0  0  0  0  0  0  0  0  0  0  0  0
  -67.0133   25.4452  -25.7908 N   0  0  0  0  0  0  0  0  0  0  0  0
  -65.9768   26.2754  -26.2677 C   0  0  0  0  0  0  0  0  0  0  0  0
  -64.6134   26.1285  -25.9668 C   0  0  0  0  0  0  0  0  0  0  0  0
  -67.7977   27.3893  -27.3672 C   0  0  0  0  0  0  0  0  0  0  0  0
  -66.3492   27.2773  -27.0792 C   0  0  0  0  0  0  0  0  0  0  0  0
  -65.3747   28.1442  -27.6009 C   0  0  0  0  0  0  0  0  0  0  0  0
  -64.0447   27.9996  -27.3068 C   0  0  0  0  0  0  0  0  0  0  0  0
  -63.6509   26.9806  -26.4796 C   0  0  0  0  0  0  0  0  0  0  0  0
  -63.0610   28.9088  -27.8660 C   0  0  0  0  0  0  0  0  0  0  0  0
  -63.3013   30.3006  -27.9770 N   0  0  0  0  0  0  0  0  0  0  0  0
  -64.3876   30.9024  -27.2513 C   0  0  0  0  0  0  0  0  0  0  0  0
  -63.7847   31.9169  -26.2824 C   0  0  0  0  0  0  0  0  0  0  0  0
  -62.4761   31.1345  -28.8201 C   0  0  0  0  0  0  0  0  0  0  0  0
  -62.4285   32.5313  -28.3050 C   0  0  0  0  0  0  0  0  0  0  0  0
  -61.7476   33.5035  -29.0338 C   0  0  0  0  0  0  0  0  0  0  0  0
  -61.7176   34.7475  -28.5485 N   0  0  0  0  0  0  0  0  0  0  0  0
  -62.3052   35.1346  -27.3910 C   0  0  0  0  0  0  0  0  0  0  0  0
  -62.9479   34.1880  -26.7161 N   0  0  0  0  0  0  0  0  0  0  0  0
  -63.0318   32.9059  -27.1271 C   0  0  0  0  0  0  0  0  0  0  0  0
  -62.1964   36.5271  -26.9606 C   0  0  0  0  0  0  0  0  0  0  0  0
  -62.9163   36.9219  -25.8578 C   0  0  0  0  0  0  0  0  0  0  0  0
  -62.8269   38.2281  -25.4430 C   0  0  0  0  0  0  0  0  0  0  0  0
  -61.4031   37.4163  -27.6360 C   0  0  0  0  0  0  0  0  0  0  0  0
  -61.3275   38.7287  -27.2005 C   0  0  0  0  0  0  0  0  0  0  0  0
  -62.0318   39.1602  -26.1037 C   0  0  0  0  0  0  0  0  0  0  0  0
  1  4  2  0
  1  5  2  0
  6  1  1  0
  1  9  1  6
 20  2  2  0
 14  3  2  0
  7  6  1  0
  8  7  2  0
 10  7  1  0
 13  8  1  0
 10  9  1  0
 11 10  2  0
 12 11  1  0
 12 13  2  0
 14 12  1  0
 15 14  1  0
 15 16  1  0
 18 15  1  0
 16 17  1  0
 17 24  1  0
 19 18  1  0
 19 20  1  0
 19 24  2  0
 20 21  1  0
 21 22  2  0
 22 23  1  0
 22 25  1  0
 23 24  1  0
 25 26  2  0
 25 28  1  0
 26 27  1  0
 27 30  2  0
 28 29  2  0
 29 30  1  0
M  END
$$$$
