
     RDKit          3D

 30 34  0  0  0  0  0  0  0  0999 V2000
  -63.6393   25.4875  -33.5487 S   0  0  1  0  0  6  0  0  0  0  0  0
  -63.5105   30.1835  -23.9338 O   0  0  0  0  0  0  0  0  0  0  0  0
  -63.4964   25.4726  -26.3370 O   0  0  0  0  0  0  0  0  0  0  0  0
  -62.2049   25.2015  -33.8878 O   0  0  0  0  0  0  0  0  0  0  0  0
  -64.4707   25.8241  -34.7234 O   0  0  0  0  0  0  0  0  0  0  0  0
  -64.2999   24.2493  -32.5478 N   0  0  0  0  0  0  0  0  0  0  0  0
  -64.0755   24.6814  -31.2235 C   0  0  0  0  0  0  0  0  0  0  0  0
  -64.1696   23.8754  -30.0778 C   0  0  0  0  0  0  0  0  0  0  0  0
  -63.6523   26.7799  -32.3110 C   0  0  0  0  0  0  0  0  0  0  0  0
  -63.7396   25.9719  -31.0727 C   0  0  0  0  0  0  0  0  0  0  0  0
  -63.4936   26.4774  -29.7853 C   0  0  0  0  0  0  0  0  0  0  0  0
  -63.5854   25.6899  -28.6683 C   0  0  0  0  0  0  0  0  0  0  0  0
  -63.9274   24.3703  -28.8082 C   0  0  0  0  0  0  0  0  0  0  0  0
  -63.3199   26.2406  -27.3519 C   0  0  0  0  0  0  0  0  0  0  0  0
  -62.8808   27.5752  -27.1699 N   0  0  0  0  0  0  0  0  0  0  0  0
  -62.1371   28.2350  -28.2094 C   0  0  0  0  0  0  0  0  0  0  0  0
  -62.9594   29.4369  -28.6685 C   0  0  0  0  0  0  0  0  0  0  0  0
  -63.1585   28.2909  -25.9461 C   0  0  0  0  0  0  0  0  0  0  0  0
  -63.2420   29.7573  -26.1936 C   0  0  0  0  0  0  0  0  0  0  0  0
  -63.4211   30.6212  -25.1158 C   0  0  0  0  0  0  0  0  0  0  0  0
  -63.4956   31.9312  -25.3653 N   0  0  0  0  0  0  0  0  0  0  0  0
  -63.4092   32.4842  -26.5989 C   0  0  0  0  0  0  0  0  0  0  0  0
  -63.2384   31.6381  -27.6085 N   0  0  0  0  0  0  0  0  0  0  0  0
  -63.1518   30.3008  -27.4539 C   0  0  0  0  0  0  0  0  0  0  0  0
  -63.5123   33.9347  -26.7448 C   0  0  0  0  0  0  0  0  0  0  0  0
  -63.4852   34.4611  -28.0147 C   0  0  0  0  0  0  0  0  0  0  0  0
  -63.5780   35.8227  -28.1680 C   0  0  0  0  0  0  0  0  0  0  0  0
  -63.6299   34.7493  -25.6500 C   0  0  0  0  0  0  0  0  0  0  0  0
  -63.7220   36.1197  -25.8273 C   0  0  0  0  0  0  0  0  0  0  0  0
  -63.6982   36.6822  -27.0796 C   0  0  0  0  0  0  0  0  0  0  0  0
  1  4  2  0
  1  5  2  0
  6  1  1  0
  1  9  1  1
 20  2  2  0
 14  3  2  0
  7  6  1  0
  8  7  2  0
 10  7  1  0
 13  8  1  0
 10  9  1  0
 11 10  2  0
 12 11  1  0
 12 13  2  0
 14 12  1  0
 15 14  1  0
 15 16  1  0
 18 15  1  0
 16 17  1  0
 17 24  1  0
 19 18  1  0
 19 20  1  0
 19 24  2  0
 20 21  1  0
 21 22  2  0
 22 23  1  0
 22 25  1  0
 23 24  1  0
 25 26  2  0
 25 28  1  0
 26 27  1  0
 27 30  2  0
 28 29  2  0
 29 30  1  0
M  END
$$$$
