
     RDKit          3D

 30 34  0  0  0  0  0  0  0  0999 V2000
  -64.1067   26.6954  -25.3160 S   0  0  1  0  0  6  0  0  0  0  0  0
  -62.5498   33.0578  -26.2609 O   0  0  0  0  0  0  0  0  0  0  0  0
  -60.7048   29.2665  -31.0702 O   0  0  0  0  0  0  0  0  0  0  0  0
  -65.3018   27.5649  -25.0519 O   0  0  0  0  0  0  0  0  0  0  0  0
  -63.8137   25.7425  -24.2248 O   0  0  0  0  0  0  0  0  0  0  0  0
  -64.1970   25.9732  -26.8786 N   0  0  0  0  0  0  0  0  0  0  0  0
  -63.5275   26.8669  -27.7412 C   0  0  0  0  0  0  0  0  0  0  0  0
  -63.6019   26.8537  -29.1431 C   0  0  0  0  0  0  0  0  0  0  0  0
  -62.7234   27.7746  -25.6688 C   0  0  0  0  0  0  0  0  0  0  0  0
  -62.7681   27.8015  -27.1490 C   0  0  0  0  0  0  0  0  0  0  0  0
  -62.0744   28.7327  -27.9396 C   0  0  0  0  0  0  0  0  0  0  0  0
  -62.1480   28.7190  -29.3073 C   0  0  0  0  0  0  0  0  0  0  0  0
  -62.9199   27.7700  -29.9247 C   0  0  0  0  0  0  0  0  0  0  0  0
  -61.4232   29.6983  -30.0963 C   0  0  0  0  0  0  0  0  0  0  0  0
  -61.4915   31.0860  -29.8196 N   0  0  0  0  0  0  0  0  0  0  0  0
  -61.2145   32.0406  -30.8594 C   0  0  0  0  0  0  0  0  0  0  0  0
  -62.4852   32.8577  -31.0811 C   0  0  0  0  0  0  0  0  0  0  0  0
  -61.8269   31.5672  -28.4994 C   0  0  0  0  0  0  0  0  0  0  0  0
  -62.4879   32.9001  -28.5700 C   0  0  0  0  0  0  0  0  0  0  0  0
  -62.8105   33.5642  -27.3889 C   0  0  0  0  0  0  0  0  0  0  0  0
  -63.4052   34.7567  -27.4800 N   0  0  0  0  0  0  0  0  0  0  0  0
  -63.7196   35.3710  -28.6457 C   0  0  0  0  0  0  0  0  0  0  0  0
  -63.4008   34.7161  -29.7565 N   0  0  0  0  0  0  0  0  0  0  0  0
  -62.7993   33.5087  -29.7635 C   0  0  0  0  0  0  0  0  0  0  0  0
  -64.3772   36.6758  -28.6155 C   0  0  0  0  0  0  0  0  0  0  0  0
  -64.9650   37.1313  -29.7721 C   0  0  0  0  0  0  0  0  0  0  0  0
  -65.5842   38.3572  -29.7604 C   0  0  0  0  0  0  0  0  0  0  0  0
  -64.4065   37.4270  -27.4706 C   0  0  0  0  0  0  0  0  0  0  0  0
  -65.0363   38.6604  -27.4811 C   0  0  0  0  0  0  0  0  0  0  0  0
  -65.6340   39.1488  -28.6165 C   0  0  0  0  0  0  0  0  0  0  0  0
  1  4  2  0
  1  5  2  0
  6  1  1  0
  1  9  1  6
 20  2  2  0
 14  3  2  0
  7  6  1  0
  8  7  2  0
 10  7  1  0
 13  8  1  0
 10  9  1  0
 11 10  2  0
 12 11  1  0
 12 13  2  0
 14 12  1  0
 15 14  1  0
 15 16  1  0
 18 15  1  0
 16 17  1  0
 17 24  1  0
 19 18  1  0
 19 20  1  0
 19 24  2  0
 20 21  1  0
 21 22  2  0
 22 23  1  0
 22 25  1  0
 23 24  1  0
 25 26  2  0
 25 28  1  0
 26 27  1  0
 27 30  2  0
 28 29  2  0
 29 30  1  0
M  END
$$$$
