
     RDKit          3D

 30 34  0  0  0  0  0  0  0  0999 V2000
  -57.6628   27.4542  -30.0606 S   0  0  1  0  0  6  0  0  0  0  0  0
  -64.5574   29.8469  -24.3451 O   0  0  0  0  0  0  0  0  0  0  0  0
  -63.0494   31.6982  -30.0659 O   0  0  0  0  0  0  0  0  0  0  0  0
  -56.8234   27.7175  -28.8440 O   0  0  0  0  0  0  0  0  0  0  0  0
  -56.9337   26.7667  -31.1469 O   0  0  0  0  0  0  0  0  0  0  0  0
  -59.1589   26.7115  -29.6343 N   0  0  0  0  0  0  0  0  0  0  0  0
  -60.0639   27.7776  -29.4466 C   0  0  0  0  0  0  0  0  0  0  0  0
  -61.3102   27.6836  -28.8071 C   0  0  0  0  0  0  0  0  0  0  0  0
  -58.3537   29.0190  -30.5866 C   0  0  0  0  0  0  0  0  0  0  0  0
  -59.6764   28.9713  -29.9218 C   0  0  0  0  0  0  0  0  0  0  0  0
  -60.5196   30.0844  -29.7684 C   0  0  0  0  0  0  0  0  0  0  0  0
  -61.7352   29.9915  -29.1439 C   0  0  0  0  0  0  0  0  0  0  0  0
  -62.1429   28.7784  -28.6541 C   0  0  0  0  0  0  0  0  0  0  0  0
  -62.5816   31.1614  -28.9964 C   0  0  0  0  0  0  0  0  0  0  0  0
  -62.8936   31.7083  -27.7273 N   0  0  0  0  0  0  0  0  0  0  0  0
  -62.6825   33.1089  -27.4769 C   0  0  0  0  0  0  0  0  0  0  0  0
  -64.0428   33.7283  -27.1645 C   0  0  0  0  0  0  0  0  0  0  0  0
  -63.4148   30.8785  -26.6658 C   0  0  0  0  0  0  0  0  0  0  0  0
  -64.2706   31.6721  -25.7404 C   0  0  0  0  0  0  0  0  0  0  0  0
  -64.7962   31.0603  -24.6049 C   0  0  0  0  0  0  0  0  0  0  0  0
  -65.5628   31.7933  -23.7931 N   0  0  0  0  0  0  0  0  0  0  0  0
  -65.8683   33.0975  -23.9957 C   0  0  0  0  0  0  0  0  0  0  0  0
  -65.3540   33.6562  -25.0855 N   0  0  0  0  0  0  0  0  0  0  0  0
  -64.5698   32.9961  -25.9625 C   0  0  0  0  0  0  0  0  0  0  0  0
  -66.7251   33.7919  -23.0368 C   0  0  0  0  0  0  0  0  0  0  0  0
  -66.9956   35.1222  -23.2554 C   0  0  0  0  0  0  0  0  0  0  0  0
  -67.7967   35.7894  -22.3614 C   0  0  0  0  0  0  0  0  0  0  0  0
  -67.2431   33.1400  -21.9492 C   0  0  0  0  0  0  0  0  0  0  0  0
  -68.0485   33.8320  -21.0603 C   0  0  0  0  0  0  0  0  0  0  0  0
  -68.3408   35.1608  -21.2449 C   0  0  0  0  0  0  0  0  0  0  0  0
  1  4  2  0
  1  5  2  0
  6  1  1  0
  1  9  1  6
 20  2  2  0
 14  3  2  0
  7  6  1  0
  8  7  2  0
 10  7  1  0
 13  8  1  0
 10  9  1  0
 11 10  2  0
 12 11  1  0
 12 13  2  0
 14 12  1  0
 15 14  1  0
 15 16  1  0
 18 15  1  0
 16 17  1  0
 17 24  1  0
 19 18  1  0
 19 20  1  0
 19 24  2  0
 20 21  1  0
 21 22  2  0
 22 23  1  0
 22 25  1  0
 23 24  1  0
 25 26  2  0
 25 28  1  0
 26 27  1  0
 27 30  2  0
 28 29  2  0
 29 30  1  0
M  END
$$$$
