
     RDKit          3D

 30 34  0  0  0  0  0  0  0  0999 V2000
  -68.2186   29.8618  -23.5995 S   0  0  1  0  0  6  0  0  0  0  0  0
  -62.0405   31.6308  -32.3212 O   0  0  0  0  0  0  0  0  0  0  0  0
  -62.2790   29.5214  -27.5564 O   0  0  0  0  0  0  0  0  0  0  0  0
  -68.7638   28.5114  -23.9646 O   0  0  0  0  0  0  0  0  0  0  0  0
  -69.1567   30.6862  -22.8089 O   0  0  0  0  0  0  0  0  0  0  0  0
  -66.6429   29.7308  -22.9130 N   0  0  0  0  0  0  0  0  0  0  0  0
  -65.7517   29.8508  -24.0003 C   0  0  0  0  0  0  0  0  0  0  0  0
  -64.3896   29.5114  -23.9768 C   0  0  0  0  0  0  0  0  0  0  0  0
  -67.7148   30.6668  -25.1163 C   0  0  0  0  0  0  0  0  0  0  0  0
  -66.2739   30.3247  -25.1419 C   0  0  0  0  0  0  0  0  0  0  0  0
  -65.4522   30.4676  -26.2723 C   0  0  0  0  0  0  0  0  0  0  0  0
  -64.1234   30.1358  -26.2482 C   0  0  0  0  0  0  0  0  0  0  0  0
  -63.5775   29.6506  -25.0888 C   0  0  0  0  0  0  0  0  0  0  0  0
  -63.3015   30.2900  -27.4347 C   0  0  0  0  0  0  0  0  0  0  0  0
  -63.5983   31.2478  -28.4355 N   0  0  0  0  0  0  0  0  0  0  0  0
  -64.5285   32.3099  -28.1604 C   0  0  0  0  0  0  0  0  0  0  0  0
  -63.7677   33.6281  -28.2831 C   0  0  0  0  0  0  0  0  0  0  0  0
  -62.9881   31.1733  -29.7428 C   0  0  0  0  0  0  0  0  0  0  0  0
  -62.8746   32.5261  -30.3558 C   0  0  0  0  0  0  0  0  0  0  0  0
  -62.3857   32.6470  -31.6544 C   0  0  0  0  0  0  0  0  0  0  0  0
  -62.2914   33.8715  -32.1795 N   0  0  0  0  0  0  0  0  0  0  0  0
  -62.6388   35.0119  -31.5362 C   0  0  0  0  0  0  0  0  0  0  0  0
  -63.1020   34.8680  -30.2996 N   0  0  0  0  0  0  0  0  0  0  0  0
  -63.2328   33.6733  -29.6868 C   0  0  0  0  0  0  0  0  0  0  0  0
  -62.4827   36.2962  -32.2159 C   0  0  0  0  0  0  0  0  0  0  0  0
  -62.8314   37.4370  -31.5321 C   0  0  0  0  0  0  0  0  0  0  0  0
  -62.6934   38.6514  -32.1585 C   0  0  0  0  0  0  0  0  0  0  0  0
  -62.0058   36.3648  -33.4980 C   0  0  0  0  0  0  0  0  0  0  0  0
  -61.8747   37.5998  -34.1108 C   0  0  0  0  0  0  0  0  0  0  0  0
  -62.2127   38.7607  -33.4603 C   0  0  0  0  0  0  0  0  0  0  0  0
  1  4  2  0
  1  5  2  0
  6  1  1  0
  1  9  1  6
 20  2  2  0
 14  3  2  0
  7  6  1  0
  8  7  2  0
 10  7  1  0
 13  8  1  0
 10  9  1  0
 11 10  2  0
 12 11  1  0
 12 13  2  0
 14 12  1  0
 15 14  1  0
 15 16  1  0
 18 15  1  0
 16 17  1  0
 17 24  1  0
 19 18  1  0
 19 20  1  0
 19 24  2  0
 20 21  1  0
 21 22  2  0
 22 23  1  0
 22 25  1  0
 23 24  1  0
 25 26  2  0
 25 28  1  0
 26 27  1  0
 27 30  2  0
 28 29  2  0
 29 30  1  0
M  END
$$$$
