
     RDKit          3D

 30 34  0  0  0  0  0  0  0  0999 V2000
  -68.0774   31.1029  -23.2773 S   0  0  1  0  0  6  0  0  0  0  0  0
  -62.6910   34.9100  -25.3030 O   0  0  0  0  0  0  0  0  0  0  0  0
  -62.6718   28.9989  -27.5720 O   0  0  0  0  0  0  0  0  0  0  0  0
  -69.1538   31.4898  -24.2498 O   0  0  0  0  0  0  0  0  0  0  0  0
  -68.3990   31.4352  -21.8735 O   0  0  0  0  0  0  0  0  0  0  0  0
  -67.5783   29.4708  -23.5199 N   0  0  0  0  0  0  0  0  0  0  0  0
  -66.5000   29.5420  -24.4271 C   0  0  0  0  0  0  0  0  0  0  0  0
  -65.9684   28.4591  -25.1453 C   0  0  0  0  0  0  0  0  0  0  0  0
  -66.5552   31.8664  -23.8275 C   0  0  0  0  0  0  0  0  0  0  0  0
  -65.9586   30.7567  -24.6063 C   0  0  0  0  0  0  0  0  0  0  0  0
  -64.8848   30.9113  -25.4987 C   0  0  0  0  0  0  0  0  0  0  0  0
  -64.3671   29.8540  -26.1990 C   0  0  0  0  0  0  0  0  0  0  0  0
  -64.9108   28.6082  -26.0254 C   0  0  0  0  0  0  0  0  0  0  0  0
  -63.2603   30.0471  -27.1179 C   0  0  0  0  0  0  0  0  0  0  0  0
  -62.8278   31.3369  -27.5135 N   0  0  0  0  0  0  0  0  0  0  0  0
  -62.3910   31.5652  -28.8648 C   0  0  0  0  0  0  0  0  0  0  0  0
  -63.3369   32.5913  -29.4846 C   0  0  0  0  0  0  0  0  0  0  0  0
  -62.8065   32.4359  -26.5762 C   0  0  0  0  0  0  0  0  0  0  0  0
  -62.9919   33.7373  -27.2765 C   0  0  0  0  0  0  0  0  0  0  0  0
  -62.9166   34.9210  -26.5463 C   0  0  0  0  0  0  0  0  0  0  0  0
  -63.0894   36.0741  -27.1978 N   0  0  0  0  0  0  0  0  0  0  0  0
  -63.3344   36.1764  -28.5261 C   0  0  0  0  0  0  0  0  0  0  0  0
  -63.4009   35.0327  -29.1984 N   0  0  0  0  0  0  0  0  0  0  0  0
  -63.2397   33.8215  -28.6268 C   0  0  0  0  0  0  0  0  0  0  0  0
  -63.5126   37.4980  -29.1241 C   0  0  0  0  0  0  0  0  0  0  0  0
  -63.6304   38.5788  -28.2823 C   0  0  0  0  0  0  0  0  0  0  0  0
  -63.8015   39.8270  -28.8291 C   0  0  0  0  0  0  0  0  0  0  0  0
  -63.5642   37.6584  -30.4834 C   0  0  0  0  0  0  0  0  0  0  0  0
  -63.7375   38.9260  -31.0136 C   0  0  0  0  0  0  0  0  0  0  0  0
  -63.8590   40.0291  -30.2052 C   0  0  0  0  0  0  0  0  0  0  0  0
  1  4  2  0
  1  5  2  0
  6  1  1  0
  1  9  1  6
 20  2  2  0
 14  3  2  0
  7  6  1  0
  8  7  2  0
 10  7  1  0
 13  8  1  0
 10  9  1  0
 11 10  2  0
 12 11  1  0
 12 13  2  0
 14 12  1  0
 15 14  1  0
 15 16  1  0
 18 15  1  0
 16 17  1  0
 17 24  1  0
 19 18  1  0
 19 20  1  0
 19 24  2  0
 20 21  1  0
 21 22  2  0
 22 23  1  0
 22 25  1  0
 23 24  1  0
 25 26  2  0
 25 28  1  0
 26 27  1  0
 27 30  2  0
 28 29  2  0
 29 30  1  0
M  END
$$$$
