
     RDKit          3D

 30 34  0  0  0  0  0  0  0  0999 V2000
  -67.8214   25.8970  -30.9061 S   0  0  1  0  0  6  0  0  0  0  0  0
  -62.4915   28.5977  -23.4227 O   0  0  0  0  0  0  0  0  0  0  0  0
  -61.2285   25.8367  -28.1036 O   0  0  0  0  0  0  0  0  0  0  0  0
  -68.0973   27.2811  -31.4183 O   0  0  0  0  0  0  0  0  0  0  0  0
  -69.0141   25.0245  -30.8828 O   0  0  0  0  0  0  0  0  0  0  0  0
  -66.4547   25.2035  -31.6951 N   0  0  0  0  0  0  0  0  0  0  0  0
  -65.3475   25.5416  -30.8884 C   0  0  0  0  0  0  0  0  0  0  0  0
  -64.0012   25.4546  -31.2769 C   0  0  0  0  0  0  0  0  0  0  0  0
  -67.0648   26.0612  -29.2926 C   0  0  0  0  0  0  0  0  0  0  0  0
  -65.6304   25.9863  -29.6543 C   0  0  0  0  0  0  0  0  0  0  0  0
  -64.5825   26.3494  -28.7921 C   0  0  0  0  0  0  0  0  0  0  0  0
  -63.2693   26.2644  -29.1724 C   0  0  0  0  0  0  0  0  0  0  0  0
  -62.9666   25.8119  -30.4300 C   0  0  0  0  0  0  0  0  0  0  0  0
  -62.2090   26.6522  -28.2601 C   0  0  0  0  0  0  0  0  0  0  0  0
  -62.2346   27.8819  -27.5571 N   0  0  0  0  0  0  0  0  0  0  0  0
  -62.2146   29.1243  -28.2817 C   0  0  0  0  0  0  0  0  0  0  0  0
  -63.5150   29.8596  -27.9657 C   0  0  0  0  0  0  0  0  0  0  0  0
  -62.2703   27.9144  -26.1133 C   0  0  0  0  0  0  0  0  0  0  0  0
  -62.9507   29.1460  -25.6247 C   0  0  0  0  0  0  0  0  0  0  0  0
  -63.0083   29.3952  -24.2555 C   0  0  0  0  0  0  0  0  0  0  0  0
  -63.6266   30.5052  -23.8436 N   0  0  0  0  0  0  0  0  0  0  0  0
  -64.2058   31.4120  -24.6665 C   0  0  0  0  0  0  0  0  0  0  0  0
  -64.1362   31.1502  -25.9669 N   0  0  0  0  0  0  0  0  0  0  0  0
  -63.5332   30.0561  -26.4758 C   0  0  0  0  0  0  0  0  0  0  0  0
  -64.8597   32.5870  -24.0940 C   0  0  0  0  0  0  0  0  0  0  0  0
  -64.8743   32.7171  -22.7253 C   0  0  0  0  0  0  0  0  0  0  0  0
  -65.4878   33.8143  -22.1722 C   0  0  0  0  0  0  0  0  0  0  0  0
  -65.4447   33.5316  -24.8950 C   0  0  0  0  0  0  0  0  0  0  0  0
  -66.0579   34.6302  -24.3162 C   0  0  0  0  0  0  0  0  0  0  0  0
  -66.0929   34.7946  -22.9535 C   0  0  0  0  0  0  0  0  0  0  0  0
  1  4  2  0
  1  5  2  0
  6  1  1  0
  1  9  1  1
 20  2  2  0
 14  3  2  0
  7  6  1  0
  8  7  2  0
 10  7  1  0
 13  8  1  0
 10  9  1  0
 11 10  2  0
 12 11  1  0
 12 13  2  0
 14 12  1  0
 15 14  1  0
 15 16  1  0
 18 15  1  0
 16 17  1  0
 17 24  1  0
 19 18  1  0
 19 20  1  0
 19 24  2  0
 20 21  1  0
 21 22  2  0
 22 23  1  0
 22 25  1  0
 23 24  1  0
 25 26  2  0
 25 28  1  0
 26 27  1  0
 27 30  2  0
 28 29  2  0
 29 30  1  0
M  END
$$$$
