
     RDKit          3D

 30 34  0  0  0  0  0  0  0  0999 V2000
  -67.4655   31.9896  -22.3382 S   0  0  1  0  0  6  0  0  0  0  0  0
  -62.1970   36.0363  -25.8785 O   0  0  0  0  0  0  0  0  0  0  0  0
  -62.4233   29.7070  -26.7360 O   0  0  0  0  0  0  0  0  0  0  0  0
  -68.4559   30.9315  -22.7302 O   0  0  0  0  0  0  0  0  0  0  0  0
  -68.0374   33.0487  -21.4803 O   0  0  0  0  0  0  0  0  0  0  0  0
  -66.0172   31.2870  -21.7216 N   0  0  0  0  0  0  0  0  0  0  0  0
  -65.1679   31.1432  -22.8391 C   0  0  0  0  0  0  0  0  0  0  0  0
  -64.0091   30.3517  -22.8835 C   0  0  0  0  0  0  0  0  0  0  0  0
  -66.7514   32.6427  -23.8436 C   0  0  0  0  0  0  0  0  0  0  0  0
  -65.5211   31.8237  -23.9404 C   0  0  0  0  0  0  0  0  0  0  0  0
  -64.7299   31.7275  -25.0972 C   0  0  0  0  0  0  0  0  0  0  0  0
  -63.5997   30.9548  -25.1394 C   0  0  0  0  0  0  0  0  0  0  0  0
  -63.2278   30.2546  -24.0218 C   0  0  0  0  0  0  0  0  0  0  0  0
  -62.8060   30.8718  -26.3518 C   0  0  0  0  0  0  0  0  0  0  0  0
  -62.4544   32.0221  -27.1003 N   0  0  0  0  0  0  0  0  0  0  0  0
  -62.1653   31.9050  -28.5045 C   0  0  0  0  0  0  0  0  0  0  0  0
  -63.1995   32.7400  -29.2561 C   0  0  0  0  0  0  0  0  0  0  0  0
  -62.3696   33.3214  -26.4745 C   0  0  0  0  0  0  0  0  0  0  0  0
  -62.6639   34.4047  -27.4535 C   0  0  0  0  0  0  0  0  0  0  0  0
  -62.5490   35.7341  -27.0538 C   0  0  0  0  0  0  0  0  0  0  0  0
  -62.8214   36.6861  -27.9501 N   0  0  0  0  0  0  0  0  0  0  0  0
  -63.2042   36.4509  -29.2281 C   0  0  0  0  0  0  0  0  0  0  0  0
  -63.3056   35.1748  -29.5829 N   0  0  0  0  0  0  0  0  0  0  0  0
  -63.0511   34.1464  -28.7478 C   0  0  0  0  0  0  0  0  0  0  0  0
  -63.4815   37.5795  -30.1143 C   0  0  0  0  0  0  0  0  0  0  0  0
  -63.9990   37.3125  -31.3599 C   0  0  0  0  0  0  0  0  0  0  0  0
  -64.2620   38.3624  -32.2053 C   0  0  0  0  0  0  0  0  0  0  0  0
  -63.2316   38.8670  -29.7195 C   0  0  0  0  0  0  0  0  0  0  0  0
  -63.5042   39.9108  -30.5879 C   0  0  0  0  0  0  0  0  0  0  0  0
  -64.0210   39.6837  -31.8395 C   0  0  0  0  0  0  0  0  0  0  0  0
  1  4  2  0
  1  5  2  0
  6  1  1  0
  1  9  1  6
 20  2  2  0
 14  3  2  0
  7  6  1  0
  8  7  2  0
 10  7  1  0
 13  8  1  0
 10  9  1  0
 11 10  2  0
 12 11  1  0
 12 13  2  0
 14 12  1  0
 15 14  1  0
 15 16  1  0
 18 15  1  0
 16 17  1  0
 17 24  1  0
 19 18  1  0
 19 20  1  0
 19 24  2  0
 20 21  1  0
 21 22  2  0
 22 23  1  0
 22 25  1  0
 23 24  1  0
 25 26  2  0
 25 28  1  0
 26 27  1  0
 27 30  2  0
 28 29  2  0
 29 30  1  0
M  END
$$$$
