
     RDKit          3D

 30 34  0  0  0  0  0  0  0  0999 V2000
  -69.0548   31.8103  -23.1680 S   0  0  1  0  0  6  0  0  0  0  0  0
  -61.9486   36.6766  -25.7181 O   0  0  0  0  0  0  0  0  0  0  0  0
  -61.8590   31.5548  -22.8274 O   0  0  0  0  0  0  0  0  0  0  0  0
  -69.3580   30.5345  -23.8991 O   0  0  0  0  0  0  0  0  0  0  0  0
  -70.2383   32.6712  -22.9613 O   0  0  0  0  0  0  0  0  0  0  0  0
  -68.1455   31.5045  -21.7358 N   0  0  0  0  0  0  0  0  0  0  0  0
  -66.7929   31.6028  -22.1252 C   0  0  0  0  0  0  0  0  0  0  0  0
  -65.6961   31.1437  -21.3786 C   0  0  0  0  0  0  0  0  0  0  0  0
  -67.7507   32.6470  -24.0636 C   0  0  0  0  0  0  0  0  0  0  0  0
  -66.5614   32.1808  -23.3139 C   0  0  0  0  0  0  0  0  0  0  0  0
  -65.2410   32.3103  -23.7754 C   0  0  0  0  0  0  0  0  0  0  0  0
  -64.1717   31.8618  -23.0462 C   0  0  0  0  0  0  0  0  0  0  0  0
  -64.3941   31.2695  -21.8306 C   0  0  0  0  0  0  0  0  0  0  0  0
  -62.8191   32.0054  -23.5528 C   0  0  0  0  0  0  0  0  0  0  0  0
  -62.5448   32.6177  -24.8006 N   0  0  0  0  0  0  0  0  0  0  0  0
  -62.4821   31.8183  -25.9948 C   0  0  0  0  0  0  0  0  0  0  0  0
  -63.5881   32.3035  -26.9291 C   0  0  0  0  0  0  0  0  0  0  0  0
  -62.3145   34.0405  -24.8981 C   0  0  0  0  0  0  0  0  0  0  0  0
  -62.7162   34.5548  -26.2370 C   0  0  0  0  0  0  0  0  0  0  0  0
  -62.4902   35.8934  -26.5487 C   0  0  0  0  0  0  0  0  0  0  0  0
  -62.8624   36.3299  -27.7549 N   0  0  0  0  0  0  0  0  0  0  0  0
  -63.4477   35.5599  -28.7033 C   0  0  0  0  0  0  0  0  0  0  0  0
  -63.6513   34.2877  -28.3802 N   0  0  0  0  0  0  0  0  0  0  0  0
  -63.3094   33.7575  -27.1879 C   0  0  0  0  0  0  0  0  0  0  0  0
  -63.8164   36.1560  -29.9858 C   0  0  0  0  0  0  0  0  0  0  0  0
  -63.7064   37.5198  -30.1212 C   0  0  0  0  0  0  0  0  0  0  0  0
  -64.0521   38.0951  -31.3194 C   0  0  0  0  0  0  0  0  0  0  0  0
  -64.2619   35.3814  -31.0239 C   0  0  0  0  0  0  0  0  0  0  0  0
  -64.6053   35.9823  -32.2235 C   0  0  0  0  0  0  0  0  0  0  0  0
  -64.5089   37.3409  -32.3965 C   0  0  0  0  0  0  0  0  0  0  0  0
  1  4  2  0
  1  5  2  0
  6  1  1  0
  1  9  1  6
 20  2  2  0
 14  3  2  0
  7  6  1  0
  8  7  2  0
 10  7  1  0
 13  8  1  0
 10  9  1  0
 11 10  2  0
 12 11  1  0
 12 13  2  0
 14 12  1  0
 15 14  1  0
 15 16  1  0
 18 15  1  0
 16 17  1  0
 17 24  1  0
 19 18  1  0
 19 20  1  0
 19 24  2  0
 20 21  1  0
 21 22  2  0
 22 23  1  0
 22 25  1  0
 23 24  1  0
 25 26  2  0
 25 28  1  0
 26 27  1  0
 27 30  2  0
 28 29  2  0
 29 30  1  0
M  END
$$$$
