
     RDKit          3D

 30 34  0  0  0  0  0  0  0  0999 V2000
  -62.5348   25.4200  -26.0128 S   0  0  1  0  0  6  0  0  0  0  0  0
  -62.4866   34.4548  -32.7988 O   0  0  0  0  0  0  0  0  0  0  0  0
  -60.7044   30.6085  -29.7317 O   0  0  0  0  0  0  0  0  0  0  0  0
  -61.1836   25.2681  -25.3761 O   0  0  0  0  0  0  0  0  0  0  0  0
  -63.3477   24.1860  -25.9808 O   0  0  0  0  0  0  0  0  0  0  0  0
  -63.3491   26.8174  -25.4165 N   0  0  0  0  0  0  0  0  0  0  0  0
  -63.0000   27.8585  -26.3026 C   0  0  0  0  0  0  0  0  0  0  0  0
  -63.1782   29.2293  -26.0575 C   0  0  0  0  0  0  0  0  0  0  0  0
  -62.2803   26.0261  -27.6773 C   0  0  0  0  0  0  0  0  0  0  0  0
  -62.4482   27.4825  -27.4667 C   0  0  0  0  0  0  0  0  0  0  0  0
  -62.0673   28.4608  -28.4001 C   0  0  0  0  0  0  0  0  0  0  0  0
  -62.2413   29.7980  -28.1597 C   0  0  0  0  0  0  0  0  0  0  0  0
  -62.8035   30.1955  -26.9749 C   0  0  0  0  0  0  0  0  0  0  0  0
  -61.8324   30.7850  -29.1423 C   0  0  0  0  0  0  0  0  0  0  0  0
  -62.6336   31.9106  -29.4555 N   0  0  0  0  0  0  0  0  0  0  0  0
  -63.6476   32.3495  -28.5346 C   0  0  0  0  0  0  0  0  0  0  0  0
  -63.2815   33.7638  -28.0904 C   0  0  0  0  0  0  0  0  0  0  0  0
  -62.4585   32.6277  -30.6973 C   0  0  0  0  0  0  0  0  0  0  0  0
  -62.8501   34.0569  -30.5471 C   0  0  0  0  0  0  0  0  0  0  0  0
  -62.8287   34.8903  -31.6630 C   0  0  0  0  0  0  0  0  0  0  0  0
  -63.1815   36.1682  -31.5006 N   0  0  0  0  0  0  0  0  0  0  0  0
  -63.5610   36.7162  -30.3213 C   0  0  0  0  0  0  0  0  0  0  0  0
  -63.5728   35.8995  -29.2737 N   0  0  0  0  0  0  0  0  0  0  0  0
  -63.2331   34.5958  -29.3410 C   0  0  0  0  0  0  0  0  0  0  0  0
  -63.9184   38.1323  -30.2691 C   0  0  0  0  0  0  0  0  0  0  0  0
  -64.3169   38.6553  -29.0615 C   0  0  0  0  0  0  0  0  0  0  0  0
  -64.6590   39.9838  -28.9971 C   0  0  0  0  0  0  0  0  0  0  0  0
  -63.8618   38.9180  -31.3896 C   0  0  0  0  0  0  0  0  0  0  0  0
  -64.2112   40.2552  -31.3022 C   0  0  0  0  0  0  0  0  0  0  0  0
  -64.6142   40.8132  -30.1142 C   0  0  0  0  0  0  0  0  0  0  0  0
  1  4  2  0
  1  5  2  0
  6  1  1  0
  1  9  1  6
 20  2  2  0
 14  3  2  0
  7  6  1  0
  8  7  2  0
 10  7  1  0
 13  8  1  0
 10  9  1  0
 11 10  2  0
 12 11  1  0
 12 13  2  0
 14 12  1  0
 15 14  1  0
 15 16  1  0
 18 15  1  0
 16 17  1  0
 17 24  1  0
 19 18  1  0
 19 20  1  0
 19 24  2  0
 20 21  1  0
 21 22  2  0
 22 23  1  0
 22 25  1  0
 23 24  1  0
 25 26  2  0
 25 28  1  0
 26 27  1  0
 27 30  2  0
 28 29  2  0
 29 30  1  0
M  END
$$$$
