
     RDKit          3D

 30 34  0  0  0  0  0  0  0  0999 V2000
  -70.2264   28.1190  -27.0689 S   0  0  1  0  0  6  0  0  0  0  0  0
  -61.9587   31.0090  -23.6789 O   0  0  0  0  0  0  0  0  0  0  0  0
  -63.5231   26.1538  -26.0836 O   0  0  0  0  0  0  0  0  0  0  0  0
  -70.2769   29.4804  -27.6999 O   0  0  0  0  0  0  0  0  0  0  0  0
  -71.5190   27.6791  -26.5031 O   0  0  0  0  0  0  0  0  0  0  0  0
  -69.4910   26.9719  -28.1247 N   0  0  0  0  0  0  0  0  0  0  0  0
  -68.1187   26.9904  -27.7972 C   0  0  0  0  0  0  0  0  0  0  0  0
  -67.0878   26.4499  -28.5821 C   0  0  0  0  0  0  0  0  0  0  0  0
  -68.9189   28.1403  -25.8472 C   0  0  0  0  0  0  0  0  0  0  0  0
  -67.7965   27.5848  -26.6380 C   0  0  0  0  0  0  0  0  0  0  0  0
  -66.4497   27.6497  -26.2442 C   0  0  0  0  0  0  0  0  0  0  0  0
  -65.4447   27.1222  -27.0109 C   0  0  0  0  0  0  0  0  0  0  0  0
  -65.7599   26.5126  -28.1970 C   0  0  0  0  0  0  0  0  0  0  0  0
  -64.0617   27.2100  -26.5790 C   0  0  0  0  0  0  0  0  0  0  0  0
  -63.3138   28.4080  -26.6906 N   0  0  0  0  0  0  0  0  0  0  0  0
  -62.9524   28.9111  -27.9888 C   0  0  0  0  0  0  0  0  0  0  0  0
  -63.6147   30.2773  -28.1511 C   0  0  0  0  0  0  0  0  0  0  0  0
  -62.8939   29.1367  -25.5160 C   0  0  0  0  0  0  0  0  0  0  0  0
  -62.7591   30.5905  -25.8107 C   0  0  0  0  0  0  0  0  0  0  0  0
  -62.2817   31.4452  -24.8199 C   0  0  0  0  0  0  0  0  0  0  0  0
  -62.1732   32.7447  -25.1090 N   0  0  0  0  0  0  0  0  0  0  0  0
  -62.4960   33.2952  -26.3039 C   0  0  0  0  0  0  0  0  0  0  0  0
  -62.9484   32.4579  -27.2306 N   0  0  0  0  0  0  0  0  0  0  0  0
  -63.0918   31.1315  -27.0307 C   0  0  0  0  0  0  0  0  0  0  0  0
  -62.3395   34.7354  -26.4971 C   0  0  0  0  0  0  0  0  0  0  0  0
  -61.6859   35.4520  -25.5225 C   0  0  0  0  0  0  0  0  0  0  0  0
  -61.5337   36.8068  -25.6882 C   0  0  0  0  0  0  0  0  0  0  0  0
  -62.8310   35.3569  -27.6144 C   0  0  0  0  0  0  0  0  0  0  0  0
  -62.6665   36.7240  -27.7613 C   0  0  0  0  0  0  0  0  0  0  0  0
  -62.0197   37.4732  -26.8096 C   0  0  0  0  0  0  0  0  0  0  0  0
  1  4  2  0
  1  5  2  0
  6  1  1  0
  1  9  1  1
 20  2  2  0
 14  3  2  0
  7  6  1  0
  8  7  2  0
 10  7  1  0
 13  8  1  0
 10  9  1  0
 11 10  2  0
 12 11  1  0
 12 13  2  0
 14 12  1  0
 15 14  1  0
 15 16  1  0
 18 15  1  0
 16 17  1  0
 17 24  1  0
 19 18  1  0
 19 20  1  0
 19 24  2  0
 20 21  1  0
 21 22  2  0
 22 23  1  0
 22 25  1  0
 23 24  1  0
 25 26  2  0
 25 28  1  0
 26 27  1  0
 27 30  2  0
 28 29  2  0
 29 30  1  0
M  END
$$$$
