
     RDKit          3D

 30 34  0  0  0  0  0  0  0  0999 V2000
  -63.8745   24.7108  -25.8129 S   0  0  1  0  0  6  0  0  0  0  0  0
  -62.9778   33.3499  -26.4160 O   0  0  0  0  0  0  0  0  0  0  0  0
  -61.3096   28.6656  -30.4978 O   0  0  0  0  0  0  0  0  0  0  0  0
  -62.7984   24.6803  -24.7663 O   0  0  0  0  0  0  0  0  0  0  0  0
  -64.7463   23.5174  -25.8022 O   0  0  0  0  0  0  0  0  0  0  0  0
  -64.7275   26.2085  -25.7834 N   0  0  0  0  0  0  0  0  0  0  0  0
  -64.0483   27.0420  -26.6970 C   0  0  0  0  0  0  0  0  0  0  0  0
  -64.1920   28.4356  -26.7885 C   0  0  0  0  0  0  0  0  0  0  0  0
  -63.0784   24.9598  -27.3962 C   0  0  0  0  0  0  0  0  0  0  0  0
  -63.1955   26.4299  -27.5330 C   0  0  0  0  0  0  0  0  0  0  0  0
  -62.4761   27.1920  -28.4685 C   0  0  0  0  0  0  0  0  0  0  0  0
  -62.6169   28.5517  -28.5566 C   0  0  0  0  0  0  0  0  0  0  0  0
  -63.4844   29.1892  -27.7088 C   0  0  0  0  0  0  0  0  0  0  0  0
  -61.8553   29.3120  -29.5306 C   0  0  0  0  0  0  0  0  0  0  0  0
  -61.7063   30.7177  -29.4370 N   0  0  0  0  0  0  0  0  0  0  0  0
  -61.0752   31.4461  -30.5049 C   0  0  0  0  0  0  0  0  0  0  0  0
  -62.1087   32.4180  -31.0695 C   0  0  0  0  0  0  0  0  0  0  0  0
  -62.1703   31.4408  -28.2757 C   0  0  0  0  0  0  0  0  0  0  0  0
  -62.5433   32.8382  -28.6318 C   0  0  0  0  0  0  0  0  0  0  0  0
  -62.9358   33.7164  -27.6245 C   0  0  0  0  0  0  0  0  0  0  0  0
  -63.2680   34.9629  -27.9710 N   0  0  0  0  0  0  0  0  0  0  0  0
  -63.2507   35.4378  -29.2396 C   0  0  0  0  0  0  0  0  0  0  0  0
  -62.8724   34.5797  -30.1803 N   0  0  0  0  0  0  0  0  0  0  0  0
  -62.5194   33.3027  -29.9262 C   0  0  0  0  0  0  0  0  0  0  0  0
  -63.6435   36.8224  -29.4938 C   0  0  0  0  0  0  0  0  0  0  0  0
  -63.9330   37.6218  -28.4132 C   0  0  0  0  0  0  0  0  0  0  0  0
  -64.3067   38.9245  -28.6361 C   0  0  0  0  0  0  0  0  0  0  0  0
  -63.7248   37.3117  -30.7705 C   0  0  0  0  0  0  0  0  0  0  0  0
  -64.1037   38.6283  -30.9724 C   0  0  0  0  0  0  0  0  0  0  0  0
  -64.4006   39.4570  -29.9188 C   0  0  0  0  0  0  0  0  0  0  0  0
  1  4  2  0
  1  5  2  0
  6  1  1  0
  1  9  1  6
 20  2  2  0
 14  3  2  0
  7  6  1  0
  8  7  2  0
 10  7  1  0
 13  8  1  0
 10  9  1  0
 11 10  2  0
 12 11  1  0
 12 13  2  0
 14 12  1  0
 15 14  1  0
 15 16  1  0
 18 15  1  0
 16 17  1  0
 17 24  1  0
 19 18  1  0
 19 20  1  0
 19 24  2  0
 20 21  1  0
 21 22  2  0
 22 23  1  0
 22 25  1  0
 23 24  1  0
 25 26  2  0
 25 28  1  0
 26 27  1  0
 27 30  2  0
 28 29  2  0
 29 30  1  0
M  END
$$$$
