
     RDKit          3D

 30 34  0  0  0  0  0  0  0  0999 V2000
  -68.5942   30.7132  -23.9776 S   0  0  1  0  0  6  0  0  0  0  0  0
  -60.6227   30.9695  -31.5688 O   0  0  0  0  0  0  0  0  0  0  0  0
  -62.2605   29.2814  -26.9241 O   0  0  0  0  0  0  0  0  0  0  0  0
  -69.6233   30.8326  -25.0643 O   0  0  0  0  0  0  0  0  0  0  0  0
  -69.0671   31.1835  -22.6587 O   0  0  0  0  0  0  0  0  0  0  0  0
  -67.8935   29.1384  -23.9559 N   0  0  0  0  0  0  0  0  0  0  0  0
  -66.7588   29.2239  -24.7902 C   0  0  0  0  0  0  0  0  0  0  0  0
  -66.0492   28.1311  -25.3128 C   0  0  0  0  0  0  0  0  0  0  0  0
  -67.1288   31.5817  -24.5263 C   0  0  0  0  0  0  0  0  0  0  0  0
  -66.3468   30.4627  -25.1009 C   0  0  0  0  0  0  0  0  0  0  0  0
  -65.2273   30.6317  -25.9324 C   0  0  0  0  0  0  0  0  0  0  0  0
  -64.5359   29.5647  -26.4420 C   0  0  0  0  0  0  0  0  0  0  0  0
  -64.9462   28.2943  -26.1327 C   0  0  0  0  0  0  0  0  0  0  0  0
  -63.3859   29.7722  -27.3030 C   0  0  0  0  0  0  0  0  0  0  0  0
  -63.4790   30.4875  -28.5223 N   0  0  0  0  0  0  0  0  0  0  0  0
  -64.6750   31.2234  -28.8341 C   0  0  0  0  0  0  0  0  0  0  0  0
  -64.2890   32.6962  -28.9505 C   0  0  0  0  0  0  0  0  0  0  0  0
  -62.3913   30.4849  -29.4729 C   0  0  0  0  0  0  0  0  0  0  0  0
  -62.3821   31.7395  -30.2757 C   0  0  0  0  0  0  0  0  0  0  0  0
  -61.4536   31.8839  -31.3038 C   0  0  0  0  0  0  0  0  0  0  0  0
  -61.4647   33.0197  -32.0065 N   0  0  0  0  0  0  0  0  0  0  0  0
  -62.3191   34.0484  -31.7900 C   0  0  0  0  0  0  0  0  0  0  0  0
  -63.1940   33.8844  -30.8041 N   0  0  0  0  0  0  0  0  0  0  0  0
  -63.2582   32.7736  -30.0413 C   0  0  0  0  0  0  0  0  0  0  0  0
  -62.2281   35.2455  -32.6234 C   0  0  0  0  0  0  0  0  0  0  0  0
  -61.5453   35.1553  -33.8135 C   0  0  0  0  0  0  0  0  0  0  0  0
  -61.4484   36.2726  -34.6063 C   0  0  0  0  0  0  0  0  0  0  0  0
  -62.8027   36.4255  -32.2318 C   0  0  0  0  0  0  0  0  0  0  0  0
  -62.6927   37.5400  -33.0465 C   0  0  0  0  0  0  0  0  0  0  0  0
  -62.0189   37.4888  -34.2417 C   0  0  0  0  0  0  0  0  0  0  0  0
  1  4  2  0
  1  5  2  0
  6  1  1  0
  1  9  1  6
 20  2  2  0
 14  3  2  0
  7  6  1  0
  8  7  2  0
 10  7  1  0
 13  8  1  0
 10  9  1  0
 11 10  2  0
 12 11  1  0
 12 13  2  0
 14 12  1  0
 15 14  1  0
 15 16  1  0
 18 15  1  0
 16 17  1  0
 17 24  1  0
 19 18  1  0
 19 20  1  0
 19 24  2  0
 20 21  1  0
 21 22  2  0
 22 23  1  0
 22 25  1  0
 23 24  1  0
 25 26  2  0
 25 28  1  0
 26 27  1  0
 27 30  2  0
 28 29  2  0
 29 30  1  0
M  END
$$$$
