
     RDKit          3D

 30 34  0  0  0  0  0  0  0  0999 V2000
  -70.1865   30.2797  -24.7762 S   0  0  1  0  0  6  0  0  0  0  0  0
  -63.1877   35.6170  -27.1558 O   0  0  0  0  0  0  0  0  0  0  0  0
  -63.4722   31.1822  -22.9573 O   0  0  0  0  0  0  0  0  0  0  0  0
  -70.3362   29.0370  -23.9471 O   0  0  0  0  0  0  0  0  0  0  0  0
  -71.3232   30.5245  -25.6885 O   0  0  0  0  0  0  0  0  0  0  0  0
  -69.7637   31.6333  -23.7961 N   0  0  0  0  0  0  0  0  0  0  0  0
  -68.3530   31.6661  -23.7948 C   0  0  0  0  0  0  0  0  0  0  0  0
  -67.5574   32.4015  -22.9020 C   0  0  0  0  0  0  0  0  0  0  0  0
  -68.6269   30.1616  -25.6460 C   0  0  0  0  0  0  0  0  0  0  0  0
  -67.7444   30.9197  -24.7293 C   0  0  0  0  0  0  0  0  0  0  0  0
  -66.3412   30.8943  -24.7893 C   0  0  0  0  0  0  0  0  0  0  0  0
  -65.5659   31.6121  -23.9175 C   0  0  0  0  0  0  0  0  0  0  0  0
  -66.1747   32.3783  -22.9583 C   0  0  0  0  0  0  0  0  0  0  0  0
  -64.1178   31.5608  -24.0018 C   0  0  0  0  0  0  0  0  0  0  0  0
  -63.4207   31.9115  -25.1842 N   0  0  0  0  0  0  0  0  0  0  0  0
  -62.6887   30.9090  -25.9109 C   0  0  0  0  0  0  0  0  0  0  0  0
  -63.3195   30.7961  -27.2969 C   0  0  0  0  0  0  0  0  0  0  0  0
  -63.4215   33.2704  -25.6746 C   0  0  0  0  0  0  0  0  0  0  0  0
  -63.2582   33.3028  -27.1548 C   0  0  0  0  0  0  0  0  0  0  0  0
  -63.1515   34.5316  -27.8019 C   0  0  0  0  0  0  0  0  0  0  0  0
  -63.0088   34.5329  -29.1299 N   0  0  0  0  0  0  0  0  0  0  0  0
  -62.9601   33.4183  -29.8981 C   0  0  0  0  0  0  0  0  0  0  0  0
  -63.0638   32.2602  -29.2558 N   0  0  0  0  0  0  0  0  0  0  0  0
  -63.2105   32.1599  -27.9186 C   0  0  0  0  0  0  0  0  0  0  0  0
  -62.8075   33.5496  -31.3457 C   0  0  0  0  0  0  0  0  0  0  0  0
  -62.8632   34.8107  -31.8907 C   0  0  0  0  0  0  0  0  0  0  0  0
  -62.7247   34.9501  -33.2500 C   0  0  0  0  0  0  0  0  0  0  0  0
  -62.6174   32.4498  -32.1397 C   0  0  0  0  0  0  0  0  0  0  0  0
  -62.4801   32.6132  -33.5080 C   0  0  0  0  0  0  0  0  0  0  0  0
  -62.5303   33.8563  -34.0887 C   0  0  0  0  0  0  0  0  0  0  0  0
  1  4  2  0
  1  5  2  0
  6  1  1  0
  1  9  1  6
 20  2  2  0
 14  3  2  0
  7  6  1  0
  8  7  2  0
 10  7  1  0
 13  8  1  0
 10  9  1  0
 11 10  2  0
 12 11  1  0
 12 13  2  0
 14 12  1  0
 15 14  1  0
 15 16  1  0
 18 15  1  0
 16 17  1  0
 17 24  1  0
 19 18  1  0
 19 20  1  0
 19 24  2  0
 20 21  1  0
 21 22  2  0
 22 23  1  0
 22 25  1  0
 23 24  1  0
 25 26  2  0
 25 28  1  0
 26 27  1  0
 27 30  2  0
 28 29  2  0
 29 30  1  0
M  END
$$$$
