
     RDKit          3D

 26 29  0  0  0  0  0  0  0  0999 V2000
   25.8041   -7.4306    7.7396 C   0  0  0  0  0  0  0  0  0  0  0  0
   24.8055   -8.3512    7.5097 C   0  0  0  0  0  0  0  0  0  0  0  0
   24.8633   -9.1769    6.4206 C   0  0  0  0  0  0  0  0  0  0  0  0
   25.9367   -9.0580    5.5747 C   0  0  0  0  0  0  0  0  0  0  0  0
   27.9343   -5.3814    8.0801 C   0  0  0  0  0  0  0  0  0  0  0  0
   27.9252   -6.2921    7.1346 C   0  0  0  0  0  0  0  0  0  0  0  0
   26.7017   -3.6387   11.0262 C   0  0  0  0  0  0  0  0  0  0  0  0
   26.9775   -5.2298    9.1020 O   0  0  0  0  0  0  0  0  0  0  0  0
   27.2104   -2.5503   11.7141 C   0  0  0  0  0  0  0  0  0  0  0  0
   28.3895   -1.9613   11.2719 C   0  0  0  0  0  0  0  0  0  0  0  0
   29.0078   -2.4834   10.1651 C   0  0  0  0  0  0  0  0  0  0  0  0
   28.4810   -3.5662    9.4993 C   0  0  0  0  0  0  0  0  0  0  0  0
   25.9885   -9.8870    4.4871 F   0  0  0  0  0  0  0  0  0  0  0  0
   23.8266  -10.1755    6.1305 C   0  0  0  0  0  0  0  0  0  0  0  0
   23.9416  -11.5067    6.2685 N   0  0  0  0  0  0  0  0  0  0  0  0
   22.8179  -12.1063    5.9198 N   0  0  0  0  0  0  0  0  0  0  0  0
   21.9961  -11.1571    5.5629 N   0  0  0  0  0  0  0  0  0  0  0  0
   22.5799   -9.9684    5.6796 N   0  0  0  0  0  0  0  0  0  0  0  0
   26.9516   -8.1210    5.8092 C   0  0  0  0  0  0  0  0  0  0  0  0
   26.9048   -7.2883    6.8988 C   0  0  0  0  0  0  0  0  0  0  0  0
   28.9041   -4.3391    8.3051 C   0  0  0  0  0  0  0  0  0  0  0  0
   29.9402   -4.0601    7.6703 O   0  0  0  0  0  0  0  0  0  0  0  0
   27.3080   -4.1813    9.9085 C   0  0  0  0  0  0  0  0  0  0  0  0
   25.4569   -4.2545   11.5012 C   0  0  0  0  0  0  0  0  0  0  0  0
   24.8623   -3.7976   12.5098 O   0  0  0  0  0  0  0  0  0  0  0  0
   24.8767   -5.3721   10.8583 N   0  0  0  0  0  0  0  0  0  0  0  0
  1  2  2  0
 20  1  1  0
  2  3  1  0
  3  4  2  0
  3 14  1  0
  4 13  1  0
  4 19  1  0
  5  6  2  3
  8  5  1  0
  5 21  1  0
  6 20  1  0
  7  9  2  0
 23  7  1  0
  7 24  1  0
  8 23  1  0
  9 10  1  0
 10 11  2  0
 11 12  1  0
 12 21  1  0
 12 23  2  0
 14 15  2  0
 14 18  1  0
 15 16  1  0
 16 17  2  0
 17 18  1  0
 19 20  2  0
 21 22  2  0
 24 25  2  0
 24 26  1  0
M  END
$$$$
