
     RDKit          3D

 26 29  0  0  0  0  0  0  0  0999 V2000
   22.8648   -8.0150   11.5063 C   0  0  0  0  0  0  0  0  0  0  0  0
   22.6668   -9.3102   11.0813 C   0  0  0  0  0  0  0  0  0  0  0  0
   23.4995   -9.8676   10.1501 C   0  0  0  0  0  0  0  0  0  0  0  0
   24.5262   -9.1016    9.6592 C   0  0  0  0  0  0  0  0  0  0  0  0
   25.1251   -5.0870   11.2689 C   0  0  0  0  0  0  0  0  0  0  0  0
   24.0699   -5.8455   11.4556 C   0  0  0  0  0  0  0  0  0  0  0  0
   28.1262   -3.9302    9.5687 C   0  0  0  0  0  0  0  0  0  0  0  0
   26.0512   -5.1907   10.2133 O   0  0  0  0  0  0  0  0  0  0  0  0
   28.9998   -2.9001    9.8728 C   0  0  0  0  0  0  0  0  0  0  0  0
   28.7651   -2.1254   11.0030 C   0  0  0  0  0  0  0  0  0  0  0  0
   27.6712   -2.4119   11.7783 C   0  0  0  0  0  0  0  0  0  0  0  0
   26.8182   -3.4417   11.4536 C   0  0  0  0  0  0  0  0  0  0  0  0
   25.3556   -9.6652    8.7279 F   0  0  0  0  0  0  0  0  0  0  0  0
   23.3332  -11.2433    9.6645 C   0  0  0  0  0  0  0  0  0  0  0  0
   22.3056  -11.7133    8.9381 N   0  0  0  0  0  0  0  0  0  0  0  0
   22.4759  -12.9954    8.6719 N   0  0  0  0  0  0  0  0  0  0  0  0
   23.6072  -13.3340    9.2282 N   0  0  0  0  0  0  0  0  0  0  0  0
   24.1550  -12.2893    9.8411 N   0  0  0  0  0  0  0  0  0  0  0  0
   24.7265   -7.7842   10.0918 C   0  0  0  0  0  0  0  0  0  0  0  0
   23.8984   -7.2149   11.0261 C   0  0  0  0  0  0  0  0  0  0  0  0
   25.5843   -3.9839   12.0749 C   0  0  0  0  0  0  0  0  0  0  0  0
   25.1011   -3.4990   13.1169 O   0  0  0  0  0  0  0  0  0  0  0  0
   27.0177   -4.2368   10.3357 C   0  0  0  0  0  0  0  0  0  0  0  0
   28.3816   -4.7419    8.3728 C   0  0  0  0  0  0  0  0  0  0  0  0
   29.3619   -4.4909    7.6274 O   0  0  0  0  0  0  0  0  0  0  0  0
   27.5515   -5.8267    8.0079 N   0  0  0  0  0  0  0  0  0  0  0  0
  1  2  2  0
 20  1  1  0
  2  3  1  0
  3  4  2  0
  3 14  1  0
  4 13  1  0
  4 19  1  0
  5  6  2  3
  8  5  1  0
  5 21  1  0
  6 20  1  0
  7  9  2  0
 23  7  1  0
  7 24  1  0
  8 23  1  0
  9 10  1  0
 10 11  2  0
 11 12  1  0
 12 21  1  0
 12 23  2  0
 14 15  2  0
 14 18  1  0
 15 16  1  0
 16 17  2  0
 17 18  1  0
 19 20  2  0
 21 22  2  0
 24 25  2  0
 24 26  1  0
M  END
$$$$
