
     RDKit          3D

 26 29  0  0  0  0  0  0  0  0999 V2000
   24.8457   -7.7739    9.9348 C   0  0  0  0  0  0  0  0  0  0  0  0
   24.6484   -9.0312    9.4076 C   0  0  0  0  0  0  0  0  0  0  0  0
   23.5233   -9.7436    9.7203 C   0  0  0  0  0  0  0  0  0  0  0  0
   22.6090   -9.1704   10.5673 C   0  0  0  0  0  0  0  0  0  0  0  0
   25.2251   -5.0981   11.1775 C   0  0  0  0  0  0  0  0  0  0  0  0
   24.1750   -5.8624   11.3693 C   0  0  0  0  0  0  0  0  0  0  0  0
   28.2495   -3.9672    9.5014 C   0  0  0  0  0  0  0  0  0  0  0  0
   26.1757   -5.2292   10.1472 O   0  0  0  0  0  0  0  0  0  0  0  0
   29.1038   -2.9156    9.7858 C   0  0  0  0  0  0  0  0  0  0  0  0
   28.8346   -2.1024   10.8808 C   0  0  0  0  0  0  0  0  0  0  0  0
   27.7270   -2.3737   11.6421 C   0  0  0  0  0  0  0  0  0  0  0  0
   26.8939   -3.4256   11.3376 C   0  0  0  0  0  0  0  0  0  0  0  0
   21.4857   -9.8883   10.8761 F   0  0  0  0  0  0  0  0  0  0  0  0
   23.2642  -11.0861    9.1850 C   0  0  0  0  0  0  0  0  0  0  0  0
   23.9316  -12.2100    9.4947 N   0  0  0  0  0  0  0  0  0  0  0  0
   23.4364  -13.2392    8.8318 N   0  0  0  0  0  0  0  0  0  0  0  0
   22.4597  -12.7669    8.1060 N   0  0  0  0  0  0  0  0  0  0  0  0
   22.3284  -11.4580    8.2981 N   0  0  0  0  0  0  0  0  0  0  0  0
   22.8109   -7.8917   11.1033 C   0  0  0  0  0  0  0  0  0  0  0  0
   23.9350   -7.1674   10.7959 C   0  0  0  0  0  0  0  0  0  0  0  0
   25.6529   -3.9600   11.9515 C   0  0  0  0  0  0  0  0  0  0  0  0
   25.1407   -3.4428   12.9637 O   0  0  0  0  0  0  0  0  0  0  0  0
   27.1278   -4.2592   10.2549 C   0  0  0  0  0  0  0  0  0  0  0  0
   28.5413   -4.8197    8.3428 C   0  0  0  0  0  0  0  0  0  0  0  0
   29.5405   -4.5898    7.6158 O   0  0  0  0  0  0  0  0  0  0  0  0
   27.7266   -5.9214    7.9944 N   0  0  0  0  0  0  0  0  0  0  0  0
  1  2  2  0
 20  1  1  0
  2  3  1  0
  3  4  2  0
  3 14  1  0
  4 13  1  0
  4 19  1  0
  5  6  2  3
  8  5  1  0
  5 21  1  0
  6 20  1  0
  7  9  2  0
 23  7  1  0
  7 24  1  0
  8 23  1  0
  9 10  1  0
 10 11  2  0
 11 12  1  0
 12 21  1  0
 12 23  2  0
 14 15  2  0
 14 18  1  0
 15 16  1  0
 16 17  2  0
 17 18  1  0
 19 20  2  0
 21 22  2  0
 24 25  2  0
 24 26  1  0
M  END
$$$$
