
     RDKit          3D

 26 29  0  0  0  0  0  0  0  0999 V2000
   27.0374   -8.4991    6.3042 C   0  0  0  0  0  0  0  0  0  0  0  0
   26.2437   -9.6249    6.3196 C   0  0  0  0  0  0  0  0  0  0  0  0
   25.1737   -9.7053    7.1680 C   0  0  0  0  0  0  0  0  0  0  0  0
   24.9211   -8.6393    7.9938 C   0  0  0  0  0  0  0  0  0  0  0  0
   27.8138   -5.3663    8.0928 C   0  0  0  0  0  0  0  0  0  0  0  0
   27.6689   -6.2441    7.1273 C   0  0  0  0  0  0  0  0  0  0  0  0
   26.9851   -3.6969   11.2171 C   0  0  0  0  0  0  0  0  0  0  0  0
   26.9891   -5.2279    9.2255 O   0  0  0  0  0  0  0  0  0  0  0  0
   27.6001   -2.6441   11.8728 C   0  0  0  0  0  0  0  0  0  0  0  0
   28.7337   -2.0672   11.3116 C   0  0  0  0  0  0  0  0  0  0  0  0
   29.2027   -2.5653   10.1234 C   0  0  0  0  0  0  0  0  0  0  0  0
   28.5724   -3.6130    9.4921 C   0  0  0  0  0  0  0  0  0  0  0  0
   23.8493   -8.7260    8.8401 F   0  0  0  0  0  0  0  0  0  0  0  0
   24.2959  -10.8810    7.2232 C   0  0  0  0  0  0  0  0  0  0  0  0
   24.6435  -12.1172    7.6175 N   0  0  0  0  0  0  0  0  0  0  0  0
   23.6083  -12.9338    7.5444 N   0  0  0  0  0  0  0  0  0  0  0  0
   22.6104  -12.2159    7.1057 N   0  0  0  0  0  0  0  0  0  0  0  0
   22.9959  -10.9604    6.9000 N   0  0  0  0  0  0  0  0  0  0  0  0
   25.7293   -7.4949    7.9776 C   0  0  0  0  0  0  0  0  0  0  0  0
   26.8045   -7.4026    7.1301 C   0  0  0  0  0  0  0  0  0  0  0  0
   28.8306   -4.3544    8.2326 C   0  0  0  0  0  0  0  0  0  0  0  0
   29.7913   -4.0774    7.4878 O   0  0  0  0  0  0  0  0  0  0  0  0
   27.4403   -4.2150   10.0189 C   0  0  0  0  0  0  0  0  0  0  0  0
   25.7895   -4.3003   11.8178 C   0  0  0  0  0  0  0  0  0  0  0  0
   25.3030   -3.8344   12.8789 O   0  0  0  0  0  0  0  0  0  0  0  0
   25.1386   -5.4155   11.2419 N   0  0  0  0  0  0  0  0  0  0  0  0
  1  2  2  0
 20  1  1  0
  2  3  1  0
  3  4  2  0
  3 14  1  0
  4 13  1  0
  4 19  1  0
  5  6  2  3
  8  5  1  0
  5 21  1  0
  6 20  1  0
  7  9  2  0
 23  7  1  0
  7 24  1  0
  8 23  1  0
  9 10  1  0
 10 11  2  0
 11 12  1  0
 12 21  1  0
 12 23  2  0
 14 15  2  0
 14 18  1  0
 15 16  1  0
 16 17  2  0
 17 18  1  0
 19 20  2  0
 21 22  2  0
 24 25  2  0
 24 26  1  0
M  END
$$$$
