
     RDKit          3D

 26 29  0  0  0  0  0  0  0  0999 V2000
   25.1807   -8.2787   10.3835 C   0  0  0  0  0  0  0  0  0  0  0  0
   25.1769   -9.6492   10.2445 C   0  0  0  0  0  0  0  0  0  0  0  0
   24.2645  -10.4106   10.9218 C   0  0  0  0  0  0  0  0  0  0  0  0
   23.3642   -9.7705   11.7353 C   0  0  0  0  0  0  0  0  0  0  0  0
   25.3368   -5.3742   11.1151 C   0  0  0  0  0  0  0  0  0  0  0  0
   24.3203   -6.1669   11.3642 C   0  0  0  0  0  0  0  0  0  0  0  0
   28.3144   -4.2422    9.3579 C   0  0  0  0  0  0  0  0  0  0  0  0
   26.2954   -5.5411   10.0974 O   0  0  0  0  0  0  0  0  0  0  0  0
   29.1212   -3.1358    9.5619 C   0  0  0  0  0  0  0  0  0  0  0  0
   28.8135   -2.2549   10.5924 C   0  0  0  0  0  0  0  0  0  0  0  0
   27.7164   -2.5161   11.3722 C   0  0  0  0  0  0  0  0  0  0  0  0
   26.9308   -3.6233   11.1482 C   0  0  0  0  0  0  0  0  0  0  0  0
   22.4541  -10.5380   12.4101 F   0  0  0  0  0  0  0  0  0  0  0  0
   24.2167  -11.8737   10.8080 C   0  0  0  0  0  0  0  0  0  0  0  0
   25.2535  -12.7176   10.9397 N   0  0  0  0  0  0  0  0  0  0  0  0
   24.8565  -13.9665   10.7776 N   0  0  0  0  0  0  0  0  0  0  0  0
   23.5733  -13.9116   10.5444 N   0  0  0  0  0  0  0  0  0  0  0  0
   23.1521  -12.6508   10.5561 N   0  0  0  0  0  0  0  0  0  0  0  0
   23.3692   -8.3766   11.8764 C   0  0  0  0  0  0  0  0  0  0  0  0
   24.2790   -7.6026   11.2011 C   0  0  0  0  0  0  0  0  0  0  0  0
   25.7123   -4.1634   11.8009 C   0  0  0  0  0  0  0  0  0  0  0  0
   25.1749   -3.5942   12.7713 O   0  0  0  0  0  0  0  0  0  0  0  0
   27.2041   -4.5251   10.1314 C   0  0  0  0  0  0  0  0  0  0  0  0
   28.6466   -5.1660    8.2668 C   0  0  0  0  0  0  0  0  0  0  0  0
   29.6349   -4.9465    7.5222 O   0  0  0  0  0  0  0  0  0  0  0  0
   27.8839   -6.3275    8.0052 N   0  0  0  0  0  0  0  0  0  0  0  0
  1  2  2  0
 20  1  1  0
  2  3  1  0
  3  4  2  0
  3 14  1  0
  4 13  1  0
  4 19  1  0
  5  6  2  3
  8  5  1  0
  5 21  1  0
  6 20  1  0
  7  9  2  0
 23  7  1  0
  7 24  1  0
  8 23  1  0
  9 10  1  0
 10 11  2  0
 11 12  1  0
 12 21  1  0
 12 23  2  0
 14 15  2  0
 14 18  1  0
 15 16  1  0
 16 17  2  0
 17 18  1  0
 19 20  2  0
 21 22  2  0
 24 25  2  0
 24 26  1  0
M  END
$$$$
