
     RDKit          3D

 26 29  0  0  0  0  0  0  0  0999 V2000
   23.1578   -7.8950   10.5597 C   0  0  0  0  0  0  0  0  0  0  0  0
   22.8650   -9.0191    9.8193 C   0  0  0  0  0  0  0  0  0  0  0  0
   23.6511   -9.3717    8.7568 C   0  0  0  0  0  0  0  0  0  0  0  0
   24.7281   -8.5767    8.4567 C   0  0  0  0  0  0  0  0  0  0  0  0
   25.5736   -5.1021   10.9494 C   0  0  0  0  0  0  0  0  0  0  0  0
   24.5158   -5.8741   11.0430 C   0  0  0  0  0  0  0  0  0  0  0  0
   28.6809   -3.8854    9.5005 C   0  0  0  0  0  0  0  0  0  0  0  0
   26.5775   -5.1776    9.9651 O   0  0  0  0  0  0  0  0  0  0  0  0
   29.5177   -2.8525    9.8874 C   0  0  0  0  0  0  0  0  0  0  0  0
   29.1900   -2.1006   11.0098 C   0  0  0  0  0  0  0  0  0  0  0  0
   28.0441   -2.4117   11.6954 C   0  0  0  0  0  0  0  0  0  0  0  0
   27.2295   -3.4438   11.2897 C   0  0  0  0  0  0  0  0  0  0  0  0
   25.5104   -8.9350    7.3926 F   0  0  0  0  0  0  0  0  0  0  0  0
   23.3840  -10.5598    7.9364 C   0  0  0  0  0  0  0  0  0  0  0  0
   23.5399  -11.8398    8.3130 N   0  0  0  0  0  0  0  0  0  0  0  0
   23.2071  -12.6549    7.3289 N   0  0  0  0  0  0  0  0  0  0  0  0
   22.8422  -11.8925    6.3342 N   0  0  0  0  0  0  0  0  0  0  0  0
   22.9383  -10.6102    6.6717 N   0  0  0  0  0  0  0  0  0  0  0  0
   25.0247   -7.4333    9.2101 C   0  0  0  0  0  0  0  0  0  0  0  0
   24.2441   -7.0704   10.2786 C   0  0  0  0  0  0  0  0  0  0  0  0
   25.9585   -4.0092   11.8067 C   0  0  0  0  0  0  0  0  0  0  0  0
   25.3928   -3.5479   12.8175 O   0  0  0  0  0  0  0  0  0  0  0  0
   27.5213   -4.2166   10.1764 C   0  0  0  0  0  0  0  0  0  0  0  0
   29.0346   -4.6730    8.3136 C   0  0  0  0  0  0  0  0  0  0  0  0
   30.0391   -4.3700    7.6217 O   0  0  0  0  0  0  0  0  0  0  0  0
   28.2754   -5.7911    7.8983 N   0  0  0  0  0  0  0  0  0  0  0  0
  1  2  2  0
 20  1  1  0
  2  3  1  0
  3  4  2  0
  3 14  1  0
  4 13  1  0
  4 19  1  0
  5  6  2  3
  8  5  1  0
  5 21  1  0
  6 20  1  0
  7  9  2  0
 23  7  1  0
  7 24  1  0
  8 23  1  0
  9 10  1  0
 10 11  2  0
 11 12  1  0
 12 21  1  0
 12 23  2  0
 14 15  2  0
 14 18  1  0
 15 16  1  0
 16 17  2  0
 17 18  1  0
 19 20  2  0
 21 22  2  0
 24 25  2  0
 24 26  1  0
M  END
$$$$
