
     RDKit          3D

 26 29  0  0  0  0  0  0  0  0999 V2000
   25.7662   -8.0029    8.2185 C   0  0  0  0  0  0  0  0  0  0  0  0
   24.9206   -9.0892    8.2697 C   0  0  0  0  0  0  0  0  0  0  0  0
   24.8988   -9.9975    7.2471 C   0  0  0  0  0  0  0  0  0  0  0  0
   25.7374   -9.7921    6.1811 C   0  0  0  0  0  0  0  0  0  0  0  0
   27.6230   -5.6861    8.0221 C   0  0  0  0  0  0  0  0  0  0  0  0
   27.4825   -6.6051    7.0951 C   0  0  0  0  0  0  0  0  0  0  0  0
   26.7803   -3.8827   11.0673 C   0  0  0  0  0  0  0  0  0  0  0  0
   26.7934   -5.4988    9.1442 O   0  0  0  0  0  0  0  0  0  0  0  0
   27.3923   -2.8020   11.6792 C   0  0  0  0  0  0  0  0  0  0  0  0
   28.5281   -2.2496   11.0983 C   0  0  0  0  0  0  0  0  0  0  0  0
   29.0024   -2.7988    9.9350 C   0  0  0  0  0  0  0  0  0  0  0  0
   28.3751   -3.8731    9.3471 C   0  0  0  0  0  0  0  0  0  0  0  0
   25.7107  -10.7045    5.1615 F   0  0  0  0  0  0  0  0  0  0  0  0
   24.0180  -11.1723    7.2528 C   0  0  0  0  0  0  0  0  0  0  0  0
   24.3600  -12.4231    7.6033 N   0  0  0  0  0  0  0  0  0  0  0  0
   23.3236  -13.2339    7.4931 N   0  0  0  0  0  0  0  0  0  0  0  0
   22.3303  -12.4976    7.0745 N   0  0  0  0  0  0  0  0  0  0  0  0
   22.7201  -11.2364    6.9181 N   0  0  0  0  0  0  0  0  0  0  0  0
   26.5968   -8.6867    6.1298 C   0  0  0  0  0  0  0  0  0  0  0  0
   26.6281   -7.7697    7.1500 C   0  0  0  0  0  0  0  0  0  0  0  0
   28.6390   -4.6685    8.1222 C   0  0  0  0  0  0  0  0  0  0  0  0
   29.6028   -4.4238    7.3702 O   0  0  0  0  0  0  0  0  0  0  0  0
   27.2408   -4.4521    9.8948 C   0  0  0  0  0  0  0  0  0  0  0  0
   25.5823   -4.4598   11.6885 C   0  0  0  0  0  0  0  0  0  0  0  0
   25.1008   -3.9584   12.7355 O   0  0  0  0  0  0  0  0  0  0  0  0
   24.9235   -5.5883   11.1485 N   0  0  0  0  0  0  0  0  0  0  0  0
  1  2  2  0
 20  1  1  0
  2  3  1  0
  3  4  2  0
  3 14  1  0
  4 13  1  0
  4 19  1  0
  5  6  2  3
  8  5  1  0
  5 21  1  0
  6 20  1  0
  7  9  2  0
 23  7  1  0
  7 24  1  0
  8 23  1  0
  9 10  1  0
 10 11  2  0
 11 12  1  0
 12 21  1  0
 12 23  2  0
 14 15  2  0
 14 18  1  0
 15 16  1  0
 16 17  2  0
 17 18  1  0
 19 20  2  0
 21 22  2  0
 24 25  2  0
 24 26  1  0
M  END
$$$$
