
     RDKit          3D

 26 29  0  0  0  0  0  0  0  0999 V2000
   26.7500   -8.4847    6.1602 C   0  0  0  0  0  0  0  0  0  0  0  0
   25.8869   -9.5503    6.0291 C   0  0  0  0  0  0  0  0  0  0  0  0
   24.7453   -9.6121    6.7800 C   0  0  0  0  0  0  0  0  0  0  0  0
   24.4923   -8.5892    7.6584 C   0  0  0  0  0  0  0  0  0  0  0  0
   27.5239   -5.4975    8.1984 C   0  0  0  0  0  0  0  0  0  0  0  0
   27.4530   -6.3404    7.1944 C   0  0  0  0  0  0  0  0  0  0  0  0
   26.4957   -3.9789   11.3404 C   0  0  0  0  0  0  0  0  0  0  0  0
   26.6428   -5.4290    9.2945 O   0  0  0  0  0  0  0  0  0  0  0  0
   27.0450   -2.9346   12.0645 C   0  0  0  0  0  0  0  0  0  0  0  0
   28.1845   -2.3018   11.5810 C   0  0  0  0  0  0  0  0  0  0  0  0
   28.7247   -2.7381   10.3988 C   0  0  0  0  0  0  0  0  0  0  0  0
   28.1589   -3.7786    9.6983 C   0  0  0  0  0  0  0  0  0  0  0  0
   23.3485   -8.6572    8.4067 F   0  0  0  0  0  0  0  0  0  0  0  0
   23.7920  -10.7242    6.6780 C   0  0  0  0  0  0  0  0  0  0  0  0
   24.0945  -12.0172    6.4752 N   0  0  0  0  0  0  0  0  0  0  0  0
   22.9958  -12.7486    6.4374 N   0  0  0  0  0  0  0  0  0  0  0  0
   22.0027  -11.9205    6.6156 N   0  0  0  0  0  0  0  0  0  0  0  0
   22.4537  -10.6790    6.7655 N   0  0  0  0  0  0  0  0  0  0  0  0
   25.3710   -7.5061    7.7913 C   0  0  0  0  0  0  0  0  0  0  0  0
   26.5185   -7.4327    7.0426 C   0  0  0  0  0  0  0  0  0  0  0  0
   28.4999   -4.4614    8.4256 C   0  0  0  0  0  0  0  0  0  0  0  0
   29.4851   -4.1262    7.7390 O   0  0  0  0  0  0  0  0  0  0  0  0
   27.0232   -4.4350   10.1467 C   0  0  0  0  0  0  0  0  0  0  0  0
   25.2933   -4.6415   11.8593 C   0  0  0  0  0  0  0  0  0  0  0  0
   24.7443   -4.2347   12.9142 O   0  0  0  0  0  0  0  0  0  0  0  0
   24.7046   -5.7503   11.2089 N   0  0  0  0  0  0  0  0  0  0  0  0
  1  2  2  0
 20  1  1  0
  2  3  1  0
  3  4  2  0
  3 14  1  0
  4 13  1  0
  4 19  1  0
  5  6  2  3
  8  5  1  0
  5 21  1  0
  6 20  1  0
  7  9  2  0
 23  7  1  0
  7 24  1  0
  8 23  1  0
  9 10  1  0
 10 11  2  0
 11 12  1  0
 12 21  1  0
 12 23  2  0
 14 15  2  0
 14 18  1  0
 15 16  1  0
 16 17  2  0
 17 18  1  0
 19 20  2  0
 21 22  2  0
 24 25  2  0
 24 26  1  0
M  END
$$$$
