
     RDKit          3D

 26 29  0  0  0  0  0  0  0  0999 V2000
   26.9149   -8.4231    6.0910 C   0  0  0  0  0  0  0  0  0  0  0  0
   26.0973   -9.5307    6.0414 C   0  0  0  0  0  0  0  0  0  0  0  0
   25.0301   -9.6412    6.8899 C   0  0  0  0  0  0  0  0  0  0  0  0
   24.8046   -8.6237    7.7819 C   0  0  0  0  0  0  0  0  0  0  0  0
   27.7198   -5.3865    8.0412 C   0  0  0  0  0  0  0  0  0  0  0  0
   27.5988   -6.2377    7.0490 C   0  0  0  0  0  0  0  0  0  0  0  0
   26.7743   -3.7539   11.1518 C   0  0  0  0  0  0  0  0  0  0  0  0
   26.8372   -5.2415    9.1286 O   0  0  0  0  0  0  0  0  0  0  0  0
   27.3883   -2.7388   11.8654 C   0  0  0  0  0  0  0  0  0  0  0  0
   28.5721   -2.1926   11.3824 C   0  0  0  0  0  0  0  0  0  0  0  0
   29.0900   -2.6826   10.2113 C   0  0  0  0  0  0  0  0  0  0  0  0
   28.4596   -3.6925    9.5213 C   0  0  0  0  0  0  0  0  0  0  0  0
   23.7353   -8.7404    8.6280 F   0  0  0  0  0  0  0  0  0  0  0  0
   24.1276  -10.7993    6.8773 C   0  0  0  0  0  0  0  0  0  0  0  0
   23.1746  -11.0571    5.9664 N   0  0  0  0  0  0  0  0  0  0  0  0
   22.5497  -12.1834    6.2573 N   0  0  0  0  0  0  0  0  0  0  0  0
   23.1061  -12.6354    7.3482 N   0  0  0  0  0  0  0  0  0  0  0  0
   24.0712  -11.8153    7.7520 N   0  0  0  0  0  0  0  0  0  0  0  0
   25.6370   -7.4979    7.8319 C   0  0  0  0  0  0  0  0  0  0  0  0
   26.7098   -7.3756    6.9851 C   0  0  0  0  0  0  0  0  0  0  0  0
   28.7626   -4.4162    8.2615 C   0  0  0  0  0  0  0  0  0  0  0  0
   29.7735   -4.1594    7.5786 O   0  0  0  0  0  0  0  0  0  0  0  0
   27.2783   -4.2630    9.9695 C   0  0  0  0  0  0  0  0  0  0  0  0
   25.5255   -4.3250   11.6701 C   0  0  0  0  0  0  0  0  0  0  0  0
   24.9468   -3.8057   12.6575 O   0  0  0  0  0  0  0  0  0  0  0  0
   24.9237   -5.4671   11.0936 N   0  0  0  0  0  0  0  0  0  0  0  0
  1  2  2  0
 20  1  1  0
  2  3  1  0
  3  4  2  0
  3 14  1  0
  4 13  1  0
  4 19  1  0
  5  6  2  3
  8  5  1  0
  5 21  1  0
  6 20  1  0
  7  9  2  0
 23  7  1  0
  7 24  1  0
  8 23  1  0
  9 10  1  0
 10 11  2  0
 11 12  1  0
 12 21  1  0
 12 23  2  0
 14 15  2  0
 14 18  1  0
 15 16  1  0
 16 17  2  0
 17 18  1  0
 19 20  2  0
 21 22  2  0
 24 25  2  0
 24 26  1  0
M  END
$$$$
