
     RDKit          3D

 26 29  0  0  0  0  0  0  0  0999 V2000
   26.1338   -7.8895    8.3160 C   0  0  0  0  0  0  0  0  0  0  0  0
   25.2895   -8.9774    8.2835 C   0  0  0  0  0  0  0  0  0  0  0  0
   24.9009   -9.5159    7.0876 C   0  0  0  0  0  0  0  0  0  0  0  0
   25.3746   -8.9421    5.9351 C   0  0  0  0  0  0  0  0  0  0  0  0
   27.5863   -5.2614    8.1989 C   0  0  0  0  0  0  0  0  0  0  0  0
   27.4861   -6.1235    7.2140 C   0  0  0  0  0  0  0  0  0  0  0  0
   26.6170   -3.6448   11.3106 C   0  0  0  0  0  0  0  0  0  0  0  0
   26.7123   -5.1430    9.2965 O   0  0  0  0  0  0  0  0  0  0  0  0
   27.2000   -2.6017   12.0097 C   0  0  0  0  0  0  0  0  0  0  0  0
   28.3556   -2.0136   11.5083 C   0  0  0  0  0  0  0  0  0  0  0  0
   28.8776   -2.4914   10.3339 C   0  0  0  0  0  0  0  0  0  0  0  0
   28.2782   -3.5297    9.6585 C   0  0  0  0  0  0  0  0  0  0  0  0
   24.9820   -9.4856    4.7421 F   0  0  0  0  0  0  0  0  0  0  0  0
   24.0042  -10.6751    6.9974 C   0  0  0  0  0  0  0  0  0  0  0  0
   24.2512  -11.8251    6.3486 N   0  0  0  0  0  0  0  0  0  0  0  0
   23.2306  -12.6540    6.4722 N   0  0  0  0  0  0  0  0  0  0  0  0
   22.3422  -12.0296    7.1966 N   0  0  0  0  0  0  0  0  0  0  0  0
   22.7826  -10.8213    7.5331 N   0  0  0  0  0  0  0  0  0  0  0  0
   26.2330   -7.8353    5.9692 C   0  0  0  0  0  0  0  0  0  0  0  0
   26.6303   -7.2874    7.1628 C   0  0  0  0  0  0  0  0  0  0  0  0
   28.5933   -4.2500    8.3998 C   0  0  0  0  0  0  0  0  0  0  0  0
   29.5851   -3.9591    7.7025 O   0  0  0  0  0  0  0  0  0  0  0  0
   27.1256   -4.1423   10.1253 C   0  0  0  0  0  0  0  0  0  0  0  0
   25.3977   -4.2600   11.8484 C   0  0  0  0  0  0  0  0  0  0  0  0
   24.8299   -3.7755   12.8595 O   0  0  0  0  0  0  0  0  0  0  0  0
   24.8132   -5.4077   11.2651 N   0  0  0  0  0  0  0  0  0  0  0  0
  1  2  2  0
 20  1  1  0
  2  3  1  0
  3  4  2  0
  3 14  1  0
  4 13  1  0
  4 19  1  0
  5  6  2  3
  8  5  1  0
  5 21  1  0
  6 20  1  0
  7  9  2  0
 23  7  1  0
  7 24  1  0
  8 23  1  0
  9 10  1  0
 10 11  2  0
 11 12  1  0
 12 21  1  0
 12 23  2  0
 14 15  2  0
 14 18  1  0
 15 16  1  0
 16 17  2  0
 17 18  1  0
 19 20  2  0
 21 22  2  0
 24 25  2  0
 24 26  1  0
M  END
$$$$
