
     RDKit          3D

 26 29  0  0  0  0  0  0  0  0999 V2000
   24.8920   -7.8211    9.6388 C   0  0  0  0  0  0  0  0  0  0  0  0
   24.3942   -8.7489    8.7505 C   0  0  0  0  0  0  0  0  0  0  0  0
   23.0440   -8.9161    8.6091 C   0  0  0  0  0  0  0  0  0  0  0  0
   22.2120   -8.1379    9.3734 C   0  0  0  0  0  0  0  0  0  0  0  0
   25.5245   -5.1598   11.1541 C   0  0  0  0  0  0  0  0  0  0  0  0
   24.6107   -6.0748   11.3804 C   0  0  0  0  0  0  0  0  0  0  0  0
   28.2706   -3.5773    9.3681 C   0  0  0  0  0  0  0  0  0  0  0  0
   26.4398   -5.1410   10.0844 O   0  0  0  0  0  0  0  0  0  0  0  0
   28.9678   -2.4099    9.6287 C   0  0  0  0  0  0  0  0  0  0  0  0
   28.6254   -1.6517   10.7425 C   0  0  0  0  0  0  0  0  0  0  0  0
   27.6044   -2.0907   11.5455 C   0  0  0  0  0  0  0  0  0  0  0  0
   26.9273   -3.2551   11.2639 C   0  0  0  0  0  0  0  0  0  0  0  0
   20.8623   -8.3102    9.2271 F   0  0  0  0  0  0  0  0  0  0  0  0
   22.4620   -9.8894    7.6763 C   0  0  0  0  0  0  0  0  0  0  0  0
   22.0594   -9.6452    6.4182 N   0  0  0  0  0  0  0  0  0  0  0  0
   21.5861  -10.7456    5.8626 N   0  0  0  0  0  0  0  0  0  0  0  0
   21.6894  -11.6816    6.7666 N   0  0  0  0  0  0  0  0  0  0  0  0
   22.2194  -11.1928    7.8835 N   0  0  0  0  0  0  0  0  0  0  0  0
   22.7193   -7.1949   10.2769 C   0  0  0  0  0  0  0  0  0  0  0  0
   24.0717   -7.0177   10.4265 C   0  0  0  0  0  0  0  0  0  0  0  0
   25.8080   -3.9736   11.9222 C   0  0  0  0  0  0  0  0  0  0  0  0
   25.2667   -3.5444   12.9601 O   0  0  0  0  0  0  0  0  0  0  0  0
   27.2384   -4.0388   10.1636 C   0  0  0  0  0  0  0  0  0  0  0  0
   28.6386   -4.3705    8.1893 C   0  0  0  0  0  0  0  0  0  0  0  0
   29.5800   -4.0046    7.4413 O   0  0  0  0  0  0  0  0  0  0  0  0
   27.9636   -5.5640    7.8443 N   0  0  0  0  0  0  0  0  0  0  0  0
  1  2  2  0
 20  1  1  0
  2  3  1  0
  3  4  2  0
  3 14  1  0
  4 13  1  0
  4 19  1  0
  5  6  2  3
  8  5  1  0
  5 21  1  0
  6 20  1  0
  7  9  2  0
 23  7  1  0
  7 24  1  0
  8 23  1  0
  9 10  1  0
 10 11  2  0
 11 12  1  0
 12 21  1  0
 12 23  2  0
 14 15  2  0
 14 18  1  0
 15 16  1  0
 16 17  2  0
 17 18  1  0
 19 20  2  0
 21 22  2  0
 24 25  2  0
 24 26  1  0
M  END
$$$$
