
     RDKit          3D

 26 29  0  0  0  0  0  0  0  0999 V2000
   27.2039   -8.7691    6.3942 C   0  0  0  0  0  0  0  0  0  0  0  0
   26.4495   -9.9209    6.4369 C   0  0  0  0  0  0  0  0  0  0  0  0
   25.1719   -9.8932    6.9249 C   0  0  0  0  0  0  0  0  0  0  0  0
   24.6734   -8.6936    7.3657 C   0  0  0  0  0  0  0  0  0  0  0  0
   27.6722   -5.4656    7.7810 C   0  0  0  0  0  0  0  0  0  0  0  0
   27.5415   -6.3464    6.8163 C   0  0  0  0  0  0  0  0  0  0  0  0
   26.7866   -3.7743   10.8779 C   0  0  0  0  0  0  0  0  0  0  0  0
   26.8226   -5.3142    8.8935 O   0  0  0  0  0  0  0  0  0  0  0  0
   27.3962   -2.7244   11.5433 C   0  0  0  0  0  0  0  0  0  0  0  0
   28.5481   -2.1608   11.0064 C   0  0  0  0  0  0  0  0  0  0  0  0
   29.0400   -2.6688    9.8317 C   0  0  0  0  0  0  0  0  0  0  0  0
   28.4147   -3.7132    9.1902 C   0  0  0  0  0  0  0  0  0  0  0  0
   23.3946   -8.6728    7.8527 F   0  0  0  0  0  0  0  0  0  0  0  0
   24.3255  -11.0913    6.9912 C   0  0  0  0  0  0  0  0  0  0  0  0
   23.3816  -11.4502    6.1054 N   0  0  0  0  0  0  0  0  0  0  0  0
   22.8125  -12.5844    6.4705 N   0  0  0  0  0  0  0  0  0  0  0  0
   23.3950  -12.9407    7.5830 N   0  0  0  0  0  0  0  0  0  0  0  0
   24.3219  -12.0523    7.9277 N   0  0  0  0  0  0  0  0  0  0  0  0
   25.4416   -7.5228    7.3223 C   0  0  0  0  0  0  0  0  0  0  0  0
   26.7239   -7.5382    6.8340 C   0  0  0  0  0  0  0  0  0  0  0  0
   28.6952   -4.4628    7.9404 C   0  0  0  0  0  0  0  0  0  0  0  0
   29.6757   -4.1984    7.2172 O   0  0  0  0  0  0  0  0  0  0  0  0
   27.2647   -4.3020    9.6930 C   0  0  0  0  0  0  0  0  0  0  0  0
   25.5715   -4.3634   11.4529 C   0  0  0  0  0  0  0  0  0  0  0  0
   25.0571   -3.8797   12.4926 O   0  0  0  0  0  0  0  0  0  0  0  0
   24.9321   -5.4843   10.8751 N   0  0  0  0  0  0  0  0  0  0  0  0
  1  2  2  0
 20  1  1  0
  2  3  1  0
  3  4  2  0
  3 14  1  0
  4 13  1  0
  4 19  1  0
  5  6  2  3
  8  5  1  0
  5 21  1  0
  6 20  1  0
  7  9  2  0
 23  7  1  0
  7 24  1  0
  8 23  1  0
  9 10  1  0
 10 11  2  0
 11 12  1  0
 12 21  1  0
 12 23  2  0
 14 15  2  0
 14 18  1  0
 15 16  1  0
 16 17  2  0
 17 18  1  0
 19 20  2  0
 21 22  2  0
 24 25  2  0
 24 26  1  0
M  END
$$$$
