
     RDKit          3D

 26 29  0  0  0  0  0  0  0  0999 V2000
   23.0418   -8.1420   10.4330 C   0  0  0  0  0  0  0  0  0  0  0  0
   22.8013   -9.3032    9.7320 C   0  0  0  0  0  0  0  0  0  0  0  0
   23.7253   -9.7778    8.8419 C   0  0  0  0  0  0  0  0  0  0  0  0
   24.8857   -9.0660    8.6726 C   0  0  0  0  0  0  0  0  0  0  0  0
   25.4722   -5.3706   10.8996 C   0  0  0  0  0  0  0  0  0  0  0  0
   24.4307   -6.1638   10.9981 C   0  0  0  0  0  0  0  0  0  0  0  0
   28.4880   -4.0207    9.3771 C   0  0  0  0  0  0  0  0  0  0  0  0
   26.4273   -5.3719    9.8651 O   0  0  0  0  0  0  0  0  0  0  0  0
   29.3291   -2.9990    9.7838 C   0  0  0  0  0  0  0  0  0  0  0  0
   29.0471   -2.3198   10.9636 C   0  0  0  0  0  0  0  0  0  0  0  0
   27.9406   -2.6892   11.6840 C   0  0  0  0  0  0  0  0  0  0  0  0
   27.1208   -3.7087   11.2574 C   0  0  0  0  0  0  0  0  0  0  0  0
   25.8059   -9.5462    7.7807 F   0  0  0  0  0  0  0  0  0  0  0  0
   23.5189  -11.0102    8.0709 C   0  0  0  0  0  0  0  0  0  0  0  0
   23.5050  -12.2620    8.5579 N   0  0  0  0  0  0  0  0  0  0  0  0
   23.2926  -13.1329    7.5883 N   0  0  0  0  0  0  0  0  0  0  0  0
   23.1727  -12.4335    6.4926 N   0  0  0  0  0  0  0  0  0  0  0  0
   23.3055  -11.1365    6.7521 N   0  0  0  0  0  0  0  0  0  0  0  0
   25.1291   -7.8848    9.3857 C   0  0  0  0  0  0  0  0  0  0  0  0
   24.2102   -7.3998   10.2819 C   0  0  0  0  0  0  0  0  0  0  0  0
   25.8843   -4.3240   11.8008 C   0  0  0  0  0  0  0  0  0  0  0  0
   25.3631   -3.9322   12.8634 O   0  0  0  0  0  0  0  0  0  0  0  0
   27.3676   -4.4099   10.0873 C   0  0  0  0  0  0  0  0  0  0  0  0
   28.7932   -4.7313    8.1296 C   0  0  0  0  0  0  0  0  0  0  0  0
   29.7287   -4.3431    7.3855 O   0  0  0  0  0  0  0  0  0  0  0  0
   28.0622   -5.8671    7.7119 N   0  0  0  0  0  0  0  0  0  0  0  0
  1  2  2  0
 20  1  1  0
  2  3  1  0
  3  4  2  0
  3 14  1  0
  4 13  1  0
  4 19  1  0
  5  6  2  3
  8  5  1  0
  5 21  1  0
  6 20  1  0
  7  9  2  0
 23  7  1  0
  7 24  1  0
  8 23  1  0
  9 10  1  0
 10 11  2  0
 11 12  1  0
 12 21  1  0
 12 23  2  0
 14 15  2  0
 14 18  1  0
 15 16  1  0
 16 17  2  0
 17 18  1  0
 19 20  2  0
 21 22  2  0
 24 25  2  0
 24 26  1  0
M  END
$$$$
