
     RDKit          3D

 35 39  0  0  0  0  0  0  0  0999 V2000
    5.4850   -3.3687   45.5706 C   0  0  0  0  0  0  0  0  0  0  0  0
    6.5556   -4.3913   45.2751 C   0  0  0  0  0  0  0  0  0  0  0  0
    7.8619   -4.0152   45.8671 C   0  0  0  0  0  0  0  0  0  0  0  0
    8.0496   -4.2222   47.0881 O   0  0  0  0  0  0  0  0  0  0  0  0
    8.8948   -3.4347   45.1028 N   0  0  0  0  0  0  0  0  0  0  0  0
   10.0255   -2.7755   45.7433 C   0  0  0  0  0  0  0  0  0  0  0  0
   11.1001   -2.4872   44.6925 C   0  0  0  0  0  0  0  0  0  0  0  0
   11.2408   -3.6771   43.8893 N   0  0  0  0  0  0  0  0  0  0  0  0
   10.0918   -4.0940   43.1230 C   0  0  0  0  0  0  0  0  0  0  0  0
    8.8303   -3.4935   43.6350 C   0  0  0  0  0  0  0  0  0  0  0  0
   12.4798   -4.3808   43.9025 C   0  0  0  0  0  0  0  0  0  0  0  0
   12.5617   -5.6155   43.3332 N   0  0  0  0  0  0  0  0  0  0  0  0
   13.6935   -6.2765   43.3575 N   0  0  0  0  0  0  0  0  0  0  0  0
   14.8124   -5.8100   43.9204 C   0  0  0  0  0  0  0  0  0  0  0  0
   16.0250   -6.6317   43.8808 C   0  0  0  0  0  0  0  0  0  0  0  0
   16.9208   -6.6497   44.9236 C   0  0  0  0  0  0  0  0  0  0  0  0
   18.0540   -7.4111   44.8392 C   0  0  0  0  0  0  0  0  0  0  0  0
   18.3423   -8.1795   43.7284 C   0  0  0  0  0  0  0  0  0  0  0  0
   17.4240   -8.1556   42.6723 C   0  0  0  0  0  0  0  0  0  0  0  0
   16.3046   -7.3959   42.7690 C   0  0  0  0  0  0  0  0  0  0  0  0
   14.7604   -4.5736   44.4970 C   0  0  0  0  0  0  0  0  0  0  0  0
   15.8701   -4.0262   45.0712 C   0  0  0  0  0  0  0  0  0  0  0  0
   15.8260   -2.7531   45.6486 C   0  0  0  0  0  0  0  0  0  0  0  0
   14.6431   -2.0533   45.6301 C   0  0  0  0  0  0  0  0  0  0  0  0
   14.5585   -0.4523   46.3464 Cl  0  0  0  0  0  0  0  0  0  0  0  0
   13.5103   -2.5637   45.0644 C   0  0  0  0  0  0  0  0  0  0  0  0
   13.5703   -3.8284   44.4962 C   0  0  0  0  0  0  0  0  0  0  0  0
   17.0450   -2.2285   46.2505 C   0  0  0  0  0  0  0  0  0  0  0  0
   17.6242   -2.8432   47.3452 C   0  0  0  0  0  0  0  0  0  0  0  0
   17.0627   -3.9809   47.9084 O   0  0  0  0  0  0  0  0  0  0  0  0
   18.7797   -2.3627   47.9309 C   0  0  0  0  0  0  0  0  0  0  0  0
   19.3698   -1.2338   47.4023 C   0  0  0  0  0  0  0  0  0  0  0  0
   18.8324   -0.5805   46.3086 C   0  0  0  0  0  0  0  0  0  0  0  0
   17.6775   -1.1050   45.7647 C   0  0  0  0  0  0  0  0  0  0  0  0
   17.1582   -0.4639   44.6980 F   0  0  0  0  0  0  0  0  0  0  0  0
  1  2  1  0
  2  3  1  0
  3  4  2  0
  3  5  1  0
  5  6  1  0
  5 10  1  0
  6  7  1  0
  7  8  1  0
  8  9  1  0
  8 11  1  0
  9 10  1  0
 11 12  2  0
 11 27  1  0
 12 13  1  0
 13 14  2  0
 14 15  1  0
 14 21  1  0
 15 16  2  0
 15 20  1  0
 16 17  1  0
 17 18  2  0
 18 19  1  0
 19 20  2  0
 21 22  1  0
 21 27  2  0
 22 23  2  0
 23 24  1  0
 23 28  1  0
 24 25  1  0
 24 26  2  0
 26 27  1  0
 28 29  2  0
 28 34  1  0
 29 30  1  0
 29 31  1  0
 31 32  2  0
 32 33  1  0
 33 34  2  0
 34 35  1  0
M  END
$$$$
