
     RDKit          3D

 35 39  0  0  0  0  0  0  0  0999 V2000
    7.3447   -1.6885   48.2112 C   0  0  0  0  0  0  0  0  0  0  0  0
    7.0916   -2.8772   47.3156 C   0  0  0  0  0  0  0  0  0  0  0  0
    8.0959   -2.9786   46.2296 C   0  0  0  0  0  0  0  0  0  0  0  0
    8.0803   -2.1224   45.3155 O   0  0  0  0  0  0  0  0  0  0  0  0
    9.0635   -4.0035   46.1933 N   0  0  0  0  0  0  0  0  0  0  0  0
    9.9113   -4.1970   45.0240 C   0  0  0  0  0  0  0  0  0  0  0  0
   11.0264   -5.1864   45.3700 C   0  0  0  0  0  0  0  0  0  0  0  0
   11.5480   -4.8064   46.6601 N   0  0  0  0  0  0  0  0  0  0  0  0
   10.6444   -4.8767   47.7824 C   0  0  0  0  0  0  0  0  0  0  0  0
    9.2197   -4.8935   47.3533 C   0  0  0  0  0  0  0  0  0  0  0  0
   12.9015   -4.3724   46.7609 C   0  0  0  0  0  0  0  0  0  0  0  0
   13.2919   -3.6193   47.8265 N   0  0  0  0  0  0  0  0  0  0  0  0
   14.5311   -3.2011   47.9169 N   0  0  0  0  0  0  0  0  0  0  0  0
   15.4723   -3.4700   47.0067 C   0  0  0  0  0  0  0  0  0  0  0  0
   16.8296   -2.9583   47.2142 C   0  0  0  0  0  0  0  0  0  0  0  0
   17.4370   -2.9984   48.4470 C   0  0  0  0  0  0  0  0  0  0  0  0
   18.6962   -2.4886   48.6063 C   0  0  0  0  0  0  0  0  0  0  0  0
   19.3987   -1.9243   47.5597 C   0  0  0  0  0  0  0  0  0  0  0  0
   18.7726   -1.8889   46.3083 C   0  0  0  0  0  0  0  0  0  0  0  0
   17.5237   -2.3976   46.1643 C   0  0  0  0  0  0  0  0  0  0  0  0
   15.1099   -4.2250   45.9286 C   0  0  0  0  0  0  0  0  0  0  0  0
   16.0241   -4.5558   44.9717 C   0  0  0  0  0  0  0  0  0  0  0  0
   15.6616   -5.3428   43.8738 C   0  0  0  0  0  0  0  0  0  0  0  0
   14.3640   -5.7840   43.7692 C   0  0  0  0  0  0  0  0  0  0  0  0
   13.8807   -6.7746   42.4023 Cl  0  0  0  0  0  0  0  0  0  0  0  0
   13.4188   -5.4773   44.7052 C   0  0  0  0  0  0  0  0  0  0  0  0
   13.7942   -4.6949   45.7883 C   0  0  0  0  0  0  0  0  0  0  0  0
   16.6846   -5.6553   42.8842 C   0  0  0  0  0  0  0  0  0  0  0  0
   16.7510   -4.9724   41.6839 C   0  0  0  0  0  0  0  0  0  0  0  0
   15.8442   -3.9661   41.3809 O   0  0  0  0  0  0  0  0  0  0  0  0
   17.7127   -5.2525   40.7321 C   0  0  0  0  0  0  0  0  0  0  0  0
   18.6331   -6.2458   40.9934 C   0  0  0  0  0  0  0  0  0  0  0  0
   18.6118   -6.9594   42.1775 C   0  0  0  0  0  0  0  0  0  0  0  0
   17.6291   -6.6368   43.0913 C   0  0  0  0  0  0  0  0  0  0  0  0
   17.6136   -7.3357   44.2444 F   0  0  0  0  0  0  0  0  0  0  0  0
  1  2  1  0
  2  3  1  0
  3  4  2  0
  3  5  1  0
  5  6  1  0
  5 10  1  0
  6  7  1  0
  7  8  1  0
  8  9  1  0
  8 11  1  0
  9 10  1  0
 11 12  2  0
 11 27  1  0
 12 13  1  0
 13 14  2  0
 14 15  1  0
 14 21  1  0
 15 16  2  0
 15 20  1  0
 16 17  1  0
 17 18  2  0
 18 19  1  0
 19 20  2  0
 21 22  1  0
 21 27  2  0
 22 23  2  0
 23 24  1  0
 23 28  1  0
 24 25  1  0
 24 26  2  0
 26 27  1  0
 28 29  2  0
 28 34  1  0
 29 30  1  0
 29 31  1  0
 31 32  2  0
 32 33  1  0
 33 34  2  0
 34 35  1  0
M  END
$$$$
