
     RDKit          3D

 35 39  0  0  0  0  0  0  0  0999 V2000
    7.5712   -0.0362   43.8277 C   0  0  0  0  0  0  0  0  0  0  0  0
    7.2186   -1.5013   43.9177 C   0  0  0  0  0  0  0  0  0  0  0  0
    8.2927   -2.3660   43.3729 C   0  0  0  0  0  0  0  0  0  0  0  0
    8.5166   -2.3411   42.1408 O   0  0  0  0  0  0  0  0  0  0  0  0
    9.0667   -3.2116   44.1938 N   0  0  0  0  0  0  0  0  0  0  0  0
   10.0538   -4.1182   43.6220 C   0  0  0  0  0  0  0  0  0  0  0  0
   10.9128   -4.7001   44.7470 C   0  0  0  0  0  0  0  0  0  0  0  0
   11.2670   -3.6084   45.6208 N   0  0  0  0  0  0  0  0  0  0  0  0
   10.1891   -2.9351   46.3035 C   0  0  0  0  0  0  0  0  0  0  0  0
    8.8743   -3.1801   45.6513 C   0  0  0  0  0  0  0  0  0  0  0  0
   12.6378   -3.2429   45.7541 C   0  0  0  0  0  0  0  0  0  0  0  0
   12.9762   -2.1446   46.4853 N   0  0  0  0  0  0  0  0  0  0  0  0
   14.2337   -1.7917   46.5973 N   0  0  0  0  0  0  0  0  0  0  0  0
   15.2435   -2.4552   46.0257 C   0  0  0  0  0  0  0  0  0  0  0  0
   16.6137   -1.9758   46.2257 C   0  0  0  0  0  0  0  0  0  0  0  0
   17.4055   -1.5881   45.1708 C   0  0  0  0  0  0  0  0  0  0  0  0
   18.6880   -1.1693   45.3956 C   0  0  0  0  0  0  0  0  0  0  0  0
   19.2328   -1.1171   46.6636 C   0  0  0  0  0  0  0  0  0  0  0  0
   18.4188   -1.5128   47.7314 C   0  0  0  0  0  0  0  0  0  0  0  0
   17.1490   -1.9263   47.4943 C   0  0  0  0  0  0  0  0  0  0  0  0
   14.9341   -3.5617   45.2883 C   0  0  0  0  0  0  0  0  0  0  0  0
   15.9160   -4.2992   44.6945 C   0  0  0  0  0  0  0  0  0  0  0  0
   15.6054   -5.4428   43.9517 C   0  0  0  0  0  0  0  0  0  0  0  0
   14.2894   -5.8194   43.8266 C   0  0  0  0  0  0  0  0  0  0  0  0
   13.8699   -7.2515   42.9011 Cl  0  0  0  0  0  0  0  0  0  0  0  0
   13.2767   -5.1107   44.4062 C   0  0  0  0  0  0  0  0  0  0  0  0
   13.6014   -3.9780   45.1394 C   0  0  0  0  0  0  0  0  0  0  0  0
   16.7007   -6.1827   43.3381 C   0  0  0  0  0  0  0  0  0  0  0  0
   17.4727   -5.6198   42.3388 C   0  0  0  0  0  0  0  0  0  0  0  0
   17.2295   -4.3305   41.8857 O   0  0  0  0  0  0  0  0  0  0  0  0
   18.5158   -6.3034   41.7438 C   0  0  0  0  0  0  0  0  0  0  0  0
   18.7910   -7.5876   42.1646 C   0  0  0  0  0  0  0  0  0  0  0  0
   18.0504   -8.1978   43.1601 C   0  0  0  0  0  0  0  0  0  0  0  0
   17.0208   -7.4677   43.7184 C   0  0  0  0  0  0  0  0  0  0  0  0
   16.3023   -8.0677   44.6890 F   0  0  0  0  0  0  0  0  0  0  0  0
  1  2  1  0
  2  3  1  0
  3  4  2  0
  3  5  1  0
  5  6  1  0
  5 10  1  0
  6  7  1  0
  7  8  1  0
  8  9  1  0
  8 11  1  0
  9 10  1  0
 11 12  2  0
 11 27  1  0
 12 13  1  0
 13 14  2  0
 14 15  1  0
 14 21  1  0
 15 16  2  0
 15 20  1  0
 16 17  1  0
 17 18  2  0
 18 19  1  0
 19 20  2  0
 21 22  1  0
 21 27  2  0
 22 23  2  0
 23 24  1  0
 23 28  1  0
 24 25  1  0
 24 26  2  0
 26 27  1  0
 28 29  2  0
 28 34  1  0
 29 30  1  0
 29 31  1  0
 31 32  2  0
 32 33  1  0
 33 34  2  0
 34 35  1  0
M  END
$$$$
