
     RDKit          3D

 35 39  0  0  0  0  0  0  0  0999 V2000
    6.1265   -1.7127   41.7726 C   0  0  0  0  0  0  0  0  0  0  0  0
    6.5964   -3.1460   41.7094 C   0  0  0  0  0  0  0  0  0  0  0  0
    8.0555   -3.2633   41.9452 C   0  0  0  0  0  0  0  0  0  0  0  0
    8.8397   -2.9739   41.0123 O   0  0  0  0  0  0  0  0  0  0  0  0
    8.5861   -3.6884   43.1804 N   0  0  0  0  0  0  0  0  0  0  0  0
    9.8881   -4.3383   43.2567 C   0  0  0  0  0  0  0  0  0  0  0  0
   10.3140   -4.4396   44.7231 C   0  0  0  0  0  0  0  0  0  0  0  0
   10.0402   -3.1625   45.3354 N   0  0  0  0  0  0  0  0  0  0  0  0
    8.6618   -2.7405   45.3901 C   0  0  0  0  0  0  0  0  0  0  0  0
    7.8130   -3.4742   44.4128 C   0  0  0  0  0  0  0  0  0  0  0  0
   11.1253   -2.3851   45.8341 C   0  0  0  0  0  0  0  0  0  0  0  0
   10.8800   -1.1806   46.4209 N   0  0  0  0  0  0  0  0  0  0  0  0
   11.8746   -0.4516   46.8656 N   0  0  0  0  0  0  0  0  0  0  0  0
   13.1574   -0.8178   46.7819 C   0  0  0  0  0  0  0  0  0  0  0  0
   14.1883    0.0728   47.3215 C   0  0  0  0  0  0  0  0  0  0  0  0
   15.3528    0.3294   46.6372 C   0  0  0  0  0  0  0  0  0  0  0  0
   16.3024    1.1473   47.1849 C   0  0  0  0  0  0  0  0  0  0  0  0
   16.1376    1.7398   48.4216 C   0  0  0  0  0  0  0  0  0  0  0  0
   14.9485    1.4736   49.1103 C   0  0  0  0  0  0  0  0  0  0  0  0
   14.0155    0.6603   48.5558 C   0  0  0  0  0  0  0  0  0  0  0  0
   13.4330   -2.0218   46.2002 C   0  0  0  0  0  0  0  0  0  0  0  0
   14.7181   -2.4685   46.1005 C   0  0  0  0  0  0  0  0  0  0  0  0
   15.0042   -3.7085   45.5202 C   0  0  0  0  0  0  0  0  0  0  0  0
   13.9680   -4.4789   45.0489 C   0  0  0  0  0  0  0  0  0  0  0  0
   14.2973   -6.0406   44.3166 Cl  0  0  0  0  0  0  0  0  0  0  0  0
   12.6681   -4.0700   45.1307 C   0  0  0  0  0  0  0  0  0  0  0  0
   12.4009   -2.8369   45.7086 C   0  0  0  0  0  0  0  0  0  0  0  0
   16.3984   -4.1243   45.4391 C   0  0  0  0  0  0  0  0  0  0  0  0
   17.0983   -4.0521   44.2489 C   0  0  0  0  0  0  0  0  0  0  0  0
   16.4954   -3.5815   43.0905 O   0  0  0  0  0  0  0  0  0  0  0  0
   18.4206   -4.4408   44.1500 C   0  0  0  0  0  0  0  0  0  0  0  0
   19.0573   -4.9148   45.2777 C   0  0  0  0  0  0  0  0  0  0  0  0
   18.4042   -5.0077   46.4929 C   0  0  0  0  0  0  0  0  0  0  0  0
   17.0846   -4.6054   46.5327 C   0  0  0  0  0  0  0  0  0  0  0  0
   16.4530   -4.6977   47.7205 F   0  0  0  0  0  0  0  0  0  0  0  0
  1  2  1  0
  2  3  1  0
  3  4  2  0
  3  5  1  0
  5  6  1  0
  5 10  1  0
  6  7  1  0
  7  8  1  0
  8  9  1  0
  8 11  1  0
  9 10  1  0
 11 12  2  0
 11 27  1  0
 12 13  1  0
 13 14  2  0
 14 15  1  0
 14 21  1  0
 15 16  2  0
 15 20  1  0
 16 17  1  0
 17 18  2  0
 18 19  1  0
 19 20  2  0
 21 22  1  0
 21 27  2  0
 22 23  2  0
 23 24  1  0
 23 28  1  0
 24 25  1  0
 24 26  2  0
 26 27  1  0
 28 29  2  0
 28 34  1  0
 29 30  1  0
 29 31  1  0
 31 32  2  0
 32 33  1  0
 33 34  2  0
 34 35  1  0
M  END
$$$$
