
     RDKit          3D

 35 39  0  0  0  0  0  0  0  0999 V2000
    6.0941   -1.6388   46.2096 C   0  0  0  0  0  0  0  0  0  0  0  0
    7.1458   -2.7209   46.2559 C   0  0  0  0  0  0  0  0  0  0  0  0
    7.6761   -3.0385   44.9082 C   0  0  0  0  0  0  0  0  0  0  0  0
    7.0137   -3.8000   44.1665 O   0  0  0  0  0  0  0  0  0  0  0  0
    8.8967   -2.5129   44.4372 N   0  0  0  0  0  0  0  0  0  0  0  0
    9.9717   -2.1656   45.3577 C   0  0  0  0  0  0  0  0  0  0  0  0
   11.2456   -1.8821   44.5583 C   0  0  0  0  0  0  0  0  0  0  0  0
   11.3690   -2.9250   43.5694 N   0  0  0  0  0  0  0  0  0  0  0  0
   10.3308   -3.0123   42.5715 C   0  0  0  0  0  0  0  0  0  0  0  0
    9.0888   -2.3099   42.9936 C   0  0  0  0  0  0  0  0  0  0  0  0
   12.4814   -3.8132   43.6326 C   0  0  0  0  0  0  0  0  0  0  0  0
   12.4314   -5.0063   42.9774 N   0  0  0  0  0  0  0  0  0  0  0  0
   13.4436   -5.8365   43.0459 N   0  0  0  0  0  0  0  0  0  0  0  0
   14.5607   -5.5880   43.7366 C   0  0  0  0  0  0  0  0  0  0  0  0
   15.6344   -6.5851   43.7359 C   0  0  0  0  0  0  0  0  0  0  0  0
   16.9592   -6.2212   43.6846 C   0  0  0  0  0  0  0  0  0  0  0  0
   17.9324   -7.1821   43.6610 C   0  0  0  0  0  0  0  0  0  0  0  0
   17.6349   -8.5305   43.6882 C   0  0  0  0  0  0  0  0  0  0  0  0
   16.2835   -8.8913   43.7414 C   0  0  0  0  0  0  0  0  0  0  0  0
   15.3287   -7.9283   43.7638 C   0  0  0  0  0  0  0  0  0  0  0  0
   14.6396   -4.3983   44.4017 C   0  0  0  0  0  0  0  0  0  0  0  0
   15.7586   -4.0694   45.1091 C   0  0  0  0  0  0  0  0  0  0  0  0
   15.8507   -2.8449   45.7786 C   0  0  0  0  0  0  0  0  0  0  0  0
   14.7935   -1.9688   45.7145 C   0  0  0  0  0  0  0  0  0  0  0  0
   14.8816   -0.4237   46.5441 Cl  0  0  0  0  0  0  0  0  0  0  0  0
   13.6565   -2.2582   45.0165 C   0  0  0  0  0  0  0  0  0  0  0  0
   13.5804   -3.4776   44.3581 C   0  0  0  0  0  0  0  0  0  0  0  0
   17.0712   -2.5573   46.5209 C   0  0  0  0  0  0  0  0  0  0  0  0
   17.9675   -1.6009   46.0809 C   0  0  0  0  0  0  0  0  0  0  0  0
   17.7349   -0.8830   44.9159 O   0  0  0  0  0  0  0  0  0  0  0  0
   19.1302   -1.3124   46.7695 C   0  0  0  0  0  0  0  0  0  0  0  0
   19.3998   -2.0034   47.9322 C   0  0  0  0  0  0  0  0  0  0  0  0
   18.5375   -2.9695   48.4168 C   0  0  0  0  0  0  0  0  0  0  0  0
   17.3917   -3.2159   47.6879 C   0  0  0  0  0  0  0  0  0  0  0  0
   16.5543   -4.1588   48.1655 F   0  0  0  0  0  0  0  0  0  0  0  0
  1  2  1  0
  2  3  1  0
  3  4  2  0
  3  5  1  0
  5  6  1  0
  5 10  1  0
  6  7  1  0
  7  8  1  0
  8  9  1  0
  8 11  1  0
  9 10  1  0
 11 12  2  0
 11 27  1  0
 12 13  1  0
 13 14  2  0
 14 15  1  0
 14 21  1  0
 15 16  2  0
 15 20  1  0
 16 17  1  0
 17 18  2  0
 18 19  1  0
 19 20  2  0
 21 22  1  0
 21 27  2  0
 22 23  2  0
 23 24  1  0
 23 28  1  0
 24 25  1  0
 24 26  2  0
 26 27  1  0
 28 29  2  0
 28 34  1  0
 29 30  1  0
 29 31  1  0
 31 32  2  0
 32 33  1  0
 33 34  2  0
 34 35  1  0
M  END
$$$$
