
     RDKit          3D

 35 39  0  0  0  0  0  0  0  0999 V2000
    6.6168   -2.0511   40.7715 C   0  0  0  0  0  0  0  0  0  0  0  0
    7.5162   -1.9378   41.9787 C   0  0  0  0  0  0  0  0  0  0  0  0
    7.9179   -3.2668   42.4990 C   0  0  0  0  0  0  0  0  0  0  0  0
    7.5388   -4.2913   41.8861 O   0  0  0  0  0  0  0  0  0  0  0  0
    8.7094   -3.4135   43.6566 N   0  0  0  0  0  0  0  0  0  0  0  0
    8.8500   -4.7067   44.3133 C   0  0  0  0  0  0  0  0  0  0  0  0
    9.9619   -4.6199   45.3613 C   0  0  0  0  0  0  0  0  0  0  0  0
   11.0705   -3.9284   44.7499 N   0  0  0  0  0  0  0  0  0  0  0  0
   10.8512   -2.5613   44.3448 C   0  0  0  0  0  0  0  0  0  0  0  0
    9.4038   -2.2425   44.2123 C   0  0  0  0  0  0  0  0  0  0  0  0
   12.3024   -4.6200   44.5639 C   0  0  0  0  0  0  0  0  0  0  0  0
   12.2953   -5.8982   44.0935 N   0  0  0  0  0  0  0  0  0  0  0  0
   13.4235   -6.5472   43.9371 N   0  0  0  0  0  0  0  0  0  0  0  0
   14.6227   -6.0267   44.2159 C   0  0  0  0  0  0  0  0  0  0  0  0
   15.8207   -6.8407   43.9937 C   0  0  0  0  0  0  0  0  0  0  0  0
   15.8963   -8.1467   44.4165 C   0  0  0  0  0  0  0  0  0  0  0  0
   17.0411   -8.8669   44.2123 C   0  0  0  0  0  0  0  0  0  0  0  0
   18.1472   -8.3273   43.5856 C   0  0  0  0  0  0  0  0  0  0  0  0
   18.0605   -6.9973   43.1578 C   0  0  0  0  0  0  0  0  0  0  0  0
   16.9196   -6.2945   43.3670 C   0  0  0  0  0  0  0  0  0  0  0  0
   14.6605   -4.7460   44.6871 C   0  0  0  0  0  0  0  0  0  0  0  0
   15.8510   -4.1441   44.9720 C   0  0  0  0  0  0  0  0  0  0  0  0
   15.8958   -2.8267   45.4395 C   0  0  0  0  0  0  0  0  0  0  0  0
   14.7178   -2.1389   45.6088 C   0  0  0  0  0  0  0  0  0  0  0  0
   14.7436   -0.4832   46.1930 Cl  0  0  0  0  0  0  0  0  0  0  0  0
   13.5055   -2.7034   45.3339 C   0  0  0  0  0  0  0  0  0  0  0  0
   13.4780   -4.0116   44.8715 C   0  0  0  0  0  0  0  0  0  0  0  0
   17.1995   -2.2444   45.7306 C   0  0  0  0  0  0  0  0  0  0  0  0
   18.0641   -1.8819   44.7144 C   0  0  0  0  0  0  0  0  0  0  0  0
   17.7191   -2.0617   43.3819 O   0  0  0  0  0  0  0  0  0  0  0  0
   19.3043   -1.3281   44.9682 C   0  0  0  0  0  0  0  0  0  0  0  0
   19.6864   -1.1328   46.2789 C   0  0  0  0  0  0  0  0  0  0  0  0
   18.8604   -1.4773   47.3329 C   0  0  0  0  0  0  0  0  0  0  0  0
   17.6334   -2.0264   47.0200 C   0  0  0  0  0  0  0  0  0  0  0  0
   16.8320   -2.3599   48.0519 F   0  0  0  0  0  0  0  0  0  0  0  0
  1  2  1  0
  2  3  1  0
  3  4  2  0
  3  5  1  0
  5  6  1  0
  5 10  1  0
  6  7  1  0
  7  8  1  0
  8  9  1  0
  8 11  1  0
  9 10  1  0
 11 12  2  0
 11 27  1  0
 12 13  1  0
 13 14  2  0
 14 15  1  0
 14 21  1  0
 15 16  2  0
 15 20  1  0
 16 17  1  0
 17 18  2  0
 18 19  1  0
 19 20  2  0
 21 22  1  0
 21 27  2  0
 22 23  2  0
 23 24  1  0
 23 28  1  0
 24 25  1  0
 24 26  2  0
 26 27  1  0
 28 29  2  0
 28 34  1  0
 29 30  1  0
 29 31  1  0
 31 32  2  0
 32 33  1  0
 33 34  2  0
 34 35  1  0
M  END
$$$$
