
     RDKit          3D

 35 39  0  0  0  0  0  0  0  0999 V2000
    5.5304   -3.0084   42.6450 C   0  0  0  0  0  0  0  0  0  0  0  0
    6.5114   -3.2181   43.7732 C   0  0  0  0  0  0  0  0  0  0  0  0
    7.8901   -2.8301   43.3901 C   0  0  0  0  0  0  0  0  0  0  0  0
    8.0888   -1.6732   42.9530 O   0  0  0  0  0  0  0  0  0  0  0  0
    8.9798   -3.7178   43.5017 N   0  0  0  0  0  0  0  0  0  0  0  0
   10.3146   -3.3298   43.0645 C   0  0  0  0  0  0  0  0  0  0  0  0
   11.3249   -4.3722   43.5490 C   0  0  0  0  0  0  0  0  0  0  0  0
   11.0072   -4.6662   44.9250 N   0  0  0  0  0  0  0  0  0  0  0  0
    9.7206   -5.2623   45.1908 C   0  0  0  0  0  0  0  0  0  0  0  0
    8.7668   -5.0585   44.0671 C   0  0  0  0  0  0  0  0  0  0  0  0
   11.9548   -4.3456   45.9398 C   0  0  0  0  0  0  0  0  0  0  0  0
   11.6228   -4.5104   47.2505 N   0  0  0  0  0  0  0  0  0  0  0  0
   12.4828   -4.2005   48.1901 N   0  0  0  0  0  0  0  0  0  0  0  0
   13.7050   -3.7173   47.9462 C   0  0  0  0  0  0  0  0  0  0  0  0
   14.5884   -3.4136   49.0752 C   0  0  0  0  0  0  0  0  0  0  0  0
   14.0930   -3.0169   50.2947 C   0  0  0  0  0  0  0  0  0  0  0  0
   14.9507   -2.7185   51.3175 C   0  0  0  0  0  0  0  0  0  0  0  0
   16.3220   -2.8014   51.1749 C   0  0  0  0  0  0  0  0  0  0  0  0
   16.8169   -3.2072   49.9300 C   0  0  0  0  0  0  0  0  0  0  0  0
   15.9552   -3.4995   48.9243 C   0  0  0  0  0  0  0  0  0  0  0  0
   14.0658   -3.5437   46.6410 C   0  0  0  0  0  0  0  0  0  0  0  0
   15.3055   -3.0749   46.3182 C   0  0  0  0  0  0  0  0  0  0  0  0
   15.6857   -2.9108   44.9823 C   0  0  0  0  0  0  0  0  0  0  0  0
   14.7899   -3.2309   43.9901 C   0  0  0  0  0  0  0  0  0  0  0  0
   15.2402   -3.0363   42.3041 Cl  0  0  0  0  0  0  0  0  0  0  0  0
   13.5405   -3.7046   44.2699 C   0  0  0  0  0  0  0  0  0  0  0  0
   13.1783   -3.8612   45.6004 C   0  0  0  0  0  0  0  0  0  0  0  0
   17.0221   -2.4002   44.7055 C   0  0  0  0  0  0  0  0  0  0  0  0
   17.7420   -2.8375   43.6091 C   0  0  0  0  0  0  0  0  0  0  0  0
   17.2155   -3.7789   42.7353 O   0  0  0  0  0  0  0  0  0  0  0  0
   19.0102   -2.3664   43.3280 C   0  0  0  0  0  0  0  0  0  0  0  0
   19.5705   -1.4301   44.1715 C   0  0  0  0  0  0  0  0  0  0  0  0
   18.8942   -0.9589   45.2816 C   0  0  0  0  0  0  0  0  0  0  0  0
   17.6311   -1.4646   45.5130 C   0  0  0  0  0  0  0  0  0  0  0  0
   16.9762   -1.0011   46.5968 F   0  0  0  0  0  0  0  0  0  0  0  0
  1  2  1  0
  2  3  1  0
  3  4  2  0
  3  5  1  0
  5  6  1  0
  5 10  1  0
  6  7  1  0
  7  8  1  0
  8  9  1  0
  8 11  1  0
  9 10  1  0
 11 12  2  0
 11 27  1  0
 12 13  1  0
 13 14  2  0
 14 15  1  0
 14 21  1  0
 15 16  2  0
 15 20  1  0
 16 17  1  0
 17 18  2  0
 18 19  1  0
 19 20  2  0
 21 22  1  0
 21 27  2  0
 22 23  2  0
 23 24  1  0
 23 28  1  0
 24 25  1  0
 24 26  2  0
 26 27  1  0
 28 29  2  0
 28 34  1  0
 29 30  1  0
 29 31  1  0
 31 32  2  0
 32 33  1  0
 33 34  2  0
 34 35  1  0
M  END
$$$$
