
     RDKit          3D

 35 39  0  0  0  0  0  0  0  0999 V2000
    6.0949   -4.4071   47.9860 C   0  0  0  0  0  0  0  0  0  0  0  0
    7.5237   -4.6966   48.3780 C   0  0  0  0  0  0  0  0  0  0  0  0
    8.3416   -5.1276   47.2189 C   0  0  0  0  0  0  0  0  0  0  0  0
    8.4304   -6.3517   46.9686 O   0  0  0  0  0  0  0  0  0  0  0  0
    9.0197   -4.2076   46.3932 N   0  0  0  0  0  0  0  0  0  0  0  0
    9.3957   -2.8889   46.8861 C   0  0  0  0  0  0  0  0  0  0  0  0
   10.3387   -2.2262   45.8792 C   0  0  0  0  0  0  0  0  0  0  0  0
   11.3076   -3.2196   45.4854 N   0  0  0  0  0  0  0  0  0  0  0  0
   10.8117   -4.3871   44.7983 C   0  0  0  0  0  0  0  0  0  0  0  0
    9.3521   -4.5833   45.0109 C   0  0  0  0  0  0  0  0  0  0  0  0
   12.6816   -3.0124   45.8013 C   0  0  0  0  0  0  0  0  0  0  0  0
   13.0317   -2.0391   46.6875 N   0  0  0  0  0  0  0  0  0  0  0  0
   14.2949   -1.8305   46.9692 N   0  0  0  0  0  0  0  0  0  0  0  0
   15.2995   -2.5287   46.4307 C   0  0  0  0  0  0  0  0  0  0  0  0
   16.6755   -2.2159   46.8259 C   0  0  0  0  0  0  0  0  0  0  0  0
   17.0511   -2.1494   48.1468 C   0  0  0  0  0  0  0  0  0  0  0  0
   18.3397   -1.8305   48.4765 C   0  0  0  0  0  0  0  0  0  0  0  0
   19.3000   -1.5679   47.5192 C   0  0  0  0  0  0  0  0  0  0  0  0
   18.9084   -1.6390   46.1773 C   0  0  0  0  0  0  0  0  0  0  0  0
   17.6274   -1.9559   45.8644 C   0  0  0  0  0  0  0  0  0  0  0  0
   14.9780   -3.5124   45.5405 C   0  0  0  0  0  0  0  0  0  0  0  0
   15.9509   -4.2785   44.9684 C   0  0  0  0  0  0  0  0  0  0  0  0
   15.6255   -5.2983   44.0683 C   0  0  0  0  0  0  0  0  0  0  0  0
   14.3038   -5.5229   43.7649 C   0  0  0  0  0  0  0  0  0  0  0  0
   13.8655   -6.7973   42.6391 Cl  0  0  0  0  0  0  0  0  0  0  0  0
   13.2995   -4.7806   44.3162 C   0  0  0  0  0  0  0  0  0  0  0  0
   13.6390   -3.7721   45.2070 C   0  0  0  0  0  0  0  0  0  0  0  0
   16.7126   -6.0762   43.4882 C   0  0  0  0  0  0  0  0  0  0  0  0
   16.8700   -6.1744   42.1181 C   0  0  0  0  0  0  0  0  0  0  0  0
   15.9964   -5.5354   41.2489 O   0  0  0  0  0  0  0  0  0  0  0  0
   17.8936   -6.9063   41.5473 C   0  0  0  0  0  0  0  0  0  0  0  0
   18.7837   -7.5571   42.3756 C   0  0  0  0  0  0  0  0  0  0  0  0
   18.6721   -7.4920   43.7522 C   0  0  0  0  0  0  0  0  0  0  0  0
   17.6307   -6.7466   44.2666 C   0  0  0  0  0  0  0  0  0  0  0  0
   17.5272   -6.6863   45.6097 F   0  0  0  0  0  0  0  0  0  0  0  0
  1  2  1  0
  2  3  1  0
  3  4  2  0
  3  5  1  0
  5  6  1  0
  5 10  1  0
  6  7  1  0
  7  8  1  0
  8  9  1  0
  8 11  1  0
  9 10  1  0
 11 12  2  0
 11 27  1  0
 12 13  1  0
 13 14  2  0
 14 15  1  0
 14 21  1  0
 15 16  2  0
 15 20  1  0
 16 17  1  0
 17 18  2  0
 18 19  1  0
 19 20  2  0
 21 22  1  0
 21 27  2  0
 22 23  2  0
 23 24  1  0
 23 28  1  0
 24 25  1  0
 24 26  2  0
 26 27  1  0
 28 29  2  0
 28 34  1  0
 29 30  1  0
 29 31  1  0
 31 32  2  0
 32 33  1  0
 33 34  2  0
 34 35  1  0
M  END
$$$$
