
     RDKit          3D

 35 39  0  0  0  0  0  0  0  0999 V2000
   10.3258  -10.2914   43.0807 C   0  0  0  0  0  0  0  0  0  0  0  0
   10.2669   -9.7123   44.4736 C   0  0  0  0  0  0  0  0  0  0  0  0
    9.7260   -8.3318   44.4791 C   0  0  0  0  0  0  0  0  0  0  0  0
    8.5929   -8.1329   44.9744 O   0  0  0  0  0  0  0  0  0  0  0  0
   10.4432   -7.2408   43.9469 N   0  0  0  0  0  0  0  0  0  0  0  0
    9.7896   -5.9643   43.6889 C   0  0  0  0  0  0  0  0  0  0  0  0
   10.8532   -4.9093   43.3757 C   0  0  0  0  0  0  0  0  0  0  0  0
   11.9076   -5.0659   44.3475 N   0  0  0  0  0  0  0  0  0  0  0  0
   12.6284   -6.3155   44.3415 C   0  0  0  0  0  0  0  0  0  0  0  0
   11.8744   -7.3929   43.6453 C   0  0  0  0  0  0  0  0  0  0  0  0
   12.1725   -4.0049   45.2611 C   0  0  0  0  0  0  0  0  0  0  0  0
   11.1372   -3.3708   45.8787 N   0  0  0  0  0  0  0  0  0  0  0  0
   11.3722   -2.3819   46.7065 N   0  0  0  0  0  0  0  0  0  0  0  0
   12.5977   -1.9351   46.9986 C   0  0  0  0  0  0  0  0  0  0  0  0
   12.7440   -0.8275   47.9468 C   0  0  0  0  0  0  0  0  0  0  0  0
   13.5785    0.2354   47.6940 C   0  0  0  0  0  0  0  0  0  0  0  0
   13.7069    1.2386   48.6148 C   0  0  0  0  0  0  0  0  0  0  0  0
   13.0189    1.2299   49.8124 C   0  0  0  0  0  0  0  0  0  0  0  0
   12.1709    0.1442   50.0603 C   0  0  0  0  0  0  0  0  0  0  0  0
   12.0533   -0.8440   49.1389 C   0  0  0  0  0  0  0  0  0  0  0  0
   13.6549   -2.5535   46.3957 C   0  0  0  0  0  0  0  0  0  0  0  0
   14.9344   -2.1637   46.6636 C   0  0  0  0  0  0  0  0  0  0  0  0
   16.0215   -2.8049   46.0611 C   0  0  0  0  0  0  0  0  0  0  0  0
   15.7849   -3.8414   45.1898 C   0  0  0  0  0  0  0  0  0  0  0  0
   17.1305   -4.6657   44.4195 Cl  0  0  0  0  0  0  0  0  0  0  0  0
   14.5205   -4.2638   44.8956 C   0  0  0  0  0  0  0  0  0  0  0  0
   13.4525   -3.6168   45.5013 C   0  0  0  0  0  0  0  0  0  0  0  0
   17.3625   -2.3360   46.3856 C   0  0  0  0  0  0  0  0  0  0  0  0
   18.0627   -2.8575   47.4577 C   0  0  0  0  0  0  0  0  0  0  0  0
   17.5107   -3.8453   48.2617 O   0  0  0  0  0  0  0  0  0  0  0  0
   19.3350   -2.4277   47.7827 C   0  0  0  0  0  0  0  0  0  0  0  0
   19.9201   -1.4471   47.0094 C   0  0  0  0  0  0  0  0  0  0  0  0
   19.2643   -0.8917   45.9262 C   0  0  0  0  0  0  0  0  0  0  0  0
   17.9960   -1.3595   45.6484 C   0  0  0  0  0  0  0  0  0  0  0  0
   17.3615   -0.8145   44.5907 F   0  0  0  0  0  0  0  0  0  0  0  0
  1  2  1  0
  2  3  1  0
  3  4  2  0
  3  5  1  0
  5  6  1  0
  5 10  1  0
  6  7  1  0
  7  8  1  0
  8  9  1  0
  8 11  1  0
  9 10  1  0
 11 12  2  0
 11 27  1  0
 12 13  1  0
 13 14  2  0
 14 15  1  0
 14 21  1  0
 15 16  2  0
 15 20  1  0
 16 17  1  0
 17 18  2  0
 18 19  1  0
 19 20  2  0
 21 22  1  0
 21 27  2  0
 22 23  2  0
 23 24  1  0
 23 28  1  0
 24 25  1  0
 24 26  2  0
 26 27  1  0
 28 29  2  0
 28 34  1  0
 29 30  1  0
 29 31  1  0
 31 32  2  0
 32 33  1  0
 33 34  2  0
 34 35  1  0
M  END
$$$$
