
     RDKit          3D

 35 39  0  0  0  0  0  0  0  0999 V2000
    6.5184   -2.5381   42.1434 C   0  0  0  0  0  0  0  0  0  0  0  0
    6.8693   -2.2640   43.5859 C   0  0  0  0  0  0  0  0  0  0  0  0
    7.5526   -3.4168   44.2204 C   0  0  0  0  0  0  0  0  0  0  0  0
    6.9401   -4.0700   45.0962 O   0  0  0  0  0  0  0  0  0  0  0  0
    8.8638   -3.7995   43.8707 N   0  0  0  0  0  0  0  0  0  0  0  0
    9.9194   -2.8080   43.7094 C   0  0  0  0  0  0  0  0  0  0  0  0
   11.2679   -3.5232   43.5990 C   0  0  0  0  0  0  0  0  0  0  0  0
   11.2974   -4.5374   44.6244 N   0  0  0  0  0  0  0  0  0  0  0  0
   10.3211   -5.5955   44.5323 C   0  0  0  0  0  0  0  0  0  0  0  0
    9.1721   -5.2222   43.6636 C   0  0  0  0  0  0  0  0  0  0  0  0
   12.2613   -4.4400   45.6693 C   0  0  0  0  0  0  0  0  0  0  0  0
   12.0642   -5.1156   46.8355 N   0  0  0  0  0  0  0  0  0  0  0  0
   12.9375   -5.0163   47.8081 N   0  0  0  0  0  0  0  0  0  0  0  0
   14.0466   -4.2738   47.7355 C   0  0  0  0  0  0  0  0  0  0  0  0
   14.9590   -4.2436   48.8817 C   0  0  0  0  0  0  0  0  0  0  0  0
   15.4261   -3.0604   49.4032 C   0  0  0  0  0  0  0  0  0  0  0  0
   16.2960   -3.0739   50.4587 C   0  0  0  0  0  0  0  0  0  0  0  0
   16.7336   -4.2499   51.0357 C   0  0  0  0  0  0  0  0  0  0  0  0
   16.2518   -5.4494   50.4986 C   0  0  0  0  0  0  0  0  0  0  0  0
   15.3900   -5.4216   49.4517 C   0  0  0  0  0  0  0  0  0  0  0  0
   14.2713   -3.5871   46.5772 C   0  0  0  0  0  0  0  0  0  0  0  0
   15.3935   -2.8265   46.4255 C   0  0  0  0  0  0  0  0  0  0  0  0
   15.6363   -2.1343   45.2347 C   0  0  0  0  0  0  0  0  0  0  0  0
   14.7251   -2.2304   44.2101 C   0  0  0  0  0  0  0  0  0  0  0  0
   15.0043   -1.3732   42.7032 Cl  0  0  0  0  0  0  0  0  0  0  0  0
   13.5906   -2.9817   44.3200 C   0  0  0  0  0  0  0  0  0  0  0  0
   13.3639   -3.6620   45.5082 C   0  0  0  0  0  0  0  0  0  0  0  0
   16.8510   -1.3350   45.1395 C   0  0  0  0  0  0  0  0  0  0  0  0
   17.0295   -0.2089   45.9215 C   0  0  0  0  0  0  0  0  0  0  0  0
   16.0563    0.1986   46.8237 O   0  0  0  0  0  0  0  0  0  0  0  0
   18.1732    0.5628   45.8473 C   0  0  0  0  0  0  0  0  0  0  0  0
   19.1651    0.1929   44.9633 C   0  0  0  0  0  0  0  0  0  0  0  0
   19.0377   -0.9239   44.1581 C   0  0  0  0  0  0  0  0  0  0  0  0
   17.8742   -1.6569   44.2747 C   0  0  0  0  0  0  0  0  0  0  0  0
   17.7558   -2.7451   43.4873 F   0  0  0  0  0  0  0  0  0  0  0  0
  1  2  1  0
  2  3  1  0
  3  4  2  0
  3  5  1  0
  5  6  1  0
  5 10  1  0
  6  7  1  0
  7  8  1  0
  8  9  1  0
  8 11  1  0
  9 10  1  0
 11 12  2  0
 11 27  1  0
 12 13  1  0
 13 14  2  0
 14 15  1  0
 14 21  1  0
 15 16  2  0
 15 20  1  0
 16 17  1  0
 17 18  2  0
 18 19  1  0
 19 20  2  0
 21 22  1  0
 21 27  2  0
 22 23  2  0
 23 24  1  0
 23 28  1  0
 24 25  1  0
 24 26  2  0
 26 27  1  0
 28 29  2  0
 28 34  1  0
 29 30  1  0
 29 31  1  0
 31 32  2  0
 32 33  1  0
 33 34  2  0
 34 35  1  0
M  END
$$$$
