
     RDKit          3D

 35 39  0  0  0  0  0  0  0  0999 V2000
    5.5441   -3.0741   42.6487 C   0  0  0  0  0  0  0  0  0  0  0  0
    6.0253   -4.2490   43.4654 C   0  0  0  0  0  0  0  0  0  0  0  0
    7.4920   -4.4374   43.3576 C   0  0  0  0  0  0  0  0  0  0  0  0
    7.9695   -5.5737   43.5805 O   0  0  0  0  0  0  0  0  0  0  0  0
    8.3625   -3.3828   43.0137 N   0  0  0  0  0  0  0  0  0  0  0  0
    7.9926   -1.9936   43.2515 C   0  0  0  0  0  0  0  0  0  0  0  0
    9.2182   -1.1031   43.0348 C   0  0  0  0  0  0  0  0  0  0  0  0
   10.3303   -1.7407   43.6962 N   0  0  0  0  0  0  0  0  0  0  0  0
   10.7352   -3.0349   43.2041 C   0  0  0  0  0  0  0  0  0  0  0  0
    9.6649   -3.6887   42.4034 C   0  0  0  0  0  0  0  0  0  0  0  0
   10.9552   -1.0816   44.7943 C   0  0  0  0  0  0  0  0  0  0  0  0
   10.2573   -0.1608   45.5156 N   0  0  0  0  0  0  0  0  0  0  0  0
   10.8313    0.4628   46.5157 N   0  0  0  0  0  0  0  0  0  0  0  0
   12.0966    0.2529   46.8920 C   0  0  0  0  0  0  0  0  0  0  0  0
   12.6332    1.0006   48.0322 C   0  0  0  0  0  0  0  0  0  0  0  0
   12.2744    2.3054   48.2749 C   0  0  0  0  0  0  0  0  0  0  0  0
   12.8156    2.9780   49.3358 C   0  0  0  0  0  0  0  0  0  0  0  0
   13.7255    2.3897   50.1924 C   0  0  0  0  0  0  0  0  0  0  0  0
   14.0839    1.0608   49.9379 C   0  0  0  0  0  0  0  0  0  0  0  0
   13.5399    0.4058   48.8822 C   0  0  0  0  0  0  0  0  0  0  0  0
   12.8198   -0.6665   46.1881 C   0  0  0  0  0  0  0  0  0  0  0  0
   14.1102   -0.9468   46.5302 C   0  0  0  0  0  0  0  0  0  0  0  0
   14.8499   -1.8997   45.8225 C   0  0  0  0  0  0  0  0  0  0  0  0
   14.2574   -2.5571   44.7708 C   0  0  0  0  0  0  0  0  0  0  0  0
   15.1615   -3.7594   43.8651 Cl  0  0  0  0  0  0  0  0  0  0  0  0
   12.9683   -2.3078   44.3969 C   0  0  0  0  0  0  0  0  0  0  0  0
   12.2479   -1.3590   45.1088 C   0  0  0  0  0  0  0  0  0  0  0  0
   16.2253   -2.1478   46.2353 C   0  0  0  0  0  0  0  0  0  0  0  0
   16.5154   -3.0146   47.2727 C   0  0  0  0  0  0  0  0  0  0  0  0
   15.5053   -3.6772   47.9565 O   0  0  0  0  0  0  0  0  0  0  0  0
   17.8119   -3.2644   47.6799 C   0  0  0  0  0  0  0  0  0  0  0  0
   18.8454   -2.6260   47.0269 C   0  0  0  0  0  0  0  0  0  0  0  0
   18.6110   -1.7498   45.9833 C   0  0  0  0  0  0  0  0  0  0  0  0
   17.2966   -1.5385   45.6195 C   0  0  0  0  0  0  0  0  0  0  0  0
   17.0742   -0.6834   44.6009 F   0  0  0  0  0  0  0  0  0  0  0  0
  1  2  1  0
  2  3  1  0
  3  4  2  0
  3  5  1  0
  5  6  1  0
  5 10  1  0
  6  7  1  0
  7  8  1  0
  8  9  1  0
  8 11  1  0
  9 10  1  0
 11 12  2  0
 11 27  1  0
 12 13  1  0
 13 14  2  0
 14 15  1  0
 14 21  1  0
 15 16  2  0
 15 20  1  0
 16 17  1  0
 17 18  2  0
 18 19  1  0
 19 20  2  0
 21 22  1  0
 21 27  2  0
 22 23  2  0
 23 24  1  0
 23 28  1  0
 24 25  1  0
 24 26  2  0
 26 27  1  0
 28 29  2  0
 28 34  1  0
 29 30  1  0
 29 31  1  0
 31 32  2  0
 32 33  1  0
 33 34  2  0
 34 35  1  0
M  END
$$$$
