
     RDKit          3D

 35 39  0  0  0  0  0  0  0  0999 V2000
    6.6209   -4.3795   43.6590 C   0  0  0  0  0  0  0  0  0  0  0  0
    6.8834   -4.0075   45.0984 C   0  0  0  0  0  0  0  0  0  0  0  0
    7.7878   -2.8384   45.2142 C   0  0  0  0  0  0  0  0  0  0  0  0
    7.6053   -2.0285   46.1521 O   0  0  0  0  0  0  0  0  0  0  0  0
    8.8421   -2.6102   44.3062 N   0  0  0  0  0  0  0  0  0  0  0  0
    9.4752   -1.3019   44.2014 C   0  0  0  0  0  0  0  0  0  0  0  0
   10.7401   -1.4227   43.3485 C   0  0  0  0  0  0  0  0  0  0  0  0
   11.4449   -2.5991   43.7958 N   0  0  0  0  0  0  0  0  0  0  0  0
   10.7785   -3.8681   43.6317 C   0  0  0  0  0  0  0  0  0  0  0  0
    9.3103   -3.7094   43.4491 C   0  0  0  0  0  0  0  0  0  0  0  0
   12.7355   -2.4540   44.3822 C   0  0  0  0  0  0  0  0  0  0  0  0
   13.0216   -1.3452   45.1197 N   0  0  0  0  0  0  0  0  0  0  0  0
   14.2125   -1.1961   45.6470 N   0  0  0  0  0  0  0  0  0  0  0  0
   15.2011   -2.0850   45.5083 C   0  0  0  0  0  0  0  0  0  0  0  0
   16.4915   -1.8200   46.1501 C   0  0  0  0  0  0  0  0  0  0  0  0
   17.1086   -0.5951   46.0549 C   0  0  0  0  0  0  0  0  0  0  0  0
   18.3247   -0.3936   46.6476 C   0  0  0  0  0  0  0  0  0  0  0  0
   18.9725   -1.3886   47.3532 C   0  0  0  0  0  0  0  0  0  0  0  0
   18.3361   -2.6319   47.4455 C   0  0  0  0  0  0  0  0  0  0  0  0
   17.1306   -2.8182   46.8527 C   0  0  0  0  0  0  0  0  0  0  0  0
   14.9420   -3.2074   44.7757 C   0  0  0  0  0  0  0  0  0  0  0  0
   15.8977   -4.1668   44.6107 C   0  0  0  0  0  0  0  0  0  0  0  0
   15.6318   -5.3261   43.8748 C   0  0  0  0  0  0  0  0  0  0  0  0
   14.3867   -5.4902   43.3161 C   0  0  0  0  0  0  0  0  0  0  0  0
   14.0242   -6.9361   42.3881 Cl  0  0  0  0  0  0  0  0  0  0  0  0
   13.4018   -4.5556   43.4586 C   0  0  0  0  0  0  0  0  0  0  0  0
   13.6816   -3.4106   44.1912 C   0  0  0  0  0  0  0  0  0  0  0  0
   16.6979   -6.3091   43.7315 C   0  0  0  0  0  0  0  0  0  0  0  0
   17.2560   -6.5843   42.4968 C   0  0  0  0  0  0  0  0  0  0  0  0
   16.8183   -5.9334   41.3515 O   0  0  0  0  0  0  0  0  0  0  0  0
   18.2676   -7.5121   42.3387 C   0  0  0  0  0  0  0  0  0  0  0  0
   18.7315   -8.1817   43.4515 C   0  0  0  0  0  0  0  0  0  0  0  0
   18.2088   -7.9447   44.7094 C   0  0  0  0  0  0  0  0  0  0  0  0
   17.2004   -7.0075   44.8076 C   0  0  0  0  0  0  0  0  0  0  0  0
   16.6948   -6.7802   46.0369 F   0  0  0  0  0  0  0  0  0  0  0  0
  1  2  1  0
  2  3  1  0
  3  4  2  0
  3  5  1  0
  5  6  1  0
  5 10  1  0
  6  7  1  0
  7  8  1  0
  8  9  1  0
  8 11  1  0
  9 10  1  0
 11 12  2  0
 11 27  1  0
 12 13  1  0
 13 14  2  0
 14 15  1  0
 14 21  1  0
 15 16  2  0
 15 20  1  0
 16 17  1  0
 17 18  2  0
 18 19  1  0
 19 20  2  0
 21 22  1  0
 21 27  2  0
 22 23  2  0
 23 24  1  0
 23 28  1  0
 24 25  1  0
 24 26  2  0
 26 27  1  0
 28 29  2  0
 28 34  1  0
 29 30  1  0
 29 31  1  0
 31 32  2  0
 32 33  1  0
 33 34  2  0
 34 35  1  0
M  END
$$$$
