
     RDKit          3D

 18 19  0  0  0  0  0  0  0  0999 V2000
  -18.7029   -2.7149  -26.8316 C   0  0  0  0  0  0  0  0  0  0  0  0
  -14.9739   -1.9418  -26.3737 C   0  0  0  0  0  0  0  0  0  0  0  0
  -17.2179   -6.1398  -25.9800 C   0  0  0  0  0  0  0  0  0  0  0  0
  -14.8329   -6.0886  -26.2604 C   0  0  0  0  0  0  0  0  0  0  0  0
  -16.8065   -0.9680  -30.2167 C   0  0  0  0  0  0  0  0  0  0  0  0
  -15.8425   -3.0807  -30.6601 C   0  0  0  0  0  0  0  0  0  0  0  0
  -17.2484   -4.8008  -26.3065 C   0  0  0  0  0  0  0  0  0  0  0  0
  -14.9023   -4.7507  -26.5824 C   0  0  0  0  0  0  0  0  0  0  0  0
  -16.7602   -1.2072  -28.8679 C   0  0  0  0  0  0  0  0  0  0  0  0
  -15.7828   -3.3517  -29.2927 C   0  0  0  0  0  0  0  0  0  0  0  0
  -17.4327   -2.0920  -26.2893 C   0  0  0  0  0  0  0  0  0  0  0  0
  -15.9957   -6.7686  -25.9622 C   0  0  0  0  0  0  0  0  0  0  0  0
  -16.3498   -1.8958  -31.1525 C   0  0  0  0  0  0  0  0  0  0  0  0
  -16.1085   -4.0915  -26.6094 C   0  0  0  0  0  0  0  0  0  0  0  0
  -16.2437   -2.4104  -28.3966 C   0  0  0  0  0  0  0  0  0  0  0  0
  -16.2001   -2.6535  -26.9539 C   0  0  2  0  0  0  0  0  0  0  0  0
  -15.9422   -8.1284  -25.6330 O   0  0  0  0  0  0  0  0  0  0  0  0
  -16.4089   -1.6263  -32.5175 O   0  0  0  0  0  0  0  0  0  0  0  0
 11  1  1  0
 16  2  1  1
  7  3  2  0
  3 12  1  0
  8  4  1  0
  4 12  2  0
  9  5  2  0
  5 13  1  0
 10  6  1  0
  6 13  2  0
 14  7  1  0
 14  8  2  0
 15  9  1  0
 15 10  2  0
 16 11  1  0
 12 17  1  0
 13 18  1  0
 16 14  1  0
 15 16  1  0
M  END
$$$$
