
     RDKit          3D

 18 19  0  0  0  0  0  0  0  0999 V2000
  -15.5199   -1.0537  -28.9499 C   0  0  0  0  0  0  0  0  0  0  0  0
  -17.9362   -3.1430  -28.8226 C   0  0  0  0  0  0  0  0  0  0  0  0
  -17.2148   -6.0874  -25.8527 C   0  0  0  0  0  0  0  0  0  0  0  0
  -14.9723   -6.0473  -26.7124 C   0  0  0  0  0  0  0  0  0  0  0  0
  -18.1961    0.1880  -26.4565 C   0  0  0  0  0  0  0  0  0  0  0  0
  -17.0386   -0.9228  -24.7200 C   0  0  0  0  0  0  0  0  0  0  0  0
  -17.4369   -4.8787  -26.4774 C   0  0  0  0  0  0  0  0  0  0  0  0
  -15.2309   -4.8396  -27.3230 C   0  0  0  0  0  0  0  0  0  0  0  0
  -17.8660   -0.8063  -27.3403 C   0  0  0  0  0  0  0  0  0  0  0  0
  -16.6875   -1.9495  -25.5972 C   0  0  0  0  0  0  0  0  0  0  0  0
  -15.5501   -2.5433  -28.6745 C   0  0  0  0  0  0  0  0  0  0  0  0
  -15.9710   -6.6581  -25.9824 C   0  0  0  0  0  0  0  0  0  0  0  0
  -17.7932    0.1603  -25.1217 C   0  0  0  0  0  0  0  0  0  0  0  0
  -16.4640   -4.2415  -27.2133 C   0  0  0  0  0  0  0  0  0  0  0  0
  -17.1038   -1.8883  -26.9102 C   0  0  0  0  0  0  0  0  0  0  0  0
  -16.7581   -2.9433  -27.8640 C   0  0  2  0  0  0  0  0  0  0  0  0
  -15.7242   -7.8855  -25.3558 O   0  0  0  0  0  0  0  0  0  0  0  0
  -18.1431    1.1845  -24.2453 O   0  0  0  0  0  0  0  0  0  0  0  0
 11  1  1  0
 16  2  1  6
  7  3  2  0
  3 12  1  0
  8  4  1  0
  4 12  2  0
  9  5  2  0
  5 13  1  0
 10  6  1  0
  6 13  2  0
 14  7  1  0
 14  8  2  0
 15  9  1  0
 15 10  2  0
 16 11  1  0
 12 17  1  0
 13 18  1  0
 16 14  1  0
 15 16  1  0
M  END
$$$$
