
     RDKit          3D

 18 19  0  0  0  0  0  0  0  0999 V2000
  -15.9790   -1.3083  -29.6101 C   0  0  0  0  0  0  0  0  0  0  0  0
  -18.0391   -3.1416  -28.7049 C   0  0  0  0  0  0  0  0  0  0  0  0
  -16.9058   -6.0894  -25.7954 C   0  0  0  0  0  0  0  0  0  0  0  0
  -14.9500   -6.2109  -27.1844 C   0  0  0  0  0  0  0  0  0  0  0  0
  -18.3851   -0.3779  -25.8184 C   0  0  0  0  0  0  0  0  0  0  0  0
  -16.1343   -0.5554  -25.1173 C   0  0  0  0  0  0  0  0  0  0  0  0
  -17.1897   -4.8666  -26.3650 C   0  0  0  0  0  0  0  0  0  0  0  0
  -15.2657   -4.9863  -27.7313 C   0  0  0  0  0  0  0  0  0  0  0  0
  -18.1888   -1.3510  -26.7636 C   0  0  0  0  0  0  0  0  0  0  0  0
  -15.9052   -1.5483  -26.0704 C   0  0  0  0  0  0  0  0  0  0  0  0
  -15.6436   -2.5831  -28.8629 C   0  0  0  0  0  0  0  0  0  0  0  0
  -15.7769   -6.7489  -26.2200 C   0  0  0  0  0  0  0  0  0  0  0  0
  -17.3657    0.0489  -24.9679 C   0  0  0  0  0  0  0  0  0  0  0  0
  -16.3872   -4.3003  -27.3292 C   0  0  0  0  0  0  0  0  0  0  0  0
  -16.9372   -1.9451  -26.8943 C   0  0  0  0  0  0  0  0  0  0  0  0
  -16.7408   -2.9829  -27.9076 C   0  0  2  0  0  0  0  0  0  0  0  0
  -15.4701   -7.9923  -25.6544 O   0  0  0  0  0  0  0  0  0  0  0  0
  -17.5933    1.0399  -24.0162 O   0  0  0  0  0  0  0  0  0  0  0  0
 11  1  1  0
 16  2  1  6
  7  3  2  0
  3 12  1  0
  8  4  1  0
  4 12  2  0
  9  5  2  0
  5 13  1  0
 10  6  1  0
  6 13  2  0
 14  7  1  0
 14  8  2  0
 15  9  1  0
 15 10  2  0
 16 11  1  0
 12 17  1  0
 13 18  1  0
 16 14  1  0
 15 16  1  0
M  END
$$$$
