
     RDKit          3D

 18 19  0  0  0  0  0  0  0  0999 V2000
  -19.0776   -3.1518  -27.2650 C   0  0  0  0  0  0  0  0  0  0  0  0
  -15.7670   -1.9019  -25.7937 C   0  0  0  0  0  0  0  0  0  0  0  0
  -15.0488   -6.1401  -26.8432 C   0  0  0  0  0  0  0  0  0  0  0  0
  -16.8702   -6.2307  -25.2802 C   0  0  0  0  0  0  0  0  0  0  0  0
  -16.1358   -0.6646  -29.7300 C   0  0  0  0  0  0  0  0  0  0  0  0
  -16.0327   -2.9346  -30.3827 C   0  0  0  0  0  0  0  0  0  0  0  0
  -15.3518   -4.8134  -27.0636 C   0  0  0  0  0  0  0  0  0  0  0  0
  -17.1436   -4.9029  -25.5259 C   0  0  0  0  0  0  0  0  0  0  0  0
  -16.3626   -1.0281  -28.4280 C   0  0  0  0  0  0  0  0  0  0  0  0
  -16.2623   -3.3341  -29.0657 C   0  0  0  0  0  0  0  0  0  0  0  0
  -18.1056   -2.4766  -26.3190 C   0  0  0  0  0  0  0  0  0  0  0  0
  -15.8226   -6.8347  -25.9443 C   0  0  0  0  0  0  0  0  0  0  0  0
  -15.9643   -1.6051  -30.7454 C   0  0  0  0  0  0  0  0  0  0  0  0
  -16.3894   -4.1792  -26.4190 C   0  0  0  0  0  0  0  0  0  0  0  0
  -16.4273   -2.3759  -28.0880 C   0  0  0  0  0  0  0  0  0  0  0  0
  -16.6701   -2.7506  -26.6941 C   0  0  2  0  0  0  0  0  0  0  0  0
  -15.5318   -8.1833  -25.7057 O   0  0  0  0  0  0  0  0  0  0  0  0
  -15.7351   -1.2074  -32.0603 O   0  0  0  0  0  0  0  0  0  0  0  0
 11  1  1  0
 16  2  1  1
  7  3  2  0
  3 12  1  0
  8  4  1  0
  4 12  2  0
  9  5  2  0
  5 13  1  0
 10  6  1  0
  6 13  2  0
 14  7  1  0
 14  8  2  0
 15  9  1  0
 15 10  2  0
 16 11  1  0
 12 17  1  0
 13 18  1  0
 16 14  1  0
 15 16  1  0
M  END
$$$$
