
     RDKit          3D

 18 19  0  0  0  0  0  0  0  0999 V2000
  -15.4980   -2.5333  -29.1980 C   0  0  0  0  0  0  0  0  0  0  0  0
  -18.6354   -2.5537  -27.0173 C   0  0  0  0  0  0  0  0  0  0  0  0
  -17.1018   -5.9618  -25.3719 C   0  0  0  0  0  0  0  0  0  0  0  0
  -15.3594   -6.0436  -27.0232 C   0  0  0  0  0  0  0  0  0  0  0  0
  -16.2000    0.6268  -26.0677 C   0  0  0  0  0  0  0  0  0  0  0  0
  -14.5016   -0.8878  -25.4269 C   0  0  0  0  0  0  0  0  0  0  0  0
  -17.4289   -4.7042  -25.8322 C   0  0  0  0  0  0  0  0  0  0  0  0
  -15.7148   -4.7850  -27.4566 C   0  0  0  0  0  0  0  0  0  0  0  0
  -16.8981   -0.3824  -26.6782 C   0  0  0  0  0  0  0  0  0  0  0  0
  -15.1902   -1.9350  -26.0400 C   0  0  0  0  0  0  0  0  0  0  0  0
  -16.9569   -2.6832  -28.8176 C   0  0  0  0  0  0  0  0  0  0  0  0
  -16.0598   -6.6181  -25.9827 C   0  0  0  0  0  0  0  0  0  0  0  0
  -14.9825    0.4055  -25.4245 C   0  0  0  0  0  0  0  0  0  0  0  0
  -16.7519   -4.1010  -26.8676 C   0  0  0  0  0  0  0  0  0  0  0  0
  -16.3914   -1.6785  -26.6665 C   0  0  0  0  0  0  0  0  0  0  0  0
  -17.1467   -2.7472  -27.3222 C   0  0  2  0  0  0  0  0  0  0  0  0
  -15.7111   -7.8964  -25.5304 O   0  0  0  0  0  0  0  0  0  0  0  0
  -14.2944    1.4500  -24.8122 O   0  0  0  0  0  0  0  0  0  0  0  0
 11  1  1  0
 16  2  1  6
  7  3  2  0
  3 12  1  0
  8  4  1  0
  4 12  2  0
  9  5  2  0
  5 13  1  0
 10  6  1  0
  6 13  2  0
 14  7  1  0
 14  8  2  0
 15  9  1  0
 15 10  2  0
 16 11  1  0
 12 17  1  0
 13 18  1  0
 16 14  1  0
 15 16  1  0
M  END
$$$$
