
     RDKit          3D

 18 19  0  0  0  0  0  0  0  0999 V2000
  -15.0537   -2.1106  -25.8506 C   0  0  0  0  0  0  0  0  0  0  0  0
  -18.7082   -3.0720  -26.4979 C   0  0  0  0  0  0  0  0  0  0  0  0
  -15.2824   -2.1947  -29.8127 C   0  0  0  0  0  0  0  0  0  0  0  0
  -17.6278   -2.2096  -30.3303 C   0  0  0  0  0  0  0  0  0  0  0  0
  -16.7811   -6.3407  -24.9086 C   0  0  0  0  0  0  0  0  0  0  0  0
  -15.2823   -6.3311  -26.7369 C   0  0  0  0  0  0  0  0  0  0  0  0
  -15.6031   -2.5442  -28.5183 C   0  0  0  0  0  0  0  0  0  0  0  0
  -17.9103   -2.5588  -29.0278 C   0  0  0  0  0  0  0  0  0  0  0  0
  -17.2324   -5.0911  -25.2456 C   0  0  0  0  0  0  0  0  0  0  0  0
  -15.7222   -5.0589  -27.1038 C   0  0  0  0  0  0  0  0  0  0  0  0
  -16.5675   -2.0655  -25.8053 C   0  0  0  0  0  0  0  0  0  0  0  0
  -16.3128   -2.0314  -30.7076 C   0  0  0  0  0  0  0  0  0  0  0  0
  -15.7940   -6.9978  -25.6426 C   0  0  0  0  0  0  0  0  0  0  0  0
  -16.9035   -2.7300  -28.1074 C   0  0  0  0  0  0  0  0  0  0  0  0
  -16.7000   -4.4398  -26.3542 C   0  0  0  0  0  0  0  0  0  0  0  0
  -17.1905   -3.1057  -26.7032 C   0  0  2  0  0  0  0  0  0  0  0  0
  -16.0091   -1.6765  -32.0275 O   0  0  0  0  0  0  0  0  0  0  0  0
  -15.3542   -8.2677  -25.2773 O   0  0  0  0  0  0  0  0  0  0  0  0
 11  1  1  0
 16  2  1  6
  7  3  2  0
  3 12  1  0
  8  4  1  0
  4 12  2  0
  9  5  2  0
  5 13  1  0
 10  6  1  0
  6 13  2  0
 14  7  1  0
 14  8  2  0
 15  9  1  0
 15 10  2  0
 16 11  1  0
 12 17  1  0
 13 18  1  0
 16 14  1  0
 15 16  1  0
M  END
$$$$
