
     RDKit          3D

 18 19  0  0  0  0  0  0  0  0999 V2000
  -18.4917   -2.6977  -26.5577 C   0  0  0  0  0  0  0  0  0  0  0  0
  -14.7051   -2.1052  -26.5815 C   0  0  0  0  0  0  0  0  0  0  0  0
  -16.3913   -6.0812  -25.2386 C   0  0  0  0  0  0  0  0  0  0  0  0
  -15.1873   -6.4277  -27.2879 C   0  0  0  0  0  0  0  0  0  0  0  0
  -17.8479   -2.1949  -30.1790 C   0  0  0  0  0  0  0  0  0  0  0  0
  -15.5363   -1.9521  -30.6110 C   0  0  0  0  0  0  0  0  0  0  0  0
  -16.4630   -4.7402  -25.5500 C   0  0  0  0  0  0  0  0  0  0  0  0
  -15.2786   -5.0813  -27.5659 C   0  0  0  0  0  0  0  0  0  0  0  0
  -17.5937   -2.4657  -28.8596 C   0  0  0  0  0  0  0  0  0  0  0  0
  -15.2475   -2.2247  -29.2734 C   0  0  0  0  0  0  0  0  0  0  0  0
  -17.1250   -2.2078  -26.1243 C   0  0  0  0  0  0  0  0  0  0  0  0
  -15.7468   -6.9123  -26.1237 C   0  0  0  0  0  0  0  0  0  0  0  0
  -16.8288   -1.9303  -31.0934 C   0  0  0  0  0  0  0  0  0  0  0  0
  -15.9162   -4.2226  -26.7021 C   0  0  0  0  0  0  0  0  0  0  0  0
  -16.2811   -2.4818  -28.3978 C   0  0  0  0  0  0  0  0  0  0  0  0
  -16.0232   -2.7725  -26.9867 C   0  0  2  0  0  0  0  0  0  0  0  0
  -15.6626   -8.2779  -25.8265 O   0  0  0  0  0  0  0  0  0  0  0  0
  -17.1160   -1.6580  -32.4287 O   0  0  0  0  0  0  0  0  0  0  0  0
 11  1  1  0
 16  2  1  1
  7  3  2  0
  3 12  1  0
  8  4  1  0
  4 12  2  0
  9  5  2  0
  5 13  1  0
 10  6  1  0
  6 13  2  0
 14  7  1  0
 14  8  2  0
 15  9  1  0
 15 10  2  0
 16 11  1  0
 12 17  1  0
 13 18  1  0
 16 14  1  0
 15 16  1  0
M  END
$$$$
