
     RDKit          3D

 18 19  0  0  0  0  0  0  0  0999 V2000
  -18.1269   -3.0155  -29.4461 C   0  0  0  0  0  0  0  0  0  0  0  0
  -15.2891   -1.5681  -27.3099 C   0  0  0  0  0  0  0  0  0  0  0  0
  -18.8420   -1.1099  -25.2255 C   0  0  0  0  0  0  0  0  0  0  0  0
  -19.0858   -3.4994  -25.2353 C   0  0  0  0  0  0  0  0  0  0  0  0
  -15.1251   -5.9233  -26.7516 C   0  0  0  0  0  0  0  0  0  0  0  0
  -14.8632   -5.6749  -29.0881 C   0  0  0  0  0  0  0  0  0  0  0  0
  -17.8535   -1.2434  -26.1770 C   0  0  0  0  0  0  0  0  0  0  0  0
  -18.0935   -3.5940  -26.1865 C   0  0  0  0  0  0  0  0  0  0  0  0
  -15.6686   -4.6685  -26.6585 C   0  0  0  0  0  0  0  0  0  0  0  0
  -15.4132   -4.3942  -29.0237 C   0  0  0  0  0  0  0  0  0  0  0  0
  -16.9823   -2.1221  -29.0132 C   0  0  0  0  0  0  0  0  0  0  0  0
  -19.4488   -2.2542  -24.7652 C   0  0  0  0  0  0  0  0  0  0  0  0
  -14.7065   -6.4640  -27.9671 C   0  0  0  0  0  0  0  0  0  0  0  0
  -17.4662   -2.4694  -26.6682 C   0  0  0  0  0  0  0  0  0  0  0  0
  -15.8160   -3.8924  -27.8042 C   0  0  0  0  0  0  0  0  0  0  0  0
  -16.3978   -2.5541  -27.6911 C   0  0  2  0  0  0  0  0  0  0  0  0
  -20.4553   -2.1410  -23.7986 O   0  0  0  0  0  0  0  0  0  0  0  0
  -14.1574   -7.7422  -28.0325 O   0  0  0  0  0  0  0  0  0  0  0  0
 11  1  1  0
 16  2  1  1
  7  3  2  0
  3 12  1  0
  8  4  1  0
  4 12  2  0
  9  5  2  0
  5 13  1  0
 10  6  1  0
  6 13  2  0
 14  7  1  0
 14  8  2  0
 15  9  1  0
 15 10  2  0
 16 11  1  0
 12 17  1  0
 13 18  1  0
 16 14  1  0
 15 16  1  0
M  END
$$$$
