
     RDKit          3D

 18 19  0  0  0  0  0  0  0  0999 V2000
  -17.4051   -1.5034  -29.6120 C   0  0  0  0  0  0  0  0  0  0  0  0
  -17.9854   -2.1577  -26.9735 C   0  0  0  0  0  0  0  0  0  0  0  0
  -14.8103   -5.8188  -26.9041 C   0  0  0  0  0  0  0  0  0  0  0  0
  -16.7706   -5.7639  -25.5173 C   0  0  0  0  0  0  0  0  0  0  0  0
  -14.8823    0.0576  -25.4818 C   0  0  0  0  0  0  0  0  0  0  0  0
  -13.6851   -0.2100  -27.5028 C   0  0  0  0  0  0  0  0  0  0  0  0
  -15.1542   -4.5703  -27.3767 C   0  0  0  0  0  0  0  0  0  0  0  0
  -17.0825   -4.5165  -26.0123 C   0  0  0  0  0  0  0  0  0  0  0  0
  -15.7811   -0.9045  -25.8631 C   0  0  0  0  0  0  0  0  0  0  0  0
  -14.5846   -1.1929  -27.9172 C   0  0  0  0  0  0  0  0  0  0  0  0
  -16.6671   -2.6722  -28.9916 C   0  0  0  0  0  0  0  0  0  0  0  0
  -15.6345   -6.4015  -25.9710 C   0  0  0  0  0  0  0  0  0  0  0  0
  -13.8087    0.4336  -26.2886 C   0  0  0  0  0  0  0  0  0  0  0  0
  -16.2798   -3.9054  -26.9463 C   0  0  0  0  0  0  0  0  0  0  0  0
  -15.6344   -1.5389  -27.0930 C   0  0  0  0  0  0  0  0  0  0  0  0
  -16.6010   -2.5644  -27.4882 C   0  0  2  0  0  0  0  0  0  0  0  0
  -15.3036   -7.6695  -25.4780 O   0  0  0  0  0  0  0  0  0  0  0  0
  -12.9104    1.4145  -25.8759 O   0  0  0  0  0  0  0  0  0  0  0  0
 11  1  1  0
 16  2  1  1
  7  3  2  0
  3 12  1  0
  8  4  1  0
  4 12  2  0
  9  5  2  0
  5 13  1  0
 10  6  1  0
  6 13  2  0
 14  7  1  0
 14  8  2  0
 15  9  1  0
 15 10  2  0
 16 11  1  0
 12 17  1  0
 13 18  1  0
 16 14  1  0
 15 16  1  0
M  END
$$$$
