
     RDKit          3D

 18 19  0  0  0  0  0  0  0  0999 V2000
  -15.2969   -2.7354  -29.3380 C   0  0  0  0  0  0  0  0  0  0  0  0
  -15.9846   -1.6366  -25.7308 C   0  0  0  0  0  0  0  0  0  0  0  0
  -18.9505   -1.9322  -29.5454 C   0  0  0  0  0  0  0  0  0  0  0  0
  -19.5394   -0.7607  -27.5330 C   0  0  0  0  0  0  0  0  0  0  0  0
  -17.2534   -5.7129  -25.6164 C   0  0  0  0  0  0  0  0  0  0  0  0
  -15.2501   -6.0477  -26.8262 C   0  0  0  0  0  0  0  0  0  0  0  0
  -17.7849   -2.3327  -28.9279 C   0  0  0  0  0  0  0  0  0  0  0  0
  -18.3644   -1.1801  -26.9482 C   0  0  0  0  0  0  0  0  0  0  0  0
  -17.2401   -4.3773  -25.9240 C   0  0  0  0  0  0  0  0  0  0  0  0
  -15.2104   -4.6923  -27.1551 C   0  0  0  0  0  0  0  0  0  0  0  0
  -15.0826   -2.1076  -27.9758 C   0  0  0  0  0  0  0  0  0  0  0  0
  -19.8186   -1.1433  -28.8287 C   0  0  0  0  0  0  0  0  0  0  0  0
  -16.2606   -6.5875  -26.0573 C   0  0  0  0  0  0  0  0  0  0  0  0
  -17.4744   -1.9697  -27.6371 C   0  0  0  0  0  0  0  0  0  0  0  0
  -16.2095   -3.8574  -26.7013 C   0  0  0  0  0  0  0  0  0  0  0  0
  -16.2070   -2.4294  -27.0226 C   0  0  2  0  0  0  0  0  0  0  0  0
  -21.0082   -0.7255  -29.4372 O   0  0  0  0  0  0  0  0  0  0  0  0
  -16.2992   -7.9405  -25.7296 O   0  0  0  0  0  0  0  0  0  0  0  0
 11  1  1  0
 16  2  1  1
  7  3  2  0
  3 12  1  0
  8  4  1  0
  4 12  2  0
  9  5  2  0
  5 13  1  0
 10  6  1  0
  6 13  2  0
 14  7  1  0
 14  8  2  0
 15  9  1  0
 15 10  2  0
 16 11  1  0
 12 17  1  0
 13 18  1  0
 16 14  1  0
 15 16  1  0
M  END
$$$$
