
     RDKit          3D

 18 19  0  0  0  0  0  0  0  0999 V2000
  -19.0319   -2.6584  -27.4098 C   0  0  0  0  0  0  0  0  0  0  0  0
  -15.4613   -2.3515  -28.7760 C   0  0  0  0  0  0  0  0  0  0  0  0
  -15.1919    0.2656  -25.6970 C   0  0  0  0  0  0  0  0  0  0  0  0
  -17.3791   -0.2884  -24.8733 C   0  0  0  0  0  0  0  0  0  0  0  0
  -17.1969   -5.7411  -25.8372 C   0  0  0  0  0  0  0  0  0  0  0  0
  -15.0794   -5.9405  -26.8695 C   0  0  0  0  0  0  0  0  0  0  0  0
  -15.3263   -0.7435  -26.6266 C   0  0  0  0  0  0  0  0  0  0  0  0
  -17.4779   -1.2883  -25.8161 C   0  0  0  0  0  0  0  0  0  0  0  0
  -17.3588   -4.4865  -26.3649 C   0  0  0  0  0  0  0  0  0  0  0  0
  -15.2166   -4.6659  -27.4201 C   0  0  0  0  0  0  0  0  0  0  0  0
  -17.8924   -2.4904  -28.3941 C   0  0  0  0  0  0  0  0  0  0  0  0
  -16.2333    0.4785  -24.8255 C   0  0  0  0  0  0  0  0  0  0  0  0
  -16.0543   -6.5052  -26.0729 C   0  0  0  0  0  0  0  0  0  0  0  0
  -16.4548   -1.5278  -26.7027 C   0  0  0  0  0  0  0  0  0  0  0  0
  -16.3605   -3.9394  -27.1653 C   0  0  0  0  0  0  0  0  0  0  0  0
  -16.5457   -2.5986  -27.7226 C   0  0  2  0  0  0  0  0  0  0  0  0
  -16.1173    1.4984  -23.8733 O   0  0  0  0  0  0  0  0  0  0  0  0
  -15.9164   -7.7776  -25.5239 O   0  0  0  0  0  0  0  0  0  0  0  0
 11  1  1  0
 16  2  1  6
  7  3  2  0
  3 12  1  0
  8  4  1  0
  4 12  2  0
  9  5  2  0
  5 13  1  0
 10  6  1  0
  6 13  2  0
 14  7  1  0
 14  8  2  0
 15  9  1  0
 15 10  2  0
 16 11  1  0
 12 17  1  0
 13 18  1  0
 16 14  1  0
 15 16  1  0
M  END
$$$$
