
     RDKit          3D

 18 19  0  0  0  0  0  0  0  0999 V2000
  -16.4222   -1.7098  -25.5405 C   0  0  0  0  0  0  0  0  0  0  0  0
  -19.1427   -3.2863  -27.7369 C   0  0  0  0  0  0  0  0  0  0  0  0
  -14.8555   -2.0462  -29.4624 C   0  0  0  0  0  0  0  0  0  0  0  0
  -16.8283   -0.8886  -30.1953 C   0  0  0  0  0  0  0  0  0  0  0  0
  -15.6308   -6.1087  -27.2321 C   0  0  0  0  0  0  0  0  0  0  0  0
  -16.9257   -6.1104  -25.2540 C   0  0  0  0  0  0  0  0  0  0  0  0
  -15.6121   -2.6315  -28.4697 C   0  0  0  0  0  0  0  0  0  0  0  0
  -17.5526   -1.4926  -29.1909 C   0  0  0  0  0  0  0  0  0  0  0  0
  -16.1858   -4.9165  -27.6186 C   0  0  0  0  0  0  0  0  0  0  0  0
  -17.5076   -4.8968  -25.6219 C   0  0  0  0  0  0  0  0  0  0  0  0
  -17.7957   -2.0709  -26.0684 C   0  0  0  0  0  0  0  0  0  0  0  0
  -15.4842   -1.1740  -30.3188 C   0  0  0  0  0  0  0  0  0  0  0  0
  -15.9832   -6.7410  -26.0401 C   0  0  0  0  0  0  0  0  0  0  0  0
  -16.9547   -2.3698  -28.3173 C   0  0  0  0  0  0  0  0  0  0  0  0
  -17.1346   -4.3007  -26.8080 C   0  0  0  0  0  0  0  0  0  0  0  0
  -17.7196   -3.0279  -27.2324 C   0  0  2  0  0  0  0  0  0  0  0  0
  -14.7341   -0.5684  -31.3341 O   0  0  0  0  0  0  0  0  0  0  0  0
  -15.4030   -7.9524  -25.6719 O   0  0  0  0  0  0  0  0  0  0  0  0
 11  1  1  0
 16  2  1  6
  7  3  2  0
  3 12  1  0
  8  4  1  0
  4 12  2  0
  9  5  2  0
  5 13  1  0
 10  6  1  0
  6 13  2  0
 14  7  1  0
 14  8  2  0
 15  9  1  0
 15 10  2  0
 16 11  1  0
 12 17  1  0
 13 18  1  0
 16 14  1  0
 15 16  1  0
M  END
$$$$
