
     RDKit          3D

 18 19  0  0  0  0  0  0  0  0999 V2000
  -18.6822   -3.3782  -29.2588 C   0  0  0  0  0  0  0  0  0  0  0  0
  -15.2082   -2.1770  -28.2059 C   0  0  0  0  0  0  0  0  0  0  0  0
  -18.9720    0.1037  -26.8826 C   0  0  0  0  0  0  0  0  0  0  0  0
  -17.6560   -0.5914  -24.9974 C   0  0  0  0  0  0  0  0  0  0  0  0
  -15.5533   -6.1105  -27.2051 C   0  0  0  0  0  0  0  0  0  0  0  0
  -17.5623   -5.7031  -26.0272 C   0  0  0  0  0  0  0  0  0  0  0  0
  -18.3087   -0.8340  -27.6450 C   0  0  0  0  0  0  0  0  0  0  0  0
  -17.0143   -1.5176  -25.7903 C   0  0  0  0  0  0  0  0  0  0  0  0
  -15.5856   -4.8481  -27.7378 C   0  0  0  0  0  0  0  0  0  0  0  0
  -17.6213   -4.4126  -26.5542 C   0  0  0  0  0  0  0  0  0  0  0  0
  -17.3532   -2.6534  -29.3229 C   0  0  0  0  0  0  0  0  0  0  0  0
  -18.6301    0.2103  -25.5555 C   0  0  0  0  0  0  0  0  0  0  0  0
  -16.5389   -6.5759  -26.3351 C   0  0  0  0  0  0  0  0  0  0  0  0
  -17.3320   -1.6501  -27.1213 C   0  0  0  0  0  0  0  0  0  0  0  0
  -16.6288   -3.9868  -27.4115 C   0  0  0  0  0  0  0  0  0  0  0  0
  -16.6516   -2.6413  -27.9873 C   0  0  2  0  0  0  0  0  0  0  0  0
  -19.2915    1.1565  -24.7633 O   0  0  0  0  0  0  0  0  0  0  0  0
  -16.4809   -7.8639  -25.8085 O   0  0  0  0  0  0  0  0  0  0  0  0
 11  1  1  0
 16  2  1  6
  7  3  2  0
  3 12  1  0
  8  4  1  0
  4 12  2  0
  9  5  2  0
  5 13  1  0
 10  6  1  0
  6 13  2  0
 14  7  1  0
 14  8  2  0
 15  9  1  0
 15 10  2  0
 16 11  1  0
 12 17  1  0
 13 18  1  0
 16 14  1  0
 15 16  1  0
M  END
$$$$
