
     RDKit          3D

 18 19  0  0  0  0  0  0  0  0999 V2000
  -18.0182   -2.2990  -25.8882 C   0  0  0  0  0  0  0  0  0  0  0  0
  -14.4811   -2.3776  -27.3690 C   0  0  0  0  0  0  0  0  0  0  0  0
  -17.0587   -6.0164  -25.5627 C   0  0  0  0  0  0  0  0  0  0  0  0
  -14.9348   -6.3963  -26.6182 C   0  0  0  0  0  0  0  0  0  0  0  0
  -17.8647   -3.5268  -30.2912 C   0  0  0  0  0  0  0  0  0  0  0  0
  -17.4744   -1.1970  -30.1978 C   0  0  0  0  0  0  0  0  0  0  0  0
  -17.0028   -4.7112  -26.0030 C   0  0  0  0  0  0  0  0  0  0  0  0
  -14.9135   -5.0853  -27.0412 C   0  0  0  0  0  0  0  0  0  0  0  0
  -17.1955   -3.7070  -29.1086 C   0  0  0  0  0  0  0  0  0  0  0  0
  -16.7881   -1.3501  -28.9927 C   0  0  0  0  0  0  0  0  0  0  0  0
  -16.5522   -1.9766  -26.0942 C   0  0  0  0  0  0  0  0  0  0  0  0
  -16.0108   -6.8469  -25.8817 C   0  0  0  0  0  0  0  0  0  0  0  0
  -18.0244   -2.2686  -30.8709 C   0  0  0  0  0  0  0  0  0  0  0  0
  -15.9452   -4.2281  -26.7395 C   0  0  0  0  0  0  0  0  0  0  0  0
  -16.6499   -2.6097  -28.4491 C   0  0  0  0  0  0  0  0  0  0  0  0
  -15.9377   -2.8158  -27.1872 C   0  0  2  0  0  0  0  0  0  0  0  0
  -16.0476   -8.1764  -25.4443 O   0  0  0  0  0  0  0  0  0  0  0  0
  -18.7092   -2.1146  -32.0738 O   0  0  0  0  0  0  0  0  0  0  0  0
 11  1  1  0
 16  2  1  6
  7  3  2  0
  3 12  1  0
  8  4  1  0
  4 12  2  0
  9  5  2  0
  5 13  1  0
 10  6  1  0
  6 13  2  0
 14  7  1  0
 14  8  2  0
 15  9  1  0
 15 10  2  0
 16 11  1  0
 12 17  1  0
 13 18  1  0
 16 14  1  0
 15 16  1  0
M  END
$$$$
