
     RDKit          3D

 18 19  0  0  0  0  0  0  0  0999 V2000
  -18.3370   -1.1261  -25.9039 C   0  0  0  0  0  0  0  0  0  0  0  0
  -15.6903   -2.1172  -25.8744 C   0  0  0  0  0  0  0  0  0  0  0  0
  -17.1555   -6.4335  -25.0312 C   0  0  0  0  0  0  0  0  0  0  0  0
  -15.1013   -6.3542  -26.2734 C   0  0  0  0  0  0  0  0  0  0  0  0
  -17.9649   -2.8758  -30.0292 C   0  0  0  0  0  0  0  0  0  0  0  0
  -15.7871   -1.9579  -29.9665 C   0  0  0  0  0  0  0  0  0  0  0  0
  -17.3745   -5.1178  -25.3795 C   0  0  0  0  0  0  0  0  0  0  0  0
  -15.3536   -5.0400  -26.6015 C   0  0  0  0  0  0  0  0  0  0  0  0
  -17.9310   -3.1010  -28.6776 C   0  0  0  0  0  0  0  0  0  0  0  0
  -15.7243   -2.1752  -28.5897 C   0  0  0  0  0  0  0  0  0  0  0  0
  -18.1027   -2.6229  -25.8860 C   0  0  0  0  0  0  0  0  0  0  0  0
  -16.0086   -7.0367  -25.4897 C   0  0  0  0  0  0  0  0  0  0  0  0
  -16.8959   -2.2984  -30.7138 C   0  0  0  0  0  0  0  0  0  0  0  0
  -16.4911   -4.4068  -26.1595 C   0  0  0  0  0  0  0  0  0  0  0  0
  -16.8007   -2.7485  -27.9464 C   0  0  0  0  0  0  0  0  0  0  0  0
  -16.7772   -2.9944  -26.5037 C   0  0  2  0  0  0  0  0  0  0  0  0
  -15.7668   -8.3726  -25.1474 O   0  0  0  0  0  0  0  0  0  0  0  0
  -16.9576   -2.0810  -32.0881 O   0  0  0  0  0  0  0  0  0  0  0  0
 11  1  1  0
 16  2  1  1
  7  3  2  0
  3 12  1  0
  8  4  1  0
  4 12  2  0
  9  5  2  0
  5 13  1  0
 10  6  1  0
  6 13  2  0
 14  7  1  0
 14  8  2  0
 15  9  1  0
 15 10  2  0
 16 11  1  0
 12 17  1  0
 13 18  1  0
 16 14  1  0
 15 16  1  0
M  END
$$$$
