
     RDKit          3D

 18 19  0  0  0  0  0  0  0  0999 V2000
  -18.5678   -1.7851  -25.5249 C   0  0  0  0  0  0  0  0  0  0  0  0
  -17.4882   -2.7033  -29.0565 C   0  0  0  0  0  0  0  0  0  0  0  0
  -14.9028   -0.4046  -25.7038 C   0  0  0  0  0  0  0  0  0  0  0  0
  -15.4690    0.6404  -27.7911 C   0  0  0  0  0  0  0  0  0  0  0  0
  -17.0983   -5.8668  -25.7284 C   0  0  0  0  0  0  0  0  0  0  0  0
  -15.0934   -5.5727  -26.9461 C   0  0  0  0  0  0  0  0  0  0  0  0
  -15.7392   -1.4473  -26.0408 C   0  0  0  0  0  0  0  0  0  0  0  0
  -16.2960   -0.4191  -28.0941 C   0  0  0  0  0  0  0  0  0  0  0  0
  -17.5782   -4.6686  -26.1895 C   0  0  0  0  0  0  0  0  0  0  0  0
  -15.5558   -4.3491  -27.4314 C   0  0  0  0  0  0  0  0  0  0  0  0
  -18.6794   -2.3440  -26.9288 C   0  0  0  0  0  0  0  0  0  0  0  0
  -14.7804    0.6343  -26.5956 C   0  0  0  0  0  0  0  0  0  0  0  0
  -15.8435   -6.3547  -26.0919 C   0  0  0  0  0  0  0  0  0  0  0  0
  -16.4411   -1.4740  -27.2244 C   0  0  0  0  0  0  0  0  0  0  0  0
  -16.8020   -3.8985  -27.0503 C   0  0  0  0  0  0  0  0  0  0  0  0
  -17.3261   -2.6209  -27.5355 C   0  0  2  0  0  0  0  0  0  0  0  0
  -13.9361    1.7034  -26.2728 O   0  0  0  0  0  0  0  0  0  0  0  0
  -15.3809   -7.5760  -25.6080 O   0  0  0  0  0  0  0  0  0  0  0  0
 11  1  1  0
 16  2  1  6
  7  3  2  0
  3 12  1  0
  8  4  1  0
  4 12  2  0
  9  5  2  0
  5 13  1  0
 10  6  1  0
  6 13  2  0
 14  7  1  0
 14  8  2  0
 15  9  1  0
 15 10  2  0
 16 11  1  0
 12 17  1  0
 13 18  1  0
 16 14  1  0
 15 16  1  0
M  END
$$$$
