
     RDKit          3D

 19 21  0  0  0  0  0  0  0  0999 V2000
   -7.7336    6.2523  -23.3714 N   0  0  0  0  0  0  0  0  0  0  0  0
   -7.0729    7.3998  -23.6339 C   0  0  0  0  0  0  0  0  0  0  0  0
   -5.7617    7.5193  -23.2450 C   0  0  0  0  0  0  0  0  0  0  0  0
   -5.0912    6.4951  -22.5882 C   0  0  0  0  0  0  0  0  0  0  0  0
   -3.7155    6.6791  -22.2014 C   0  0  0  0  0  0  0  0  0  0  0  0
   -3.1709    7.2830  -21.0750 C   0  0  0  0  0  0  0  0  0  0  0  0
   -1.4974    6.5555  -22.3345 C   0  0  0  0  0  0  0  0  0  0  0  0
   -3.9218    7.8931  -19.9991 C   0  0  0  0  0  0  0  0  0  0  0  0
   -4.2392    7.3526  -18.7789 C   0  0  0  0  0  0  0  0  0  0  0  0
   -5.8179    5.3472  -22.3477 C   0  0  0  0  0  0  0  0  0  0  0  0
   -7.1408    5.2282  -22.7407 C   0  0  0  0  0  0  0  0  0  0  0  0
   -1.8223    7.1880  -21.1924 N   0  0  0  0  0  0  0  0  0  0  0  0
   -2.6621    6.2527  -22.9359 N   0  0  0  0  0  0  0  0  0  0  0  0
   -2.7579    5.5546  -24.2061 C   0  0  0  0  0  0  0  0  0  0  0  0
   -4.4404    9.1589  -20.0472 C   0  0  0  0  0  0  0  0  0  0  0  0
   -5.0486    9.3622  -18.8865 O   0  0  0  0  0  0  0  0  0  0  0  0
   -4.9399    8.3113  -18.1297 N   0  0  0  0  0  0  0  0  0  0  0  0
   -4.3799   10.1827  -21.1491 C   0  0  0  0  0  0  0  0  0  0  0  0
   -3.8919    5.9855  -18.2561 C   0  0  0  0  0  0  0  0  0  0  0  0
  1  2  2  0
  1 11  1  0
  2  3  1  0
  3  4  2  0
  4  5  1  0
  4 10  1  0
  5  6  2  0
  5 13  1  0
  6  8  1  0
  6 12  1  0
 12  7  2  0
  7 13  1  0
  8  9  1  0
  8 15  2  0
  9 17  2  0
  9 19  1  0
 10 11  2  0
 13 14  1  0
 15 16  1  0
 15 18  1  0
 16 17  1  0
M  END
$$$$
