
     RDKit          3D

 19 21  0  0  0  0  0  0  0  0999 V2000
    5.5220    2.4369  -10.2846 N   0  0  0  0  0  0  0  0  0  0  0  0
    4.2903    2.7843  -10.7140 C   0  0  0  0  0  0  0  0  0  0  0  0
    4.1217    3.9852  -11.3577 C   0  0  0  0  0  0  0  0  0  0  0  0
    5.1802    4.8566  -11.5818 C   0  0  0  0  0  0  0  0  0  0  0  0
    4.9420    6.1051  -12.2604 C   0  0  0  0  0  0  0  0  0  0  0  0
    4.5098    7.3294  -11.7662 C   0  0  0  0  0  0  0  0  0  0  0  0
    4.8281    7.5500  -13.9494 C   0  0  0  0  0  0  0  0  0  0  0  0
    4.1846    7.6139  -10.3852 C   0  0  0  0  0  0  0  0  0  0  0  0
    2.9415    7.7567   -9.8229 C   0  0  0  0  0  0  0  0  0  0  0  0
    6.4144    4.4473  -11.1206 C   0  0  0  0  0  0  0  0  0  0  0  0
    6.5829    3.2355  -10.4712 C   0  0  0  0  0  0  0  0  0  0  0  0
    4.4531    8.1806  -12.8216 N   0  0  0  0  0  0  0  0  0  0  0  0
    5.1225    6.2877  -13.5890 N   0  0  0  0  0  0  0  0  0  0  0  0
    5.5777    5.2677  -14.5177 C   0  0  0  0  0  0  0  0  0  0  0  0
    5.1162    7.7820   -9.3967 C   0  0  0  0  0  0  0  0  0  0  0  0
    4.4427    8.0182   -8.2791 O   0  0  0  0  0  0  0  0  0  0  0  0
    3.1642    8.0067   -8.5116 N   0  0  0  0  0  0  0  0  0  0  0  0
    6.6187    7.7255   -9.4704 C   0  0  0  0  0  0  0  0  0  0  0  0
    1.6036    7.6605  -10.5037 C   0  0  0  0  0  0  0  0  0  0  0  0
  1  2  2  0
  1 11  1  0
  2  3  1  0
  3  4  2  0
  4  5  1  0
  4 10  1  0
  5  6  2  0
  5 13  1  0
  6  8  1  0
  6 12  1  0
 12  7  2  0
  7 13  1  0
  8  9  1  0
  8 15  2  0
  9 17  2  0
  9 19  1  0
 10 11  2  0
 13 14  1  0
 15 16  1  0
 15 18  1  0
 16 17  1  0
M  END
$$$$
