
     RDKit          3D

 19 21  0  0  0  0  0  0  0  0999 V2000
   -1.8201    6.1567  -17.9504 N   0  0  0  0  0  0  0  0  0  0  0  0
   -2.1968    5.4888  -19.0614 C   0  0  0  0  0  0  0  0  0  0  0  0
   -2.5372    6.2003  -20.1851 C   0  0  0  0  0  0  0  0  0  0  0  0
   -2.5066    7.5889  -20.2159 C   0  0  0  0  0  0  0  0  0  0  0  0
   -2.8778    8.2817  -21.4234 C   0  0  0  0  0  0  0  0  0  0  0  0
   -4.1308    8.5264  -21.9712 C   0  0  0  0  0  0  0  0  0  0  0  0
   -2.6129    9.4278  -23.3128 C   0  0  0  0  0  0  0  0  0  0  0  0
   -5.3945    8.1025  -21.4083 C   0  0  0  0  0  0  0  0  0  0  0  0
   -6.0052    8.5570  -20.2670 C   0  0  0  0  0  0  0  0  0  0  0  0
   -2.1139    8.2156  -19.0512 C   0  0  0  0  0  0  0  0  0  0  0  0
   -1.7709    7.4963  -17.9183 C   0  0  0  0  0  0  0  0  0  0  0  0
   -3.9283    9.2243  -23.1174 N   0  0  0  0  0  0  0  0  0  0  0  0
   -1.9885    8.8476  -22.2719 N   0  0  0  0  0  0  0  0  0  0  0  0
   -0.5466    8.8427  -22.0954 C   0  0  0  0  0  0  0  0  0  0  0  0
   -6.2006    7.1469  -21.9656 C   0  0  0  0  0  0  0  0  0  0  0  0
   -7.2600    7.0386  -21.1754 O   0  0  0  0  0  0  0  0  0  0  0  0
   -7.1613    7.8599  -20.1731 N   0  0  0  0  0  0  0  0  0  0  0  0
   -6.0063    6.3349  -23.2182 C   0  0  0  0  0  0  0  0  0  0  0  0
   -5.5094    9.6063  -19.3099 C   0  0  0  0  0  0  0  0  0  0  0  0
  1  2  2  0
  1 11  1  0
  2  3  1  0
  3  4  2  0
  4  5  1  0
  4 10  1  0
  5  6  2  0
  5 13  1  0
  6  8  1  0
  6 12  1  0
 12  7  2  0
  7 13  1  0
  8  9  1  0
  8 15  2  0
  9 17  2  0
  9 19  1  0
 10 11  2  0
 13 14  1  0
 15 16  1  0
 15 18  1  0
 16 17  1  0
M  END
$$$$
