
     RDKit          3D

 19 21  0  0  0  0  0  0  0  0999 V2000
   -7.4997    4.6438  -21.9907 N   0  0  0  0  0  0  0  0  0  0  0  0
   -6.4595    4.1749  -21.2695 C   0  0  0  0  0  0  0  0  0  0  0  0
   -5.2597    4.8404  -21.3177 C   0  0  0  0  0  0  0  0  0  0  0  0
   -5.0811    5.9836  -22.0867 C   0  0  0  0  0  0  0  0  0  0  0  0
   -3.7975    6.6381  -22.1003 C   0  0  0  0  0  0  0  0  0  0  0  0
   -3.2907    7.6414  -21.2840 C   0  0  0  0  0  0  0  0  0  0  0  0
   -1.7245    7.1077  -22.7600 C   0  0  0  0  0  0  0  0  0  0  0  0
   -3.9958    8.2762  -20.1915 C   0  0  0  0  0  0  0  0  0  0  0  0
   -4.9030    9.3032  -20.2556 C   0  0  0  0  0  0  0  0  0  0  0  0
   -6.1795    6.4148  -22.8015 C   0  0  0  0  0  0  0  0  0  0  0  0
   -7.3893    5.7421  -22.7519 C   0  0  0  0  0  0  0  0  0  0  0  0
   -2.0302    7.8992  -21.7158 N   0  0  0  0  0  0  0  0  0  0  0  0
   -2.8117    6.3465  -22.9801 N   0  0  0  0  0  0  0  0  0  0  0  0
   -2.8970    5.3437  -24.0275 C   0  0  0  0  0  0  0  0  0  0  0  0
   -3.8549    7.9196  -18.8775 C   0  0  0  0  0  0  0  0  0  0  0  0
   -4.6573    8.7144  -18.1824 O   0  0  0  0  0  0  0  0  0  0  0  0
   -5.2804    9.5329  -18.9765 N   0  0  0  0  0  0  0  0  0  0  0  0
   -2.9915    6.8544  -18.2564 C   0  0  0  0  0  0  0  0  0  0  0  0
   -5.3870   10.0324  -21.4790 C   0  0  0  0  0  0  0  0  0  0  0  0
  1  2  2  0
  1 11  1  0
  2  3  1  0
  3  4  2  0
  4  5  1  0
  4 10  1  0
  5  6  2  0
  5 13  1  0
  6  8  1  0
  6 12  1  0
 12  7  2  0
  7 13  1  0
  8  9  1  0
  8 15  2  0
  9 17  2  0
  9 19  1  0
 10 11  2  0
 13 14  1  0
 15 16  1  0
 15 18  1  0
 16 17  1  0
M  END
$$$$
