
     RDKit          3D

 19 21  0  0  0  0  0  0  0  0999 V2000
   -3.0796   11.0468  -22.7253 N   0  0  0  0  0  0  0  0  0  0  0  0
   -2.1296   10.0954  -22.8456 C   0  0  0  0  0  0  0  0  0  0  0  0
   -2.4476    8.7931  -22.5496 C   0  0  0  0  0  0  0  0  0  0  0  0
   -3.7186    8.4217  -22.1291 C   0  0  0  0  0  0  0  0  0  0  0  0
   -3.9929    7.0394  -21.8297 C   0  0  0  0  0  0  0  0  0  0  0  0
   -4.2306    6.4125  -20.6129 C   0  0  0  0  0  0  0  0  0  0  0  0
   -4.3411    4.8735  -22.2051 C   0  0  0  0  0  0  0  0  0  0  0  0
   -4.2447    7.0605  -19.3192 C   0  0  0  0  0  0  0  0  0  0  0  0
   -3.1852    7.2901  -18.4785 C   0  0  0  0  0  0  0  0  0  0  0  0
   -4.6468    9.4372  -22.0252 C   0  0  0  0  0  0  0  0  0  0  0  0
   -4.3243   10.7507  -22.3241 C   0  0  0  0  0  0  0  0  0  0  0  0
   -4.4374    5.0986  -20.8822 N   0  0  0  0  0  0  0  0  0  0  0  0
   -4.0705    6.0659  -22.7663 N   0  0  0  0  0  0  0  0  0  0  0  0
   -3.8922    6.2649  -24.1941 C   0  0  0  0  0  0  0  0  0  0  0  0
   -5.3703    7.5658  -18.7265 C   0  0  0  0  0  0  0  0  0  0  0  0
   -4.9874    8.0807  -17.5660 O   0  0  0  0  0  0  0  0  0  0  0  0
   -3.7070    7.9274  -17.4046 N   0  0  0  0  0  0  0  0  0  0  0  0
   -6.7929    7.5811  -19.2184 C   0  0  0  0  0  0  0  0  0  0  0  0
   -1.7428    6.9185  -18.6883 C   0  0  0  0  0  0  0  0  0  0  0  0
  1  2  2  0
  1 11  1  0
  2  3  1  0
  3  4  2  0
  4  5  1  0
  4 10  1  0
  5  6  2  0
  5 13  1  0
  6  8  1  0
  6 12  1  0
 12  7  2  0
  7 13  1  0
  8  9  1  0
  8 15  2  0
  9 17  2  0
  9 19  1  0
 10 11  2  0
 13 14  1  0
 15 16  1  0
 15 18  1  0
 16 17  1  0
M  END
$$$$
