
     RDKit          3D

 19 21  0  0  0  0  0  0  0  0999 V2000
   -2.1069    6.5269  -17.1705 N   0  0  0  0  0  0  0  0  0  0  0  0
   -1.2665    7.1289  -18.0384 C   0  0  0  0  0  0  0  0  0  0  0  0
   -1.6178    7.2065  -19.3633 C   0  0  0  0  0  0  0  0  0  0  0  0
   -2.8132    6.6839  -19.8409 C   0  0  0  0  0  0  0  0  0  0  0  0
   -3.1269    6.7923  -21.2429 C   0  0  0  0  0  0  0  0  0  0  0  0
   -3.9581    7.6814  -21.9126 C   0  0  0  0  0  0  0  0  0  0  0  0
   -3.0755    6.3103  -23.4151 C   0  0  0  0  0  0  0  0  0  0  0  0
   -4.7302    8.7398  -21.2983 C   0  0  0  0  0  0  0  0  0  0  0  0
   -4.3853   10.0593  -21.1498 C   0  0  0  0  0  0  0  0  0  0  0  0
   -3.6306    6.0809  -18.9072 C   0  0  0  0  0  0  0  0  0  0  0  0
   -3.2746    6.0034  -17.5709 C   0  0  0  0  0  0  0  0  0  0  0  0
   -3.9004    7.3567  -23.2290 N   0  0  0  0  0  0  0  0  0  0  0  0
   -2.6133    5.9800  -22.1956 N   0  0  0  0  0  0  0  0  0  0  0  0
   -1.6814    4.8927  -21.9520 C   0  0  0  0  0  0  0  0  0  0  0  0
   -5.9761    8.5665  -20.7587 C   0  0  0  0  0  0  0  0  0  0  0  0
   -6.3585    9.7516  -20.3030 O   0  0  0  0  0  0  0  0  0  0  0  0
   -5.4359   10.6397  -20.5247 N   0  0  0  0  0  0  0  0  0  0  0  0
   -6.8179    7.3224  -20.6605 C   0  0  0  0  0  0  0  0  0  0  0  0
   -3.1132   10.7354  -21.5826 C   0  0  0  0  0  0  0  0  0  0  0  0
  1  2  2  0
  1 11  1  0
  2  3  1  0
  3  4  2  0
  4  5  1  0
  4 10  1  0
  5  6  2  0
  5 13  1  0
  6  8  1  0
  6 12  1  0
 12  7  2  0
  7 13  1  0
  8  9  1  0
  8 15  2  0
  9 17  2  0
  9 19  1  0
 10 11  2  0
 13 14  1  0
 15 16  1  0
 15 18  1  0
 16 17  1  0
M  END
$$$$
