
     RDKit          3D

 19 21  0  0  0  0  0  0  0  0999 V2000
   -4.3207    7.8105  -17.6401 N   0  0  0  0  0  0  0  0  0  0  0  0
   -3.8800    8.8216  -18.4183 C   0  0  0  0  0  0  0  0  0  0  0  0
   -3.5052    8.5542  -19.7117 C   0  0  0  0  0  0  0  0  0  0  0  0
   -3.5648    7.2735  -20.2468 C   0  0  0  0  0  0  0  0  0  0  0  0
   -3.1552    7.0527  -21.6104 C   0  0  0  0  0  0  0  0  0  0  0  0
   -3.9050    7.0089  -22.7791 C   0  0  0  0  0  0  0  0  0  0  0  0
   -1.7814    6.6692  -23.3189 C   0  0  0  0  0  0  0  0  0  0  0  0
   -5.3391    7.1799  -22.8677 C   0  0  0  0  0  0  0  0  0  0  0  0
   -6.0435    8.3505  -22.9928 C   0  0  0  0  0  0  0  0  0  0  0  0
   -4.0231    6.2818  -19.4041 C   0  0  0  0  0  0  0  0  0  0  0  0
   -4.4007    6.5532  -18.0994 C   0  0  0  0  0  0  0  0  0  0  0  0
   -3.0357    6.7740  -23.7943 N   0  0  0  0  0  0  0  0  0  0  0  0
   -1.8730    6.8418  -21.9878 N   0  0  0  0  0  0  0  0  0  0  0  0
   -0.7328    6.8074  -21.0885 C   0  0  0  0  0  0  0  0  0  0  0  0
   -6.2376    6.1477  -22.8446 C   0  0  0  0  0  0  0  0  0  0  0  0
   -7.4417    6.6925  -22.9531 O   0  0  0  0  0  0  0  0  0  0  0  0
   -7.3458    7.9856  -23.0413 N   0  0  0  0  0  0  0  0  0  0  0  0
   -5.9988    4.6662  -22.7258 C   0  0  0  0  0  0  0  0  0  0  0  0
   -5.5008    9.7517  -23.0620 C   0  0  0  0  0  0  0  0  0  0  0  0
  1  2  2  0
  1 11  1  0
  2  3  1  0
  3  4  2  0
  4  5  1  0
  4 10  1  0
  5  6  2  0
  5 13  1  0
  6  8  1  0
  6 12  1  0
 12  7  2  0
  7 13  1  0
  8  9  1  0
  8 15  2  0
  9 17  2  0
  9 19  1  0
 10 11  2  0
 13 14  1  0
 15 16  1  0
 15 18  1  0
 16 17  1  0
M  END
$$$$
