
     RDKit          3D

 19 21  0  0  0  0  0  0  0  0999 V2000
   -1.8526    7.6388  -17.4029 N   0  0  0  0  0  0  0  0  0  0  0  0
   -1.9930    8.8379  -18.0067 C   0  0  0  0  0  0  0  0  0  0  0  0
   -2.8230    8.9443  -19.0952 C   0  0  0  0  0  0  0  0  0  0  0  0
   -3.5247    7.8550  -19.5965 C   0  0  0  0  0  0  0  0  0  0  0  0
   -4.3789    8.0265  -20.7440 C   0  0  0  0  0  0  0  0  0  0  0  0
   -4.0675    8.3655  -22.0548 C   0  0  0  0  0  0  0  0  0  0  0  0
   -6.2632    8.0849  -21.9270 C   0  0  0  0  0  0  0  0  0  0  0  0
   -2.7403    8.6387  -22.5624 C   0  0  0  0  0  0  0  0  0  0  0  0
   -2.2462    9.8271  -23.0374 C   0  0  0  0  0  0  0  0  0  0  0  0
   -3.3410    6.6566  -18.9381 C   0  0  0  0  0  0  0  0  0  0  0  0
   -2.5032    6.5509  -17.8402 C   0  0  0  0  0  0  0  0  0  0  0  0
   -5.2374    8.3909  -22.7420 N   0  0  0  0  0  0  0  0  0  0  0  0
   -5.7222    7.8657  -20.7149 N   0  0  0  0  0  0  0  0  0  0  0  0
   -6.4941    7.5006  -19.5398 C   0  0  0  0  0  0  0  0  0  0  0  0
   -1.7408    7.7065  -22.6376 C   0  0  0  0  0  0  0  0  0  0  0  0
   -0.6834    8.3264  -23.1436 O   0  0  0  0  0  0  0  0  0  0  0  0
   -0.9630    9.5726  -23.3840 N   0  0  0  0  0  0  0  0  0  0  0  0
   -1.7491    6.2528  -22.2467 C   0  0  0  0  0  0  0  0  0  0  0  0
   -2.9639   11.1437  -23.1564 C   0  0  0  0  0  0  0  0  0  0  0  0
  1  2  2  0
  1 11  1  0
  2  3  1  0
  3  4  2  0
  4  5  1  0
  4 10  1  0
  5  6  2  0
  5 13  1  0
  6  8  1  0
  6 12  1  0
 12  7  2  0
  7 13  1  0
  8  9  1  0
  8 15  2  0
  9 17  2  0
  9 19  1  0
 10 11  2  0
 13 14  1  0
 15 16  1  0
 15 18  1  0
 16 17  1  0
M  END
$$$$
