
     RDKit          3D

 19 21  0  0  0  0  0  0  0  0999 V2000
   -5.1906    7.1581  -25.6808 N   0  0  0  0  0  0  0  0  0  0  0  0
   -3.8442    7.1920  -25.5899 C   0  0  0  0  0  0  0  0  0  0  0  0
   -3.2513    6.9695  -24.3718 C   0  0  0  0  0  0  0  0  0  0  0  0
   -3.9941    6.7102  -23.2267 C   0  0  0  0  0  0  0  0  0  0  0  0
   -3.3165    6.4875  -21.9748 C   0  0  0  0  0  0  0  0  0  0  0  0
   -3.4483    7.1352  -20.7529 C   0  0  0  0  0  0  0  0  0  0  0  0
   -1.9162    5.5492  -20.5216 C   0  0  0  0  0  0  0  0  0  0  0  0
   -4.3435    8.2375  -20.4752 C   0  0  0  0  0  0  0  0  0  0  0  0
   -4.2960    9.5116  -20.9815 C   0  0  0  0  0  0  0  0  0  0  0  0
   -5.3649    6.6883  -23.3817 C   0  0  0  0  0  0  0  0  0  0  0  0
   -5.9615    6.9131  -24.6114 C   0  0  0  0  0  0  0  0  0  0  0  0
   -2.5819    6.5372  -19.8965 N   0  0  0  0  0  0  0  0  0  0  0  0
   -2.3762    5.5330  -21.7857 N   0  0  0  0  0  0  0  0  0  0  0  0
   -1.9155    4.6021  -22.8012 C   0  0  0  0  0  0  0  0  0  0  0  0
   -5.4193    8.1585  -19.6327 C   0  0  0  0  0  0  0  0  0  0  0  0
   -5.9934    9.3539  -19.6400 O   0  0  0  0  0  0  0  0  0  0  0  0
   -5.3464   10.1606  -20.4272 N   0  0  0  0  0  0  0  0  0  0  0  0
   -5.9247    6.9942  -18.8235 C   0  0  0  0  0  0  0  0  0  0  0  0
   -3.2957   10.0844  -21.9479 C   0  0  0  0  0  0  0  0  0  0  0  0
  1  2  2  0
  1 11  1  0
  2  3  1  0
  3  4  2  0
  4  5  1  0
  4 10  1  0
  5  6  2  0
  5 13  1  0
  6  8  1  0
  6 12  1  0
 12  7  2  0
  7 13  1  0
  8  9  1  0
  8 15  2  0
  9 17  2  0
  9 19  1  0
 10 11  2  0
 13 14  1  0
 15 16  1  0
 15 18  1  0
 16 17  1  0
M  END
$$$$
