
     RDKit          3D

 19 21  0  0  0  0  0  0  0  0999 V2000
   -3.6973    5.8284  -17.4534 N   0  0  0  0  0  0  0  0  0  0  0  0
   -2.6476    6.1377  -18.2437 C   0  0  0  0  0  0  0  0  0  0  0  0
   -2.8713    6.4340  -19.5654 C   0  0  0  0  0  0  0  0  0  0  0  0
   -4.1463    6.4256  -20.1173 C   0  0  0  0  0  0  0  0  0  0  0  0
   -4.3195    6.7421  -21.5122 C   0  0  0  0  0  0  0  0  0  0  0  0
   -4.1706    7.9476  -22.1863 C   0  0  0  0  0  0  0  0  0  0  0  0
   -4.7622    6.4074  -23.6675 C   0  0  0  0  0  0  0  0  0  0  0  0
   -3.7949    9.2090  -21.5851 C   0  0  0  0  0  0  0  0  0  0  0  0
   -4.5482   10.0115  -20.7663 C   0  0  0  0  0  0  0  0  0  0  0  0
   -5.1786    6.1022  -19.2611 C   0  0  0  0  0  0  0  0  0  0  0  0
   -4.9512    5.8033  -17.9278 C   0  0  0  0  0  0  0  0  0  0  0  0
   -4.4480    7.7038  -23.4922 N   0  0  0  0  0  0  0  0  0  0  0  0
   -4.6786    5.8371  -22.4519 N   0  0  0  0  0  0  0  0  0  0  0  0
   -4.9390    4.4304  -22.1999 C   0  0  0  0  0  0  0  0  0  0  0  0
   -2.5737    9.8045  -21.7515 C   0  0  0  0  0  0  0  0  0  0  0  0
   -2.6033   10.9295  -21.0499 O   0  0  0  0  0  0  0  0  0  0  0  0
   -3.7557   11.0664  -20.4650 N   0  0  0  0  0  0  0  0  0  0  0  0
   -1.3804    9.3476  -22.5473 C   0  0  0  0  0  0  0  0  0  0  0  0
   -5.9581    9.7842  -20.2938 C   0  0  0  0  0  0  0  0  0  0  0  0
  1  2  2  0
  1 11  1  0
  2  3  1  0
  3  4  2  0
  4  5  1  0
  4 10  1  0
  5  6  2  0
  5 13  1  0
  6  8  1  0
  6 12  1  0
 12  7  2  0
  7 13  1  0
  8  9  1  0
  8 15  2  0
  9 17  2  0
  9 19  1  0
 10 11  2  0
 13 14  1  0
 15 16  1  0
 15 18  1  0
 16 17  1  0
M  END
$$$$
