
     RDKit          3D

 19 21  0  0  0  0  0  0  0  0999 V2000
   -1.2702    8.0842  -19.2189 N   0  0  0  0  0  0  0  0  0  0  0  0
   -2.0470    7.1797  -18.5860 C   0  0  0  0  0  0  0  0  0  0  0  0
   -3.0342    6.5374  -19.2915 C   0  0  0  0  0  0  0  0  0  0  0  0
   -3.2602    6.7890  -20.6391 C   0  0  0  0  0  0  0  0  0  0  0  0
   -4.3133    6.0863  -21.3268 C   0  0  0  0  0  0  0  0  0  0  0  0
   -5.4898    6.5600  -21.8938 C   0  0  0  0  0  0  0  0  0  0  0  0
   -5.4153    4.3669  -22.2114 C   0  0  0  0  0  0  0  0  0  0  0  0
   -5.9256    7.9398  -21.9027 C   0  0  0  0  0  0  0  0  0  0  0  0
   -6.2168    8.7400  -20.8272 C   0  0  0  0  0  0  0  0  0  0  0  0
   -2.4350    7.7228  -21.2312 C   0  0  0  0  0  0  0  0  0  0  0  0
   -1.4396    8.3700  -20.5179 C   0  0  0  0  0  0  0  0  0  0  0  0
   -6.1314    5.4865  -22.4206 N   0  0  0  0  0  0  0  0  0  0  0  0
   -4.3117    4.7508  -21.5446 N   0  0  0  0  0  0  0  0  0  0  0  0
   -3.2629    3.8377  -21.1248 C   0  0  0  0  0  0  0  0  0  0  0  0
   -6.1112    8.6783  -23.0401 C   0  0  0  0  0  0  0  0  0  0  0  0
   -6.5019    9.8835  -22.6484 O   0  0  0  0  0  0  0  0  0  0  0  0
   -6.5690    9.9369  -21.3516 N   0  0  0  0  0  0  0  0  0  0  0  0
   -5.9307    8.2865  -24.4823 C   0  0  0  0  0  0  0  0  0  0  0  0
   -6.1629    8.3806  -19.3675 C   0  0  0  0  0  0  0  0  0  0  0  0
  1  2  2  0
  1 11  1  0
  2  3  1  0
  3  4  2  0
  4  5  1  0
  4 10  1  0
  5  6  2  0
  5 13  1  0
  6  8  1  0
  6 12  1  0
 12  7  2  0
  7 13  1  0
  8  9  1  0
  8 15  2  0
  9 17  2  0
  9 19  1  0
 10 11  2  0
 13 14  1  0
 15 16  1  0
 15 18  1  0
 16 17  1  0
M  END
$$$$
