
     RDKit          3D

 19 21  0  0  0  0  0  0  0  0999 V2000
   -1.1393    7.7746  -17.6931 N   0  0  0  0  0  0  0  0  0  0  0  0
   -1.6130    8.8565  -18.3468 C   0  0  0  0  0  0  0  0  0  0  0  0
   -2.2642    8.6820  -19.5427 C   0  0  0  0  0  0  0  0  0  0  0  0
   -2.4518    7.4248  -20.1034 C   0  0  0  0  0  0  0  0  0  0  0  0
   -3.1405    7.3036  -21.3632 C   0  0  0  0  0  0  0  0  0  0  0  0
   -4.4481    7.6216  -21.7078 C   0  0  0  0  0  0  0  0  0  0  0  0
   -3.4406    6.8284  -23.5167 C   0  0  0  0  0  0  0  0  0  0  0  0
   -5.4470    8.1663  -20.8138 C   0  0  0  0  0  0  0  0  0  0  0  0
   -5.9719    9.4337  -20.8062 C   0  0  0  0  0  0  0  0  0  0  0  0
   -1.9462    6.3578  -19.3898 C   0  0  0  0  0  0  0  0  0  0  0  0
   -1.2893    6.5356  -18.1833 C   0  0  0  0  0  0  0  0  0  0  0  0
   -4.5920    7.3189  -23.0228 N   0  0  0  0  0  0  0  0  0  0  0  0
   -2.5681    6.8264  -22.4927 N   0  0  0  0  0  0  0  0  0  0  0  0
   -1.1929    6.3719  -22.6040 C   0  0  0  0  0  0  0  0  0  0  0  0
   -6.0422    7.4575  -19.8054 C   0  0  0  0  0  0  0  0  0  0  0  0
   -6.8966    8.2833  -19.2166 O   0  0  0  0  0  0  0  0  0  0  0  0
   -6.8679    9.4482  -19.7920 N   0  0  0  0  0  0  0  0  0  0  0  0
   -5.8340    6.0285  -19.3803 C   0  0  0  0  0  0  0  0  0  0  0  0
   -5.6345   10.5783  -21.7221 C   0  0  0  0  0  0  0  0  0  0  0  0
  1  2  2  0
  1 11  1  0
  2  3  1  0
  3  4  2  0
  4  5  1  0
  4 10  1  0
  5  6  2  0
  5 13  1  0
  6  8  1  0
  6 12  1  0
 12  7  2  0
  7 13  1  0
  8  9  1  0
  8 15  2  0
  9 17  2  0
  9 19  1  0
 10 11  2  0
 13 14  1  0
 15 16  1  0
 15 18  1  0
 16 17  1  0
M  END
$$$$
