
     RDKit          3D

 19 21  0  0  0  0  0  0  0  0999 V2000
   -1.1963    6.6992  -17.6849 N   0  0  0  0  0  0  0  0  0  0  0  0
   -2.2008    7.6000  -17.6450 C   0  0  0  0  0  0  0  0  0  0  0  0
   -2.7495    8.0409  -18.8237 C   0  0  0  0  0  0  0  0  0  0  0  0
   -2.3031    7.5890  -20.0593 C   0  0  0  0  0  0  0  0  0  0  0  0
   -2.9155    8.0901  -21.2634 C   0  0  0  0  0  0  0  0  0  0  0  0
   -4.2233    7.9825  -21.7194 C   0  0  0  0  0  0  0  0  0  0  0  0
   -3.0725    9.1426  -23.2181 C   0  0  0  0  0  0  0  0  0  0  0  0
   -5.3002    7.2970  -21.0381 C   0  0  0  0  0  0  0  0  0  0  0  0
   -5.4959    5.9447  -20.9153 C   0  0  0  0  0  0  0  0  0  0  0  0
   -1.2748    6.6695  -20.0365 C   0  0  0  0  0  0  0  0  0  0  0  0
   -0.7223    6.2257  -18.8464 C   0  0  0  0  0  0  0  0  0  0  0  0
   -4.2789    8.6339  -22.9087 N   0  0  0  0  0  0  0  0  0  0  0  0
   -2.2549    8.8023  -22.2054 N   0  0  0  0  0  0  0  0  0  0  0  0
   -0.8494    9.1644  -22.1452 C   0  0  0  0  0  0  0  0  0  0  0  0
   -6.3207    7.9317  -20.3831 C   0  0  0  0  0  0  0  0  0  0  0  0
   -7.0997    6.9807  -19.8859 O   0  0  0  0  0  0  0  0  0  0  0  0
   -6.6296    5.8077  -20.1891 N   0  0  0  0  0  0  0  0  0  0  0  0
   -6.5843    9.4035  -20.2089 C   0  0  0  0  0  0  0  0  0  0  0  0
   -4.6426    4.8346  -21.4653 C   0  0  0  0  0  0  0  0  0  0  0  0
  1  2  2  0
  1 11  1  0
  2  3  1  0
  3  4  2  0
  4  5  1  0
  4 10  1  0
  5  6  2  0
  5 13  1  0
  6  8  1  0
  6 12  1  0
 12  7  2  0
  7 13  1  0
  8  9  1  0
  8 15  2  0
  9 17  2  0
  9 19  1  0
 10 11  2  0
 13 14  1  0
 15 16  1  0
 15 18  1  0
 16 17  1  0
M  END
$$$$
