
     RDKit          3D

 19 21  0  0  0  0  0  0  0  0999 V2000
   -0.1605    7.4045  -22.7262 N   0  0  0  0  0  0  0  0  0  0  0  0
   -0.4005    8.4835  -21.9515 C   0  0  0  0  0  0  0  0  0  0  0  0
   -1.4888    8.4758  -21.1146 C   0  0  0  0  0  0  0  0  0  0  0  0
   -2.3534    7.3909  -21.0393 C   0  0  0  0  0  0  0  0  0  0  0  0
   -3.4814    7.4413  -20.1444 C   0  0  0  0  0  0  0  0  0  0  0  0
   -4.8334    7.6181  -20.4103 C   0  0  0  0  0  0  0  0  0  0  0  0
   -4.5940    7.3935  -18.2174 C   0  0  0  0  0  0  0  0  0  0  0  0
   -5.4175    7.8060  -21.7207 C   0  0  0  0  0  0  0  0  0  0  0  0
   -5.9325    6.8509  -22.5602 C   0  0  0  0  0  0  0  0  0  0  0  0
   -2.0569    6.3180  -21.8544 C   0  0  0  0  0  0  0  0  0  0  0  0
   -0.9585    6.3273  -22.6982 C   0  0  0  0  0  0  0  0  0  0  0  0
   -5.4760    7.5833  -19.2155 N   0  0  0  0  0  0  0  0  0  0  0  0
   -3.3849    7.3090  -18.8012 N   0  0  0  0  0  0  0  0  0  0  0  0
   -2.1477    7.0985  -18.0697 C   0  0  0  0  0  0  0  0  0  0  0  0
   -5.5508    9.0223  -22.3340 C   0  0  0  0  0  0  0  0  0  0  0  0
   -6.1292    8.7936  -23.5051 O   0  0  0  0  0  0  0  0  0  0  0  0
   -6.3603    7.5234  -23.6539 N   0  0  0  0  0  0  0  0  0  0  0  0
   -5.1533   10.3920  -21.8521 C   0  0  0  0  0  0  0  0  0  0  0  0
   -6.0123    5.3664  -22.3311 C   0  0  0  0  0  0  0  0  0  0  0  0
  1  2  2  0
  1 11  1  0
  2  3  1  0
  3  4  2  0
  4  5  1  0
  4 10  1  0
  5  6  2  0
  5 13  1  0
  6  8  1  0
  6 12  1  0
 12  7  2  0
  7 13  1  0
  8  9  1  0
  8 15  2  0
  9 17  2  0
  9 19  1  0
 10 11  2  0
 13 14  1  0
 15 16  1  0
 15 18  1  0
 16 17  1  0
M  END
$$$$
