
     RDKit          3D

 30 32  0  0  0  0  0  0  0  0999 V2000
  -10.7617   27.9085    3.0273 P   0  0  2  0  0  5  0  0  0  0  0  0
  -11.1180   28.4771    4.5629 O   0  0  0  0  0  0  0  0  0  0  0  0
   -9.2755   28.1372    2.7455 O   0  0  0  0  0  0  0  0  0  0  0  0
  -11.6816   28.7735    1.9029 O   0  0  0  0  0  0  0  0  0  0  0  0
  -10.3449   25.5488    1.5965 P   0  0  1  0  0  5  0  0  0  0  0  0
   -9.9076   26.5460    0.5605 O   0  0  0  0  0  0  0  0  0  0  0  0
   -9.0302   24.5954    2.0671 O   0  0  0  0  0  0  0  0  0  0  0  0
  -11.1056   26.2773    2.9081 O   0  0  0  0  0  0  0  0  0  0  0  0
  -12.3493   23.6457    2.0318 P   0  0  2  0  0  5  0  0  0  0  0  0
  -12.7294   24.6550    3.0942 O   0  0  0  0  0  0  0  0  0  0  0  0
  -11.3626   22.4849    2.7411 O   0  0  0  0  0  0  0  0  0  0  0  0
  -11.4660   24.5063    0.8506 O   0  0  0  0  0  0  0  0  0  0  0  0
  -13.6918   22.9755    1.2813 O   0  0  0  0  0  0  0  0  0  0  0  0
  -14.5020   23.9015    0.6729 C   0  0  0  0  0  0  0  0  0  0  0  0
  -15.4545   23.2084   -0.2551 C   0  0  1  0  0  0  0  0  0  0  0  0
  -14.8058   22.4359   -1.2138 O   0  0  0  0  0  0  0  0  0  0  0  0
  -16.3021   22.1687    0.4462 C   0  0  1  0  0  0  0  0  0  0  0  0
  -17.3501   22.7493    1.1590 O   0  0  0  0  0  0  0  0  0  0  0  0
  -16.8363   21.3951   -0.7587 C   0  0  0  0  0  0  0  0  0  0  0  0
  -15.8508   21.8013   -1.8382 C   0  0  2  0  0  0  0  0  0  0  0  0
  -15.4624   20.6038   -2.5443 N   0  0  0  0  0  0  0  0  0  0  0  0
  -14.6405   19.6069   -2.1889 C   0  0  0  0  0  0  0  0  0  0  0  0
  -14.5733   18.6771   -3.1804 N   0  0  0  0  0  0  0  0  0  0  0  0
  -15.3660   19.1030   -4.1676 C   0  0  0  0  0  0  0  0  0  0  0  0
  -15.7195   18.6242   -5.4125 C   0  0  0  0  0  0  0  0  0  0  0  0
  -15.1967   17.4052   -5.8901 N   0  0  0  0  0  0  0  0  0  0  0  0
  -16.5811   19.3126   -6.2142 N   0  0  0  0  0  0  0  0  0  0  0  0
  -17.1027   20.4665   -5.8126 C   0  0  0  0  0  0  0  0  0  0  0  0
  -16.7696   20.9422   -4.6101 N   0  0  0  0  0  0  0  0  0  0  0  0
  -15.9229   20.3050   -3.7751 C   0  0  0  0  0  0  0  0  0  0  0  0
  1  2  1  1
  1  3  2  0
  1  4  1  0
  8  1  1  0
  5  6  2  0
  5  7  1  1
  5  8  1  0
 12  5  1  0
  9 10  2  0
  9 11  1  1
  9 12  1  0
  9 13  1  0
 13 14  1  0
 15 14  1  1
 15 16  1  0
 15 17  1  0
 16 20  1  0
 17 18  1  6
 17 19  1  0
 19 20  1  0
 20 21  1  1
 21 22  1  0
 21 30  1  0
 22 23  2  0
 23 24  1  0
 24 25  1  0
 24 30  2  0
 25 26  1  0
 25 27  2  0
 27 28  1  0
 28 29  2  0
 29 30  1  0
M  END
$$$$
