
     RDKit          3D

 30 32  0  0  0  0  0  0  0  0999 V2000
   -8.4750   25.6413    3.0415 P   0  0  2  0  0  5  0  0  0  0  0  0
   -9.6903   26.4313    3.8824 O   0  0  0  0  0  0  0  0  0  0  0  0
   -7.7109   24.7345    4.0080 O   0  0  0  0  0  0  0  0  0  0  0  0
   -7.4165   26.7971    2.4071 O   0  0  0  0  0  0  0  0  0  0  0  0
   -9.8753   23.3249    2.3615 P   0  0  1  0  0  5  0  0  0  0  0  0
   -8.9412   22.1490    2.4214 O   0  0  0  0  0  0  0  0  0  0  0  0
  -10.6091   23.5531    3.8676 O   0  0  0  0  0  0  0  0  0  0  0  0
   -9.1173   24.7194    1.8042 O   0  0  0  0  0  0  0  0  0  0  0  0
  -12.5766   23.6832    1.7260 P   0  0  2  0  0  5  0  0  0  0  0  0
  -12.3548   25.1708    1.5543 O   0  0  0  0  0  0  0  0  0  0  0  0
  -12.8805   23.3828    3.3513 O   0  0  0  0  0  0  0  0  0  0  0  0
  -11.1164   22.9269    1.2654 O   0  0  0  0  0  0  0  0  0  0  0  0
  -13.7927   23.1015    0.7272 O   0  0  0  0  0  0  0  0  0  0  0  0
  -14.9964   23.7391    0.8967 C   0  0  0  0  0  0  0  0  0  0  0  0
  -15.9695   23.2673   -0.1422 C   0  0  1  0  0  0  0  0  0  0  0  0
  -15.3507   22.9088   -1.3360 O   0  0  0  0  0  0  0  0  0  0  0  0
  -16.6543   21.9733    0.2425 C   0  0  1  0  0  0  0  0  0  0  0  0
  -17.6759   22.1827    1.1676 O   0  0  0  0  0  0  0  0  0  0  0  0
  -17.2319   21.5583   -1.1102 C   0  0  0  0  0  0  0  0  0  0  0  0
  -16.3918   22.3875   -2.0633 C   0  0  2  0  0  0  0  0  0  0  0  0
  -15.9707   21.5202   -3.1375 N   0  0  0  0  0  0  0  0  0  0  0  0
  -14.9642   20.6382   -3.2057 C   0  0  0  0  0  0  0  0  0  0  0  0
  -14.9456   20.0401   -4.4280 N   0  0  0  0  0  0  0  0  0  0  0  0
  -15.9564   20.5586   -5.1305 C   0  0  0  0  0  0  0  0  0  0  0  0
  -16.4574   20.3752   -6.4030 C   0  0  0  0  0  0  0  0  0  0  0  0
  -15.8611   19.4514   -7.2854 N   0  0  0  0  0  0  0  0  0  0  0  0
  -17.5392   21.0787   -6.8431 N   0  0  0  0  0  0  0  0  0  0  0  0
  -18.1389   21.9617   -6.0522 C   0  0  0  0  0  0  0  0  0  0  0  0
  -17.6650   22.1497   -4.8179 N   0  0  0  0  0  0  0  0  0  0  0  0
  -16.5990   21.4828   -4.3292 C   0  0  0  0  0  0  0  0  0  0  0  0
  1  2  1  1
  1  3  2  0
  1  4  1  0
  8  1  1  0
  5  6  2  0
  5  7  1  1
  5  8  1  0
 12  5  1  0
  9 10  2  0
  9 11  1  1
  9 12  1  0
  9 13  1  0
 13 14  1  0
 15 14  1  1
 15 16  1  0
 15 17  1  0
 16 20  1  0
 17 18  1  1
 17 19  1  0
 19 20  1  0
 20 21  1  6
 21 22  1  0
 21 30  1  0
 22 23  2  0
 23 24  1  0
 24 25  1  0
 24 30  2  0
 25 26  1  0
 25 27  2  0
 27 28  1  0
 28 29  2  0
 29 30  1  0
M  END
$$$$
