
     RDKit          3D

 30 32  0  0  0  0  0  0  0  0999 V2000
  -12.8613   26.6010    0.5196 P   0  0  2  0  0  5  0  0  0  0  0  0
  -13.3854   28.1799    0.3176 O   0  0  0  0  0  0  0  0  0  0  0  0
  -11.8850   26.5485    1.6962 O   0  0  0  0  0  0  0  0  0  0  0  0
  -12.0637   26.1112   -0.8885 O   0  0  0  0  0  0  0  0  0  0  0  0
  -14.5579   25.5215    2.4549 P   0  0  1  0  0  5  0  0  0  0  0  0
  -14.2207   26.7943    3.1797 O   0  0  0  0  0  0  0  0  0  0  0  0
  -16.1866   25.1370    2.6964 O   0  0  0  0  0  0  0  0  0  0  0  0
  -14.1533   25.5852    0.8233 O   0  0  0  0  0  0  0  0  0  0  0  0
  -14.2588   22.7511    2.7082 P   0  0  2  0  0  5  0  0  0  0  0  0
  -15.2246   23.0126    1.5722 O   0  0  0  0  0  0  0  0  0  0  0  0
  -15.1200   22.0739    3.9826 O   0  0  0  0  0  0  0  0  0  0  0  0
  -13.6468   24.2756    3.1745 O   0  0  0  0  0  0  0  0  0  0  0  0
  -12.9604   21.8004    2.2337 O   0  0  0  0  0  0  0  0  0  0  0  0
  -11.8850   22.5233    1.7811 C   0  0  0  0  0  0  0  0  0  0  0  0
  -11.1425   21.7315    0.7464 C   0  0  1  0  0  0  0  0  0  0  0  0
  -11.9437   20.7838    0.1166 O   0  0  0  0  0  0  0  0  0  0  0  0
  -10.6960   22.5764   -0.4275 C   0  0  1  0  0  0  0  0  0  0  0  0
   -9.5611   23.3270   -0.1239 O   0  0  0  0  0  0  0  0  0  0  0  0
  -10.3603   21.4813   -1.4392 C   0  0  0  0  0  0  0  0  0  0  0  0
  -11.1120   20.2969   -0.8611 C   0  0  2  0  0  0  0  0  0  0  0  0
  -11.8105   19.6537   -1.9481 N   0  0  0  0  0  0  0  0  0  0  0  0
  -12.4288   20.1716   -3.0183 C   0  0  0  0  0  0  0  0  0  0  0  0
  -12.9539   19.1771   -3.7846 N   0  0  0  0  0  0  0  0  0  0  0  0
  -12.6572   18.0229   -3.1812 C   0  0  0  0  0  0  0  0  0  0  0  0
  -12.8990   16.6907   -3.4473 C   0  0  0  0  0  0  0  0  0  0  0  0
  -13.6195   16.3052   -4.5961 N   0  0  0  0  0  0  0  0  0  0  0  0
  -12.4503   15.7119   -2.6109 N   0  0  0  0  0  0  0  0  0  0  0  0
  -11.7664   16.0203   -1.5147 C   0  0  0  0  0  0  0  0  0  0  0  0
  -11.5248   17.3056   -1.2443 N   0  0  0  0  0  0  0  0  0  0  0  0
  -11.9437   18.3154   -2.0347 C   0  0  0  0  0  0  0  0  0  0  0  0
  1  2  1  6
  1  3  2  0
  1  4  1  0
  8  1  1  0
  5  6  2  0
  5  7  1  6
  5  8  1  0
 12  5  1  0
  9 10  2  0
  9 11  1  1
  9 12  1  0
  9 13  1  0
 13 14  1  0
 15 14  1  1
 15 16  1  0
 15 17  1  0
 16 20  1  0
 17 18  1  1
 17 19  1  0
 19 20  1  0
 20 21  1  6
 21 22  1  0
 21 30  1  0
 22 23  2  0
 23 24  1  0
 24 25  1  0
 24 30  2  0
 25 26  1  0
 25 27  2  0
 27 28  1  0
 28 29  2  0
 29 30  1  0
M  END
$$$$
