
     RDKit          3D

 30 32  0  0  0  0  0  0  0  0999 V2000
  -17.0443   26.2121   -5.0640 P   0  0  2  0  0  5  0  0  0  0  0  0
  -17.0561   27.1150   -3.6523 O   0  0  0  0  0  0  0  0  0  0  0  0
  -16.1239   26.8909   -6.0800 O   0  0  0  0  0  0  0  0  0  0  0  0
  -18.6160   26.1580   -5.6850 O   0  0  0  0  0  0  0  0  0  0  0  0
  -17.5498   23.7768   -3.7977 P   0  0  1  0  0  5  0  0  0  0  0  0
  -18.0837   24.5828   -2.6470 O   0  0  0  0  0  0  0  0  0  0  0  0
  -18.8318   23.1167   -4.6806 O   0  0  0  0  0  0  0  0  0  0  0  0
  -16.4971   24.6610   -4.7672 O   0  0  0  0  0  0  0  0  0  0  0  0
  -15.3044   23.0340   -2.3025 P   0  0  2  0  0  5  0  0  0  0  0  0
  -15.6318   24.4410   -1.8500 O   0  0  0  0  0  0  0  0  0  0  0  0
  -13.9984   23.1133   -3.3571 O   0  0  0  0  0  0  0  0  0  0  0  0
  -16.6829   22.4684   -3.1369 O   0  0  0  0  0  0  0  0  0  0  0  0
  -15.0256   21.9989   -1.0119 O   0  0  0  0  0  0  0  0  0  0  0  0
  -15.5501   22.4455    0.1753 C   0  0  0  0  0  0  0  0  0  0  0  0
  -14.7701   21.8720    1.3205 C   0  0  1  0  0  0  0  0  0  0  0  0
  -13.6314   21.1872    0.9070 O   0  0  0  0  0  0  0  0  0  0  0  0
  -14.1725   22.9383    2.2134 C   0  0  1  0  0  0  0  0  0  0  0  0
  -15.1221   23.4840    3.0760 O   0  0  0  0  0  0  0  0  0  0  0  0
  -13.1568   22.1034    2.9924 C   0  0  0  0  0  0  0  0  0  0  0  0
  -13.0193   20.8855    2.0982 C   0  0  2  0  0  0  0  0  0  0  0  0
  -11.6106   20.5987    1.9691 N   0  0  0  0  0  0  0  0  0  0  0  0
  -10.6090   21.3398    1.4758 C   0  0  0  0  0  0  0  0  0  0  0  0
   -9.4349   20.6565    1.5568 N   0  0  0  0  0  0  0  0  0  0  0  0
   -9.7112   19.4721    2.1092 C   0  0  0  0  0  0  0  0  0  0  0  0
   -8.9732   18.3575    2.4512 C   0  0  0  0  0  0  0  0  0  0  0  0
   -7.5830   18.3160    2.2212 N   0  0  0  0  0  0  0  0  0  0  0  0
   -9.5639   17.2679    3.0193 N   0  0  0  0  0  0  0  0  0  0  0  0
  -10.8707   17.2546    3.2578 C   0  0  0  0  0  0  0  0  0  0  0  0
  -11.5976   18.3264    2.9320 N   0  0  0  0  0  0  0  0  0  0  0  0
  -11.0677   19.4316    2.3681 C   0  0  0  0  0  0  0  0  0  0  0  0
  1  2  1  1
  1  3  2  0
  1  4  1  0
  8  1  1  0
  5  6  2  0
  5  7  1  6
  5  8  1  0
 12  5  1  0
  9 10  2  0
  9 11  1  6
  9 12  1  0
  9 13  1  0
 13 14  1  0
 15 14  1  6
 15 16  1  0
 15 17  1  0
 16 20  1  0
 17 18  1  1
 17 19  1  0
 19 20  1  0
 20 21  1  6
 21 22  1  0
 21 30  1  0
 22 23  2  0
 23 24  1  0
 24 25  1  0
 24 30  2  0
 25 26  1  0
 25 27  2  0
 27 28  1  0
 28 29  2  0
 29 30  1  0
M  END
$$$$
