
     RDKit          3D

 30 32  0  0  0  0  0  0  0  0999 V2000
  -11.2499   24.0068    3.2727 P   0  0  2  0  0  5  0  0  0  0  0  0
   -9.7842   24.7552    3.5886 O   0  0  0  0  0  0  0  0  0  0  0  0
  -11.8530   23.5192    4.5914 O   0  0  0  0  0  0  0  0  0  0  0  0
  -10.9734   22.6798    2.2621 O   0  0  0  0  0  0  0  0  0  0  0  0
  -13.7088   24.3161    1.9891 P   0  0  1  0  0  5  0  0  0  0  0  0
  -14.3227   23.4213    3.0290 O   0  0  0  0  0  0  0  0  0  0  0  0
  -14.8584   25.4248    1.4341 O   0  0  0  0  0  0  0  0  0  0  0  0
  -12.3085   25.0705    2.5368 O   0  0  0  0  0  0  0  0  0  0  0  0
  -13.3605   24.2368   -0.7860 P   0  0  2  0  0  5  0  0  0  0  0  0
  -12.3015   23.6545   -1.6977 O   0  0  0  0  0  0  0  0  0  0  0  0
  -12.9590   25.8384   -0.4728 O   0  0  0  0  0  0  0  0  0  0  0  0
  -13.2923   23.3338    0.6618 O   0  0  0  0  0  0  0  0  0  0  0  0
  -14.9054   24.0743   -1.4197 O   0  0  0  0  0  0  0  0  0  0  0  0
  -15.5111   22.8858   -1.0960 C   0  0  0  0  0  0  0  0  0  0  0  0
  -16.3236   22.3990   -2.2585 C   0  0  1  0  0  0  0  0  0  0  0  0
  -15.6020   22.3775   -3.4483 O   0  0  0  0  0  0  0  0  0  0  0  0
  -16.7253   20.9458   -2.1237 C   0  0  1  0  0  0  0  0  0  0  0  0
  -17.7987   20.7838   -1.2491 O   0  0  0  0  0  0  0  0  0  0  0  0
  -17.1536   20.6472   -3.5600 C   0  0  0  0  0  0  0  0  0  0  0  0
  -16.4807   21.7776   -4.3158 C   0  0  2  0  0  0  0  0  0  0  0  0
  -15.8462   21.2048   -5.4788 N   0  0  0  0  0  0  0  0  0  0  0  0
  -14.5739   20.8414   -5.6908 C   0  0  0  0  0  0  0  0  0  0  0  0
  -14.4309   20.3433   -6.9492 N   0  0  0  0  0  0  0  0  0  0  0  0
  -15.6334   20.3981   -7.5284 C   0  0  0  0  0  0  0  0  0  0  0  0
  -16.1388   20.0533   -8.7652 C   0  0  0  0  0  0  0  0  0  0  0  0
  -15.3027   19.4992   -9.7558 N   0  0  0  0  0  0  0  0  0  0  0  0
  -17.4562   20.2374   -9.0647 N   0  0  0  0  0  0  0  0  0  0  0  0
  -18.2876   20.7558   -8.1676 C   0  0  0  0  0  0  0  0  0  0  0  0
  -17.8124   21.0942   -6.9663 N   0  0  0  0  0  0  0  0  0  0  0  0
  -16.5197   20.9350   -6.6145 C   0  0  0  0  0  0  0  0  0  0  0  0
  1  2  1  1
  1  3  2  0
  1  4  1  0
  8  1  1  0
  5  6  2  0
  5  7  1  6
  5  8  1  0
 12  5  1  0
  9 10  2  0
  9 11  1  1
  9 12  1  0
  9 13  1  0
 13 14  1  0
 15 14  1  1
 15 16  1  0
 15 17  1  0
 16 20  1  0
 17 18  1  1
 17 19  1  0
 19 20  1  0
 20 21  1  6
 21 22  1  0
 21 30  1  0
 22 23  2  0
 23 24  1  0
 24 25  1  0
 24 30  2  0
 25 26  1  0
 25 27  2  0
 27 28  1  0
 28 29  2  0
 29 30  1  0
M  END
$$$$
