
     RDKit          3D

 30 32  0  0  0  0  0  0  0  0999 V2000
  -12.7197   29.7814    0.2740 P   0  0  2  0  0  5  0  0  0  0  0  0
  -11.7555   28.9307    1.3487 O   0  0  0  0  0  0  0  0  0  0  0  0
  -12.1140   31.1689    0.0545 O   0  0  0  0  0  0  0  0  0  0  0  0
  -14.2627   29.9468    0.9454 O   0  0  0  0  0  0  0  0  0  0  0  0
  -13.5303   27.4620   -1.0499 P   0  0  1  0  0  5  0  0  0  0  0  0
  -15.0311   27.5321   -1.0119 O   0  0  0  0  0  0  0  0  0  0  0  0
  -13.0352   26.4081   -2.2758 O   0  0  0  0  0  0  0  0  0  0  0  0
  -12.8198   28.9804   -1.1895 O   0  0  0  0  0  0  0  0  0  0  0  0
  -13.2795   25.0884    0.4103 P   0  0  2  0  0  5  0  0  0  0  0  0
  -13.6321   24.7038    1.8314 O   0  0  0  0  0  0  0  0  0  0  0  0
  -11.8546   24.3013   -0.0072 O   0  0  0  0  0  0  0  0  0  0  0  0
  -13.0206   26.7763    0.4233 O   0  0  0  0  0  0  0  0  0  0  0  0
  -14.5280   24.7691   -0.6640 O   0  0  0  0  0  0  0  0  0  0  0  0
  -15.6273   24.1951   -0.0757 C   0  0  0  0  0  0  0  0  0  0  0  0
  -16.4112   23.4340   -1.1028 C   0  0  1  0  0  0  0  0  0  0  0  0
  -15.7765   23.3901   -2.3406 O   0  0  0  0  0  0  0  0  0  0  0  0
  -16.5317   21.9614   -0.7737 C   0  0  1  0  0  0  0  0  0  0  0  0
  -17.4985   21.7260    0.2026 O   0  0  0  0  0  0  0  0  0  0  0  0
  -16.9907   21.4169   -2.1259 C   0  0  0  0  0  0  0  0  0  0  0  0
  -16.5857   22.5438   -3.0574 C   0  0  2  0  0  0  0  0  0  0  0  0
  -15.9343   21.9495   -4.2001 N   0  0  0  0  0  0  0  0  0  0  0  0
  -14.7052   22.1355   -4.7006 C   0  0  0  0  0  0  0  0  0  0  0  0
  -14.5222   21.3541   -5.7997 N   0  0  0  0  0  0  0  0  0  0  0  0
  -15.6554   20.6717   -5.9851 C   0  0  0  0  0  0  0  0  0  0  0  0
  -16.0957   19.7393   -6.9021 C   0  0  0  0  0  0  0  0  0  0  0  0
  -15.2570   19.3084   -7.9500 N   0  0  0  0  0  0  0  0  0  0  0  0
  -17.3494   19.2094   -6.8223 N   0  0  0  0  0  0  0  0  0  0  0  0
  -18.1801   19.5808   -5.8544 C   0  0  0  0  0  0  0  0  0  0  0  0
  -17.7676   20.4824   -4.9598 N   0  0  0  0  0  0  0  0  0  0  0  0
  -16.5395   21.0400   -4.9892 C   0  0  0  0  0  0  0  0  0  0  0  0
  1  2  1  1
  1  3  2  0
  1  4  1  0
  8  1  1  0
  5  6  2  0
  5  7  1  6
  5  8  1  0
 12  5  1  0
  9 10  2  0
  9 11  1  6
  9 12  1  0
  9 13  1  0
 13 14  1  0
 15 14  1  1
 15 16  1  0
 15 17  1  0
 16 20  1  0
 17 18  1  1
 17 19  1  0
 19 20  1  0
 20 21  1  6
 21 22  1  0
 21 30  1  0
 22 23  2  0
 23 24  1  0
 24 25  1  0
 24 30  2  0
 25 26  1  0
 25 27  2  0
 27 28  1  0
 28 29  2  0
 29 30  1  0
M  END
$$$$
