
     RDKit          3D

 30 32  0  0  0  0  0  0  0  0999 V2000
  -15.2703   22.7294    1.9992 P   0  0  2  0  0  5  0  0  0  0  0  0
  -15.0619   22.4942    3.6453 O   0  0  0  0  0  0  0  0  0  0  0  0
  -16.5786   23.4878    1.7677 O   0  0  0  0  0  0  0  0  0  0  0  0
  -15.3603   21.2194    1.2439 O   0  0  0  0  0  0  0  0  0  0  0  0
  -14.5092   24.8279    0.3240 P   0  0  1  0  0  5  0  0  0  0  0  0
  -16.0060   24.9563    0.2817 O   0  0  0  0  0  0  0  0  0  0  0  0
  -13.8147   26.3227    0.7008 O   0  0  0  0  0  0  0  0  0  0  0  0
  -13.9984   23.6078    1.3634 O   0  0  0  0  0  0  0  0  0  0  0  0
  -12.2913   24.5213   -1.3541 P   0  0  2  0  0  5  0  0  0  0  0  0
  -11.9112   25.8996   -0.8569 O   0  0  0  0  0  0  0  0  0  0  0  0
  -11.8164   24.3947   -2.9612 O   0  0  0  0  0  0  0  0  0  0  0  0
  -13.9933   24.4288   -1.2491 O   0  0  0  0  0  0  0  0  0  0  0  0
  -11.6513   23.3006   -0.3974 O   0  0  0  0  0  0  0  0  0  0  0  0
  -10.6260   23.7176    0.4143 C   0  0  0  0  0  0  0  0  0  0  0  0
  -10.0428   22.5407    1.1377 C   0  0  1  0  0  0  0  0  0  0  0  0
   -9.9980   21.3935    0.3512 O   0  0  0  0  0  0  0  0  0  0  0  0
   -8.5800   22.7296    1.4782 C   0  0  1  0  0  0  0  0  0  0  0  0
   -8.4088   23.5535    2.5897 O   0  0  0  0  0  0  0  0  0  0  0  0
   -8.1901   21.2901    1.8121 C   0  0  0  0  0  0  0  0  0  0  0  0
   -9.3134   20.5131    1.1518 C   0  0  2  0  0  0  0  0  0  0  0  0
   -8.7158   19.4167    0.4279 N   0  0  0  0  0  0  0  0  0  0  0  0
   -7.8149   19.4116   -0.5641 C   0  0  0  0  0  0  0  0  0  0  0  0
   -7.5404   18.1337   -0.9431 N   0  0  0  0  0  0  0  0  0  0  0  0
   -8.2826   17.3319   -0.1745 C   0  0  0  0  0  0  0  0  0  0  0  0
   -8.4552   15.9672   -0.0667 C   0  0  0  0  0  0  0  0  0  0  0  0
   -7.7437   15.0831   -0.9030 N   0  0  0  0  0  0  0  0  0  0  0  0
   -9.3152   15.4354    0.8480 N   0  0  0  0  0  0  0  0  0  0  0  0
  -10.0104   16.2236    1.6606 C   0  0  0  0  0  0  0  0  0  0  0  0
   -9.8535   17.5465    1.5675 N   0  0  0  0  0  0  0  0  0  0  0  0
   -9.0177   18.1282    0.6826 C   0  0  0  0  0  0  0  0  0  0  0  0
  1  2  1  1
  1  3  2  0
  1  4  1  0
  8  1  1  0
  5  6  2  0
  5  7  1  1
  5  8  1  0
 12  5  1  0
  9 10  2  0
  9 11  1  6
  9 12  1  0
  9 13  1  0
 13 14  1  0
 15 14  1  6
 15 16  1  0
 15 17  1  0
 16 20  1  0
 17 18  1  1
 17 19  1  0
 19 20  1  0
 20 21  1  6
 21 22  1  0
 21 30  1  0
 22 23  2  0
 23 24  1  0
 24 25  1  0
 24 30  2  0
 25 26  1  0
 25 27  2  0
 27 28  1  0
 28 29  2  0
 29 30  1  0
M  END
$$$$
