
     RDKit          3D

 30 32  0  0  0  0  0  0  0  0999 V2000
  -11.6143   27.0002    2.3668 P   0  0  2  0  0  5  0  0  0  0  0  0
  -13.1269   27.2881    1.7054 O   0  0  0  0  0  0  0  0  0  0  0  0
  -11.4929   27.7706    3.6828 O   0  0  0  0  0  0  0  0  0  0  0  0
  -10.4371   27.5535    1.2866 O   0  0  0  0  0  0  0  0  0  0  0  0
  -12.5495   24.7385    3.7082 P   0  0  1  0  0  5  0  0  0  0  0  0
  -12.2942   25.1276    5.1373 O   0  0  0  0  0  0  0  0  0  0  0  0
  -14.1239   25.1701    3.2678 O   0  0  0  0  0  0  0  0  0  0  0  0
  -11.3981   25.3683    2.6558 O   0  0  0  0  0  0  0  0  0  0  0  0
  -12.5104   22.5240    1.9984 P   0  0  2  0  0  5  0  0  0  0  0  0
  -12.0110   23.6894    1.1713 O   0  0  0  0  0  0  0  0  0  0  0  0
  -14.0988   22.2065    1.5509 O   0  0  0  0  0  0  0  0  0  0  0  0
  -12.4642   23.0397    3.6257 O   0  0  0  0  0  0  0  0  0  0  0  0
  -11.5223   21.1752    1.8596 O   0  0  0  0  0  0  0  0  0  0  0  0
  -11.6840   20.2672    2.8761 C   0  0  0  0  0  0  0  0  0  0  0  0
  -10.9248   19.0132    2.5600 C   0  0  1  0  0  0  0  0  0  0  0  0
  -11.5218   18.2623    1.5517 O   0  0  0  0  0  0  0  0  0  0  0  0
   -9.5617   19.2895    1.9627 C   0  0  1  0  0  0  0  0  0  0  0  0
   -8.6343   19.6579    2.9362 O   0  0  0  0  0  0  0  0  0  0  0  0
   -9.2271   17.9096    1.3977 C   0  0  0  0  0  0  0  0  0  0  0  0
  -10.6002   17.2670    1.3398 C   0  0  2  0  0  0  0  0  0  0  0  0
  -10.7257   16.6262    0.0526 N   0  0  0  0  0  0  0  0  0  0  0  0
  -10.7470   17.1436   -1.1833 C   0  0  0  0  0  0  0  0  0  0  0  0
  -10.8835   16.1521   -2.1055 N   0  0  0  0  0  0  0  0  0  0  0  0
  -10.9481   15.0004   -1.4320 C   0  0  0  0  0  0  0  0  0  0  0  0
  -11.0831   13.6717   -1.7791 C   0  0  0  0  0  0  0  0  0  0  0  0
  -11.1896   13.2880   -3.1314 N   0  0  0  0  0  0  0  0  0  0  0  0
  -11.1174   12.6947   -0.8287 N   0  0  0  0  0  0  0  0  0  0  0  0
  -11.0211   13.0016    0.4603 C   0  0  0  0  0  0  0  0  0  0  0  0
  -10.8899   14.2834    0.8110 N   0  0  0  0  0  0  0  0  0  0  0  0
  -10.8500   15.2914   -0.0849 C   0  0  0  0  0  0  0  0  0  0  0  0
  1  2  1  6
  1  3  2  0
  1  4  1  0
  8  1  1  0
  5  6  2  0
  5  7  1  6
  5  8  1  0
 12  5  1  0
  9 10  2  0
  9 11  1  6
  9 12  1  0
  9 13  1  0
 13 14  1  0
 15 14  1  6
 15 16  1  0
 15 17  1  0
 16 20  1  0
 17 18  1  1
 17 19  1  0
 19 20  1  0
 20 21  1  6
 21 22  1  0
 21 30  1  0
 22 23  2  0
 23 24  1  0
 24 25  1  0
 24 30  2  0
 25 26  1  0
 25 27  2  0
 27 28  1  0
 28 29  2  0
 29 30  1  0
M  END
$$$$
