
     RDKit          3D

 30 32  0  0  0  0  0  0  0  0999 V2000
  -15.5440   26.0804   -3.0681 P   0  0  2  0  0  5  0  0  0  0  0  0
  -15.0083   26.1135   -4.6556 O   0  0  0  0  0  0  0  0  0  0  0  0
  -15.6350   27.5150   -2.5446 O   0  0  0  0  0  0  0  0  0  0  0  0
  -14.4266   25.2176   -2.1377 O   0  0  0  0  0  0  0  0  0  0  0  0
  -17.0347   23.7621   -3.5070 P   0  0  1  0  0  5  0  0  0  0  0  0
  -18.3643   23.0853   -3.3260 O   0  0  0  0  0  0  0  0  0  0  0  0
  -16.5399   23.6350   -5.1188 O   0  0  0  0  0  0  0  0  0  0  0  0
  -17.0467   25.3556   -2.9680 O   0  0  0  0  0  0  0  0  0  0  0  0
  -16.6939   22.0006   -1.3599 P   0  0  2  0  0  5  0  0  0  0  0  0
  -17.2318   20.7581   -2.0371 O   0  0  0  0  0  0  0  0  0  0  0  0
  -17.9973   22.8799   -0.7665 O   0  0  0  0  0  0  0  0  0  0  0  0
  -15.8997   22.9001   -2.5750 O   0  0  0  0  0  0  0  0  0  0  0  0
  -15.5676   21.6399   -0.1699 O   0  0  0  0  0  0  0  0  0  0  0  0
  -15.2405   22.7123    0.6219 C   0  0  0  0  0  0  0  0  0  0  0  0
  -14.3169   22.2695    1.7172 C   0  0  1  0  0  0  0  0  0  0  0  0
  -13.3966   21.3159    1.2927 O   0  0  0  0  0  0  0  0  0  0  0  0
  -13.4034   23.3776    2.1958 C   0  0  1  0  0  0  0  0  0  0  0  0
  -14.0631   24.2609    3.0490 O   0  0  0  0  0  0  0  0  0  0  0  0
  -12.3658   22.5615    2.9659 C   0  0  0  0  0  0  0  0  0  0  0  0
  -12.5889   21.1743    2.3937 C   0  0  2  0  0  0  0  0  0  0  0  0
  -11.2927   20.6151    2.0930 N   0  0  0  0  0  0  0  0  0  0  0  0
  -10.2311   21.1512    1.4755 C   0  0  0  0  0  0  0  0  0  0  0  0
   -9.2164   20.2463    1.4146 N   0  0  0  0  0  0  0  0  0  0  0  0
   -9.6544   19.1303    2.0035 C   0  0  0  0  0  0  0  0  0  0  0  0
   -9.1182   17.8846    2.2579 C   0  0  0  0  0  0  0  0  0  0  0  0
   -7.8031   17.5714    1.8579 N   0  0  0  0  0  0  0  0  0  0  0  0
   -9.8409   16.9237    2.9007 N   0  0  0  0  0  0  0  0  0  0  0  0
  -11.0848   17.1664    3.2990 C   0  0  0  0  0  0  0  0  0  0  0  0
  -11.6169   18.3676    3.0597 N   0  0  0  0  0  0  0  0  0  0  0  0
  -10.9496   19.3558    2.4284 C   0  0  0  0  0  0  0  0  0  0  0  0
  1  2  1  6
  1  3  2  0
  1  4  1  0
  8  1  1  0
  5  6  2  0
  5  7  1  6
  5  8  1  0
 12  5  1  0
  9 10  2  0
  9 11  1  1
  9 12  1  0
  9 13  1  0
 13 14  1  0
 15 14  1  6
 15 16  1  0
 15 17  1  0
 16 20  1  0
 17 18  1  1
 17 19  1  0
 19 20  1  0
 20 21  1  6
 21 22  1  0
 21 30  1  0
 22 23  2  0
 23 24  1  0
 24 25  1  0
 24 30  2  0
 25 26  1  0
 25 27  2  0
 27 28  1  0
 28 29  2  0
 29 30  1  0
M  END
$$$$
