
     RDKit          3D

 30 32  0  0  0  0  0  0  0  0999 V2000
  -12.0250   26.2495   -1.0607 P   0  0  2  0  0  5  0  0  0  0  0  0
  -13.0172   24.9182   -1.2875 O   0  0  0  0  0  0  0  0  0  0  0  0
  -12.0064   27.0797   -2.3455 O   0  0  0  0  0  0  0  0  0  0  0  0
  -10.4592   25.7066   -0.7253 O   0  0  0  0  0  0  0  0  0  0  0  0
  -13.5804   26.3401    1.2549 P   0  0  1  0  0  5  0  0  0  0  0  0
  -14.3990   27.2475    2.1297 O   0  0  0  0  0  0  0  0  0  0  0  0
  -14.5938   25.2580    0.4418 O   0  0  0  0  0  0  0  0  0  0  0  0
  -12.5823   27.1919    0.2022 O   0  0  0  0  0  0  0  0  0  0  0  0
  -13.1814   23.8106    2.3825 P   0  0  2  0  0  5  0  0  0  0  0  0
  -14.4524   23.7770    1.5610 O   0  0  0  0  0  0  0  0  0  0  0  0
  -13.5780   23.4545    3.9762 O   0  0  0  0  0  0  0  0  0  0  0  0
  -12.5902   25.4095    2.2813 O   0  0  0  0  0  0  0  0  0  0  0  0
  -12.0008   22.7875    1.7707 O   0  0  0  0  0  0  0  0  0  0  0  0
  -11.0100   22.4887    2.6723 C   0  0  0  0  0  0  0  0  0  0  0  0
  -10.1047   21.4393    2.0999 C   0  0  1  0  0  0  0  0  0  0  0  0
  -10.7934   20.3057    1.6786 O   0  0  0  0  0  0  0  0  0  0  0  0
   -9.4366   21.8805    0.8152 C   0  0  1  0  0  0  0  0  0  0  0  0
   -8.3636   22.7371    1.0567 O   0  0  0  0  0  0  0  0  0  0  0  0
   -8.9406   20.5339    0.2897 C   0  0  0  0  0  0  0  0  0  0  0  0
   -9.8055   19.5669    1.0762 C   0  0  2  0  0  0  0  0  0  0  0  0
  -10.3045   18.5789    0.1499 N   0  0  0  0  0  0  0  0  0  0  0  0
  -10.9215   18.7205   -1.0312 C   0  0  0  0  0  0  0  0  0  0  0  0
  -11.2143   17.5003   -1.5578 N   0  0  0  0  0  0  0  0  0  0  0  0
  -10.7723   16.5858   -0.6902 C   0  0  0  0  0  0  0  0  0  0  0  0
  -10.7663   15.2068   -0.6424 C   0  0  0  0  0  0  0  0  0  0  0  0
  -11.3259   14.4475   -1.6901 N   0  0  0  0  0  0  0  0  0  0  0  0
  -10.2215   14.5404    0.4150 N   0  0  0  0  0  0  0  0  0  0  0  0
   -9.6810   15.2074    1.4288 C   0  0  0  0  0  0  0  0  0  0  0  0
   -9.6797   16.5424    1.3961 N   0  0  0  0  0  0  0  0  0  0  0  0
  -10.2039   17.2543    0.3770 C   0  0  0  0  0  0  0  0  0  0  0  0
  1  2  1  6
  1  3  2  0
  1  4  1  0
  8  1  1  0
  5  6  2  0
  5  7  1  6
  5  8  1  0
 12  5  1  0
  9 10  2  0
  9 11  1  1
  9 12  1  0
  9 13  1  0
 13 14  1  0
 15 14  1  6
 15 16  1  0
 15 17  1  0
 16 20  1  0
 17 18  1  1
 17 19  1  0
 19 20  1  0
 20 21  1  6
 21 22  1  0
 21 30  1  0
 22 23  2  0
 23 24  1  0
 24 25  1  0
 24 30  2  0
 25 26  1  0
 25 27  2  0
 27 28  1  0
 28 29  2  0
 29 30  1  0
M  END
$$$$
