
     RDKit          3D

 30 32  0  0  0  0  0  0  0  0999 V2000
  -14.4443   26.1180   -1.5145 P   0  0  2  0  0  5  0  0  0  0  0  0
  -12.9313   25.6965   -0.9304 O   0  0  0  0  0  0  0  0  0  0  0  0
  -14.3851   26.1890   -3.0415 O   0  0  0  0  0  0  0  0  0  0  0  0
  -14.8567   27.6389   -0.9015 O   0  0  0  0  0  0  0  0  0  0  0  0
  -15.7437   24.8690    0.6165 P   0  0  1  0  0  5  0  0  0  0  0  0
  -16.1339   26.1735    1.2529 O   0  0  0  0  0  0  0  0  0  0  0  0
  -16.8328   23.6588    1.0725 O   0  0  0  0  0  0  0  0  0  0  0  0
  -15.5891   24.9906   -1.0542 O   0  0  0  0  0  0  0  0  0  0  0  0
  -14.3318   22.9208    2.0447 P   0  0  2  0  0  5  0  0  0  0  0  0
  -14.5548   21.8900    0.9587 O   0  0  0  0  0  0  0  0  0  0  0  0
  -15.6689   22.9071    3.0626 O   0  0  0  0  0  0  0  0  0  0  0  0
  -14.2268   24.4311    1.2546 O   0  0  0  0  0  0  0  0  0  0  0  0
  -12.8930   22.6732    2.8713 O   0  0  0  0  0  0  0  0  0  0  0  0
  -11.9818   23.6864    2.7063 C   0  0  0  0  0  0  0  0  0  0  0  0
  -10.7230   23.1411    2.1007 C   0  0  1  0  0  0  0  0  0  0  0  0
  -10.8306   21.7976    1.7538 O   0  0  0  0  0  0  0  0  0  0  0  0
  -10.3957   23.7719    0.7643 C   0  0  1  0  0  0  0  0  0  0  0  0
   -9.8284   25.0366    0.9132 O   0  0  0  0  0  0  0  0  0  0  0  0
   -9.3603   22.7776    0.2400 C   0  0  0  0  0  0  0  0  0  0  0  0
   -9.6432   21.5641    1.1054 C   0  0  2  0  0  0  0  0  0  0  0  0
   -9.6740   20.4105    0.2385 N   0  0  0  0  0  0  0  0  0  0  0  0
  -10.4499   20.1308   -0.8177 C   0  0  0  0  0  0  0  0  0  0  0  0
  -10.1212   18.9151   -1.3335 N   0  0  0  0  0  0  0  0  0  0  0  0
   -9.1253   18.4316   -0.5860 C   0  0  0  0  0  0  0  0  0  0  0  0
   -8.3721   17.2755   -0.5913 C   0  0  0  0  0  0  0  0  0  0  0  0
   -8.5952   16.2751   -1.5592 N   0  0  0  0  0  0  0  0  0  0  0  0
   -7.3939   17.0670    0.3354 N   0  0  0  0  0  0  0  0  0  0  0  0
   -7.1425   17.9774    1.2696 C   0  0  0  0  0  0  0  0  0  0  0  0
   -7.8636   19.1013    1.2870 N   0  0  0  0  0  0  0  0  0  0  0  0
   -8.8429   19.3613    0.3963 C   0  0  0  0  0  0  0  0  0  0  0  0
  1  2  1  1
  1  3  2  0
  1  4  1  0
  8  1  1  0
  5  6  2  0
  5  7  1  6
  5  8  1  0
 12  5  1  0
  9 10  2  0
  9 11  1  1
  9 12  1  0
  9 13  1  0
 13 14  1  0
 15 14  1  6
 15 16  1  0
 15 17  1  0
 16 20  1  0
 17 18  1  1
 17 19  1  0
 19 20  1  0
 20 21  1  6
 21 22  1  0
 21 30  1  0
 22 23  2  0
 23 24  1  0
 24 25  1  0
 24 30  2  0
 25 26  1  0
 25 27  2  0
 27 28  1  0
 28 29  2  0
 29 30  1  0
M  END
$$$$
