
     RDKit          3D

 30 32  0  0  0  0  0  0  0  0999 V2000
  -16.2887   24.3450   -3.8004 P   0  0  2  0  0  5  0  0  0  0  0  0
  -15.3774   24.0983   -5.1849 O   0  0  0  0  0  0  0  0  0  0  0  0
  -17.7581   24.5047   -4.1948 O   0  0  0  0  0  0  0  0  0  0  0  0
  -15.7566   25.7624   -3.0477 O   0  0  0  0  0  0  0  0  0  0  0  0
  -16.9403   23.2948   -1.2980 P   0  0  1  0  0  5  0  0  0  0  0  0
  -17.6531   24.6171   -1.2516 O   0  0  0  0  0  0  0  0  0  0  0  0
  -18.0251   22.0448   -0.9521 O   0  0  0  0  0  0  0  0  0  0  0  0
  -16.1314   23.0521   -2.7529 O   0  0  0  0  0  0  0  0  0  0  0  0
  -15.1027   21.7467    0.1357 P   0  0  2  0  0  5  0  0  0  0  0  0
  -14.0570   21.6120   -0.9507 O   0  0  0  0  0  0  0  0  0  0  0  0
  -16.2824   20.5786   -0.1248 O   0  0  0  0  0  0  0  0  0  0  0  0
  -15.7838   23.3019   -0.0480 O   0  0  0  0  0  0  0  0  0  0  0  0
  -14.4380   21.6562    1.6735 O   0  0  0  0  0  0  0  0  0  0  0  0
  -14.3046   22.8762    2.2883 C   0  0  0  0  0  0  0  0  0  0  0  0
  -12.8613   23.1251    2.6105 C   0  0  1  0  0  0  0  0  0  0  0  0
  -12.0008   22.2837    1.9118 O   0  0  0  0  0  0  0  0  0  0  0  0
  -12.3866   24.4879    2.1536 C   0  0  1  0  0  0  0  0  0  0  0  0
  -12.8000   25.4983    3.0207 O   0  0  0  0  0  0  0  0  0  0  0  0
  -10.8734   24.2923    2.2402 C   0  0  0  0  0  0  0  0  0  0  0  0
  -10.7655   22.7791    2.2484 C   0  0  2  0  0  0  0  0  0  0  0  0
   -9.7224   22.4133    1.3202 N   0  0  0  0  0  0  0  0  0  0  0  0
   -9.5918   22.6607    0.0097 C   0  0  0  0  0  0  0  0  0  0  0  0
   -8.4352   22.1172   -0.4581 N   0  0  0  0  0  0  0  0  0  0  0  0
   -7.8376   21.5227    0.5780 C   0  0  0  0  0  0  0  0  0  0  0  0
   -6.6675   20.8131    0.7557 C   0  0  0  0  0  0  0  0  0  0  0  0
   -5.7943   20.5818   -0.3266 N   0  0  0  0  0  0  0  0  0  0  0  0
   -6.3226   20.3167    1.9778 N   0  0  0  0  0  0  0  0  0  0  0  0
   -7.1097   20.5060    3.0312 C   0  0  0  0  0  0  0  0  0  0  0  0
   -8.2453   21.1910    2.8742 N   0  0  0  0  0  0  0  0  0  0  0  0
   -8.6373   21.7048    1.6899 C   0  0  0  0  0  0  0  0  0  0  0  0
  1  2  1  6
  1  3  2  0
  1  4  1  0
  8  1  1  0
  5  6  2  0
  5  7  1  1
  5  8  1  0
 12  5  1  0
  9 10  2  0
  9 11  1  6
  9 12  1  0
  9 13  1  0
 13 14  1  0
 15 14  1  6
 15 16  1  0
 15 17  1  0
 16 20  1  0
 17 18  1  1
 17 19  1  0
 19 20  1  0
 20 21  1  6
 21 22  1  0
 21 30  1  0
 22 23  2  0
 23 24  1  0
 24 25  1  0
 24 30  2  0
 25 26  1  0
 25 27  2  0
 27 28  1  0
 28 29  2  0
 29 30  1  0
M  END
$$$$
