
     RDKit          3D

 30 32  0  0  0  0  0  0  0  0999 V2000
  -13.5411   29.2930   -0.4551 P   0  0  2  0  0  5  0  0  0  0  0  0
  -12.5860   29.5377    0.9000 O   0  0  0  0  0  0  0  0  0  0  0  0
  -14.4136   30.5298   -0.6777 O   0  0  0  0  0  0  0  0  0  0  0  0
  -14.5344   27.9522   -0.1822 O   0  0  0  0  0  0  0  0  0  0  0  0
  -11.0376   28.5199   -1.4164 P   0  0  1  0  0  5  0  0  0  0  0  0
  -10.3169   27.9269   -2.5944 O   0  0  0  0  0  0  0  0  0  0  0  0
  -10.1073   29.7577   -0.7373 O   0  0  0  0  0  0  0  0  0  0  0  0
  -12.5921   29.0316   -1.8058 O   0  0  0  0  0  0  0  0  0  0  0  0
  -11.0513   25.7583   -0.9668 P   0  0  2  0  0  5  0  0  0  0  0  0
   -9.8668   25.0716   -0.3209 O   0  0  0  0  0  0  0  0  0  0  0  0
  -10.7260   25.9324   -2.6063 O   0  0  0  0  0  0  0  0  0  0  0  0
  -11.1660   27.2980   -0.2372 O   0  0  0  0  0  0  0  0  0  0  0  0
  -12.4914   24.9465   -0.6806 O   0  0  0  0  0  0  0  0  0  0  0  0
  -12.8791   24.9604    0.6361 C   0  0  0  0  0  0  0  0  0  0  0  0
  -13.5774   23.6764    0.9714 C   0  0  1  0  0  0  0  0  0  0  0  0
  -12.8427   22.5525    0.6056 O   0  0  0  0  0  0  0  0  0  0  0  0
  -13.7286   23.4649    2.4626 C   0  0  1  0  0  0  0  0  0  0  0  0
  -14.7735   24.2222    2.9901 O   0  0  0  0  0  0  0  0  0  0  0  0
  -14.0757   21.9769    2.4928 C   0  0  0  0  0  0  0  0  0  0  0  0
  -13.5920   21.5272    1.1270 C   0  0  2  0  0  0  0  0  0  0  0  0
  -12.8499   20.3030    1.3108 N   0  0  0  0  0  0  0  0  0  0  0  0
  -11.5311   20.0862    1.4086 C   0  0  0  0  0  0  0  0  0  0  0  0
  -11.2844   18.7585    1.5772 N   0  0  0  0  0  0  0  0  0  0  0  0
  -12.4685   18.1405    1.5843 C   0  0  0  0  0  0  0  0  0  0  0  0
  -12.8870   16.8320    1.7141 C   0  0  0  0  0  0  0  0  0  0  0  0
  -11.9524   15.7909    1.8871 N   0  0  0  0  0  0  0  0  0  0  0  0
  -14.2111   16.5085    1.6791 N   0  0  0  0  0  0  0  0  0  0  0  0
  -15.1334   17.4510    1.5184 C   0  0  0  0  0  0  0  0  0  0  0  0
  -14.7430   18.7218    1.3914 N   0  0  0  0  0  0  0  0  0  0  0  0
  -13.4484   19.1003    1.4184 C   0  0  0  0  0  0  0  0  0  0  0  0
  1  2  1  1
  1  3  2  0
  1  4  1  0
  8  1  1  0
  5  6  2  0
  5  7  1  1
  5  8  1  0
 12  5  1  0
  9 10  2  0
  9 11  1  6
  9 12  1  0
  9 13  1  0
 13 14  1  0
 15 14  1  1
 15 16  1  0
 15 17  1  0
 16 20  1  0
 17 18  1  6
 17 19  1  0
 19 20  1  0
 20 21  1  1
 21 22  1  0
 21 30  1  0
 22 23  2  0
 23 24  1  0
 24 25  1  0
 24 30  2  0
 25 26  1  0
 25 27  2  0
 27 28  1  0
 28 29  2  0
 29 30  1  0
M  END
$$$$
