
     RDKit          3D

 30 32  0  0  0  0  0  0  0  0999 V2000
  -13.8614   59.4957   -6.8211 P   0  0  2  0  0  5  0  0  0  0  0  0
  -12.6864   59.8986   -5.6963 O   0  0  0  0  0  0  0  0  0  0  0  0
  -14.6599   60.7512   -7.1767 O   0  0  0  0  0  0  0  0  0  0  0  0
  -14.8991   58.3515   -6.1336 O   0  0  0  0  0  0  0  0  0  0  0  0
  -14.2963   58.2256   -9.2680 P   0  0  1  0  0  5  0  0  0  0  0  0
  -14.6631   56.8090   -8.9256 O   0  0  0  0  0  0  0  0  0  0  0  0
  -15.6933   59.1729   -9.3669 O   0  0  0  0  0  0  0  0  0  0  0  0
  -13.1631   58.8704   -8.2050 O   0  0  0  0  0  0  0  0  0  0  0  0
  -12.7737   59.6666  -11.1212 P   0  0  2  0  0  5  0  0  0  0  0  0
  -11.2989   59.3254  -11.1022 O   0  0  0  0  0  0  0  0  0  0  0  0
  -13.0763   60.7523   -9.8747 O   0  0  0  0  0  0  0  0  0  0  0  0
  -13.6053   58.2049  -10.8243 O   0  0  0  0  0  0  0  0  0  0  0  0
  -13.2735   60.2471  -12.6139 O   0  0  0  0  0  0  0  0  0  0  0  0
  -14.2719   61.1855  -12.5335 C   0  0  0  0  0  0  0  0  0  0  0  0
  -15.3486   60.8651  -13.5269 C   0  0  1  0  0  0  0  0  0  0  0  0
  -14.9346   59.9549  -14.4947 O   0  0  0  0  0  0  0  0  0  0  0  0
  -16.5186   60.1327  -12.9056 C   0  0  1  0  0  0  0  0  0  0  0  0
  -17.3596   60.9977  -12.2069 O   0  0  0  0  0  0  0  0  0  0  0  0
  -17.2116   59.6100  -14.1634 C   0  0  0  0  0  0  0  0  0  0  0  0
  -16.0952   59.7103  -15.1858 C   0  0  2  0  0  0  0  0  0  0  0  0
  -16.0762   58.4739  -15.9304 N   0  0  0  0  0  0  0  0  0  0  0  0
  -15.8158   57.2199  -15.5364 C   0  0  0  0  0  0  0  0  0  0  0  0
  -15.9160   56.3656  -16.5910 N   0  0  0  0  0  0  0  0  0  0  0  0
  -16.2439   57.1004  -17.6572 C   0  0  0  0  0  0  0  0  0  0  0  0
  -16.4860   56.8354  -18.9896 C   0  0  0  0  0  0  0  0  0  0  0  0
  -16.4041   55.5194  -19.4884 N   0  0  0  0  0  0  0  0  0  0  0  0
  -16.8102   57.8339  -19.8596 N   0  0  0  0  0  0  0  0  0  0  0  0
  -16.9008   59.0917  -19.4418 C   0  0  0  0  0  0  0  0  0  0  0  0
  -16.6692   59.3631  -18.1549 N   0  0  0  0  0  0  0  0  0  0  0  0
  -16.3450   58.4167  -17.2497 C   0  0  0  0  0  0  0  0  0  0  0  0
  1  2  1  1
  1  3  2  0
  1  4  1  0
  8  1  1  0
  5  6  2  0
  5  7  1  6
  5  8  1  0
 12  5  1  0
  9 10  2  0
  9 11  1  1
  9 12  1  0
  9 13  1  0
 13 14  1  0
 15 14  1  1
 15 16  1  0
 15 17  1  0
 16 20  1  0
 17 18  1  6
 17 19  1  0
 19 20  1  0
 20 21  1  1
 21 22  1  0
 21 30  1  0
 22 23  2  0
 23 24  1  0
 24 25  1  0
 24 30  2  0
 25 26  1  0
 25 27  2  0
 27 28  1  0
 28 29  2  0
 29 30  1  0
M  END
$$$$
