
     RDKit          3D

 30 32  0  0  0  0  0  0  0  0999 V2000
  -11.5403   26.8503    1.7938 P   0  0  2  0  0  5  0  0  0  0  0  0
  -10.8253   28.3622    1.6894 O   0  0  0  0  0  0  0  0  0  0  0  0
  -10.9172   25.9324    0.7404 O   0  0  0  0  0  0  0  0  0  0  0  0
  -13.1947   27.0114    1.4840 O   0  0  0  0  0  0  0  0  0  0  0  0
  -12.0298   24.6816    3.4810 P   0  0  1  0  0  5  0  0  0  0  0  0
  -11.0495   23.6205    3.8956 O   0  0  0  0  0  0  0  0  0  0  0  0
  -13.3336   24.7113    4.5571 O   0  0  0  0  0  0  0  0  0  0  0  0
  -11.3082   26.1918    3.3124 O   0  0  0  0  0  0  0  0  0  0  0  0
  -13.0883   22.5733    1.9764 P   0  0  2  0  0  5  0  0  0  0  0  0
  -13.9748   22.3779    3.1878 O   0  0  0  0  0  0  0  0  0  0  0  0
  -11.7124   21.6292    2.1764 O   0  0  0  0  0  0  0  0  0  0  0  0
  -12.6547   24.2250    1.9641 O   0  0  0  0  0  0  0  0  0  0  0  0
  -13.8906   22.2428    0.5405 O   0  0  0  0  0  0  0  0  0  0  0  0
  -13.9934   23.3270   -0.2949 C   0  0  0  0  0  0  0  0  0  0  0  0
  -14.9968   23.0422   -1.3723 C   0  0  1  0  0  0  0  0  0  0  0  0
  -14.6152   21.9894   -2.1987 O   0  0  0  0  0  0  0  0  0  0  0  0
  -16.3137   22.5339   -0.8257 C   0  0  1  0  0  0  0  0  0  0  0  0
  -17.0946   23.5675   -0.3107 O   0  0  0  0  0  0  0  0  0  0  0  0
  -16.9399   21.9729   -2.1019 C   0  0  0  0  0  0  0  0  0  0  0  0
  -15.7218   21.8220   -2.9937 C   0  0  2  0  0  0  0  0  0  0  0  0
  -15.7971   20.5214   -3.6150 N   0  0  0  0  0  0  0  0  0  0  0  0
  -15.6155   19.2962   -3.1034 C   0  0  0  0  0  0  0  0  0  0  0  0
  -15.7887   18.3533   -4.0693 N   0  0  0  0  0  0  0  0  0  0  0  0
  -16.0826   19.0027   -5.1989 C   0  0  0  0  0  0  0  0  0  0  0  0
  -16.3620   18.6279   -6.4972 C   0  0  0  0  0  0  0  0  0  0  0  0
  -16.3761   17.2675   -6.8667 N   0  0  0  0  0  0  0  0  0  0  0  0
  -16.6314   19.5579   -7.4571 N   0  0  0  0  0  0  0  0  0  0  0  0
  -16.6311   20.8533   -7.1626 C   0  0  0  0  0  0  0  0  0  0  0  0
  -16.3624   21.2308   -5.9101 N   0  0  0  0  0  0  0  0  0  0  0  0
  -16.0889   20.3560   -4.9202 C   0  0  0  0  0  0  0  0  0  0  0  0
  1  2  1  1
  1  3  2  0
  1  4  1  0
  8  1  1  0
  5  6  2  0
  5  7  1  1
  5  8  1  0
 12  5  1  0
  9 10  2  0
  9 11  1  1
  9 12  1  0
  9 13  1  0
 13 14  1  0
 15 14  1  1
 15 16  1  0
 15 17  1  0
 16 20  1  0
 17 18  1  6
 17 19  1  0
 19 20  1  0
 20 21  1  1
 21 22  1  0
 21 30  1  0
 22 23  2  0
 23 24  1  0
 24 25  1  0
 24 30  2  0
 25 26  1  0
 25 27  2  0
 27 28  1  0
 28 29  2  0
 29 30  1  0
M  END
$$$$
