
     RDKit          3D

 30 32  0  0  0  0  0  0  0  0999 V2000
  -13.8085   24.1639    5.0647 P   0  0  2  0  0  5  0  0  0  0  0  0
  -12.1744   24.3306    5.3970 O   0  0  0  0  0  0  0  0  0  0  0  0
  -14.1989   25.1664    3.9772 O   0  0  0  0  0  0  0  0  0  0  0  0
  -14.6839   24.4990    6.4718 O   0  0  0  0  0  0  0  0  0  0  0  0
  -13.9100   22.4231    2.8856 P   0  0  1  0  0  5  0  0  0  0  0  0
  -13.9700   20.9830    2.4596 O   0  0  0  0  0  0  0  0  0  0  0  0
  -14.9993   23.3383    1.9720 O   0  0  0  0  0  0  0  0  0  0  0  0
  -14.1482   22.6138    4.5399 O   0  0  0  0  0  0  0  0  0  0  0  0
  -12.4262   24.1106    1.2184 P   0  0  2  0  0  5  0  0  0  0  0  0
  -13.2617   25.2725    1.7119 O   0  0  0  0  0  0  0  0  0  0  0  0
  -13.2202   23.4114   -0.0872 O   0  0  0  0  0  0  0  0  0  0  0  0
  -12.3508   22.9952    2.5092 O   0  0  0  0  0  0  0  0  0  0  0  0
  -10.8562   24.5692    0.8444 O   0  0  0  0  0  0  0  0  0  0  0  0
   -9.9529   24.3064    1.8439 C   0  0  0  0  0  0  0  0  0  0  0  0
   -8.7383   23.6430    1.2666 C   0  0  1  0  0  0  0  0  0  0  0  0
   -9.0371   22.4567    0.6030 O   0  0  0  0  0  0  0  0  0  0  0  0
   -8.0990   24.4542    0.1600 C   0  0  1  0  0  0  0  0  0  0  0  0
   -7.3381   25.5083    0.6634 O   0  0  0  0  0  0  0  0  0  0  0  0
   -7.1965   23.3933   -0.4689 C   0  0  0  0  0  0  0  0  0  0  0  0
   -7.8278   22.1151    0.0501 C   0  0  2  0  0  0  0  0  0  0  0  0
   -7.9371   21.2021   -1.0625 N   0  0  0  0  0  0  0  0  0  0  0  0
   -8.3282   21.4082   -2.3275 C   0  0  0  0  0  0  0  0  0  0  0  0
   -8.2720   20.2452   -3.0321 N   0  0  0  0  0  0  0  0  0  0  0  0
   -7.8392   19.3015   -2.1916 C   0  0  0  0  0  0  0  0  0  0  0  0
   -7.5767   17.9505   -2.2909 C   0  0  0  0  0  0  0  0  0  0  0  0
   -7.7646   17.2681   -3.5100 N   0  0  0  0  0  0  0  0  0  0  0  0
   -7.1296   17.2384   -1.2175 N   0  0  0  0  0  0  0  0  0  0  0  0
   -6.9356   17.8326   -0.0453 C   0  0  0  0  0  0  0  0  0  0  0  0
   -7.1856   19.1397    0.0656 N   0  0  0  0  0  0  0  0  0  0  0  0
   -7.6289   19.8940   -0.9613 C   0  0  0  0  0  0  0  0  0  0  0  0
  1  2  1  1
  1  3  2  0
  1  4  1  0
  8  1  1  0
  5  6  2  0
  5  7  1  6
  5  8  1  0
 12  5  1  0
  9 10  2  0
  9 11  1  6
  9 12  1  0
  9 13  1  0
 13 14  1  0
 15 14  1  6
 15 16  1  0
 15 17  1  0
 16 20  1  0
 17 18  1  1
 17 19  1  0
 19 20  1  0
 20 21  1  6
 21 22  1  0
 21 30  1  0
 22 23  2  0
 23 24  1  0
 24 25  1  0
 24 30  2  0
 25 26  1  0
 25 27  2  0
 27 28  1  0
 28 29  2  0
 29 30  1  0
M  END
$$$$
