
     RDKit          3D

 42 43  0  0  0  0  0  0  0  0999 V2000
   14.0967   -7.1227  -13.8116 N   0  0  0  0  0  4  0  0  0  0  0  0
   14.4448   -8.4587  -14.1869 C   0  0  2  0  0  0  0  0  0  0  0  0
   13.6854   -9.5443  -13.5900 C   0  0  0  0  0  0  0  0  0  0  0  0
   12.8142   -9.1625  -12.7109 O   0  0  0  0  0  0  0  0  0  0  0  0
   15.9506   -8.6931  -14.0900 C   0  0  0  0  0  0  0  0  0  0  0  0
   16.3776   -8.7930  -12.6487 C   0  0  0  0  0  0  0  0  0  0  0  0
   17.3234   -9.7038  -12.2451 C   0  0  0  0  0  0  0  0  0  0  0  0
   15.8140   -7.9480  -11.7281 C   0  0  0  0  0  0  0  0  0  0  0  0
   17.6822   -9.7434  -10.9164 C   0  0  0  0  0  0  0  0  0  0  0  0
   16.1778   -7.9998  -10.4250 C   0  0  0  0  0  0  0  0  0  0  0  0
   17.1286   -8.9010   -9.9662 C   0  0  0  0  0  0  0  0  0  0  0  0
   13.7288  -10.9295  -13.7981 N   0  0  0  0  0  0  0  0  0  0  0  0
   12.8733  -11.9578  -13.2230 C   0  0  2  0  0  0  0  0  0  0  0  0
   13.4714  -12.6726  -12.0830 C   0  0  0  0  0  0  0  0  0  0  0  0
   14.7331  -12.6869  -11.9711 O   0  0  0  0  0  0  0  0  0  0  0  0
   12.7103  -12.9389  -14.3591 C   0  0  0  0  0  0  0  0  0  0  0  0
   14.0964  -13.0167  -14.9070 C   0  0  0  0  0  0  0  0  0  0  0  0
   14.6612  -11.6306  -14.6582 C   0  0  0  0  0  0  0  0  0  0  0  0
   12.7441  -13.3609  -11.0787 N   0  0  0  0  0  0  0  0  0  0  0  0
   13.2976  -13.6418   -9.7703 C   0  0  2  0  0  0  0  0  0  0  0  0
   14.0689  -14.9156   -9.7336 C   0  0  0  0  0  0  0  0  0  0  0  0
   13.4971  -16.0307   -9.7843 O   0  0  0  0  0  0  0  0  0  0  0  0
   12.3365  -13.5808   -8.6472 C   0  0  0  0  0  0  0  0  0  0  0  0
   15.4717  -14.8700   -9.6439 N   0  0  0  0  0  0  0  0  0  0  0  0
   16.2762  -15.9371   -9.0432 C   0  0  1  0  0  0  0  0  0  0  0  0
   17.7061  -15.6725   -9.5216 C   0  0  1  0  0  0  0  0  0  0  0  0
   17.6616  -15.7596  -11.0498 C   0  0  0  0  0  0  0  0  0  0  0  0
   18.1309  -14.4008   -9.2174 O   0  0  0  0  0  0  0  0  0  0  0  0
   19.7030  -14.0490   -9.6589 P   0  0  2  0  0  5  0  0  0  0  0  0
   19.7667  -13.3415  -11.2154 O   0  0  0  0  0  0  0  0  0  0  0  0
   20.6527  -15.2061   -9.5466 O   0  0  0  0  0  0  0  0  0  0  0  0
   20.2732  -12.8642   -8.5614 O   0  0  0  0  0  0  0  0  0  0  0  0
   16.2676  -15.8184   -7.5761 C   0  0  0  0  0  0  0  0  0  0  0  0
   16.1401  -14.7608   -6.9519 O   0  0  0  0  0  0  0  0  0  0  0  0
   16.4201  -17.0335   -6.8086 N   0  0  0  0  0  0  0  0  0  0  0  0
   16.6076  -17.0654   -5.3879 C   0  0  2  0  0  0  0  0  0  0  0  0
   18.0460  -17.2462   -5.0713 C   0  0  0  0  0  0  0  0  0  0  0  0
   18.4070  -17.2147   -3.8760 O   0  0  0  0  0  0  0  0  0  0  0  0
   15.8299  -18.3028   -4.8951 C   0  0  1  0  0  0  0  0  0  0  0  0
   15.3777  -19.1211   -6.0661 C   0  0  0  0  0  0  0  0  0  0  0  0
   16.7461  -19.0964   -3.9965 C   0  0  0  0  0  0  0  0  0  0  0  0
   18.9507  -17.4422   -6.0747 O   0  0  0  0  0  0  0  0  0  0  0  0
  2  1  1  1
  2  3  1  0
  2  5  1  0
  3  4  2  0
  3 12  1  0
  5  6  1  0
  6  7  2  0
  6  8  1  0
  7  9  1  0
  8 10  2  0
  9 11  2  0
 10 11  1  0
 12 13  1  0
 12 18  1  0
 13 14  1  1
 13 16  1  0
 14 15  2  0
 14 19  1  0
 16 17  1  0
 17 18  1  0
 19 20  1  0
 20 21  1  0
 20 23  1  1
 21 22  2  0
 21 24  1  0
 25 24  1  6
 25 26  1  0
 25 33  1  0
 26 27  1  6
 26 28  1  0
 28 29  1  0
 29 30  1  6
 29 31  2  0
 29 32  1  0
 33 34  2  0
 33 35  1  0
 36 35  1  6
 36 37  1  0
 36 39  1  0
 37 38  2  0
 37 42  1  0
 39 40  1  6
 39 41  1  0
M  CHG  1   1   1
M  END
$$$$
