
     RDKit          3D

 42 43  0  0  0  0  0  0  0  0999 V2000
   12.7473    9.6563   16.2485 N   0  0  0  0  0  4  0  0  0  0  0  0
   13.5475   10.5445   15.4627 C   0  0  2  0  0  0  0  0  0  0  0  0
   13.0226   10.9589   14.1726 C   0  0  0  0  0  0  0  0  0  0  0  0
   12.6095    9.9824   13.4287 O   0  0  0  0  0  0  0  0  0  0  0  0
   14.9914   10.0575   15.3632 C   0  0  0  0  0  0  0  0  0  0  0  0
   15.3422    9.1999   16.5510 C   0  0  0  0  0  0  0  0  0  0  0  0
   14.4406    8.9780   17.5634 C   0  0  0  0  0  0  0  0  0  0  0  0
   16.5848    8.6242   16.6118 C   0  0  0  0  0  0  0  0  0  0  0  0
   14.8126    8.1770   18.6197 C   0  0  0  0  0  0  0  0  0  0  0  0
   16.9352    7.8390   17.6577 C   0  0  0  0  0  0  0  0  0  0  0  0
   16.0613    7.5832   18.7053 C   0  0  0  0  0  0  0  0  0  0  0  0
   12.8842   12.2271   13.5925 N   0  0  0  0  0  0  0  0  0  0  0  0
   12.2993   12.5738   12.3049 C   0  0  2  0  0  0  0  0  0  0  0  0
   13.2860   12.8071   11.2370 C   0  0  0  0  0  0  0  0  0  0  0  0
   14.3086   13.5072   11.4991 O   0  0  0  0  0  0  0  0  0  0  0  0
   11.5988   13.8805   12.5905 C   0  0  0  0  0  0  0  0  0  0  0  0
   12.6026   14.5969   13.4311 C   0  0  0  0  0  0  0  0  0  0  0  0
   13.3056   13.4820   14.1828 C   0  0  0  0  0  0  0  0  0  0  0  0
   13.1898   12.3071    9.9134 N   0  0  0  0  0  0  0  0  0  0  0  0
   14.1323   12.6666    8.8743 C   0  0  2  0  0  0  0  0  0  0  0  0
   14.6832   14.0397    9.0477 C   0  0  0  0  0  0  0  0  0  0  0  0
   14.0781   14.9097    9.7185 O   0  0  0  0  0  0  0  0  0  0  0  0
   13.6568   12.4660    7.4878 C   0  0  0  0  0  0  0  0  0  0  0  0
   15.9125   14.3701    8.4498 N   0  0  0  0  0  0  0  0  0  0  0  0
   16.4903   15.7160    8.4853 C   0  0  1  0  0  0  0  0  0  0  0  0
   17.6466   15.6248    9.4843 C   0  0  1  0  0  0  0  0  0  0  0  0
   17.0922   16.1347   10.8176 C   0  0  0  0  0  0  0  0  0  0  0  0
   18.0474   14.3276    9.7011 O   0  0  0  0  0  0  0  0  0  0  0  0
   19.4889   14.1548   10.5270 P   0  0  2  0  0  5  0  0  0  0  0  0
   19.8386   12.5069   10.8266 O   0  0  0  0  0  0  0  0  0  0  0  0
   19.5855   14.9699   11.7839 O   0  0  0  0  0  0  0  0  0  0  0  0
   20.7254   14.7353    9.4938 O   0  0  0  0  0  0  0  0  0  0  0  0
   17.0608   16.0613    7.1731 C   0  0  0  0  0  0  0  0  0  0  0  0
   17.5494   15.2525    6.3783 O   0  0  0  0  0  0  0  0  0  0  0  0
   17.0475   17.4538    6.7864 N   0  0  0  0  0  0  0  0  0  0  0  0
   17.5316   17.9404    5.5282 C   0  0  2  0  0  0  0  0  0  0  0  0
   17.9355   19.3625    5.6571 C   0  0  0  0  0  0  0  0  0  0  0  0
   18.4523   19.9322    4.6731 O   0  0  0  0  0  0  0  0  0  0  0  0
   16.3344   17.8487    4.5601 C   0  0  1  0  0  0  0  0  0  0  0  0
   15.5186   19.1034    4.6371 C   0  0  0  0  0  0  0  0  0  0  0  0
   16.8801   17.6375    3.1694 C   0  0  0  0  0  0  0  0  0  0  0  0
   17.7423   20.0272    6.8338 O   0  0  0  0  0  0  0  0  0  0  0  0
  2  1  1  6
  2  3  1  0
  2  5  1  0
  3  4  2  0
  3 12  1  0
  5  6  1  0
  6  7  2  0
  6  8  1  0
  7  9  1  0
  8 10  2  0
  9 11  2  0
 10 11  1  0
 12 13  1  0
 12 18  1  0
 13 14  1  6
 13 16  1  0
 14 15  2  0
 14 19  1  0
 16 17  1  0
 17 18  1  0
 19 20  1  0
 20 21  1  0
 20 23  1  6
 21 22  2  0
 21 24  1  0
 25 24  1  6
 25 26  1  0
 25 33  1  0
 26 27  1  1
 26 28  1  0
 28 29  1  0
 29 30  1  1
 29 31  2  0
 29 32  1  0
 33 34  2  0
 33 35  1  0
 36 35  1  1
 36 37  1  0
 36 39  1  0
 37 38  2  0
 37 42  1  0
 39 40  1  6
 39 41  1  0
M  CHG  1   1   1
M  END
$$$$
