
     RDKit          3D

 42 43  0  0  0  0  0  0  0  0999 V2000
   10.9038   -7.9742  -14.5983 N   0  0  0  0  0  4  0  0  0  0  0  0
   10.4784   -9.2275  -14.0551 C   0  0  2  0  0  0  0  0  0  0  0  0
   11.3686   -9.8910  -13.1178 C   0  0  0  0  0  0  0  0  0  0  0  0
   12.5815   -9.4367  -13.1247 O   0  0  0  0  0  0  0  0  0  0  0  0
    9.9900  -10.1748  -15.1487 C   0  0  0  0  0  0  0  0  0  0  0  0
   11.1578  -10.8174  -15.8506 C   0  0  0  0  0  0  0  0  0  0  0  0
   12.4281  -10.3067  -15.7383 C   0  0  0  0  0  0  0  0  0  0  0  0
   10.9432  -11.9402  -16.6072 C   0  0  0  0  0  0  0  0  0  0  0  0
   13.4591  -10.9416  -16.3940 C   0  0  0  0  0  0  0  0  0  0  0  0
   11.9679  -12.5528  -17.2459 C   0  0  0  0  0  0  0  0  0  0  0  0
   13.2694  -12.0773  -17.1643 C   0  0  0  0  0  0  0  0  0  0  0  0
   11.1465  -10.9340  -12.2085 N   0  0  0  0  0  0  0  0  0  0  0  0
   12.0049  -11.3854  -11.1225 C   0  0  2  0  0  0  0  0  0  0  0  0
   12.8040  -12.5805  -11.4415 C   0  0  0  0  0  0  0  0  0  0  0  0
   12.5694  -13.6528  -10.8093 O   0  0  0  0  0  0  0  0  0  0  0  0
   11.0186  -11.7552  -10.0407 C   0  0  0  0  0  0  0  0  0  0  0  0
    9.9619  -12.4732  -10.8123 C   0  0  0  0  0  0  0  0  0  0  0  0
    9.9785  -11.7913  -12.1676 C   0  0  0  0  0  0  0  0  0  0  0  0
   13.8346  -12.6375  -12.4140 N   0  0  0  0  0  0  0  0  0  0  0  0
   15.1931  -13.0188  -12.0880 C   0  0  2  0  0  0  0  0  0  0  0  0
   15.2673  -13.9388  -10.9187 C   0  0  0  0  0  0  0  0  0  0  0  0
   14.2470  -14.2381  -10.2535 O   0  0  0  0  0  0  0  0  0  0  0  0
   16.1476  -11.8992  -11.9329 C   0  0  0  0  0  0  0  0  0  0  0  0
   16.5084  -14.4893  -10.5520 N   0  0  0  0  0  0  0  0  0  0  0  0
   16.6599  -15.5222   -9.5240 C   0  0  1  0  0  0  0  0  0  0  0  0
   18.1088  -15.9995   -9.6524 C   0  0  1  0  0  0  0  0  0  0  0  0
   18.9103  -14.7869  -10.1345 C   0  0  0  0  0  0  0  0  0  0  0  0
   18.6471  -16.3639   -8.4408 O   0  0  0  0  0  0  0  0  0  0  0  0
   20.3070  -16.5498   -8.4246 P   0  0  2  0  0  5  0  0  0  0  0  0
   20.8602  -17.0507   -6.8849 O   0  0  0  0  0  0  0  0  0  0  0  0
   21.0701  -15.3540   -8.9157 O   0  0  0  0  0  0  0  0  0  0  0  0
   20.6745  -17.8212   -9.5117 O   0  0  0  0  0  0  0  0  0  0  0  0
   16.5008  -14.9354   -8.1835 C   0  0  0  0  0  0  0  0  0  0  0  0
   16.1894  -13.7624   -7.9564 O   0  0  0  0  0  0  0  0  0  0  0  0
   16.7265  -15.7993   -7.0471 N   0  0  0  0  0  0  0  0  0  0  0  0
   16.4589  -15.4241   -5.6899 C   0  0  2  0  0  0  0  0  0  0  0  0
   17.1888  -16.3239   -4.7628 C   0  0  0  0  0  0  0  0  0  0  0  0
   17.9323  -17.2058   -5.2419 O   0  0  0  0  0  0  0  0  0  0  0  0
   14.9431  -15.6308   -5.4941 C   0  0  1  0  0  0  0  0  0  0  0  0
   14.6527  -15.9487   -4.0587 C   0  0  0  0  0  0  0  0  0  0  0  0
   14.2448  -14.3644   -5.9243 C   0  0  0  0  0  0  0  0  0  0  0  0
   17.0435  -16.1830   -3.4127 O   0  0  0  0  0  0  0  0  0  0  0  0
  2  1  1  6
  2  3  1  0
  2  5  1  0
  3  4  2  0
  3 12  1  0
  5  6  1  0
  6  7  2  0
  6  8  1  0
  7  9  1  0
  8 10  2  0
  9 11  2  0
 10 11  1  0
 12 13  1  0
 12 18  1  0
 13 14  1  6
 13 16  1  0
 14 15  2  0
 14 19  1  0
 16 17  1  0
 17 18  1  0
 19 20  1  0
 20 21  1  0
 20 23  1  1
 21 22  2  0
 21 24  1  0
 25 24  1  6
 25 26  1  0
 25 33  1  0
 26 27  1  1
 26 28  1  0
 28 29  1  0
 29 30  1  1
 29 31  2  0
 29 32  1  0
 33 34  2  0
 33 35  1  0
 36 35  1  6
 36 37  1  0
 36 39  1  0
 37 38  2  0
 37 42  1  0
 39 40  1  1
 39 41  1  0
M  CHG  1   1   1
M  END
$$$$
