
     RDKit          3D

 42 43  0  0  0  0  0  0  0  0999 V2000
   13.1533    7.8682   16.2923 N   0  0  0  0  0  4  0  0  0  0  0  0
   13.9241    8.8754   15.6303 C   0  0  2  0  0  0  0  0  0  0  0  0
   13.2011    9.9317   14.9426 C   0  0  0  0  0  0  0  0  0  0  0  0
   12.1714    9.5214   14.2726 O   0  0  0  0  0  0  0  0  0  0  0  0
   15.0118    8.2610   14.7520 C   0  0  0  0  0  0  0  0  0  0  0  0
   14.4331    7.1852   13.8703 C   0  0  0  0  0  0  0  0  0  0  0  0
   13.1060    6.8383   13.9435 C   0  0  0  0  0  0  0  0  0  0  0  0
   15.2510    6.5504   12.9718 C   0  0  0  0  0  0  0  0  0  0  0  0
   12.6298    5.8548   13.1058 C   0  0  0  0  0  0  0  0  0  0  0  0
   14.7671    5.5850   12.1550 C   0  0  0  0  0  0  0  0  0  0  0  0
   13.4346    5.1981   12.1892 C   0  0  0  0  0  0  0  0  0  0  0  0
   13.4209   11.3142   14.8770 N   0  0  0  0  0  0  0  0  0  0  0  0
   12.5929   12.3328   14.2471 C   0  0  2  0  0  0  0  0  0  0  0  0
   13.0651   12.7581   12.9188 C   0  0  0  0  0  0  0  0  0  0  0  0
   14.2919   12.6150   12.6373 O   0  0  0  0  0  0  0  0  0  0  0  0
   12.7217   13.5059   15.1889 C   0  0  0  0  0  0  0  0  0  0  0  0
   14.1797   13.4932   15.5076 C   0  0  0  0  0  0  0  0  0  0  0  0
   14.5497   12.0230   15.4464 C   0  0  0  0  0  0  0  0  0  0  0  0
   12.2506   13.3260   11.9062 N   0  0  0  0  0  0  0  0  0  0  0  0
   12.7259   13.5455   10.5559 C   0  0  2  0  0  0  0  0  0  0  0  0
   13.6450   14.7133   10.4525 C   0  0  0  0  0  0  0  0  0  0  0  0
   13.3975   15.7967   11.0340 O   0  0  0  0  0  0  0  0  0  0  0  0
   11.6760   13.6137    9.5159 C   0  0  0  0  0  0  0  0  0  0  0  0
   14.8205   14.6001    9.6889 N   0  0  0  0  0  0  0  0  0  0  0  0
   15.6524   15.7468    9.3150 C   0  0  1  0  0  0  0  0  0  0  0  0
   16.9872   15.5175   10.0285 C   0  0  1  0  0  0  0  0  0  0  0  0
   16.6959   15.6666   11.5245 C   0  0  0  0  0  0  0  0  0  0  0  0
   17.4607   14.2390    9.8507 O   0  0  0  0  0  0  0  0  0  0  0  0
   19.0681   14.0122   10.2443 P   0  0  2  0  0  5  0  0  0  0  0  0
   19.7397   12.6987    9.3777 O   0  0  0  0  0  0  0  0  0  0  0  0
   19.3349   13.8877   11.7163 O   0  0  0  0  0  0  0  0  0  0  0  0
   19.9071   15.4144    9.7312 O   0  0  0  0  0  0  0  0  0  0  0  0
   15.9136   15.7371    7.8664 C   0  0  0  0  0  0  0  0  0  0  0  0
   15.5467   14.8530    7.0866 O   0  0  0  0  0  0  0  0  0  0  0  0
   16.6562   16.8481    7.3160 N   0  0  0  0  0  0  0  0  0  0  0  0
   17.0069   16.9699    5.9316 C   0  0  2  0  0  0  0  0  0  0  0  0
   18.4792   17.0911    5.7912 C   0  0  0  0  0  0  0  0  0  0  0  0
   18.9698   17.1639    4.6449 O   0  0  0  0  0  0  0  0  0  0  0  0
   16.3514   18.2810    5.4520 C   0  0  1  0  0  0  0  0  0  0  0  0
   14.9084   18.0410    5.1267 C   0  0  0  0  0  0  0  0  0  0  0  0
   16.4997   19.3015    6.5535 C   0  0  0  0  0  0  0  0  0  0  0  0
   19.2745   17.1211    6.9004 O   0  0  0  0  0  0  0  0  0  0  0  0
  2  1  1  6
  2  3  1  0
  2  5  1  0
  3  4  2  0
  3 12  1  0
  5  6  1  0
  6  7  2  0
  6  8  1  0
  7  9  1  0
  8 10  2  0
  9 11  2  0
 10 11  1  0
 12 13  1  0
 12 18  1  0
 13 14  1  6
 13 16  1  0
 14 15  2  0
 14 19  1  0
 16 17  1  0
 17 18  1  0
 19 20  1  0
 20 21  1  0
 20 23  1  6
 21 22  2  0
 21 24  1  0
 25 24  1  6
 25 26  1  0
 25 33  1  0
 26 27  1  1
 26 28  1  0
 28 29  1  0
 29 30  1  6
 29 31  2  0
 29 32  1  0
 33 34  2  0
 33 35  1  0
 36 35  1  1
 36 37  1  0
 36 39  1  0
 37 38  2  0
 37 42  1  0
 39 40  1  1
 39 41  1  0
M  CHG  1   1   1
M  END
$$$$
