
     RDKit          3D

 42 43  0  0  0  0  0  0  0  0999 V2000
   10.8359    8.7012   15.2481 N   0  0  0  0  0  4  0  0  0  0  0  0
   11.6857    9.8016   14.9103 C   0  0  2  0  0  0  0  0  0  0  0  0
   11.9453   10.0428   13.5011 C   0  0  0  0  0  0  0  0  0  0  0  0
   12.7111    9.1597   12.9433 O   0  0  0  0  0  0  0  0  0  0  0  0
   12.9709    9.7902   15.7350 C   0  0  0  0  0  0  0  0  0  0  0  0
   12.9102   10.8323   16.8212 C   0  0  0  0  0  0  0  0  0  0  0  0
   11.7552   11.5301   17.0784 C   0  0  0  0  0  0  0  0  0  0  0  0
   14.0313   11.0774   17.5710 C   0  0  0  0  0  0  0  0  0  0  0  0
   11.7553   12.4638   18.0903 C   0  0  0  0  0  0  0  0  0  0  0  0
   14.0149   11.9992   18.5626 C   0  0  0  0  0  0  0  0  0  0  0  0
   12.8740   12.7304   18.8627 C   0  0  0  0  0  0  0  0  0  0  0  0
   11.5132   11.0606   12.6402 N   0  0  0  0  0  0  0  0  0  0  0  0
   11.7029   11.1689   11.2006 C   0  0  2  0  0  0  0  0  0  0  0  0
   12.8023   12.0640   10.8024 C   0  0  0  0  0  0  0  0  0  0  0  0
   12.9107   13.1855   11.3812 O   0  0  0  0  0  0  0  0  0  0  0  0
   10.4052   11.7819   10.7317 C   0  0  0  0  0  0  0  0  0  0  0  0
   10.1624   12.8305   11.7657 C   0  0  0  0  0  0  0  0  0  0  0  0
   10.7644   12.2398   13.0271 C   0  0  0  0  0  0  0  0  0  0  0  0
   13.7702   11.7751    9.8069 N   0  0  0  0  0  0  0  0  0  0  0  0
   15.1523   12.1924    9.9197 C   0  0  2  0  0  0  0  0  0  0  0  0
   15.3695   13.5927    9.4601 C   0  0  0  0  0  0  0  0  0  0  0  0
   14.4506   14.4455    9.4970 O   0  0  0  0  0  0  0  0  0  0  0  0
   16.1434   11.2817    9.3057 C   0  0  0  0  0  0  0  0  0  0  0  0
   16.6348   13.9714    8.9768 N   0  0  0  0  0  0  0  0  0  0  0  0
   16.9572   15.3329    8.5421 C   0  0  1  0  0  0  0  0  0  0  0  0
   18.4071   15.5558    8.9800 C   0  0  1  0  0  0  0  0  0  0  0  0
   18.3332   16.2673   10.3340 C   0  0  0  0  0  0  0  0  0  0  0  0
   19.0735   14.3733    9.1986 O   0  0  0  0  0  0  0  0  0  0  0  0
   20.7345   14.5022    9.3200 P   0  0  2  0  0  5  0  0  0  0  0  0
   21.3766   15.4584    8.0547 O   0  0  0  0  0  0  0  0  0  0  0  0
   21.4525   13.1885    9.4288 O   0  0  0  0  0  0  0  0  0  0  0  0
   21.0619   15.3395   10.7777 O   0  0  0  0  0  0  0  0  0  0  0  0
   16.9160   15.4230    7.0735 C   0  0  0  0  0  0  0  0  0  0  0  0
   17.7665   14.9540    6.3111 O   0  0  0  0  0  0  0  0  0  0  0  0
   15.7938   16.1134    6.4797 N   0  0  0  0  0  0  0  0  0  0  0  0
   15.6458   16.3389    5.0720 C   0  0  2  0  0  0  0  0  0  0  0  0
   16.7865   17.1414    4.5653 C   0  0  0  0  0  0  0  0  0  0  0  0
   17.5159   17.7351    5.3873 O   0  0  0  0  0  0  0  0  0  0  0  0
   14.3507   17.1622    4.9182 C   0  0  1  0  0  0  0  0  0  0  0  0
   14.2566   17.7102    3.5266 C   0  0  0  0  0  0  0  0  0  0  0  0
   13.1863   16.2534    5.2263 C   0  0  0  0  0  0  0  0  0  0  0  0
   17.0261   17.2237    3.2238 O   0  0  0  0  0  0  0  0  0  0  0  0
  2  1  1  6
  2  3  1  0
  2  5  1  0
  3  4  2  0
  3 12  1  0
  5  6  1  0
  6  7  2  0
  6  8  1  0
  7  9  1  0
  8 10  2  0
  9 11  2  0
 10 11  1  0
 12 13  1  0
 12 18  1  0
 13 14  1  1
 13 16  1  0
 14 15  2  0
 14 19  1  0
 16 17  1  0
 17 18  1  0
 19 20  1  0
 20 21  1  0
 20 23  1  6
 21 22  2  0
 21 24  1  0
 25 24  1  6
 25 26  1  0
 25 33  1  0
 26 27  1  1
 26 28  1  0
 28 29  1  0
 29 30  1  6
 29 31  2  0
 29 32  1  0
 33 34  2  0
 33 35  1  0
 36 35  1  1
 36 37  1  0
 36 39  1  0
 37 38  2  0
 37 42  1  0
 39 40  1  6
 39 41  1  0
M  CHG  1   1   1
M  END
$$$$
