
     RDKit          3D

 42 43  0  0  0  0  0  0  0  0999 V2000
    9.8319   -9.3038  -13.1006 N   0  0  0  0  0  4  0  0  0  0  0  0
   11.1830   -9.7178  -12.8771 C   0  0  2  0  0  0  0  0  0  0  0  0
   11.5013  -11.1190  -13.0935 C   0  0  0  0  0  0  0  0  0  0  0  0
   10.4820  -11.9140  -13.0123 O   0  0  0  0  0  0  0  0  0  0  0  0
   11.7088   -9.2123  -11.5355 C   0  0  0  0  0  0  0  0  0  0  0  0
   11.1559  -10.0414  -10.4057 C   0  0  0  0  0  0  0  0  0  0  0  0
   10.0189  -10.7960  -10.5630 C   0  0  0  0  0  0  0  0  0  0  0  0
   11.8112  -10.0460   -9.2016 C   0  0  0  0  0  0  0  0  0  0  0  0
    9.5651  -11.5423   -9.4986 C   0  0  0  0  0  0  0  0  0  0  0  0
   11.3518  -10.7854   -8.1646 C   0  0  0  0  0  0  0  0  0  0  0  0
   10.2084  -11.5649   -8.2719 C   0  0  0  0  0  0  0  0  0  0  0  0
   12.7149  -11.7608  -13.3750 N   0  0  0  0  0  0  0  0  0  0  0  0
   12.9532  -13.1751  -13.6263 C   0  0  2  0  0  0  0  0  0  0  0  0
   13.4729  -13.9154  -12.4643 C   0  0  0  0  0  0  0  0  0  0  0  0
   14.0650  -13.2695  -11.5496 O   0  0  0  0  0  0  0  0  0  0  0  0
   14.0259  -13.1556  -14.6887 C   0  0  0  0  0  0  0  0  0  0  0  0
   14.9396  -12.0852  -14.1917 C   0  0  0  0  0  0  0  0  0  0  0  0
   14.0109  -11.1200  -13.4790 C   0  0  0  0  0  0  0  0  0  0  0  0
   13.3670  -15.3170  -12.2756 N   0  0  0  0  0  0  0  0  0  0  0  0
   13.4385  -15.9346  -10.9677 C   0  0  2  0  0  0  0  0  0  0  0  0
   14.8358  -16.2414  -10.5522 C   0  0  0  0  0  0  0  0  0  0  0  0
   15.6151  -16.8846  -11.2951 O   0  0  0  0  0  0  0  0  0  0  0  0
   12.5651  -17.1127  -10.7726 C   0  0  0  0  0  0  0  0  0  0  0  0
   15.2960  -15.7973   -9.2997 N   0  0  0  0  0  0  0  0  0  0  0  0
   16.6035  -16.1594   -8.7466 C   0  0  1  0  0  0  0  0  0  0  0  0
   17.3389  -14.8292   -8.5644 C   0  0  1  0  0  0  0  0  0  0  0  0
   17.5545  -14.2709   -9.9741 C   0  0  0  0  0  0  0  0  0  0  0  0
   16.5797  -13.9014   -7.8913 O   0  0  0  0  0  0  0  0  0  0  0  0
   17.3431  -12.4501   -7.5733 P   0  0  2  0  0  5  0  0  0  0  0  0
   17.5266  -11.5205   -8.9980 O   0  0  0  0  0  0  0  0  0  0  0  0
   18.6446  -12.5819   -6.8369 O   0  0  0  0  0  0  0  0  0  0  0  0
   16.3064  -11.5600   -6.5408 O   0  0  0  0  0  0  0  0  0  0  0  0
   16.4441  -16.7667   -7.4153 C   0  0  0  0  0  0  0  0  0  0  0  0
   15.3710  -16.8902   -6.8171 O   0  0  0  0  0  0  0  0  0  0  0  0
   17.6353  -17.2558   -6.7592 N   0  0  0  0  0  0  0  0  0  0  0  0
   17.6740  -17.7028   -5.3979 C   0  0  2  0  0  0  0  0  0  0  0  0
   19.0815  -17.8104   -4.9404 C   0  0  0  0  0  0  0  0  0  0  0  0
   19.3054  -18.1486   -3.7591 O   0  0  0  0  0  0  0  0  0  0  0  0
   17.0441  -19.1106   -5.4061 C   0  0  1  0  0  0  0  0  0  0  0  0
   15.5496  -19.0011   -5.3943 C   0  0  0  0  0  0  0  0  0  0  0  0
   17.5288  -19.8263   -6.6428 C   0  0  0  0  0  0  0  0  0  0  0  0
   20.1060  -17.5420   -5.8019 O   0  0  0  0  0  0  0  0  0  0  0  0
  2  1  1  1
  2  3  1  0
  2  5  1  0
  3  4  2  0
  3 12  1  0
  5  6  1  0
  6  7  2  0
  6  8  1  0
  7  9  1  0
  8 10  2  0
  9 11  2  0
 10 11  1  0
 12 13  1  0
 12 18  1  0
 13 14  1  1
 13 16  1  0
 14 15  2  0
 14 19  1  0
 16 17  1  0
 17 18  1  0
 19 20  1  0
 20 21  1  0
 20 23  1  6
 21 22  2  0
 21 24  1  0
 25 24  1  1
 25 26  1  0
 25 33  1  0
 26 27  1  6
 26 28  1  0
 28 29  1  0
 29 30  1  6
 29 31  2  0
 29 32  1  0
 33 34  2  0
 33 35  1  0
 36 35  1  6
 36 37  1  0
 36 39  1  0
 37 38  2  0
 37 42  1  0
 39 40  1  6
 39 41  1  0
M  CHG  1   1   1
M  END
$$$$
