
     RDKit          3D

 45 50  0  0  0  0  0  0  0  0999 V2000
   34.6266   -8.6577   12.8783 C   0  0  0  0  0  0  0  0  0  0  0  0
   33.2630   -8.8365   12.9908 C   0  0  0  0  0  0  0  0  0  0  0  0
   32.6188   -8.8044   14.2085 C   0  0  0  0  0  0  0  0  0  0  0  0
   38.0303   -6.1858   19.6422 C   0  0  0  0  0  0  0  0  0  0  0  0
   37.3362   -4.9777   20.2293 C   0  0  0  0  0  0  0  0  0  0  0  0
   35.2640   -5.5211   19.2612 C   0  0  0  0  0  0  0  0  0  0  0  0
   35.8204   -6.8204   18.7214 C   0  0  0  0  0  0  0  0  0  0  0  0
   32.4292  -10.1564   17.6686 C   0  0  0  0  0  0  0  0  0  0  0  0
   34.7114   -9.1151   10.3901 C   0  0  1  0  0  0  0  0  0  0  0  0
   35.1905   -8.3802    9.2424 C   0  0  0  0  0  0  0  0  0  0  0  0
   34.2659   -7.7714    8.4028 C   0  0  0  0  0  0  0  0  0  0  0  0
   34.6957   -7.0521    7.3010 C   0  0  0  0  0  0  0  0  0  0  0  0
   36.0497   -6.9377    7.0329 C   0  0  0  0  0  0  0  0  0  0  0  0
   36.9812   -7.5333    7.8527 C   0  0  0  0  0  0  0  0  0  0  0  0
   36.5098   -8.2443    8.9456 C   0  0  0  0  0  0  0  0  0  0  0  0
   34.8134  -10.5955   10.3374 C   0  0  0  0  0  0  0  0  0  0  0  0
   33.7075  -11.3611    9.9417 C   0  0  0  0  0  0  0  0  0  0  0  0
   33.8244  -12.7248    9.8981 C   0  0  0  0  0  0  0  0  0  0  0  0
   34.9856  -13.3843   10.2279 C   0  0  0  0  0  0  0  0  0  0  0  0
   36.0487  -12.5931   10.6124 C   0  0  0  0  0  0  0  0  0  0  0  0
   32.5062   -6.6473    7.5173 C   0  0  1  0  0  0  0  0  0  0  0  0
   33.3197   -8.5907   15.3711 C   0  0  0  0  0  0  0  0  0  0  0  0
   34.6808   -8.4103   15.2833 C   0  0  0  0  0  0  0  0  0  0  0  0
   35.3329   -8.4407   14.0722 C   0  0  0  0  0  0  0  0  0  0  0  0
   36.7197   -8.2934   14.0212 N   0  0  0  0  0  0  0  0  0  0  0  0
   32.4771   -8.5596   16.9312 S   0  0  1  0  0  6  0  0  0  0  0  0
   31.0857   -8.0796   16.6243 O   0  0  0  0  0  0  0  0  0  0  0  0
   33.1237   -7.5662   17.8160 O   0  0  0  0  0  0  0  0  0  0  0  0
   35.9264  -11.2682   10.6516 N   0  0  0  0  0  0  0  0  0  0  0  0
   32.1921  -10.5543    9.5406 Cl  0  0  0  0  0  0  0  0  0  0  0  0
   35.3000   -8.6806   11.6522 N   0  0  0  0  0  0  0  0  0  0  0  0
   32.8848   -7.6896    8.3802 O   0  0  0  0  0  0  0  0  0  0  0  0
   33.5973   -6.5456    6.6259 O   0  0  0  0  0  0  0  0  0  0  0  0
   31.3568   -6.9500    6.8094 F   0  0  0  0  0  0  0  0  0  0  0  0
   32.3513   -5.4744    8.2441 F   0  0  0  0  0  0  0  0  0  0  0  0
   37.5728   -7.7571   15.0162 C   0  0  0  0  0  0  0  0  0  0  0  0
   37.0683   -7.4522   16.2465 N   0  0  0  0  0  0  0  0  0  0  0  0
   37.7967   -6.9577   17.2561 C   0  0  0  0  0  0  0  0  0  0  0  0
   39.1048   -6.7531   17.0326 N   0  0  0  0  0  0  0  0  0  0  0  0
   39.6828   -7.0292   15.8424 C   0  0  0  0  0  0  0  0  0  0  0  0
   38.8784   -7.5216   14.8868 N   0  0  0  0  0  0  0  0  0  0  0  0
   41.0342   -6.8181   15.6128 O   0  0  0  0  0  0  0  0  0  0  0  0
   41.6076   -7.3691   14.4561 C   0  0  0  0  0  0  0  0  0  0  0  0
   37.2351   -6.6538   18.5283 N   0  0  0  0  0  0  0  0  0  0  0  0
   35.9341   -5.2804   20.5374 N   0  0  0  0  0  4  0  0  0  0  0  0
  1  2  2  0
 24  1  1  0
  1 31  1  0
  2  3  1  0
 22  3  2  0
  4  5  1  0
 44  4  1  0
  5 45  1  0
  7  6  1  0
  6 45  1  0
 44  7  1  0
 26  8  1  1
  9 10  1  0
  9 16  1  0
  9 31  1  1
 10 11  2  0
 10 15  1  0
 11 12  1  0
 11 32  1  0
 12 13  2  0
 12 33  1  0
 14 13  1  0
 15 14  2  0
 16 17  2  0
 16 29  1  0
 17 18  1  0
 17 30  1  0
 18 19  2  0
 20 19  1  0
 29 20  2  0
 32 21  1  0
 21 33  1  0
 21 34  1  6
 21 35  1  0
 23 22  1  0
 22 26  1  0
 24 23  2  0
 25 24  1  0
 36 25  1  0
 26 27  2  0
 26 28  2  0
 37 36  2  0
 36 41  1  0
 38 37  1  0
 38 39  2  0
 38 44  1  0
 39 40  1  0
 40 41  2  0
 40 42  1  0
 42 43  1  0
M  CHG  1  45   1
M  END
$$$$
