
     RDKit          3D

 45 50  0  0  0  0  0  0  0  0999 V2000
   34.0956   -8.9288   11.0593 C   0  0  0  0  0  0  0  0  0  0  0  0
   33.3205   -8.5559    9.9803 C   0  0  0  0  0  0  0  0  0  0  0  0
   33.6415   -7.4755    9.1874 C   0  0  0  0  0  0  0  0  0  0  0  0
   41.2077   -6.4292   15.0401 C   0  0  0  0  0  0  0  0  0  0  0  0
   42.0196   -7.3350   15.9381 C   0  0  0  0  0  0  0  0  0  0  0  0
   41.6356   -9.2344   14.6073 C   0  0  0  0  0  0  0  0  0  0  0  0
   40.9028   -8.4040   13.5766 C   0  0  0  0  0  0  0  0  0  0  0  0
   35.2096   -3.8365    9.3523 C   0  0  0  0  0  0  0  0  0  0  0  0
   32.6083  -10.8652   11.7269 C   0  0  1  0  0  0  0  0  0  0  0  0
   32.8815  -12.1550   11.1364 C   0  0  0  0  0  0  0  0  0  0  0  0
   31.9532  -12.7000   10.2579 C   0  0  0  0  0  0  0  0  0  0  0  0
   32.1924  -13.9297    9.6690 C   0  0  0  0  0  0  0  0  0  0  0  0
   33.3586  -14.6200    9.9545 C   0  0  0  0  0  0  0  0  0  0  0  0
   34.2905  -14.0969   10.8219 C   0  0  0  0  0  0  0  0  0  0  0  0
   34.0134  -12.8630   11.3904 C   0  0  0  0  0  0  0  0  0  0  0  0
   31.8897  -10.8535   13.0263 C   0  0  0  0  0  0  0  0  0  0  0  0
   30.4926  -10.7393   13.0541 C   0  0  0  0  0  0  0  0  0  0  0  0
   29.8502  -10.7329   14.2634 C   0  0  0  0  0  0  0  0  0  0  0  0
   30.5171  -10.8333   15.4623 C   0  0  0  0  0  0  0  0  0  0  0  0
   31.8906  -10.9432   15.3893 C   0  0  0  0  0  0  0  0  0  0  0  0
   30.4069  -13.0609    8.6384 C   0  0  1  0  0  0  0  0  0  0  0  0
   34.7597   -6.7195    9.4454 C   0  0  0  0  0  0  0  0  0  0  0  0
   35.5474   -7.0724   10.5167 C   0  0  0  0  0  0  0  0  0  0  0  0
   35.2352   -8.1493   11.3142 C   0  0  0  0  0  0  0  0  0  0  0  0
   36.0333   -8.4571   12.4169 N   0  0  0  0  0  0  0  0  0  0  0  0
   35.1552   -5.3277    8.4200 S   0  0  1  0  0  6  0  0  0  0  0  0
   34.0604   -5.2656    7.3912 O   0  0  0  0  0  0  0  0  0  0  0  0
   36.4327   -5.5839    7.7200 O   0  0  0  0  0  0  0  0  0  0  0  0
   32.5069  -10.9490   14.2094 N   0  0  0  0  0  0  0  0  0  0  0  0
   29.6046  -10.5775   11.5397 Cl  0  0  0  0  0  0  0  0  0  0  0  0
   33.7916  -10.0249   11.8738 N   0  0  0  0  0  0  0  0  0  0  0  0
   30.7254  -12.2900    9.7692 O   0  0  0  0  0  0  0  0  0  0  0  0
   31.1311  -14.2567    8.8410 O   0  0  0  0  0  0  0  0  0  0  0  0
   29.0549  -13.3450    8.5667 F   0  0  0  0  0  0  0  0  0  0  0  0
   30.8420  -12.4082    7.4926 F   0  0  0  0  0  0  0  0  0  0  0  0
   36.7992   -7.5679   13.2093 C   0  0  0  0  0  0  0  0  0  0  0  0
   38.1345   -7.7912   13.3774 N   0  0  0  0  0  0  0  0  0  0  0  0
   38.9447   -6.9999   14.0928 C   0  0  0  0  0  0  0  0  0  0  0  0
   38.3982   -5.9215   14.6769 N   0  0  0  0  0  0  0  0  0  0  0  0
   37.0838   -5.6286   14.5593 C   0  0  0  0  0  0  0  0  0  0  0  0
   36.3457   -6.4757   13.8244 N   0  0  0  0  0  0  0  0  0  0  0  0
   36.5204   -4.5141   15.1627 O   0  0  0  0  0  0  0  0  0  0  0  0
   35.2326   -4.1212   14.7659 C   0  0  0  0  0  0  0  0  0  0  0  0
   40.3353   -7.2641   14.2437 N   0  0  0  0  0  0  0  0  0  0  0  0
   42.6876   -8.3815   15.1565 N   0  0  0  0  0  4  0  0  0  0  0  0
  1  2  2  0
 24  1  1  0
  1 31  1  0
  2  3  1  0
 22  3  2  0
  4  5  1  0
 44  4  1  0
  5 45  1  0
  7  6  1  0
  6 45  1  0
 44  7  1  0
 26  8  1  1
  9 10  1  0
  9 16  1  0
  9 31  1  1
 10 11  2  0
 10 15  1  0
 11 12  1  0
 11 32  1  0
 12 13  2  0
 12 33  1  0
 14 13  1  0
 15 14  2  0
 16 17  2  0
 16 29  1  0
 17 18  1  0
 17 30  1  0
 18 19  2  0
 20 19  1  0
 29 20  2  0
 32 21  1  0
 21 33  1  0
 21 34  1  6
 21 35  1  0
 23 22  1  0
 22 26  1  0
 24 23  2  0
 25 24  1  0
 36 25  1  0
 26 27  2  0
 26 28  2  0
 37 36  2  0
 36 41  1  0
 38 37  1  0
 38 39  2  0
 38 44  1  0
 39 40  1  0
 40 41  2  0
 40 42  1  0
 42 43  1  0
M  CHG  1  45   1
M  END
$$$$
