
     RDKit          3D

 45 50  0  0  0  0  0  0  0  0999 V2000
   35.8575   -6.9602   14.7122 C   0  0  0  0  0  0  0  0  0  0  0  0
   34.9034   -7.9534   14.6264 C   0  0  0  0  0  0  0  0  0  0  0  0
   34.1495   -8.3396   15.7132 C   0  0  0  0  0  0  0  0  0  0  0  0
   35.1487   -2.3721   21.1507 C   0  0  0  0  0  0  0  0  0  0  0  0
   33.8270   -1.6384   21.1251 C   0  0  0  0  0  0  0  0  0  0  0  0
   32.7557   -3.3205   19.8804 C   0  0  0  0  0  0  0  0  0  0  0  0
   33.9879   -4.1962   19.9425 C   0  0  0  0  0  0  0  0  0  0  0  0
   33.9348   -9.7740   18.9993 C   0  0  0  0  0  0  0  0  0  0  0  0
   36.7239   -7.2649   12.3534 C   0  0  1  0  0  0  0  0  0  0  0  0
   36.5301   -6.4237   11.1950 C   0  0  0  0  0  0  0  0  0  0  0  0
   35.5526   -6.7711   10.2707 C   0  0  0  0  0  0  0  0  0  0  0  0
   35.3373   -5.9789    9.1561 C   0  0  0  0  0  0  0  0  0  0  0  0
   36.0965   -4.8374    8.9598 C   0  0  0  0  0  0  0  0  0  0  0  0
   37.0693   -4.4763    9.8640 C   0  0  0  0  0  0  0  0  0  0  0  0
   37.2535   -5.2960   10.9669 C   0  0  0  0  0  0  0  0  0  0  0  0
   37.9614   -8.0845   12.3960 C   0  0  0  0  0  0  0  0  0  0  0  0
   37.9560   -9.3898   11.8841 C   0  0  0  0  0  0  0  0  0  0  0  0
   39.1089  -10.1271   11.9316 C   0  0  0  0  0  0  0  0  0  0  0  0
   40.2818   -9.6433   12.4632 C   0  0  0  0  0  0  0  0  0  0  0  0
   40.2427   -8.3552   12.9562 C   0  0  0  0  0  0  0  0  0  0  0  0
   33.6626   -7.4607    9.2236 C   0  0  1  0  0  0  0  0  0  0  0  0
   34.3223   -7.7424   16.9388 C   0  0  0  0  0  0  0  0  0  0  0  0
   35.2686   -6.7497   17.0482 C   0  0  0  0  0  0  0  0  0  0  0  0
   36.0262   -6.3573   15.9689 C   0  0  0  0  0  0  0  0  0  0  0  0
   37.0052   -5.3746   16.1224 N   0  0  0  0  0  0  0  0  0  0  0  0
   33.3494   -8.2558   18.3297 S   0  0  1  0  0  6  0  0  0  0  0  0
   31.9512   -8.4182   17.8011 O   0  0  0  0  0  0  0  0  0  0  0  0
   33.3379   -7.1779   19.3425 O   0  0  0  0  0  0  0  0  0  0  0  0
   39.1178   -7.6454   12.9056 N   0  0  0  0  0  0  0  0  0  0  0  0
   36.4640  -10.0565   11.2223 Cl  0  0  0  0  0  0  0  0  0  0  0  0
   36.6298   -6.5485   13.6207 N   0  0  0  0  0  0  0  0  0  0  0  0
   34.6457   -7.8107   10.1645 O   0  0  0  0  0  0  0  0  0  0  0  0
   34.3210   -6.5280    8.3916 O   0  0  0  0  0  0  0  0  0  0  0  0
   33.2547   -8.5464    8.4694 F   0  0  0  0  0  0  0  0  0  0  0  0
   32.5863   -6.8702    9.8724 F   0  0  0  0  0  0  0  0  0  0  0  0
   37.1634   -4.4677   17.1984 C   0  0  0  0  0  0  0  0  0  0  0  0
   36.1517   -4.3039   18.0989 N   0  0  0  0  0  0  0  0  0  0  0  0
   36.2124   -3.4845   19.1568 C   0  0  0  0  0  0  0  0  0  0  0  0
   37.3447   -2.7849   19.3330 N   0  0  0  0  0  0  0  0  0  0  0  0
   38.3938   -2.8897   18.4871 C   0  0  0  0  0  0  0  0  0  0  0  0
   38.2467   -3.7340   17.4535 N   0  0  0  0  0  0  0  0  0  0  0  0
   39.5633   -2.1670   18.6703 O   0  0  0  0  0  0  0  0  0  0  0  0
   39.4947   -0.9572   19.3789 C   0  0  0  0  0  0  0  0  0  0  0  0
   35.1360   -3.3418   20.0774 N   0  0  0  0  0  0  0  0  0  0  0  0
   32.7053   -2.5839   21.1417 N   0  0  0  0  0  4  0  0  0  0  0  0
  1  2  2  0
 24  1  1  0
  1 31  1  0
  2  3  1  0
 22  3  2  0
  4  5  1  0
 44  4  1  0
  5 45  1  0
  7  6  1  0
  6 45  1  0
 44  7  1  0
 26  8  1  1
  9 10  1  0
  9 16  1  0
  9 31  1  1
 10 11  2  0
 10 15  1  0
 11 12  1  0
 11 32  1  0
 12 13  2  0
 12 33  1  0
 14 13  1  0
 15 14  2  0
 16 17  2  0
 16 29  1  0
 17 18  1  0
 17 30  1  0
 18 19  2  0
 20 19  1  0
 29 20  2  0
 32 21  1  0
 21 33  1  0
 21 34  1  6
 21 35  1  0
 23 22  1  0
 22 26  1  0
 24 23  2  0
 25 24  1  0
 36 25  1  0
 26 27  2  0
 26 28  2  0
 37 36  2  0
 36 41  1  0
 38 37  1  0
 38 39  2  0
 38 44  1  0
 39 40  1  0
 40 41  2  0
 40 42  1  0
 42 43  1  0
M  CHG  1  45   1
M  END
$$$$
