
     RDKit          3D

 45 50  0  0  0  0  0  0  0  0999 V2000
   34.8006   -8.3428   10.7610 C   0  0  0  0  0  0  0  0  0  0  0  0
   34.0777   -7.9392    9.6571 C   0  0  0  0  0  0  0  0  0  0  0  0
   34.4004   -6.8036    8.9464 C   0  0  0  0  0  0  0  0  0  0  0  0
   39.3996   -8.7668   16.4581 C   0  0  0  0  0  0  0  0  0  0  0  0
   40.8418   -9.0323   16.8264 C   0  0  0  0  0  0  0  0  0  0  0  0
   41.2219   -6.8168   17.5146 C   0  0  0  0  0  0  0  0  0  0  0  0
   39.7672   -6.4645   17.2941 C   0  0  0  0  0  0  0  0  0  0  0  0
   35.2994   -3.1080    9.2143 C   0  0  0  0  0  0  0  0  0  0  0  0
   33.2926  -10.3009   11.3082 C   0  0  1  0  0  0  0  0  0  0  0  0
   33.4429  -11.3501   10.3266 C   0  0  0  0  0  0  0  0  0  0  0  0
   32.3466  -11.7024    9.5491 C   0  0  0  0  0  0  0  0  0  0  0  0
   32.4631  -12.6972    8.5936 C   0  0  0  0  0  0  0  0  0  0  0  0
   33.6739  -13.3440    8.4104 C   0  0  0  0  0  0  0  0  0  0  0  0
   34.7715  -13.0093    9.1704 C   0  0  0  0  0  0  0  0  0  0  0  0
   34.6134  -12.0079   10.1162 C   0  0  0  0  0  0  0  0  0  0  0  0
   32.8103  -10.6976   12.6554 C   0  0  0  0  0  0  0  0  0  0  0  0
   31.4444  -10.6208   12.9620 C   0  0  0  0  0  0  0  0  0  0  0  0
   31.0213  -10.9938   14.2098 C   0  0  0  0  0  0  0  0  0  0  0  0
   31.8810  -11.4433   15.1850 C   0  0  0  0  0  0  0  0  0  0  0  0
   33.2161  -11.5025   14.8415 C   0  0  0  0  0  0  0  0  0  0  0  0
   30.4764  -11.7222    8.2661 C   0  0  1  0  0  0  0  0  0  0  0  0
   35.4679   -6.0208    9.3155 C   0  0  0  0  0  0  0  0  0  0  0  0
   36.2030   -6.4035   10.4137 C   0  0  0  0  0  0  0  0  0  0  0  0
   35.8885   -7.5355   11.1297 C   0  0  0  0  0  0  0  0  0  0  0  0
   36.6302   -7.8748   12.2621 N   0  0  0  0  0  0  0  0  0  0  0  0
   35.8659   -4.5583    8.3949 S   0  0  1  0  0  6  0  0  0  0  0  0
   35.1728   -4.7191    7.0703 O   0  0  0  0  0  0  0  0  0  0  0  0
   37.3241   -4.5162    8.1510 O   0  0  0  0  0  0  0  0  0  0  0  0
   33.6186  -11.1384   13.6261 N   0  0  0  0  0  0  0  0  0  0  0  0
   30.3148  -10.0206   11.7487 Cl  0  0  0  0  0  0  0  0  0  0  0  0
   34.4942   -9.4947   11.4935 N   0  0  0  0  0  0  0  0  0  0  0  0
   31.0334  -11.2725    9.4751 O   0  0  0  0  0  0  0  0  0  0  0  0
   31.2456  -12.8655    7.9547 O   0  0  0  0  0  0  0  0  0  0  0  0
   29.1482  -12.0825    8.4077 F   0  0  0  0  0  0  0  0  0  0  0  0
   30.6279  -10.7447    7.2916 F   0  0  0  0  0  0  0  0  0  0  0  0
   37.2958   -7.0023   13.1572 C   0  0  0  0  0  0  0  0  0  0  0  0
   37.9269   -7.5118   14.2542 N   0  0  0  0  0  0  0  0  0  0  0  0
   38.5960   -6.7715   15.1478 C   0  0  0  0  0  0  0  0  0  0  0  0
   38.6424   -5.4455   14.9417 N   0  0  0  0  0  0  0  0  0  0  0  0
   38.0439   -4.8615   13.8796 C   0  0  0  0  0  0  0  0  0  0  0  0
   37.3953   -5.6787   13.0346 N   0  0  0  0  0  0  0  0  0  0  0  0
   38.0930   -3.4918   13.6673 O   0  0  0  0  0  0  0  0  0  0  0  0
   37.5036   -2.9767   12.5021 C   0  0  0  0  0  0  0  0  0  0  0  0
   39.2450   -7.3397   16.2802 N   0  0  0  0  0  0  0  0  0  0  0  0
   41.2490   -8.2058   17.9682 N   0  0  0  0  0  4  0  0  0  0  0  0
  1  2  2  0
 24  1  1  0
  1 31  1  0
  2  3  1  0
 22  3  2  0
  4  5  1  0
 44  4  1  0
  5 45  1  0
  7  6  1  0
  6 45  1  0
 44  7  1  0
 26  8  1  1
  9 10  1  0
  9 16  1  0
  9 31  1  1
 10 11  2  0
 10 15  1  0
 11 12  1  0
 11 32  1  0
 12 13  2  0
 12 33  1  0
 14 13  1  0
 15 14  2  0
 16 17  2  0
 16 29  1  0
 17 18  1  0
 17 30  1  0
 18 19  2  0
 20 19  1  0
 29 20  2  0
 32 21  1  0
 21 33  1  0
 21 34  1  1
 21 35  1  0
 23 22  1  0
 22 26  1  0
 24 23  2  0
 25 24  1  0
 36 25  1  0
 26 27  2  0
 26 28  2  0
 37 36  2  0
 36 41  1  0
 38 37  1  0
 38 39  2  0
 38 44  1  0
 39 40  1  0
 40 41  2  0
 40 42  1  0
 42 43  1  0
M  CHG  1  45   1
M  END
$$$$
