
     RDKit          3D

 45 50  0  0  0  0  0  0  0  0999 V2000
   35.5206   -7.3864   12.5029 C   0  0  0  0  0  0  0  0  0  0  0  0
   35.7582   -6.3088   11.6746 C   0  0  0  0  0  0  0  0  0  0  0  0
   36.4261   -5.1847   12.1097 C   0  0  0  0  0  0  0  0  0  0  0  0
   36.5227   -5.5991   20.1622 C   0  0  0  0  0  0  0  0  0  0  0  0
   37.7985   -4.8837   20.5449 C   0  0  0  0  0  0  0  0  0  0  0  0
   38.1495   -4.0505   18.3748 C   0  0  0  0  0  0  0  0  0  0  0  0
   36.8300   -4.6236   17.9065 C   0  0  0  0  0  0  0  0  0  0  0  0
   39.4646   -3.9271   14.1169 C   0  0  0  0  0  0  0  0  0  0  0  0
   34.0601   -8.6392   10.8582 C   0  0  1  0  0  0  0  0  0  0  0  0
   34.7373   -9.3280    9.7840 C   0  0  0  0  0  0  0  0  0  0  0  0
   34.5179   -8.9108    8.4770 C   0  0  0  0  0  0  0  0  0  0  0  0
   35.1605   -9.5452    7.4279 C   0  0  0  0  0  0  0  0  0  0  0  0
   36.0243  -10.5982    7.6791 C   0  0  0  0  0  0  0  0  0  0  0  0
   36.2550  -11.0262    8.9667 C   0  0  0  0  0  0  0  0  0  0  0  0
   35.5923  -10.3644    9.9890 C   0  0  0  0  0  0  0  0  0  0  0  0
   32.7128   -9.1348   11.2377 C   0  0  0  0  0  0  0  0  0  0  0  0
   31.7854   -9.4765   10.2432 C   0  0  0  0  0  0  0  0  0  0  0  0
   30.5495   -9.9335   10.6157 C   0  0  0  0  0  0  0  0  0  0  0  0
   30.1717  -10.0734   11.9310 C   0  0  0  0  0  0  0  0  0  0  0  0
   31.1141   -9.7254   12.8769 C   0  0  0  0  0  0  0  0  0  0  0  0
   34.1886   -7.7195    6.5753 C   0  0  1  0  0  0  0  0  0  0  0  0
   36.8860   -5.0941   13.4015 C   0  0  0  0  0  0  0  0  0  0  0  0
   36.6599   -6.1566   14.2458 C   0  0  0  0  0  0  0  0  0  0  0  0
   35.9940   -7.2830   13.8207 C   0  0  0  0  0  0  0  0  0  0  0  0
   35.7463   -8.3271   14.7130 N   0  0  0  0  0  0  0  0  0  0  0  0
   37.7373   -3.6377   13.9483 S   0  0  1  0  0  6  0  0  0  0  0  0
   37.1286   -3.2954   15.2799 O   0  0  0  0  0  0  0  0  0  0  0  0
   37.4561   -2.5271   13.0128 O   0  0  0  0  0  0  0  0  0  0  0  0
   32.3133   -9.2825   12.5060 N   0  0  0  0  0  0  0  0  0  0  0  0
   32.2214   -9.2818    8.5461 Cl  0  0  0  0  0  0  0  0  0  0  0  0
   34.8499   -8.5393   12.0807 N   0  0  0  0  0  0  0  0  0  0  0  0
   33.7437   -7.9243    7.8923 O   0  0  0  0  0  0  0  0  0  0  0  0
   34.7829   -8.9545    6.2332 O   0  0  0  0  0  0  0  0  0  0  0  0
   33.1436   -7.4529    5.7089 F   0  0  0  0  0  0  0  0  0  0  0  0
   35.1279   -6.6970    6.5550 F   0  0  0  0  0  0  0  0  0  0  0  0
   35.8486   -8.3045   16.1252 C   0  0  0  0  0  0  0  0  0  0  0  0
   36.1302   -7.1324   16.7640 N   0  0  0  0  0  0  0  0  0  0  0  0
   36.2305   -7.0064   18.0938 C   0  0  0  0  0  0  0  0  0  0  0  0
   36.0401   -8.1092   18.8356 N   0  0  0  0  0  0  0  0  0  0  0  0
   35.7570   -9.3090   18.2809 C   0  0  0  0  0  0  0  0  0  0  0  0
   35.6754   -9.3442   16.9413 N   0  0  0  0  0  0  0  0  0  0  0  0
   35.5600  -10.4475   19.0481 O   0  0  0  0  0  0  0  0  0  0  0  0
   34.6021  -11.3807   18.6217 C   0  0  0  0  0  0  0  0  0  0  0  0
   36.5235   -5.7648   18.7253 N   0  0  0  0  0  0  0  0  0  0  0  0
   37.9578   -3.6499   19.7672 N   0  0  0  0  0  4  0  0  0  0  0  0
  1  2  2  0
 24  1  1  0
  1 31  1  0
  2  3  1  0
 22  3  2  0
  4  5  1  0
 44  4  1  0
  5 45  1  0
  7  6  1  0
  6 45  1  0
 44  7  1  0
 26  8  1  1
  9 10  1  0
  9 16  1  0
  9 31  1  1
 10 11  2  0
 10 15  1  0
 11 12  1  0
 11 32  1  0
 12 13  2  0
 12 33  1  0
 14 13  1  0
 15 14  2  0
 16 17  2  0
 16 29  1  0
 17 18  1  0
 17 30  1  0
 18 19  2  0
 20 19  1  0
 29 20  2  0
 32 21  1  0
 21 33  1  0
 21 34  1  6
 21 35  1  0
 23 22  1  0
 22 26  1  0
 24 23  2  0
 25 24  1  0
 36 25  1  0
 26 27  2  0
 26 28  2  0
 37 36  2  0
 36 41  1  0
 38 37  1  0
 38 39  2  0
 38 44  1  0
 39 40  1  0
 40 41  2  0
 40 42  1  0
 42 43  1  0
M  CHG  1  45   1
M  END
$$$$
