
     RDKit          3D

 45 50  0  0  0  0  0  0  0  0999 V2000
   37.1714   -6.1956   13.9090 C   0  0  0  0  0  0  0  0  0  0  0  0
   37.4352   -7.5242   14.1717 C   0  0  0  0  0  0  0  0  0  0  0  0
   37.6397   -7.9903   15.4522 C   0  0  0  0  0  0  0  0  0  0  0  0
   35.1519   -2.0741   20.3806 C   0  0  0  0  0  0  0  0  0  0  0  0
   34.0600   -2.8290   21.1043 C   0  0  0  0  0  0  0  0  0  0  0  0
   34.8444   -4.9280   20.3934 C   0  0  0  0  0  0  0  0  0  0  0  0
   36.0459   -4.2905   19.7307 C   0  0  0  0  0  0  0  0  0  0  0  0
   36.3415   -8.0780   18.9960 C   0  0  0  0  0  0  0  0  0  0  0  0
   36.9348   -6.5190   11.4096 C   0  0  1  0  0  0  0  0  0  0  0  0
   35.6443   -6.5663   10.7621 C   0  0  0  0  0  0  0  0  0  0  0  0
   35.2207   -7.7636   10.1987 C   0  0  0  0  0  0  0  0  0  0  0  0
   33.9847   -7.8418    9.5804 C   0  0  0  0  0  0  0  0  0  0  0  0
   33.1669   -6.7256    9.5220 C   0  0  0  0  0  0  0  0  0  0  0  0
   33.5684   -5.5306   10.0743 C   0  0  0  0  0  0  0  0  0  0  0  0
   34.8129   -5.4940   10.6845 C   0  0  0  0  0  0  0  0  0  0  0  0
   38.0957   -6.1127   10.5777 C   0  0  0  0  0  0  0  0  0  0  0  0
   38.8356   -7.0816    9.8851 C   0  0  0  0  0  0  0  0  0  0  0  0
   39.9009   -6.6844    9.1219 C   0  0  0  0  0  0  0  0  0  0  0  0
   40.2829   -5.3683    9.0026 C   0  0  0  0  0  0  0  0  0  0  0  0
   39.5283   -4.4482    9.7010 C   0  0  0  0  0  0  0  0  0  0  0  0
   34.7537   -9.9362    9.7448 C   0  0  1  0  0  0  0  0  0  0  0  0
   37.5880   -7.1381   16.5290 C   0  0  0  0  0  0  0  0  0  0  0  0
   37.3268   -5.8084   16.2911 C   0  0  0  0  0  0  0  0  0  0  0  0
   37.1214   -5.3336   15.0162 C   0  0  0  0  0  0  0  0  0  0  0  0
   36.8978   -3.9724   14.8049 N   0  0  0  0  0  0  0  0  0  0  0  0
   37.8606   -7.7521   18.1702 S   0  0  1  0  0  6  0  0  0  0  0  0
   38.6238   -6.6687   18.8804 O   0  0  0  0  0  0  0  0  0  0  0  0
   38.7187   -8.9551   18.1055 O   0  0  0  0  0  0  0  0  0  0  0  0
   38.4941   -4.8430   10.4402 N   0  0  0  0  0  0  0  0  0  0  0  0
   38.3958   -8.7821   10.0372 Cl  0  0  0  0  0  0  0  0  0  0  0  0
   36.9551   -5.7019   12.6179 N   0  0  0  0  0  0  0  0  0  0  0  0
   35.7710   -9.0279   10.0834 O   0  0  0  0  0  0  0  0  0  0  0  0
   33.7913   -9.1270    9.1011 O   0  0  0  0  0  0  0  0  0  0  0  0
   35.1977  -10.9119    8.8703 F   0  0  0  0  0  0  0  0  0  0  0  0
   34.2305  -10.5012   10.9003 F   0  0  0  0  0  0  0  0  0  0  0  0
   36.4718   -3.0061   15.7484 C   0  0  0  0  0  0  0  0  0  0  0  0
   36.2723   -3.3718   17.0475 N   0  0  0  0  0  0  0  0  0  0  0  0
   35.8869   -2.5291   18.0149 C   0  0  0  0  0  0  0  0  0  0  0  0
   35.6871   -1.2459   17.6738 N   0  0  0  0  0  0  0  0  0  0  0  0
   35.8630   -0.8022   16.4092 C   0  0  0  0  0  0  0  0  0  0  0  0
   36.2499   -1.7147   15.5035 N   0  0  0  0  0  0  0  0  0  0  0  0
   35.6570    0.5237   16.0581 O   0  0  0  0  0  0  0  0  0  0  0  0
   34.9396    1.3435   16.9433 C   0  0  0  0  0  0  0  0  0  0  0  0
   35.6912   -2.9473   19.3614 N   0  0  0  0  0  0  0  0  0  0  0  0
   34.5508   -4.1271   21.5801 N   0  0  0  0  0  4  0  0  0  0  0  0
  1  2  2  0
 24  1  1  0
  1 31  1  0
  2  3  1  0
 22  3  2  0
  4  5  1  0
 44  4  1  0
  5 45  1  0
  7  6  1  0
  6 45  1  0
 44  7  1  0
 26  8  1  1
  9 10  1  0
  9 16  1  0
  9 31  1  1
 10 11  2  0
 10 15  1  0
 11 12  1  0
 11 32  1  0
 12 13  2  0
 12 33  1  0
 14 13  1  0
 15 14  2  0
 16 17  2  0
 16 29  1  0
 17 18  1  0
 17 30  1  0
 18 19  2  0
 20 19  1  0
 29 20  2  0
 32 21  1  0
 21 33  1  0
 21 34  1  6
 21 35  1  0
 23 22  1  0
 22 26  1  0
 24 23  2  0
 25 24  1  0
 36 25  1  0
 26 27  2  0
 26 28  2  0
 37 36  2  0
 36 41  1  0
 38 37  1  0
 38 39  2  0
 38 44  1  0
 39 40  1  0
 40 41  2  0
 40 42  1  0
 42 43  1  0
M  CHG  1  45   1
M  END
$$$$
