
     RDKit          3D

 45 50  0  0  0  0  0  0  0  0999 V2000
   34.3577   -9.0610   12.9229 C   0  0  0  0  0  0  0  0  0  0  0  0
   33.0326   -9.3596   13.1661 C   0  0  0  0  0  0  0  0  0  0  0  0
   32.4577   -9.1806   14.4055 C   0  0  0  0  0  0  0  0  0  0  0  0
   37.9803   -5.7194   19.2002 C   0  0  0  0  0  0  0  0  0  0  0  0
   37.2863   -4.4591   19.6651 C   0  0  0  0  0  0  0  0  0  0  0  0
   35.1900   -5.1436   18.8504 C   0  0  0  0  0  0  0  0  0  0  0  0
   35.7498   -6.4905   18.4487 C   0  0  0  0  0  0  0  0  0  0  0  0
   31.9832   -6.7968   17.3218 C   0  0  0  0  0  0  0  0  0  0  0  0
   34.2365   -9.4699   10.4278 C   0  0  1  0  0  0  0  0  0  0  0  0
   34.8902   -8.9241    9.2608 C   0  0  0  0  0  0  0  0  0  0  0  0
   34.1389   -8.1829    8.3571 C   0  0  0  0  0  0  0  0  0  0  0  0
   34.7400   -7.6391    7.2350 C   0  0  0  0  0  0  0  0  0  0  0  0
   36.0929   -7.8330    7.0106 C   0  0  0  0  0  0  0  0  0  0  0  0
   36.8542   -8.5639    7.8941 C   0  0  0  0  0  0  0  0  0  0  0  0
   36.2145   -9.0913    9.0054 C   0  0  0  0  0  0  0  0  0  0  0  0
   33.8783  -10.9105   10.3921 C   0  0  0  0  0  0  0  0  0  0  0  0
   32.5701  -11.3002   10.0719 C   0  0  0  0  0  0  0  0  0  0  0  0
   32.2624  -12.6343   10.0426 C   0  0  0  0  0  0  0  0  0  0  0  0
   33.1842  -13.6180   10.3157 C   0  0  0  0  0  0  0  0  0  0  0  0
   34.4588  -13.1907   10.6267 C   0  0  0  0  0  0  0  0  0  0  0  0
   32.6846   -6.7635    7.3499 C   0  0  1  0  0  0  0  0  0  0  0  0
   33.1924   -8.6919   15.4591 C   0  0  0  0  0  0  0  0  0  0  0  0
   34.5161   -8.3876   15.2402 C   0  0  0  0  0  0  0  0  0  0  0  0
   35.0990   -8.5630   14.0063 C   0  0  0  0  0  0  0  0  0  0  0  0
   36.4542   -8.2820   13.8272 N   0  0  0  0  0  0  0  0  0  0  0  0
   32.4399   -8.4741   17.0501 S   0  0  1  0  0  6  0  0  0  0  0  0
   33.4805   -8.9043   18.0465 O   0  0  0  0  0  0  0  0  0  0  0  0
   31.2805   -9.3846   17.1710 O   0  0  0  0  0  0  0  0  0  0  0  0
   34.7494  -11.8920   10.6524 N   0  0  0  0  0  0  0  0  0  0  0  0
   31.3525  -10.0677    9.7456 Cl  0  0  0  0  0  0  0  0  0  0  0  0
   34.9600   -9.2296   11.6715 N   0  0  0  0  0  0  0  0  0  0  0  0
   32.8089   -7.8094    8.2800 O   0  0  0  0  0  0  0  0  0  0  0  0
   33.7931   -6.9508    6.4946 O   0  0  0  0  0  0  0  0  0  0  0  0
   31.5144   -6.8552    6.6177 F   0  0  0  0  0  0  0  0  0  0  0  0
   32.7686   -5.5434    8.0073 F   0  0  0  0  0  0  0  0  0  0  0  0
   37.3587   -7.7335   14.7687 C   0  0  0  0  0  0  0  0  0  0  0  0
   36.8955   -7.2932   15.9741 N   0  0  0  0  0  0  0  0  0  0  0  0
   37.6728   -6.7757   16.9345 C   0  0  0  0  0  0  0  0  0  0  0  0
   38.9893   -6.6894   16.6850 N   0  0  0  0  0  0  0  0  0  0  0  0
   39.5284   -7.1033   15.5167 C   0  0  0  0  0  0  0  0  0  0  0  0
   38.6764   -7.6086   14.6105 N   0  0  0  0  0  0  0  0  0  0  0  0
   40.8886   -7.0142   15.2602 O   0  0  0  0  0  0  0  0  0  0  0  0
   41.3740   -7.5351   14.0506 C   0  0  0  0  0  0  0  0  0  0  0  0
   37.1531   -6.3289   18.1820 N   0  0  0  0  0  0  0  0  0  0  0  0
   35.9024   -4.7420   20.0617 N   0  0  0  0  0  4  0  0  0  0  0  0
  1  2  2  0
 24  1  1  0
  1 31  1  0
  2  3  1  0
 22  3  2  0
  4  5  1  0
 44  4  1  0
  5 45  1  0
  7  6  1  0
  6 45  1  0
 44  7  1  0
 26  8  1  1
  9 10  1  0
  9 16  1  0
  9 31  1  1
 10 11  2  0
 10 15  1  0
 11 12  1  0
 11 32  1  0
 12 13  2  0
 12 33  1  0
 14 13  1  0
 15 14  2  0
 16 17  2  0
 16 29  1  0
 17 18  1  0
 17 30  1  0
 18 19  2  0
 20 19  1  0
 29 20  2  0
 32 21  1  0
 21 33  1  0
 21 34  1  6
 21 35  1  0
 23 22  1  0
 22 26  1  0
 24 23  2  0
 25 24  1  0
 36 25  1  0
 26 27  2  0
 26 28  2  0
 37 36  2  0
 36 41  1  0
 38 37  1  0
 38 39  2  0
 38 44  1  0
 39 40  1  0
 40 41  2  0
 40 42  1  0
 42 43  1  0
M  CHG  1  45   1
M  END
$$$$
