
     RDKit          3D

 45 50  0  0  0  0  0  0  0  0999 V2000
   32.2560   -9.8364   11.2594 C   0  0  0  0  0  0  0  0  0  0  0  0
   31.4312  -10.7326   10.6109 C   0  0  0  0  0  0  0  0  0  0  0  0
   30.2882  -11.2315   11.1970 C   0  0  0  0  0  0  0  0  0  0  0  0
   35.5267   -6.6381   18.3660 C   0  0  0  0  0  0  0  0  0  0  0  0
   37.0218   -6.4140   18.3434 C   0  0  0  0  0  0  0  0  0  0  0  0
   36.9945   -5.4980   16.1786 C   0  0  0  0  0  0  0  0  0  0  0  0
   35.4837   -5.5646   16.1344 C   0  0  0  0  0  0  0  0  0  0  0  0
   27.0386  -10.5440   12.7981 C   0  0  0  0  0  0  0  0  0  0  0  0
   33.8858   -9.6217    9.3345 C   0  0  1  0  0  0  0  0  0  0  0  0
   34.1604   -8.4517    8.5328 C   0  0  0  0  0  0  0  0  0  0  0  0
   33.9577   -8.5175    7.1599 C   0  0  0  0  0  0  0  0  0  0  0  0
   34.2027   -7.4093    6.3673 C   0  0  0  0  0  0  0  0  0  0  0  0
   34.6509   -6.2315    6.9419 C   0  0  0  0  0  0  0  0  0  0  0  0
   34.8576   -6.1463    8.3000 C   0  0  0  0  0  0  0  0  0  0  0  0
   34.6003   -7.2781    9.0584 C   0  0  0  0  0  0  0  0  0  0  0  0
   34.9713  -10.6270    9.4598 C   0  0  0  0  0  0  0  0  0  0  0  0
   34.8565  -11.8672    8.8159 C   0  0  0  0  0  0  0  0  0  0  0  0
   35.8705  -12.7786    8.9432 C   0  0  0  0  0  0  0  0  0  0  0  0
   37.0057  -12.5326    9.6801 C   0  0  0  0  0  0  0  0  0  0  0  0
   37.0775  -11.3008   10.2975 C   0  0  0  0  0  0  0  0  0  0  0  0
   33.1677   -8.9097    5.0703 C   0  0  1  0  0  0  0  0  0  0  0  0
   29.9228  -10.8501   12.4657 C   0  0  0  0  0  0  0  0  0  0  0  0
   30.7305   -9.9576   13.1320 C   0  0  0  0  0  0  0  0  0  0  0  0
   31.8737   -9.4541   12.5551 C   0  0  0  0  0  0  0  0  0  0  0  0
   32.6923   -8.5808   13.2726 N   0  0  0  0  0  0  0  0  0  0  0  0
   28.4528  -11.5068   13.2091 S   0  0  1  0  0  6  0  0  0  0  0  0
   28.7031  -11.4682   14.6912 O   0  0  0  0  0  0  0  0  0  0  0  0
   28.2903  -12.9203   12.8049 O   0  0  0  0  0  0  0  0  0  0  0  0
   36.0874  -10.4206   10.1681 N   0  0  0  0  0  0  0  0  0  0  0  0
   33.4029  -12.2317    7.8873 Cl  0  0  0  0  0  0  0  0  0  0  0  0
   33.4175   -9.3132   10.6812 N   0  0  0  0  0  0  0  0  0  0  0  0
   33.5308   -9.5053    6.2901 O   0  0  0  0  0  0  0  0  0  0  0  0
   33.9296   -7.7204    5.0455 O   0  0  0  0  0  0  0  0  0  0  0  0
   33.5059   -9.6987    3.9854 F   0  0  0  0  0  0  0  0  0  0  0  0
   31.8086   -8.6255    5.0773 F   0  0  0  0  0  0  0  0  0  0  0  0
   33.0176   -8.6303   14.6500 C   0  0  0  0  0  0  0  0  0  0  0  0
   33.8437   -7.6850   15.1839 N   0  0  0  0  0  0  0  0  0  0  0  0
   34.1957   -7.6374   16.4755 C   0  0  0  0  0  0  0  0  0  0  0  0
   33.6986   -8.5844   17.2872 N   0  0  0  0  0  0  0  0  0  0  0  0
   32.8735   -9.5561   16.8378 C   0  0  0  0  0  0  0  0  0  0  0  0
   32.5732   -9.5280   15.5294 N   0  0  0  0  0  0  0  0  0  0  0  0
   32.3601  -10.5336   17.6772 O   0  0  0  0  0  0  0  0  0  0  0  0
   31.3002  -11.3252   17.2080 C   0  0  0  0  0  0  0  0  0  0  0  0
   35.0588   -6.6330   16.9973 N   0  0  0  0  0  0  0  0  0  0  0  0
   37.3577   -5.2162   17.5659 N   0  0  0  0  0  4  0  0  0  0  0  0
  1  2  2  0
 24  1  1  0
  1 31  1  0
  2  3  1  0
 22  3  2  0
  4  5  1  0
 44  4  1  0
  5 45  1  0
  7  6  1  0
  6 45  1  0
 44  7  1  0
 26  8  1  1
  9 10  1  0
  9 16  1  0
  9 31  1  1
 10 11  2  0
 10 15  1  0
 11 12  1  0
 11 32  1  0
 12 13  2  0
 12 33  1  0
 14 13  1  0
 15 14  2  0
 16 17  2  0
 16 29  1  0
 17 18  1  0
 17 30  1  0
 18 19  2  0
 20 19  1  0
 29 20  2  0
 32 21  1  0
 21 33  1  0
 21 34  1  6
 21 35  1  0
 23 22  1  0
 22 26  1  0
 24 23  2  0
 25 24  1  0
 36 25  1  0
 26 27  2  0
 26 28  2  0
 37 36  2  0
 36 41  1  0
 38 37  1  0
 38 39  2  0
 38 44  1  0
 39 40  1  0
 40 41  2  0
 40 42  1  0
 42 43  1  0
M  CHG  1  45   1
M  END
$$$$
