
     RDKit          3D

 45 50  0  0  0  0  0  0  0  0999 V2000
   33.4236   -8.4206   11.0070 C   0  0  0  0  0  0  0  0  0  0  0  0
   33.4293   -8.2417    9.6388 C   0  0  0  0  0  0  0  0  0  0  0  0
   34.1059   -7.2014    9.0397 C   0  0  0  0  0  0  0  0  0  0  0  0
   39.1594   -7.3901   12.2714 C   0  0  0  0  0  0  0  0  0  0  0  0
   40.2127   -6.3104   12.1667 C   0  0  0  0  0  0  0  0  0  0  0  0
   41.0104   -6.6796   14.3471 C   0  0  0  0  0  0  0  0  0  0  0  0
   40.0781   -7.8580   14.5234 C   0  0  0  0  0  0  0  0  0  0  0  0
   37.3596   -5.3513    8.7283 C   0  0  0  0  0  0  0  0  0  0  0  0
   31.9280  -10.4619   10.9458 C   0  0  1  0  0  0  0  0  0  0  0  0
   32.6598  -11.6368   10.5324 C   0  0  0  0  0  0  0  0  0  0  0  0
   32.6534  -11.9921    9.1892 C   0  0  0  0  0  0  0  0  0  0  0  0
   33.3538  -13.1070    8.7619 C   0  0  0  0  0  0  0  0  0  0  0  0
   34.0629  -13.8715    9.6733 C   0  0  0  0  0  0  0  0  0  0  0  0
   34.0817  -13.5360   11.0081 C   0  0  0  0  0  0  0  0  0  0  0  0
   33.3679  -12.4122   11.3952 C   0  0  0  0  0  0  0  0  0  0  0  0
   30.7076  -10.6769   11.7640 C   0  0  0  0  0  0  0  0  0  0  0  0
   29.4533  -10.7626   11.1434 C   0  0  0  0  0  0  0  0  0  0  0  0
   28.3413  -10.9634   11.9170 C   0  0  0  0  0  0  0  0  0  0  0  0
   28.3978  -11.0853   13.2860 C   0  0  0  0  0  0  0  0  0  0  0  0
   29.6513  -10.9943   13.8556 C   0  0  0  0  0  0  0  0  0  0  0  0
   32.6958  -12.0183    6.9216 C   0  0  1  0  0  0  0  0  0  0  0  0
   34.8089   -6.2917    9.7924 C   0  0  0  0  0  0  0  0  0  0  0  0
   34.8169   -6.4498   11.1591 C   0  0  0  0  0  0  0  0  0  0  0  0
   34.1443   -7.4852   11.7664 C   0  0  0  0  0  0  0  0  0  0  0  0
   34.1397   -7.5949   13.1577 N   0  0  0  0  0  0  0  0  0  0  0  0
   35.6684   -4.9541    9.0070 S   0  0  1  0  0  6  0  0  0  0  0  0
   35.5498   -3.7922    9.9539 O   0  0  0  0  0  0  0  0  0  0  0  0
   34.9743   -4.5983    7.7502 O   0  0  0  0  0  0  0  0  0  0  0  0
   30.7269  -10.7993   13.0961 N   0  0  0  0  0  0  0  0  0  0  0  0
   29.3363  -10.5806    9.3937 Cl  0  0  0  0  0  0  0  0  0  0  0  0
   32.7484   -9.4724   11.6356 N   0  0  0  0  0  0  0  0  0  0  0  0
   32.0680  -11.4663    8.0510 O   0  0  0  0  0  0  0  0  0  0  0  0
   33.1953  -13.2526    7.3935 O   0  0  0  0  0  0  0  0  0  0  0  0
   31.8032  -12.2446    5.8892 F   0  0  0  0  0  0  0  0  0  0  0  0
   33.7325  -11.1896    6.5136 F   0  0  0  0  0  0  0  0  0  0  0  0
   35.2550   -7.7033   14.0235 C   0  0  0  0  0  0  0  0  0  0  0  0
   36.5176   -7.6448   13.5101 N   0  0  0  0  0  0  0  0  0  0  0  0
   37.6332   -7.7207   14.2476 C   0  0  0  0  0  0  0  0  0  0  0  0
   37.4886   -7.8632   15.5749 N   0  0  0  0  0  0  0  0  0  0  0  0
   36.2732   -7.9292   16.1628 C   0  0  0  0  0  0  0  0  0  0  0  0
   35.2093   -7.8451   15.3481 N   0  0  0  0  0  0  0  0  0  0  0  0
   36.1249   -8.0758   17.5340 O   0  0  0  0  0  0  0  0  0  0  0  0
   34.8254   -8.1477   18.0596 C   0  0  0  0  0  0  0  0  0  0  0  0
   38.9351   -7.6533   13.6759 N   0  0  0  0  0  0  0  0  0  0  0  0
   41.4063   -6.6698   12.9403 N   0  0  0  0  0  4  0  0  0  0  0  0
  1  2  2  0
 24  1  1  0
  1 31  1  0
  2  3  1  0
 22  3  2  0
  4  5  1  0
 44  4  1  0
  5 45  1  0
  7  6  1  0
  6 45  1  0
 44  7  1  0
 26  8  1  6
  9 10  1  0
  9 16  1  0
  9 31  1  1
 10 11  2  0
 10 15  1  0
 11 12  1  0
 11 32  1  0
 12 13  2  0
 12 33  1  0
 14 13  1  0
 15 14  2  0
 16 17  2  0
 16 29  1  0
 17 18  1  0
 17 30  1  0
 18 19  2  0
 20 19  1  0
 29 20  2  0
 32 21  1  0
 21 33  1  0
 21 34  1  6
 21 35  1  0
 23 22  1  0
 22 26  1  0
 24 23  2  0
 25 24  1  0
 36 25  1  0
 26 27  2  0
 26 28  2  0
 37 36  2  0
 36 41  1  0
 38 37  1  0
 38 39  2  0
 38 44  1  0
 39 40  1  0
 40 41  2  0
 40 42  1  0
 42 43  1  0
M  CHG  1  45   1
M  END
$$$$
