
     RDKit          3D

 45 50  0  0  0  0  0  0  0  0999 V2000
   34.1213   -9.2613   13.1425 C   0  0  0  0  0  0  0  0  0  0  0  0
   32.7516   -9.3141   13.3010 C   0  0  0  0  0  0  0  0  0  0  0  0
   32.1544   -9.2257   14.5397 C   0  0  0  0  0  0  0  0  0  0  0  0
   37.7990   -4.9638   18.4931 C   0  0  0  0  0  0  0  0  0  0  0  0
   36.9955   -3.6846   18.5571 C   0  0  0  0  0  0  0  0  0  0  0  0
   34.9520   -4.7822   18.1753 C   0  0  0  0  0  0  0  0  0  0  0  0
   35.6337   -6.1324   18.2096 C   0  0  0  0  0  0  0  0  0  0  0  0
   32.2817  -10.4823   18.1601 C   0  0  0  0  0  0  0  0  0  0  0  0
   34.0605   -9.6127   10.6365 C   0  0  1  0  0  0  0  0  0  0  0  0
   34.8412   -9.2845    9.4661 C   0  0  0  0  0  0  0  0  0  0  0  0
   34.2845   -8.4553    8.5002 C   0  0  0  0  0  0  0  0  0  0  0  0
   35.0123   -8.1154    7.3729 C   0  0  0  0  0  0  0  0  0  0  0  0
   36.2982   -8.6018    7.2052 C   0  0  0  0  0  0  0  0  0  0  0  0
   36.8673   -9.4244    8.1506 C   0  0  0  0  0  0  0  0  0  0  0  0
   36.1055   -9.7407    9.2650 C   0  0  0  0  0  0  0  0  0  0  0  0
   33.5062  -10.9878   10.7174 C   0  0  0  0  0  0  0  0  0  0  0  0
   32.2019  -11.2456   10.2725 C   0  0  0  0  0  0  0  0  0  0  0  0
   31.7116  -12.5216   10.3543 C   0  0  0  0  0  0  0  0  0  0  0  0
   32.4449  -13.5710   10.8576 C   0  0  0  0  0  0  0  0  0  0  0  0
   33.7227  -13.2732   11.2847 C   0  0  0  0  0  0  0  0  0  0  0  0
   33.1868   -6.8223    7.3721 C   0  0  1  0  0  0  0  0  0  0  0  0
   32.9106   -9.0800   15.6778 C   0  0  0  0  0  0  0  0  0  0  0  0
   34.2788   -9.0255   15.5442 C   0  0  0  0  0  0  0  0  0  0  0  0
   34.8843   -9.1130   14.3118 C   0  0  0  0  0  0  0  0  0  0  0  0
   36.2763   -9.0939   14.2140 N   0  0  0  0  0  0  0  0  0  0  0  0
   32.1273   -8.9751   17.2654 S   0  0  1  0  0  6  0  0  0  0  0  0
   30.6813   -8.6790   16.9787 O   0  0  0  0  0  0  0  0  0  0  0  0
   32.6929   -7.8321   18.0147 O   0  0  0  0  0  0  0  0  0  0  0  0
   34.1914  -12.0302   11.2011 N   0  0  0  0  0  0  0  0  0  0  0  0
   31.2197   -9.9207    9.6493 Cl  0  0  0  0  0  0  0  0  0  0  0  0
   34.7482   -9.3434   11.8945 N   0  0  0  0  0  0  0  0  0  0  0  0
   33.0658   -7.8156    8.3585 O   0  0  0  0  0  0  0  0  0  0  0  0
   34.2496   -7.2872    6.5660 O   0  0  0  0  0  0  0  0  0  0  0  0
   32.0406   -6.7079    6.6060 F   0  0  0  0  0  0  0  0  0  0  0  0
   33.5124   -5.6113    7.9684 F   0  0  0  0  0  0  0  0  0  0  0  0
   37.1876   -8.3022   14.9544 C   0  0  0  0  0  0  0  0  0  0  0  0
   36.7304   -7.5216   15.9756 N   0  0  0  0  0  0  0  0  0  0  0  0
   37.5141   -6.7525   16.7428 C   0  0  0  0  0  0  0  0  0  0  0  0
   38.8312   -6.7575   16.4820 N   0  0  0  0  0  0  0  0  0  0  0  0
   39.3648   -7.5029   15.4887 C   0  0  0  0  0  0  0  0  0  0  0  0
   38.5064   -8.2436   14.7695 N   0  0  0  0  0  0  0  0  0  0  0  0
   40.7256   -7.5078   15.2205 O   0  0  0  0  0  0  0  0  0  0  0  0
   41.2412   -6.5148   14.3730 C   0  0  0  0  0  0  0  0  0  0  0  0
   37.0005   -5.9525   17.8022 N   0  0  0  0  0  0  0  0  0  0  0  0
   35.6659   -3.9319   19.1257 N   0  0  0  0  0  4  0  0  0  0  0  0
  1  2  2  0
 24  1  1  0
  1 31  1  0
  2  3  1  0
 22  3  2  0
  4  5  1  0
 44  4  1  0
  5 45  1  0
  7  6  1  0
  6 45  1  0
 44  7  1  0
 26  8  1  1
  9 10  1  0
  9 16  1  0
  9 31  1  1
 10 11  2  0
 10 15  1  0
 11 12  1  0
 11 32  1  0
 12 13  2  0
 12 33  1  0
 14 13  1  0
 15 14  2  0
 16 17  2  0
 16 29  1  0
 17 18  1  0
 17 30  1  0
 18 19  2  0
 20 19  1  0
 29 20  2  0
 32 21  1  0
 21 33  1  0
 21 34  1  6
 21 35  1  0
 23 22  1  0
 22 26  1  0
 24 23  2  0
 25 24  1  0
 36 25  1  0
 26 27  2  0
 26 28  2  0
 37 36  2  0
 36 41  1  0
 38 37  1  0
 38 39  2  0
 38 44  1  0
 39 40  1  0
 40 41  2  0
 40 42  1  0
 42 43  1  0
M  CHG  1  45   1
M  END
$$$$
