
     RDKit          3D

 45 50  0  0  0  0  0  0  0  0999 V2000
   36.3427   -4.8440   16.6653 C   0  0  0  0  0  0  0  0  0  0  0  0
   35.7032   -6.0289   16.9668 C   0  0  0  0  0  0  0  0  0  0  0  0
   35.0163   -6.2098   18.1476 C   0  0  0  0  0  0  0  0  0  0  0  0
   32.9662   -0.9739   20.1614 C   0  0  0  0  0  0  0  0  0  0  0  0
   32.6304   -0.8152   21.6270 C   0  0  0  0  0  0  0  0  0  0  0  0
   33.0856    1.4911   21.6272 C   0  0  0  0  0  0  0  0  0  0  0  0
   33.3306    1.4757   20.1343 C   0  0  0  0  0  0  0  0  0  0  0  0
   35.1142   -6.0870   21.8582 C   0  0  0  0  0  0  0  0  0  0  0  0
   37.2493   -5.6524   14.4445 C   0  0  1  0  0  0  0  0  0  0  0  0
   37.1010   -5.1550   13.0964 C   0  0  0  0  0  0  0  0  0  0  0  0
   36.5710   -5.9966   12.1261 C   0  0  0  0  0  0  0  0  0  0  0  0
   36.4078   -5.5445   10.8280 C   0  0  0  0  0  0  0  0  0  0  0  0
   36.7728   -4.2511   10.4933 C   0  0  0  0  0  0  0  0  0  0  0  0
   37.2994   -3.4022   11.4401 C   0  0  0  0  0  0  0  0  0  0  0  0
   37.4464   -3.8931   12.7284 C   0  0  0  0  0  0  0  0  0  0  0  0
   38.5129   -6.3612   14.7699 C   0  0  0  0  0  0  0  0  0  0  0  0
   38.5146   -7.7542   14.9294 C   0  0  0  0  0  0  0  0  0  0  0  0
   39.6916   -8.3876   15.2271 C   0  0  0  0  0  0  0  0  0  0  0  0
   40.8821   -7.7155   15.3792 C   0  0  0  0  0  0  0  0  0  0  0  0
   40.8353   -6.3464   15.2145 C   0  0  0  0  0  0  0  0  0  0  0  0
   35.3579   -7.5157   10.9579 C   0  0  1  0  0  0  0  0  0  0  0  0
   34.9421   -5.2038   19.0809 C   0  0  0  0  0  0  0  0  0  0  0  0
   35.5728   -4.0134   18.8021 C   0  0  0  0  0  0  0  0  0  0  0  0
   36.2611   -3.8232   17.6260 C   0  0  0  0  0  0  0  0  0  0  0  0
   36.9231   -2.6175   17.3906 N   0  0  0  0  0  0  0  0  0  0  0  0
   34.0604   -5.4548   20.5990 S   0  0  1  0  0  6  0  0  0  0  0  0
   32.9772   -6.4452   20.2729 O   0  0  0  0  0  0  0  0  0  0  0  0
   33.4187   -4.1861   21.0068 O   0  0  0  0  0  0  0  0  0  0  0  0
   39.6870   -5.7388   14.9248 N   0  0  0  0  0  0  0  0  0  0  0  0
   37.0029   -8.6477   14.7726 Cl  0  0  0  0  0  0  0  0  0  0  0  0
   37.0407   -4.6367   15.4706 N   0  0  0  0  0  0  0  0  0  0  0  0
   36.1178   -7.3039   12.1207 O   0  0  0  0  0  0  0  0  0  0  0  0
   35.8669   -6.5575   10.0533 O   0  0  0  0  0  0  0  0  0  0  0  0
   35.5427   -8.7851   10.4400 F   0  0  0  0  0  0  0  0  0  0  0  0
   34.0171   -7.2764   11.2281 F   0  0  0  0  0  0  0  0  0  0  0  0
   36.5620   -1.3259   17.8454 C   0  0  0  0  0  0  0  0  0  0  0  0
   35.4061   -1.1558   18.5497 N   0  0  0  0  0  0  0  0  0  0  0  0
   34.9880    0.0205   19.0355 C   0  0  0  0  0  0  0  0  0  0  0  0
   35.7628    1.0934   18.8094 N   0  0  0  0  0  0  0  0  0  0  0  0
   36.9231    1.0104   18.1209 C   0  0  0  0  0  0  0  0  0  0  0  0
   37.2653   -0.2072   17.6703 N   0  0  0  0  0  0  0  0  0  0  0  0
   37.7230    2.1193   17.8884 O   0  0  0  0  0  0  0  0  0  0  0  0
   37.2658    3.3734   18.3227 C   0  0  0  0  0  0  0  0  0  0  0  0
   33.7759    0.1586   19.7689 N   0  0  0  0  0  0  0  0  0  0  0  0
   32.0408    0.5028   21.8870 N   0  0  0  0  0  4  0  0  0  0  0  0
  1  2  2  0
 24  1  1  0
  1 31  1  0
  2  3  1  0
 22  3  2  0
  4  5  1  0
 44  4  1  0
  5 45  1  0
  7  6  1  0
  6 45  1  0
 44  7  1  0
 26  8  1  1
  9 10  1  0
  9 16  1  0
  9 31  1  1
 10 11  2  0
 10 15  1  0
 11 12  1  0
 11 32  1  0
 12 13  2  0
 12 33  1  0
 14 13  1  0
 15 14  2  0
 16 17  2  0
 16 29  1  0
 17 18  1  0
 17 30  1  0
 18 19  2  0
 20 19  1  0
 29 20  2  0
 32 21  1  0
 21 33  1  0
 21 34  1  6
 21 35  1  0
 23 22  1  0
 22 26  1  0
 24 23  2  0
 25 24  1  0
 36 25  1  0
 26 27  2  0
 26 28  2  0
 37 36  2  0
 36 41  1  0
 38 37  1  0
 38 39  2  0
 38 44  1  0
 39 40  1  0
 40 41  2  0
 40 42  1  0
 42 43  1  0
M  CHG  1  45   1
M  END
$$$$
