
     RDKit          3D

 45 50  0  0  0  0  0  0  0  0999 V2000
   36.4813   -8.1297   12.3547 C   0  0  0  0  0  0  0  0  0  0  0  0
   37.7226   -8.2200   11.7589 C   0  0  0  0  0  0  0  0  0  0  0  0
   38.8898   -8.0378   12.4684 C   0  0  0  0  0  0  0  0  0  0  0  0
   38.4116   -7.2934   18.3433 C   0  0  0  0  0  0  0  0  0  0  0  0
   39.2066   -6.1349   18.9019 C   0  0  0  0  0  0  0  0  0  0  0  0
   37.6452   -5.7003   20.6048 C   0  0  0  0  0  0  0  0  0  0  0  0
   36.8279   -6.9102   20.2086 C   0  0  0  0  0  0  0  0  0  0  0  0
   40.6057   -5.8253   15.1365 C   0  0  0  0  0  0  0  0  0  0  0  0
   35.1917   -8.5653   10.2205 C   0  0  1  0  0  0  0  0  0  0  0  0
   34.8521   -9.9296    9.8884 C   0  0  0  0  0  0  0  0  0  0  0  0
   33.7352  -10.5054   10.4812 C   0  0  0  0  0  0  0  0  0  0  0  0
   33.3793  -11.8075   10.1748 C   0  0  0  0  0  0  0  0  0  0  0  0
   34.1366  -12.5398    9.2757 C   0  0  0  0  0  0  0  0  0  0  0  0
   35.2464  -11.9872    8.6778 C   0  0  0  0  0  0  0  0  0  0  0  0
   35.5687  -10.6806    9.0113 C   0  0  0  0  0  0  0  0  0  0  0  0
   34.3443   -7.4948    9.6367 C   0  0  0  0  0  0  0  0  0  0  0  0
   34.6128   -7.0121    8.3480 C   0  0  0  0  0  0  0  0  0  0  0  0
   33.8172   -6.0262    7.8284 C   0  0  0  0  0  0  0  0  0  0  0  0
   32.7584   -5.4820    8.5176 C   0  0  0  0  0  0  0  0  0  0  0  0
   32.5300   -5.9853    9.7819 C   0  0  0  0  0  0  0  0  0  0  0  0
   31.6871  -10.9402   11.3532 C   0  0  1  0  0  0  0  0  0  0  0  0
   38.8603   -7.7554   13.8130 C   0  0  0  0  0  0  0  0  0  0  0  0
   37.6336   -7.6600   14.4284 C   0  0  0  0  0  0  0  0  0  0  0  0
   36.4628   -7.8402   13.7284 C   0  0  0  0  0  0  0  0  0  0  0  0
   35.2336   -7.6978   14.3738 N   0  0  0  0  0  0  0  0  0  0  0  0
   40.3710   -7.5162   14.7105 S   0  0  1  0  0  6  0  0  0  0  0  0
   41.4623   -7.9828   13.7874 O   0  0  0  0  0  0  0  0  0  0  0  0
   40.3727   -8.3881   15.9053 O   0  0  0  0  0  0  0  0  0  0  0  0
   33.3081   -6.9440   10.2792 N   0  0  0  0  0  0  0  0  0  0  0  0
   35.9801   -7.6628    7.4449 Cl  0  0  0  0  0  0  0  0  0  0  0  0
   35.2843   -8.3166   11.6550 N   0  0  0  0  0  0  0  0  0  0  0  0
   32.7894  -10.0698   11.3925 O   0  0  0  0  0  0  0  0  0  0  0  0
   32.2417  -12.1524   10.8859 O   0  0  0  0  0  0  0  0  0  0  0  0
   31.1347  -11.1366   12.6063 F   0  0  0  0  0  0  0  0  0  0  0  0
   30.7412  -10.4535   10.4608 F   0  0  0  0  0  0  0  0  0  0  0  0
   34.9946   -7.5413   15.7608 C   0  0  0  0  0  0  0  0  0  0  0  0
   36.0484   -7.4356   16.6208 N   0  0  0  0  0  0  0  0  0  0  0  0
   35.9248   -7.2686   17.9441 C   0  0  0  0  0  0  0  0  0  0  0  0
   34.6811   -7.2024   18.4456 N   0  0  0  0  0  0  0  0  0  0  0  0
   33.5838   -7.2980   17.6621 C   0  0  0  0  0  0  0  0  0  0  0  0
   33.8001   -7.4643   16.3475 N   0  0  0  0  0  0  0  0  0  0  0  0
   32.2994   -7.2288   18.1811 O   0  0  0  0  0  0  0  0  0  0  0  0
   32.1487   -7.0820   19.5689 C   0  0  0  0  0  0  0  0  0  0  0  0
   37.0491   -7.1597   18.8103 N   0  0  0  0  0  0  0  0  0  0  0  0
   39.0439   -6.0444   20.3571 N   0  0  0  0  0  4  0  0  0  0  0  0
  1  2  2  0
 24  1  1  0
  1 31  1  0
  2  3  1  0
 22  3  2  0
  4  5  1  0
 44  4  1  0
  5 45  1  0
  7  6  1  0
  6 45  1  0
 44  7  1  0
 26  8  1  1
  9 10  1  0
  9 16  1  0
  9 31  1  1
 10 11  2  0
 10 15  1  0
 11 12  1  0
 11 32  1  0
 12 13  2  0
 12 33  1  0
 14 13  1  0
 15 14  2  0
 16 17  2  0
 16 29  1  0
 17 18  1  0
 17 30  1  0
 18 19  2  0
 20 19  1  0
 29 20  2  0
 32 21  1  0
 21 33  1  0
 21 34  1  1
 21 35  1  0
 23 22  1  0
 22 26  1  0
 24 23  2  0
 25 24  1  0
 36 25  1  0
 26 27  2  0
 26 28  2  0
 37 36  2  0
 36 41  1  0
 38 37  1  0
 38 39  2  0
 38 44  1  0
 39 40  1  0
 40 41  2  0
 40 42  1  0
 42 43  1  0
M  CHG  1  45   1
M  END
$$$$
