
     RDKit          3D

 45 50  0  0  0  0  0  0  0  0999 V2000
   33.5942   -9.5157   12.5304 C   0  0  0  0  0  0  0  0  0  0  0  0
   32.2560   -9.8518   12.5238 C   0  0  0  0  0  0  0  0  0  0  0  0
   31.4970   -9.8562   13.6739 C   0  0  0  0  0  0  0  0  0  0  0  0
   40.5351   -6.8299   16.7348 C   0  0  0  0  0  0  0  0  0  0  0  0
   41.7318   -7.7433   16.8747 C   0  0  0  0  0  0  0  0  0  0  0  0
   41.4806   -8.6369   14.7148 C   0  0  0  0  0  0  0  0  0  0  0  0
   40.3428   -7.6848   14.4183 C   0  0  0  0  0  0  0  0  0  0  0  0
   30.4441   -7.9371   16.7366 C   0  0  0  0  0  0  0  0  0  0  0  0
   33.8901   -9.7843   10.0308 C   0  0  1  0  0  0  0  0  0  0  0  0
   34.5254   -8.9961    9.0002 C   0  0  0  0  0  0  0  0  0  0  0  0
   33.7275   -8.2782    8.1180 C   0  0  0  0  0  0  0  0  0  0  0  0
   34.3082   -7.5062    7.1265 C   0  0  0  0  0  0  0  0  0  0  0  0
   35.6871   -7.4478    7.0118 C   0  0  0  0  0  0  0  0  0  0  0  0
   36.4947   -8.1515    7.8761 C   0  0  0  0  0  0  0  0  0  0  0  0
   35.8741   -8.9123    8.8550 C   0  0  0  0  0  0  0  0  0  0  0  0
   33.8979  -11.2590    9.8574 C   0  0  0  0  0  0  0  0  0  0  0  0
   32.7586  -11.9137    9.3682 C   0  0  0  0  0  0  0  0  0  0  0  0
   32.7886  -13.2740    9.2140 C   0  0  0  0  0  0  0  0  0  0  0  0
   33.8930  -14.0347    9.5201 C   0  0  0  0  0  0  0  0  0  0  0  0
   34.9915  -13.3507    9.9990 C   0  0  0  0  0  0  0  0  0  0  0  0
   32.1297   -6.9977    7.1425 C   0  0  1  0  0  0  0  0  0  0  0  0
   32.0521   -9.5221   14.8858 C   0  0  0  0  0  0  0  0  0  0  0  0
   33.3853   -9.1840   14.9167 C   0  0  0  0  0  0  0  0  0  0  0  0
   34.1513   -9.1767   13.7738 C   0  0  0  0  0  0  0  0  0  0  0  0
   35.5103   -8.8672   13.8451 N   0  0  0  0  0  0  0  0  0  0  0  0
   31.0638   -9.5398   16.3582 S   0  0  1  0  0  6  0  0  0  0  0  0
   31.9804  -10.0207   17.4488 O   0  0  0  0  0  0  0  0  0  0  0  0
   29.9733  -10.5269   16.2028 O   0  0  0  0  0  0  0  0  0  0  0  0
   34.9539  -12.0282   10.1454 N   0  0  0  0  0  0  0  0  0  0  0  0
   31.3129  -10.9768    8.9935 Cl  0  0  0  0  0  0  0  0  0  0  0  0
   34.3819   -9.4991   11.3742 N   0  0  0  0  0  0  0  0  0  0  0  0
   32.3625   -8.1189    7.9569 O   0  0  0  0  0  0  0  0  0  0  0  0
   33.3149   -6.8925    6.3812 O   0  0  0  0  0  0  0  0  0  0  0  0
   31.0511   -7.1846    6.2965 F   0  0  0  0  0  0  0  0  0  0  0  0
   31.9522   -5.8735    7.9379 F   0  0  0  0  0  0  0  0  0  0  0  0
   36.2094   -8.2716   14.9230 C   0  0  0  0  0  0  0  0  0  0  0  0
   37.5584   -8.0885   14.8351 N   0  0  0  0  0  0  0  0  0  0  0  0
   38.3038   -7.5205   15.7922 C   0  0  0  0  0  0  0  0  0  0  0  0
   37.6738   -7.1090   16.9041 N   0  0  0  0  0  0  0  0  0  0  0  0
   36.3400   -7.2530   17.0700 C   0  0  0  0  0  0  0  0  0  0  0  0
   35.6709   -7.8328   16.0607 N   0  0  0  0  0  0  0  0  0  0  0  0
   35.6901   -6.8270   18.2188 O   0  0  0  0  0  0  0  0  0  0  0  0
   34.3428   -7.1807   18.3921 C   0  0  0  0  0  0  0  0  0  0  0  0
   39.7104   -7.3438   15.6634 N   0  0  0  0  0  0  0  0  0  0  0  0
   42.4086   -7.9172   15.5847 N   0  0  0  0  0  4  0  0  0  0  0  0
  1  2  2  0
 24  1  1  0
  1 31  1  0
  2  3  1  0
 22  3  2  0
  4  5  1  0
 44  4  1  0
  5 45  1  0
  7  6  1  0
  6 45  1  0
 44  7  1  0
 26  8  1  1
  9 10  1  0
  9 16  1  0
  9 31  1  1
 10 11  2  0
 10 15  1  0
 11 12  1  0
 11 32  1  0
 12 13  2  0
 12 33  1  0
 14 13  1  0
 15 14  2  0
 16 17  2  0
 16 29  1  0
 17 18  1  0
 17 30  1  0
 18 19  2  0
 20 19  1  0
 29 20  2  0
 32 21  1  0
 21 33  1  0
 21 34  1  6
 21 35  1  0
 23 22  1  0
 22 26  1  0
 24 23  2  0
 25 24  1  0
 36 25  1  0
 26 27  2  0
 26 28  2  0
 37 36  2  0
 36 41  1  0
 38 37  1  0
 38 39  2  0
 38 44  1  0
 39 40  1  0
 40 41  2  0
 40 42  1  0
 42 43  1  0
M  CHG  1  45   1
M  END
$$$$
