
     RDKit          3D

 45 50  0  0  0  0  0  0  0  0999 V2000
   35.5229   -7.5908   13.9197 C   0  0  0  0  0  0  0  0  0  0  0  0
   34.4964   -8.4611   13.6152 C   0  0  0  0  0  0  0  0  0  0  0  0
   33.5815   -8.8726   14.5599 C   0  0  0  0  0  0  0  0  0  0  0  0
   35.0764   -4.7796   21.3702 C   0  0  0  0  0  0  0  0  0  0  0  0
   33.7057   -4.2137   21.6648 C   0  0  0  0  0  0  0  0  0  0  0  0
   32.6343   -5.6290   20.1235 C   0  0  0  0  0  0  0  0  0  0  0  0
   33.9324   -6.3505   19.8347 C   0  0  0  0  0  0  0  0  0  0  0  0
   31.2559   -7.7420   17.3678 C   0  0  0  0  0  0  0  0  0  0  0  0
   36.5339   -7.6346   11.5995 C   0  0  1  0  0  0  0  0  0  0  0  0
   35.8002   -6.8187   10.6597 C   0  0  0  0  0  0  0  0  0  0  0  0
   35.0305   -7.4447    9.6870 C   0  0  0  0  0  0  0  0  0  0  0  0
   34.3088   -6.6890    8.7792 C   0  0  0  0  0  0  0  0  0  0  0  0
   34.3525   -5.3060    8.8387 C   0  0  0  0  0  0  0  0  0  0  0  0
   35.1088   -4.6672    9.7948 C   0  0  0  0  0  0  0  0  0  0  0  0
   35.8166   -5.4600   10.6853 C   0  0  0  0  0  0  0  0  0  0  0  0
   37.9636   -7.8973   11.2966 C   0  0  0  0  0  0  0  0  0  0  0  0
   38.3438   -9.1100   10.7045 C   0  0  0  0  0  0  0  0  0  0  0  0
   39.6675   -9.3304   10.4318 C   0  0  0  0  0  0  0  0  0  0  0  0
   40.6501   -8.4102   10.7148 C   0  0  0  0  0  0  0  0  0  0  0  0
   40.2326   -7.2312   11.2975 C   0  0  0  0  0  0  0  0  0  0  0  0
   33.6415   -8.8089    8.5236 C   0  0  1  0  0  0  0  0  0  0  0  0
   33.6587   -8.4259   15.8572 C   0  0  0  0  0  0  0  0  0  0  0  0
   34.6746   -7.5576   16.1841 C   0  0  0  0  0  0  0  0  0  0  0  0
   35.5928   -7.1411   15.2479 C   0  0  0  0  0  0  0  0  0  0  0  0
   36.6347   -6.2907   15.6208 N   0  0  0  0  0  0  0  0  0  0  0  0
   32.4780   -8.9705   17.0631 S   0  0  1  0  0  6  0  0  0  0  0  0
   33.2751   -9.2404   18.3091 O   0  0  0  0  0  0  0  0  0  0  0  0
   31.8750  -10.2449   16.6156 O   0  0  0  0  0  0  0  0  0  0  0  0
   38.9437   -7.0251   11.5587 N   0  0  0  0  0  0  0  0  0  0  0  0
   37.1173  -10.3272   10.3549 Cl  0  0  0  0  0  0  0  0  0  0  0  0
   36.4590   -7.1556   12.9753 N   0  0  0  0  0  0  0  0  0  0  0  0
   34.7722   -8.7632    9.3565 O   0  0  0  0  0  0  0  0  0  0  0  0
   33.6278   -7.5330    7.9175 O   0  0  0  0  0  0  0  0  0  0  0  0
   33.7533   -9.7836    7.5482 F   0  0  0  0  0  0  0  0  0  0  0  0
   32.5029   -9.0016    9.2946 F   0  0  0  0  0  0  0  0  0  0  0  0
   36.8059   -5.6173   16.8548 C   0  0  0  0  0  0  0  0  0  0  0  0
   35.8976   -5.7996   17.8562 N   0  0  0  0  0  0  0  0  0  0  0  0
   35.9817   -5.2215   19.0617 C   0  0  0  0  0  0  0  0  0  0  0  0
   37.0298   -4.4135   19.2882 N   0  0  0  0  0  0  0  0  0  0  0  0
   37.9740   -4.1800   18.3495 C   0  0  0  0  0  0  0  0  0  0  0  0
   37.8109   -4.8003   17.1700 N   0  0  0  0  0  0  0  0  0  0  0  0
   39.0566   -3.3456   18.5848 O   0  0  0  0  0  0  0  0  0  0  0  0
   39.3115   -2.9411   19.9046 C   0  0  0  0  0  0  0  0  0  0  0  0
   35.0149   -5.4380   20.0837 N   0  0  0  0  0  0  0  0  0  0  0  0
   32.6749   -5.2495   21.5343 N   0  0  0  0  0  4  0  0  0  0  0  0
  1  2  2  0
 24  1  1  0
  1 31  1  0
  2  3  1  0
 22  3  2  0
  4  5  1  0
 44  4  1  0
  5 45  1  0
  7  6  1  0
  6 45  1  0
 44  7  1  0
 26  8  1  1
  9 10  1  0
  9 16  1  0
  9 31  1  1
 10 11  2  0
 10 15  1  0
 11 12  1  0
 11 32  1  0
 12 13  2  0
 12 33  1  0
 14 13  1  0
 15 14  2  0
 16 17  2  0
 16 29  1  0
 17 18  1  0
 17 30  1  0
 18 19  2  0
 20 19  1  0
 29 20  2  0
 32 21  1  0
 21 33  1  0
 21 34  1  6
 21 35  1  0
 23 22  1  0
 22 26  1  0
 24 23  2  0
 25 24  1  0
 36 25  1  0
 26 27  2  0
 26 28  2  0
 37 36  2  0
 36 41  1  0
 38 37  1  0
 38 39  2  0
 38 44  1  0
 39 40  1  0
 40 41  2  0
 40 42  1  0
 42 43  1  0
M  CHG  1  45   1
M  END
$$$$
