
     RDKit          3D

 45 50  0  0  0  0  0  0  0  0999 V2000
   35.9803   -6.7378   15.4644 C   0  0  0  0  0  0  0  0  0  0  0  0
   35.4079   -7.9784   15.2712 C   0  0  0  0  0  0  0  0  0  0  0  0
   34.6393   -8.5882   16.2388 C   0  0  0  0  0  0  0  0  0  0  0  0
   37.5311   -0.0025   17.8266 C   0  0  0  0  0  0  0  0  0  0  0  0
   36.8877    1.3219   17.4829 C   0  0  0  0  0  0  0  0  0  0  0  0
   35.9535    1.5848   19.6241 C   0  0  0  0  0  0  0  0  0  0  0  0
   36.6464    0.3329   20.1155 C   0  0  0  0  0  0  0  0  0  0  0  0
   33.9572   -8.3484   20.3074 C   0  0  0  0  0  0  0  0  0  0  0  0
   37.2118   -6.7166   13.2529 C   0  0  1  0  0  0  0  0  0  0  0  0
   36.8993   -5.9454   12.0720 C   0  0  0  0  0  0  0  0  0  0  0  0
   36.1727   -6.5467   11.0517 C   0  0  0  0  0  0  0  0  0  0  0  0
   35.8499   -5.8296    9.9126 C   0  0  0  0  0  0  0  0  0  0  0  0
   36.2509   -4.5099    9.7874 C   0  0  0  0  0  0  0  0  0  0  0  0
   36.9712   -3.8963   10.7869 C   0  0  0  0  0  0  0  0  0  0  0  0
   37.2739   -4.6488   11.9114 C   0  0  0  0  0  0  0  0  0  0  0  0
   38.6287   -7.1166   13.4456 C   0  0  0  0  0  0  0  0  0  0  0  0
   39.0723   -8.3671   12.9925 C   0  0  0  0  0  0  0  0  0  0  0  0
   40.3837   -8.7146   13.1786 C   0  0  0  0  0  0  0  0  0  0  0  0
   41.2937   -7.8876   13.7952 C   0  0  0  0  0  0  0  0  0  0  0  0
   40.8151   -6.6673   14.2261 C   0  0  0  0  0  0  0  0  0  0  0  0
   34.6952   -7.7432    9.8150 C   0  0  1  0  0  0  0  0  0  0  0  0
   34.4117   -7.9757   17.4477 C   0  0  0  0  0  0  0  0  0  0  0  0
   34.9731   -6.7383   17.6630 C   0  0  0  0  0  0  0  0  0  0  0  0
   35.7420   -6.1214   16.7031 C   0  0  0  0  0  0  0  0  0  0  0  0
   36.3297   -4.8835   16.9676 N   0  0  0  0  0  0  0  0  0  0  0  0
   33.4264   -8.7769   18.6855 S   0  0  1  0  0  6  0  0  0  0  0  0
   33.6043  -10.2505   18.4456 O   0  0  0  0  0  0  0  0  0  0  0  0
   32.0021   -8.4423   18.4683 O   0  0  0  0  0  0  0  0  0  0  0  0
   39.5389   -6.3374   14.0407 N   0  0  0  0  0  0  0  0  0  0  0  0
   37.9288   -9.4677   12.2247 Cl  0  0  0  0  0  0  0  0  0  0  0  0
   36.7591   -6.0980   14.4941 N   0  0  0  0  0  0  0  0  0  0  0  0
   35.6330   -7.8062   10.8595 O   0  0  0  0  0  0  0  0  0  0  0  0
   35.1297   -6.6386    9.0491 O   0  0  0  0  0  0  0  0  0  0  0  0
   34.7109   -8.8839    9.0325 F   0  0  0  0  0  0  0  0  0  0  0  0
   33.4298   -7.5138   10.3388 F   0  0  0  0  0  0  0  0  0  0  0  0
   36.1192   -4.0446   18.0889 C   0  0  0  0  0  0  0  0  0  0  0  0
   36.5538   -2.7518   18.0571 N   0  0  0  0  0  0  0  0  0  0  0  0
   36.3872   -1.8780   19.0586 C   0  0  0  0  0  0  0  0  0  0  0  0
   35.7512   -2.3120   20.1586 N   0  0  0  0  0  0  0  0  0  0  0  0
   35.2893   -3.5774   20.2700 C   0  0  0  0  0  0  0  0  0  0  0  0
   35.4998   -4.3857   19.2188 N   0  0  0  0  0  0  0  0  0  0  0  0
   34.6319   -4.0245   21.4065 O   0  0  0  0  0  0  0  0  0  0  0  0
   34.3531   -5.3956   21.5189 C   0  0  0  0  0  0  0  0  0  0  0  0
   36.8527   -0.5347   18.9880 N   0  0  0  0  0  0  0  0  0  0  0  0
   36.8540    2.2047   18.6542 N   0  0  0  0  0  4  0  0  0  0  0  0
  1  2  2  0
 24  1  1  0
  1 31  1  0
  2  3  1  0
 22  3  2  0
  4  5  1  0
 44  4  1  0
  5 45  1  0
  7  6  1  0
  6 45  1  0
 44  7  1  0
 26  8  1  1
  9 10  1  0
  9 16  1  0
  9 31  1  1
 10 11  2  0
 10 15  1  0
 11 12  1  0
 11 32  1  0
 12 13  2  0
 12 33  1  0
 14 13  1  0
 15 14  2  0
 16 17  2  0
 16 29  1  0
 17 18  1  0
 17 30  1  0
 18 19  2  0
 20 19  1  0
 29 20  2  0
 32 21  1  0
 21 33  1  0
 21 34  1  6
 21 35  1  0
 23 22  1  0
 22 26  1  0
 24 23  2  0
 25 24  1  0
 36 25  1  0
 26 27  2  0
 26 28  2  0
 37 36  2  0
 36 41  1  0
 38 37  1  0
 38 39  2  0
 38 44  1  0
 39 40  1  0
 40 41  2  0
 40 42  1  0
 42 43  1  0
M  CHG  1  45   1
M  END
$$$$
