
     RDKit          3D

 45 50  0  0  0  0  0  0  0  0999 V2000
   36.2542   -6.5423   15.5830 C   0  0  0  0  0  0  0  0  0  0  0  0
   36.1663   -7.9183   15.6363 C   0  0  0  0  0  0  0  0  0  0  0  0
   35.7365   -8.5810   16.7654 C   0  0  0  0  0  0  0  0  0  0  0  0
   34.9065    1.0801   19.1947 C   0  0  0  0  0  0  0  0  0  0  0  0
   35.9655    2.1498   19.3376 C   0  0  0  0  0  0  0  0  0  0  0  0
   37.0210    1.5742   17.3174 C   0  0  0  0  0  0  0  0  0  0  0  0
   35.9480    0.5528   17.0103 C   0  0  0  0  0  0  0  0  0  0  0  0
   33.2839   -8.1435   19.9160 C   0  0  0  0  0  0  0  0  0  0  0  0
   37.0896   -6.4786   13.1944 C   0  0  1  0  0  0  0  0  0  0  0  0
   36.6485   -5.7683   12.0164 C   0  0  0  0  0  0  0  0  0  0  0  0
   35.8222   -6.4216   11.1103 C   0  0  0  0  0  0  0  0  0  0  0  0
   35.3755   -5.7632    9.9775 C   0  0  0  0  0  0  0  0  0  0  0  0
   35.7516   -4.4508    9.7447 C   0  0  0  0  0  0  0  0  0  0  0  0
   36.5694   -3.7865   10.6304 C   0  0  0  0  0  0  0  0  0  0  0  0
   36.9947   -4.4809   11.7525 C   0  0  0  0  0  0  0  0  0  0  0  0
   38.5395   -6.7815   13.2997 C   0  0  0  0  0  0  0  0  0  0  0  0
   39.0385   -7.9993   12.8162 C   0  0  0  0  0  0  0  0  0  0  0  0
   40.3793   -8.2569   12.9214 C   0  0  0  0  0  0  0  0  0  0  0  0
   41.2668   -7.3697   13.4848 C   0  0  0  0  0  0  0  0  0  0  0  0
   40.7337   -6.1844   13.9481 C   0  0  0  0  0  0  0  0  0  0  0  0
   34.2304   -7.6813   10.0986 C   0  0  1  0  0  0  0  0  0  0  0  0
   35.3751   -7.8869   17.8951 C   0  0  0  0  0  0  0  0  0  0  0  0
   35.4551   -6.5138   17.8654 C   0  0  0  0  0  0  0  0  0  0  0  0
   35.8831   -5.8433   16.7427 C   0  0  0  0  0  0  0  0  0  0  0  0
   35.9904   -4.4519   16.7581 N   0  0  0  0  0  0  0  0  0  0  0  0
   34.8311   -8.7547   19.3429 S   0  0  1  0  0  6  0  0  0  0  0  0
   35.9021   -8.5243   20.3727 O   0  0  0  0  0  0  0  0  0  0  0  0
   34.7745  -10.2037   19.0516 O   0  0  0  0  0  0  0  0  0  0  0  0
   39.4292   -5.9420   13.8415 N   0  0  0  0  0  0  0  0  0  0  0  0
   37.9278   -9.1754   12.1151 Cl  0  0  0  0  0  0  0  0  0  0  0  0
   36.6822   -5.8491   14.4457 N   0  0  0  0  0  0  0  0  0  0  0  0
   35.2740   -7.6900   11.0394 O   0  0  0  0  0  0  0  0  0  0  0  0
   34.5736   -6.6159    9.2368 O   0  0  0  0  0  0  0  0  0  0  0  0
   34.1713   -8.8600    9.3767 F   0  0  0  0  0  0  0  0  0  0  0  0
   33.0261   -7.4280   10.7416 F   0  0  0  0  0  0  0  0  0  0  0  0
   35.6471   -3.5664   17.8085 C   0  0  0  0  0  0  0  0  0  0  0  0
   35.6786   -2.2194   17.5948 N   0  0  0  0  0  0  0  0  0  0  0  0
   35.3558   -1.3041   18.5180 C   0  0  0  0  0  0  0  0  0  0  0  0
   34.9788   -1.7511   19.7267 N   0  0  0  0  0  0  0  0  0  0  0  0
   34.9206   -3.0694   20.0198 C   0  0  0  0  0  0  0  0  0  0  0  0
   35.2614   -3.9166   19.0355 N   0  0  0  0  0  0  0  0  0  0  0  0
   34.5305   -3.5301   21.2685 O   0  0  0  0  0  0  0  0  0  0  0  0
   33.1904   -3.3631   21.6514 C   0  0  0  0  0  0  0  0  0  0  0  0
   35.3983    0.0946   18.2570 N   0  0  0  0  0  0  0  0  0  0  0  0
   36.3614    2.6702   18.0243 N   0  0  0  0  0  4  0  0  0  0  0  0
  1  2  2  0
 24  1  1  0
  1 31  1  0
  2  3  1  0
 22  3  2  0
  4  5  1  0
 44  4  1  0
  5 45  1  0
  7  6  1  0
  6 45  1  0
 44  7  1  0
 26  8  1  1
  9 10  1  0
  9 16  1  0
  9 31  1  1
 10 11  2  0
 10 15  1  0
 11 12  1  0
 11 32  1  0
 12 13  2  0
 12 33  1  0
 14 13  1  0
 15 14  2  0
 16 17  2  0
 16 29  1  0
 17 18  1  0
 17 30  1  0
 18 19  2  0
 20 19  1  0
 29 20  2  0
 32 21  1  0
 21 33  1  0
 21 34  1  6
 21 35  1  0
 23 22  1  0
 22 26  1  0
 24 23  2  0
 25 24  1  0
 36 25  1  0
 26 27  2  0
 26 28  2  0
 37 36  2  0
 36 41  1  0
 38 37  1  0
 38 39  2  0
 38 44  1  0
 39 40  1  0
 40 41  2  0
 40 42  1  0
 42 43  1  0
M  CHG  1  45   1
M  END
$$$$
