
     RDKit          3D

 45 50  0  0  0  0  0  0  0  0999 V2000
   35.3726   -7.5028   14.4795 C   0  0  0  0  0  0  0  0  0  0  0  0
   34.6163   -8.5534   14.0017 C   0  0  0  0  0  0  0  0  0  0  0  0
   33.5639   -9.0821   14.7170 C   0  0  0  0  0  0  0  0  0  0  0  0
   36.8459   -1.5160   20.3981 C   0  0  0  0  0  0  0  0  0  0  0  0
   38.1239   -1.4924   21.2056 C   0  0  0  0  0  0  0  0  0  0  0  0
   39.4395   -2.2477   19.4097 C   0  0  0  0  0  0  0  0  0  0  0  0
   38.2506   -2.1973   18.4754 C   0  0  0  0  0  0  0  0  0  0  0  0
   32.4387  -10.3551   18.1263 C   0  0  0  0  0  0  0  0  0  0  0  0
   36.9180   -7.4288   12.4760 C   0  0  1  0  0  0  0  0  0  0  0  0
   36.4058   -6.6797   11.3519 C   0  0  0  0  0  0  0  0  0  0  0  0
   35.9470   -7.3724   10.2383 C   0  0  0  0  0  0  0  0  0  0  0  0
   35.4414   -6.6821    9.1502 C   0  0  0  0  0  0  0  0  0  0  0  0
   35.3919   -5.2981    9.1693 C   0  0  0  0  0  0  0  0  0  0  0  0
   35.8414   -4.5939   10.2631 C   0  0  0  0  0  0  0  0  0  0  0  0
   36.3399   -5.3224   11.3322 C   0  0  0  0  0  0  0  0  0  0  0  0
   38.3918   -7.5810   12.5737 C   0  0  0  0  0  0  0  0  0  0  0  0
   39.0149   -8.7241   12.0531 C   0  0  0  0  0  0  0  0  0  0  0  0
   40.3755   -8.8428   12.1520 C   0  0  0  0  0  0  0  0  0  0  0  0
   41.1661   -7.8854   12.7440 C   0  0  0  0  0  0  0  0  0  0  0  0
   40.5125   -6.7776   13.2435 C   0  0  0  0  0  0  0  0  0  0  0  0
   34.9801   -8.8444    8.8090 C   0  0  1  0  0  0  0  0  0  0  0  0
   33.2244   -8.5763   15.9489 C   0  0  0  0  0  0  0  0  0  0  0  0
   33.9650   -7.5287   16.4458 C   0  0  0  0  0  0  0  0  0  0  0  0
   35.0176   -6.9942   15.7391 C   0  0  0  0  0  0  0  0  0  0  0  0
   35.7737   -5.9578   16.2884 N   0  0  0  0  0  0  0  0  0  0  0  0
   31.8719   -9.2725   16.8604 S   0  0  1  0  0  6  0  0  0  0  0  0
   31.0550  -10.0276   15.8488 O   0  0  0  0  0  0  0  0  0  0  0  0
   31.0368   -8.1804   17.4060 O   0  0  0  0  0  0  0  0  0  0  0  0
   39.1896   -6.6701   13.1427 N   0  0  0  0  0  0  0  0  0  0  0  0
   38.0323   -9.9877   11.3140 Cl  0  0  0  0  0  0  0  0  0  0  0  0
   36.4413   -6.9471   13.7678 N   0  0  0  0  0  0  0  0  0  0  0  0
   35.8552   -8.7110    9.9002 O   0  0  0  0  0  0  0  0  0  0  0  0
   35.0518   -7.5845    8.1741 O   0  0  0  0  0  0  0  0  0  0  0  0
   35.3919   -9.8299    7.9297 F   0  0  0  0  0  0  0  0  0  0  0  0
   33.6943   -9.0921    9.2710 F   0  0  0  0  0  0  0  0  0  0  0  0
   35.4779   -5.1809   17.4348 C   0  0  0  0  0  0  0  0  0  0  0  0
   36.3386   -4.1971   17.8254 N   0  0  0  0  0  0  0  0  0  0  0  0
   36.1389   -3.4000   18.8832 C   0  0  0  0  0  0  0  0  0  0  0  0
   35.0179   -3.5895   19.5974 N   0  0  0  0  0  0  0  0  0  0  0  0
   34.1137   -4.5419   19.2774 C   0  0  0  0  0  0  0  0  0  0  0  0
   34.3939   -5.2955   18.2021 N   0  0  0  0  0  0  0  0  0  0  0  0
   32.9557   -4.7364   20.0155 O   0  0  0  0  0  0  0  0  0  0  0  0
   32.7089   -3.8857   21.1044 C   0  0  0  0  0  0  0  0  0  0  0  0
   37.0594   -2.3813   19.2589 N   0  0  0  0  0  0  0  0  0  0  0  0
   39.2703   -1.1480   20.3573 N   0  0  0  0  0  4  0  0  0  0  0  0
  1  2  2  0
 24  1  1  0
  1 31  1  0
  2  3  1  0
 22  3  2  0
  4  5  1  0
 44  4  1  0
  5 45  1  0
  7  6  1  0
  6 45  1  0
 44  7  1  0
 26  8  1  1
  9 10  1  0
  9 16  1  0
  9 31  1  1
 10 11  2  0
 10 15  1  0
 11 12  1  0
 11 32  1  0
 12 13  2  0
 12 33  1  0
 14 13  1  0
 15 14  2  0
 16 17  2  0
 16 29  1  0
 17 18  1  0
 17 30  1  0
 18 19  2  0
 20 19  1  0
 29 20  2  0
 32 21  1  0
 21 33  1  0
 21 34  1  6
 21 35  1  0
 23 22  1  0
 22 26  1  0
 24 23  2  0
 25 24  1  0
 36 25  1  0
 26 27  2  0
 26 28  2  0
 37 36  2  0
 36 41  1  0
 38 37  1  0
 38 39  2  0
 38 44  1  0
 39 40  1  0
 40 41  2  0
 40 42  1  0
 42 43  1  0
M  CHG  1  45   1
M  END
$$$$
