
     RDKit          3D

 45 50  0  0  0  0  0  0  0  0999 V2000
   32.4435   -9.9582   11.3840 C   0  0  0  0  0  0  0  0  0  0  0  0
   31.8606  -10.4205   10.2219 C   0  0  0  0  0  0  0  0  0  0  0  0
   30.7073  -11.1746   10.2316 C   0  0  0  0  0  0  0  0  0  0  0  0
   33.9709   -8.2502   18.3608 C   0  0  0  0  0  0  0  0  0  0  0  0
   33.7416   -7.0925   19.3059 C   0  0  0  0  0  0  0  0  0  0  0  0
   32.2848   -8.3207   20.6828 C   0  0  0  0  0  0  0  0  0  0  0  0
   32.5309   -9.5774   19.8771 C   0  0  0  0  0  0  0  0  0  0  0  0
   28.9528  -14.1676   11.7500 C   0  0  0  0  0  0  0  0  0  0  0  0
   34.5156   -9.0316   10.2635 C   0  0  1  0  0  0  0  0  0  0  0  0
   34.1920   -7.9111    9.4110 C   0  0  0  0  0  0  0  0  0  0  0  0
   33.9681   -8.1404    8.0591 C   0  0  0  0  0  0  0  0  0  0  0  0
   33.6465   -7.0877    7.2197 C   0  0  0  0  0  0  0  0  0  0  0  0
   33.5473   -5.8025    7.7262 C   0  0  0  0  0  0  0  0  0  0  0  0
   33.7652   -5.5550    9.0624 C   0  0  0  0  0  0  0  0  0  0  0  0
   34.0847   -6.6362    9.8694 C   0  0  0  0  0  0  0  0  0  0  0  0
   35.9028   -9.1056   10.7879 C   0  0  0  0  0  0  0  0  0  0  0  0
   36.8962   -9.7675   10.0525 C   0  0  0  0  0  0  0  0  0  0  0  0
   38.1693   -9.8217   10.5538 C   0  0  0  0  0  0  0  0  0  0  0  0
   38.5220   -9.2531   11.7557 C   0  0  0  0  0  0  0  0  0  0  0  0
   37.5141   -8.6125   12.4469 C   0  0  0  0  0  0  0  0  0  0  0  0
   33.3292   -8.9651    6.0452 C   0  0  1  0  0  0  0  0  0  0  0  0
   30.0871  -11.4985   11.4143 C   0  0  0  0  0  0  0  0  0  0  0  0
   30.6507  -11.0489   12.5860 C   0  0  0  0  0  0  0  0  0  0  0  0
   31.8020  -10.2955   12.5866 C   0  0  0  0  0  0  0  0  0  0  0  0
   32.3702   -9.8880   13.7944 N   0  0  0  0  0  0  0  0  0  0  0  0
   28.6074  -12.4761   11.4105 S   0  0  1  0  0  6  0  0  0  0  0  0
   28.0313  -12.3233   10.0301 O   0  0  0  0  0  0  0  0  0  0  0  0
   27.6441  -11.9081   12.3785 O   0  0  0  0  0  0  0  0  0  0  0  0
   36.2794   -8.5643   11.9519 N   0  0  0  0  0  0  0  0  0  0  0  0
   36.4765  -10.5355    8.5220 Cl  0  0  0  0  0  0  0  0  0  0  0  0
   33.6105   -9.1867   11.3970 N   0  0  0  0  0  0  0  0  0  0  0  0
   33.9853   -9.2636    7.2513 O   0  0  0  0  0  0  0  0  0  0  0  0
   33.4727   -7.5645    5.9308 O   0  0  0  0  0  0  0  0  0  0  0  0
   33.9279   -9.5818    4.9612 F   0  0  0  0  0  0  0  0  0  0  0  0
   31.9899   -9.3179    6.1441 F   0  0  0  0  0  0  0  0  0  0  0  0
   31.8780  -10.1099   15.1036 C   0  0  0  0  0  0  0  0  0  0  0  0
   32.5505   -9.5978   16.1744 N   0  0  0  0  0  0  0  0  0  0  0  0
   32.1565   -9.7390   17.4469 C   0  0  0  0  0  0  0  0  0  0  0  0
   31.0273  -10.4296   17.6716 N   0  0  0  0  0  0  0  0  0  0  0  0
   30.3020  -10.9689   16.6665 C   0  0  0  0  0  0  0  0  0  0  0  0
   30.7702  -10.7790   15.4225 N   0  0  0  0  0  0  0  0  0  0  0  0
   29.1353  -11.6817   16.8997 O   0  0  0  0  0  0  0  0  0  0  0  0
   28.4865  -12.2743   15.8051 C   0  0  0  0  0  0  0  0  0  0  0  0
   32.8839   -9.1876   18.5392 N   0  0  0  0  0  0  0  0  0  0  0  0
   33.5396   -7.5715   20.6778 N   0  0  0  0  0  4  0  0  0  0  0  0
  1  2  2  0
 24  1  1  0
  1 31  1  0
  2  3  1  0
 22  3  2  0
  4  5  1  0
 44  4  1  0
  5 45  1  0
  7  6  1  0
  6 45  1  0
 44  7  1  0
 26  8  1  1
  9 10  1  0
  9 16  1  0
  9 31  1  1
 10 11  2  0
 10 15  1  0
 11 12  1  0
 11 32  1  0
 12 13  2  0
 12 33  1  0
 14 13  1  0
 15 14  2  0
 16 17  2  0
 16 29  1  0
 17 18  1  0
 17 30  1  0
 18 19  2  0
 20 19  1  0
 29 20  2  0
 32 21  1  0
 21 33  1  0
 21 34  1  6
 21 35  1  0
 23 22  1  0
 22 26  1  0
 24 23  2  0
 25 24  1  0
 36 25  1  0
 26 27  2  0
 26 28  2  0
 37 36  2  0
 36 41  1  0
 38 37  1  0
 38 39  2  0
 38 44  1  0
 39 40  1  0
 40 41  2  0
 40 42  1  0
 42 43  1  0
M  CHG  1  45   1
M  END
$$$$
