
     RDKit          3D

 45 50  0  0  0  0  0  0  0  0999 V2000
   35.4654   -6.7999   14.1770 C   0  0  0  0  0  0  0  0  0  0  0  0
   34.5287   -7.5784   13.5286 C   0  0  0  0  0  0  0  0  0  0  0  0
   33.2326   -7.6935   13.9820 C   0  0  0  0  0  0  0  0  0  0  0  0
   37.7318   -2.0394   20.9007 C   0  0  0  0  0  0  0  0  0  0  0  0
   38.9497   -2.3756   21.7313 C   0  0  0  0  0  0  0  0  0  0  0  0
   40.1867   -3.1162   19.8745 C   0  0  0  0  0  0  0  0  0  0  0  0
   39.0765   -2.7079   18.9312 C   0  0  0  0  0  0  0  0  0  0  0  0
   30.9467   -8.6396   16.6676 C   0  0  0  0  0  0  0  0  0  0  0  0
   37.3528   -7.3764   12.5918 C   0  0  1  0  0  0  0  0  0  0  0  0
   37.3889   -6.5945   11.3776 C   0  0  0  0  0  0  0  0  0  0  0  0
   36.7342   -7.0762   10.2507 C   0  0  0  0  0  0  0  0  0  0  0  0
   36.7431   -6.3443    9.0758 C   0  0  0  0  0  0  0  0  0  0  0  0
   37.4054   -5.1292    9.0211 C   0  0  0  0  0  0  0  0  0  0  0  0
   38.0597   -4.6349   10.1265 C   0  0  0  0  0  0  0  0  0  0  0  0
   38.0268   -5.3982   11.2836 C   0  0  0  0  0  0  0  0  0  0  0  0
   38.6284   -7.9895   13.0410 C   0  0  0  0  0  0  0  0  0  0  0  0
   38.9614   -9.2905   12.6381 C   0  0  0  0  0  0  0  0  0  0  0  0
   40.1439   -9.8355   13.0623 C   0  0  0  0  0  0  0  0  0  0  0  0
   41.0273   -9.1609   13.8727 C   0  0  0  0  0  0  0  0  0  0  0  0
   40.6602   -7.8843   14.2461 C   0  0  0  0  0  0  0  0  0  0  0  0
   35.2729   -8.0053    8.7860 C   0  0  1  0  0  0  0  0  0  0  0  0
   32.8196   -7.0288   15.1117 C   0  0  0  0  0  0  0  0  0  0  0  0
   33.7367   -6.2469   15.7753 C   0  0  0  0  0  0  0  0  0  0  0  0
   35.0331   -6.1258   15.3303 C   0  0  0  0  0  0  0  0  0  0  0  0
   35.9494   -5.3561   16.0482 N   0  0  0  0  0  0  0  0  0  0  0  0
   31.1501   -7.1931   15.6868 S   0  0  1  0  0  6  0  0  0  0  0  0
   30.3062   -7.2762   14.4450 O   0  0  0  0  0  0  0  0  0  0  0  0
   30.7653   -5.9709   16.4256 O   0  0  0  0  0  0  0  0  0  0  0  0
   39.5091   -7.3621   13.8288 N   0  0  0  0  0  0  0  0  0  0  0  0
   37.8408  -10.1988   11.6244 Cl  0  0  0  0  0  0  0  0  0  0  0  0
   36.7845   -6.6643   13.7311 N   0  0  0  0  0  0  0  0  0  0  0  0
   36.0004   -8.2151    9.9697 O   0  0  0  0  0  0  0  0  0  0  0  0
   36.0293   -7.0263    8.1042 O   0  0  0  0  0  0  0  0  0  0  0  0
   35.1947   -9.1506    8.0138 F   0  0  0  0  0  0  0  0  0  0  0  0
   34.0078   -7.5243    9.0962 F   0  0  0  0  0  0  0  0  0  0  0  0
   35.7996   -4.8177   17.3494 C   0  0  0  0  0  0  0  0  0  0  0  0
   36.8116   -4.0864   17.8991 N   0  0  0  0  0  0  0  0  0  0  0  0
   36.7583   -3.5233   19.1134 C   0  0  0  0  0  0  0  0  0  0  0  0
   35.6335   -3.6955   19.8261 N   0  0  0  0  0  0  0  0  0  0  0  0
   34.5848   -4.4057   19.3541 C   0  0  0  0  0  0  0  0  0  0  0  0
   34.7242   -4.9351   18.1282 N   0  0  0  0  0  0  0  0  0  0  0  0
   33.4231   -4.5825   20.0910 O   0  0  0  0  0  0  0  0  0  0  0  0
   32.4296   -5.4296   19.5755 C   0  0  0  0  0  0  0  0  0  0  0  0
   37.8346   -2.7640   19.6531 N   0  0  0  0  0  0  0  0  0  0  0  0
   40.1811   -2.1461   20.9675 N   0  0  0  0  0  4  0  0  0  0  0  0
  1  2  2  0
 24  1  1  0
  1 31  1  0
  2  3  1  0
 22  3  2  0
  4  5  1  0
 44  4  1  0
  5 45  1  0
  7  6  1  0
  6 45  1  0
 44  7  1  0
 26  8  1  1
  9 10  1  0
  9 16  1  0
  9 31  1  1
 10 11  2  0
 10 15  1  0
 11 12  1  0
 11 32  1  0
 12 13  2  0
 12 33  1  0
 14 13  1  0
 15 14  2  0
 16 17  2  0
 16 29  1  0
 17 18  1  0
 17 30  1  0
 18 19  2  0
 20 19  1  0
 29 20  2  0
 32 21  1  0
 21 33  1  0
 21 34  1  6
 21 35  1  0
 23 22  1  0
 22 26  1  0
 24 23  2  0
 25 24  1  0
 36 25  1  0
 26 27  2  0
 26 28  2  0
 37 36  2  0
 36 41  1  0
 38 37  1  0
 38 39  2  0
 38 44  1  0
 39 40  1  0
 40 41  2  0
 40 42  1  0
 42 43  1  0
M  CHG  1  45   1
M  END
$$$$
