
     RDKit          3D

 31 32  0  0  0  0  0  0  0  0999 V2000
   -8.8181   30.0943   -4.3057 O   0  0  0  0  0  0  0  0  0  0  0  0
   -9.0012   28.3826   -5.7992 O   0  0  0  0  0  0  0  0  0  0  0  0
   -9.7484   32.3536   -4.9722 O   0  0  0  0  0  0  0  0  0  0  0  0
  -10.6279   34.1907   -5.7073 O   0  0  0  0  0  0  0  0  0  0  0  0
   -8.4990   37.6362   -8.6239 O   0  0  0  0  0  0  0  0  0  0  0  0
   -9.5355   38.8573   -7.0556 O   0  0  0  0  0  0  0  0  0  0  0  0
   -8.9463   29.7189   -5.4754 C   0  0  0  0  0  0  0  0  0  0  0  0
   -9.0466   30.7144   -6.5842 C   0  0  0  0  0  0  0  0  0  0  0  0
   -8.8833   32.0915   -6.0265 C   0  0  1  0  0  0  0  0  0  0  0  0
   -8.9371   33.1999   -7.0143 C   0  0  0  0  0  0  0  0  0  0  0  0
   -9.5437   34.4764   -6.5218 C   0  0  1  0  0  0  0  0  0  0  0  0
   -9.9906   35.3644   -7.6785 C   0  0  0  0  0  0  0  0  0  0  0  0
   -9.6253   34.6585   -8.9437 C   0  0  0  0  0  0  0  0  0  0  0  0
   -8.9629   35.5184   -9.9710 C   0  0  1  0  0  0  0  0  0  0  0  0
   -8.4342   34.7839  -11.1555 C   0  0  2  0  0  0  0  0  0  0  0  0
   -9.4086   34.5889  -12.2528 C   0  0  0  0  0  0  0  0  0  0  0  0
  -10.2097   35.5969  -12.5567 C   0  0  0  0  0  0  0  0  0  0  0  0
  -10.0648   36.8369  -11.7705 C   0  0  0  0  0  0  0  0  0  0  0  0
  -10.1678   38.0086  -12.3598 C   0  0  0  0  0  0  0  0  0  0  0  0
  -10.0225   39.2950  -11.5887 C   0  0  1  0  0  0  0  0  0  0  0  0
   -8.8858   39.0227  -10.5779 C   0  0  0  0  0  0  0  0  0  0  0  0
   -9.3911   37.9641   -9.6696 C   0  0  1  0  0  0  0  0  0  0  0  0
   -9.8283   36.7161  -10.3197 C   0  0  2  0  0  0  0  0  0  0  0  0
   -7.8131   33.4823  -10.7736 C   0  0  0  0  0  0  0  0  0  0  0  0
   -8.4876   38.2305   -7.3777 C   0  0  0  0  0  0  0  0  0  0  0  0
   -7.3238   38.1506   -6.4551 C   0  0  1  0  0  0  0  0  0  0  0  0
   -6.0224   38.0602   -7.2588 C   0  0  0  0  0  0  0  0  0  0  0  0
   -5.2022   39.3096   -7.1146 C   0  0  0  0  0  0  0  0  0  0  0  0
   -7.2135   39.3775   -5.5953 C   0  0  0  0  0  0  0  0  0  0  0  0
   -7.3813   36.9426   -5.5512 C   0  0  0  0  0  0  0  0  0  0  0  0
   -9.6442   40.3661  -12.5568 C   0  0  0  0  0  0  0  0  0  0  0  0
  7  1  2  0
  7  2  1  0
  9  3  1  1
 11  4  1  1
 22  5  1  1
  5 25  1  0
 25  6  2  0
  8  7  1  0
  9  8  1  0
 10  9  1  0
 11 10  1  0
 12 11  1  0
 13 12  1  0
 14 13  1  1
 14 15  1  0
 23 14  1  0
 16 15  1  0
 15 24  1  1
 17 16  2  0
 18 17  1  0
 19 18  2  0
 23 18  1  6
 20 19  1  0
 21 20  1  0
 20 31  1  6
 21 22  1  0
 22 23  1  0
 25 26  1  0
 26 27  1  0
 26 29  1  1
 26 30  1  0
 27 28  1  0
M  END
$$$$
