
     RDKit          3D

 31 32  0  0  0  0  0  0  0  0999 V2000
   -8.1137   32.5345   -2.9352 O   0  0  0  0  0  0  0  0  0  0  0  0
   -8.1282   30.2863   -2.5624 O   0  0  0  0  0  0  0  0  0  0  0  0
  -11.0854   32.7735   -5.3907 O   0  0  0  0  0  0  0  0  0  0  0  0
   -9.3300   32.1022   -8.2895 O   0  0  0  0  0  0  0  0  0  0  0  0
   -8.3382   37.5827   -9.0530 O   0  0  0  0  0  0  0  0  0  0  0  0
   -9.7538   38.1931   -7.4254 O   0  0  0  0  0  0  0  0  0  0  0  0
   -8.5532   31.4165   -3.2223 C   0  0  0  0  0  0  0  0  0  0  0  0
   -9.5691   31.2567   -4.3053 C   0  0  0  0  0  0  0  0  0  0  0  0
   -9.7716   32.5703   -4.9890 C   0  0  1  0  0  0  0  0  0  0  0  0
   -8.8461   32.8636   -6.1135 C   0  0  0  0  0  0  0  0  0  0  0  0
   -9.4987   33.1718   -7.4247 C   0  0  1  0  0  0  0  0  0  0  0  0
   -8.9200   34.4357   -8.0525 C   0  0  0  0  0  0  0  0  0  0  0  0
   -9.6793   34.6895   -9.3140 C   0  0  0  0  0  0  0  0  0  0  0  0
   -8.9311   35.4654  -10.3492 C   0  0  1  0  0  0  0  0  0  0  0  0
   -8.4332   34.6573  -11.4986 C   0  0  2  0  0  0  0  0  0  0  0  0
   -9.3949   34.5023  -12.6134 C   0  0  0  0  0  0  0  0  0  0  0  0
  -10.1105   35.5577  -12.9659 C   0  0  0  0  0  0  0  0  0  0  0  0
   -9.8896   36.8069  -12.2125 C   0  0  0  0  0  0  0  0  0  0  0  0
   -9.8905   37.9644  -12.8378 C   0  0  0  0  0  0  0  0  0  0  0  0
   -9.6654   39.2593  -12.1009 C   0  0  1  0  0  0  0  0  0  0  0  0
   -8.5754   38.9337  -11.0551 C   0  0  0  0  0  0  0  0  0  0  0  0
   -9.1795   37.9444  -10.1293 C   0  0  1  0  0  0  0  0  0  0  0  0
   -9.6953   36.7133  -10.7535 C   0  0  2  0  0  0  0  0  0  0  0  0
   -7.9211   33.3250  -11.0641 C   0  0  0  0  0  0  0  0  0  0  0  0
   -8.5618   37.9077   -7.7298 C   0  0  0  0  0  0  0  0  0  0  0  0
   -7.4805   37.9274   -6.7087 C   0  0  1  0  0  0  0  0  0  0  0  0
   -6.2081   37.2928   -7.2799 C   0  0  0  0  0  0  0  0  0  0  0  0
   -5.4565   38.2601   -8.1482 C   0  0  0  0  0  0  0  0  0  0  0  0
   -7.1199   39.3303   -6.3110 C   0  0  0  0  0  0  0  0  0  0  0  0
   -7.8466   37.1606   -5.4606 C   0  0  0  0  0  0  0  0  0  0  0  0
   -9.1856   40.2689  -13.0901 C   0  0  0  0  0  0  0  0  0  0  0  0
  7  1  2  0
  7  2  1  0
  9  3  1  6
 11  4  1  6
 22  5  1  1
  5 25  1  0
 25  6  2  0
  8  7  1  0
  9  8  1  0
 10  9  1  0
 11 10  1  0
 12 11  1  0
 13 12  1  0
 14 13  1  6
 14 15  1  0
 23 14  1  0
 16 15  1  0
 15 24  1  1
 17 16  2  0
 18 17  1  0
 19 18  2  0
 23 18  1  6
 20 19  1  0
 21 20  1  0
 20 31  1  6
 21 22  1  0
 22 23  1  0
 25 26  1  0
 26 27  1  0
 26 29  1  1
 26 30  1  0
 27 28  1  0
M  END
$$$$
