
     RDKit          3D

 31 32  0  0  0  0  0  0  0  0999 V2000
   -7.7049   29.9592   -6.5119 O   0  0  0  0  0  0  0  0  0  0  0  0
   -7.7146   30.0037   -4.2334 O   0  0  0  0  0  0  0  0  0  0  0  0
   -9.4851   30.7042   -7.7762 O   0  0  0  0  0  0  0  0  0  0  0  0
  -10.9042   33.6530   -8.1482 O   0  0  0  0  0  0  0  0  0  0  0  0
   -9.0071   37.2605  -12.3326 O   0  0  0  0  0  0  0  0  0  0  0  0
   -7.1123   37.1600  -13.5263 O   0  0  0  0  0  0  0  0  0  0  0  0
   -8.1705   30.4180   -5.4638 C   0  0  0  0  0  0  0  0  0  0  0  0
   -9.2530   31.4462   -5.5016 C   0  0  0  0  0  0  0  0  0  0  0  0
   -9.5486   31.7988   -6.9237 C   0  0  1  0  0  0  0  0  0  0  0  0
   -8.7630   32.9268   -7.4871 C   0  0  0  0  0  0  0  0  0  0  0  0
   -9.5604   33.9906   -8.1746 C   0  0  1  0  0  0  0  0  0  0  0  0
   -9.1075   34.1819   -9.6184 C   0  0  0  0  0  0  0  0  0  0  0  0
   -8.4558   35.5238   -9.7025 C   0  0  0  0  0  0  0  0  0  0  0  0
   -9.4005   36.6680   -9.8813 C   0  0  1  0  0  0  0  0  0  0  0  0
  -10.4643   36.7696   -8.8420 C   0  0  2  0  0  0  0  0  0  0  0  0
  -10.0866   37.5441   -7.6383 C   0  0  0  0  0  0  0  0  0  0  0  0
   -9.3924   38.6571   -7.8100 C   0  0  0  0  0  0  0  0  0  0  0  0
   -9.0496   39.0336   -9.1948 C   0  0  0  0  0  0  0  0  0  0  0  0
   -9.0862   40.2956   -9.5646 C   0  0  0  0  0  0  0  0  0  0  0  0
   -8.7454   40.7159  -10.9709 C   0  0  1  0  0  0  0  0  0  0  0  0
   -9.3559   39.6172  -11.8698 C   0  0  0  0  0  0  0  0  0  0  0  0
   -8.6247   38.3684  -11.5432 C   0  0  1  0  0  0  0  0  0  0  0  0
   -8.6477   37.9634  -10.1266 C   0  0  2  0  0  0  0  0  0  0  0  0
  -10.9952   35.4304   -8.4538 C   0  0  0  0  0  0  0  0  0  0  0  0
   -8.3204   36.8027  -13.4395 C   0  0  0  0  0  0  0  0  0  0  0  0
   -8.9452   35.9411  -14.4785 C   0  0  1  0  0  0  0  0  0  0  0  0
   -9.1300   36.7345  -15.7762 C   0  0  0  0  0  0  0  0  0  0  0  0
   -8.0136   37.7177  -15.9802 C   0  0  0  0  0  0  0  0  0  0  0  0
   -8.0773   34.7621  -14.8154 C   0  0  0  0  0  0  0  0  0  0  0  0
  -10.3036   35.4267  -14.0662 C   0  0  0  0  0  0  0  0  0  0  0  0
   -9.3875   42.0403  -11.2188 C   0  0  0  0  0  0  0  0  0  0  0  0
  7  1  2  0
  7  2  1  0
  9  3  1  6
 11  4  1  6
 22  5  1  6
  5 25  1  0
 25  6  2  0
  8  7  1  0
  9  8  1  0
 10  9  1  0
 11 10  1  0
 12 11  1  0
 13 12  1  0
 14 13  1  1
 14 15  1  0
 23 14  1  0
 16 15  1  0
 15 24  1  1
 17 16  2  0
 18 17  1  0
 19 18  2  0
 23 18  1  1
 20 19  1  0
 21 20  1  0
 20 31  1  6
 21 22  1  0
 22 23  1  0
 25 26  1  0
 26 27  1  0
 26 29  1  6
 26 30  1  0
 27 28  1  0
M  END
$$$$
