
     RDKit          3D

 31 32  0  0  0  0  0  0  0  0999 V2000
  -10.9664   32.2749   -3.2958 O   0  0  0  0  0  0  0  0  0  0  0  0
   -8.9046   32.0493   -2.3515 O   0  0  0  0  0  0  0  0  0  0  0  0
  -10.3197   31.1186   -6.8395 O   0  0  0  0  0  0  0  0  0  0  0  0
  -10.2790   32.6703   -8.5318 O   0  0  0  0  0  0  0  0  0  0  0  0
   -8.4019   38.0433   -9.5824 O   0  0  0  0  0  0  0  0  0  0  0  0
   -9.8945   38.5981   -8.0046 O   0  0  0  0  0  0  0  0  0  0  0  0
   -9.7818   31.9432   -3.4063 C   0  0  0  0  0  0  0  0  0  0  0  0
   -9.2612   31.4118   -4.7014 C   0  0  0  0  0  0  0  0  0  0  0  0
  -10.0265   32.0252   -5.8292 C   0  0  1  0  0  0  0  0  0  0  0  0
   -9.4421   33.2612   -6.4106 C   0  0  0  0  0  0  0  0  0  0  0  0
  -10.0768   33.7427   -7.6777 C   0  0  1  0  0  0  0  0  0  0  0  0
   -9.2146   34.7940   -8.3690 C   0  0  0  0  0  0  0  0  0  0  0  0
   -9.9603   35.2489   -9.5812 C   0  0  0  0  0  0  0  0  0  0  0  0
   -9.1060   35.8377  -10.6568 C   0  0  1  0  0  0  0  0  0  0  0  0
   -8.6245   34.8636  -11.6773 C   0  0  2  0  0  0  0  0  0  0  0  0
   -9.5448   34.6501  -12.8171 C   0  0  0  0  0  0  0  0  0  0  0  0
  -10.1558   35.7071  -13.3266 C   0  0  0  0  0  0  0  0  0  0  0  0
   -9.8683   37.0167  -12.7110 C   0  0  0  0  0  0  0  0  0  0  0  0
   -9.7473   38.0885  -13.4642 C   0  0  0  0  0  0  0  0  0  0  0  0
   -9.4510   39.4411  -12.8700 C   0  0  1  0  0  0  0  0  0  0  0  0
   -8.4389   39.1608  -11.7364 C   0  0  0  0  0  0  0  0  0  0  0  0
   -9.1621   38.3369  -10.7370 C   0  0  1  0  0  0  0  0  0  0  0  0
   -9.7477   37.0827  -11.2425 C   0  0  2  0  0  0  0  0  0  0  0  0
   -8.2421   33.5576  -11.0655 C   0  0  0  0  0  0  0  0  0  0  0  0
   -8.6728   38.5181   -8.3145 C   0  0  0  0  0  0  0  0  0  0  0  0
   -7.6075   38.9169   -7.3564 C   0  0  1  0  0  0  0  0  0  0  0  0
   -7.9523   38.4157   -5.9501 C   0  0  0  0  0  0  0  0  0  0  0  0
   -8.1667   36.9296   -5.9361 C   0  0  0  0  0  0  0  0  0  0  0  0
   -6.2823   38.3081   -7.7167 C   0  0  0  0  0  0  0  0  0  0  0  0
   -7.4334   40.4144   -7.2721 C   0  0  0  0  0  0  0  0  0  0  0  0
   -8.8471   40.2870  -13.9413 C   0  0  0  0  0  0  0  0  0  0  0  0
  7  1  2  0
  7  2  1  0
  9  3  1  6
 11  4  1  6
 22  5  1  1
  5 25  1  0
 25  6  2  0
  8  7  1  0
  9  8  1  0
 10  9  1  0
 11 10  1  0
 12 11  1  0
 13 12  1  0
 14 13  1  1
 14 15  1  0
 23 14  1  0
 16 15  1  0
 15 24  1  1
 17 16  2  0
 18 17  1  0
 19 18  2  0
 23 18  1  6
 20 19  1  0
 21 20  1  0
 20 31  1  6
 21 22  1  0
 22 23  1  0
 25 26  1  0
 26 27  1  0
 26 29  1  6
 26 30  1  0
 27 28  1  0
M  END
$$$$
