
     RDKit          3D

 31 32  0  0  0  0  0  0  0  0999 V2000
  -10.7201   29.8275   -4.0755 O   0  0  0  0  0  0  0  0  0  0  0  0
   -8.7599   29.8821   -2.9143 O   0  0  0  0  0  0  0  0  0  0  0  0
  -10.7531   32.3209   -5.2468 O   0  0  0  0  0  0  0  0  0  0  0  0
  -10.4668   34.7285   -6.4075 O   0  0  0  0  0  0  0  0  0  0  0  0
   -8.0926   38.3667   -9.1570 O   0  0  0  0  0  0  0  0  0  0  0  0
   -9.1725   39.4313   -7.5060 O   0  0  0  0  0  0  0  0  0  0  0  0
   -9.5268   30.1426   -4.0267 C   0  0  0  0  0  0  0  0  0  0  0  0
   -8.8746   30.8225   -5.1855 C   0  0  0  0  0  0  0  0  0  0  0  0
   -9.3675   32.2309   -5.2719 C   0  0  1  0  0  0  0  0  0  0  0  0
   -8.8271   33.0374   -6.3965 C   0  0  0  0  0  0  0  0  0  0  0  0
   -9.1011   34.5072   -6.3285 C   0  0  1  0  0  0  0  0  0  0  0  0
   -8.3935   35.2591   -7.4512 C   0  0  0  0  0  0  0  0  0  0  0  0
   -9.4091   35.5220   -8.5150 C   0  0  0  0  0  0  0  0  0  0  0  0
   -8.8466   36.0168   -9.8082 C   0  0  1  0  0  0  0  0  0  0  0  0
   -8.5228   34.9507  -10.7986 C   0  0  2  0  0  0  0  0  0  0  0  0
   -9.6455   34.5581  -11.6800 C   0  0  0  0  0  0  0  0  0  0  0  0
  -10.4254   35.5158  -12.1542 C   0  0  0  0  0  0  0  0  0  0  0  0
  -10.1096   36.9022  -11.7606 C   0  0  0  0  0  0  0  0  0  0  0  0
  -10.2286   37.8799  -12.6327 C   0  0  0  0  0  0  0  0  0  0  0  0
   -9.9120   39.3068  -12.2664 C   0  0  1  0  0  0  0  0  0  0  0  0
   -8.6654   39.2135  -11.3580 C   0  0  0  0  0  0  0  0  0  0  0  0
   -9.0991   38.4826  -10.1421 C   0  0  1  0  0  0  0  0  0  0  0  0
   -9.6861   37.1503  -10.3698 C   0  0  2  0  0  0  0  0  0  0  0  0
   -7.9260   33.7477  -10.1486 C   0  0  0  0  0  0  0  0  0  0  0  0
   -8.0538   39.0827   -7.9771 C   0  0  0  0  0  0  0  0  0  0  0  0
   -6.7842   39.4336   -7.2863 C   0  0  1  0  0  0  0  0  0  0  0  0
   -6.6348   38.6012   -6.0086 C   0  0  0  0  0  0  0  0  0  0  0  0
   -7.8391   37.7350   -5.7759 C   0  0  0  0  0  0  0  0  0  0  0  0
   -5.5866   39.1289   -8.1403 C   0  0  0  0  0  0  0  0  0  0  0  0
   -6.7233   40.8885   -6.8872 C   0  0  0  0  0  0  0  0  0  0  0  0
   -9.6114   40.0451  -13.5282 C   0  0  0  0  0  0  0  0  0  0  0  0
  7  1  2  0
  7  2  1  0
  9  3  1  6
 11  4  1  6
 22  5  1  1
  5 25  1  0
 25  6  2  0
  8  7  1  0
  9  8  1  0
 10  9  1  0
 11 10  1  0
 12 11  1  0
 13 12  1  0
 14 13  1  1
 14 15  1  0
 23 14  1  0
 16 15  1  0
 15 24  1  1
 17 16  2  0
 18 17  1  0
 19 18  2  0
 23 18  1  6
 20 19  1  0
 21 20  1  0
 20 31  1  6
 21 22  1  0
 22 23  1  0
 25 26  1  0
 26 27  1  0
 26 29  1  6
 26 30  1  0
 27 28  1  0
M  END
$$$$
