
     RDKit          3D

 31 32  0  0  0  0  0  0  0  0999 V2000
   -9.9292   31.6877   -2.8955 O   0  0  0  0  0  0  0  0  0  0  0  0
   -7.9983   30.4846   -2.7607 O   0  0  0  0  0  0  0  0  0  0  0  0
  -10.6853   32.4949   -5.1273 O   0  0  0  0  0  0  0  0  0  0  0  0
  -11.1492   33.3228   -7.5220 O   0  0  0  0  0  0  0  0  0  0  0  0
   -8.5010   37.0047  -10.4404 O   0  0  0  0  0  0  0  0  0  0  0  0
   -9.7326   38.8751  -10.3414 O   0  0  0  0  0  0  0  0  0  0  0  0
   -8.8340   31.3854   -3.3801 C   0  0  0  0  0  0  0  0  0  0  0  0
   -8.3799   31.9948   -4.6657 C   0  0  0  0  0  0  0  0  0  0  0  0
   -9.3908   32.9977   -5.1201 C   0  0  1  0  0  0  0  0  0  0  0  0
   -9.1000   33.6689   -6.4131 C   0  0  0  0  0  0  0  0  0  0  0  0
  -10.2734   34.3058   -7.0895 C   0  0  1  0  0  0  0  0  0  0  0  0
   -9.8375   35.1622   -8.2739 C   0  0  0  0  0  0  0  0  0  0  0  0
   -9.9542   34.3142   -9.4985 C   0  0  0  0  0  0  0  0  0  0  0  0
   -8.8382   34.4749  -10.4794 C   0  0  1  0  0  0  0  0  0  0  0  0
   -8.0722   33.2286  -10.7658 C   0  0  2  0  0  0  0  0  0  0  0  0
   -8.6273   32.3931  -11.8545 C   0  0  0  0  0  0  0  0  0  0  0  0
   -9.0838   33.0057  -12.9346 C   0  0  0  0  0  0  0  0  0  0  0  0
   -9.0024   34.4786  -12.9621 C   0  0  0  0  0  0  0  0  0  0  0  0
   -8.6881   35.1021  -14.0771 C   0  0  0  0  0  0  0  0  0  0  0  0
   -8.5929   36.6046  -14.1409 C   0  0  1  0  0  0  0  0  0  0  0  0
   -7.9407   37.0157  -12.8017 C   0  0  0  0  0  0  0  0  0  0  0  0
   -8.9059   36.6328  -11.7422 C   0  0  1  0  0  0  0  0  0  0  0  0
   -9.3051   35.2145  -11.7203 C   0  0  2  0  0  0  0  0  0  0  0  0
   -7.8602   32.4090   -9.5372 C   0  0  0  0  0  0  0  0  0  0  0  0
   -8.7765   38.2182   -9.8422 C   0  0  0  0  0  0  0  0  0  0  0  0
   -8.0074   38.7397   -8.6808 C   0  0  1  0  0  0  0  0  0  0  0  0
   -7.0914   39.8833   -9.1291 C   0  0  0  0  0  0  0  0  0  0  0  0
   -7.5701   40.4963  -10.4136 C   0  0  0  0  0  0  0  0  0  0  0  0
   -8.9142   39.3041   -7.6246 C   0  0  0  0  0  0  0  0  0  0  0  0
   -7.1348   37.6859   -8.0421 C   0  0  0  0  0  0  0  0  0  0  0  0
   -7.7219   36.9570  -15.3007 C   0  0  0  0  0  0  0  0  0  0  0  0
  7  1  2  0
  7  2  1  0
  9  3  1  6
 11  4  1  6
 22  5  1  1
  5 25  1  0
 25  6  2  0
  8  7  1  0
  9  8  1  0
 10  9  1  0
 11 10  1  0
 12 11  1  0
 13 12  1  0
 14 13  1  1
 14 15  1  0
 23 14  1  0
 16 15  1  0
 15 24  1  1
 17 16  2  0
 18 17  1  0
 19 18  2  0
 23 18  1  6
 20 19  1  0
 21 20  1  0
 20 31  1  6
 21 22  1  0
 22 23  1  0
 25 26  1  0
 26 27  1  0
 26 29  1  1
 26 30  1  0
 27 28  1  0
M  END
$$$$
