
     RDKit          3D

 31 32  0  0  0  0  0  0  0  0999 V2000
  -11.2620   31.1939   -3.6221 O   0  0  0  0  0  0  0  0  0  0  0  0
  -10.6742   33.2681   -2.8834 O   0  0  0  0  0  0  0  0  0  0  0  0
   -8.1706   30.6493   -6.0119 O   0  0  0  0  0  0  0  0  0  0  0  0
   -8.1551   34.2353   -6.8426 O   0  0  0  0  0  0  0  0  0  0  0  0
   -8.2224   37.2071   -8.5314 O   0  0  0  0  0  0  0  0  0  0  0  0
   -9.2409   37.0821   -6.5384 O   0  0  0  0  0  0  0  0  0  0  0  0
  -10.4168   32.0916   -3.5489 C   0  0  0  0  0  0  0  0  0  0  0  0
   -9.0769   31.9249   -4.1873 C   0  0  0  0  0  0  0  0  0  0  0  0
   -9.2541   31.4005   -5.5756 C   0  0  1  0  0  0  0  0  0  0  0  0
   -9.6211   32.4068   -6.6051 C   0  0  0  0  0  0  0  0  0  0  0  0
   -8.4778   32.9954   -7.3708 C   0  0  1  0  0  0  0  0  0  0  0  0
   -8.8136   33.1398   -8.8516 C   0  0  0  0  0  0  0  0  0  0  0  0
   -9.6391   34.3765   -8.9985 C   0  0  0  0  0  0  0  0  0  0  0  0
   -9.1374   35.3460  -10.0193 C   0  0  1  0  0  0  0  0  0  0  0  0
   -8.9341   34.7727  -11.3802 C   0  0  2  0  0  0  0  0  0  0  0  0
  -10.1306   34.7985  -12.2516 C   0  0  0  0  0  0  0  0  0  0  0  0
  -10.8894   35.8820  -12.2306 C   0  0  0  0  0  0  0  0  0  0  0  0
  -10.4776   36.9789  -11.3339 C   0  0  0  0  0  0  0  0  0  0  0  0
  -10.6027   38.2303  -11.7201 C   0  0  0  0  0  0  0  0  0  0  0  0
  -10.1897   39.3751  -10.8318 C   0  0  1  0  0  0  0  0  0  0  0  0
   -8.8930   38.8926  -10.1436 C   0  0  0  0  0  0  0  0  0  0  0  0
   -9.2836   37.7368   -9.2997 C   0  0  1  0  0  0  0  0  0  0  0  0
   -9.9521   36.6269  -10.0015 C   0  0  2  0  0  0  0  0  0  0  0  0
   -8.3591   33.3971  -11.3263 C   0  0  0  0  0  0  0  0  0  0  0  0
   -8.1492   37.2412   -7.1531 C   0  0  0  0  0  0  0  0  0  0  0  0
   -6.8742   37.4514   -6.4166 C   0  0  1  0  0  0  0  0  0  0  0  0
   -5.7476   37.7803   -7.4016 C   0  0  0  0  0  0  0  0  0  0  0  0
   -5.9617   39.1170   -8.0514 C   0  0  0  0  0  0  0  0  0  0  0  0
   -6.9679   38.6120   -5.4675 C   0  0  0  0  0  0  0  0  0  0  0  0
   -6.4483   36.2327   -5.6337 C   0  0  0  0  0  0  0  0  0  0  0  0
   -9.9343   40.5592  -11.7039 C   0  0  0  0  0  0  0  0  0  0  0  0
  7  1  2  0
  7  2  1  0
  9  3  1  6
 11  4  1  1
 22  5  1  6
  5 25  1  0
 25  6  2  0
  8  7  1  0
  9  8  1  0
 10  9  1  0
 11 10  1  0
 12 11  1  0
 13 12  1  0
 14 13  1  1
 14 15  1  0
 23 14  1  0
 16 15  1  0
 15 24  1  1
 17 16  2  0
 18 17  1  0
 19 18  2  0
 23 18  1  6
 20 19  1  0
 21 20  1  0
 20 31  1  6
 21 22  1  0
 22 23  1  0
 25 26  1  0
 26 27  1  0
 26 29  1  1
 26 30  1  0
 27 28  1  0
M  END
$$$$
