
     RDKit          3D

 31 32  0  0  0  0  0  0  0  0999 V2000
   -9.2253   29.0284   -8.6002 O   0  0  0  0  0  0  0  0  0  0  0  0
   -7.6261   28.3895  -10.0929 O   0  0  0  0  0  0  0  0  0  0  0  0
   -8.4749   29.4531   -6.1772 O   0  0  0  0  0  0  0  0  0  0  0  0
   -9.7897   31.6625   -5.3361 O   0  0  0  0  0  0  0  0  0  0  0  0
   -8.8473   36.5500   -9.0331 O   0  0  0  0  0  0  0  0  0  0  0  0
   -7.5336   35.1979  -10.2461 O   0  0  0  0  0  0  0  0  0  0  0  0
   -8.0350   28.9981   -8.9285 C   0  0  0  0  0  0  0  0  0  0  0  0
   -6.9938   29.6276   -8.0623 C   0  0  0  0  0  0  0  0  0  0  0  0
   -7.6573   30.3058   -6.9075 C   0  0  1  0  0  0  0  0  0  0  0  0
   -8.3878   31.5595   -7.2264 C   0  0  0  0  0  0  0  0  0  0  0  0
   -8.8315   32.3673   -6.0472 C   0  0  1  0  0  0  0  0  0  0  0  0
   -9.4000   33.7159   -6.4769 C   0  0  0  0  0  0  0  0  0  0  0  0
   -8.2648   34.6871   -6.4978 C   0  0  0  0  0  0  0  0  0  0  0  0
   -8.6720   36.1248   -6.5225 C   0  0  1  0  0  0  0  0  0  0  0  0
   -9.2282   36.6399   -5.2390 C   0  0  2  0  0  0  0  0  0  0  0  0
   -8.2201   37.1603   -4.2879 C   0  0  0  0  0  0  0  0  0  0  0  0
   -7.2254   37.8845   -4.7739 C   0  0  0  0  0  0  0  0  0  0  0  0
   -7.2037   38.1123   -6.2314 C   0  0  0  0  0  0  0  0  0  0  0  0
   -6.8395   39.2816   -6.7120 C   0  0  0  0  0  0  0  0  0  0  0  0
   -6.8085   39.5503   -8.1943 C   0  0  1  0  0  0  0  0  0  0  0  0
   -8.0544   38.8265   -8.7526 C   0  0  0  0  0  0  0  0  0  0  0  0
   -7.8279   37.3799   -8.5144 C   0  0  1  0  0  0  0  0  0  0  0  0
   -7.5758   36.9918   -7.1154 C   0  0  2  0  0  0  0  0  0  0  0  0
  -10.1069   35.6374   -4.5692 C   0  0  0  0  0  0  0  0  0  0  0  0
   -8.6933   35.6721  -10.0876 C   0  0  0  0  0  0  0  0  0  0  0  0
   -9.8102   35.2943  -10.9942 C   0  0  1  0  0  0  0  0  0  0  0  0
   -9.9927   36.3642  -12.0758 C   0  0  0  0  0  0  0  0  0  0  0  0
   -8.6776   36.9696  -12.4740 C   0  0  0  0  0  0  0  0  0  0  0  0
   -9.5304   34.0033  -11.7094 C   0  0  0  0  0  0  0  0  0  0  0  0
  -11.1267   35.1574  -10.2676 C   0  0  0  0  0  0  0  0  0  0  0  0
   -6.9034   41.0268   -8.3917 C   0  0  0  0  0  0  0  0  0  0  0  0
  7  1  2  0
  7  2  1  0
  9  3  1  6
 11  4  1  6
 22  5  1  1
  5 25  1  0
 25  6  2  0
  8  7  1  0
  9  8  1  0
 10  9  1  0
 11 10  1  0
 12 11  1  0
 13 12  1  0
 14 13  1  1
 14 15  1  0
 23 14  1  0
 16 15  1  0
 15 24  1  1
 17 16  2  0
 18 17  1  0
 19 18  2  0
 23 18  1  1
 20 19  1  0
 21 20  1  0
 20 31  1  1
 21 22  1  0
 22 23  1  0
 25 26  1  0
 26 27  1  0
 26 29  1  6
 26 30  1  0
 27 28  1  0
M  END
$$$$
