
     RDKit          3D

 31 32  0  0  0  0  0  0  0  0999 V2000
   -8.7662   43.6484  -10.4079 O   0  0  0  0  0  0  0  0  0  0  0  0
  -10.0172   42.2914  -11.7448 O   0  0  0  0  0  0  0  0  0  0  0  0
   -9.3844   40.5294  -12.4651 O   0  0  0  0  0  0  0  0  0  0  0  0
   -8.9595   38.1163  -12.8805 O   0  0  0  0  0  0  0  0  0  0  0  0
   -8.2994   36.4410   -7.1272 O   0  0  0  0  0  0  0  0  0  0  0  0
   -6.1780   37.0732   -7.4815 O   0  0  0  0  0  0  0  0  0  0  0  0
   -8.8678   42.6010  -11.0545 C   0  0  0  0  0  0  0  0  0  0  0  0
   -7.7345   41.6297  -11.1067 C   0  0  0  0  0  0  0  0  0  0  0  0
   -8.1950   40.3699  -11.7661 C   0  0  1  0  0  0  0  0  0  0  0  0
   -8.2787   39.1739  -10.8888 C   0  0  0  0  0  0  0  0  0  0  0  0
   -8.5185   37.8733  -11.5894 C   0  0  1  0  0  0  0  0  0  0  0  0
   -9.5441   37.0213  -10.8486 C   0  0  0  0  0  0  0  0  0  0  0  0
   -8.8062   35.8759  -10.2355 C   0  0  0  0  0  0  0  0  0  0  0  0
   -9.4815   35.2568   -9.0547 C   0  0  1  0  0  0  0  0  0  0  0  0
  -10.7793   34.5879   -9.3554 C   0  0  2  0  0  0  0  0  0  0  0  0
  -10.6680   33.1707   -9.7687 C   0  0  0  0  0  0  0  0  0  0  0  0
   -9.8021   32.4039   -9.1264 C   0  0  0  0  0  0  0  0  0  0  0  0
   -9.0146   33.0302   -8.0473 C   0  0  0  0  0  0  0  0  0  0  0  0
   -8.7589   32.3624   -6.9430 C   0  0  0  0  0  0  0  0  0  0  0  0
   -7.9605   32.9715   -5.8196 C   0  0  1  0  0  0  0  0  0  0  0  0
   -8.4283   34.4429   -5.7559 C   0  0  0  0  0  0  0  0  0  0  0  0
   -8.0133   35.0599   -7.0396 C   0  0  1  0  0  0  0  0  0  0  0  0
   -8.5124   34.4007   -8.2592 C   0  0  2  0  0  0  0  0  0  0  0  0
  -11.5873   35.3570  -10.3461 C   0  0  0  0  0  0  0  0  0  0  0  0
   -7.3518   37.4427   -7.1976 C   0  0  0  0  0  0  0  0  0  0  0  0
   -7.6711   38.8754   -6.9572 C   0  0  1  0  0  0  0  0  0  0  0  0
   -7.4127   39.2312   -5.4894 C   0  0  0  0  0  0  0  0  0  0  0  0
   -8.2926   38.4341   -4.5701 C   0  0  0  0  0  0  0  0  0  0  0  0
   -6.8002   39.7823   -7.7791 C   0  0  0  0  0  0  0  0  0  0  0  0
   -9.1138   39.2065   -7.2550 C   0  0  0  0  0  0  0  0  0  0  0  0
   -8.3038   32.2370   -4.5665 C   0  0  0  0  0  0  0  0  0  0  0  0
  7  1  2  0
  7  2  1  0
  9  3  1  1
 11  4  1  6
 22  5  1  1
  5 25  1  0
 25  6  2  0
  8  7  1  0
  9  8  1  0
 10  9  1  0
 11 10  1  0
 12 11  1  0
 13 12  1  0
 14 13  1  6
 14 15  1  0
 23 14  1  0
 16 15  1  0
 15 24  1  6
 17 16  2  0
 18 17  1  0
 19 18  2  0
 23 18  1  1
 20 19  1  0
 21 20  1  0
 20 31  1  1
 21 22  1  0
 22 23  1  0
 25 26  1  0
 26 27  1  0
 26 29  1  6
 26 30  1  0
 27 28  1  0
M  END
$$$$
