
     RDKit          3D

 31 32  0  0  0  0  0  0  0  0999 V2000
   -6.1263   42.3244   -5.2599 O   0  0  0  0  0  0  0  0  0  0  0  0
   -7.8893   41.1026   -4.4900 O   0  0  0  0  0  0  0  0  0  0  0  0
   -6.8874   38.7002   -4.4239 O   0  0  0  0  0  0  0  0  0  0  0  0
   -6.7347   35.3494   -6.7581 O   0  0  0  0  0  0  0  0  0  0  0  0
   -8.8603   37.0217   -9.0660 O   0  0  0  0  0  0  0  0  0  0  0  0
  -10.5286   38.5185   -9.0295 O   0  0  0  0  0  0  0  0  0  0  0  0
   -6.7957   41.2873   -5.3045 C   0  0  0  0  0  0  0  0  0  0  0  0
   -6.4341   40.1921   -6.2533 C   0  0  0  0  0  0  0  0  0  0  0  0
   -7.0497   38.9125   -5.7867 C   0  0  1  0  0  0  0  0  0  0  0  0
   -6.6575   37.6937   -6.5402 C   0  0  0  0  0  0  0  0  0  0  0  0
   -6.9850   36.3913   -5.8794 C   0  0  1  0  0  0  0  0  0  0  0  0
   -8.4416   36.3447   -5.4295 C   0  0  0  0  0  0  0  0  0  0  0  0
   -9.1516   35.3876   -6.3307 C   0  0  0  0  0  0  0  0  0  0  0  0
   -8.3956   35.0113   -7.5637 C   0  0  1  0  0  0  0  0  0  0  0  0
   -7.3675   33.9497   -7.3680 C   0  0  2  0  0  0  0  0  0  0  0  0
   -7.8693   32.5640   -7.5075 C   0  0  0  0  0  0  0  0  0  0  0  0
   -8.7273   32.3107   -8.4821 C   0  0  0  0  0  0  0  0  0  0  0  0
   -9.1154   33.4377   -9.3516 C   0  0  0  0  0  0  0  0  0  0  0  0
   -9.2734   33.2509  -10.6442 C   0  0  0  0  0  0  0  0  0  0  0  0
   -9.6662   34.3794  -11.5622 C   0  0  1  0  0  0  0  0  0  0  0  0
   -8.8860   35.6053  -11.0365 C   0  0  0  0  0  0  0  0  0  0  0  0
   -9.4159   35.8752   -9.6775 C   0  0  1  0  0  0  0  0  0  0  0  0
   -9.3394   34.7538   -8.7247 C   0  0  2  0  0  0  0  0  0  0  0  0
   -6.6371   34.1113   -6.0772 C   0  0  0  0  0  0  0  0  0  0  0  0
   -9.3036   38.3150   -9.2589 C   0  0  0  0  0  0  0  0  0  0  0  0
   -8.4111   39.4164   -9.7093 C   0  0  1  0  0  0  0  0  0  0  0  0
   -7.2696   39.6101   -8.7057 C   0  0  0  0  0  0  0  0  0  0  0  0
   -7.6251   40.6305   -7.6630 C   0  0  0  0  0  0  0  0  0  0  0  0
   -7.7719   39.1051  -11.0325 C   0  0  0  0  0  0  0  0  0  0  0  0
   -9.1341   40.7363   -9.8315 C   0  0  0  0  0  0  0  0  0  0  0  0
   -9.2367   34.0131  -12.9439 C   0  0  0  0  0  0  0  0  0  0  0  0
  7  1  2  0
  7  2  1  0
  9  3  1  1
 11  4  1  6
 22  5  1  1
  5 25  1  0
 25  6  2  0
  8  7  1  0
  9  8  1  0
 10  9  1  0
 11 10  1  0
 12 11  1  0
 13 12  1  0
 14 13  1  1
 14 15  1  0
 23 14  1  0
 16 15  1  0
 15 24  1  1
 17 16  2  0
 18 17  1  0
 19 18  2  0
 23 18  1  6
 20 19  1  0
 21 20  1  0
 20 31  1  6
 21 22  1  0
 22 23  1  0
 25 26  1  0
 26 27  1  0
 26 29  1  6
 26 30  1  0
 27 28  1  0
M  END
$$$$
