
     RDKit          3D

 31 32  0  0  0  0  0  0  0  0999 V2000
   -8.3842   31.3849   -3.3804 O   0  0  0  0  0  0  0  0  0  0  0  0
  -10.1478   29.9667   -3.1116 O   0  0  0  0  0  0  0  0  0  0  0  0
   -7.2170   31.5983   -5.3879 O   0  0  0  0  0  0  0  0  0  0  0  0
   -7.1665   33.9737   -7.2984 O   0  0  0  0  0  0  0  0  0  0  0  0
   -9.3477   36.7868  -11.2324 O   0  0  0  0  0  0  0  0  0  0  0  0
   -7.8098   35.2226  -11.6942 O   0  0  0  0  0  0  0  0  0  0  0  0
   -9.2646   30.6824   -3.8871 C   0  0  0  0  0  0  0  0  0  0  0  0
   -9.3980   30.5879   -5.3716 C   0  0  0  0  0  0  0  0  0  0  0  0
   -8.4561   31.5546   -6.0137 C   0  0  1  0  0  0  0  0  0  0  0  0
   -8.9758   32.9329   -6.2067 C   0  0  0  0  0  0  0  0  0  0  0  0
   -8.5029   33.6356   -7.4406 C   0  0  1  0  0  0  0  0  0  0  0  0
   -9.3235   34.8913   -7.7167 C   0  0  0  0  0  0  0  0  0  0  0  0
   -8.3967   35.9032   -8.3080 C   0  0  0  0  0  0  0  0  0  0  0  0
   -9.0502   37.1799   -8.7281 C   0  0  1  0  0  0  0  0  0  0  0  0
   -9.6623   37.9645   -7.6182 C   0  0  2  0  0  0  0  0  0  0  0  0
   -8.7422   38.9049   -6.9394 C   0  0  0  0  0  0  0  0  0  0  0  0
   -7.9000   39.5972   -7.6887 C   0  0  0  0  0  0  0  0  0  0  0  0
   -7.9478   39.3710   -9.1458 C   0  0  0  0  0  0  0  0  0  0  0  0
   -7.8041   40.3812   -9.9763 C   0  0  0  0  0  0  0  0  0  0  0  0
   -7.8504   40.1874  -11.4699 C   0  0  1  0  0  0  0  0  0  0  0  0
   -8.9609   39.1372  -11.6971 C   0  0  0  0  0  0  0  0  0  0  0  0
   -8.4794   37.8880  -11.0579 C   0  0  1  0  0  0  0  0  0  0  0  0
   -8.1352   37.9901   -9.6288 C   0  0  2  0  0  0  0  0  0  0  0  0
  -10.3379   37.0855   -6.6197 C   0  0  0  0  0  0  0  0  0  0  0  0
   -9.0056   35.5988  -11.8472 C   0  0  0  0  0  0  0  0  0  0  0  0
   -9.9695   34.7953  -12.6456 C   0  0  1  0  0  0  0  0  0  0  0  0
  -10.5000   35.6263  -13.8185 C   0  0  0  0  0  0  0  0  0  0  0  0
   -9.3782   36.1682  -14.6568 C   0  0  0  0  0  0  0  0  0  0  0  0
   -9.3179   33.5794  -13.2402 C   0  0  0  0  0  0  0  0  0  0  0  0
  -11.1614   34.3453  -11.8353 C   0  0  0  0  0  0  0  0  0  0  0  0
   -8.2068   41.4982  -12.0884 C   0  0  0  0  0  0  0  0  0  0  0  0
  7  1  2  0
  7  2  1  0
  9  3  1  1
 11  4  1  1
 22  5  1  1
  5 25  1  0
 25  6  2  0
  8  7  1  0
  9  8  1  0
 10  9  1  0
 11 10  1  0
 12 11  1  0
 13 12  1  0
 14 13  1  1
 14 15  1  0
 23 14  1  0
 16 15  1  0
 15 24  1  1
 17 16  2  0
 18 17  1  0
 19 18  2  0
 23 18  1  1
 20 19  1  0
 21 20  1  0
 20 31  1  6
 21 22  1  0
 22 23  1  0
 25 26  1  0
 26 27  1  0
 26 29  1  6
 26 30  1  0
 27 28  1  0
M  END
$$$$
