
     RDKit          3D

 31 32  0  0  0  0  0  0  0  0999 V2000
   -8.1114   30.2708   -1.9712 O   0  0  0  0  0  0  0  0  0  0  0  0
  -10.0733   31.3160   -2.4737 O   0  0  0  0  0  0  0  0  0  0  0  0
  -10.2213   32.4172   -4.7379 O   0  0  0  0  0  0  0  0  0  0  0  0
  -10.4063   34.2814   -6.3439 O   0  0  0  0  0  0  0  0  0  0  0  0
   -8.5014   38.2592   -9.0552 O   0  0  0  0  0  0  0  0  0  0  0  0
   -9.6462   39.6255   -7.6958 O   0  0  0  0  0  0  0  0  0  0  0  0
   -8.7518   31.0191   -2.7166 C   0  0  0  0  0  0  0  0  0  0  0  0
   -8.1042   31.6298   -3.9158 C   0  0  0  0  0  0  0  0  0  0  0  0
   -8.9285   32.7840   -4.3872 C   0  0  1  0  0  0  0  0  0  0  0  0
   -8.3264   33.6119   -5.4638 C   0  0  0  0  0  0  0  0  0  0  0  0
   -9.1650   34.7532   -5.9477 C   0  0  1  0  0  0  0  0  0  0  0  0
   -8.4981   35.4822   -7.1097 C   0  0  0  0  0  0  0  0  0  0  0  0
   -9.3526   35.2648   -8.3159 C   0  0  0  0  0  0  0  0  0  0  0  0
   -8.7732   35.7791   -9.5939 C   0  0  1  0  0  0  0  0  0  0  0  0
   -8.1820   34.7347  -10.4782 C   0  0  2  0  0  0  0  0  0  0  0  0
   -9.1366   34.0976  -11.4133 C   0  0  0  0  0  0  0  0  0  0  0  0
  -10.0267   34.8712  -12.0128 C   0  0  0  0  0  0  0  0  0  0  0  0
   -9.9938   36.3117  -11.6956 C   0  0  0  0  0  0  0  0  0  0  0  0
  -10.2042   37.2015  -12.6415 C   0  0  0  0  0  0  0  0  0  0  0  0
  -10.1752   38.6804  -12.3542 C   0  0  1  0  0  0  0  0  0  0  0  0
   -9.0166   38.8640  -11.3483 C   0  0  0  0  0  0  0  0  0  0  0  0
   -9.4217   38.1366  -10.1206 C   0  0  1  0  0  0  0  0  0  0  0  0
   -9.7447   36.7098  -10.2974 C   0  0  2  0  0  0  0  0  0  0  0  0
   -7.4442   33.6971   -9.7004 C   0  0  0  0  0  0  0  0  0  0  0  0
   -8.5091   39.2705   -8.1151 C   0  0  0  0  0  0  0  0  0  0  0  0
   -7.2670   39.9166   -7.6133 C   0  0  1  0  0  0  0  0  0  0  0  0
   -6.0780   39.5246   -8.4968 C   0  0  0  0  0  0  0  0  0  0  0  0
   -6.0906   40.2768   -9.7963 C   0  0  0  0  0  0  0  0  0  0  0  0
   -7.3634   41.4148   -7.6623 C   0  0  0  0  0  0  0  0  0  0  0  0
   -6.9318   39.5097   -6.1984 C   0  0  0  0  0  0  0  0  0  0  0  0
   -9.8977   39.3885  -13.6385 C   0  0  0  0  0  0  0  0  0  0  0  0
  7  1  2  0
  7  2  1  0
  9  3  1  6
 11  4  1  6
 22  5  1  1
  5 25  1  0
 25  6  2  0
  8  7  1  0
  9  8  1  0
 10  9  1  0
 11 10  1  0
 12 11  1  0
 13 12  1  0
 14 13  1  1
 14 15  1  0
 23 14  1  0
 16 15  1  0
 15 24  1  1
 17 16  2  0
 18 17  1  0
 19 18  2  0
 23 18  1  6
 20 19  1  0
 21 20  1  0
 20 31  1  6
 21 22  1  0
 22 23  1  0
 25 26  1  0
 26 27  1  0
 26 29  1  1
 26 30  1  0
 27 28  1  0
M  END
$$$$
