
     RDKit          3D

 80 82  0  0  0  0  0  0  0  0999 V2000
   54.8760  -37.0105   -2.2024 N   0  0  0  0  0  4  0  0  0  0  0  0
   54.1015  -36.4165   -3.3060 C   0  0  2  0  0  0  0  0  0  0  0  0
   52.7694  -37.0183   -3.3806 C   0  0  0  0  0  0  0  0  0  0  0  0
   52.7863  -38.3057   -3.5446 O   0  0  0  0  0  0  0  0  0  0  0  0
   54.8376  -36.8949   -4.5809 C   0  0  0  0  0  0  0  0  0  0  0  0
   56.0751  -36.0421   -4.7359 C   0  0  0  0  0  0  0  0  0  0  0  0
   57.1785  -36.8976   -5.2997 C   0  0  0  0  0  0  0  0  0  0  0  0
   58.5415  -36.2331   -5.0846 C   0  0  0  0  0  0  0  0  0  0  0  0
   58.5545  -35.0693   -5.9360 N   0  0  0  0  0  0  0  0  0  0  0  0
   51.4983  -36.4170   -3.3016 N   0  0  0  0  0  0  0  0  0  0  0  0
   51.1371  -35.1530   -2.7199 C   0  0  2  0  0  0  0  0  0  0  0  0
   51.1683  -34.0062   -3.6586 C   0  0  0  0  0  0  0  0  0  0  0  0
   52.3173  -33.6861   -4.1286 O   0  0  0  0  0  0  0  0  0  0  0  0
   51.6909  -34.8580   -1.3696 C   0  0  0  0  0  0  0  0  0  0  0  0
   51.8827  -33.4296   -0.9984 C   0  0  0  0  0  0  0  0  0  0  0  0
   50.8597  -32.4769   -1.5289 C   0  0  0  0  0  0  0  0  0  0  0  0
   49.7714  -32.3012   -0.5477 N   0  0  0  0  0  0  0  0  0  0  0  0
   49.4068  -30.9957   -0.1488 C   0  0  0  0  0  0  0  0  0  0  0  0
   48.6765  -30.7386    1.0516 N   0  0  0  0  0  0  0  0  0  0  0  0
   49.7372  -29.9882   -0.8831 N   0  0  0  0  0  0  0  0  0  0  0  0
   50.0457  -33.2410   -4.0758 N   0  0  0  0  0  0  0  0  0  0  0  0
   48.8627  -33.7514   -4.7187 C   0  0  2  0  0  0  0  0  0  0  0  0
   48.9606  -33.5622   -6.2102 C   0  0  0  0  0  0  0  0  0  0  0  0
   50.1223  -33.1888   -6.6290 O   0  0  0  0  0  0  0  0  0  0  0  0
   47.6402  -33.0809   -4.1795 C   0  0  0  0  0  0  0  0  0  0  0  0
   47.8120  -31.9142   -3.3008 C   0  0  0  0  0  0  0  0  0  0  0  0
   49.1738  -31.6194   -2.7629 C   0  0  0  0  0  0  0  0  0  0  0  0
   49.8550  -32.8278   -2.3122 N   0  0  0  0  0  0  0  0  0  0  0  0
   51.2006  -32.7560   -1.8775 C   0  0  0  0  0  0  0  0  0  0  0  0
   51.5114  -32.3583   -0.5497 N   0  0  0  0  0  0  0  0  0  0  0  0
   52.1420  -33.0676   -2.7338 N   0  0  0  0  0  0  0  0  0  0  0  0
   47.9192  -33.7562   -7.1299 N   0  0  0  0  0  0  0  0  0  0  0  0
   47.1056  -34.9380   -7.3101 C   0  0  1  0  0  0  0  0  0  0  0  0
   45.8611  -34.5516   -8.0301 C   0  0  1  0  0  0  0  0  0  0  0  0
   46.2161  -33.2455   -8.7805 C   0  0  0  0  0  0  0  0  0  0  0  0
   45.4932  -35.4999   -9.1695 C   0  0  0  0  0  0  0  0  0  0  0  0
   44.7002  -34.1809   -7.1644 C   0  0  0  0  0  0  0  0  0  0  0  0
   47.9091  -36.0397   -7.8624 C   0  0  0  0  0  0  0  0  0  0  0  0
   49.0606  -36.0997   -7.2677 O   0  0  0  0  0  0  0  0  0  0  0  0
   47.6541  -36.9795   -8.8587 N   0  0  0  0  0  0  0  0  0  0  0  0
   47.4331  -36.8218  -10.2662 C   0  0  2  0  0  0  0  0  0  0  0  0
   47.3268  -38.0988  -11.0110 C   0  0  0  0  0  0  0  0  0  0  0  0
   48.1767  -38.3227  -11.9662 O   0  0  0  0  0  0  0  0  0  0  0  0
   48.4648  -35.9387  -10.9599 C   0  0  0  0  0  0  0  0  0  0  0  0
   49.5050  -36.6744  -11.7169 C   0  0  0  0  0  0  0  0  0  0  0  0
   49.5411  -36.1200  -13.1476 C   0  0  0  0  0  0  0  0  0  0  0  0
   50.7210  -36.6316  -13.9266 C   0  0  0  0  0  0  0  0  0  0  0  0
   51.3219  -35.5336  -14.6787 N   0  0  0  0  0  0  0  0  0  0  0  0
   46.4085  -39.1374  -10.8260 N   0  0  0  0  0  0  0  0  0  0  0  0
   45.0908  -38.9428  -10.2000 C   0  0  0  0  0  0  0  0  0  0  0  0
   44.9657  -39.4998   -8.8666 C   0  0  0  0  0  0  0  0  0  0  0  0
   43.7550  -39.6492   -8.2488 C   0  0  0  0  0  0  0  0  0  0  0  0
   43.6536  -40.1712   -6.9676 C   0  0  0  0  0  0  0  0  0  0  0  0
   44.7756  -40.5566   -6.2773 C   0  0  0  0  0  0  0  0  0  0  0  0
   44.6561  -41.1080   -4.9323 C   0  0  0  0  0  0  0  0  0  0  0  0
   43.3890  -41.3173   -4.3462 N   0  0  0  0  0  0  0  0  0  0  0  0
   45.7068  -41.4102   -4.2660 N   0  0  0  0  0  0  0  0  0  0  0  0
   46.0175  -40.4127   -6.8889 C   0  0  0  0  0  0  0  0  0  0  0  0
   46.0846  -39.8938   -8.1550 C   0  0  0  0  0  0  0  0  0  0  0  0
   52.6725  -35.5366  -15.0740 C   0  0  0  0  0  0  0  0  0  0  0  0
   53.6249  -36.5821  -14.5752 C   0  0  0  0  0  0  0  0  0  0  0  0
   55.0008  -36.2915  -15.0902 C   0  0  0  0  0  0  0  0  0  0  0  0
   55.9483  -37.4156  -14.7028 C   0  0  0  0  0  0  0  0  0  0  0  0
   55.6359  -37.9410  -13.3536 C   0  0  0  0  0  0  0  0  0  0  0  0
   53.0851  -34.6460  -15.8592 O   0  0  0  0  0  0  0  0  0  0  0  0
   54.5419  -38.6016  -13.2607 O   0  0  0  0  0  0  0  0  0  0  0  0
   56.4072  -37.7837  -12.2076 N   0  0  0  0  0  0  0  0  0  0  0  0
   59.7270  -35.5782   -9.8900 C   0  0  0  0  0  0  0  0  0  0  0  0
   59.0951  -36.1362  -11.0355 C   0  0  0  0  0  0  0  0  0  0  0  0
   58.5340  -37.3887  -11.0335 C   0  0  0  0  0  0  0  0  0  0  0  0
   58.6175  -38.0707   -9.8519 C   0  0  0  0  0  0  0  0  0  0  0  0
   59.2495  -37.5148   -8.7023 C   0  0  0  0  0  0  0  0  0  0  0  0
   60.4904  -35.6465   -7.5034 C   0  0  0  0  0  0  0  0  0  0  0  0
   59.5965  -34.6712   -6.7747 C   0  0  0  0  0  0  0  0  0  0  0  0
   59.8593  -33.4553   -6.9783 O   0  0  0  0  0  0  0  0  0  0  0  0
   59.8133  -36.2628   -8.7056 C   0  0  0  0  0  0  0  0  0  0  0  0
   57.8600  -38.0081  -12.2342 C   0  0  0  0  0  0  0  0  0  0  0  0
   49.6357  -29.9978   -1.9287 H   0  0  0  0  0  0  0  0  0  0  0  0
   52.2148  -34.0767   -3.0415 H   0  0  0  0  0  0  0  0  0  0  0  0
   46.5286  -40.7883   -4.2219 H   0  0  0  0  0  0  0  0  0  0  0  0
  2  1  1  1
  3  2  1  0
  2  5  1  0
  3  4  2  0
 10  3  1  0
  5  6  1  0
  6  7  1  0
  7  8  1  0
  8  9  1  0
  9 74  1  0
 11 10  1  0
 12 11  1  0
 11 14  1  1
 12 13  2  0
 21 12  1  0
 14 15  1  0
 15 16  1  0
 16 17  1  0
 17 18  1  0
 18 19  1  0
 18 20  2  0
 22 21  1  0
 23 22  1  0
 22 25  1  1
 23 24  2  0
 32 23  1  0
 25 26  1  0
 26 27  1  0
 27 28  1  0
 28 29  1  0
 29 30  1  0
 29 31  2  0
 33 32  1  6
 33 34  1  0
 38 33  1  0
 34 35  1  6
 34 36  1  0
 34 37  1  0
 38 39  2  0
 40 38  1  0
 41 40  1  0
 41 42  1  6
 44 41  1  0
 42 43  2  0
 42 49  1  0
 45 44  1  0
 46 45  1  0
 47 46  1  0
 48 47  1  0
 60 48  1  0
 49 50  1  0
 50 51  1  0
 51 52  2  0
 51 59  1  0
 52 53  1  0
 53 54  2  0
 54 55  1  0
 58 54  1  0
 55 56  1  0
 55 57  2  0
 59 58  2  0
 61 60  1  0
 60 65  2  0
 62 61  1  0
 63 62  1  0
 64 63  1  0
 64 66  2  0
 67 64  1  0
 77 67  1  0
 69 68  2  0
 68 76  1  0
 70 69  1  0
 70 71  2  0
 70 77  1  0
 71 72  1  0
 72 76  2  0
 74 73  1  0
 73 76  1  0
 74 75  2  0
 20 78  1  0
 31 79  1  0
 57 80  1  0
M  CHG  1   1   1
M  END
$$$$
