
     RDKit          3D

 80 82  0  0  0  0  0  0  0  0999 V2000
   47.6434  -32.5731   -2.0687 N   0  0  0  0  0  4  0  0  0  0  0  0
   48.1549  -33.0649   -3.3598 C   0  0  2  0  0  0  0  0  0  0  0  0
   47.3969  -34.2372   -3.7996 C   0  0  0  0  0  0  0  0  0  0  0  0
   47.4197  -35.2213   -2.9536 O   0  0  0  0  0  0  0  0  0  0  0  0
   49.5700  -33.5955   -3.0252 C   0  0  0  0  0  0  0  0  0  0  0  0
   50.4843  -32.3992   -2.9011 C   0  0  0  0  0  0  0  0  0  0  0  0
   51.4949  -32.6791   -1.8206 C   0  0  0  0  0  0  0  0  0  0  0  0
   52.1621  -31.3815   -1.3549 C   0  0  0  0  0  0  0  0  0  0  0  0
   52.9721  -30.9327   -2.4602 N   0  0  0  0  0  0  0  0  0  0  0  0
   46.6615  -34.4488   -4.9819 N   0  0  0  0  0  0  0  0  0  0  0  0
   46.0993  -33.4743   -5.8767 C   0  0  2  0  0  0  0  0  0  0  0  0
   46.9893  -33.0676   -6.9901 C   0  0  0  0  0  0  0  0  0  0  0  0
   48.0598  -32.4421   -6.6641 O   0  0  0  0  0  0  0  0  0  0  0  0
   45.3438  -32.3534   -5.2522 C   0  0  0  0  0  0  0  0  0  0  0  0
   45.0995  -31.1398   -6.0785 C   0  0  0  0  0  0  0  0  0  0  0  0
   45.6662  -31.1701   -7.4618 C   0  0  0  0  0  0  0  0  0  0  0  0
   45.4495  -32.4967   -8.0711 N   0  0  0  0  0  0  0  0  0  0  0  0
   44.2741  -33.2156   -7.7581 C   0  0  0  0  0  0  0  0  0  0  0  0
   43.5394  -32.9933   -6.5535 N   0  0  0  0  0  0  0  0  0  0  0  0
   43.8344  -34.1083   -8.5786 N   0  0  0  0  0  0  0  0  0  0  0  0
   46.7584  -33.3096   -8.3714 N   0  0  0  0  0  0  0  0  0  0  0  0
   46.5573  -34.5965   -8.9853 C   0  0  2  0  0  0  0  0  0  0  0  0
   47.8462  -35.0895   -9.5901 C   0  0  0  0  0  0  0  0  0  0  0  0
   48.8872  -34.3957   -9.2749 O   0  0  0  0  0  0  0  0  0  0  0  0
   45.4813  -34.5231  -10.0204 C   0  0  0  0  0  0  0  0  0  0  0  0
   45.6230  -33.5443  -11.1089 C   0  0  0  0  0  0  0  0  0  0  0  0
   46.7181  -32.5325  -11.0216 C   0  0  0  0  0  0  0  0  0  0  0  0
   47.0484  -31.9729  -12.3275 N   0  0  0  0  0  0  0  0  0  0  0  0
   46.2205  -30.9738  -12.8942 C   0  0  0  0  0  0  0  0  0  0  0  0
   45.0602  -30.5224  -12.2103 N   0  0  0  0  0  0  0  0  0  0  0  0
   46.5587  -30.4823  -14.0606 N   0  0  0  0  0  0  0  0  0  0  0  0
   47.9813  -36.2015  -10.4345 N   0  0  0  0  0  0  0  0  0  0  0  0
   47.5518  -37.5597  -10.1858 C   0  0  1  0  0  0  0  0  0  0  0  0
   47.4624  -38.2748  -11.4886 C   0  0  1  0  0  0  0  0  0  0  0  0
   46.4465  -37.4630  -12.3275 C   0  0  0  0  0  0  0  0  0  0  0  0
   48.7356  -38.1815  -12.3271 C   0  0  0  0  0  0  0  0  0  0  0  0
   46.8844  -39.6523  -11.4332 C   0  0  0  0  0  0  0  0  0  0  0  0
   48.3584  -38.1697   -9.1173 C   0  0  0  0  0  0  0  0  0  0  0  0
   48.5273  -37.3284   -8.1442 O   0  0  0  0  0  0  0  0  0  0  0  0
   48.9361  -39.4300   -8.9806 N   0  0  0  0  0  0  0  0  0  0  0  0
   49.9710  -40.0769   -9.7324 C   0  0  2  0  0  0  0  0  0  0  0  0
   50.3974  -41.3839   -9.1786 C   0  0  0  0  0  0  0  0  0  0  0  0
   51.6668  -41.6535   -9.1545 O   0  0  0  0  0  0  0  0  0  0  0  0
   51.2093  -39.2141   -9.9508 C   0  0  0  0  0  0  0  0  0  0  0  0
   52.3524  -39.5303   -9.0622 C   0  0  0  0  0  0  0  0  0  0  0  0
   53.5906  -39.7679   -9.9374 C   0  0  0  0  0  0  0  0  0  0  0  0
   54.8526  -39.8600   -9.1251 C   0  0  0  0  0  0  0  0  0  0  0  0
   55.9120  -39.0999   -9.7824 N   0  0  0  0  0  0  0  0  0  0  0  0
   49.5992  -42.4075   -8.6578 N   0  0  0  0  0  0  0  0  0  0  0  0
   49.2267  -42.4918   -7.2365 C   0  0  0  0  0  0  0  0  0  0  0  0
   47.7994  -42.4541   -6.9813 C   0  0  0  0  0  0  0  0  0  0  0  0
   47.2455  -41.6137   -6.0557 C   0  0  0  0  0  0  0  0  0  0  0  0
   45.8797  -41.5995   -5.8138 C   0  0  0  0  0  0  0  0  0  0  0  0
   45.0374  -42.4356   -6.5034 C   0  0  0  0  0  0  0  0  0  0  0  0
   43.6024  -42.4087   -6.2434 C   0  0  0  0  0  0  0  0  0  0  0  0
   42.7326  -43.3118   -6.8920 N   0  0  0  0  0  0  0  0  0  0  0  0
   43.1148  -41.5602   -5.4178 N   0  0  0  0  0  0  0  0  0  0  0  0
   45.5818  -43.2985   -7.4500 C   0  0  0  0  0  0  0  0  0  0  0  0
   46.9345  -43.2889   -7.6658 C   0  0  0  0  0  0  0  0  0  0  0  0
   57.0067  -38.5634   -9.0794 C   0  0  0  0  0  0  0  0  0  0  0  0
   57.0474  -38.5747   -7.5804 C   0  0  0  0  0  0  0  0  0  0  0  0
   58.2816  -37.8698   -7.1086 C   0  0  0  0  0  0  0  0  0  0  0  0
   58.4030  -37.9907   -5.5978 C   0  0  0  0  0  0  0  0  0  0  0  0
   57.0758  -37.9165   -4.9443 C   0  0  0  0  0  0  0  0  0  0  0  0
   57.9659  -38.0665   -9.7220 O   0  0  0  0  0  0  0  0  0  0  0  0
   56.3121  -38.9278   -5.1346 O   0  0  0  0  0  0  0  0  0  0  0  0
   56.5983  -36.8714   -4.1617 N   0  0  0  0  0  0  0  0  0  0  0  0
   56.8167  -32.4744   -2.7922 C   0  0  0  0  0  0  0  0  0  0  0  0
   57.3360  -33.7310   -3.2093 C   0  0  0  0  0  0  0  0  0  0  0  0
   56.8960  -34.9222   -2.6886 C   0  0  0  0  0  0  0  0  0  0  0  0
   55.9172  -34.8254   -1.7394 C   0  0  0  0  0  0  0  0  0  0  0  0
   55.3945  -33.5684   -1.3193 C   0  0  0  0  0  0  0  0  0  0  0  0
   55.3029  -31.0286   -1.4132 C   0  0  0  0  0  0  0  0  0  0  0  0
   54.2890  -30.4765   -2.3872 C   0  0  0  0  0  0  0  0  0  0  0  0
   54.7192  -29.5621   -3.1408 O   0  0  0  0  0  0  0  0  0  0  0  0
   55.8371  -32.3768   -1.8384 C   0  0  0  0  0  0  0  0  0  0  0  0
   57.4304  -36.2702   -3.1091 C   0  0  0  0  0  0  0  0  0  0  0  0
   42.8093  -34.3036   -8.6997 H   0  0  0  0  0  0  0  0  0  0  0  0
   47.5008  -30.7546  -14.4565 H   0  0  0  0  0  0  0  0  0  0  0  0
   43.6911  -40.8267   -4.9774 H   0  0  0  0  0  0  0  0  0  0  0  0
  2  1  1  1
  3  2  1  0
  2  5  1  0
  3  4  2  0
 10  3  1  0
  5  6  1  0
  6  7  1  0
  7  8  1  0
  8  9  1  0
  9 74  1  0
 11 10  1  0
 12 11  1  0
 11 14  1  1
 12 13  2  0
 21 12  1  0
 14 15  1  0
 15 16  1  0
 16 17  1  0
 17 18  1  0
 18 19  1  0
 18 20  2  0
 22 21  1  0
 23 22  1  0
 22 25  1  6
 23 24  2  0
 32 23  1  0
 25 26  1  0
 26 27  1  0
 27 28  1  0
 28 29  1  0
 29 30  1  0
 29 31  2  0
 33 32  1  6
 33 34  1  0
 38 33  1  0
 34 35  1  6
 34 36  1  0
 34 37  1  0
 38 39  2  0
 40 38  1  0
 41 40  1  0
 41 42  1  1
 44 41  1  0
 42 43  2  0
 42 49  1  0
 45 44  1  0
 46 45  1  0
 47 46  1  0
 48 47  1  0
 60 48  1  0
 49 50  1  0
 50 51  1  0
 51 52  2  0
 51 59  1  0
 52 53  1  0
 53 54  2  0
 54 55  1  0
 58 54  1  0
 55 56  1  0
 55 57  2  0
 59 58  2  0
 61 60  1  0
 60 65  2  0
 62 61  1  0
 63 62  1  0
 64 63  1  0
 64 66  2  0
 67 64  1  0
 77 67  1  0
 69 68  2  0
 68 76  1  0
 70 69  1  0
 70 71  2  0
 70 77  1  0
 71 72  1  0
 72 76  2  0
 74 73  1  0
 73 76  1  0
 74 75  2  0
 20 78  1  0
 31 79  1  0
 57 80  1  0
M  CHG  1   1   1
M  END
$$$$
