
     RDKit          3D

 80 82  0  0  0  0  0  0  0  0999 V2000
   54.8338  -36.3651   -3.3928 N   0  0  0  0  0  4  0  0  0  0  0  0
   53.9623  -35.8510   -4.4637 C   0  0  2  0  0  0  0  0  0  0  0  0
   52.8179  -36.7408   -4.6660 C   0  0  0  0  0  0  0  0  0  0  0  0
   53.1502  -37.9595   -4.9642 O   0  0  0  0  0  0  0  0  0  0  0  0
   54.8198  -35.9909   -5.7448 C   0  0  0  0  0  0  0  0  0  0  0  0
   55.8164  -34.8555   -5.7485 C   0  0  0  0  0  0  0  0  0  0  0  0
   57.1063  -35.3527   -6.3453 C   0  0  0  0  0  0  0  0  0  0  0  0
   58.2625  -34.4111   -5.9953 C   0  0  0  0  0  0  0  0  0  0  0  0
   58.0111  -33.1884   -6.7173 N   0  0  0  0  0  0  0  0  0  0  0  0
   51.4375  -36.4733   -4.5858 N   0  0  0  0  0  0  0  0  0  0  0  0
   50.7680  -35.4071   -3.8919 C   0  0  2  0  0  0  0  0  0  0  0  0
   50.5403  -34.1865   -4.7015 C   0  0  0  0  0  0  0  0  0  0  0  0
   51.5871  -33.5498   -5.0788 O   0  0  0  0  0  0  0  0  0  0  0  0
   51.2044  -35.1447   -2.4927 C   0  0  0  0  0  0  0  0  0  0  0  0
   50.3794  -34.2147   -1.6745 C   0  0  0  0  0  0  0  0  0  0  0  0
   48.9418  -34.5922   -1.5122 C   0  0  0  0  0  0  0  0  0  0  0  0
   48.4908  -34.2981   -0.1382 N   0  0  0  0  0  0  0  0  0  0  0  0
   49.1561  -34.9049    0.9507 C   0  0  0  0  0  0  0  0  0  0  0  0
   50.5597  -35.1697    0.9380 N   0  0  0  0  0  0  0  0  0  0  0  0
   48.4873  -35.2379    2.0020 N   0  0  0  0  0  0  0  0  0  0  0  0
   49.2748  -33.6688   -5.0895 N   0  0  0  0  0  0  0  0  0  0  0  0
   48.2651  -34.3699   -5.8394 C   0  0  2  0  0  0  0  0  0  0  0  0
   48.3464  -33.9936   -7.2961 C   0  0  0  0  0  0  0  0  0  0  0  0
   49.3915  -33.3084   -7.6162 O   0  0  0  0  0  0  0  0  0  0  0  0
   46.9052  -34.0767   -5.2924 C   0  0  0  0  0  0  0  0  0  0  0  0
   46.7610  -33.8850   -3.8414 C   0  0  0  0  0  0  0  0  0  0  0  0
   47.6691  -32.9183   -3.1549 C   0  0  0  0  0  0  0  0  0  0  0  0
   48.4083  -33.5449   -2.0648 N   0  0  0  0  0  0  0  0  0  0  0  0
   49.1642  -32.7432   -1.1756 C   0  0  0  0  0  0  0  0  0  0  0  0
   48.7887  -32.6257    0.1893 N   0  0  0  0  0  0  0  0  0  0  0  0
   50.2144  -32.1196   -1.6498 N   0  0  0  0  0  0  0  0  0  0  0  0
   47.4033  -34.3242   -8.2805 N   0  0  0  0  0  0  0  0  0  0  0  0
   46.9048  -35.6374   -8.6240 C   0  0  1  0  0  0  0  0  0  0  0  0
   45.6196  -35.4795   -9.3587 C   0  0  1  0  0  0  0  0  0  0  0  0
   45.7039  -34.0867  -10.0279 C   0  0  0  0  0  0  0  0  0  0  0  0
   45.4802  -36.4162  -10.5571 C   0  0  0  0  0  0  0  0  0  0  0  0
   44.3916  -35.4115   -8.5089 C   0  0  0  0  0  0  0  0  0  0  0  0
   47.9633  -36.4449   -9.2500 C   0  0  0  0  0  0  0  0  0  0  0  0
   49.0819  -36.2959   -8.6098 O   0  0  0  0  0  0  0  0  0  0  0  0
   47.9655  -37.2983  -10.3512 N   0  0  0  0  0  0  0  0  0  0  0  0
   47.7433  -37.0381  -11.7432 C   0  0  2  0  0  0  0  0  0  0  0  0
   47.9661  -38.2098  -12.6231 C   0  0  0  0  0  0  0  0  0  0  0  0
   49.1786  -38.4611  -13.0123 O   0  0  0  0  0  0  0  0  0  0  0  0
   48.5447  -35.8609  -12.2888 C   0  0  0  0  0  0  0  0  0  0  0  0
   49.7483  -36.2356  -13.0679 C   0  0  0  0  0  0  0  0  0  0  0  0
   49.6798  -35.5288  -14.4285 C   0  0  0  0  0  0  0  0  0  0  0  0
   50.9651  -35.6515  -15.1991 C   0  0  0  0  0  0  0  0  0  0  0  0
   51.2977  -34.3633  -15.8008 N   0  0  0  0  0  0  0  0  0  0  0  0
   47.0228  -39.1189  -13.1128 N   0  0  0  0  0  0  0  0  0  0  0  0
   45.6767  -39.2687  -12.5369 C   0  0  0  0  0  0  0  0  0  0  0  0
   45.5277  -40.3904  -11.6295 C   0  0  0  0  0  0  0  0  0  0  0  0
   46.5922  -41.1458  -11.2220 C   0  0  0  0  0  0  0  0  0  0  0  0
   46.4310  -42.2240  -10.3643 C   0  0  0  0  0  0  0  0  0  0  0  0
   45.1871  -42.5662   -9.8953 C   0  0  0  0  0  0  0  0  0  0  0  0
   45.0306  -43.6994   -8.9906 C   0  0  0  0  0  0  0  0  0  0  0  0
   46.1565  -44.4034   -8.5112 N   0  0  0  0  0  0  0  0  0  0  0  0
   43.8622  -44.0685   -8.6192 N   0  0  0  0  0  0  0  0  0  0  0  0
   44.0908  -41.8095  -10.2983 C   0  0  0  0  0  0  0  0  0  0  0  0
   44.2827  -40.7508  -11.1462 C   0  0  0  0  0  0  0  0  0  0  0  0
   52.6169  -33.9987  -16.1282 C   0  0  0  0  0  0  0  0  0  0  0  0
   53.7835  -34.8366  -15.6970 C   0  0  0  0  0  0  0  0  0  0  0  0
   55.0585  -34.1690  -16.1110 C   0  0  0  0  0  0  0  0  0  0  0  0
   56.2419  -35.0712  -15.7991 C   0  0  0  0  0  0  0  0  0  0  0  0
   56.0372  -35.8066  -14.5297 C   0  0  0  0  0  0  0  0  0  0  0  0
   52.8179  -32.9517  -16.7939 O   0  0  0  0  0  0  0  0  0  0  0  0
   55.1344  -36.7154  -14.5604 O   0  0  0  0  0  0  0  0  0  0  0  0
   56.7224  -35.6018  -13.3375 N   0  0  0  0  0  0  0  0  0  0  0  0
   59.3571  -32.9474  -10.6413 C   0  0  0  0  0  0  0  0  0  0  0  0
   58.9043  -33.5054  -11.8687 C   0  0  0  0  0  0  0  0  0  0  0  0
   58.6640  -34.8475  -12.0263 C   0  0  0  0  0  0  0  0  0  0  0  0
   58.8849  -35.6202  -10.9207 C   0  0  0  0  0  0  0  0  0  0  0  0
   59.3382  -35.0647   -9.6896 C   0  0  0  0  0  0  0  0  0  0  0  0
   60.0626  -33.1039   -8.2411 C   0  0  0  0  0  0  0  0  0  0  0  0
   58.9433  -32.4599   -7.4576 C   0  0  0  0  0  0  0  0  0  0  0  0
   58.9075  -31.2013   -7.5186 O   0  0  0  0  0  0  0  0  0  0  0  0
   59.5813  -33.7223   -9.5332 C   0  0  0  0  0  0  0  0  0  0  0  0
   58.1865  -35.4684  -13.3171 C   0  0  0  0  0  0  0  0  0  0  0  0
   47.4370  -35.2411    2.0219 H   0  0  0  0  0  0  0  0  0  0  0  0
   50.8700  -31.6610   -0.9583 H   0  0  0  0  0  0  0  0  0  0  0  0
   43.7138  -44.8620   -7.9770 H   0  0  0  0  0  0  0  0  0  0  0  0
  2  1  1  1
  3  2  1  0
  2  5  1  0
  3  4  2  0
 10  3  1  0
  5  6  1  0
  6  7  1  0
  7  8  1  0
  8  9  1  0
  9 74  1  0
 11 10  1  0
 12 11  1  0
 11 14  1  1
 12 13  2  0
 21 12  1  0
 14 15  1  0
 15 16  1  0
 16 17  1  0
 17 18  1  0
 18 19  1  0
 18 20  2  0
 22 21  1  0
 23 22  1  0
 22 25  1  1
 23 24  2  0
 32 23  1  0
 25 26  1  0
 26 27  1  0
 27 28  1  0
 28 29  1  0
 29 30  1  0
 29 31  2  0
 33 32  1  6
 33 34  1  0
 38 33  1  0
 34 35  1  6
 34 36  1  0
 34 37  1  0
 38 39  2  0
 40 38  1  0
 41 40  1  0
 41 42  1  6
 44 41  1  0
 42 43  2  0
 42 49  1  0
 45 44  1  0
 46 45  1  0
 47 46  1  0
 48 47  1  0
 60 48  1  0
 49 50  1  0
 50 51  1  0
 51 52  2  0
 51 59  1  0
 52 53  1  0
 53 54  2  0
 54 55  1  0
 58 54  1  0
 55 56  1  0
 55 57  2  0
 59 58  2  0
 61 60  1  0
 60 65  2  0
 62 61  1  0
 63 62  1  0
 64 63  1  0
 64 66  2  0
 67 64  1  0
 77 67  1  0
 69 68  2  0
 68 76  1  0
 70 69  1  0
 70 71  2  0
 70 77  1  0
 71 72  1  0
 72 76  2  0
 74 73  1  0
 73 76  1  0
 74 75  2  0
 20 78  1  0
 31 79  1  0
 57 80  1  0
M  CHG  1   1   1
M  END
$$$$
