
     RDKit          3D

 80 82  0  0  0  0  0  0  0  0999 V2000
   53.5414  -35.4522   -2.1804 N   0  0  0  0  0  4  0  0  0  0  0  0
   52.8881  -35.2021   -3.4771 C   0  0  2  0  0  0  0  0  0  0  0  0
   51.7325  -36.0839   -3.6484 C   0  0  0  0  0  0  0  0  0  0  0  0
   52.0242  -37.3467   -3.5787 O   0  0  0  0  0  0  0  0  0  0  0  0
   53.9267  -35.6829   -4.5193 C   0  0  0  0  0  0  0  0  0  0  0  0
   54.9862  -34.6117   -4.6299 C   0  0  0  0  0  0  0  0  0  0  0  0
   56.3176  -35.2769   -4.8578 C   0  0  0  0  0  0  0  0  0  0  0  0
   57.4649  -34.3081   -4.5563 C   0  0  0  0  0  0  0  0  0  0  0  0
   57.4152  -33.3008   -5.5869 N   0  0  0  0  0  0  0  0  0  0  0  0
   50.3783  -35.7687   -3.8728 N   0  0  0  0  0  0  0  0  0  0  0  0
   49.6813  -34.5448   -3.5853 C   0  0  2  0  0  0  0  0  0  0  0  0
   49.6687  -33.5622   -4.6950 C   0  0  0  0  0  0  0  0  0  0  0  0
   50.8031  -33.0689   -5.0318 O   0  0  0  0  0  0  0  0  0  0  0  0
   49.9068  -33.9496   -2.2391 C   0  0  0  0  0  0  0  0  0  0  0  0
   49.1753  -34.5462   -1.0885 C   0  0  0  0  0  0  0  0  0  0  0  0
   48.5889  -35.9015   -1.3229 C   0  0  0  0  0  0  0  0  0  0  0  0
   47.1744  -35.7807   -1.7259 N   0  0  0  0  0  0  0  0  0  0  0  0
   46.4861  -36.9285   -2.1790 C   0  0  0  0  0  0  0  0  0  0  0  0
   46.5423  -37.3677   -3.5370 N   0  0  0  0  0  0  0  0  0  0  0  0
   45.7769  -37.6162   -1.3498 N   0  0  0  0  0  0  0  0  0  0  0  0
   48.5191  -33.1261   -5.4079 N   0  0  0  0  0  0  0  0  0  0  0  0
   47.5960  -33.9669   -6.1250 C   0  0  2  0  0  0  0  0  0  0  0  0
   47.9330  -33.9724   -7.5935 C   0  0  0  0  0  0  0  0  0  0  0  0
   49.0599  -33.4177   -7.8879 O   0  0  0  0  0  0  0  0  0  0  0  0
   46.1896  -33.5097   -5.9067 C   0  0  0  0  0  0  0  0  0  0  0  0
   45.9513  -32.4034   -4.9675 C   0  0  0  0  0  0  0  0  0  0  0  0
   46.3910  -31.0298   -5.3554 C   0  0  0  0  0  0  0  0  0  0  0  0
   47.2090  -30.4070   -4.3208 N   0  0  0  0  0  0  0  0  0  0  0  0
   48.0088  -29.2826   -4.6386 C   0  0  0  0  0  0  0  0  0  0  0  0
   48.6743  -28.5561   -3.6154 N   0  0  0  0  0  0  0  0  0  0  0  0
   48.1149  -28.9385   -5.8983 N   0  0  0  0  0  0  0  0  0  0  0  0
   47.1379  -34.5157   -8.6136 N   0  0  0  0  0  0  0  0  0  0  0  0
   46.6121  -35.8595   -8.7058 C   0  0  1  0  0  0  0  0  0  0  0  0
   45.4737  -35.8584   -9.6652 C   0  0  1  0  0  0  0  0  0  0  0  0
   46.0573  -35.3014  -10.9858 C   0  0  0  0  0  0  0  0  0  0  0  0
   45.0122  -37.2570  -10.0697 C   0  0  0  0  0  0  0  0  0  0  0  0
   44.3484  -34.9316   -9.3343 C   0  0  0  0  0  0  0  0  0  0  0  0
   47.6991  -36.8263   -8.9255 C   0  0  0  0  0  0  0  0  0  0  0  0
   48.7093  -36.5500   -8.1597 O   0  0  0  0  0  0  0  0  0  0  0  0
   47.8181  -37.9294   -9.7679 N   0  0  0  0  0  0  0  0  0  0  0  0
   47.8380  -38.0229  -11.1981 C   0  0  2  0  0  0  0  0  0  0  0  0
   48.1174  -39.3841  -11.7139 C   0  0  0  0  0  0  0  0  0  0  0  0
   48.9432  -39.5041  -12.7081 O   0  0  0  0  0  0  0  0  0  0  0  0
   48.7941  -37.0428  -11.8695 C   0  0  0  0  0  0  0  0  0  0  0  0
   50.0779  -37.6332  -12.3162 C   0  0  0  0  0  0  0  0  0  0  0  0
   50.2746  -37.2908  -13.7993 C   0  0  0  0  0  0  0  0  0  0  0  0
   51.6546  -37.6375  -14.2853 C   0  0  0  0  0  0  0  0  0  0  0  0
   52.1655  -36.5518  -15.1175 N   0  0  0  0  0  0  0  0  0  0  0  0
   47.6008  -40.6044  -11.2667 N   0  0  0  0  0  0  0  0  0  0  0  0
   46.1632  -40.9197  -11.2748 C   0  0  0  0  0  0  0  0  0  0  0  0
   45.7934  -42.0804  -10.4876 C   0  0  0  0  0  0  0  0  0  0  0  0
   44.5507  -42.6462  -10.5610 C   0  0  0  0  0  0  0  0  0  0  0  0
   44.2084  -43.7481   -9.7912 C   0  0  0  0  0  0  0  0  0  0  0  0
   45.1156  -44.3076   -8.9263 C   0  0  0  0  0  0  0  0  0  0  0  0
   44.7455  -45.4688   -8.1250 C   0  0  0  0  0  0  0  0  0  0  0  0
   43.5364  -46.1571   -8.3641 N   0  0  0  0  0  0  0  0  0  0  0  0
   45.5197  -45.8783   -7.1911 N   0  0  0  0  0  0  0  0  0  0  0  0
   46.3861  -43.7463   -8.8371 C   0  0  0  0  0  0  0  0  0  0  0  0
   46.6936  -42.6582   -9.6105 C   0  0  0  0  0  0  0  0  0  0  0  0
   53.5416  -36.3162  -15.2937 C   0  0  0  0  0  0  0  0  0  0  0  0
   54.5652  -37.0486  -14.4783 C   0  0  0  0  0  0  0  0  0  0  0  0
   55.9322  -36.5406  -14.8187 C   0  0  0  0  0  0  0  0  0  0  0  0
   56.9868  -37.3657  -14.0985 C   0  0  0  0  0  0  0  0  0  0  0  0
   56.5336  -37.7516  -12.7422 C   0  0  0  0  0  0  0  0  0  0  0  0
   53.9166  -35.4765  -16.1505 O   0  0  0  0  0  0  0  0  0  0  0  0
   55.5873  -38.6149  -12.7038 O   0  0  0  0  0  0  0  0  0  0  0  0
   57.0330  -37.2709  -11.5371 N   0  0  0  0  0  0  0  0  0  0  0  0
   59.3806  -34.0924   -9.1616 C   0  0  0  0  0  0  0  0  0  0  0  0
   59.0916  -34.9298  -10.2743 C   0  0  0  0  0  0  0  0  0  0  0  0
   58.7885  -36.2614  -10.1381 C   0  0  0  0  0  0  0  0  0  0  0  0
   58.7779  -36.7360   -8.8563 C   0  0  0  0  0  0  0  0  0  0  0  0
   59.0667  -35.9000   -7.7393 C   0  0  0  0  0  0  0  0  0  0  0  0
   59.6836  -33.6570   -6.7117 C   0  0  0  0  0  0  0  0  0  0  0  0
   58.5006  -32.8072   -6.3123 C   0  0  0  0  0  0  0  0  0  0  0  0
   58.5607  -31.6042   -6.6839 O   0  0  0  0  0  0  0  0  0  0  0  0
   59.3727  -34.5685   -7.8763 C   0  0  0  0  0  0  0  0  0  0  0  0
   58.4809  -37.1751  -11.3001 C   0  0  0  0  0  0  0  0  0  0  0  0
   45.3959  -37.2054   -0.4611 H   0  0  0  0  0  0  0  0  0  0  0  0
   48.2942  -27.9197   -6.1181 H   0  0  0  0  0  0  0  0  0  0  0  0
   45.4122  -46.8066   -6.7543 H   0  0  0  0  0  0  0  0  0  0  0  0
  2  1  1  1
  3  2  1  0
  2  5  1  0
  3  4  2  0
 10  3  1  0
  5  6  1  0
  6  7  1  0
  7  8  1  0
  8  9  1  0
  9 74  1  0
 11 10  1  0
 12 11  1  0
 11 14  1  1
 12 13  2  0
 21 12  1  0
 14 15  1  0
 15 16  1  0
 16 17  1  0
 17 18  1  0
 18 19  1  0
 18 20  2  0
 22 21  1  0
 23 22  1  0
 22 25  1  6
 23 24  2  0
 32 23  1  0
 25 26  1  0
 26 27  1  0
 27 28  1  0
 28 29  1  0
 29 30  1  0
 29 31  2  0
 33 32  1  6
 33 34  1  0
 38 33  1  0
 34 35  1  6
 34 36  1  0
 34 37  1  0
 38 39  2  0
 40 38  1  0
 41 40  1  0
 41 42  1  1
 44 41  1  0
 42 43  2  0
 42 49  1  0
 45 44  1  0
 46 45  1  0
 47 46  1  0
 48 47  1  0
 60 48  1  0
 49 50  1  0
 50 51  1  0
 51 52  2  0
 51 59  1  0
 52 53  1  0
 53 54  2  0
 54 55  1  0
 58 54  1  0
 55 56  1  0
 55 57  2  0
 59 58  2  0
 61 60  1  0
 60 65  2  0
 62 61  1  0
 63 62  1  0
 64 63  1  0
 64 66  2  0
 67 64  1  0
 77 67  1  0
 69 68  2  0
 68 76  1  0
 70 69  1  0
 70 71  2  0
 70 77  1  0
 71 72  1  0
 72 76  2  0
 74 73  1  0
 73 76  1  0
 74 75  2  0
 20 78  1  0
 31 79  1  0
 57 80  1  0
M  CHG  1   1   1
M  END
$$$$
