
     RDKit          3D

 80 82  0  0  0  0  0  0  0  0999 V2000
   56.0366  -33.0355   -6.6625 N   0  0  0  0  0  4  0  0  0  0  0  0
   54.9461  -34.0259   -6.6850 C   0  0  2  0  0  0  0  0  0  0  0  0
   54.2209  -33.9624   -7.9548 C   0  0  0  0  0  0  0  0  0  0  0  0
   53.7132  -32.7952   -8.2084 O   0  0  0  0  0  0  0  0  0  0  0  0
   53.9491  -33.5104   -5.6190 C   0  0  0  0  0  0  0  0  0  0  0  0
   54.5083  -33.8734   -4.2633 C   0  0  0  0  0  0  0  0  0  0  0  0
   54.1674  -32.7724   -3.2944 C   0  0  0  0  0  0  0  0  0  0  0  0
   55.0463  -32.8616   -2.0433 C   0  0  0  0  0  0  0  0  0  0  0  0
   54.6302  -34.0556   -1.3501 N   0  0  0  0  0  0  0  0  0  0  0  0
   53.9983  -34.9621   -8.9215 N   0  0  0  0  0  0  0  0  0  0  0  0
   54.7434  -36.1694   -9.1532 C   0  0  2  0  0  0  0  0  0  0  0  0
   54.2518  -37.3543   -8.4105 C   0  0  0  0  0  0  0  0  0  0  0  0
   54.3470  -37.3055   -7.1329 O   0  0  0  0  0  0  0  0  0  0  0  0
   56.2262  -36.0404   -9.1935 C   0  0  0  0  0  0  0  0  0  0  0  0
   57.0338  -37.2075   -8.7455 C   0  0  0  0  0  0  0  0  0  0  0  0
   56.2634  -38.4511   -8.4363 C   0  0  0  0  0  0  0  0  0  0  0  0
   54.8285  -38.2415   -8.7099 N   0  0  0  0  0  0  0  0  0  0  0  0
   53.9876  -39.3643   -8.8792 C   0  0  0  0  0  0  0  0  0  0  0  0
   52.8644  -39.3527   -9.7616 N   0  0  0  0  0  0  0  0  0  0  0  0
   54.2285  -40.4471   -8.2212 N   0  0  0  0  0  0  0  0  0  0  0  0
   53.6910  -38.5254   -8.9883 N   0  0  0  0  0  0  0  0  0  0  0  0
   52.5430  -38.5772   -9.8560 C   0  0  2  0  0  0  0  0  0  0  0  0
   51.3119  -38.9385   -9.0661 C   0  0  0  0  0  0  0  0  0  0  0  0
   51.4725  -38.9266   -7.7861 O   0  0  0  0  0  0  0  0  0  0  0  0
   52.7656  -39.5544  -10.9651 C   0  0  0  0  0  0  0  0  0  0  0  0
   53.6049  -39.1443  -12.1011 C   0  0  0  0  0  0  0  0  0  0  0  0
   53.4586  -37.7564  -12.6329 C   0  0  0  0  0  0  0  0  0  0  0  0
   53.8438  -36.7520  -11.6479 N   0  0  0  0  0  0  0  0  0  0  0  0
   53.9599  -35.3951  -12.0356 C   0  0  0  0  0  0  0  0  0  0  0  0
   54.9594  -34.9901  -12.9600 N   0  0  0  0  0  0  0  0  0  0  0  0
   53.1200  -34.5328  -11.5184 N   0  0  0  0  0  0  0  0  0  0  0  0
   50.0612  -39.2719   -9.6069 N   0  0  0  0  0  0  0  0  0  0  0  0
   49.2659  -38.5033  -10.5384 C   0  0  1  0  0  0  0  0  0  0  0  0
   48.2839  -39.4146  -11.1878 C   0  0  1  0  0  0  0  0  0  0  0  0
   47.9091  -40.4486  -10.0992 C   0  0  0  0  0  0  0  0  0  0  0  0
   46.9420  -38.7518  -11.4927 C   0  0  0  0  0  0  0  0  0  0  0  0
   48.8129  -40.2377  -12.3180 C   0  0  0  0  0  0  0  0  0  0  0  0
   48.7550  -37.2818   -9.8971 C   0  0  0  0  0  0  0  0  0  0  0  0
   49.6854  -36.7232   -9.1861 O   0  0  0  0  0  0  0  0  0  0  0  0
   47.5103  -36.6566   -9.9264 N   0  0  0  0  0  0  0  0  0  0  0  0
   46.2281  -37.0912   -9.4556 C   0  0  2  0  0  0  0  0  0  0  0  0
   45.1640  -36.0645   -9.5568 C   0  0  0  0  0  0  0  0  0  0  0  0
   44.0737  -36.2439   -8.8757 O   0  0  0  0  0  0  0  0  0  0  0  0
   46.2436  -37.6365   -8.0315 C   0  0  0  0  0  0  0  0  0  0  0  0
   45.7428  -36.6974   -7.0002 C   0  0  0  0  0  0  0  0  0  0  0  0
   44.6476  -37.4082   -6.1936 C   0  0  0  0  0  0  0  0  0  0  0  0
   44.2425  -36.6284   -4.9735 C   0  0  0  0  0  0  0  0  0  0  0  0
   44.1103  -37.5354   -3.8368 N   0  0  0  0  0  0  0  0  0  0  0  0
   45.1651  -34.8850  -10.3084 N   0  0  0  0  0  0  0  0  0  0  0  0
   46.2271  -34.5453  -11.2690 C   0  0  0  0  0  0  0  0  0  0  0  0
   46.1157  -35.2082  -12.5543 C   0  0  0  0  0  0  0  0  0  0  0  0
   45.2454  -36.2407  -12.7699 C   0  0  0  0  0  0  0  0  0  0  0  0
   45.1607  -36.8732  -14.0015 C   0  0  0  0  0  0  0  0  0  0  0  0
   45.9547  -36.4768  -15.0487 C   0  0  0  0  0  0  0  0  0  0  0  0
   45.8537  -37.1468  -16.3403 C   0  0  0  0  0  0  0  0  0  0  0  0
   46.9358  -37.1370  -17.2470 N   0  0  0  0  0  0  0  0  0  0  0  0
   44.7753  -37.7552  -16.6661 N   0  0  0  0  0  0  0  0  0  0  0  0
   46.8470  -35.4275  -14.8494 C   0  0  0  0  0  0  0  0  0  0  0  0
   46.9072  -34.8233  -13.6215 C   0  0  0  0  0  0  0  0  0  0  0  0
   44.2531  -37.1053   -2.5045 C   0  0  0  0  0  0  0  0  0  0  0  0
   44.7437  -35.7252   -2.1827 C   0  0  0  0  0  0  0  0  0  0  0  0
   44.8737  -35.5744   -0.6984 C   0  0  0  0  0  0  0  0  0  0  0  0
   45.2413  -34.1402   -0.3526 C   0  0  0  0  0  0  0  0  0  0  0  0
   46.1717  -33.5676   -1.3529 C   0  0  0  0  0  0  0  0  0  0  0  0
   43.9634  -37.8940   -1.5696 O   0  0  0  0  0  0  0  0  0  0  0  0
   45.6649  -33.3392   -2.5075 O   0  0  0  0  0  0  0  0  0  0  0  0
   47.5136  -33.2639   -1.1532 N   0  0  0  0  0  0  0  0  0  0  0  0
   51.4111  -33.7543    1.2603 C   0  0  0  0  0  0  0  0  0  0  0  0
   50.0059  -33.6387    1.0741 C   0  0  0  0  0  0  0  0  0  0  0  0
   49.4440  -32.6869    0.2605 C   0  0  0  0  0  0  0  0  0  0  0  0
   50.3258  -31.8526   -0.3677 C   0  0  0  0  0  0  0  0  0  0  0  0
   51.7341  -31.9656   -0.1837 C   0  0  0  0  0  0  0  0  0  0  0  0
   53.7844  -33.0607    0.8481 C   0  0  0  0  0  0  0  0  0  0  0  0
   54.3823  -34.1721    0.0183 C   0  0  0  0  0  0  0  0  0  0  0  0
   54.6461  -35.2277    0.6548 O   0  0  0  0  0  0  0  0  0  0  0  0
   52.2957  -32.9162    0.6327 C   0  0  0  0  0  0  0  0  0  0  0  0
   47.9568  -32.5382    0.0462 C   0  0  0  0  0  0  0  0  0  0  0  0
   53.5455  -41.2443   -8.1820 H   0  0  0  0  0  0  0  0  0  0  0  0
   53.1427  -34.3891  -10.4709 H   0  0  0  0  0  0  0  0  0  0  0  0
   44.0490  -37.9967  -15.9745 H   0  0  0  0  0  0  0  0  0  0  0  0
  2  1  1  6
  3  2  1  0
  2  5  1  0
  3  4  2  0
 10  3  1  0
  5  6  1  0
  6  7  1  0
  7  8  1  0
  8  9  1  0
  9 74  1  0
 11 10  1  0
 12 11  1  0
 11 14  1  1
 12 13  2  0
 21 12  1  0
 14 15  1  0
 15 16  1  0
 16 17  1  0
 17 18  1  0
 18 19  1  0
 18 20  2  0
 22 21  1  0
 23 22  1  0
 22 25  1  6
 23 24  2  0
 32 23  1  0
 25 26  1  0
 26 27  1  0
 27 28  1  0
 28 29  1  0
 29 30  1  0
 29 31  2  0
 33 32  1  1
 33 34  1  0
 38 33  1  0
 34 35  1  1
 34 36  1  0
 34 37  1  0
 38 39  2  0
 40 38  1  0
 41 40  1  0
 41 42  1  1
 44 41  1  0
 42 43  2  0
 42 49  1  0
 45 44  1  0
 46 45  1  0
 47 46  1  0
 48 47  1  0
 60 48  1  0
 49 50  1  0
 50 51  1  0
 51 52  2  0
 51 59  1  0
 52 53  1  0
 53 54  2  0
 54 55  1  0
 58 54  1  0
 55 56  1  0
 55 57  2  0
 59 58  2  0
 61 60  1  0
 60 65  2  0
 62 61  1  0
 63 62  1  0
 64 63  1  0
 64 66  2  0
 67 64  1  0
 77 67  1  0
 69 68  2  0
 68 76  1  0
 70 69  1  0
 70 71  2  0
 70 77  1  0
 71 72  1  0
 72 76  2  0
 74 73  1  0
 73 76  1  0
 74 75  2  0
 20 78  1  0
 31 79  1  0
 57 80  1  0
M  CHG  1   1   1
M  END
$$$$
