
     RDKit          3D

 80 82  0  0  0  0  0  0  0  0999 V2000
   56.0382  -35.6516   -3.3550 N   0  0  0  0  0  4  0  0  0  0  0  0
   55.0247  -35.2086   -4.3282 C   0  0  2  0  0  0  0  0  0  0  0  0
   53.8809  -36.1220   -4.3301 C   0  0  0  0  0  0  0  0  0  0  0  0
   54.1948  -37.3514   -4.6034 O   0  0  0  0  0  0  0  0  0  0  0  0
   55.7101  -35.4096   -5.7014 C   0  0  0  0  0  0  0  0  0  0  0  0
   56.6757  -34.2643   -5.8972 C   0  0  0  0  0  0  0  0  0  0  0  0
   57.8859  -34.7785   -6.6308 C   0  0  0  0  0  0  0  0  0  0  0  0
   59.0595  -33.8050   -6.4870 C   0  0  0  0  0  0  0  0  0  0  0  0
   58.6926  -32.6277   -7.2344 N   0  0  0  0  0  0  0  0  0  0  0  0
   52.5180  -35.8670   -4.0836 N   0  0  0  0  0  0  0  0  0  0  0  0
   51.9244  -34.7718   -3.3662 C   0  0  2  0  0  0  0  0  0  0  0  0
   51.5696  -33.6011   -4.2033 C   0  0  0  0  0  0  0  0  0  0  0  0
   52.5458  -32.9740   -4.7486 O   0  0  0  0  0  0  0  0  0  0  0  0
   52.5347  -34.4264   -2.0527 C   0  0  0  0  0  0  0  0  0  0  0  0
   51.6158  -34.1532   -0.9143 C   0  0  0  0  0  0  0  0  0  0  0  0
   50.8273  -35.3234   -0.4198 C   0  0  0  0  0  0  0  0  0  0  0  0
   51.5814  -36.0383    0.6282 N   0  0  0  0  0  0  0  0  0  0  0  0
   50.9982  -37.1648    1.2504 C   0  0  0  0  0  0  0  0  0  0  0  0
   49.7525  -37.7163    0.8211 N   0  0  0  0  0  0  0  0  0  0  0  0
   51.5988  -37.7279    2.2432 N   0  0  0  0  0  0  0  0  0  0  0  0
   50.2546  -33.1211   -4.4489 N   0  0  0  0  0  0  0  0  0  0  0  0
   49.1692  -33.8751   -5.0208 C   0  0  2  0  0  0  0  0  0  0  0  0
   49.0523  -33.5798   -6.4936 C   0  0  0  0  0  0  0  0  0  0  0  0
   50.0333  -32.9011   -6.9847 O   0  0  0  0  0  0  0  0  0  0  0  0
   47.8870  -33.5681   -4.3163 C   0  0  0  0  0  0  0  0  0  0  0  0
   47.9256  -33.3281   -2.8658 C   0  0  0  0  0  0  0  0  0  0  0  0
   49.0722  -32.5565   -2.2998 C   0  0  0  0  0  0  0  0  0  0  0  0
   49.3015  -32.8733   -0.8946 N   0  0  0  0  0  0  0  0  0  0  0  0
   50.2816  -32.1593   -0.1636 C   0  0  0  0  0  0  0  0  0  0  0  0
   50.3961  -30.7495   -0.2934 N   0  0  0  0  0  0  0  0  0  0  0  0
   51.0721  -32.8371    0.6316 N   0  0  0  0  0  0  0  0  0  0  0  0
   47.9953  -33.9762   -7.3263 N   0  0  0  0  0  0  0  0  0  0  0  0
   47.4815  -35.3125   -7.5300 C   0  0  1  0  0  0  0  0  0  0  0  0
   46.1086  -35.2113   -8.0968 C   0  0  1  0  0  0  0  0  0  0  0  0
   46.3092  -35.1022   -9.6274 C   0  0  0  0  0  0  0  0  0  0  0  0
   45.2931  -36.4954   -7.9592 C   0  0  0  0  0  0  0  0  0  0  0  0
   45.3461  -33.9785   -7.7315 C   0  0  0  0  0  0  0  0  0  0  0  0
   48.4645  -36.1410   -8.2454 C   0  0  0  0  0  0  0  0  0  0  0  0
   49.6541  -35.9430   -7.7667 O   0  0  0  0  0  0  0  0  0  0  0  0
   48.3393  -37.0544   -9.2898 N   0  0  0  0  0  0  0  0  0  0  0  0
   47.9322  -36.8751  -10.6524 C   0  0  2  0  0  0  0  0  0  0  0  0
   48.0607  -38.0914  -11.4897 C   0  0  0  0  0  0  0  0  0  0  0  0
   49.1172  -38.2133  -12.2337 O   0  0  0  0  0  0  0  0  0  0  0  0
   48.6327  -35.7207  -11.3612 C   0  0  0  0  0  0  0  0  0  0  0  0
   49.7313  -36.1239  -12.2705 C   0  0  0  0  0  0  0  0  0  0  0  0
   49.4721  -35.4951  -13.6463 C   0  0  0  0  0  0  0  0  0  0  0  0
   50.6479  -35.6453  -14.5714 C   0  0  0  0  0  0  0  0  0  0  0  0
   50.8743  -34.3889  -15.2801 N   0  0  0  0  0  0  0  0  0  0  0  0
   47.1746  -39.1681  -11.5974 N   0  0  0  0  0  0  0  0  0  0  0  0
   45.7142  -39.0208  -11.4891 C   0  0  0  0  0  0  0  0  0  0  0  0
   45.1571  -39.4314  -10.2144 C   0  0  0  0  0  0  0  0  0  0  0  0
   45.6292  -40.5150   -9.5267 C   0  0  0  0  0  0  0  0  0  0  0  0
   45.0764  -40.9027   -8.3150 C   0  0  0  0  0  0  0  0  0  0  0  0
   44.0305  -40.2032   -7.7664 C   0  0  0  0  0  0  0  0  0  0  0  0
   43.4601  -40.6179   -6.4897 C   0  0  0  0  0  0  0  0  0  0  0  0
   42.1925  -40.1522   -6.0782 N   0  0  0  0  0  0  0  0  0  0  0  0
   44.1080  -41.4147   -5.7250 N   0  0  0  0  0  0  0  0  0  0  0  0
   43.5357  -39.0970   -8.4509 C   0  0  0  0  0  0  0  0  0  0  0  0
   44.1030  -38.7395   -9.6455 C   0  0  0  0  0  0  0  0  0  0  0  0
   52.1322  -34.0273  -15.7972 C   0  0  0  0  0  0  0  0  0  0  0  0
   53.3610  -34.8257  -15.4787 C   0  0  0  0  0  0  0  0  0  0  0  0
   54.5579  -34.1671  -16.0920 C   0  0  0  0  0  0  0  0  0  0  0  0
   55.7890  -35.0362  -15.8902 C   0  0  0  0  0  0  0  0  0  0  0  0
   55.7661  -35.7019  -14.5672 C   0  0  0  0  0  0  0  0  0  0  0  0
   52.2244  -33.0168  -16.5390 O   0  0  0  0  0  0  0  0  0  0  0  0
   54.8846  -36.6218  -14.4300 O   0  0  0  0  0  0  0  0  0  0  0  0
   56.5970  -35.4226  -13.4882 N   0  0  0  0  0  0  0  0  0  0  0  0
   59.5097  -32.5903  -11.3086 C   0  0  0  0  0  0  0  0  0  0  0  0
   58.9113  -33.2214  -12.4340 C   0  0  0  0  0  0  0  0  0  0  0  0
   58.6783  -34.5729  -12.4862 C   0  0  0  0  0  0  0  0  0  0  0  0
   59.0566  -35.2800  -11.3792 C   0  0  0  0  0  0  0  0  0  0  0  0
   59.6560  -34.6511  -10.2500 C   0  0  0  0  0  0  0  0  0  0  0  0
   60.5255  -32.6039   -9.0170 C   0  0  0  0  0  0  0  0  0  0  0  0
   59.5059  -31.9307   -8.1290 C   0  0  0  0  0  0  0  0  0  0  0  0
   59.4383  -30.6780   -8.2524 O   0  0  0  0  0  0  0  0  0  0  0  0
   59.8916  -33.2993  -10.1994 C   0  0  0  0  0  0  0  0  0  0  0  0
   58.0484  -35.2707  -13.6676 C   0  0  0  0  0  0  0  0  0  0  0  0
   52.4138  -37.2815    2.7331 H   0  0  0  0  0  0  0  0  0  0  0  0
   51.9210  -33.3015    0.2049 H   0  0  0  0  0  0  0  0  0  0  0  0
   44.2201  -42.4168   -5.9424 H   0  0  0  0  0  0  0  0  0  0  0  0
  2  1  1  1
  3  2  1  0
  2  5  1  0
  3  4  2  0
 10  3  1  0
  5  6  1  0
  6  7  1  0
  7  8  1  0
  8  9  1  0
  9 74  1  0
 11 10  1  0
 12 11  1  0
 11 14  1  1
 12 13  2  0
 21 12  1  0
 14 15  1  0
 15 16  1  0
 16 17  1  0
 17 18  1  0
 18 19  1  0
 18 20  2  0
 22 21  1  0
 23 22  1  0
 22 25  1  1
 23 24  2  0
 32 23  1  0
 25 26  1  0
 26 27  1  0
 27 28  1  0
 28 29  1  0
 29 30  1  0
 29 31  2  0
 33 32  1  6
 33 34  1  0
 38 33  1  0
 34 35  1  6
 34 36  1  0
 34 37  1  0
 38 39  2  0
 40 38  1  0
 41 40  1  0
 41 42  1  6
 44 41  1  0
 42 43  2  0
 42 49  1  0
 45 44  1  0
 46 45  1  0
 47 46  1  0
 48 47  1  0
 60 48  1  0
 49 50  1  0
 50 51  1  0
 51 52  2  0
 51 59  1  0
 52 53  1  0
 53 54  2  0
 54 55  1  0
 58 54  1  0
 55 56  1  0
 55 57  2  0
 59 58  2  0
 61 60  1  0
 60 65  2  0
 62 61  1  0
 63 62  1  0
 64 63  1  0
 64 66  2  0
 67 64  1  0
 77 67  1  0
 69 68  2  0
 68 76  1  0
 70 69  1  0
 70 71  2  0
 70 77  1  0
 71 72  1  0
 72 76  2  0
 74 73  1  0
 73 76  1  0
 74 75  2  0
 20 78  1  0
 31 79  1  0
 57 80  1  0
M  CHG  1   1   1
M  END
$$$$
