
     RDKit          3D

 80 82  0  0  0  0  0  0  0  0999 V2000
   56.9976  -31.8695   -4.4538 N   0  0  0  0  0  4  0  0  0  0  0  0
   56.0696  -32.8621   -5.0230 C   0  0  2  0  0  0  0  0  0  0  0  0
   55.4424  -32.3409   -6.2385 C   0  0  0  0  0  0  0  0  0  0  0  0
   54.7896  -31.2341   -6.0560 O   0  0  0  0  0  0  0  0  0  0  0  0
   54.9288  -32.9502   -3.9804 C   0  0  0  0  0  0  0  0  0  0  0  0
   55.4297  -33.7941   -2.8318 C   0  0  0  0  0  0  0  0  0  0  0  0
   54.8573  -33.2474   -1.5509 C   0  0  0  0  0  0  0  0  0  0  0  0
   55.6412  -33.7683   -0.3426 C   0  0  0  0  0  0  0  0  0  0  0  0
   55.3533  -35.1788   -0.2606 N   0  0  0  0  0  0  0  0  0  0  0  0
   55.4440  -32.8543   -7.5499 N   0  0  0  0  0  0  0  0  0  0  0  0
   56.3740  -33.7678   -8.1558 C   0  0  2  0  0  0  0  0  0  0  0  0
   56.0064  -35.1987   -8.0353 C   0  0  0  0  0  0  0  0  0  0  0  0
   55.9952  -35.6859   -6.8495 O   0  0  0  0  0  0  0  0  0  0  0  0
   57.8205  -33.4844   -7.9448 C   0  0  0  0  0  0  0  0  0  0  0  0
   58.2507  -32.0597   -7.9315 C   0  0  0  0  0  0  0  0  0  0  0  0
   58.5946  -31.4967   -6.5898 C   0  0  0  0  0  0  0  0  0  0  0  0
   57.3659  -31.1029   -5.8734 N   0  0  0  0  0  0  0  0  0  0  0  0
   57.4660  -30.6042   -4.5553 C   0  0  0  0  0  0  0  0  0  0  0  0
   58.7194  -30.4568   -3.8864 N   0  0  0  0  0  0  0  0  0  0  0  0
   56.3971  -30.2646   -3.9184 N   0  0  0  0  0  0  0  0  0  0  0  0
   55.6698  -36.0653   -9.1103 N   0  0  0  0  0  0  0  0  0  0  0  0
   54.6119  -35.8609  -10.0655 C   0  0  2  0  0  0  0  0  0  0  0  0
   53.3904  -36.6453   -9.6620 C   0  0  0  0  0  0  0  0  0  0  0  0
   53.4489  -37.1601   -8.4805 O   0  0  0  0  0  0  0  0  0  0  0  0
   55.0602  -36.2488  -11.4378 C   0  0  0  0  0  0  0  0  0  0  0  0
   56.4131  -35.8636  -11.8669 C   0  0  0  0  0  0  0  0  0  0  0  0
   56.7832  -36.0367  -13.3034 C   0  0  0  0  0  0  0  0  0  0  0  0
   57.5127  -37.2788  -13.5324 N   0  0  0  0  0  0  0  0  0  0  0  0
   58.8810  -37.3661  -13.1793 C   0  0  0  0  0  0  0  0  0  0  0  0
   59.5907  -38.5871  -13.3314 N   0  0  0  0  0  0  0  0  0  0  0  0
   59.4665  -36.2910  -12.7126 N   0  0  0  0  0  0  0  0  0  0  0  0
   52.2475  -36.8432  -10.4510 N   0  0  0  0  0  0  0  0  0  0  0  0
   51.4216  -35.8375  -11.0815 C   0  0  1  0  0  0  0  0  0  0  0  0
   50.6370  -36.4826  -12.1699 C   0  0  1  0  0  0  0  0  0  0  0  0
   51.4395  -36.2092  -13.4646 C   0  0  0  0  0  0  0  0  0  0  0  0
   50.6305  -38.0083  -12.0988 C   0  0  0  0  0  0  0  0  0  0  0  0
   49.2894  -35.8922  -12.4345 C   0  0  0  0  0  0  0  0  0  0  0  0
   50.6891  -35.0609  -10.0692 C   0  0  0  0  0  0  0  0  0  0  0  0
   51.4700  -34.7648   -9.0764 O   0  0  0  0  0  0  0  0  0  0  0  0
   49.3720  -34.6117  -10.0029 N   0  0  0  0  0  0  0  0  0  0  0  0
   48.1353  -35.3322   -9.9242 C   0  0  2  0  0  0  0  0  0  0  0  0
   46.9427  -34.4728   -9.7348 C   0  0  0  0  0  0  0  0  0  0  0  0
   47.0008  -33.5340   -8.8403 O   0  0  0  0  0  0  0  0  0  0  0  0
   48.1216  -36.4244   -8.8599 C   0  0  0  0  0  0  0  0  0  0  0  0
   47.4105  -36.0660   -7.6101 C   0  0  0  0  0  0  0  0  0  0  0  0
   46.3731  -37.1584   -7.3168 C   0  0  0  0  0  0  0  0  0  0  0  0
   45.7654  -37.0138   -5.9491 C   0  0  0  0  0  0  0  0  0  0  0  0
   45.6812  -38.3249   -5.3118 N   0  0  0  0  0  0  0  0  0  0  0  0
   45.7174  -34.5288  -10.4066 N   0  0  0  0  0  0  0  0  0  0  0  0
   45.4718  -35.4123  -11.5577 C   0  0  0  0  0  0  0  0  0  0  0  0
   44.5408  -36.4949  -11.3025 C   0  0  0  0  0  0  0  0  0  0  0  0
   44.1266  -37.3486  -12.2870 C   0  0  0  0  0  0  0  0  0  0  0  0
   43.2250  -38.3708  -12.0292 C   0  0  0  0  0  0  0  0  0  0  0  0
   42.7187  -38.5566  -10.7670 C   0  0  0  0  0  0  0  0  0  0  0  0
   41.7745  -39.6375  -10.5072 C   0  0  0  0  0  0  0  0  0  0  0  0
   41.6426  -40.7154  -11.4093 N   0  0  0  0  0  0  0  0  0  0  0  0
   41.0518  -39.6192   -9.4505 N   0  0  0  0  0  0  0  0  0  0  0  0
   43.1281  -37.6981   -9.7510 C   0  0  0  0  0  0  0  0  0  0  0  0
   44.0195  -36.6981  -10.0373 C   0  0  0  0  0  0  0  0  0  0  0  0
   45.6566  -38.4871   -3.9142 C   0  0  0  0  0  0  0  0  0  0  0  0
   45.9128  -37.3311   -2.9939 C   0  0  0  0  0  0  0  0  0  0  0  0
   45.9050  -37.8103   -1.5751 C   0  0  0  0  0  0  0  0  0  0  0  0
   46.0302  -36.6282   -0.6272 C   0  0  0  0  0  0  0  0  0  0  0  0
   46.9403  -35.5951   -1.1736 C   0  0  0  0  0  0  0  0  0  0  0  0
   45.4152  -39.6222   -3.4313 O   0  0  0  0  0  0  0  0  0  0  0  0
   46.4955  -34.9521   -2.1888 O   0  0  0  0  0  0  0  0  0  0  0  0
   48.2036  -35.2702   -0.6927 N   0  0  0  0  0  0  0  0  0  0  0  0
   51.9342  -36.3386    1.7968 C   0  0  0  0  0  0  0  0  0  0  0  0
   50.5457  -36.2980    1.4916 C   0  0  0  0  0  0  0  0  0  0  0  0
   49.9140  -35.1536    1.0733 C   0  0  0  0  0  0  0  0  0  0  0  0
   50.7092  -34.0472    0.9637 C   0  0  0  0  0  0  0  0  0  0  0  0
   52.1005  -34.0842    1.2683 C   0  0  0  0  0  0  0  0  0  0  0  0
   54.2043  -35.2992    2.0204 C   0  0  0  0  0  0  0  0  0  0  0  0
   55.0209  -35.8880    0.8945 C   0  0  0  0  0  0  0  0  0  0  0  0
   55.3874  -37.0811    1.0713 O   0  0  0  0  0  0  0  0  0  0  0  0
   52.7314  -35.2287    1.6897 C   0  0  0  0  0  0  0  0  0  0  0  0
   48.4421  -35.0796    0.7456 C   0  0  0  0  0  0  0  0  0  0  0  0
   55.7180  -29.5582   -4.2972 H   0  0  0  0  0  0  0  0  0  0  0  0
   58.8701  -35.4311  -12.5599 H   0  0  0  0  0  0  0  0  0  0  0  0
   40.2181  -40.2173   -9.3434 H   0  0  0  0  0  0  0  0  0  0  0  0
  2  1  1  1
  3  2  1  0
  2  5  1  0
  3  4  2  0
 10  3  1  0
  5  6  1  0
  6  7  1  0
  7  8  1  0
  8  9  1  0
  9 74  1  0
 11 10  1  0
 12 11  1  0
 11 14  1  1
 12 13  2  0
 21 12  1  0
 14 15  1  0
 15 16  1  0
 16 17  1  0
 17 18  1  0
 18 19  1  0
 18 20  2  0
 22 21  1  0
 23 22  1  0
 22 25  1  6
 23 24  2  0
 32 23  1  0
 25 26  1  0
 26 27  1  0
 27 28  1  0
 28 29  1  0
 29 30  1  0
 29 31  2  0
 33 32  1  1
 33 34  1  0
 38 33  1  0
 34 35  1  6
 34 36  1  0
 34 37  1  0
 38 39  2  0
 40 38  1  0
 41 40  1  0
 41 42  1  1
 44 41  1  0
 42 43  2  0
 42 49  1  0
 45 44  1  0
 46 45  1  0
 47 46  1  0
 48 47  1  0
 60 48  1  0
 49 50  1  0
 50 51  1  0
 51 52  2  0
 51 59  1  0
 52 53  1  0
 53 54  2  0
 54 55  1  0
 58 54  1  0
 55 56  1  0
 55 57  2  0
 59 58  2  0
 61 60  1  0
 60 65  2  0
 62 61  1  0
 63 62  1  0
 64 63  1  0
 64 66  2  0
 67 64  1  0
 77 67  1  0
 69 68  2  0
 68 76  1  0
 70 69  1  0
 70 71  2  0
 70 77  1  0
 71 72  1  0
 72 76  2  0
 74 73  1  0
 73 76  1  0
 74 75  2  0
 20 78  1  0
 31 79  1  0
 57 80  1  0
M  CHG  1   1   1
M  END
$$$$
