
     RDKit          3D

 80 82  0  0  0  0  0  0  0  0999 V2000
   53.9631  -36.5915   -0.4360 N   0  0  0  0  0  4  0  0  0  0  0  0
   53.3625  -36.0307   -1.6589 C   0  0  2  0  0  0  0  0  0  0  0  0
   52.5415  -37.0359   -2.3354 C   0  0  0  0  0  0  0  0  0  0  0  0
   53.1934  -38.1102   -2.6603 O   0  0  0  0  0  0  0  0  0  0  0  0
   54.5716  -35.7931   -2.5957 C   0  0  0  0  0  0  0  0  0  0  0  0
   55.2651  -34.5345   -2.1293 C   0  0  0  0  0  0  0  0  0  0  0  0
   56.7480  -34.7029   -2.3292 C   0  0  0  0  0  0  0  0  0  0  0  0
   57.5253  -33.6730   -1.5041 C   0  0  0  0  0  0  0  0  0  0  0  0
   57.2513  -32.3923   -2.1075 N   0  0  0  0  0  0  0  0  0  0  0  0
   51.1757  -37.0084   -2.6779 N   0  0  0  0  0  0  0  0  0  0  0  0
   50.1236  -36.2087   -2.1121 C   0  0  2  0  0  0  0  0  0  0  0  0
   49.8982  -34.9100   -2.7901 C   0  0  0  0  0  0  0  0  0  0  0  0
   50.8533  -34.0577   -2.7203 O   0  0  0  0  0  0  0  0  0  0  0  0
   50.0596  -36.1460   -0.6258 C   0  0  0  0  0  0  0  0  0  0  0  0
   48.9832  -35.3196   -0.0148 C   0  0  0  0  0  0  0  0  0  0  0  0
   48.7232  -34.0018   -0.6714 C   0  0  0  0  0  0  0  0  0  0  0  0
   47.2891  -33.6643   -0.5842 N   0  0  0  0  0  0  0  0  0  0  0  0
   46.7263  -32.7926   -1.5432 C   0  0  0  0  0  0  0  0  0  0  0  0
   45.3518  -32.8613   -1.9259 N   0  0  0  0  0  0  0  0  0  0  0  0
   47.4658  -31.8964   -2.1029 N   0  0  0  0  0  0  0  0  0  0  0  0
   48.7267  -34.5347   -3.5019 N   0  0  0  0  0  0  0  0  0  0  0  0
   48.1547  -35.2338   -4.6232 C   0  0  2  0  0  0  0  0  0  0  0  0
   48.5853  -34.5850   -5.9131 C   0  0  0  0  0  0  0  0  0  0  0  0
   49.5117  -33.6966   -5.7842 O   0  0  0  0  0  0  0  0  0  0  0  0
   46.6638  -35.2650   -4.5187 C   0  0  0  0  0  0  0  0  0  0  0  0
   46.0603  -35.6722   -3.2408 C   0  0  0  0  0  0  0  0  0  0  0  0
   46.1392  -37.1085   -2.8392 C   0  0  0  0  0  0  0  0  0  0  0  0
   44.9695  -37.5255   -2.0742 N   0  0  0  0  0  0  0  0  0  0  0  0
   43.6883  -37.0354   -2.4252 C   0  0  0  0  0  0  0  0  0  0  0  0
   42.5218  -37.7970   -2.1481 N   0  0  0  0  0  0  0  0  0  0  0  0
   43.6153  -35.8644   -3.0082 N   0  0  0  0  0  0  0  0  0  0  0  0
   48.0680  -34.8707   -7.1854 N   0  0  0  0  0  0  0  0  0  0  0  0
   47.9789  -36.1588   -7.8364 C   0  0  1  0  0  0  0  0  0  0  0  0
   46.9670  -36.0710   -8.9248 C   0  0  1  0  0  0  0  0  0  0  0  0
   46.6323  -37.5380   -9.2862 C   0  0  0  0  0  0  0  0  0  0  0  0
   45.6168  -35.5261   -8.4633 C   0  0  0  0  0  0  0  0  0  0  0  0
   47.4455  -35.4705  -10.2074 C   0  0  0  0  0  0  0  0  0  0  0  0
   49.3194  -36.6591   -8.1786 C   0  0  0  0  0  0  0  0  0  0  0  0
   50.1404  -36.4579   -7.1943 O   0  0  0  0  0  0  0  0  0  0  0  0
   49.8265  -37.2814   -9.3172 N   0  0  0  0  0  0  0  0  0  0  0  0
   49.9792  -36.8050  -10.6605 C   0  0  2  0  0  0  0  0  0  0  0  0
   50.6923  -37.7426  -11.5600 C   0  0  0  0  0  0  0  0  0  0  0  0
   51.8275  -38.2294  -11.1611 O   0  0  0  0  0  0  0  0  0  0  0  0
   50.6432  -35.4358  -10.7602 C   0  0  0  0  0  0  0  0  0  0  0  0
   52.0744  -35.4649  -11.1435 C   0  0  0  0  0  0  0  0  0  0  0  0
   52.2681  -34.5370  -12.3506 C   0  0  0  0  0  0  0  0  0  0  0  0
   53.7204  -34.3105  -12.6672 C   0  0  0  0  0  0  0  0  0  0  0  0
   53.9412  -32.8969  -12.9588 N   0  0  0  0  0  0  0  0  0  0  0  0
   50.3037  -38.1965  -12.8245 N   0  0  0  0  0  0  0  0  0  0  0  0
   49.0210  -37.8346  -13.4490 C   0  0  0  0  0  0  0  0  0  0  0  0
   47.8885  -38.6267  -13.0090 C   0  0  0  0  0  0  0  0  0  0  0  0
   46.5962  -38.2358  -13.2258 C   0  0  0  0  0  0  0  0  0  0  0  0
   45.5239  -38.9983  -12.7865 C   0  0  0  0  0  0  0  0  0  0  0  0
   45.7312  -40.1780  -12.1162 C   0  0  0  0  0  0  0  0  0  0  0  0
   44.5958  -40.9734  -11.6628 C   0  0  0  0  0  0  0  0  0  0  0  0
   43.3002  -40.7417  -12.1736 N   0  0  0  0  0  0  0  0  0  0  0  0
   44.7647  -41.8964  -10.7917 N   0  0  0  0  0  0  0  0  0  0  0  0
   47.0394  -40.5935  -11.8858 C   0  0  0  0  0  0  0  0  0  0  0  0
   48.0769  -39.8182  -12.3319 C   0  0  0  0  0  0  0  0  0  0  0  0
   55.1919  -32.2749  -12.7876 C   0  0  0  0  0  0  0  0  0  0  0  0
   56.3251  -32.9844  -12.1083 C   0  0  0  0  0  0  0  0  0  0  0  0
   57.4974  -32.0594  -11.9944 C   0  0  0  0  0  0  0  0  0  0  0  0
   58.6950  -32.8064  -11.4294 C   0  0  0  0  0  0  0  0  0  0  0  0
   58.2799  -33.7881  -10.4008 C   0  0  0  0  0  0  0  0  0  0  0  0
   55.3593  -31.1039  -13.2126 O   0  0  0  0  0  0  0  0  0  0  0  0
   57.6369  -34.8058  -10.8400 O   0  0  0  0  0  0  0  0  0  0  0  0
   58.5213  -33.7037   -9.0342 N   0  0  0  0  0  0  0  0  0  0  0  0
   59.6221  -31.2167   -5.3114 C   0  0  0  0  0  0  0  0  0  0  0  0
   59.6814  -31.6007   -6.6795 C   0  0  0  0  0  0  0  0  0  0  0  0
   59.7836  -32.9108   -7.0758 C   0  0  0  0  0  0  0  0  0  0  0  0
   59.8215  -33.8312   -6.0660 C   0  0  0  0  0  0  0  0  0  0  0  0
   59.7622  -33.4503   -4.6944 C   0  0  0  0  0  0  0  0  0  0  0  0
   59.5984  -31.7043   -2.8527 C   0  0  0  0  0  0  0  0  0  0  0  0
   58.1884  -31.4015   -2.4036 C   0  0  0  0  0  0  0  0  0  0  0  0
   57.9113  -30.1751   -2.3130 O   0  0  0  0  0  0  0  0  0  0  0  0
   59.6629  -32.1393   -4.2984 C   0  0  0  0  0  0  0  0  0  0  0  0
   59.8517  -33.3479   -8.5193 C   0  0  0  0  0  0  0  0  0  0  0  0
   48.5152  -31.9345   -2.0719 H   0  0  0  0  0  0  0  0  0  0  0  0
   44.4968  -35.2823   -3.0584 H   0  0  0  0  0  0  0  0  0  0  0  0
   45.6817  -42.0824  -10.3575 H   0  0  0  0  0  0  0  0  0  0  0  0
  2  1  1  1
  3  2  1  0
  2  5  1  0
  3  4  2  0
 10  3  1  0
  5  6  1  0
  6  7  1  0
  7  8  1  0
  8  9  1  0
  9 74  1  0
 11 10  1  0
 12 11  1  0
 11 14  1  1
 12 13  2  0
 21 12  1  0
 14 15  1  0
 15 16  1  0
 16 17  1  0
 17 18  1  0
 18 19  1  0
 18 20  2  0
 22 21  1  0
 23 22  1  0
 22 25  1  1
 23 24  2  0
 32 23  1  0
 25 26  1  0
 26 27  1  0
 27 28  1  0
 28 29  1  0
 29 30  1  0
 29 31  2  0
 33 32  1  6
 33 34  1  0
 38 33  1  0
 34 35  1  6
 34 36  1  0
 34 37  1  0
 38 39  2  0
 40 38  1  0
 41 40  1  0
 41 42  1  6
 44 41  1  0
 42 43  2  0
 42 49  1  0
 45 44  1  0
 46 45  1  0
 47 46  1  0
 48 47  1  0
 60 48  1  0
 49 50  1  0
 50 51  1  0
 51 52  2  0
 51 59  1  0
 52 53  1  0
 53 54  2  0
 54 55  1  0
 58 54  1  0
 55 56  1  0
 55 57  2  0
 59 58  2  0
 61 60  1  0
 60 65  2  0
 62 61  1  0
 63 62  1  0
 64 63  1  0
 64 66  2  0
 67 64  1  0
 77 67  1  0
 69 68  2  0
 68 76  1  0
 70 69  1  0
 70 71  2  0
 70 77  1  0
 71 72  1  0
 72 76  2  0
 74 73  1  0
 73 76  1  0
 74 75  2  0
 20 78  1  0
 31 79  1  0
 57 80  1  0
M  CHG  1   1   1
M  END
$$$$
