
     RDKit          3D

 80 82  0  0  0  0  0  0  0  0999 V2000
   55.6198  -36.0018   -2.8441 N   0  0  0  0  0  4  0  0  0  0  0  0
   54.7694  -35.5596   -3.9629 C   0  0  2  0  0  0  0  0  0  0  0  0
   53.4173  -36.1033   -3.8262 C   0  0  0  0  0  0  0  0  0  0  0  0
   53.3783  -37.3996   -3.7755 O   0  0  0  0  0  0  0  0  0  0  0  0
   55.3732  -36.2721   -5.1974 C   0  0  0  0  0  0  0  0  0  0  0  0
   56.6185  -35.5140   -5.5933 C   0  0  0  0  0  0  0  0  0  0  0  0
   57.6393  -36.4997   -6.0969 C   0  0  0  0  0  0  0  0  0  0  0  0
   59.0367  -35.8728   -6.1085 C   0  0  0  0  0  0  0  0  0  0  0  0
   59.0109  -34.8645   -7.1390 N   0  0  0  0  0  0  0  0  0  0  0  0
   52.1783  -35.4389   -3.7432 N   0  0  0  0  0  0  0  0  0  0  0  0
   51.9111  -34.0820   -3.3511 C   0  0  2  0  0  0  0  0  0  0  0  0
   51.8952  -33.1055   -4.4661 C   0  0  0  0  0  0  0  0  0  0  0  0
   53.0073  -32.9194   -5.0762 O   0  0  0  0  0  0  0  0  0  0  0  0
   52.5923  -33.5976   -2.1189 C   0  0  0  0  0  0  0  0  0  0  0  0
   51.7487  -32.9766   -1.0617 C   0  0  0  0  0  0  0  0  0  0  0  0
   50.3773  -33.5508   -0.9032 C   0  0  0  0  0  0  0  0  0  0  0  0
   49.8266  -33.1947    0.4188 N   0  0  0  0  0  0  0  0  0  0  0  0
   48.4378  -33.3235    0.6447 C   0  0  0  0  0  0  0  0  0  0  0  0
   47.5077  -32.2972    0.2957 N   0  0  0  0  0  0  0  0  0  0  0  0
   47.9761  -34.4000    1.1844 N   0  0  0  0  0  0  0  0  0  0  0  0
   50.7649  -32.3670   -4.9101 N   0  0  0  0  0  0  0  0  0  0  0  0
   49.5135  -32.9197   -5.3594 C   0  0  2  0  0  0  0  0  0  0  0  0
   49.4840  -32.9799   -6.8646 C   0  0  0  0  0  0  0  0  0  0  0  0
   50.6150  -32.7336   -7.4341 O   0  0  0  0  0  0  0  0  0  0  0  0
   48.3661  -32.1148   -4.8395 C   0  0  0  0  0  0  0  0  0  0  0  0
   48.3928  -31.6855   -3.4332 C   0  0  0  0  0  0  0  0  0  0  0  0
   49.1118  -32.5378   -2.4397 C   0  0  0  0  0  0  0  0  0  0  0  0
   48.2180  -33.0343   -1.3995 N   0  0  0  0  0  0  0  0  0  0  0  0
   48.0575  -32.2989   -0.2003 C   0  0  0  0  0  0  0  0  0  0  0  0
   46.9113  -31.4843    0.0007 N   0  0  0  0  0  0  0  0  0  0  0  0
   48.9935  -32.3954    0.7114 N   0  0  0  0  0  0  0  0  0  0  0  0
   48.3590  -33.2722   -7.6500 N   0  0  0  0  0  0  0  0  0  0  0  0
   47.4952  -34.4287   -7.5640 C   0  0  1  0  0  0  0  0  0  0  0  0
   46.2044  -34.1071   -8.2326 C   0  0  1  0  0  0  0  0  0  0  0  0
   45.1977  -33.8758   -7.0803 C   0  0  0  0  0  0  0  0  0  0  0  0
   46.2052  -32.7582   -8.9491 C   0  0  0  0  0  0  0  0  0  0  0  0
   45.6004  -35.2108   -9.0400 C   0  0  0  0  0  0  0  0  0  0  0  0
   48.2105  -35.6414   -7.9907 C   0  0  0  0  0  0  0  0  0  0  0  0
   49.4080  -35.6573   -7.4916 O   0  0  0  0  0  0  0  0  0  0  0  0
   47.8377  -36.7177   -8.7929 N   0  0  0  0  0  0  0  0  0  0  0  0
   47.4971  -36.7805  -10.1838 C   0  0  2  0  0  0  0  0  0  0  0  0
   47.2840  -38.1551  -10.6954 C   0  0  0  0  0  0  0  0  0  0  0  0
   48.2680  -38.7397  -11.3076 O   0  0  0  0  0  0  0  0  0  0  0  0
   48.4906  -36.0703  -11.0973 C   0  0  0  0  0  0  0  0  0  0  0  0
   49.4350  -36.9664  -11.8053 C   0  0  0  0  0  0  0  0  0  0  0  0
   49.3612  -36.6539  -13.3061 C   0  0  0  0  0  0  0  0  0  0  0  0
   50.4499  -37.3392  -14.0844 C   0  0  0  0  0  0  0  0  0  0  0  0
   51.0161  -36.4068  -15.0552 N   0  0  0  0  0  0  0  0  0  0  0  0
   46.1321  -38.9438  -10.6100 N   0  0  0  0  0  0  0  0  0  0  0  0
   44.8507  -38.4408  -10.0895 C   0  0  0  0  0  0  0  0  0  0  0  0
   44.4368  -39.0275   -8.8292 C   0  0  0  0  0  0  0  0  0  0  0  0
   44.8705  -38.5489   -7.6240 C   0  0  0  0  0  0  0  0  0  0  0  0
   44.4759  -39.1300   -6.4279 C   0  0  0  0  0  0  0  0  0  0  0  0
   43.6308  -40.2116   -6.4197 C   0  0  0  0  0  0  0  0  0  0  0  0
   43.2196  -40.8116   -5.1555 C   0  0  0  0  0  0  0  0  0  0  0  0
   42.4206  -41.9753   -5.1331 N   0  0  0  0  0  0  0  0  0  0  0  0
   43.5826  -40.2853   -4.0462 N   0  0  0  0  0  0  0  0  0  0  0  0
   43.1781  -40.7136   -7.6362 C   0  0  0  0  0  0  0  0  0  0  0  0
   43.5859  -40.1178   -8.8004 C   0  0  0  0  0  0  0  0  0  0  0  0
   52.3253  -36.5364  -15.5548 C   0  0  0  0  0  0  0  0  0  0  0  0
   53.2844  -37.5300  -14.9702 C   0  0  0  0  0  0  0  0  0  0  0  0
   54.6174  -37.3907  -15.6383 C   0  0  0  0  0  0  0  0  0  0  0  0
   55.5592  -38.4797  -15.1497 C   0  0  0  0  0  0  0  0  0  0  0  0
   55.3518  -38.7641  -13.7109 C   0  0  0  0  0  0  0  0  0  0  0  0
   52.6945  -35.8052  -16.5082 O   0  0  0  0  0  0  0  0  0  0  0  0
   54.2498  -39.3496  -13.4197 O   0  0  0  0  0  0  0  0  0  0  0  0
   56.2269  -38.4588  -12.6747 N   0  0  0  0  0  0  0  0  0  0  0  0
   59.8091  -36.0622  -11.0373 C   0  0  0  0  0  0  0  0  0  0  0  0
   59.0600  -36.7689  -12.0182 C   0  0  0  0  0  0  0  0  0  0  0  0
   58.4615  -37.9772  -11.7623 C   0  0  0  0  0  0  0  0  0  0  0  0
   58.6282  -38.4614  -10.4950 C   0  0  0  0  0  0  0  0  0  0  0  0
   59.3777  -37.7561   -9.5097 C   0  0  0  0  0  0  0  0  0  0  0  0
   60.7798  -35.7775   -8.7438 C   0  0  0  0  0  0  0  0  0  0  0  0
   59.9862  -34.6565   -8.1154 C   0  0  0  0  0  0  0  0  0  0  0  0
   60.2685  -33.5032   -8.5387 O   0  0  0  0  0  0  0  0  0  0  0  0
   59.9787  -36.5487   -9.7671 C   0  0  0  0  0  0  0  0  0  0  0  0
   57.6636  -38.7514  -12.7838 C   0  0  0  0  0  0  0  0  0  0  0  0
   48.4920  -35.3143    1.1445 H   0  0  0  0  0  0  0  0  0  0  0  0
   49.2516  -31.5216    1.2482 H   0  0  0  0  0  0  0  0  0  0  0  0
   43.3593  -40.7135   -3.1346 H   0  0  0  0  0  0  0  0  0  0  0  0
  2  1  1  1
  3  2  1  0
  2  5  1  0
  3  4  2  0
 10  3  1  0
  5  6  1  0
  6  7  1  0
  7  8  1  0
  8  9  1  0
  9 74  1  0
 11 10  1  0
 12 11  1  0
 11 14  1  1
 12 13  2  0
 21 12  1  0
 14 15  1  0
 15 16  1  0
 16 17  1  0
 17 18  1  0
 18 19  1  0
 18 20  2  0
 22 21  1  0
 23 22  1  0
 22 25  1  6
 23 24  2  0
 32 23  1  0
 25 26  1  0
 26 27  1  0
 27 28  1  0
 28 29  1  0
 29 30  1  0
 29 31  2  0
 33 32  1  6
 33 34  1  0
 38 33  1  0
 34 35  1  1
 34 36  1  0
 34 37  1  0
 38 39  2  0
 40 38  1  0
 41 40  1  0
 41 42  1  6
 44 41  1  0
 42 43  2  0
 42 49  1  0
 45 44  1  0
 46 45  1  0
 47 46  1  0
 48 47  1  0
 60 48  1  0
 49 50  1  0
 50 51  1  0
 51 52  2  0
 51 59  1  0
 52 53  1  0
 53 54  2  0
 54 55  1  0
 58 54  1  0
 55 56  1  0
 55 57  2  0
 59 58  2  0
 61 60  1  0
 60 65  2  0
 62 61  1  0
 63 62  1  0
 64 63  1  0
 64 66  2  0
 67 64  1  0
 77 67  1  0
 69 68  2  0
 68 76  1  0
 70 69  1  0
 70 71  2  0
 70 77  1  0
 71 72  1  0
 72 76  2  0
 74 73  1  0
 73 76  1  0
 74 75  2  0
 20 78  1  0
 31 79  1  0
 57 80  1  0
M  CHG  1   1   1
M  END
$$$$
