
     RDKit          3D

 80 82  0  0  0  0  0  0  0  0999 V2000
   55.9538  -36.4293   -1.3135 N   0  0  0  0  0  4  0  0  0  0  0  0
   55.2186  -35.9174   -2.4831 C   0  0  2  0  0  0  0  0  0  0  0  0
   54.0402  -36.7432   -2.7506 C   0  0  0  0  0  0  0  0  0  0  0  0
   54.3158  -37.9940   -2.9610 O   0  0  0  0  0  0  0  0  0  0  0  0
   56.1767  -36.1760   -3.6710 C   0  0  0  0  0  0  0  0  0  0  0  0
   57.2433  -35.1066   -3.6333 C   0  0  0  0  0  0  0  0  0  0  0  0
   58.5455  -35.7133   -4.0842 C   0  0  0  0  0  0  0  0  0  0  0  0
   59.7258  -34.8289   -3.6711 C   0  0  0  0  0  0  0  0  0  0  0  0
   59.6227  -33.6315   -4.4680 N   0  0  0  0  0  0  0  0  0  0  0  0
   52.6791  -36.3863   -2.8115 N   0  0  0  0  0  0  0  0  0  0  0  0
   52.0226  -35.2463   -2.2321 C   0  0  2  0  0  0  0  0  0  0  0  0
   51.9508  -34.0569   -3.1138 C   0  0  0  0  0  0  0  0  0  0  0  0
   53.0676  -33.5070   -3.4204 O   0  0  0  0  0  0  0  0  0  0  0  0
   52.3478  -34.9403   -0.8117 C   0  0  0  0  0  0  0  0  0  0  0  0
   51.5151  -33.9216   -0.1161 C   0  0  0  0  0  0  0  0  0  0  0  0
   50.2449  -33.5390   -0.8059 C   0  0  0  0  0  0  0  0  0  0  0  0
   49.2088  -33.1989    0.1885 N   0  0  0  0  0  0  0  0  0  0  0  0
   47.9305  -32.7955   -0.2580 C   0  0  0  0  0  0  0  0  0  0  0  0
   47.3459  -33.2995   -1.4599 N   0  0  0  0  0  0  0  0  0  0  0  0
   47.2530  -31.9424    0.4325 N   0  0  0  0  0  0  0  0  0  0  0  0
   50.7629  -33.4819   -3.6411 N   0  0  0  0  0  0  0  0  0  0  0  0
   49.7802  -34.1561   -4.4493 C   0  0  2  0  0  0  0  0  0  0  0  0
   50.0173  -33.8608   -5.9076 C   0  0  0  0  0  0  0  0  0  0  0  0
   51.1304  -33.2594   -6.1597 O   0  0  0  0  0  0  0  0  0  0  0  0
   48.3992  -33.7510   -4.0452 C   0  0  0  0  0  0  0  0  0  0  0  0
   48.1558  -33.4034   -2.6371 C   0  0  0  0  0  0  0  0  0  0  0  0
   48.7609  -34.2610   -1.5747 C   0  0  0  0  0  0  0  0  0  0  0  0
   49.8340  -33.5738   -0.8650 N   0  0  0  0  0  0  0  0  0  0  0  0
   49.5954  -32.3018   -0.2907 C   0  0  0  0  0  0  0  0  0  0  0  0
   50.5607  -31.6997    0.5599 N   0  0  0  0  0  0  0  0  0  0  0  0
   48.4641  -31.7026   -0.5693 N   0  0  0  0  0  0  0  0  0  0  0  0
   49.1467  -34.1819   -6.9596 N   0  0  0  0  0  0  0  0  0  0  0  0
   48.5945  -35.4773   -7.2881 C   0  0  1  0  0  0  0  0  0  0  0  0
   47.3941  -35.2774   -8.1458 C   0  0  1  0  0  0  0  0  0  0  0  0
   47.9136  -34.5430   -9.4050 C   0  0  0  0  0  0  0  0  0  0  0  0
   46.8326  -36.5742   -8.7253 C   0  0  0  0  0  0  0  0  0  0  0  0
   46.3449  -34.3690   -7.5902 C   0  0  0  0  0  0  0  0  0  0  0  0
   49.6487  -36.3803   -7.7756 C   0  0  0  0  0  0  0  0  0  0  0  0
   50.7125  -36.2688   -7.0413 O   0  0  0  0  0  0  0  0  0  0  0  0
   49.6930  -37.2874   -8.8320 N   0  0  0  0  0  0  0  0  0  0  0  0
   49.6149  -37.0856  -10.2490 C   0  0  2  0  0  0  0  0  0  0  0  0
   49.8372  -38.3125  -11.0503 C   0  0  0  0  0  0  0  0  0  0  0  0
   50.9847  -38.9105  -10.9483 O   0  0  0  0  0  0  0  0  0  0  0  0
   50.5390  -35.9902  -10.7703 C   0  0  0  0  0  0  0  0  0  0  0  0
   51.7802  -36.4787  -11.4162 C   0  0  0  0  0  0  0  0  0  0  0  0
   51.8818  -35.8397  -12.8078 C   0  0  0  0  0  0  0  0  0  0  0  0
   53.2202  -36.0817  -13.4489 C   0  0  0  0  0  0  0  0  0  0  0  0
   53.6910  -34.8493  -14.0748 N   0  0  0  0  0  0  0  0  0  0  0  0
   48.9554  -38.9434  -11.9338 N   0  0  0  0  0  0  0  0  0  0  0  0
   47.5814  -39.3204  -11.5651 C   0  0  0  0  0  0  0  0  0  0  0  0
   46.5954  -38.2731  -11.7512 C   0  0  0  0  0  0  0  0  0  0  0  0
   46.3134  -37.7465  -12.9813 C   0  0  0  0  0  0  0  0  0  0  0  0
   45.3772  -36.7354  -13.1405 C   0  0  0  0  0  0  0  0  0  0  0  0
   44.7005  -36.2304  -12.0583 C   0  0  0  0  0  0  0  0  0  0  0  0
   43.7153  -35.1702  -12.2388 C   0  0  0  0  0  0  0  0  0  0  0  0
   43.1070  -34.9538  -13.4942 N   0  0  0  0  0  0  0  0  0  0  0  0
   43.3898  -34.4208  -11.2530 N   0  0  0  0  0  0  0  0  0  0  0  0
   44.9732  -36.7532  -10.7977 C   0  0  0  0  0  0  0  0  0  0  0  0
   45.9034  -37.7512  -10.6731 C   0  0  0  0  0  0  0  0  0  0  0  0
   55.0557  -34.5850  -14.2940 C   0  0  0  0  0  0  0  0  0  0  0  0
   56.1201  -35.4708  -13.7186 C   0  0  0  0  0  0  0  0  0  0  0  0
   57.4690  -34.9062  -14.0418 C   0  0  0  0  0  0  0  0  0  0  0  0
   58.5565  -35.8633  -13.5804 C   0  0  0  0  0  0  0  0  0  0  0  0
   58.1897  -36.5185  -12.3036 C   0  0  0  0  0  0  0  0  0  0  0  0
   55.3854  -33.5880  -14.9849 O   0  0  0  0  0  0  0  0  0  0  0  0
   57.2346  -37.3696  -12.3771 O   0  0  0  0  0  0  0  0  0  0  0  0
   58.7770  -36.2960  -11.0632 N   0  0  0  0  0  0  0  0  0  0  0  0
   61.3296  -33.6765   -8.2564 C   0  0  0  0  0  0  0  0  0  0  0  0
   60.9530  -34.2673   -9.4941 C   0  0  0  0  0  0  0  0  0  0  0  0
   60.6386  -35.5981   -9.6125 C   0  0  0  0  0  0  0  0  0  0  0  0
   60.7070  -36.3254   -8.4572 C   0  0  0  0  0  0  0  0  0  0  0  0
   61.0837  -35.7368   -7.2156 C   0  0  0  0  0  0  0  0  0  0  0  0
   61.8041  -33.7534   -5.7963 C   0  0  0  0  0  0  0  0  0  0  0  0
   60.6644  -33.0016   -5.1505 C   0  0  0  0  0  0  0  0  0  0  0  0
   60.7184  -31.7480   -5.2715 O   0  0  0  0  0  0  0  0  0  0  0  0
   61.4009  -34.4061   -7.0982 C   0  0  0  0  0  0  0  0  0  0  0  0
   60.2389  -36.2533  -10.9126 C   0  0  0  0  0  0  0  0  0  0  0  0
   47.2297  -31.9616    1.4826 H   0  0  0  0  0  0  0  0  0  0  0  0
   47.6411  -32.3062   -0.8464 H   0  0  0  0  0  0  0  0  0  0  0  0
   43.9576  -34.3642  -10.3935 H   0  0  0  0  0  0  0  0  0  0  0  0
  2  1  1  1
  3  2  1  0
  2  5  1  0
  3  4  2  0
 10  3  1  0
  5  6  1  0
  6  7  1  0
  7  8  1  0
  8  9  1  0
  9 74  1  0
 11 10  1  0
 12 11  1  0
 11 14  1  1
 12 13  2  0
 21 12  1  0
 14 15  1  0
 15 16  1  0
 16 17  1  0
 17 18  1  0
 18 19  1  0
 18 20  2  0
 22 21  1  0
 23 22  1  0
 22 25  1  1
 23 24  2  0
 32 23  1  0
 25 26  1  0
 26 27  1  0
 27 28  1  0
 28 29  1  0
 29 30  1  0
 29 31  2  0
 33 32  1  6
 33 34  1  0
 38 33  1  0
 34 35  1  6
 34 36  1  0
 34 37  1  0
 38 39  2  0
 40 38  1  0
 41 40  1  0
 41 42  1  6
 44 41  1  0
 42 43  2  0
 42 49  1  0
 45 44  1  0
 46 45  1  0
 47 46  1  0
 48 47  1  0
 60 48  1  0
 49 50  1  0
 50 51  1  0
 51 52  2  0
 51 59  1  0
 52 53  1  0
 53 54  2  0
 54 55  1  0
 58 54  1  0
 55 56  1  0
 55 57  2  0
 59 58  2  0
 61 60  1  0
 60 65  2  0
 62 61  1  0
 63 62  1  0
 64 63  1  0
 64 66  2  0
 67 64  1  0
 77 67  1  0
 69 68  2  0
 68 76  1  0
 70 69  1  0
 70 71  2  0
 70 77  1  0
 71 72  1  0
 72 76  2  0
 74 73  1  0
 73 76  1  0
 74 75  2  0
 20 78  1  0
 31 79  1  0
 57 80  1  0
M  CHG  1   1   1
M  END
$$$$
