
     RDKit          3D

 80 82  0  0  0  0  0  0  0  0999 V2000
   55.7002  -36.5182   -3.1490 N   0  0  0  0  0  4  0  0  0  0  0  0
   54.6511  -36.0625   -4.0776 C   0  0  2  0  0  0  0  0  0  0  0  0
   53.5183  -36.9893   -4.0674 C   0  0  0  0  0  0  0  0  0  0  0  0
   53.8372  -38.2073   -4.3827 O   0  0  0  0  0  0  0  0  0  0  0  0
   55.2945  -36.2195   -5.4767 C   0  0  0  0  0  0  0  0  0  0  0  0
   56.2403  -35.0578   -5.6728 C   0  0  0  0  0  0  0  0  0  0  0  0
   57.4323  -35.5381   -6.4575 C   0  0  0  0  0  0  0  0  0  0  0  0
   58.5988  -34.5545   -6.3254 C   0  0  0  0  0  0  0  0  0  0  0  0
   58.1948  -33.3627   -7.0296 N   0  0  0  0  0  0  0  0  0  0  0  0
   52.1611  -36.7574   -3.7713 N   0  0  0  0  0  0  0  0  0  0  0  0
   51.5784  -35.6885   -3.0069 C   0  0  2  0  0  0  0  0  0  0  0  0
   51.1838  -34.5009   -3.8013 C   0  0  0  0  0  0  0  0  0  0  0  0
   52.1349  -33.8481   -4.3606 O   0  0  0  0  0  0  0  0  0  0  0  0
   52.2264  -35.3698   -1.7047 C   0  0  0  0  0  0  0  0  0  0  0  0
   51.3450  -35.1997   -0.5176 C   0  0  0  0  0  0  0  0  0  0  0  0
   50.1979  -34.2562   -0.6893 C   0  0  0  0  0  0  0  0  0  0  0  0
   49.1164  -34.5931    0.2566 N   0  0  0  0  0  0  0  0  0  0  0  0
   47.9818  -33.7547    0.3338 C   0  0  0  0  0  0  0  0  0  0  0  0
   46.6790  -34.1929   -0.0550 N   0  0  0  0  0  0  0  0  0  0  0  0
   48.1088  -32.5473    0.7691 N   0  0  0  0  0  0  0  0  0  0  0  0
   49.8562  -34.0308   -3.9925 N   0  0  0  0  0  0  0  0  0  0  0  0
   48.7618  -34.7827   -4.5493 C   0  0  2  0  0  0  0  0  0  0  0  0
   48.5946  -34.4509   -6.0094 C   0  0  0  0  0  0  0  0  0  0  0  0
   49.5516  -33.7478   -6.5134 O   0  0  0  0  0  0  0  0  0  0  0  0
   47.4993  -34.5097   -3.7968 C   0  0  0  0  0  0  0  0  0  0  0  0
   47.6004  -34.0625   -2.3994 C   0  0  0  0  0  0  0  0  0  0  0  0
   48.4931  -32.9082   -2.0817 C   0  0  0  0  0  0  0  0  0  0  0  0
   48.5016  -32.6022   -0.6556 N   0  0  0  0  0  0  0  0  0  0  0  0
   49.6341  -32.9320    0.1277 C   0  0  0  0  0  0  0  0  0  0  0  0
   50.6436  -33.7895   -0.3856 N   0  0  0  0  0  0  0  0  0  0  0  0
   49.7199  -32.4225    1.3317 N   0  0  0  0  0  0  0  0  0  0  0  0
   47.5160  -34.8384   -6.8184 N   0  0  0  0  0  0  0  0  0  0  0  0
   47.0112  -36.1750   -7.0408 C   0  0  1  0  0  0  0  0  0  0  0  0
   45.6198  -36.0759   -7.5611 C   0  0  1  0  0  0  0  0  0  0  0  0
   45.7377  -35.2833   -8.8849 C   0  0  0  0  0  0  0  0  0  0  0  0
   45.0424  -37.4120   -8.0240 C   0  0  0  0  0  0  0  0  0  0  0  0
   44.6725  -35.2733   -6.7286 C   0  0  0  0  0  0  0  0  0  0  0  0
   47.9801  -36.9727   -7.8085 C   0  0  0  0  0  0  0  0  0  0  0  0
   49.1821  -36.7728   -7.3626 O   0  0  0  0  0  0  0  0  0  0  0  0
   47.8320  -37.8602   -8.8720 N   0  0  0  0  0  0  0  0  0  0  0  0
   47.3796  -37.6507  -10.2159 C   0  0  2  0  0  0  0  0  0  0  0  0
   47.4950  -38.8432  -11.0885 C   0  0  0  0  0  0  0  0  0  0  0  0
   48.0828  -39.8969  -10.6101 O   0  0  0  0  0  0  0  0  0  0  0  0
   48.0440  -36.4699  -10.9159 C   0  0  0  0  0  0  0  0  0  0  0  0
   49.1174  -36.8360  -11.8698 C   0  0  0  0  0  0  0  0  0  0  0  0
   48.8073  -36.1750  -13.2198 C   0  0  0  0  0  0  0  0  0  0  0  0
   49.9546  -36.2868  -14.1852 C   0  0  0  0  0  0  0  0  0  0  0  0
   50.1440  -35.0098  -14.8675 N   0  0  0  0  0  0  0  0  0  0  0  0
   47.0443  -39.0035  -12.4027 N   0  0  0  0  0  0  0  0  0  0  0  0
   47.8880  -38.7394  -13.5794 C   0  0  0  0  0  0  0  0  0  0  0  0
   48.4663  -37.4100  -13.6238 C   0  0  0  0  0  0  0  0  0  0  0  0
   49.6218  -37.0945  -12.9643 C   0  0  0  0  0  0  0  0  0  0  0  0
   50.1547  -35.8144  -13.0058 C   0  0  0  0  0  0  0  0  0  0  0  0
   49.5320  -34.8191  -13.7168 C   0  0  0  0  0  0  0  0  0  0  0  0
   50.1041  -33.4780  -13.7565 C   0  0  0  0  0  0  0  0  0  0  0  0
   51.0890  -33.0838  -12.8251 N   0  0  0  0  0  0  0  0  0  0  0  0
   49.7162  -32.6399  -14.6432 N   0  0  0  0  0  0  0  0  0  0  0  0
   48.3547  -35.1202  -14.3951 C   0  0  0  0  0  0  0  0  0  0  0  0
   47.8536  -36.3937  -14.3347 C   0  0  0  0  0  0  0  0  0  0  0  0
   51.3805  -34.6196  -15.4144 C   0  0  0  0  0  0  0  0  0  0  0  0
   52.6278  -35.4110  -15.1560 C   0  0  0  0  0  0  0  0  0  0  0  0
   53.7970  -34.7223  -15.7894 C   0  0  0  0  0  0  0  0  0  0  0  0
   55.0437  -35.5812  -15.6495 C   0  0  0  0  0  0  0  0  0  0  0  0
   55.0706  -36.2813  -14.3444 C   0  0  0  0  0  0  0  0  0  0  0  0
   51.4375  -33.5892  -16.1319 O   0  0  0  0  0  0  0  0  0  0  0  0
   54.2044  -37.2150  -14.2037 O   0  0  0  0  0  0  0  0  0  0  0  0
   55.9324  -36.0200  -13.2852 N   0  0  0  0  0  0  0  0  0  0  0  0
   58.8809  -33.2098  -11.1252 C   0  0  0  0  0  0  0  0  0  0  0  0
   58.2541  -33.8188  -12.2473 C   0  0  0  0  0  0  0  0  0  0  0  0
   58.0348  -35.1713  -12.3276 C   0  0  0  0  0  0  0  0  0  0  0  0
   58.4562  -35.9021  -11.2521 C   0  0  0  0  0  0  0  0  0  0  0  0
   59.0842  -35.2955  -10.1263 C   0  0  0  0  0  0  0  0  0  0  0  0
   59.9695  -33.2705   -8.8681 C   0  0  0  0  0  0  0  0  0  0  0  0
   58.9712  -32.6329   -7.9309 C   0  0  0  0  0  0  0  0  0  0  0  0
   58.8855  -31.3783   -8.0191 O   0  0  0  0  0  0  0  0  0  0  0  0
   59.3060  -33.9427  -10.0477 C   0  0  0  0  0  0  0  0  0  0  0  0
   57.3754  -35.8458  -13.5065 C   0  0  0  0  0  0  0  0  0  0  0  0
   47.5520  -31.7473    0.3770 H   0  0  0  0  0  0  0  0  0  0  0  0
   49.6586  -33.0852    2.1535 H   0  0  0  0  0  0  0  0  0  0  0  0
   48.8608  -32.7851  -15.2012 H   0  0  0  0  0  0  0  0  0  0  0  0
  2  1  1  1
  3  2  1  0
  2  5  1  0
  3  4  2  0
 10  3  1  0
  5  6  1  0
  6  7  1  0
  7  8  1  0
  8  9  1  0
  9 74  1  0
 11 10  1  0
 12 11  1  0
 11 14  1  1
 12 13  2  0
 21 12  1  0
 14 15  1  0
 15 16  1  0
 16 17  1  0
 17 18  1  0
 18 19  1  0
 18 20  2  0
 22 21  1  0
 23 22  1  0
 22 25  1  1
 23 24  2  0
 32 23  1  0
 25 26  1  0
 26 27  1  0
 27 28  1  0
 28 29  1  0
 29 30  1  0
 29 31  2  0
 33 32  1  6
 33 34  1  0
 38 33  1  0
 34 35  1  6
 34 36  1  0
 34 37  1  0
 38 39  2  0
 40 38  1  0
 41 40  1  0
 41 42  1  6
 44 41  1  0
 42 43  2  0
 42 49  1  0
 45 44  1  0
 46 45  1  0
 47 46  1  0
 48 47  1  0
 60 48  1  0
 49 50  1  0
 50 51  1  0
 51 52  2  0
 51 59  1  0
 52 53  1  0
 53 54  2  0
 54 55  1  0
 58 54  1  0
 55 56  1  0
 55 57  2  0
 59 58  2  0
 61 60  1  0
 60 65  2  0
 62 61  1  0
 63 62  1  0
 64 63  1  0
 64 66  2  0
 67 64  1  0
 77 67  1  0
 69 68  2  0
 68 76  1  0
 70 69  1  0
 70 71  2  0
 70 77  1  0
 71 72  1  0
 72 76  2  0
 74 73  1  0
 73 76  1  0
 74 75  2  0
 20 78  1  0
 31 79  1  0
 57 80  1  0
M  CHG  1   1   1
M  END
$$$$
