
     RDKit          3D

 80 82  0  0  0  0  0  0  0  0999 V2000
   53.4874  -36.0045   -1.7678 N   0  0  0  0  0  4  0  0  0  0  0  0
   52.8812  -35.5283   -3.0233 C   0  0  2  0  0  0  0  0  0  0  0  0
   51.6758  -36.2975   -3.3357 C   0  0  0  0  0  0  0  0  0  0  0  0
   51.8846  -37.5738   -3.4453 O   0  0  0  0  0  0  0  0  0  0  0  0
   53.9105  -35.9228   -4.1100 C   0  0  0  0  0  0  0  0  0  0  0  0
   55.0386  -34.9196   -4.0504 C   0  0  0  0  0  0  0  0  0  0  0  0
   56.3297  -35.6324   -4.3542 C   0  0  0  0  0  0  0  0  0  0  0  0
   57.5293  -34.7953   -3.9004 C   0  0  0  0  0  0  0  0  0  0  0  0
   57.5677  -33.6497   -4.7753 N   0  0  0  0  0  0  0  0  0  0  0  0
   50.3501  -35.8640   -3.5305 N   0  0  0  0  0  0  0  0  0  0  0  0
   49.7263  -34.6503   -3.0785 C   0  0  2  0  0  0  0  0  0  0  0  0
   49.8019  -33.5202   -4.0346 C   0  0  0  0  0  0  0  0  0  0  0  0
   50.9729  -33.0603   -4.2814 O   0  0  0  0  0  0  0  0  0  0  0  0
   49.9585  -34.2705   -1.6576 C   0  0  0  0  0  0  0  0  0  0  0  0
   50.6202  -32.9644   -1.3907 C   0  0  0  0  0  0  0  0  0  0  0  0
   51.0671  -32.2033   -2.5976 C   0  0  0  0  0  0  0  0  0  0  0  0
   51.4502  -30.8293   -2.2191 N   0  0  0  0  0  0  0  0  0  0  0  0
   52.1399  -30.6154   -1.0047 C   0  0  0  0  0  0  0  0  0  0  0  0
   53.5581  -30.4546   -0.9486 N   0  0  0  0  0  0  0  0  0  0  0  0
   51.4808  -30.5604    0.1025 N   0  0  0  0  0  0  0  0  0  0  0  0
   48.6992  -32.9109   -4.6924 N   0  0  0  0  0  0  0  0  0  0  0  0
   47.7409  -33.5770   -5.5359 C   0  0  2  0  0  0  0  0  0  0  0  0
   48.1104  -33.3943   -6.9851 C   0  0  0  0  0  0  0  0  0  0  0  0
   49.2768  -32.8794   -7.1810 O   0  0  0  0  0  0  0  0  0  0  0  0
   46.3619  -33.0632   -5.2727 C   0  0  0  0  0  0  0  0  0  0  0  0
   46.1093  -32.3516   -4.0107 C   0  0  0  0  0  0  0  0  0  0  0  0
   46.3266  -33.0791   -2.7246 C   0  0  0  0  0  0  0  0  0  0  0  0
   45.6960  -34.3943   -2.7292 N   0  0  0  0  0  0  0  0  0  0  0  0
   45.0707  -34.8784   -1.5547 C   0  0  0  0  0  0  0  0  0  0  0  0
   44.6600  -36.2350   -1.4607 N   0  0  0  0  0  0  0  0  0  0  0  0
   44.8867  -34.0403   -0.5646 N   0  0  0  0  0  0  0  0  0  0  0  0
   47.3057  -33.7317   -8.0835 N   0  0  0  0  0  0  0  0  0  0  0  0
   46.6973  -35.0105   -8.3761 C   0  0  1  0  0  0  0  0  0  0  0  0
   45.5835  -34.7961   -9.3404 C   0  0  1  0  0  0  0  0  0  0  0  0
   44.3060  -35.2421   -8.5896 C   0  0  0  0  0  0  0  0  0  0  0  0
   45.3008  -33.3238   -9.6320 C   0  0  0  0  0  0  0  0  0  0  0  0
   45.6140  -35.6516  -10.5660 C   0  0  0  0  0  0  0  0  0  0  0  0
   47.7250  -36.0059   -8.7184 C   0  0  0  0  0  0  0  0  0  0  0  0
   48.7331  -35.9101   -7.9072 O   0  0  0  0  0  0  0  0  0  0  0  0
   47.7926  -36.9825   -9.7097 N   0  0  0  0  0  0  0  0  0  0  0  0
   47.8391  -36.8712  -11.1381 C   0  0  2  0  0  0  0  0  0  0  0  0
   48.0427  -38.1599  -11.8413 C   0  0  0  0  0  0  0  0  0  0  0  0
   48.7848  -38.1653  -12.9062 O   0  0  0  0  0  0  0  0  0  0  0  0
   48.8710  -35.8707  -11.6479 C   0  0  0  0  0  0  0  0  0  0  0  0
   50.1244  -36.4751  -12.1579 C   0  0  0  0  0  0  0  0  0  0  0  0
   50.3764  -35.9376  -13.5732 C   0  0  0  0  0  0  0  0  0  0  0  0
   51.7422  -36.3021  -14.0856 C   0  0  0  0  0  0  0  0  0  0  0  0
   52.3403  -35.1448  -14.7452 N   0  0  0  0  0  0  0  0  0  0  0  0
   47.5319  -39.4191  -11.5103 N   0  0  0  0  0  0  0  0  0  0  0  0
   46.1072  -39.6600  -11.2305 C   0  0  0  0  0  0  0  0  0  0  0  0
   45.8396  -40.2924   -9.9529 C   0  0  0  0  0  0  0  0  0  0  0  0
   46.3674  -39.8235   -8.7818 C   0  0  0  0  0  0  0  0  0  0  0  0
   46.1126  -40.4479   -7.5696 C   0  0  0  0  0  0  0  0  0  0  0  0
   45.3157  -41.5640   -7.5104 C   0  0  0  0  0  0  0  0  0  0  0  0
   45.0516  -42.2095   -6.2294 C   0  0  0  0  0  0  0  0  0  0  0  0
   44.0353  -43.1815   -6.1050 N   0  0  0  0  0  0  0  0  0  0  0  0
   45.7444  -41.8991   -5.1984 N   0  0  0  0  0  0  0  0  0  0  0  0
   44.7688  -42.0567   -8.6915 C   0  0  0  0  0  0  0  0  0  0  0  0
   45.0393  -41.4178   -9.8727 C   0  0  0  0  0  0  0  0  0  0  0  0
   53.7324  -34.9785  -14.8670 C   0  0  0  0  0  0  0  0  0  0  0  0
   54.6881  -35.8866  -14.1523 C   0  0  0  0  0  0  0  0  0  0  0  0
   56.0923  -35.4272  -14.3974 C   0  0  0  0  0  0  0  0  0  0  0  0
   57.0752  -36.4153  -13.7899 C   0  0  0  0  0  0  0  0  0  0  0  0
   56.5673  -36.9606  -12.5097 C   0  0  0  0  0  0  0  0  0  0  0  0
   54.1798  -34.0515  -15.5884 O   0  0  0  0  0  0  0  0  0  0  0  0
   55.5672  -37.7555  -12.6092 O   0  0  0  0  0  0  0  0  0  0  0  0
   57.0688  -36.6918  -11.2412 N   0  0  0  0  0  0  0  0  0  0  0  0
   59.5597  -34.0499   -8.4001 C   0  0  0  0  0  0  0  0  0  0  0  0
   59.2433  -34.6981   -9.6259 C   0  0  0  0  0  0  0  0  0  0  0  0
   58.8527  -36.0124   -9.6876 C   0  0  0  0  0  0  0  0  0  0  0  0
   58.7825  -36.6639   -8.4881 C   0  0  0  0  0  0  0  0  0  0  0  0
   59.0984  -36.0177   -7.2583 C   0  0  0  0  0  0  0  0  0  0  0  0
   59.8338  -33.9912   -5.9092 C   0  0  0  0  0  0  0  0  0  0  0  0
   58.6987  -33.1306   -5.4071 C   0  0  0  0  0  0  0  0  0  0  0  0
   58.8440  -31.8934   -5.6001 O   0  0  0  0  0  0  0  0  0  0  0  0
   59.4920  -34.7036   -7.1973 C   0  0  0  0  0  0  0  0  0  0  0  0
   58.5140  -36.7275  -10.9735 C   0  0  0  0  0  0  0  0  0  0  0  0
   51.5510  -29.7424    0.7580 H   0  0  0  0  0  0  0  0  0  0  0  0
   45.6429  -33.3255   -0.3761 H   0  0  0  0  0  0  0  0  0  0  0  0
   45.5580  -41.0484   -4.6456 H   0  0  0  0  0  0  0  0  0  0  0  0
  2  1  1  1
  3  2  1  0
  2  5  1  0
  3  4  2  0
 10  3  1  0
  5  6  1  0
  6  7  1  0
  7  8  1  0
  8  9  1  0
  9 74  1  0
 11 10  1  0
 12 11  1  0
 11 14  1  1
 12 13  2  0
 21 12  1  0
 14 15  1  0
 15 16  1  0
 16 17  1  0
 17 18  1  0
 18 19  1  0
 18 20  2  0
 22 21  1  0
 23 22  1  0
 22 25  1  6
 23 24  2  0
 32 23  1  0
 25 26  1  0
 26 27  1  0
 27 28  1  0
 28 29  1  0
 29 30  1  0
 29 31  2  0
 33 32  1  6
 33 34  1  0
 38 33  1  0
 34 35  1  1
 34 36  1  0
 34 37  1  0
 38 39  2  0
 40 38  1  0
 41 40  1  0
 41 42  1  6
 44 41  1  0
 42 43  2  0
 42 49  1  0
 45 44  1  0
 46 45  1  0
 47 46  1  0
 48 47  1  0
 60 48  1  0
 49 50  1  0
 50 51  1  0
 51 52  2  0
 51 59  1  0
 52 53  1  0
 53 54  2  0
 54 55  1  0
 58 54  1  0
 55 56  1  0
 55 57  2  0
 59 58  2  0
 61 60  1  0
 60 65  2  0
 62 61  1  0
 63 62  1  0
 64 63  1  0
 64 66  2  0
 67 64  1  0
 77 67  1  0
 69 68  2  0
 68 76  1  0
 70 69  1  0
 70 71  2  0
 70 77  1  0
 71 72  1  0
 72 76  2  0
 74 73  1  0
 73 76  1  0
 74 75  2  0
 20 78  1  0
 31 79  1  0
 57 80  1  0
M  CHG  1   1   1
M  END
$$$$
