
     RDKit          3D

 80 82  0  0  0  0  0  0  0  0999 V2000
   53.7455  -30.3273  -12.1327 N   0  0  0  0  0  4  0  0  0  0  0  0
   53.2186  -31.6952  -11.9856 C   0  0  2  0  0  0  0  0  0  0  0  0
   51.7601  -31.6735  -11.8650 C   0  0  0  0  0  0  0  0  0  0  0  0
   51.3291  -30.9640  -10.8672 O   0  0  0  0  0  0  0  0  0  0  0  0
   53.7363  -32.1496  -10.5994 C   0  0  0  0  0  0  0  0  0  0  0  0
   55.1917  -32.5221  -10.7598 C   0  0  0  0  0  0  0  0  0  0  0  0
   55.9273  -32.1293   -9.5060 C   0  0  0  0  0  0  0  0  0  0  0  0
   57.4373  -32.0813   -9.7575 C   0  0  0  0  0  0  0  0  0  0  0  0
   57.8479  -33.4471   -9.9703 N   0  0  0  0  0  0  0  0  0  0  0  0
   50.7765  -32.2969  -12.6571 N   0  0  0  0  0  0  0  0  0  0  0  0
   50.8788  -32.7660  -14.0120 C   0  0  2  0  0  0  0  0  0  0  0  0
   51.3001  -34.1805  -14.1489 C   0  0  0  0  0  0  0  0  0  0  0  0
   52.4862  -34.4624  -13.7523 O   0  0  0  0  0  0  0  0  0  0  0  0
   51.5080  -31.8391  -14.9928 C   0  0  0  0  0  0  0  0  0  0  0  0
   52.7840  -31.1807  -14.6010 C   0  0  0  0  0  0  0  0  0  0  0  0
   53.9023  -32.1004  -14.2281 C   0  0  0  0  0  0  0  0  0  0  0  0
   55.1034  -31.7908  -15.0279 N   0  0  0  0  0  0  0  0  0  0  0  0
   56.0960  -30.9459  -14.4826 C   0  0  0  0  0  0  0  0  0  0  0  0
   57.4562  -30.9848  -14.9168 N   0  0  0  0  0  0  0  0  0  0  0  0
   55.7799  -30.1032  -13.5590 N   0  0  0  0  0  0  0  0  0  0  0  0
   50.5098  -35.2373  -14.6767 N   0  0  0  0  0  0  0  0  0  0  0  0
   49.2196  -35.6552  -14.1926 C   0  0  2  0  0  0  0  0  0  0  0  0
   49.3687  -36.8445  -13.2796 C   0  0  0  0  0  0  0  0  0  0  0  0
   50.5854  -37.1201  -12.9512 O   0  0  0  0  0  0  0  0  0  0  0  0
   48.3081  -35.9751  -15.3335 C   0  0  0  0  0  0  0  0  0  0  0  0
   48.8861  -36.5825  -16.5418 C   0  0  0  0  0  0  0  0  0  0  0  0
   50.3626  -36.8003  -16.5955 C   0  0  0  0  0  0  0  0  0  0  0  0
   51.0839  -35.5711  -16.9056 N   0  0  0  0  0  0  0  0  0  0  0  0
   52.4896  -35.6035  -17.0719 C   0  0  0  0  0  0  0  0  0  0  0  0
   53.1183  -36.7125  -17.6985 N   0  0  0  0  0  0  0  0  0  0  0  0
   53.1855  -34.5837  -16.6335 N   0  0  0  0  0  0  0  0  0  0  0  0
   48.3195  -37.6346  -12.7871 N   0  0  0  0  0  0  0  0  0  0  0  0
   47.1459  -37.1977  -12.0640 C   0  0  1  0  0  0  0  0  0  0  0  0
   46.1084  -38.2614  -12.1571 C   0  0  1  0  0  0  0  0  0  0  0  0
   44.8782  -37.6940  -11.4090 C   0  0  0  0  0  0  0  0  0  0  0  0
   45.5703  -38.4699  -13.5713 C   0  0  0  0  0  0  0  0  0  0  0  0
   46.4228  -39.5373  -11.4445 C   0  0  0  0  0  0  0  0  0  0  0  0
   47.5149  -36.7084  -10.7265 C   0  0  0  0  0  0  0  0  0  0  0  0
   48.5777  -35.9673  -10.7953 O   0  0  0  0  0  0  0  0  0  0  0  0
   46.9446  -36.8935   -9.4690 N   0  0  0  0  0  0  0  0  0  0  0  0
   46.7841  -38.0752   -8.6738 C   0  0  2  0  0  0  0  0  0  0  0  0
   46.2379  -37.8258   -7.3187 C   0  0  0  0  0  0  0  0  0  0  0  0
   47.0764  -37.6610   -6.3417 O   0  0  0  0  0  0  0  0  0  0  0  0
   48.0540  -38.9090   -8.5402 C   0  0  0  0  0  0  0  0  0  0  0  0
   48.7707  -38.7490   -7.2530 C   0  0  0  0  0  0  0  0  0  0  0  0
   48.9887  -40.1423   -6.6474 C   0  0  0  0  0  0  0  0  0  0  0  0
   49.9140  -40.1096   -5.4627 C   0  0  0  0  0  0  0  0  0  0  0  0
   50.8538  -41.2239   -5.5471 N   0  0  0  0  0  0  0  0  0  0  0  0
   44.8985  -37.7382   -6.9257 N   0  0  0  0  0  0  0  0  0  0  0  0
   44.0256  -38.9140   -6.7789 C   0  0  0  0  0  0  0  0  0  0  0  0
   43.6399  -39.2150   -5.4135 C   0  0  0  0  0  0  0  0  0  0  0  0
   42.8886  -40.3115   -5.0922 C   0  0  0  0  0  0  0  0  0  0  0  0
   42.5165  -40.5780   -3.7828 C   0  0  0  0  0  0  0  0  0  0  0  0
   42.8957  -39.7414   -2.7627 C   0  0  0  0  0  0  0  0  0  0  0  0
   42.5019  -40.0342   -1.3892 C   0  0  0  0  0  0  0  0  0  0  0  0
   41.7211  -41.1709   -1.0871 N   0  0  0  0  0  0  0  0  0  0  0  0
   42.8639  -39.2580   -0.4376 N   0  0  0  0  0  0  0  0  0  0  0  0
   43.6608  -38.6200   -3.0691 C   0  0  0  0  0  0  0  0  0  0  0  0
   44.0121  -38.3842   -4.3720 C   0  0  0  0  0  0  0  0  0  0  0  0
   52.1175  -41.1970   -4.9285 C   0  0  0  0  0  0  0  0  0  0  0  0
   52.6515  -39.9405   -4.3082 C   0  0  0  0  0  0  0  0  0  0  0  0
   54.0400  -40.1836   -3.8025 C   0  0  0  0  0  0  0  0  0  0  0  0
   54.5416  -38.9592   -3.0537 C   0  0  0  0  0  0  0  0  0  0  0  0
   54.0740  -37.7083   -3.6945 C   0  0  0  0  0  0  0  0  0  0  0  0
   52.8087  -42.2464   -4.8967 O   0  0  0  0  0  0  0  0  0  0  0  0
   52.8194  -37.4711   -3.5865 O   0  0  0  0  0  0  0  0  0  0  0  0
   54.8584  -36.7918   -4.3857 N   0  0  0  0  0  0  0  0  0  0  0  0
   58.7495  -35.7396   -6.6238 C   0  0  0  0  0  0  0  0  0  0  0  0
   57.9571  -36.3664   -5.6227 C   0  0  0  0  0  0  0  0  0  0  0  0
   56.9968  -35.6921   -4.9106 C   0  0  0  0  0  0  0  0  0  0  0  0
   56.8455  -34.3713   -5.2282 C   0  0  0  0  0  0  0  0  0  0  0  0
   57.6373  -33.7402   -6.2306 C   0  0  0  0  0  0  0  0  0  0  0  0
   59.4552  -33.7731   -8.0087 C   0  0  0  0  0  0  0  0  0  0  0  0
   58.9586  -34.0734   -9.4031 C   0  0  0  0  0  0  0  0  0  0  0  0
   59.6252  -34.9410  -10.0293 O   0  0  0  0  0  0  0  0  0  0  0  0
   58.5999  -34.4145   -6.9407 C   0  0  0  0  0  0  0  0  0  0  0  0
   56.1434  -36.3296   -3.8407 C   0  0  0  0  0  0  0  0  0  0  0  0
   55.1848  -30.3696  -12.7352 H   0  0  0  0  0  0  0  0  0  0  0  0
   53.5611  -33.8993  -17.3469 H   0  0  0  0  0  0  0  0  0  0  0  0
   42.7673  -39.5218    0.5550 H   0  0  0  0  0  0  0  0  0  0  0  0
  2  1  1  1
  3  2  1  0
  2  5  1  0
  3  4  2  0
 10  3  1  0
  5  6  1  0
  6  7  1  0
  7  8  1  0
  8  9  1  0
  9 74  1  0
 11 10  1  0
 12 11  1  0
 11 14  1  6
 12 13  2  0
 21 12  1  0
 14 15  1  0
 15 16  1  0
 16 17  1  0
 17 18  1  0
 18 19  1  0
 18 20  2  0
 22 21  1  0
 23 22  1  0
 22 25  1  6
 23 24  2  0
 32 23  1  0
 25 26  1  0
 26 27  1  0
 27 28  1  0
 28 29  1  0
 29 30  1  0
 29 31  2  0
 33 32  1  1
 33 34  1  0
 38 33  1  0
 34 35  1  1
 34 36  1  0
 34 37  1  0
 38 39  2  0
 40 38  1  0
 41 40  1  0
 41 42  1  1
 44 41  1  0
 42 43  2  0
 42 49  1  0
 45 44  1  0
 46 45  1  0
 47 46  1  0
 48 47  1  0
 60 48  1  0
 49 50  1  0
 50 51  1  0
 51 52  2  0
 51 59  1  0
 52 53  1  0
 53 54  2  0
 54 55  1  0
 58 54  1  0
 55 56  1  0
 55 57  2  0
 59 58  2  0
 61 60  1  0
 60 65  2  0
 62 61  1  0
 63 62  1  0
 64 63  1  0
 64 66  2  0
 67 64  1  0
 77 67  1  0
 69 68  2  0
 68 76  1  0
 70 69  1  0
 70 71  2  0
 70 77  1  0
 71 72  1  0
 72 76  2  0
 74 73  1  0
 73 76  1  0
 74 75  2  0
 20 78  1  0
 31 79  1  0
 57 80  1  0
M  CHG  1   1   1
M  END
$$$$
