
     RDKit          3D

 80 82  0  0  0  0  0  0  0  0999 V2000
   54.1505  -33.4498   -5.9525 N   0  0  0  0  0  4  0  0  0  0  0  0
   53.3451  -34.0291   -7.0417 C   0  0  2  0  0  0  0  0  0  0  0  0
   51.9934  -34.3377   -6.5727 C   0  0  0  0  0  0  0  0  0  0  0  0
   51.9640  -35.1576   -5.5670 O   0  0  0  0  0  0  0  0  0  0  0  0
   54.0080  -35.4022   -7.3090 C   0  0  0  0  0  0  0  0  0  0  0  0
   55.2624  -35.1504   -8.1125 C   0  0  0  0  0  0  0  0  0  0  0  0
   56.3128  -36.1399   -7.6829 C   0  0  0  0  0  0  0  0  0  0  0  0
   57.7036  -35.6809   -8.1308 C   0  0  0  0  0  0  0  0  0  0  0  0
   57.7132  -35.7883   -9.5688 N   0  0  0  0  0  0  0  0  0  0  0  0
   50.7460  -33.8841   -7.0434 N   0  0  0  0  0  0  0  0  0  0  0  0
   50.4498  -32.7039   -7.8089 C   0  0  2  0  0  0  0  0  0  0  0  0
   50.4732  -32.8953   -9.2785 C   0  0  0  0  0  0  0  0  0  0  0  0
   51.6088  -33.1871   -9.7969 O   0  0  0  0  0  0  0  0  0  0  0  0
   51.0728  -31.4340   -7.3439 C   0  0  0  0  0  0  0  0  0  0  0  0
   50.8985  -31.0619   -5.9135 C   0  0  0  0  0  0  0  0  0  0  0  0
   50.9451  -32.1932   -4.9371 C   0  0  0  0  0  0  0  0  0  0  0  0
   49.7374  -33.0307   -5.0712 N   0  0  0  0  0  0  0  0  0  0  0  0
   49.3323  -33.8359   -3.9831 C   0  0  0  0  0  0  0  0  0  0  0  0
   48.5416  -35.0130   -4.1553 N   0  0  0  0  0  0  0  0  0  0  0  0
   49.6804  -33.5113   -2.7844 N   0  0  0  0  0  0  0  0  0  0  0  0
   49.3564  -32.7837  -10.1505 N   0  0  0  0  0  0  0  0  0  0  0  0
   48.1307  -33.5337  -10.0596 C   0  0  2  0  0  0  0  0  0  0  0  0
   48.1667  -34.7030  -11.0090 C   0  0  0  0  0  0  0  0  0  0  0  0
   49.3189  -34.9239  -11.5455 O   0  0  0  0  0  0  0  0  0  0  0  0
   46.9546  -32.6562  -10.3454 C   0  0  0  0  0  0  0  0  0  0  0  0
   47.0965  -31.2069  -10.1395 C   0  0  0  0  0  0  0  0  0  0  0  0
   48.4445  -30.5889  -10.3167 C   0  0  0  0  0  0  0  0  0  0  0  0
   48.7121  -30.2554  -11.7112 N   0  0  0  0  0  0  0  0  0  0  0  0
   49.7429  -30.9292  -12.4100 C   0  0  0  0  0  0  0  0  0  0  0  0
   49.8391  -30.8352  -13.8241 N   0  0  0  0  0  0  0  0  0  0  0  0
   50.5993  -31.6353  -11.7140 N   0  0  0  0  0  0  0  0  0  0  0  0
   47.0793  -35.5281  -11.3327 N   0  0  0  0  0  0  0  0  0  0  0  0
   46.2231  -36.2608  -10.4265 C   0  0  1  0  0  0  0  0  0  0  0  0
   44.9596  -36.5992  -11.1375 C   0  0  1  0  0  0  0  0  0  0  0  0
   44.7516  -35.4565  -12.1602 C   0  0  0  0  0  0  0  0  0  0  0  0
   45.0720  -37.8309  -12.0336 C   0  0  0  0  0  0  0  0  0  0  0  0
   43.7207  -36.5814  -10.3010 C   0  0  0  0  0  0  0  0  0  0  0  0
   46.9671  -37.3544   -9.7825 C   0  0  0  0  0  0  0  0  0  0  0  0
   48.1420  -36.9448   -9.4149 O   0  0  0  0  0  0  0  0  0  0  0  0
   46.6390  -38.6812   -9.5124 N   0  0  0  0  0  0  0  0  0  0  0  0
   46.3594  -39.7786  -10.3912 C   0  0  2  0  0  0  0  0  0  0  0  0
   46.1810  -41.0784   -9.7018 C   0  0  0  0  0  0  0  0  0  0  0  0
   47.1600  -41.5259   -8.9764 O   0  0  0  0  0  0  0  0  0  0  0  0
   47.3849  -39.9561  -11.5059 C   0  0  0  0  0  0  0  0  0  0  0  0
   48.3670  -41.0427  -11.2803 C   0  0  0  0  0  0  0  0  0  0  0  0
   48.3551  -41.9642  -12.5076 C   0  0  0  0  0  0  0  0  0  0  0  0
   49.4826  -42.9587  -12.4835 C   0  0  0  0  0  0  0  0  0  0  0  0
   50.0817  -43.0488  -13.8121 N   0  0  0  0  0  0  0  0  0  0  0  0
   45.0675  -41.9246   -9.7200 N   0  0  0  0  0  0  0  0  0  0  0  0
   43.7823  -41.5750   -9.0939 C   0  0  0  0  0  0  0  0  0  0  0  0
   43.7665  -41.6755   -7.6470 C   0  0  0  0  0  0  0  0  0  0  0  0
   44.7673  -41.1630   -6.8689 C   0  0  0  0  0  0  0  0  0  0  0  0
   44.7439  -41.2794   -5.4868 C   0  0  0  0  0  0  0  0  0  0  0  0
   43.7059  -41.9177   -4.8550 C   0  0  0  0  0  0  0  0  0  0  0  0
   43.6902  -42.0302   -3.4009 C   0  0  0  0  0  0  0  0  0  0  0  0
   44.7711  -41.5553   -2.6268 N   0  0  0  0  0  0  0  0  0  0  0  0
   42.6885  -42.5639   -2.8085 N   0  0  0  0  0  0  0  0  0  0  0  0
   42.6773  -42.4461   -5.6295 C   0  0  0  0  0  0  0  0  0  0  0  0
   42.7293  -42.3150   -6.9921 C   0  0  0  0  0  0  0  0  0  0  0  0
   51.4123  -43.4588  -14.0164 C   0  0  0  0  0  0  0  0  0  0  0  0
   52.3543  -43.6401  -12.8637 C   0  0  0  0  0  0  0  0  0  0  0  0
   53.7136  -43.9978  -13.3805 C   0  0  0  0  0  0  0  0  0  0  0  0
   54.6433  -44.3148  -12.2200 C   0  0  0  0  0  0  0  0  0  0  0  0
   54.3766  -43.4320  -11.0609 C   0  0  0  0  0  0  0  0  0  0  0  0
   51.8157  -43.6762  -15.1868 O   0  0  0  0  0  0  0  0  0  0  0  0
   53.2684  -43.6427  -10.4530 O   0  0  0  0  0  0  0  0  0  0  0  0
   55.2033  -42.4198  -10.5868 N   0  0  0  0  0  0  0  0  0  0  0  0
   58.6897  -39.4715  -11.2267 C   0  0  0  0  0  0  0  0  0  0  0  0
   57.9900  -40.7026  -11.3603 C   0  0  0  0  0  0  0  0  0  0  0  0
   57.3920  -41.3319  -10.2972 C   0  0  0  0  0  0  0  0  0  0  0  0
   57.5083  -40.6953   -9.0933 C   0  0  0  0  0  0  0  0  0  0  0  0
   58.2082  -39.4620   -8.9558 C   0  0  0  0  0  0  0  0  0  0  0  0
   59.5579  -37.5267   -9.9048 C   0  0  0  0  0  0  0  0  0  0  0  0
   58.7278  -36.3455  -10.3485 C   0  0  0  0  0  0  0  0  0  0  0  0
   59.0176  -35.8901  -11.4876 O   0  0  0  0  0  0  0  0  0  0  0  0
   58.8088  -38.8342  -10.0190 C   0  0  0  0  0  0  0  0  0  0  0  0
   56.6460  -42.6399  -10.4080 C   0  0  0  0  0  0  0  0  0  0  0  0
   50.3285  -32.7088   -2.5856 H   0  0  0  0  0  0  0  0  0  0  0  0
   50.4106  -31.7617  -10.6811 H   0  0  0  0  0  0  0  0  0  0  0  0
   41.8786  -42.9389   -3.3259 H   0  0  0  0  0  0  0  0  0  0  0  0
  2  1  1  1
  3  2  1  0
  2  5  1  0
  3  4  2  0
 10  3  1  0
  5  6  1  0
  6  7  1  0
  7  8  1  0
  8  9  1  0
  9 74  1  0
 11 10  1  0
 12 11  1  0
 11 14  1  6
 12 13  2  0
 21 12  1  0
 14 15  1  0
 15 16  1  0
 16 17  1  0
 17 18  1  0
 18 19  1  0
 18 20  2  0
 22 21  1  0
 23 22  1  0
 22 25  1  6
 23 24  2  0
 32 23  1  0
 25 26  1  0
 26 27  1  0
 27 28  1  0
 28 29  1  0
 29 30  1  0
 29 31  2  0
 33 32  1  6
 33 34  1  0
 38 33  1  0
 34 35  1  6
 34 36  1  0
 34 37  1  0
 38 39  2  0
 40 38  1  0
 41 40  1  0
 41 42  1  1
 44 41  1  0
 42 43  2  0
 42 49  1  0
 45 44  1  0
 46 45  1  0
 47 46  1  0
 48 47  1  0
 60 48  1  0
 49 50  1  0
 50 51  1  0
 51 52  2  0
 51 59  1  0
 52 53  1  0
 53 54  2  0
 54 55  1  0
 58 54  1  0
 55 56  1  0
 55 57  2  0
 59 58  2  0
 61 60  1  0
 60 65  2  0
 62 61  1  0
 63 62  1  0
 64 63  1  0
 64 66  2  0
 67 64  1  0
 77 67  1  0
 69 68  2  0
 68 76  1  0
 70 69  1  0
 70 71  2  0
 70 77  1  0
 71 72  1  0
 72 76  2  0
 74 73  1  0
 73 76  1  0
 74 75  2  0
 20 78  1  0
 31 79  1  0
 57 80  1  0
M  CHG  1   1   1
M  END
$$$$
