
     RDKit          3D

 80 82  0  0  0  0  0  0  0  0999 V2000
   55.4695  -35.6444   -2.9732 N   0  0  0  0  0  4  0  0  0  0  0  0
   54.5334  -35.2451   -4.0384 C   0  0  2  0  0  0  0  0  0  0  0  0
   53.5498  -36.3018   -4.2802 C   0  0  0  0  0  0  0  0  0  0  0  0
   54.0774  -37.4407   -4.6105 O   0  0  0  0  0  0  0  0  0  0  0  0
   55.4108  -35.2045   -5.3131 C   0  0  0  0  0  0  0  0  0  0  0  0
   56.2100  -33.9231   -5.2716 C   0  0  0  0  0  0  0  0  0  0  0  0
   57.5674  -34.1860   -5.8678 C   0  0  0  0  0  0  0  0  0  0  0  0
   58.5532  -33.0810   -5.4768 C   0  0  0  0  0  0  0  0  0  0  0  0
   58.1116  -31.8933   -6.1651 N   0  0  0  0  0  0  0  0  0  0  0  0
   52.1438  -36.2639   -4.2081 N   0  0  0  0  0  0  0  0  0  0  0  0
   51.3056  -35.3423   -3.4909 C   0  0  2  0  0  0  0  0  0  0  0  0
   50.8884  -34.1501   -4.2665 C   0  0  0  0  0  0  0  0  0  0  0  0
   51.8206  -33.3409   -4.6126 O   0  0  0  0  0  0  0  0  0  0  0  0
   51.6844  -35.0563   -2.0796 C   0  0  0  0  0  0  0  0  0  0  0  0
   51.2189  -36.0067   -1.0331 C   0  0  0  0  0  0  0  0  0  0  0  0
   51.7434  -37.4025   -1.1427 C   0  0  0  0  0  0  0  0  0  0  0  0
   53.1434  -37.4575   -0.6791 N   0  0  0  0  0  0  0  0  0  0  0  0
   53.4662  -38.2465    0.4477 C   0  0  0  0  0  0  0  0  0  0  0  0
   54.7000  -38.9584    0.5549 N   0  0  0  0  0  0  0  0  0  0  0  0
   52.6283  -38.3382    1.4239 N   0  0  0  0  0  0  0  0  0  0  0  0
   49.5583  -33.8323   -4.6537 N   0  0  0  0  0  0  0  0  0  0  0  0
   48.6807  -34.6640   -5.4357 C   0  0  2  0  0  0  0  0  0  0  0  0
   48.7096  -34.2344   -6.8796 C   0  0  0  0  0  0  0  0  0  0  0  0
   49.6318  -33.3794   -7.1671 O   0  0  0  0  0  0  0  0  0  0  0  0
   47.2876  -34.6120   -4.8961 C   0  0  0  0  0  0  0  0  0  0  0  0
   47.0371  -35.1545   -3.5523 C   0  0  0  0  0  0  0  0  0  0  0  0
   47.5026  -34.3725   -2.3681 C   0  0  0  0  0  0  0  0  0  0  0  0
   46.4082  -34.0635   -1.4547 N   0  0  0  0  0  0  0  0  0  0  0  0
   46.6079  -34.1688   -0.0569 C   0  0  0  0  0  0  0  0  0  0  0  0
   45.5179  -34.4469    0.8104 N   0  0  0  0  0  0  0  0  0  0  0  0
   47.8225  -34.0041    0.4060 N   0  0  0  0  0  0  0  0  0  0  0  0
   47.8391  -34.6826   -7.8843 N   0  0  0  0  0  0  0  0  0  0  0  0
   47.5625  -36.0479   -8.2721 C   0  0  1  0  0  0  0  0  0  0  0  0
   46.2737  -36.0774   -9.0167 C   0  0  1  0  0  0  0  0  0  0  0  0
   45.6799  -34.6575   -8.8553 C   0  0  0  0  0  0  0  0  0  0  0  0
   46.4432  -36.1967  -10.5300 C   0  0  0  0  0  0  0  0  0  0  0  0
   45.2249  -36.9860   -8.4607 C   0  0  0  0  0  0  0  0  0  0  0  0
   48.7421  -36.6535   -8.9095 C   0  0  0  0  0  0  0  0  0  0  0  0
   49.8175  -36.3453   -8.2522 O   0  0  0  0  0  0  0  0  0  0  0  0
   48.8901  -37.4605  -10.0354 N   0  0  0  0  0  0  0  0  0  0  0  0
   48.6378  -37.1967  -11.4215 C   0  0  2  0  0  0  0  0  0  0  0  0
   49.0536  -38.2889  -12.3331 C   0  0  0  0  0  0  0  0  0  0  0  0
   50.3238  -38.4797  -12.5201 O   0  0  0  0  0  0  0  0  0  0  0  0
   49.2413  -35.8889  -11.9227 C   0  0  0  0  0  0  0  0  0  0  0  0
   50.4949  -36.0393  -12.6986 C   0  0  0  0  0  0  0  0  0  0  0  0
   50.3217  -35.3110  -14.0383 C   0  0  0  0  0  0  0  0  0  0  0  0
   51.6150  -35.2000  -14.7972 C   0  0  0  0  0  0  0  0  0  0  0  0
   51.7383  -33.8568  -15.3567 N   0  0  0  0  0  0  0  0  0  0  0  0
   48.2442  -39.1780  -13.0476 N   0  0  0  0  0  0  0  0  0  0  0  0
   46.8828  -38.8430  -13.4951 C   0  0  0  0  0  0  0  0  0  0  0  0
   45.8240  -39.3399  -12.6372 C   0  0  0  0  0  0  0  0  0  0  0  0
   45.6680  -38.9120  -11.3479 C   0  0  0  0  0  0  0  0  0  0  0  0
   44.6583  -39.4073  -10.5360 C   0  0  0  0  0  0  0  0  0  0  0  0
   43.7784  -40.3492  -11.0080 C   0  0  0  0  0  0  0  0  0  0  0  0
   42.7181  -40.8596  -10.1462 C   0  0  0  0  0  0  0  0  0  0  0  0
   41.6224  -41.5658  -10.6881 N   0  0  0  0  0  0  0  0  0  0  0  0
   42.7719  -40.6713   -8.8810 N   0  0  0  0  0  0  0  0  0  0  0  0
   43.9204  -40.7976  -12.3179 C   0  0  0  0  0  0  0  0  0  0  0  0
   44.9278  -40.2892  -13.0946 C   0  0  0  0  0  0  0  0  0  0  0  0
   52.9830  -33.2734  -15.6578 C   0  0  0  0  0  0  0  0  0  0  0  0
   54.2672  -33.9243  -15.2381 C   0  0  0  0  0  0  0  0  0  0  0  0
   55.4198  -33.0466  -15.6174 C   0  0  0  0  0  0  0  0  0  0  0  0
   56.7317  -33.7545  -15.3185 C   0  0  0  0  0  0  0  0  0  0  0  0
   56.6406  -34.5525  -14.0739 C   0  0  0  0  0  0  0  0  0  0  0  0
   53.0160  -32.1875  -16.2899 O   0  0  0  0  0  0  0  0  0  0  0  0
   55.8974  -35.5941  -14.1420 O   0  0  0  0  0  0  0  0  0  0  0  0
   57.2756  -34.2766  -12.8683 N   0  0  0  0  0  0  0  0  0  0  0  0
   59.4267  -31.3157  -10.0644 C   0  0  0  0  0  0  0  0  0  0  0  0
   59.0787  -31.9012  -11.3129 C   0  0  0  0  0  0  0  0  0  0  0  0
   59.0602  -33.2589  -11.5130 C   0  0  0  0  0  0  0  0  0  0  0  0
   59.3963  -34.0197  -10.4282 C   0  0  0  0  0  0  0  0  0  0  0  0
   59.7452  -33.4366   -9.1760 C   0  0  0  0  0  0  0  0  0  0  0  0
   60.1323  -31.4304   -7.6618 C   0  0  0  0  0  0  0  0  0  0  0  0
   58.9182  -31.0009   -6.8727 C   0  0  0  0  0  0  0  0  0  0  0  0
   58.6791  -29.7634   -6.8968 O   0  0  0  0  0  0  0  0  0  0  0  0
   59.7663  -32.0782   -8.9771 C   0  0  0  0  0  0  0  0  0  0  0  0
   58.6984  -33.9086  -12.8270 C   0  0  0  0  0  0  0  0  0  0  0  0
   52.8680  -38.8190    2.3266 H   0  0  0  0  0  0  0  0  0  0  0  0
   47.9511  -33.3631    1.2372 H   0  0  0  0  0  0  0  0  0  0  0  0
   42.9421  -39.7407   -8.4696 H   0  0  0  0  0  0  0  0  0  0  0  0
  2  1  1  1
  3  2  1  0
  2  5  1  0
  3  4  2  0
 10  3  1  0
  5  6  1  0
  6  7  1  0
  7  8  1  0
  8  9  1  0
  9 74  1  0
 11 10  1  0
 12 11  1  0
 11 14  1  1
 12 13  2  0
 21 12  1  0
 14 15  1  0
 15 16  1  0
 16 17  1  0
 17 18  1  0
 18 19  1  0
 18 20  2  0
 22 21  1  0
 23 22  1  0
 22 25  1  1
 23 24  2  0
 32 23  1  0
 25 26  1  0
 26 27  1  0
 27 28  1  0
 28 29  1  0
 29 30  1  0
 29 31  2  0
 33 32  1  6
 33 34  1  0
 38 33  1  0
 34 35  1  6
 34 36  1  0
 34 37  1  0
 38 39  2  0
 40 38  1  0
 41 40  1  0
 41 42  1  6
 44 41  1  0
 42 43  2  0
 42 49  1  0
 45 44  1  0
 46 45  1  0
 47 46  1  0
 48 47  1  0
 60 48  1  0
 49 50  1  0
 50 51  1  0
 51 52  2  0
 51 59  1  0
 52 53  1  0
 53 54  2  0
 54 55  1  0
 58 54  1  0
 55 56  1  0
 55 57  2  0
 59 58  2  0
 61 60  1  0
 60 65  2  0
 62 61  1  0
 63 62  1  0
 64 63  1  0
 64 66  2  0
 67 64  1  0
 77 67  1  0
 69 68  2  0
 68 76  1  0
 70 69  1  0
 70 71  2  0
 70 77  1  0
 71 72  1  0
 72 76  2  0
 74 73  1  0
 73 76  1  0
 74 75  2  0
 20 78  1  0
 31 79  1  0
 57 80  1  0
M  CHG  1   1   1
M  END
$$$$
