
     RDKit          3D

 80 82  0  0  0  0  0  0  0  0999 V2000
   52.7334  -36.9004   -0.7361 N   0  0  0  0  0  4  0  0  0  0  0  0
   52.3114  -36.3657   -2.0425 C   0  0  2  0  0  0  0  0  0  0  0  0
   51.5203  -37.3577   -2.7721 C   0  0  0  0  0  0  0  0  0  0  0  0
   52.1451  -38.4770   -2.9753 O   0  0  0  0  0  0  0  0  0  0  0  0
   53.6327  -36.2320   -2.8377 C   0  0  0  0  0  0  0  0  0  0  0  0
   54.3358  -34.9902   -2.3415 C   0  0  0  0  0  0  0  0  0  0  0  0
   55.8203  -35.2420   -2.3571 C   0  0  0  0  0  0  0  0  0  0  0  0
   56.5520  -34.2165   -1.4861 C   0  0  0  0  0  0  0  0  0  0  0  0
   56.4216  -32.9522   -2.1672 N   0  0  0  0  0  0  0  0  0  0  0  0
   50.2074  -37.2768   -3.2753 N   0  0  0  0  0  0  0  0  0  0  0  0
   49.1425  -36.4003   -2.8700 C   0  0  2  0  0  0  0  0  0  0  0  0
   49.0700  -35.1238   -3.6199 C   0  0  0  0  0  0  0  0  0  0  0  0
   50.0563  -34.3185   -3.4704 O   0  0  0  0  0  0  0  0  0  0  0  0
   48.9093  -36.2674   -1.4054 C   0  0  0  0  0  0  0  0  0  0  0  0
   47.5042  -36.1095   -0.9410 C   0  0  0  0  0  0  0  0  0  0  0  0
   46.4475  -36.3638   -1.9677 C   0  0  0  0  0  0  0  0  0  0  0  0
   45.3385  -37.1365   -1.3754 N   0  0  0  0  0  0  0  0  0  0  0  0
   44.3122  -37.6242   -2.2152 C   0  0  0  0  0  0  0  0  0  0  0  0
   43.9856  -39.0124   -2.2968 N   0  0  0  0  0  0  0  0  0  0  0  0
   43.6357  -36.8001   -2.9409 N   0  0  0  0  0  0  0  0  0  0  0  0
   48.0120  -34.7223   -4.4798 N   0  0  0  0  0  0  0  0  0  0  0  0
   47.5368  -35.4416   -5.6332 C   0  0  2  0  0  0  0  0  0  0  0  0
   48.1500  -34.8742   -6.8870 C   0  0  0  0  0  0  0  0  0  0  0  0
   49.1029  -34.0287   -6.6836 O   0  0  0  0  0  0  0  0  0  0  0  0
   46.0444  -35.3928   -5.7053 C   0  0  0  0  0  0  0  0  0  0  0  0
   45.3225  -34.5748   -4.7190 C   0  0  0  0  0  0  0  0  0  0  0  0
   46.1107  -33.8526   -3.6761 C   0  0  0  0  0  0  0  0  0  0  0  0
   46.4059  -32.4795   -4.0696 N   0  0  0  0  0  0  0  0  0  0  0  0
   47.2560  -31.6843   -3.2636 C   0  0  0  0  0  0  0  0  0  0  0  0
   48.1663  -30.7690   -3.8562 N   0  0  0  0  0  0  0  0  0  0  0  0
   47.1743  -31.8187   -1.9629 N   0  0  0  0  0  0  0  0  0  0  0  0
   47.7695  -35.1905   -8.1996 N   0  0  0  0  0  0  0  0  0  0  0  0
   47.6856  -36.5006   -8.8060 C   0  0  1  0  0  0  0  0  0  0  0  0
   46.8139  -36.4110  -10.0095 C   0  0  1  0  0  0  0  0  0  0  0  0
   46.6703  -34.8967  -10.2941 C   0  0  0  0  0  0  0  0  0  0  0  0
   47.4761  -36.9276  -11.2852 C   0  0  0  0  0  0  0  0  0  0  0  0
   45.4098  -36.8917   -9.8297 C   0  0  0  0  0  0  0  0  0  0  0  0
   49.0271  -37.0828   -8.9669 C   0  0  0  0  0  0  0  0  0  0  0  0
   49.7376  -36.8791   -7.9006 O   0  0  0  0  0  0  0  0  0  0  0  0
   49.6281  -37.7807  -10.0122 N   0  0  0  0  0  0  0  0  0  0  0  0
   49.9625  -37.3737  -11.3453 C   0  0  2  0  0  0  0  0  0  0  0  0
   50.7225  -38.3858  -12.1166 C   0  0  0  0  0  0  0  0  0  0  0  0
   51.7674  -38.9200  -11.5621 O   0  0  0  0  0  0  0  0  0  0  0  0
   50.7085  -36.0456  -11.4186 C   0  0  0  0  0  0  0  0  0  0  0  0
   52.1708  -36.1642  -11.6278 C   0  0  0  0  0  0  0  0  0  0  0  0
   52.5549  -35.3027  -12.8384 C   0  0  0  0  0  0  0  0  0  0  0  0
   54.0445  -35.1644  -12.9889 C   0  0  0  0  0  0  0  0  0  0  0  0
   54.3759  -33.7783  -13.3069 N   0  0  0  0  0  0  0  0  0  0  0  0
   50.4663  -38.8672  -13.4045 N   0  0  0  0  0  0  0  0  0  0  0  0
   49.1395  -38.8009  -14.0380 C   0  0  0  0  0  0  0  0  0  0  0  0
   48.5900  -37.4636  -14.1540 C   0  0  0  0  0  0  0  0  0  0  0  0
   48.4035  -36.8536  -15.3636 C   0  0  0  0  0  0  0  0  0  0  0  0
   47.8894  -35.5686  -15.4567 C   0  0  0  0  0  0  0  0  0  0  0  0
   47.5496  -34.8665  -14.3273 C   0  0  0  0  0  0  0  0  0  0  0  0
   47.0061  -33.5175  -14.4380 C   0  0  0  0  0  0  0  0  0  0  0  0
   46.2160  -33.1447  -15.5470 N   0  0  0  0  0  0  0  0  0  0  0  0
   47.2413  -32.6529  -13.5235 N   0  0  0  0  0  0  0  0  0  0  0  0
   47.7318  -35.4700  -13.0865 C   0  0  0  0  0  0  0  0  0  0  0  0
   48.2418  -36.7400  -13.0276 C   0  0  0  0  0  0  0  0  0  0  0  0
   55.6306  -33.2131  -13.0127 C   0  0  0  0  0  0  0  0  0  0  0  0
   56.6358  -33.9475  -12.1766 C   0  0  0  0  0  0  0  0  0  0  0  0
   57.8363  -33.0787  -11.9603 C   0  0  0  0  0  0  0  0  0  0  0  0
   58.9167  -33.8589  -11.2284 C   0  0  0  0  0  0  0  0  0  0  0  0
   58.3307  -34.7710  -10.2190 C   0  0  0  0  0  0  0  0  0  0  0  0
   55.9110  -32.0725  -13.4600 O   0  0  0  0  0  0  0  0  0  0  0  0
   57.6879  -35.7737  -10.6916 O   0  0  0  0  0  0  0  0  0  0  0  0
   58.4155  -34.6372   -8.8378 N   0  0  0  0  0  0  0  0  0  0  0  0
   59.2112  -32.0436   -5.1100 C   0  0  0  0  0  0  0  0  0  0  0  0
   59.4081  -32.4914   -6.4455 C   0  0  0  0  0  0  0  0  0  0  0  0
   59.4830  -33.8215   -6.7756 C   0  0  0  0  0  0  0  0  0  0  0  0
   59.3519  -34.6962   -5.7334 C   0  0  0  0  0  0  0  0  0  0  0  0
   59.1543  -34.2512   -4.3945 C   0  0  0  0  0  0  0  0  0  0  0  0
   58.8740  -32.4178   -2.6545 C   0  0  0  0  0  0  0  0  0  0  0  0
   57.4404  -32.0243   -2.3882 C   0  0  0  0  0  0  0  0  0  0  0  0
   57.2229  -30.7826   -2.3789 O   0  0  0  0  0  0  0  0  0  0  0  0
   59.0824  -32.9203   -4.0643 C   0  0  0  0  0  0  0  0  0  0  0  0
   59.6945  -34.3262   -8.1827 C   0  0  0  0  0  0  0  0  0  0  0  0
   43.5216  -36.9274   -3.9775 H   0  0  0  0  0  0  0  0  0  0  0  0
   47.5864  -32.6912   -1.5301 H   0  0  0  0  0  0  0  0  0  0  0  0
   47.9225  -32.8225  -12.7677 H   0  0  0  0  0  0  0  0  0  0  0  0
  2  1  1  1
  3  2  1  0
  2  5  1  0
  3  4  2  0
 10  3  1  0
  5  6  1  0
  6  7  1  0
  7  8  1  0
  8  9  1  0
  9 74  1  0
 11 10  1  0
 12 11  1  0
 11 14  1  1
 12 13  2  0
 21 12  1  0
 14 15  1  0
 15 16  1  0
 16 17  1  0
 17 18  1  0
 18 19  1  0
 18 20  2  0
 22 21  1  0
 23 22  1  0
 22 25  1  6
 23 24  2  0
 32 23  1  0
 25 26  1  0
 26 27  1  0
 27 28  1  0
 28 29  1  0
 29 30  1  0
 29 31  2  0
 33 32  1  6
 33 34  1  0
 38 33  1  0
 34 35  1  6
 34 36  1  0
 34 37  1  0
 38 39  2  0
 40 38  1  0
 41 40  1  0
 41 42  1  1
 44 41  1  0
 42 43  2  0
 42 49  1  0
 45 44  1  0
 46 45  1  0
 47 46  1  0
 48 47  1  0
 60 48  1  0
 49 50  1  0
 50 51  1  0
 51 52  2  0
 51 59  1  0
 52 53  1  0
 53 54  2  0
 54 55  1  0
 58 54  1  0
 55 56  1  0
 55 57  2  0
 59 58  2  0
 61 60  1  0
 60 65  2  0
 62 61  1  0
 63 62  1  0
 64 63  1  0
 64 66  2  0
 67 64  1  0
 77 67  1  0
 69 68  2  0
 68 76  1  0
 70 69  1  0
 70 71  2  0
 70 77  1  0
 71 72  1  0
 72 76  2  0
 74 73  1  0
 73 76  1  0
 74 75  2  0
 20 78  1  0
 31 79  1  0
 57 80  1  0
M  CHG  1   1   1
M  END
$$$$
