
     RDKit          3D

 80 82  0  0  0  0  0  0  0  0999 V2000
   56.5812  -37.5343   -3.2402 N   0  0  0  0  0  4  0  0  0  0  0  0
   55.5856  -36.7968   -4.0373 C   0  0  2  0  0  0  0  0  0  0  0  0
   54.2739  -37.4392   -3.9423 C   0  0  0  0  0  0  0  0  0  0  0  0
   54.2691  -38.6770   -4.3330 O   0  0  0  0  0  0  0  0  0  0  0  0
   56.0415  -37.0134   -5.5006 C   0  0  0  0  0  0  0  0  0  0  0  0
   57.2097  -36.0890   -5.7522 C   0  0  0  0  0  0  0  0  0  0  0  0
   58.1783  -36.7816   -6.6738 C   0  0  0  0  0  0  0  0  0  0  0  0
   59.5492  -36.1001   -6.6287 C   0  0  0  0  0  0  0  0  0  0  0  0
   59.3706  -34.8080   -7.2435 N   0  0  0  0  0  0  0  0  0  0  0  0
   53.0419  -36.9213   -3.4981 N   0  0  0  0  0  0  0  0  0  0  0  0
   52.7984  -35.7947   -2.6390 C   0  0  2  0  0  0  0  0  0  0  0  0
   52.6194  -34.5035   -3.3445 C   0  0  0  0  0  0  0  0  0  0  0  0
   53.6402  -34.0532   -3.9760 O   0  0  0  0  0  0  0  0  0  0  0  0
   53.6212  -35.7104   -1.4009 C   0  0  0  0  0  0  0  0  0  0  0  0
   52.9068  -35.7079   -0.0953 C   0  0  0  0  0  0  0  0  0  0  0  0
   51.5057  -35.1865   -0.1217 C   0  0  0  0  0  0  0  0  0  0  0  0
   50.5637  -36.2760   -0.4434 N   0  0  0  0  0  0  0  0  0  0  0  0
   49.2400  -36.2101    0.0463 C   0  0  0  0  0  0  0  0  0  0  0  0
   48.1073  -36.5201   -0.7668 N   0  0  0  0  0  0  0  0  0  0  0  0
   49.0286  -35.8595    1.2694 N   0  0  0  0  0  0  0  0  0  0  0  0
   51.4263  -33.7320   -3.3790 N   0  0  0  0  0  0  0  0  0  0  0  0
   50.1397  -34.1796   -3.8455 C   0  0  2  0  0  0  0  0  0  0  0  0
   49.9193  -33.7324   -5.2672 C   0  0  0  0  0  0  0  0  0  0  0  0
   50.9627  -33.2380   -5.8425 O   0  0  0  0  0  0  0  0  0  0  0  0
   49.0514  -33.6705   -2.9560 C   0  0  0  0  0  0  0  0  0  0  0  0
   49.4216  -32.8249   -1.8110 C   0  0  0  0  0  0  0  0  0  0  0  0
   50.3308  -31.6634   -2.0453 C   0  0  0  0  0  0  0  0  0  0  0  0
   50.8356  -31.1058   -0.7956 N   0  0  0  0  0  0  0  0  0  0  0  0
   50.5222  -29.7706   -0.4440 C   0  0  0  0  0  0  0  0  0  0  0  0
   50.0146  -29.4627    0.8465 N   0  0  0  0  0  0  0  0  0  0  0  0
   50.7161  -28.8357   -1.3411 N   0  0  0  0  0  0  0  0  0  0  0  0
   48.7095  -33.8145   -5.9727 N   0  0  0  0  0  0  0  0  0  0  0  0
   47.8884  -34.9849   -6.1894 C   0  0  1  0  0  0  0  0  0  0  0  0
   46.5163  -34.5399   -6.5577 C   0  0  1  0  0  0  0  0  0  0  0  0
   45.9214  -33.9438   -5.2593 C   0  0  0  0  0  0  0  0  0  0  0  0
   46.4947  -33.3470   -7.5114 C   0  0  0  0  0  0  0  0  0  0  0  0
   45.5635  -35.6264   -6.9402 C   0  0  0  0  0  0  0  0  0  0  0  0
   48.5687  -35.9359   -7.0822 C   0  0  0  0  0  0  0  0  0  0  0  0
   49.8203  -36.0427   -6.7572 O   0  0  0  0  0  0  0  0  0  0  0  0
   48.1193  -36.7015   -8.1558 N   0  0  0  0  0  0  0  0  0  0  0  0
   47.6051  -36.3148   -9.4368 C   0  0  2  0  0  0  0  0  0  0  0  0
   47.3573  -37.4483  -10.3591 C   0  0  0  0  0  0  0  0  0  0  0  0
   48.3380  -38.2621  -10.6057 O   0  0  0  0  0  0  0  0  0  0  0  0
   48.4584  -35.2777  -10.1592 C   0  0  0  0  0  0  0  0  0  0  0  0
   49.3232  -35.8221  -11.2324 C   0  0  0  0  0  0  0  0  0  0  0  0
   49.0515  -35.0289  -12.5179 C   0  0  0  0  0  0  0  0  0  0  0  0
   50.0460  -35.3425  -13.6012 C   0  0  0  0  0  0  0  0  0  0  0  0
   50.4636  -34.1044  -14.2529 N   0  0  0  0  0  0  0  0  0  0  0  0
   46.1744  -37.7807  -11.0270 N   0  0  0  0  0  0  0  0  0  0  0  0
   44.8616  -37.8236  -10.3631 C   0  0  0  0  0  0  0  0  0  0  0  0
   44.6511  -38.9787   -9.5115 C   0  0  0  0  0  0  0  0  0  0  0  0
   45.2241  -40.1924   -9.7732 C   0  0  0  0  0  0  0  0  0  0  0  0
   45.0018  -41.2911   -8.9561 C   0  0  0  0  0  0  0  0  0  0  0  0
   44.1936  -41.1905   -7.8513 C   0  0  0  0  0  0  0  0  0  0  0  0
   43.9707  -42.3516   -6.9973 C   0  0  0  0  0  0  0  0  0  0  0  0
   44.5956  -43.5862   -7.2771 N   0  0  0  0  0  0  0  0  0  0  0  0
   43.2012  -42.2614   -5.9779 N   0  0  0  0  0  0  0  0  0  0  0  0
   43.6011  -39.9634   -7.5677 C   0  0  0  0  0  0  0  0  0  0  0  0
   43.8400  -38.8972   -8.3939 C   0  0  0  0  0  0  0  0  0  0  0  0
   51.7006  -33.9754  -14.9114 C   0  0  0  0  0  0  0  0  0  0  0  0
   52.7474  -35.0447  -14.8133 C   0  0  0  0  0  0  0  0  0  0  0  0
   53.9808  -34.6050  -15.5400 C   0  0  0  0  0  0  0  0  0  0  0  0
   55.0002  -35.7328  -15.5620 C   0  0  0  0  0  0  0  0  0  0  0  0
   54.9844  -36.4966  -14.2930 C   0  0  0  0  0  0  0  0  0  0  0  0
   51.9294  -32.9445  -15.5933 O   0  0  0  0  0  0  0  0  0  0  0  0
   53.9413  -37.2144  -14.0964 O   0  0  0  0  0  0  0  0  0  0  0  0
   55.9782  -36.5023  -13.3207 N   0  0  0  0  0  0  0  0  0  0  0  0
   59.6889  -34.5734  -11.3801 C   0  0  0  0  0  0  0  0  0  0  0  0
   58.8356  -34.9554  -12.4519 C   0  0  0  0  0  0  0  0  0  0  0  0
   58.3004  -36.2148  -12.5577 C   0  0  0  0  0  0  0  0  0  0  0  0
   58.6380  -37.0850  -11.5591 C   0  0  0  0  0  0  0  0  0  0  0  0
   59.4922  -36.7057  -10.4838 C   0  0  0  0  0  0  0  0  0  0  0  0
   60.9386  -35.0148   -9.2525 C   0  0  0  0  0  0  0  0  0  0  0  0
   60.2084  -34.2228   -8.1939 C   0  0  0  0  0  0  0  0  0  0  0  0
   60.4098  -32.9788   -8.2273 O   0  0  0  0  0  0  0  0  0  0  0  0
   60.0298  -35.4465  -10.3800 C   0  0  0  0  0  0  0  0  0  0  0  0
   57.3950  -36.6497  -13.6849 C   0  0  0  0  0  0  0  0  0  0  0  0
   49.5328  -35.0544    1.7181 H   0  0  0  0  0  0  0  0  0  0  0  0
   51.1012  -27.9076   -1.0114 H   0  0  0  0  0  0  0  0  0  0  0  0
   42.3705  -41.6498   -5.9676 H   0  0  0  0  0  0  0  0  0  0  0  0
  2  1  1  1
  3  2  1  0
  2  5  1  0
  3  4  2  0
 10  3  1  0
  5  6  1  0
  6  7  1  0
  7  8  1  0
  8  9  1  0
  9 74  1  0
 11 10  1  0
 12 11  1  0
 11 14  1  1
 12 13  2  0
 21 12  1  0
 14 15  1  0
 15 16  1  0
 16 17  1  0
 17 18  1  0
 18 19  1  0
 18 20  2  0
 22 21  1  0
 23 22  1  0
 22 25  1  1
 23 24  2  0
 32 23  1  0
 25 26  1  0
 26 27  1  0
 27 28  1  0
 28 29  1  0
 29 30  1  0
 29 31  2  0
 33 32  1  6
 33 34  1  0
 38 33  1  0
 34 35  1  1
 34 36  1  0
 34 37  1  0
 38 39  2  0
 40 38  1  0
 41 40  1  0
 41 42  1  6
 44 41  1  0
 42 43  2  0
 42 49  1  0
 45 44  1  0
 46 45  1  0
 47 46  1  0
 48 47  1  0
 60 48  1  0
 49 50  1  0
 50 51  1  0
 51 52  2  0
 51 59  1  0
 52 53  1  0
 53 54  2  0
 54 55  1  0
 58 54  1  0
 55 56  1  0
 55 57  2  0
 59 58  2  0
 61 60  1  0
 60 65  2  0
 62 61  1  0
 63 62  1  0
 64 63  1  0
 64 66  2  0
 67 64  1  0
 77 67  1  0
 69 68  2  0
 68 76  1  0
 70 69  1  0
 70 71  2  0
 70 77  1  0
 71 72  1  0
 72 76  2  0
 74 73  1  0
 73 76  1  0
 74 75  2  0
 20 78  1  0
 31 79  1  0
 57 80  1  0
M  CHG  1   1   1
M  END
$$$$
