
     RDKit          3D

 80 82  0  0  0  0  0  0  0  0999 V2000
   54.4293  -31.1035   -3.3528 N   0  0  0  0  0  4  0  0  0  0  0  0
   54.0389  -32.1237   -4.3413 C   0  0  2  0  0  0  0  0  0  0  0  0
   53.0520  -31.5815   -5.2764 C   0  0  0  0  0  0  0  0  0  0  0  0
   51.9748  -31.1413   -4.7017 O   0  0  0  0  0  0  0  0  0  0  0  0
   53.2743  -33.1805   -3.5079 C   0  0  0  0  0  0  0  0  0  0  0  0
   54.3028  -34.0092   -2.7746 C   0  0  0  0  0  0  0  0  0  0  0  0
   53.7465  -34.3783   -1.4250 C   0  0  0  0  0  0  0  0  0  0  0  0
   54.8660  -34.8365   -0.4855 C   0  0  0  0  0  0  0  0  0  0  0  0
   55.3327  -36.0965   -1.0090 N   0  0  0  0  0  0  0  0  0  0  0  0
   53.0998  -31.4699   -6.6795 N   0  0  0  0  0  0  0  0  0  0  0  0
   54.2505  -31.4564   -7.5410 C   0  0  2  0  0  0  0  0  0  0  0  0
   54.6655  -32.7878   -8.0432 C   0  0  0  0  0  0  0  0  0  0  0  0
   55.0858  -33.6220   -7.1652 O   0  0  0  0  0  0  0  0  0  0  0  0
   55.3783  -30.5739   -7.1331 C   0  0  0  0  0  0  0  0  0  0  0  0
   56.5754  -31.2180   -6.5272 C   0  0  0  0  0  0  0  0  0  0  0  0
   56.3258  -32.5003   -5.7999 C   0  0  0  0  0  0  0  0  0  0  0  0
   55.7274  -32.2274   -4.4788 N   0  0  0  0  0  0  0  0  0  0  0  0
   54.4206  -32.6898   -4.2049 C   0  0  0  0  0  0  0  0  0  0  0  0
   54.1525  -33.6811   -3.2121 N   0  0  0  0  0  0  0  0  0  0  0  0
   53.4223  -32.2101   -4.8657 N   0  0  0  0  0  0  0  0  0  0  0  0
   54.6372  -33.2119   -9.3994 N   0  0  0  0  0  0  0  0  0  0  0  0
   53.4810  -33.2346  -10.2573 C   0  0  2  0  0  0  0  0  0  0  0  0
   52.8912  -34.6205  -10.2961 C   0  0  0  0  0  0  0  0  0  0  0  0
   53.3840  -35.4383   -9.4286 O   0  0  0  0  0  0  0  0  0  0  0  0
   53.8381  -32.7729  -11.6336 C   0  0  0  0  0  0  0  0  0  0  0  0
   54.9302  -31.7994  -11.7837 C   0  0  0  0  0  0  0  0  0  0  0  0
   56.0872  -31.8731  -10.8421 C   0  0  0  0  0  0  0  0  0  0  0  0
   57.1578  -32.7178  -11.3595 N   0  0  0  0  0  0  0  0  0  0  0  0
   58.4107  -32.7476  -10.7005 C   0  0  0  0  0  0  0  0  0  0  0  0
   59.3990  -33.6992  -11.0686 N   0  0  0  0  0  0  0  0  0  0  0  0
   58.6268  -31.8740   -9.7483 N   0  0  0  0  0  0  0  0  0  0  0  0
   51.8884  -35.0588  -11.1736 N   0  0  0  0  0  0  0  0  0  0  0  0
   50.5844  -34.4730  -11.3918 C   0  0  1  0  0  0  0  0  0  0  0  0
   50.0616  -34.9536  -12.7002 C   0  0  1  0  0  0  0  0  0  0  0  0
   48.5360  -34.6998  -12.6449 C   0  0  0  0  0  0  0  0  0  0  0  0
   50.4983  -34.0963  -13.8865 C   0  0  0  0  0  0  0  0  0  0  0  0
   50.1868  -36.4225  -12.9479 C   0  0  0  0  0  0  0  0  0  0  0  0
   49.7346  -34.6455  -10.2033 C   0  0  0  0  0  0  0  0  0  0  0  0
   50.4121  -34.3971   -9.1250 O   0  0  0  0  0  0  0  0  0  0  0  0
   48.3980  -35.0069  -10.0496 N   0  0  0  0  0  0  0  0  0  0  0  0
   47.7120  -36.2270  -10.3587 C   0  0  2  0  0  0  0  0  0  0  0  0
   46.2977  -36.2574   -9.9163 C   0  0  0  0  0  0  0  0  0  0  0  0
   45.9722  -35.5772   -8.8598 O   0  0  0  0  0  0  0  0  0  0  0  0
   48.4109  -37.4790   -9.8394 C   0  0  0  0  0  0  0  0  0  0  0  0
   47.8246  -38.0519   -8.6047 C   0  0  0  0  0  0  0  0  0  0  0  0
   47.5273  -39.5362   -8.8574 C   0  0  0  0  0  0  0  0  0  0  0  0
   47.1539  -40.2646   -7.5960 C   0  0  0  0  0  0  0  0  0  0  0  0
   47.8335  -41.5565   -7.5597 N   0  0  0  0  0  0  0  0  0  0  0  0
   45.2220  -36.9385  -10.4952 N   0  0  0  0  0  0  0  0  0  0  0  0
   43.8301  -36.7710  -10.0472 C   0  0  0  0  0  0  0  0  0  0  0  0
   43.5733  -37.2140   -8.6902 C   0  0  0  0  0  0  0  0  0  0  0  0
   42.7320  -38.2547   -8.4091 C   0  0  0  0  0  0  0  0  0  0  0  0
   42.4864  -38.6573   -7.1046 C   0  0  0  0  0  0  0  0  0  0  0  0
   43.0867  -38.0173   -6.0491 C   0  0  0  0  0  0  0  0  0  0  0  0
   42.8239  -38.4524   -4.6820 C   0  0  0  0  0  0  0  0  0  0  0  0
   41.9033  -39.4893   -4.4171 N   0  0  0  0  0  0  0  0  0  0  0  0
   43.4308  -37.8946   -3.7023 N   0  0  0  0  0  0  0  0  0  0  0  0
   43.9466  -36.9556   -6.3143 C   0  0  0  0  0  0  0  0  0  0  0  0
   44.1686  -36.5817   -7.6134 C   0  0  0  0  0  0  0  0  0  0  0  0
   48.1148  -42.2303   -6.3567 C   0  0  0  0  0  0  0  0  0  0  0  0
   47.9065  -41.5667   -5.0282 C   0  0  0  0  0  0  0  0  0  0  0  0
   48.3627  -42.4826   -3.9348 C   0  0  0  0  0  0  0  0  0  0  0  0
   48.0339  -41.8772   -2.5794 C   0  0  0  0  0  0  0  0  0  0  0  0
   48.2118  -40.4067   -2.5901 C   0  0  0  0  0  0  0  0  0  0  0  0
   48.5483  -43.4094   -6.3996 O   0  0  0  0  0  0  0  0  0  0  0  0
   47.3519  -39.7541   -3.2806 O   0  0  0  0  0  0  0  0  0  0  0  0
   49.2056  -39.6907   -1.9324 N   0  0  0  0  0  0  0  0  0  0  0  0
   53.3156  -39.5394    0.1511 C   0  0  0  0  0  0  0  0  0  0  0  0
   52.0616  -40.1078   -0.2056 C   0  0  0  0  0  0  0  0  0  0  0  0
   50.8884  -39.3970   -0.1606 C   0  0  0  0  0  0  0  0  0  0  0  0
   51.0012  -38.0976    0.2482 C   0  0  0  0  0  0  0  0  0  0  0  0
   52.2557  -37.5248    0.6060 C   0  0  0  0  0  0  0  0  0  0  0  0
   54.7737  -37.6580    0.9370 C   0  0  0  0  0  0  0  0  0  0  0  0
   55.5840  -37.2547   -0.2721 C   0  0  0  0  0  0  0  0  0  0  0  0
   56.5167  -38.0468   -0.5751 O   0  0  0  0  0  0  0  0  0  0  0  0
   53.4288  -38.2371    0.5636 C   0  0  0  0  0  0  0  0  0  0  0  0
   49.5430  -39.9742   -0.5298 C   0  0  0  0  0  0  0  0  0  0  0  0
   52.9416  -32.7501   -5.6279 H   0  0  0  0  0  0  0  0  0  0  0  0
   58.8696  -32.2417   -8.7870 H   0  0  0  0  0  0  0  0  0  0  0  0
   43.9266  -38.4392   -2.9799 H   0  0  0  0  0  0  0  0  0  0  0  0
  2  1  1  1
  3  2  1  0
  2  5  1  0
  3  4  2  0
 10  3  1  0
  5  6  1  0
  6  7  1  0
  7  8  1  0
  8  9  1  0
  9 74  1  0
 11 10  1  0
 12 11  1  0
 11 14  1  1
 12 13  2  0
 21 12  1  0
 14 15  1  0
 15 16  1  0
 16 17  1  0
 17 18  1  0
 18 19  1  0
 18 20  2  0
 22 21  1  0
 23 22  1  0
 22 25  1  6
 23 24  2  0
 32 23  1  0
 25 26  1  0
 26 27  1  0
 27 28  1  0
 28 29  1  0
 29 30  1  0
 29 31  2  0
 33 32  1  1
 33 34  1  0
 38 33  1  0
 34 35  1  1
 34 36  1  0
 34 37  1  0
 38 39  2  0
 40 38  1  0
 41 40  1  0
 41 42  1  1
 44 41  1  0
 42 43  2  0
 42 49  1  0
 45 44  1  0
 46 45  1  0
 47 46  1  0
 48 47  1  0
 60 48  1  0
 49 50  1  0
 50 51  1  0
 51 52  2  0
 51 59  1  0
 52 53  1  0
 53 54  2  0
 54 55  1  0
 58 54  1  0
 55 56  1  0
 55 57  2  0
 59 58  2  0
 61 60  1  0
 60 65  2  0
 62 61  1  0
 63 62  1  0
 64 63  1  0
 64 66  2  0
 67 64  1  0
 77 67  1  0
 69 68  2  0
 68 76  1  0
 70 69  1  0
 70 71  2  0
 70 77  1  0
 71 72  1  0
 72 76  2  0
 74 73  1  0
 73 76  1  0
 74 75  2  0
 20 78  1  0
 31 79  1  0
 57 80  1  0
M  CHG  1   1   1
M  END
$$$$
