
     RDKit          3D

 70 70  0  0  0  0  0  0  0  0999 V2000
  -12.6886  -35.7147    3.1303 N   0  0  0  0  0  4  0  0  0  0  0  0
  -11.2742  -35.8577    3.3089 C   0  0  2  0  0  0  0  0  0  0  0  0
  -10.4801  -35.2489    2.2167 C   0  0  0  0  0  0  0  0  0  0  0  0
  -10.9747  -35.0949    1.0560 O   0  0  0  0  0  0  0  0  0  0  0  0
  -10.8134  -37.2762    3.5108 C   0  0  0  0  0  0  0  0  0  0  0  0
   -9.1146  -34.7973    2.3854 N   0  0  0  0  0  0  0  0  0  0  0  0
   -8.7127  -33.6579    1.6253 C   0  0  2  0  0  0  0  0  0  0  0  0
   -7.2383  -33.3808    1.8645 C   0  0  0  0  0  0  0  0  0  0  0  0
   -6.9104  -32.2055    2.1512 O   0  0  0  0  0  0  0  0  0  0  0  0
   -9.5068  -32.4173    1.8425 C   0  0  0  0  0  0  0  0  0  0  0  0
  -10.3802  -32.2768    3.0092 C   0  0  0  0  0  0  0  0  0  0  0  0
  -10.5462  -30.9645    3.6676 C   0  0  0  0  0  0  0  0  0  0  0  0
  -11.4921  -30.9542    4.8550 C   0  0  0  0  0  0  0  0  0  0  0  0
  -11.5708  -29.6260    5.4441 N   0  0  0  0  0  4  0  0  0  0  0  0
   -6.2891  -34.3641    1.7798 N   0  0  0  0  0  0  0  0  0  0  0  0
   -5.3356  -34.6030    0.7688 C   0  0  2  0  0  0  0  0  0  0  0  0
   -4.1896  -33.7245    1.0183 C   0  0  0  0  0  0  0  0  0  0  0  0
   -3.4534  -34.0077    2.0456 O   0  0  0  0  0  0  0  0  0  0  0  0
   -5.8452  -34.3653   -0.6390 C   0  0  0  0  0  0  0  0  0  0  0  0
   -4.9599  -35.0806   -1.6568 C   0  0  0  0  0  0  0  0  0  0  0  0
   -5.1146  -36.5368   -1.6041 C   0  0  0  0  0  0  0  0  0  0  0  0
   -4.0441  -37.2122   -1.3085 O   0  0  0  0  0  0  0  0  0  0  0  0
   -6.2582  -37.2926   -1.8378 N   0  0  0  0  0  0  0  0  0  0  0  0
   -3.7558  -32.5967    0.3056 N   0  0  0  0  0  0  0  0  0  0  0  0
   -2.6463  -31.7740    0.7800 C   0  0  2  0  0  0  0  0  0  0  0  0
   -2.4216  -30.5759   -0.0989 C   0  0  0  0  0  0  0  0  0  0  0  0
   -1.6672  -30.7083   -1.0816 O   0  0  0  0  0  0  0  0  0  0  0  0
   -1.4019  -32.5918    0.7712 C   0  0  2  0  0  0  0  0  0  0  0  0
   -1.1979  -33.0022   -0.5721 O   0  0  0  0  0  0  0  0  0  0  0  0
   -1.4569  -33.8478    1.5944 C   0  0  0  0  0  0  0  0  0  0  0  0
   -3.0379  -29.3465    0.1626 N   0  0  0  0  0  0  0  0  0  0  0  0
   -3.0651  -28.2839   -0.7939 C   0  0  2  0  0  0  0  0  0  0  0  0
   -3.3244  -26.9714   -0.1848 C   0  0  0  0  0  0  0  0  0  0  0  0
   -3.1799  -26.7848    1.0699 O   0  0  0  0  0  0  0  0  0  0  0  0
   -4.1592  -28.5967   -1.8374 C   0  0  0  0  0  0  0  0  0  0  0  0
   -3.7420  -25.8791   -0.9909 N   0  0  0  0  0  0  0  0  0  0  0  0
   -3.4900  -24.5077   -0.5372 C   0  0  2  0  0  0  0  0  0  0  0  0
   -3.0056  -23.6499   -1.6200 C   0  0  0  0  0  0  0  0  0  0  0  0
   -2.0113  -24.0390   -2.3174 O   0  0  0  0  0  0  0  0  0  0  0  0
   -2.7284  -24.4854    0.7532 C   0  0  0  0  0  0  0  0  0  0  0  0
   -1.2503  -24.6223    0.6236 C   0  0  0  0  0  0  0  0  0  0  0  0
   -0.5426  -23.7147    1.5765 C   0  0  0  0  0  0  0  0  0  0  0  0
    0.5599  -24.2289    2.2994 N   0  0  0  0  0  0  0  0  0  0  0  0
    0.5857  -24.2290    3.7126 C   0  0  0  0  0  0  0  0  0  0  0  0
   -0.5293  -24.0123    4.3561 N   0  0  0  0  0  0  0  0  0  0  0  0
    1.8178  -24.4660    4.3921 N   0  0  0  0  0  0  0  0  0  0  0  0
   -3.5596  -22.4024   -1.9802 N   0  0  0  0  0  0  0  0  0  0  0  0
   -3.0334  -21.6584   -3.1437 C   0  0  2  0  0  0  0  0  0  0  0  0
   -2.2690  -20.5110   -2.6363 C   0  0  0  0  0  0  0  0  0  0  0  0
   -2.3748  -20.1775   -1.4014 O   0  0  0  0  0  0  0  0  0  0  0  0
   -4.3152  -21.1687   -3.8290 C   0  0  0  0  0  0  0  0  0  0  0  0
   -5.5734  -21.5684   -3.1536 C   0  0  0  0  0  0  0  0  0  0  0  0
   -6.8244  -20.9595   -3.7156 C   0  0  0  0  0  0  0  0  0  0  0  0
   -8.0233  -21.7137   -3.1245 C   0  0  0  0  0  0  0  0  0  0  0  0
   -9.2520  -21.3200   -3.7348 N   0  0  0  0  0  4  0  0  0  0  0  0
  -10.4237  -21.7734   -3.0022 C   0  0  0  0  0  0  0  0  0  0  0  0
  -11.4682  -22.1916   -3.9897 C   0  0  0  0  0  0  0  0  0  0  0  0
  -12.5305  -21.3744   -4.2788 C   0  0  0  0  0  0  0  0  0  0  0  0
  -13.4849  -21.7353   -5.1952 C   0  0  0  0  0  0  0  0  0  0  0  0
  -13.3525  -22.9569   -5.8328 C   0  0  0  0  0  0  0  0  0  0  0  0
  -12.2886  -23.7826   -5.5490 C   0  0  0  0  0  0  0  0  0  0  0  0
  -11.3355  -23.4028   -4.6191 C   0  0  0  0  0  0  0  0  0  0  0  0
   -1.4129  -19.7598   -3.4496 N   0  0  0  0  0  0  0  0  0  0  0  0
   -0.6937  -18.6271   -2.9131 C   0  0  2  0  0  0  0  0  0  0  0  0
    0.5700  -18.9558   -2.2633 C   0  0  0  0  0  0  0  0  0  0  0  0
    1.6655  -19.0376   -2.9295 O   0  0  0  0  0  0  0  0  0  0  0  0
   -1.6404  -17.8365   -1.9879 C   0  0  0  0  0  0  0  0  0  0  0  0
   -2.0792  -16.7607   -2.7827 O   0  0  0  0  0  0  0  0  0  0  0  0
    0.6384  -19.1915   -0.9091 O   0  0  0  0  0  0  0  0  0  0  0  0
   -0.6831  -24.3183    5.3437 H   0  0  0  0  0  0  0  0  0  0  0  0
  1  2  1  0
  2  3  1  0
  2  5  1  6
  3  4  2  0
  3  6  1  0
  6  7  1  0
  7  8  1  0
  7 10  1  1
  8  9  2  0
  8 15  1  0
 10 11  1  0
 11 12  1  0
 12 13  1  0
 13 14  1  0
 15 16  1  0
 16 17  1  0
 16 19  1  6
 17 18  2  0
 17 24  1  0
 19 20  1  0
 20 21  1  0
 21 22  2  0
 21 23  1  0
 25 24  1  6
 25 26  1  0
 25 28  1  0
 26 27  2  0
 26 31  1  0
 28 29  1  0
 28 30  1  1
 31 32  1  0
 32 33  1  0
 32 35  1  6
 33 34  2  0
 33 36  1  0
 36 37  1  0
 37 38  1  0
 37 40  1  1
 38 39  2  0
 38 47  1  0
 40 41  1  0
 41 42  1  0
 42 43  1  0
 43 44  1  0
 44 45  2  0
 44 46  1  0
 47 48  1  0
 48 49  1  0
 48 51  1  6
 49 50  2  0
 49 63  1  0
 51 52  1  0
 52 53  1  0
 53 54  1  0
 54 55  1  0
 55 56  1  0
 56 57  1  0
 57 58  2  0
 57 62  1  0
 58 59  1  0
 59 60  2  0
 60 61  1  0
 61 62  2  0
 63 64  1  0
 64 65  1  0
 64 67  1  1
 65 66  2  0
 65 69  1  0
 67 68  1  0
 45 70  1  0
M  CHG  3   1   1  14   1  55   1
M  END
$$$$
