
     RDKit          3D

 70 70  0  0  0  0  0  0  0  0999 V2000
   -9.6231  -34.8353   -1.3903 N   0  0  0  0  0  4  0  0  0  0  0  0
   -8.8398  -35.0821   -0.2162 C   0  0  2  0  0  0  0  0  0  0  0  0
   -7.3802  -35.0161   -0.4599 C   0  0  0  0  0  0  0  0  0  0  0  0
   -6.7173  -36.0617   -0.7477 O   0  0  0  0  0  0  0  0  0  0  0  0
   -9.1569  -36.3774    0.4816 C   0  0  0  0  0  0  0  0  0  0  0  0
   -6.6188  -33.7865   -0.3877 N   0  0  0  0  0  0  0  0  0  0  0  0
   -5.7064  -33.5284   -1.4547 C   0  0  2  0  0  0  0  0  0  0  0  0
   -5.0016  -32.2046   -1.2126 C   0  0  0  0  0  0  0  0  0  0  0  0
   -5.7172  -31.1826   -1.0921 O   0  0  0  0  0  0  0  0  0  0  0  0
   -6.2845  -33.5553   -2.8265 C   0  0  0  0  0  0  0  0  0  0  0  0
   -5.5862  -32.9285   -3.9503 C   0  0  0  0  0  0  0  0  0  0  0  0
   -6.1223  -31.7018   -4.5759 C   0  0  0  0  0  0  0  0  0  0  0  0
   -5.3238  -31.1784   -5.7562 C   0  0  0  0  0  0  0  0  0  0  0  0
   -5.5519  -31.9939   -6.9394 N   0  0  0  0  0  4  0  0  0  0  0  0
   -3.6385  -32.1108   -1.1214 N   0  0  0  0  0  0  0  0  0  0  0  0
   -2.8508  -31.3738   -0.2133 C   0  0  2  0  0  0  0  0  0  0  0  0
   -3.0160  -29.9525   -0.5290 C   0  0  0  0  0  0  0  0  0  0  0  0
   -3.6429  -29.6703   -1.6267 O   0  0  0  0  0  0  0  0  0  0  0  0
   -1.3752  -31.7199   -0.2427 C   0  0  0  0  0  0  0  0  0  0  0  0
   -1.1810  -33.2340   -0.2811 C   0  0  0  0  0  0  0  0  0  0  0  0
   -1.5201  -33.8718    0.9938 C   0  0  0  0  0  0  0  0  0  0  0  0
   -1.9236  -35.1054    0.9230 O   0  0  0  0  0  0  0  0  0  0  0  0
   -1.4745  -33.3255    2.2718 N   0  0  0  0  0  0  0  0  0  0  0  0
   -2.5891  -28.8226    0.1846 N   0  0  0  0  0  0  0  0  0  0  0  0
   -2.9844  -27.4741   -0.2130 C   0  0  2  0  0  0  0  0  0  0  0  0
   -2.3070  -26.4231    0.6205 C   0  0  0  0  0  0  0  0  0  0  0  0
   -1.6088  -26.8021    1.5804 O   0  0  0  0  0  0  0  0  0  0  0  0
   -4.4552  -27.3297   -0.0307 C   0  0  2  0  0  0  0  0  0  0  0  0
   -4.7193  -27.5866    1.3400 O   0  0  0  0  0  0  0  0  0  0  0  0
   -5.2945  -28.3000   -0.8131 C   0  0  0  0  0  0  0  0  0  0  0  0
   -2.4424  -25.0592    0.3359 N   0  0  0  0  0  0  0  0  0  0  0  0
   -1.8462  -24.0439    1.1475 C   0  0  2  0  0  0  0  0  0  0  0  0
   -2.2763  -22.6881    0.7767 C   0  0  0  0  0  0  0  0  0  0  0  0
   -2.3457  -22.3279   -0.4462 O   0  0  0  0  0  0  0  0  0  0  0  0
   -0.3119  -24.1553    1.0166 C   0  0  0  0  0  0  0  0  0  0  0  0
   -2.6267  -21.7490    1.7830 N   0  0  0  0  0  0  0  0  0  0  0  0
   -3.1923  -20.4525    1.3966 C   0  0  2  0  0  0  0  0  0  0  0  0
   -2.1844  -19.3907    1.3951 C   0  0  0  0  0  0  0  0  0  0  0  0
   -0.9539  -19.7083    1.2884 O   0  0  0  0  0  0  0  0  0  0  0  0
   -4.4811  -20.1785    2.1104 C   0  0  0  0  0  0  0  0  0  0  0  0
   -5.0450  -18.8143    1.9073 C   0  0  0  0  0  0  0  0  0  0  0  0
   -6.0891  -18.5083    2.9312 C   0  0  0  0  0  0  0  0  0  0  0  0
   -7.3815  -18.1447    2.4837 N   0  0  0  0  0  0  0  0  0  0  0  0
   -8.4069  -17.7873    3.3885 C   0  0  0  0  0  0  0  0  0  0  0  0
   -8.9962  -18.7337    4.0676 N   0  0  0  0  0  0  0  0  0  0  0  0
   -8.7658  -16.4142    3.5358 N   0  0  0  0  0  0  0  0  0  0  0  0
   -2.4574  -18.0090    1.4926 N   0  0  0  0  0  0  0  0  0  0  0  0
   -1.4632  -17.0162    1.0342 C   0  0  2  0  0  0  0  0  0  0  0  0
   -2.1758  -15.9878    0.2642 C   0  0  0  0  0  0  0  0  0  0  0  0
   -2.3487  -16.1494   -0.9973 O   0  0  0  0  0  0  0  0  0  0  0  0
   -0.5758  -17.8464    0.0984 C   0  0  0  0  0  0  0  0  0  0  0  0
   -0.4841  -17.3330   -1.2898 C   0  0  0  0  0  0  0  0  0  0  0  0
    0.9095  -17.1412   -1.8120 C   0  0  0  0  0  0  0  0  0  0  0  0
    1.1783  -18.2362   -2.8532 C   0  0  0  0  0  0  0  0  0  0  0  0
    2.0891  -17.7986   -3.8613 N   0  0  0  0  0  4  0  0  0  0  0  0
    2.9696  -18.8561   -4.3324 C   0  0  0  0  0  0  0  0  0  0  0  0
    4.3580  -18.3063   -4.4363 C   0  0  0  0  0  0  0  0  0  0  0  0
    5.1010  -18.0542   -3.3117 C   0  0  0  0  0  0  0  0  0  0  0  0
    6.3811  -17.5687   -3.3913 C   0  0  0  0  0  0  0  0  0  0  0  0
    6.9169  -17.3360   -4.6464 C   0  0  0  0  0  0  0  0  0  0  0  0
    6.1782  -17.5873   -5.7801 C   0  0  0  0  0  0  0  0  0  0  0  0
    4.8863  -18.0755   -5.6806 C   0  0  0  0  0  0  0  0  0  0  0  0
   -2.6881  -14.8272    0.8551 N   0  0  0  0  0  0  0  0  0  0  0  0
   -2.0967  -13.5379    0.5794 C   0  0  2  0  0  0  0  0  0  0  0  0
   -0.6510  -13.4756    0.7621 C   0  0  0  0  0  0  0  0  0  0  0  0
   -0.0701  -14.0887    1.7302 O   0  0  0  0  0  0  0  0  0  0  0  0
   -2.8388  -12.4692    1.4066 C   0  0  0  0  0  0  0  0  0  0  0  0
   -2.3456  -12.6420    2.7137 O   0  0  0  0  0  0  0  0  0  0  0  0
    0.1486  -12.7564   -0.0968 O   0  0  0  0  0  0  0  0  0  0  0  0
   -8.8394  -19.7497    3.8785 H   0  0  0  0  0  0  0  0  0  0  0  0
  1  2  1  0
  2  3  1  0
  2  5  1  6
  3  4  2  0
  3  6  1  0
  6  7  1  0
  7  8  1  0
  7 10  1  6
  8  9  2  0
  8 15  1  0
 10 11  1  0
 11 12  1  0
 12 13  1  0
 13 14  1  0
 15 16  1  0
 16 17  1  0
 16 19  1  6
 17 18  2  0
 17 24  1  0
 19 20  1  0
 20 21  1  0
 21 22  2  0
 21 23  1  0
 25 24  1  1
 25 26  1  0
 25 28  1  0
 26 27  2  0
 26 31  1  0
 28 29  1  0
 28 30  1  6
 31 32  1  0
 32 33  1  0
 32 35  1  6
 33 34  2  0
 33 36  1  0
 36 37  1  0
 37 38  1  0
 37 40  1  1
 38 39  2  0
 38 47  1  0
 40 41  1  0
 41 42  1  0
 42 43  1  0
 43 44  1  0
 44 45  2  0
 44 46  1  0
 47 48  1  0
 48 49  1  0
 48 51  1  6
 49 50  2  0
 49 63  1  0
 51 52  1  0
 52 53  1  0
 53 54  1  0
 54 55  1  0
 55 56  1  0
 56 57  1  0
 57 58  2  0
 57 62  1  0
 58 59  1  0
 59 60  2  0
 60 61  1  0
 61 62  2  0
 63 64  1  0
 64 65  1  0
 64 67  1  1
 65 66  2  0
 65 69  1  0
 67 68  1  0
 45 70  1  0
M  CHG  3   1   1  14   1  55   1
M  END
$$$$
