
     RDKit          3D

 70 70  0  0  0  0  0  0  0  0999 V2000
   -1.5473  -34.8789    0.7948 N   0  0  0  0  0  4  0  0  0  0  0  0
   -2.1763  -35.1186   -0.4700 C   0  0  2  0  0  0  0  0  0  0  0  0
   -3.6127  -34.7572   -0.4890 C   0  0  0  0  0  0  0  0  0  0  0  0
   -4.4987  -35.5774   -0.0916 O   0  0  0  0  0  0  0  0  0  0  0  0
   -2.0233  -36.5250   -0.9837 C   0  0  0  0  0  0  0  0  0  0  0  0
   -4.1021  -33.4755   -0.9523 N   0  0  0  0  0  0  0  0  0  0  0  0
   -3.6603  -33.0423   -2.2386 C   0  0  2  0  0  0  0  0  0  0  0  0
   -4.2692  -31.6872   -2.5561 C   0  0  0  0  0  0  0  0  0  0  0  0
   -4.3957  -31.3794   -3.7646 O   0  0  0  0  0  0  0  0  0  0  0  0
   -3.9039  -33.9872   -3.3630 C   0  0  0  0  0  0  0  0  0  0  0  0
   -3.5032  -33.6502   -4.7303 C   0  0  0  0  0  0  0  0  0  0  0  0
   -4.3913  -33.9606   -5.8697 C   0  0  0  0  0  0  0  0  0  0  0  0
   -5.2187  -35.2243   -5.7163 C   0  0  0  0  0  0  0  0  0  0  0  0
   -6.0741  -35.4282   -6.8757 N   0  0  0  0  0  4  0  0  0  0  0  0
   -4.6752  -30.8228   -1.5747 N   0  0  0  0  0  0  0  0  0  0  0  0
   -5.1627  -31.1021   -0.2814 C   0  0  2  0  0  0  0  0  0  0  0  0
   -4.9140  -29.9245    0.5543 C   0  0  0  0  0  0  0  0  0  0  0  0
   -4.0329  -30.0549    1.4946 O   0  0  0  0  0  0  0  0  0  0  0  0
   -4.5349  -32.3164    0.3738 C   0  0  0  0  0  0  0  0  0  0  0  0
   -5.4115  -33.5495    0.1673 C   0  0  0  0  0  0  0  0  0  0  0  0
   -6.8186  -33.2925    0.4854 C   0  0  0  0  0  0  0  0  0  0  0  0
   -7.6503  -34.2498    0.1998 O   0  0  0  0  0  0  0  0  0  0  0  0
   -7.3826  -32.1521    1.0466 N   0  0  0  0  0  0  0  0  0  0  0  0
   -5.4958  -28.6491    0.4980 N   0  0  0  0  0  0  0  0  0  0  0  0
   -4.8392  -27.5400   -0.1886 C   0  0  2  0  0  0  0  0  0  0  0  0
   -4.0347  -26.6934    0.7571 C   0  0  0  0  0  0  0  0  0  0  0  0
   -3.8757  -27.1106    1.9203 O   0  0  0  0  0  0  0  0  0  0  0  0
   -5.8793  -26.6747   -0.8105 C   0  0  2  0  0  0  0  0  0  0  0  0
   -6.7929  -26.3362    0.2216 O   0  0  0  0  0  0  0  0  0  0  0  0
   -6.6886  -27.3277   -1.8955 C   0  0  0  0  0  0  0  0  0  0  0  0
   -3.4713  -25.4762    0.3562 N   0  0  0  0  0  0  0  0  0  0  0  0
   -2.8195  -24.5940    1.2737 C   0  0  2  0  0  0  0  0  0  0  0  0
   -2.9296  -23.1805    0.8857 C   0  0  0  0  0  0  0  0  0  0  0  0
   -3.9865  -22.7277    0.3307 O   0  0  0  0  0  0  0  0  0  0  0  0
   -1.3307  -24.9941    1.3585 C   0  0  0  0  0  0  0  0  0  0  0  0
   -1.8520  -22.2871    1.1264 N   0  0  0  0  0  0  0  0  0  0  0  0
   -2.1064  -20.8438    1.1743 C   0  0  2  0  0  0  0  0  0  0  0  0
   -0.8726  -20.0724    1.3358 C   0  0  0  0  0  0  0  0  0  0  0  0
   -0.2988  -20.0578    2.4746 O   0  0  0  0  0  0  0  0  0  0  0  0
   -3.2490  -20.5155    2.0866 C   0  0  0  0  0  0  0  0  0  0  0  0
   -2.9494  -20.6103    3.5432 C   0  0  0  0  0  0  0  0  0  0  0  0
   -3.0153  -19.2661    4.1923 C   0  0  0  0  0  0  0  0  0  0  0  0
   -2.6487  -19.1605    5.5550 N   0  0  0  0  0  0  0  0  0  0  0  0
   -3.0720  -20.1096    6.5131 C   0  0  0  0  0  0  0  0  0  0  0  0
   -2.2581  -20.4182    7.4860 N   0  0  0  0  0  0  0  0  0  0  0  0
   -4.3663  -20.6981    6.3939 N   0  0  0  0  0  0  0  0  0  0  0  0
   -0.2363  -19.3318    0.3162 N   0  0  0  0  0  0  0  0  0  0  0  0
   -0.9776  -18.9487   -0.9036 C   0  0  2  0  0  0  0  0  0  0  0  0
   -0.2728  -17.8181   -1.5225 C   0  0  0  0  0  0  0  0  0  0  0  0
   -0.7415  -17.2921   -2.5954 O   0  0  0  0  0  0  0  0  0  0  0  0
   -2.3228  -18.4773   -0.3373 C   0  0  0  0  0  0  0  0  0  0  0  0
   -3.2800  -17.9688   -1.3494 C   0  0  0  0  0  0  0  0  0  0  0  0
   -4.6392  -17.6112   -0.8239 C   0  0  0  0  0  0  0  0  0  0  0  0
   -5.0751  -16.3013   -1.4946 C   0  0  0  0  0  0  0  0  0  0  0  0
   -6.4900  -16.2404   -1.6719 N   0  0  0  0  0  4  0  0  0  0  0  0
   -6.8817  -15.5951   -2.9150 C   0  0  0  0  0  0  0  0  0  0  0  0
   -8.3711  -15.6764   -3.0429 C   0  0  0  0  0  0  0  0  0  0  0  0
   -9.1902  -15.0707   -2.1252 C   0  0  0  0  0  0  0  0  0  0  0  0
  -10.5560  -15.1201   -2.2395 C   0  0  0  0  0  0  0  0  0  0  0  0
  -11.0994  -15.8015   -3.3150 C   0  0  0  0  0  0  0  0  0  0  0  0
  -10.2842  -16.4114   -4.2411 C   0  0  0  0  0  0  0  0  0  0  0  0
   -8.9071  -16.3530   -4.1086 C   0  0  0  0  0  0  0  0  0  0  0  0
    0.8992  -17.2767   -0.9821 N   0  0  0  0  0  0  0  0  0  0  0  0
    1.6564  -16.2850   -1.7111 C   0  0  2  0  0  0  0  0  0  0  0  0
    0.8503  -15.2845   -2.4013 C   0  0  0  0  0  0  0  0  0  0  0  0
    0.6789  -15.3227   -3.6740 O   0  0  0  0  0  0  0  0  0  0  0  0
    2.6305  -17.0101   -2.6610 C   0  0  0  0  0  0  0  0  0  0  0  0
    2.0004  -16.9419   -3.9179 O   0  0  0  0  0  0  0  0  0  0  0  0
    0.2409  -14.2588   -1.7152 O   0  0  0  0  0  0  0  0  0  0  0  0
   -2.5905  -20.7425    8.4225 H   0  0  0  0  0  0  0  0  0  0  0  0
  1  2  1  0
  2  3  1  0
  2  5  1  1
  3  4  2  0
  3  6  1  0
  6  7  1  0
  7  8  1  0
  7 10  1  6
  8  9  2  0
  8 15  1  0
 10 11  1  0
 11 12  1  0
 12 13  1  0
 13 14  1  0
 15 16  1  0
 16 17  1  0
 16 19  1  1
 17 18  2  0
 17 24  1  0
 19 20  1  0
 20 21  1  0
 21 22  2  0
 21 23  1  0
 25 24  1  1
 25 26  1  0
 25 28  1  0
 26 27  2  0
 26 31  1  0
 28 29  1  0
 28 30  1  6
 31 32  1  0
 32 33  1  0
 32 35  1  6
 33 34  2  0
 33 36  1  0
 36 37  1  0
 37 38  1  0
 37 40  1  1
 38 39  2  0
 38 47  1  0
 40 41  1  0
 41 42  1  0
 42 43  1  0
 43 44  1  0
 44 45  2  0
 44 46  1  0
 47 48  1  0
 48 49  1  0
 48 51  1  1
 49 50  2  0
 49 63  1  0
 51 52  1  0
 52 53  1  0
 53 54  1  0
 54 55  1  0
 55 56  1  0
 56 57  1  0
 57 58  2  0
 57 62  1  0
 58 59  1  0
 59 60  2  0
 60 61  1  0
 61 62  2  0
 63 64  1  0
 64 65  1  0
 64 67  1  6
 65 66  2  0
 65 69  1  0
 67 68  1  0
 45 70  1  0
M  CHG  3   1   1  14   1  55   1
M  END
$$$$
