
     RDKit          3D

 70 70  0  0  0  0  0  0  0  0999 V2000
   -8.7010  -36.0481    2.1399 N   0  0  0  0  0  4  0  0  0  0  0  0
   -7.3059  -35.8034    1.9238 C   0  0  2  0  0  0  0  0  0  0  0  0
   -6.9299  -35.7754    0.4913 C   0  0  0  0  0  0  0  0  0  0  0  0
   -7.4908  -36.5484   -0.3473 O   0  0  0  0  0  0  0  0  0  0  0  0
   -6.3889  -36.7526    2.6473 C   0  0  0  0  0  0  0  0  0  0  0  0
   -5.9188  -34.8888   -0.0461 N   0  0  0  0  0  0  0  0  0  0  0  0
   -6.3763  -33.7894   -0.8332 C   0  0  2  0  0  0  0  0  0  0  0  0
   -5.5162  -32.5692   -0.5517 C   0  0  0  0  0  0  0  0  0  0  0  0
   -5.9896  -31.4475   -0.8496 O   0  0  0  0  0  0  0  0  0  0  0  0
   -7.8170  -33.4420   -0.6910 C   0  0  0  0  0  0  0  0  0  0  0  0
   -8.3997  -32.3257   -1.4379 C   0  0  0  0  0  0  0  0  0  0  0  0
   -9.8623  -32.2321   -1.6264 C   0  0  0  0  0  0  0  0  0  0  0  0
  -10.3379  -31.0012   -2.3772 C   0  0  0  0  0  0  0  0  0  0  0  0
  -10.5177  -29.8776   -1.4703 N   0  0  0  0  0  4  0  0  0  0  0  0
   -4.2712  -32.6691    0.0097 N   0  0  0  0  0  0  0  0  0  0  0  0
   -3.0587  -32.0704   -0.3896 C   0  0  2  0  0  0  0  0  0  0  0  0
   -3.3211  -30.6500   -0.6362 C   0  0  0  0  0  0  0  0  0  0  0  0
   -4.2866  -30.3709   -1.4532 O   0  0  0  0  0  0  0  0  0  0  0  0
   -2.4388  -32.6826   -1.6301 C   0  0  0  0  0  0  0  0  0  0  0  0
   -2.0314  -34.1303   -1.3665 C   0  0  0  0  0  0  0  0  0  0  0  0
   -1.3799  -34.2976   -0.0647 C   0  0  0  0  0  0  0  0  0  0  0  0
   -2.1141  -34.8114    0.8769 O   0  0  0  0  0  0  0  0  0  0  0  0
   -0.0780  -33.9698    0.2980 N   0  0  0  0  0  0  0  0  0  0  0  0
   -2.6743  -29.5181   -0.1178 N   0  0  0  0  0  0  0  0  0  0  0  0
   -3.0927  -28.1667   -0.4804 C   0  0  2  0  0  0  0  0  0  0  0  0
   -2.2100  -27.1214    0.1413 C   0  0  0  0  0  0  0  0  0  0  0  0
   -1.6702  -27.3890    1.2319 O   0  0  0  0  0  0  0  0  0  0  0  0
   -4.4822  -27.9454    0.0069 C   0  0  2  0  0  0  0  0  0  0  0  0
   -4.4155  -27.9307    1.4246 O   0  0  0  0  0  0  0  0  0  0  0  0
   -5.4668  -29.0200   -0.3598 C   0  0  0  0  0  0  0  0  0  0  0  0
   -1.9876  -25.8851   -0.4766 N   0  0  0  0  0  0  0  0  0  0  0  0
   -1.1323  -24.8883    0.0890 C   0  0  2  0  0  0  0  0  0  0  0  0
   -1.6755  -23.5283   -0.0379 C   0  0  0  0  0  0  0  0  0  0  0  0
   -2.7439  -23.3023   -0.6994 O   0  0  0  0  0  0  0  0  0  0  0  0
    0.2388  -24.9670   -0.6164 C   0  0  0  0  0  0  0  0  0  0  0  0
   -1.0150  -22.4340    0.5814 N   0  0  0  0  0  0  0  0  0  0  0  0
   -1.5656  -21.0825    0.4386 C   0  0  2  0  0  0  0  0  0  0  0  0
   -0.8030  -20.2753   -0.5154 C   0  0  0  0  0  0  0  0  0  0  0  0
    0.4561  -20.1541   -0.3530 O   0  0  0  0  0  0  0  0  0  0  0  0
   -1.8720  -20.4686    1.7708 C   0  0  0  0  0  0  0  0  0  0  0  0
   -2.3701  -19.0649    1.7267 C   0  0  0  0  0  0  0  0  0  0  0  0
   -2.6202  -18.5417    3.1037 C   0  0  0  0  0  0  0  0  0  0  0  0
   -3.8610  -17.9145    3.3679 N   0  0  0  0  0  0  0  0  0  0  0  0
   -3.9413  -16.7059    4.0964 C   0  0  0  0  0  0  0  0  0  0  0  0
   -4.8627  -15.8411    3.7687 N   0  0  0  0  0  0  0  0  0  0  0  0
   -3.0233  -16.4663    5.1620 N   0  0  0  0  0  0  0  0  0  0  0  0
   -1.3462  -19.6095   -1.6355 N   0  0  0  0  0  0  0  0  0  0  0  0
   -0.5231  -18.6588   -2.4119 C   0  0  2  0  0  0  0  0  0  0  0  0
   -0.1974  -17.5252   -1.5360 C   0  0  0  0  0  0  0  0  0  0  0  0
   -0.6633  -17.4963   -0.3403 O   0  0  0  0  0  0  0  0  0  0  0  0
   -1.4915  -18.2062   -3.5117 C   0  0  0  0  0  0  0  0  0  0  0  0
   -1.9891  -19.2934   -4.3888 C   0  0  0  0  0  0  0  0  0  0  0  0
   -2.7655  -18.8430   -5.5912 C   0  0  0  0  0  0  0  0  0  0  0  0
   -2.1206  -19.4736   -6.8330 C   0  0  0  0  0  0  0  0  0  0  0  0
   -2.9564  -20.4729   -7.4162 N   0  0  0  0  0  4  0  0  0  0  0  0
   -3.8266  -19.9513   -8.4584 C   0  0  0  0  0  0  0  0  0  0  0  0
   -4.6183  -21.0872   -9.0277 C   0  0  0  0  0  0  0  0  0  0  0  0
   -4.4421  -22.3672   -8.5690 C   0  0  0  0  0  0  0  0  0  0  0  0
   -5.1734  -23.4151   -9.0671 C   0  0  0  0  0  0  0  0  0  0  0  0
   -6.1072  -23.1517  -10.0547 C   0  0  0  0  0  0  0  0  0  0  0  0
   -6.2908  -21.8695  -10.5198 C   0  0  0  0  0  0  0  0  0  0  0  0
   -5.5418  -20.8240  -10.0068 C   0  0  0  0  0  0  0  0  0  0  0  0
    0.6158  -16.4646   -1.9510 N   0  0  0  0  0  0  0  0  0  0  0  0
    1.6787  -15.9762   -1.1026 C   0  0  2  0  0  0  0  0  0  0  0  0
    1.3396  -14.7978   -0.3128 C   0  0  0  0  0  0  0  0  0  0  0  0
    0.7220  -14.8972    0.8093 O   0  0  0  0  0  0  0  0  0  0  0  0
    2.9378  -15.7608   -1.9660 C   0  0  0  0  0  0  0  0  0  0  0  0
    3.9638  -15.5370   -1.0285 O   0  0  0  0  0  0  0  0  0  0  0  0
    1.6686  -13.5313   -0.7395 O   0  0  0  0  0  0  0  0  0  0  0  0
   -5.4737  -15.9542    2.9281 H   0  0  0  0  0  0  0  0  0  0  0  0
  1  2  1  0
  2  3  1  0
  2  5  1  1
  3  4  2  0
  3  6  1  0
  6  7  1  0
  7  8  1  0
  7 10  1  1
  8  9  2  0
  8 15  1  0
 10 11  1  0
 11 12  1  0
 12 13  1  0
 13 14  1  0
 15 16  1  0
 16 17  1  0
 16 19  1  6
 17 18  2  0
 17 24  1  0
 19 20  1  0
 20 21  1  0
 21 22  2  0
 21 23  1  0
 25 24  1  1
 25 26  1  0
 25 28  1  0
 26 27  2  0
 26 31  1  0
 28 29  1  0
 28 30  1  1
 31 32  1  0
 32 33  1  0
 32 35  1  6
 33 34  2  0
 33 36  1  0
 36 37  1  0
 37 38  1  0
 37 40  1  1
 38 39  2  0
 38 47  1  0
 40 41  1  0
 41 42  1  0
 42 43  1  0
 43 44  1  0
 44 45  2  0
 44 46  1  0
 47 48  1  0
 48 49  1  0
 48 51  1  6
 49 50  2  0
 49 63  1  0
 51 52  1  0
 52 53  1  0
 53 54  1  0
 54 55  1  0
 55 56  1  0
 56 57  1  0
 57 58  2  0
 57 62  1  0
 58 59  1  0
 59 60  2  0
 60 61  1  0
 61 62  2  0
 63 64  1  0
 64 65  1  0
 64 67  1  6
 65 66  2  0
 65 69  1  0
 67 68  1  0
 45 70  1  0
M  CHG  3   1   1  14   1  55   1
M  END
$$$$
