
     RDKit          3D

 70 70  0  0  0  0  0  0  0  0999 V2000
   -5.2612  -38.0561    2.2327 N   0  0  0  0  0  4  0  0  0  0  0  0
   -5.8967  -38.4707    1.0174 C   0  0  2  0  0  0  0  0  0  0  0  0
   -5.9110  -37.4191   -0.0258 C   0  0  0  0  0  0  0  0  0  0  0  0
   -5.9372  -37.7225   -1.2599 O   0  0  0  0  0  0  0  0  0  0  0  0
   -7.2958  -38.9961    1.1954 C   0  0  0  0  0  0  0  0  0  0  0  0
   -5.8942  -36.0028    0.2753 N   0  0  0  0  0  0  0  0  0  0  0  0
   -6.2870  -35.1154   -0.7714 C   0  0  2  0  0  0  0  0  0  0  0  0
   -5.6009  -33.7729   -0.5846 C   0  0  0  0  0  0  0  0  0  0  0  0
   -5.8918  -33.1130    0.4405 O   0  0  0  0  0  0  0  0  0  0  0  0
   -7.7529  -34.9197   -0.9432 C   0  0  0  0  0  0  0  0  0  0  0  0
   -8.2766  -34.0067   -1.9609 C   0  0  0  0  0  0  0  0  0  0  0  0
   -8.1712  -34.3434   -3.3957 C   0  0  0  0  0  0  0  0  0  0  0  0
   -8.7911  -33.3314   -4.3425 C   0  0  0  0  0  0  0  0  0  0  0  0
   -8.5869  -33.7247   -5.7285 N   0  0  0  0  0  4  0  0  0  0  0  0
   -4.6930  -33.2867   -1.4872 N   0  0  0  0  0  0  0  0  0  0  0  0
   -3.5092  -32.5551   -1.2603 C   0  0  2  0  0  0  0  0  0  0  0  0
   -3.8745  -31.1418   -1.1319 C   0  0  0  0  0  0  0  0  0  0  0  0
   -4.9999  -30.7822   -1.6628 O   0  0  0  0  0  0  0  0  0  0  0  0
   -2.4665  -32.7005   -2.3509 C   0  0  0  0  0  0  0  0  0  0  0  0
   -1.4396  -33.7650   -1.9716 C   0  0  0  0  0  0  0  0  0  0  0  0
   -1.2990  -33.9115   -0.5204 C   0  0  0  0  0  0  0  0  0  0  0  0
   -0.3942  -34.7540   -0.1189 O   0  0  0  0  0  0  0  0  0  0  0  0
   -2.0147  -33.2714    0.4855 N   0  0  0  0  0  0  0  0  0  0  0  0
   -3.1800  -30.0914   -0.5137 N   0  0  0  0  0  0  0  0  0  0  0  0
   -3.7087  -28.7301   -0.5001 C   0  0  2  0  0  0  0  0  0  0  0  0
   -2.7385  -27.7585    0.1105 C   0  0  0  0  0  0  0  0  0  0  0  0
   -1.6005  -28.1758    0.3990 O   0  0  0  0  0  0  0  0  0  0  0  0
   -4.9570  -28.7062    0.3113 C   0  0  2  0  0  0  0  0  0  0  0  0
   -4.5747  -28.9874    1.6489 O   0  0  0  0  0  0  0  0  0  0  0  0
   -5.9822  -29.7394   -0.0627 C   0  0  0  0  0  0  0  0  0  0  0  0
   -3.0864  -26.4234    0.3478 N   0  0  0  0  0  0  0  0  0  0  0  0
   -2.1092  -25.4087    0.5936 C   0  0  2  0  0  0  0  0  0  0  0  0
   -2.5556  -24.0710    0.1788 C   0  0  0  0  0  0  0  0  0  0  0  0
   -3.6355  -23.9102   -0.4832 O   0  0  0  0  0  0  0  0  0  0  0  0
   -0.8179  -25.7830   -0.1655 C   0  0  0  0  0  0  0  0  0  0  0  0
   -1.7861  -22.9250    0.5131 N   0  0  0  0  0  0  0  0  0  0  0  0
   -2.4216  -21.6035    0.5174 C   0  0  2  0  0  0  0  0  0  0  0  0
   -1.4548  -20.5271    0.2941 C   0  0  0  0  0  0  0  0  0  0  0  0
   -0.8331  -20.0388    1.2949 O   0  0  0  0  0  0  0  0  0  0  0  0
   -3.3690  -21.4513    1.6684 C   0  0  0  0  0  0  0  0  0  0  0  0
   -2.7415  -21.0673    2.9643 C   0  0  0  0  0  0  0  0  0  0  0  0
   -3.6361  -20.1601    3.7446 C   0  0  0  0  0  0  0  0  0  0  0  0
   -3.2599  -19.8207    5.0660 N   0  0  0  0  0  0  0  0  0  0  0  0
   -2.4160  -18.7199    5.3377 C   0  0  0  0  0  0  0  0  0  0  0  0
   -1.9117  -18.6025    6.5362 N   0  0  0  0  0  0  0  0  0  0  0  0
   -2.1383  -17.7763    4.3042 N   0  0  0  0  0  0  0  0  0  0  0  0
   -1.1305  -19.9719   -0.9627 N   0  0  0  0  0  0  0  0  0  0  0  0
   -0.3980  -18.6911   -1.0479 C   0  0  2  0  0  0  0  0  0  0  0  0
   -0.4574  -18.0497    0.2725 C   0  0  0  0  0  0  0  0  0  0  0  0
   -1.5529  -18.0792    0.9407 O   0  0  0  0  0  0  0  0  0  0  0  0
   -1.2411  -17.8955   -2.0520 C   0  0  0  0  0  0  0  0  0  0  0  0
   -0.5575  -17.5858   -3.3310 C   0  0  0  0  0  0  0  0  0  0  0  0
   -1.4331  -17.6124   -4.5492 C   0  0  0  0  0  0  0  0  0  0  0  0
   -0.7481  -16.7795   -5.6413 C   0  0  0  0  0  0  0  0  0  0  0  0
   -1.5655  -16.6535   -6.8045 N   0  0  0  0  0  4  0  0  0  0  0  0
   -0.9140  -15.9278   -7.8835 C   0  0  0  0  0  0  0  0  0  0  0  0
   -1.8927  -14.9509   -8.4569 C   0  0  0  0  0  0  0  0  0  0  0  0
   -1.8933  -13.6391   -8.0579 C   0  0  0  0  0  0  0  0  0  0  0  0
   -2.7709  -12.7282   -8.5880 C   0  0  0  0  0  0  0  0  0  0  0  0
   -3.6677  -13.1643   -9.5482 C   0  0  0  0  0  0  0  0  0  0  0  0
   -3.6730  -14.4791   -9.9549 C   0  0  0  0  0  0  0  0  0  0  0  0
   -2.7810  -15.3855   -9.4071 C   0  0  0  0  0  0  0  0  0  0  0  0
    0.6453  -17.4057    0.8452 N   0  0  0  0  0  0  0  0  0  0  0  0
    0.4691  -16.4730    1.9347 C   0  0  2  0  0  0  0  0  0  0  0  0
   -0.3291  -15.2961    1.6105 C   0  0  0  0  0  0  0  0  0  0  0  0
   -0.5797  -14.3928    2.4890 O   0  0  0  0  0  0  0  0  0  0  0  0
    1.8570  -16.1037    2.4955 C   0  0  0  0  0  0  0  0  0  0  0  0
    2.4949  -15.4436    1.4282 O   0  0  0  0  0  0  0  0  0  0  0  0
   -0.8459  -15.1071    0.3491 O   0  0  0  0  0  0  0  0  0  0  0  0
   -2.2037  -19.2083    7.3364 H   0  0  0  0  0  0  0  0  0  0  0  0
  1  2  1  0
  2  3  1  0
  2  5  1  1
  3  4  2  0
  3  6  1  0
  6  7  1  0
  7  8  1  0
  7 10  1  1
  8  9  2  0
  8 15  1  0
 10 11  1  0
 11 12  1  0
 12 13  1  0
 13 14  1  0
 15 16  1  0
 16 17  1  0
 16 19  1  6
 17 18  2  0
 17 24  1  0
 19 20  1  0
 20 21  1  0
 21 22  2  0
 21 23  1  0
 25 24  1  1
 25 26  1  0
 25 28  1  0
 26 27  2  0
 26 31  1  0
 28 29  1  0
 28 30  1  6
 31 32  1  0
 32 33  1  0
 32 35  1  6
 33 34  2  0
 33 36  1  0
 36 37  1  0
 37 38  1  0
 37 40  1  1
 38 39  2  0
 38 47  1  0
 40 41  1  0
 41 42  1  0
 42 43  1  0
 43 44  1  0
 44 45  2  0
 44 46  1  0
 47 48  1  0
 48 49  1  0
 48 51  1  6
 49 50  2  0
 49 63  1  0
 51 52  1  0
 52 53  1  0
 53 54  1  0
 54 55  1  0
 55 56  1  0
 56 57  1  0
 57 58  2  0
 57 62  1  0
 58 59  1  0
 59 60  2  0
 60 61  1  0
 61 62  2  0
 63 64  1  0
 64 65  1  0
 64 67  1  6
 65 66  2  0
 65 69  1  0
 67 68  1  0
 45 70  1  0
M  CHG  3   1   1  14   1  55   1
M  END
$$$$
