
     RDKit          3D

 70 70  0  0  0  0  0  0  0  0999 V2000
   -6.5809  -36.9104    1.0072 N   0  0  0  0  0  4  0  0  0  0  0  0
   -7.6817  -36.0434    0.7082 C   0  0  2  0  0  0  0  0  0  0  0  0
   -7.7546  -34.8599    1.5959 C   0  0  0  0  0  0  0  0  0  0  0  0
   -8.4089  -34.8985    2.6850 O   0  0  0  0  0  0  0  0  0  0  0  0
   -9.0239  -36.7243    0.6967 C   0  0  0  0  0  0  0  0  0  0  0  0
   -7.1040  -33.6016    1.2953 N   0  0  0  0  0  0  0  0  0  0  0  0
   -7.2201  -33.1181   -0.0427 C   0  0  2  0  0  0  0  0  0  0  0  0
   -6.4545  -31.8132   -0.1806 C   0  0  0  0  0  0  0  0  0  0  0  0
   -6.8408  -30.8410    0.5098 O   0  0  0  0  0  0  0  0  0  0  0  0
   -8.6075  -32.9524   -0.5569 C   0  0  0  0  0  0  0  0  0  0  0  0
   -8.8546  -32.4304   -1.9023 C   0  0  0  0  0  0  0  0  0  0  0  0
  -10.2344  -32.1763   -2.3659 C   0  0  0  0  0  0  0  0  0  0  0  0
  -10.5877  -30.7135   -2.5671 C   0  0  0  0  0  0  0  0  0  0  0  0
  -11.5193  -30.5521   -3.6731 N   0  0  0  0  0  4  0  0  0  0  0  0
   -5.3782  -31.6849   -1.0174 N   0  0  0  0  0  0  0  0  0  0  0  0
   -4.0506  -31.3160   -0.7180 C   0  0  2  0  0  0  0  0  0  0  0  0
   -3.8934  -29.8987   -1.0553 C   0  0  0  0  0  0  0  0  0  0  0  0
   -4.3748  -29.5159   -2.1951 O   0  0  0  0  0  0  0  0  0  0  0  0
   -2.9977  -32.1205   -1.4542 C   0  0  0  0  0  0  0  0  0  0  0  0
   -2.5128  -33.2838   -0.5920 C   0  0  0  0  0  0  0  0  0  0  0  0
   -1.5106  -32.8677    0.3926 C   0  0  0  0  0  0  0  0  0  0  0  0
   -1.0772  -33.7975    1.1909 O   0  0  0  0  0  0  0  0  0  0  0  0
   -0.9676  -31.6028    0.5905 N   0  0  0  0  0  0  0  0  0  0  0  0
   -3.2863  -28.8674   -0.3232 N   0  0  0  0  0  0  0  0  0  0  0  0
   -3.3704  -27.4742   -0.7529 C   0  0  2  0  0  0  0  0  0  0  0  0
   -2.5760  -26.5635    0.1404 C   0  0  0  0  0  0  0  0  0  0  0  0
   -2.3865  -26.9236    1.3181 O   0  0  0  0  0  0  0  0  0  0  0  0
   -4.7940  -27.0401   -0.7045 C   0  0  2  0  0  0  0  0  0  0  0  0
   -5.0552  -26.6612    0.6381 O   0  0  0  0  0  0  0  0  0  0  0  0
   -5.7985  -28.1039   -1.0477 C   0  0  0  0  0  0  0  0  0  0  0  0
   -2.0547  -25.3500   -0.3237 N   0  0  0  0  0  0  0  0  0  0  0  0
   -1.3159  -24.4611    0.5183 C   0  0  2  0  0  0  0  0  0  0  0  0
   -1.7299  -23.0581    0.3732 C   0  0  0  0  0  0  0  0  0  0  0  0
   -2.2198  -22.6234   -0.7228 O   0  0  0  0  0  0  0  0  0  0  0  0
    0.1827  -24.5979    0.1735 C   0  0  0  0  0  0  0  0  0  0  0  0
   -1.5919  -22.1559    1.4614 N   0  0  0  0  0  0  0  0  0  0  0  0
   -1.6120  -20.7114    1.2100 C   0  0  2  0  0  0  0  0  0  0  0  0
   -0.4835  -20.2810    0.3826 C   0  0  0  0  0  0  0  0  0  0  0  0
    0.6653  -20.7939    0.5911 O   0  0  0  0  0  0  0  0  0  0  0  0
   -1.8818  -19.9373    2.4644 C   0  0  0  0  0  0  0  0  0  0  0  0
   -2.7127  -18.7124    2.2915 C   0  0  0  0  0  0  0  0  0  0  0  0
   -4.0861  -18.9144    2.8440 C   0  0  0  0  0  0  0  0  0  0  0  0
   -4.3836  -18.3724    4.1169 N   0  0  0  0  0  0  0  0  0  0  0  0
   -5.1861  -17.2181    4.2630 C   0  0  0  0  0  0  0  0  0  0  0  0
   -4.6008  -16.0514    4.2869 N   0  0  0  0  0  0  0  0  0  0  0  0
   -6.6015  -17.3571    4.3771 N   0  0  0  0  0  0  0  0  0  0  0  0
   -0.5540  -19.3323   -0.6604 N   0  0  0  0  0  0  0  0  0  0  0  0
    0.5895  -18.4375   -0.9360 C   0  0  2  0  0  0  0  0  0  0  0  0
    0.2212  -17.0864   -0.4921 C   0  0  0  0  0  0  0  0  0  0  0  0
   -0.9415  -16.8816    0.0117 O   0  0  0  0  0  0  0  0  0  0  0  0
    0.6777  -18.4772   -2.4666 C   0  0  0  0  0  0  0  0  0  0  0  0
   -0.4433  -17.8100   -3.1719 C   0  0  0  0  0  0  0  0  0  0  0  0
   -0.1805  -17.4599   -4.6071 C   0  0  0  0  0  0  0  0  0  0  0  0
   -1.4187  -17.8543   -5.4237 C   0  0  0  0  0  0  0  0  0  0  0  0
   -1.0648  -18.4858   -6.6539 N   0  0  0  0  0  4  0  0  0  0  0  0
   -2.1895  -18.6311   -7.5645 C   0  0  0  0  0  0  0  0  0  0  0  0
   -1.9269  -19.8021   -8.4595 C   0  0  0  0  0  0  0  0  0  0  0  0
   -1.5063  -21.0011   -7.9442 C   0  0  0  0  0  0  0  0  0  0  0  0
   -1.2801  -22.0883   -8.7491 C   0  0  0  0  0  0  0  0  0  0  0  0
   -1.4889  -21.9504  -10.1107 C   0  0  0  0  0  0  0  0  0  0  0  0
   -1.9120  -20.7506  -10.6357 C   0  0  0  0  0  0  0  0  0  0  0  0
   -2.1333  -19.6628   -9.8081 C   0  0  0  0  0  0  0  0  0  0  0  0
    1.0971  -15.9991   -0.5885 N   0  0  0  0  0  0  0  0  0  0  0  0
    1.8102  -15.5228    0.5747 C   0  0  2  0  0  0  0  0  0  0  0  0
    1.1141  -14.4964    1.3422 C   0  0  0  0  0  0  0  0  0  0  0  0
   -0.0841  -14.1369    1.0493 O   0  0  0  0  0  0  0  0  0  0  0  0
    3.2192  -15.0739    0.1382 C   0  0  0  0  0  0  0  0  0  0  0  0
    3.1848  -13.6714    0.2541 O   0  0  0  0  0  0  0  0  0  0  0  0
    1.7144  -13.8720    2.4117 O   0  0  0  0  0  0  0  0  0  0  0  0
   -4.0185  -15.6925    3.4965 H   0  0  0  0  0  0  0  0  0  0  0  0
  1  2  1  0
  2  3  1  0
  2  5  1  1
  3  4  2  0
  3  6  1  0
  6  7  1  0
  7  8  1  0
  7 10  1  1
  8  9  2  0
  8 15  1  0
 10 11  1  0
 11 12  1  0
 12 13  1  0
 13 14  1  0
 15 16  1  0
 16 17  1  0
 16 19  1  6
 17 18  2  0
 17 24  1  0
 19 20  1  0
 20 21  1  0
 21 22  2  0
 21 23  1  0
 25 24  1  1
 25 26  1  0
 25 28  1  0
 26 27  2  0
 26 31  1  0
 28 29  1  0
 28 30  1  1
 31 32  1  0
 32 33  1  0
 32 35  1  6
 33 34  2  0
 33 36  1  0
 36 37  1  0
 37 38  1  0
 37 40  1  1
 38 39  2  0
 38 47  1  0
 40 41  1  0
 41 42  1  0
 42 43  1  0
 43 44  1  0
 44 45  2  0
 44 46  1  0
 47 48  1  0
 48 49  1  0
 48 51  1  6
 49 50  2  0
 49 63  1  0
 51 52  1  0
 52 53  1  0
 53 54  1  0
 54 55  1  0
 55 56  1  0
 56 57  1  0
 57 58  2  0
 57 62  1  0
 58 59  1  0
 59 60  2  0
 60 61  1  0
 61 62  2  0
 63 64  1  0
 64 65  1  0
 64 67  1  6
 65 66  2  0
 65 69  1  0
 67 68  1  0
 45 70  1  0
M  CHG  3   1   1  14   1  55   1
M  END
$$$$
