
     RDKit          3D

 70 70  0  0  0  0  0  0  0  0999 V2000
   -4.2566  -37.5991    1.1036 N   0  0  0  0  0  4  0  0  0  0  0  0
   -4.2477  -37.1356   -0.2521 C   0  0  2  0  0  0  0  0  0  0  0  0
   -3.8416  -35.7172   -0.3848 C   0  0  0  0  0  0  0  0  0  0  0  0
   -3.4780  -35.0434    0.6297 O   0  0  0  0  0  0  0  0  0  0  0  0
   -5.5452  -37.3392   -0.9872 C   0  0  0  0  0  0  0  0  0  0  0  0
   -3.8312  -35.0101   -1.6484 N   0  0  0  0  0  0  0  0  0  0  0  0
   -3.2470  -33.7077   -1.6548 C   0  0  2  0  0  0  0  0  0  0  0  0
   -4.1579  -32.7377   -0.9219 C   0  0  0  0  0  0  0  0  0  0  0  0
   -5.2415  -32.4335   -1.4738 O   0  0  0  0  0  0  0  0  0  0  0  0
   -2.8900  -33.1608   -2.9928 C   0  0  0  0  0  0  0  0  0  0  0  0
   -3.9137  -32.9519   -4.0184 C   0  0  0  0  0  0  0  0  0  0  0  0
   -5.1019  -32.1211   -3.7333 C   0  0  0  0  0  0  0  0  0  0  0  0
   -6.0574  -31.9410   -4.8993 C   0  0  0  0  0  0  0  0  0  0  0  0
   -5.4008  -32.2503   -6.1605 N   0  0  0  0  0  4  0  0  0  0  0  0
   -3.8287  -32.2086    0.2974 N   0  0  0  0  0  0  0  0  0  0  0  0
   -4.4228  -31.1394    0.9990 C   0  0  2  0  0  0  0  0  0  0  0  0
   -3.8342  -29.8942    0.4988 C   0  0  0  0  0  0  0  0  0  0  0  0
   -3.0472  -29.9939   -0.5250 O   0  0  0  0  0  0  0  0  0  0  0  0
   -4.2438  -31.2033    2.5029 C   0  0  0  0  0  0  0  0  0  0  0  0
   -4.4468  -32.6305    3.0063 C   0  0  0  0  0  0  0  0  0  0  0  0
   -5.8010  -33.1259    2.7458 C   0  0  0  0  0  0  0  0  0  0  0  0
   -6.7101  -32.7755    3.6063 O   0  0  0  0  0  0  0  0  0  0  0  0
   -6.2397  -33.9310    1.7003 N   0  0  0  0  0  0  0  0  0  0  0  0
   -3.9891  -28.5808    0.9668 N   0  0  0  0  0  0  0  0  0  0  0  0
   -3.5958  -27.4305    0.1576 C   0  0  2  0  0  0  0  0  0  0  0  0
   -2.8488  -26.4067    0.9651 C   0  0  0  0  0  0  0  0  0  0  0  0
   -2.9253  -26.4759    2.2069 O   0  0  0  0  0  0  0  0  0  0  0  0
   -4.8211  -26.7831   -0.3872 C   0  0  2  0  0  0  0  0  0  0  0  0
   -5.6387  -26.4634    0.7281 O   0  0  0  0  0  0  0  0  0  0  0  0
   -5.6544  -27.6493   -1.2892 C   0  0  0  0  0  0  0  0  0  0  0  0
   -2.0830  -25.4058    0.3557 N   0  0  0  0  0  0  0  0  0  0  0  0
   -1.7439  -24.1871    1.0224 C   0  0  2  0  0  0  0  0  0  0  0  0
   -1.5809  -23.0550    0.0990 C   0  0  0  0  0  0  0  0  0  0  0  0
   -2.1800  -23.0299   -1.0282 O   0  0  0  0  0  0  0  0  0  0  0  0
   -0.4325  -24.4102    1.8061 C   0  0  0  0  0  0  0  0  0  0  0  0
   -0.7477  -21.9599    0.4507 N   0  0  0  0  0  0  0  0  0  0  0  0
   -0.5476  -20.8671   -0.5064 C   0  0  2  0  0  0  0  0  0  0  0  0
   -1.5562  -19.8161   -0.3606 C   0  0  0  0  0  0  0  0  0  0  0  0
   -2.6826  -19.9573   -0.9417 O   0  0  0  0  0  0  0  0  0  0  0  0
   -0.2868  -21.3854   -1.8880 C   0  0  0  0  0  0  0  0  0  0  0  0
   -0.0443  -20.3430   -2.9248 C   0  0  0  0  0  0  0  0  0  0  0  0
    1.1668  -20.6673   -3.7375 C   0  0  0  0  0  0  0  0  0  0  0  0
    1.2810  -20.0979   -5.0279 N   0  0  0  0  0  0  0  0  0  0  0  0
    1.3360  -18.6985   -5.2194 C   0  0  0  0  0  0  0  0  0  0  0  0
    1.7056  -17.9468   -4.2181 N   0  0  0  0  0  0  0  0  0  0  0  0
    0.9914  -18.1499   -6.4906 N   0  0  0  0  0  0  0  0  0  0  0  0
   -1.3964  -18.6334    0.3934 N   0  0  0  0  0  0  0  0  0  0  0  0
   -2.4277  -17.5756    0.3528 C   0  0  2  0  0  0  0  0  0  0  0  0
   -1.7603  -16.3081    0.0268 C   0  0  0  0  0  0  0  0  0  0  0  0
   -0.7848  -15.9019    0.7554 O   0  0  0  0  0  0  0  0  0  0  0  0
   -2.9252  -17.5445    1.8033 C   0  0  0  0  0  0  0  0  0  0  0  0
   -3.1702  -16.1873    2.3481 C   0  0  0  0  0  0  0  0  0  0  0  0
   -4.5837  -15.9104    2.7687 C   0  0  0  0  0  0  0  0  0  0  0  0
   -4.8013  -14.3919    2.7220 C   0  0  0  0  0  0  0  0  0  0  0  0
   -3.6975  -13.6796    3.2800 N   0  0  0  0  0  4  0  0  0  0  0  0
   -4.0895  -12.7502    4.3278 C   0  0  0  0  0  0  0  0  0  0  0  0
   -2.9047  -12.5009    5.2083 C   0  0  0  0  0  0  0  0  0  0  0  0
   -1.8230  -11.7945    4.7491 C   0  0  0  0  0  0  0  0  0  0  0  0
   -0.7387  -11.5415    5.5498 C   0  0  0  0  0  0  0  0  0  0  0  0
   -0.7581  -12.0184    6.8492 C   0  0  0  0  0  0  0  0  0  0  0  0
   -1.8404  -12.7275    7.3182 C   0  0  0  0  0  0  0  0  0  0  0  0
   -2.9258  -12.9754    6.4948 C   0  0  0  0  0  0  0  0  0  0  0  0
   -2.1415  -15.5169   -1.0628 N   0  0  0  0  0  0  0  0  0  0  0  0
   -2.7281  -16.1172   -2.2391 C   0  0  2  0  0  0  0  0  0  0  0  0
   -1.7672  -16.6085   -3.2201 C   0  0  0  0  0  0  0  0  0  0  0  0
   -1.1910  -17.7485   -3.0821 O   0  0  0  0  0  0  0  0  0  0  0  0
   -3.7330  -15.1206   -2.8509 C   0  0  0  0  0  0  0  0  0  0  0  0
   -4.5387  -14.7331   -1.7636 O   0  0  0  0  0  0  0  0  0  0  0  0
   -1.4396  -15.8690   -4.3336 O   0  0  0  0  0  0  0  0  0  0  0  0
    1.6881  -18.2747   -3.2257 H   0  0  0  0  0  0  0  0  0  0  0  0
  1  2  1  0
  2  3  1  0
  2  5  1  1
  3  4  2  0
  3  6  1  0
  6  7  1  0
  7  8  1  0
  7 10  1  6
  8  9  2  0
  8 15  1  0
 10 11  1  0
 11 12  1  0
 12 13  1  0
 13 14  1  0
 15 16  1  0
 16 17  1  0
 16 19  1  1
 17 18  2  0
 17 24  1  0
 19 20  1  0
 20 21  1  0
 21 22  2  0
 21 23  1  0
 25 24  1  1
 25 26  1  0
 25 28  1  0
 26 27  2  0
 26 31  1  0
 28 29  1  0
 28 30  1  6
 31 32  1  0
 32 33  1  0
 32 35  1  6
 33 34  2  0
 33 36  1  0
 36 37  1  0
 37 38  1  0
 37 40  1  6
 38 39  2  0
 38 47  1  0
 40 41  1  0
 41 42  1  0
 42 43  1  0
 43 44  1  0
 44 45  2  0
 44 46  1  0
 47 48  1  0
 48 49  1  0
 48 51  1  1
 49 50  2  0
 49 63  1  0
 51 52  1  0
 52 53  1  0
 53 54  1  0
 54 55  1  0
 55 56  1  0
 56 57  1  0
 57 58  2  0
 57 62  1  0
 58 59  1  0
 59 60  2  0
 60 61  1  0
 61 62  2  0
 63 64  1  0
 64 65  1  0
 64 67  1  6
 65 66  2  0
 65 69  1  0
 67 68  1  0
 45 70  1  0
M  CHG  3   1   1  14   1  55   1
M  END
$$$$
