
     RDKit          3D

 70 70  0  0  0  0  0  0  0  0999 V2000
  -10.1888  -35.7381   -1.7143 N   0  0  0  0  0  4  0  0  0  0  0  0
   -9.7408  -34.4217   -2.0597 C   0  0  2  0  0  0  0  0  0  0  0  0
   -8.4280  -34.0743   -1.4680 C   0  0  0  0  0  0  0  0  0  0  0  0
   -8.1419  -34.4014   -0.2736 O   0  0  0  0  0  0  0  0  0  0  0  0
  -10.7224  -33.3269   -1.7385 C   0  0  0  0  0  0  0  0  0  0  0  0
   -7.3997  -33.3522   -2.1878 N   0  0  0  0  0  0  0  0  0  0  0  0
   -6.1182  -33.2622   -1.5658 C   0  0  2  0  0  0  0  0  0  0  0  0
   -6.1968  -32.3266   -0.3714 C   0  0  0  0  0  0  0  0  0  0  0  0
   -7.2094  -31.5939   -0.2771 O   0  0  0  0  0  0  0  0  0  0  0  0
   -4.9906  -32.8639   -2.4526 C   0  0  0  0  0  0  0  0  0  0  0  0
   -4.5373  -33.7405   -3.5341 C   0  0  0  0  0  0  0  0  0  0  0  0
   -3.8987  -33.1741   -4.7403 C   0  0  0  0  0  0  0  0  0  0  0  0
   -2.3873  -33.0478   -4.6704 C   0  0  0  0  0  0  0  0  0  0  0  0
   -1.7601  -33.6810   -5.8205 N   0  0  0  0  0  4  0  0  0  0  0  0
   -5.2124  -32.2740    0.5790 N   0  0  0  0  0  0  0  0  0  0  0  0
   -5.2418  -31.7016    1.8673 C   0  0  2  0  0  0  0  0  0  0  0  0
   -4.4588  -30.4637    1.8246 C   0  0  0  0  0  0  0  0  0  0  0  0
   -4.4961  -29.7160    2.8815 O   0  0  0  0  0  0  0  0  0  0  0  0
   -4.6943  -32.5970    2.9612 C   0  0  0  0  0  0  0  0  0  0  0  0
   -5.0842  -32.0613    4.3369 C   0  0  0  0  0  0  0  0  0  0  0  0
   -6.5031  -31.7034    4.4139 C   0  0  0  0  0  0  0  0  0  0  0  0
   -7.3008  -32.6315    4.8520 O   0  0  0  0  0  0  0  0  0  0  0  0
   -7.1100  -30.5003    4.0705 N   0  0  0  0  0  0  0  0  0  0  0  0
   -3.6593  -29.9466    0.7943 N   0  0  0  0  0  0  0  0  0  0  0  0
   -2.5810  -29.0001    1.0665 C   0  0  2  0  0  0  0  0  0  0  0  0
   -3.0703  -27.5792    1.0696 C   0  0  0  0  0  0  0  0  0  0  0  0
   -4.3011  -27.3874    1.0408 O   0  0  0  0  0  0  0  0  0  0  0  0
   -1.5469  -29.1289    0.0028 C   0  0  2  0  0  0  0  0  0  0  0  0
   -2.2037  -28.8821   -1.2310 O   0  0  0  0  0  0  0  0  0  0  0  0
   -0.9185  -30.4888   -0.1162 C   0  0  0  0  0  0  0  0  0  0  0  0
   -2.1837  -26.4966    1.1095 N   0  0  0  0  0  0  0  0  0  0  0  0
   -2.6285  -25.1389    1.0481 C   0  0  2  0  0  0  0  0  0  0  0  0
   -1.5204  -24.1732    1.0335 C   0  0  0  0  0  0  0  0  0  0  0  0
   -0.4328  -24.4242    0.4135 O   0  0  0  0  0  0  0  0  0  0  0  0
   -3.5358  -24.8688    2.2677 C   0  0  0  0  0  0  0  0  0  0  0  0
   -1.6443  -22.9326    1.7139 N   0  0  0  0  0  0  0  0  0  0  0  0
   -1.3369  -21.6859    1.0059 C   0  0  2  0  0  0  0  0  0  0  0  0
   -1.9708  -21.6309   -0.3126 C   0  0  0  0  0  0  0  0  0  0  0  0
   -2.5560  -22.6721   -0.7596 O   0  0  0  0  0  0  0  0  0  0  0  0
    0.1221  -21.3532    1.0836 C   0  0  0  0  0  0  0  0  0  0  0  0
    0.4450  -19.8985    1.0913 C   0  0  0  0  0  0  0  0  0  0  0  0
    1.6940  -19.6310    1.8663 C   0  0  0  0  0  0  0  0  0  0  0  0
    2.1491  -18.2947    1.9651 N   0  0  0  0  0  0  0  0  0  0  0  0
    1.9795  -17.5384    3.1471 C   0  0  0  0  0  0  0  0  0  0  0  0
    0.8547  -16.8991    3.3216 N   0  0  0  0  0  0  0  0  0  0  0  0
    3.0314  -17.4959    4.1101 N   0  0  0  0  0  0  0  0  0  0  0  0
   -2.0042  -20.4972   -1.1532 N   0  0  0  0  0  0  0  0  0  0  0  0
   -3.2950  -19.8876   -1.5355 C   0  0  2  0  0  0  0  0  0  0  0  0
   -3.0209  -18.8341   -2.5221 C   0  0  0  0  0  0  0  0  0  0  0  0
   -3.0692  -17.6030   -2.1620 O   0  0  0  0  0  0  0  0  0  0  0  0
   -3.7653  -19.2583   -0.2183 C   0  0  0  0  0  0  0  0  0  0  0  0
   -5.1439  -19.6234    0.1884 C   0  0  0  0  0  0  0  0  0  0  0  0
   -5.6368  -18.9679    1.4449 C   0  0  0  0  0  0  0  0  0  0  0  0
   -7.0970  -19.3905    1.6563 C   0  0  0  0  0  0  0  0  0  0  0  0
   -7.6906  -18.7144    2.7643 N   0  0  0  0  0  4  0  0  0  0  0  0
   -9.0811  -19.0831    2.9790 C   0  0  0  0  0  0  0  0  0  0  0  0
   -9.5835  -18.3560    4.1873 C   0  0  0  0  0  0  0  0  0  0  0  0
  -10.8505  -18.5744    4.6636 C   0  0  0  0  0  0  0  0  0  0  0  0
  -11.3183  -17.9304    5.7805 C   0  0  0  0  0  0  0  0  0  0  0  0
  -10.4743  -17.0441    6.4276 C   0  0  0  0  0  0  0  0  0  0  0  0
   -9.2008  -16.8200    5.9565 C   0  0  0  0  0  0  0  0  0  0  0  0
   -8.7460  -17.4776    4.8260 C   0  0  0  0  0  0  0  0  0  0  0  0
   -2.6973  -19.1177   -3.8538 N   0  0  0  0  0  0  0  0  0  0  0  0
   -2.4150  -18.0504   -4.7862 C   0  0  2  0  0  0  0  0  0  0  0  0
   -3.5765  -17.5459   -5.5098 C   0  0  0  0  0  0  0  0  0  0  0  0
   -3.4709  -16.5983   -6.3708 O   0  0  0  0  0  0  0  0  0  0  0  0
   -1.2884  -18.5098   -5.7333 C   0  0  0  0  0  0  0  0  0  0  0  0
   -1.8671  -19.5582   -6.4734 O   0  0  0  0  0  0  0  0  0  0  0  0
   -4.8330  -18.0661   -5.2981 O   0  0  0  0  0  0  0  0  0  0  0  0
    0.0523  -16.9705    2.6555 H   0  0  0  0  0  0  0  0  0  0  0  0
  1  2  1  0
  2  3  1  0
  2  5  1  1
  3  4  2  0
  3  6  1  0
  6  7  1  0
  7  8  1  0
  7 10  1  6
  8  9  2  0
  8 15  1  0
 10 11  1  0
 11 12  1  0
 12 13  1  0
 13 14  1  0
 15 16  1  0
 16 17  1  0
 16 19  1  1
 17 18  2  0
 17 24  1  0
 19 20  1  0
 20 21  1  0
 21 22  2  0
 21 23  1  0
 25 24  1  6
 25 26  1  0
 25 28  1  0
 26 27  2  0
 26 31  1  0
 28 29  1  0
 28 30  1  6
 31 32  1  0
 32 33  1  0
 32 35  1  1
 33 34  2  0
 33 36  1  0
 36 37  1  0
 37 38  1  0
 37 40  1  6
 38 39  2  0
 38 47  1  0
 40 41  1  0
 41 42  1  0
 42 43  1  0
 43 44  1  0
 44 45  2  0
 44 46  1  0
 47 48  1  0
 48 49  1  0
 48 51  1  1
 49 50  2  0
 49 63  1  0
 51 52  1  0
 52 53  1  0
 53 54  1  0
 54 55  1  0
 55 56  1  0
 56 57  1  0
 57 58  2  0
 57 62  1  0
 58 59  1  0
 59 60  2  0
 60 61  1  0
 61 62  2  0
 63 64  1  0
 64 65  1  0
 64 67  1  6
 65 66  2  0
 65 69  1  0
 67 68  1  0
 45 70  1  0
M  CHG  3   1   1  14   1  55   1
M  END
$$$$
