
     RDKit          3D

 70 70  0  0  0  0  0  0  0  0999 V2000
   -8.7593  -36.4159   -3.0752 N   0  0  0  0  0  4  0  0  0  0  0  0
   -9.4339  -35.1698   -3.2871 C   0  0  2  0  0  0  0  0  0  0  0  0
   -8.6268  -33.9913   -2.8950 C   0  0  0  0  0  0  0  0  0  0  0  0
   -8.4837  -33.0048   -3.6836 O   0  0  0  0  0  0  0  0  0  0  0  0
  -10.7838  -35.0739   -2.6285 C   0  0  0  0  0  0  0  0  0  0  0  0
   -7.9555  -33.8795   -1.6167 N   0  0  0  0  0  0  0  0  0  0  0  0
   -7.3114  -32.6379   -1.3320 C   0  0  2  0  0  0  0  0  0  0  0  0
   -6.1787  -32.4140   -2.3192 C   0  0  0  0  0  0  0  0  0  0  0  0
   -6.4743  -31.9338   -3.4386 O   0  0  0  0  0  0  0  0  0  0  0  0
   -6.8155  -32.4663    0.0613 C   0  0  0  0  0  0  0  0  0  0  0  0
   -7.5419  -31.6339    1.0220 C   0  0  0  0  0  0  0  0  0  0  0  0
   -8.4828  -32.2459    1.9831 C   0  0  0  0  0  0  0  0  0  0  0  0
   -8.0499  -33.5893    2.5423 C   0  0  0  0  0  0  0  0  0  0  0  0
   -6.9973  -33.4239    3.5332 N   0  0  0  0  0  4  0  0  0  0  0  0
   -4.8776  -32.7141   -2.0156 N   0  0  0  0  0  0  0  0  0  0  0  0
   -3.9566  -32.0011   -1.2209 C   0  0  2  0  0  0  0  0  0  0  0  0
   -3.0002  -31.3499   -2.1200 C   0  0  0  0  0  0  0  0  0  0  0  0
   -2.5685  -32.0541   -3.1176 O   0  0  0  0  0  0  0  0  0  0  0  0
   -3.1978  -32.8559   -0.2252 C   0  0  0  0  0  0  0  0  0  0  0  0
   -3.1438  -34.3072   -0.6970 C   0  0  0  0  0  0  0  0  0  0  0  0
   -3.9429  -34.5305   -1.9047 C   0  0  0  0  0  0  0  0  0  0  0  0
   -5.1010  -35.0927   -1.7246 O   0  0  0  0  0  0  0  0  0  0  0  0
   -3.6195  -34.2265   -3.2226 N   0  0  0  0  0  0  0  0  0  0  0  0
   -2.4629  -30.0550   -2.0678 N   0  0  0  0  0  0  0  0  0  0  0  0
   -2.5275  -29.2501   -0.8510 C   0  0  2  0  0  0  0  0  0  0  0  0
   -2.6829  -27.7866   -1.1550 C   0  0  0  0  0  0  0  0  0  0  0  0
   -2.8073  -27.4500   -2.3483 O   0  0  0  0  0  0  0  0  0  0  0  0
   -1.2624  -29.4300   -0.0865 C   0  0  2  0  0  0  0  0  0  0  0  0
   -0.2114  -29.0007   -0.9382 O   0  0  0  0  0  0  0  0  0  0  0  0
   -0.9441  -30.8475    0.2980 C   0  0  0  0  0  0  0  0  0  0  0  0
   -2.6954  -26.8223   -0.1403 N   0  0  0  0  0  0  0  0  0  0  0  0
   -2.8049  -25.4230   -0.4139 C   0  0  2  0  0  0  0  0  0  0  0  0
   -2.4552  -24.5843    0.7415 C   0  0  0  0  0  0  0  0  0  0  0  0
   -3.0691  -24.7033    1.8547 O   0  0  0  0  0  0  0  0  0  0  0  0
   -4.2554  -25.1251   -0.8510 C   0  0  0  0  0  0  0  0  0  0  0  0
   -1.4173  -23.6204    0.6372 N   0  0  0  0  0  0  0  0  0  0  0  0
   -1.6563  -22.2481    1.0953 C   0  0  2  0  0  0  0  0  0  0  0  0
   -3.0118  -22.0710    1.6194 C   0  0  0  0  0  0  0  0  0  0  0  0
   -3.9675  -22.7319    1.0940 O   0  0  0  0  0  0  0  0  0  0  0  0
   -1.1651  -21.2414    0.1000 C   0  0  0  0  0  0  0  0  0  0  0  0
    0.1058  -20.5533    0.4633 C   0  0  0  0  0  0  0  0  0  0  0  0
    0.9109  -20.2371   -0.7549 C   0  0  0  0  0  0  0  0  0  0  0  0
    1.6677  -19.0414   -0.7672 N   0  0  0  0  0  0  0  0  0  0  0  0
    1.3277  -17.9565   -1.6070 C   0  0  0  0  0  0  0  0  0  0  0  0
    0.1465  -17.4156   -1.4785 N   0  0  0  0  0  0  0  0  0  0  0  0
    2.2763  -17.4842   -2.5624 N   0  0  0  0  0  0  0  0  0  0  0  0
   -3.3663  -21.2208    2.6891 N   0  0  0  0  0  0  0  0  0  0  0  0
   -4.7751  -21.1120    3.1225 C   0  0  2  0  0  0  0  0  0  0  0  0
   -5.2986  -19.8291    2.6343 C   0  0  0  0  0  0  0  0  0  0  0  0
   -4.5655  -18.7781    2.7080 O   0  0  0  0  0  0  0  0  0  0  0  0
   -4.6479  -21.0752    4.6505 C   0  0  0  0  0  0  0  0  0  0  0  0
   -5.8552  -20.5933    5.3639 C   0  0  0  0  0  0  0  0  0  0  0  0
   -5.6337  -20.1706    6.7865 C   0  0  0  0  0  0  0  0  0  0  0  0
   -6.1037  -21.3131    7.6972 C   0  0  0  0  0  0  0  0  0  0  0  0
   -7.4185  -21.7546    7.3601 N   0  0  0  0  0  4  0  0  0  0  0  0
   -8.2435  -22.0312    8.5255 C   0  0  0  0  0  0  0  0  0  0  0  0
   -9.0216  -20.7967    8.8597 C   0  0  0  0  0  0  0  0  0  0  0  0
  -10.3771  -20.7437    8.6600 C   0  0  0  0  0  0  0  0  0  0  0  0
  -11.1064  -19.6270    8.9791 C   0  0  0  0  0  0  0  0  0  0  0  0
  -10.4386  -18.5394    9.5156 C   0  0  0  0  0  0  0  0  0  0  0  0
   -9.0784  -18.5849    9.7201 C   0  0  0  0  0  0  0  0  0  0  0  0
   -8.3577  -19.7202    9.3900 C   0  0  0  0  0  0  0  0  0  0  0  0
   -6.5764  -19.7021    2.0775 N   0  0  0  0  0  0  0  0  0  0  0  0
   -7.0249  -18.4359    1.5449 C   0  0  2  0  0  0  0  0  0  0  0  0
   -7.2316  -17.3910    2.5412 C   0  0  0  0  0  0  0  0  0  0  0  0
   -8.0834  -17.5305    3.4928 O   0  0  0  0  0  0  0  0  0  0  0  0
   -8.2799  -18.6813    0.6836 C   0  0  0  0  0  0  0  0  0  0  0  0
   -8.7401  -19.9454    1.0982 O   0  0  0  0  0  0  0  0  0  0  0  0
   -6.5212  -16.2129    2.5008 O   0  0  0  0  0  0  0  0  0  0  0  0
   -0.0151  -16.5219   -0.9610 H   0  0  0  0  0  0  0  0  0  0  0  0
  1  2  1  0
  2  3  1  0
  2  5  1  1
  3  4  2  0
  3  6  1  0
  6  7  1  0
  7  8  1  0
  7 10  1  1
  8  9  2  0
  8 15  1  0
 10 11  1  0
 11 12  1  0
 12 13  1  0
 13 14  1  0
 15 16  1  0
 16 17  1  0
 16 19  1  1
 17 18  2  0
 17 24  1  0
 19 20  1  0
 20 21  1  0
 21 22  2  0
 21 23  1  0
 25 24  1  6
 25 26  1  0
 25 28  1  0
 26 27  2  0
 26 31  1  0
 28 29  1  0
 28 30  1  6
 31 32  1  0
 32 33  1  0
 32 35  1  1
 33 34  2  0
 33 36  1  0
 36 37  1  0
 37 38  1  0
 37 40  1  6
 38 39  2  0
 38 47  1  0
 40 41  1  0
 41 42  1  0
 42 43  1  0
 43 44  1  0
 44 45  2  0
 44 46  1  0
 47 48  1  0
 48 49  1  0
 48 51  1  1
 49 50  2  0
 49 63  1  0
 51 52  1  0
 52 53  1  0
 53 54  1  0
 54 55  1  0
 55 56  1  0
 56 57  1  0
 57 58  2  0
 57 62  1  0
 58 59  1  0
 59 60  2  0
 60 61  1  0
 61 62  2  0
 63 64  1  0
 64 65  1  0
 64 67  1  1
 65 66  2  0
 65 69  1  0
 67 68  1  0
 45 70  1  0
M  CHG  3   1   1  14   1  55   1
M  END
$$$$
