
     RDKit          3D

 70 70  0  0  0  0  0  0  0  0999 V2000
   -5.8875  -38.9009    1.7607 N   0  0  0  0  0  4  0  0  0  0  0  0
   -6.4677  -37.6787    2.2322 C   0  0  2  0  0  0  0  0  0  0  0  0
   -6.2943  -36.5462    1.2933 C   0  0  0  0  0  0  0  0  0  0  0  0
   -5.2507  -36.4463    0.5747 O   0  0  0  0  0  0  0  0  0  0  0  0
   -5.9973  -37.2533    3.5971 C   0  0  0  0  0  0  0  0  0  0  0  0
   -7.2755  -35.4937    1.1303 N   0  0  0  0  0  0  0  0  0  0  0  0
   -6.8831  -34.3589    0.3586 C   0  0  2  0  0  0  0  0  0  0  0  0
   -5.5430  -33.8442    0.8557 C   0  0  0  0  0  0  0  0  0  0  0  0
   -4.9956  -34.4699    1.7937 O   0  0  0  0  0  0  0  0  0  0  0  0
   -7.8666  -33.2429    0.2954 C   0  0  0  0  0  0  0  0  0  0  0  0
   -7.9249  -32.3555   -0.8676 C   0  0  0  0  0  0  0  0  0  0  0  0
   -8.7314  -31.1180   -0.8267 C   0  0  0  0  0  0  0  0  0  0  0  0
   -9.8542  -31.0465   -1.8460 C   0  0  0  0  0  0  0  0  0  0  0  0
   -9.7785  -32.1595   -2.7802 N   0  0  0  0  0  4  0  0  0  0  0  0
   -4.9372  -32.7439    0.3102 N   0  0  0  0  0  0  0  0  0  0  0  0
   -3.5642  -32.4620    0.1566 C   0  0  2  0  0  0  0  0  0  0  0  0
   -3.4460  -31.2136   -0.6015 C   0  0  0  0  0  0  0  0  0  0  0  0
   -3.8791  -31.2320   -1.8221 O   0  0  0  0  0  0  0  0  0  0  0  0
   -2.7791  -33.5483   -0.5517 C   0  0  0  0  0  0  0  0  0  0  0  0
   -1.7904  -32.9359   -1.5410 C   0  0  0  0  0  0  0  0  0  0  0  0
   -0.7164  -33.8648   -1.9027 C   0  0  0  0  0  0  0  0  0  0  0  0
   -1.0677  -34.8871   -2.6247 O   0  0  0  0  0  0  0  0  0  0  0  0
    0.6314  -33.7998   -1.5663 N   0  0  0  0  0  0  0  0  0  0  0  0
   -2.9222  -29.9737   -0.2062 N   0  0  0  0  0  0  0  0  0  0  0  0
   -3.5623  -28.7177   -0.5880 C   0  0  2  0  0  0  0  0  0  0  0  0
   -2.7733  -27.5244   -0.1278 C   0  0  0  0  0  0  0  0  0  0  0  0
   -3.1388  -26.9528    0.9173 O   0  0  0  0  0  0  0  0  0  0  0  0
   -4.9088  -28.6516    0.0443 C   0  0  2  0  0  0  0  0  0  0  0  0
   -4.6953  -28.3852    1.4220 O   0  0  0  0  0  0  0  0  0  0  0  0
   -5.7095  -29.9215   -0.0227 C   0  0  0  0  0  0  0  0  0  0  0  0
   -1.6582  -27.0627   -0.8369 N   0  0  0  0  0  0  0  0  0  0  0  0
   -1.4763  -25.6829   -1.1657 C   0  0  2  0  0  0  0  0  0  0  0  0
   -2.2767  -24.7829   -0.3230 C   0  0  0  0  0  0  0  0  0  0  0  0
   -3.1139  -25.2416    0.5249 O   0  0  0  0  0  0  0  0  0  0  0  0
   -1.8583  -25.4819   -2.6480 C   0  0  0  0  0  0  0  0  0  0  0  0
   -2.1284  -23.3751   -0.4387 N   0  0  0  0  0  0  0  0  0  0  0  0
   -3.0059  -22.4897    0.3335 C   0  0  2  0  0  0  0  0  0  0  0  0
   -2.8992  -21.0951   -0.0989 C   0  0  0  0  0  0  0  0  0  0  0  0
   -1.9452  -20.3801    0.3540 O   0  0  0  0  0  0  0  0  0  0  0  0
   -2.9109  -22.7649    1.8035 C   0  0  0  0  0  0  0  0  0  0  0  0
   -1.7500  -22.1376    2.4958 C   0  0  0  0  0  0  0  0  0  0  0  0
   -2.1961  -21.0279    3.3914 C   0  0  0  0  0  0  0  0  0  0  0  0
   -1.3921  -19.8661    3.4716 N   0  0  0  0  0  0  0  0  0  0  0  0
   -1.2980  -19.1095    4.6618 C   0  0  0  0  0  0  0  0  0  0  0  0
   -1.2458  -17.8083    4.5702 N   0  0  0  0  0  0  0  0  0  0  0  0
   -1.2651  -19.7814    5.9200 N   0  0  0  0  0  0  0  0  0  0  0  0
   -3.7726  -20.4544   -1.0041 N   0  0  0  0  0  0  0  0  0  0  0  0
   -4.2149  -19.0655   -0.7604 C   0  0  2  0  0  0  0  0  0  0  0  0
   -3.0341  -18.2763   -0.3844 C   0  0  0  0  0  0  0  0  0  0  0  0
   -3.1671  -17.2827    0.4171 O   0  0  0  0  0  0  0  0  0  0  0  0
   -5.1435  -19.2228    0.4500 C   0  0  0  0  0  0  0  0  0  0  0  0
   -6.5487  -18.8124    0.2137 C   0  0  0  0  0  0  0  0  0  0  0  0
   -6.7365  -17.3893   -0.2234 C   0  0  0  0  0  0  0  0  0  0  0  0
   -8.1394  -17.2638   -0.8331 C   0  0  0  0  0  0  0  0  0  0  0  0
   -8.0878  -16.9512   -2.2248 N   0  0  0  0  0  4  0  0  0  0  0  0
   -8.8834  -15.7859   -2.5774 C   0  0  0  0  0  0  0  0  0  0  0  0
   -8.9903  -15.7182   -4.0691 C   0  0  0  0  0  0  0  0  0  0  0  0
   -9.6909  -14.7098   -4.6792 C   0  0  0  0  0  0  0  0  0  0  0  0
   -9.7817  -14.6235   -6.0450 C   0  0  0  0  0  0  0  0  0  0  0  0
   -9.1423  -15.5868   -6.8064 C   0  0  0  0  0  0  0  0  0  0  0  0
   -8.4363  -16.6017   -6.2018 C   0  0  0  0  0  0  0  0  0  0  0  0
   -8.3571  -16.6743   -4.8213 C   0  0  0  0  0  0  0  0  0  0  0  0
   -1.7517  -18.5689   -0.8623 N   0  0  0  0  0  0  0  0  0  0  0  0
   -0.6189  -17.7604   -0.4734 C   0  0  2  0  0  0  0  0  0  0  0  0
   -0.8472  -16.3208   -0.5254 C   0  0  0  0  0  0  0  0  0  0  0  0
   -0.7061  -15.5813    0.5156 O   0  0  0  0  0  0  0  0  0  0  0  0
    0.6029  -18.1907   -1.3096 C   0  0  0  0  0  0  0  0  0  0  0  0
    0.3981  -17.5764   -2.5596 O   0  0  0  0  0  0  0  0  0  0  0  0
   -1.2232  -15.6975   -1.6933 O   0  0  0  0  0  0  0  0  0  0  0  0
   -0.6837  -17.3129    3.8413 H   0  0  0  0  0  0  0  0  0  0  0  0
  1  2  1  0
  2  3  1  0
  2  5  1  1
  3  4  2  0
  3  6  1  0
  6  7  1  0
  7  8  1  0
  7 10  1  1
  8  9  2  0
  8 15  1  0
 10 11  1  0
 11 12  1  0
 12 13  1  0
 13 14  1  0
 15 16  1  0
 16 17  1  0
 16 19  1  6
 17 18  2  0
 17 24  1  0
 19 20  1  0
 20 21  1  0
 21 22  2  0
 21 23  1  0
 25 24  1  1
 25 26  1  0
 25 28  1  0
 26 27  2  0
 26 31  1  0
 28 29  1  0
 28 30  1  1
 31 32  1  0
 32 33  1  0
 32 35  1  6
 33 34  2  0
 33 36  1  0
 36 37  1  0
 37 38  1  0
 37 40  1  1
 38 39  2  0
 38 47  1  0
 40 41  1  0
 41 42  1  0
 42 43  1  0
 43 44  1  0
 44 45  2  0
 44 46  1  0
 47 48  1  0
 48 49  1  0
 48 51  1  1
 49 50  2  0
 49 63  1  0
 51 52  1  0
 52 53  1  0
 53 54  1  0
 54 55  1  0
 55 56  1  0
 56 57  1  0
 57 58  2  0
 57 62  1  0
 58 59  1  0
 59 60  2  0
 60 61  1  0
 61 62  2  0
 63 64  1  0
 64 65  1  0
 64 67  1  6
 65 66  2  0
 65 69  1  0
 67 68  1  0
 45 70  1  0
M  CHG  3   1   1  14   1  55   1
M  END
$$$$
