
     RDKit          3D

 70 70  0  0  0  0  0  0  0  0999 V2000
   -8.6454  -36.3286    2.0286 N   0  0  0  0  0  4  0  0  0  0  0  0
   -8.3622  -36.5936    0.6494 C   0  0  2  0  0  0  0  0  0  0  0  0
   -7.5707  -35.5251   -0.0031 C   0  0  0  0  0  0  0  0  0  0  0  0
   -7.6410  -34.3212    0.3985 O   0  0  0  0  0  0  0  0  0  0  0  0
   -9.5778  -36.8786   -0.1911 C   0  0  0  0  0  0  0  0  0  0  0  0
   -6.6819  -35.7663   -1.1206 N   0  0  0  0  0  0  0  0  0  0  0  0
   -6.4841  -34.6867   -2.0331 C   0  0  2  0  0  0  0  0  0  0  0  0
   -5.7023  -33.5785   -1.3486 C   0  0  0  0  0  0  0  0  0  0  0  0
   -6.3344  -32.8134   -0.5830 O   0  0  0  0  0  0  0  0  0  0  0  0
   -7.7146  -34.1306   -2.6604 C   0  0  0  0  0  0  0  0  0  0  0  0
   -8.0031  -34.3525   -4.0785 C   0  0  0  0  0  0  0  0  0  0  0  0
   -7.0254  -33.9567   -5.1133 C   0  0  0  0  0  0  0  0  0  0  0  0
   -7.4624  -32.8107   -6.0081 C   0  0  0  0  0  0  0  0  0  0  0  0
   -7.6207  -33.2579   -7.3837 N   0  0  0  0  0  4  0  0  0  0  0  0
   -4.3576  -33.4080   -1.5432 N   0  0  0  0  0  0  0  0  0  0  0  0
   -3.4419  -32.6161   -0.8202 C   0  0  2  0  0  0  0  0  0  0  0  0
   -3.6892  -31.2147   -1.1698 C   0  0  0  0  0  0  0  0  0  0  0  0
   -3.7593  -30.9346   -2.4324 O   0  0  0  0  0  0  0  0  0  0  0  0
   -1.9861  -32.9440   -1.0869 C   0  0  0  0  0  0  0  0  0  0  0  0
   -1.0766  -32.1223   -0.1763 C   0  0  0  0  0  0  0  0  0  0  0  0
   -0.9348  -32.7187    1.1546 C   0  0  0  0  0  0  0  0  0  0  0  0
   -1.3686  -32.0018    2.1483 O   0  0  0  0  0  0  0  0  0  0  0  0
   -0.3875  -33.9510    1.4947 N   0  0  0  0  0  0  0  0  0  0  0  0
   -3.8625  -30.1018   -0.3335 N   0  0  0  0  0  0  0  0  0  0  0  0
   -4.1348  -28.7737   -0.8765 C   0  0  2  0  0  0  0  0  0  0  0  0
   -3.4680  -27.6927   -0.0733 C   0  0  0  0  0  0  0  0  0  0  0  0
   -3.4409  -27.8209    1.1658 O   0  0  0  0  0  0  0  0  0  0  0  0
   -5.6037  -28.5319   -0.8445 C   0  0  2  0  0  0  0  0  0  0  0  0
   -6.1324  -29.3895    0.1553 O   0  0  0  0  0  0  0  0  0  0  0  0
   -6.3337  -28.8626   -2.1158 C   0  0  0  0  0  0  0  0  0  0  0  0
   -2.8868  -26.5754   -0.6844 N   0  0  0  0  0  0  0  0  0  0  0  0
   -2.3888  -25.4641    0.0652 C   0  0  2  0  0  0  0  0  0  0  0  0
   -3.4462  -24.5271    0.4713 C   0  0  0  0  0  0  0  0  0  0  0  0
   -4.3029  -24.0923   -0.3697 O   0  0  0  0  0  0  0  0  0  0  0  0
   -1.3439  -24.7245   -0.7978 C   0  0  0  0  0  0  0  0  0  0  0  0
   -3.5333  -24.0880    1.8192 N   0  0  0  0  0  0  0  0  0  0  0  0
   -4.5543  -23.1047    2.1947 C   0  0  2  0  0  0  0  0  0  0  0  0
   -4.0257  -21.7395    2.2063 C   0  0  0  0  0  0  0  0  0  0  0  0
   -3.3498  -21.3483    3.2145 O   0  0  0  0  0  0  0  0  0  0  0  0
   -5.3357  -23.5516    3.3927 C   0  0  0  0  0  0  0  0  0  0  0  0
   -6.2736  -22.5399    3.9558 C   0  0  0  0  0  0  0  0  0  0  0  0
   -7.0666  -23.1142    5.0844 C   0  0  0  0  0  0  0  0  0  0  0  0
   -6.7851  -22.6678    6.3975 N   0  0  0  0  0  0  0  0  0  0  0  0
   -6.1922  -21.4082    6.6420 C   0  0  0  0  0  0  0  0  0  0  0  0
   -5.0579  -21.3683    7.2868 N   0  0  0  0  0  0  0  0  0  0  0  0
   -6.8420  -20.2250    6.1798 N   0  0  0  0  0  0  0  0  0  0  0  0
   -4.1907  -20.7938    1.1712 N   0  0  0  0  0  0  0  0  0  0  0  0
   -3.6557  -19.4239    1.3177 C   0  0  2  0  0  0  0  0  0  0  0  0
   -2.3261  -19.3906    0.6938 C   0  0  0  0  0  0  0  0  0  0  0  0
   -1.3121  -19.8360    1.3427 O   0  0  0  0  0  0  0  0  0  0  0  0
   -3.5210  -19.2836    2.8391 C   0  0  0  0  0  0  0  0  0  0  0  0
   -4.7272  -18.7603    3.5248 C   0  0  0  0  0  0  0  0  0  0  0  0
   -5.2276  -17.4378    3.0224 C   0  0  0  0  0  0  0  0  0  0  0  0
   -6.4815  -17.0707    3.8277 C   0  0  0  0  0  0  0  0  0  0  0  0
   -6.1726  -16.2265    4.9364 N   0  0  0  0  0  4  0  0  0  0  0  0
   -7.1120  -15.1277    5.0957 C   0  0  0  0  0  0  0  0  0  0  0  0
   -8.1940  -15.5610    6.0351 C   0  0  0  0  0  0  0  0  0  0  0  0
   -8.1533  -16.7935    6.6346 C   0  0  0  0  0  0  0  0  0  0  0  0
   -9.1269  -17.1971    7.5122 C   0  0  0  0  0  0  0  0  0  0  0  0
  -10.1653  -16.3236    7.7861 C   0  0  0  0  0  0  0  0  0  0  0  0
  -10.2130  -15.0844    7.1893 C   0  0  0  0  0  0  0  0  0  0  0  0
   -9.2223  -14.6944    6.3040 C   0  0  0  0  0  0  0  0  0  0  0  0
   -2.1145  -18.8950   -0.5978 N   0  0  0  0  0  0  0  0  0  0  0  0
   -0.9396  -18.1105   -0.9020 C   0  0  2  0  0  0  0  0  0  0  0  0
   -1.1675  -16.6722   -0.9825 C   0  0  0  0  0  0  0  0  0  0  0  0
   -0.5673  -15.9457   -1.8557 O   0  0  0  0  0  0  0  0  0  0  0  0
   -0.2900  -18.6736   -2.1819 C   0  0  0  0  0  0  0  0  0  0  0  0
   -0.9203  -17.9705   -3.2258 O   0  0  0  0  0  0  0  0  0  0  0  0
   -2.0356  -16.0360   -0.1247 O   0  0  0  0  0  0  0  0  0  0  0  0
   -4.9347  -20.8509    8.1867 H   0  0  0  0  0  0  0  0  0  0  0  0
  1  2  1  0
  2  3  1  0
  2  5  1  6
  3  4  2  0
  3  6  1  0
  6  7  1  0
  7  8  1  0
  7 10  1  1
  8  9  2  0
  8 15  1  0
 10 11  1  0
 11 12  1  0
 12 13  1  0
 13 14  1  0
 15 16  1  0
 16 17  1  0
 16 19  1  6
 17 18  2  0
 17 24  1  0
 19 20  1  0
 20 21  1  0
 21 22  2  0
 21 23  1  0
 25 24  1  1
 25 26  1  0
 25 28  1  0
 26 27  2  0
 26 31  1  0
 28 29  1  0
 28 30  1  6
 31 32  1  0
 32 33  1  0
 32 35  1  6
 33 34  2  0
 33 36  1  0
 36 37  1  0
 37 38  1  0
 37 40  1  1
 38 39  2  0
 38 47  1  0
 40 41  1  0
 41 42  1  0
 42 43  1  0
 43 44  1  0
 44 45  2  0
 44 46  1  0
 47 48  1  0
 48 49  1  0
 48 51  1  1
 49 50  2  0
 49 63  1  0
 51 52  1  0
 52 53  1  0
 53 54  1  0
 54 55  1  0
 55 56  1  0
 56 57  1  0
 57 58  2  0
 57 62  1  0
 58 59  1  0
 59 60  2  0
 60 61  1  0
 61 62  2  0
 63 64  1  0
 64 65  1  0
 64 67  1  6
 65 66  2  0
 65 69  1  0
 67 68  1  0
 45 70  1  0
M  CHG  3   1   1  14   1  55   1
M  END
$$$$
