
     RDKit          3D

 44 49  0  0  0  0  0  0  0  0999 V2000
    0.4373   -0.7285  -13.8773 C   0  0  0  0  0  0  0  0  0  0  0  0
    0.8316   -0.4724  -12.5754 C   0  0  0  0  0  0  0  0  0  0  0  0
    1.7722    0.4947  -12.3140 C   0  0  0  0  0  0  0  0  0  0  0  0
    2.2983    1.1883  -13.3876 C   0  0  0  0  0  0  0  0  0  0  0  0
    1.9072    0.9355  -14.6894 C   0  0  0  0  0  0  0  0  0  0  0  0
    0.9727   -0.0243  -14.9579 C   0  0  0  0  0  0  0  0  0  0  0  0
    0.5135   -0.3437  -16.3063 C   0  0  0  0  0  0  0  0  0  0  0  0
    1.3895   -0.7713  -17.2818 C   0  0  0  0  0  0  0  0  0  0  0  0
    0.9103   -1.0637  -18.5487 C   0  0  0  0  0  0  0  0  0  0  0  0
    1.8282   -1.5163  -19.5871 C   0  0  0  0  0  0  0  0  0  0  0  0
    3.0511   -1.6287  -19.2916 O   0  0  0  0  0  0  0  0  0  0  0  0
    1.2987   -1.8057  -20.8721 N   0  0  0  0  0  0  0  0  0  0  0  0
    0.0573   -1.6731  -21.1080 C   0  0  0  0  0  0  0  0  0  0  0  0
   -0.9783   -1.2304  -20.1674 C   0  0  0  0  0  0  0  0  0  0  0  0
   -0.4344   -0.9288  -18.8359 C   0  0  0  0  0  0  0  0  0  0  0  0
   -1.2840   -0.5082  -17.8691 N   0  0  0  0  0  0  0  0  0  0  0  0
   -0.8325   -0.2161  -16.6183 C   0  0  0  0  0  0  0  0  0  0  0  0
   -1.7246    0.2383  -15.5524 C   0  0  0  0  0  0  0  0  0  0  0  0
   -2.6173   -0.6387  -14.9407 C   0  0  0  0  0  0  0  0  0  0  0  0
   -3.4606   -0.2145  -13.9355 C   0  0  0  0  0  0  0  0  0  0  0  0
   -1.7187    1.5454  -15.1124 C   0  0  0  0  0  0  0  0  0  0  0  0
   -2.5745    1.9521  -14.1004 C   0  0  0  0  0  0  0  0  0  0  0  0
   -3.4591    1.0924  -13.4914 C   0  0  0  0  0  0  0  0  0  0  0  0
   -4.3728    1.5059  -12.4235 C   0  0  0  0  0  0  0  0  0  0  0  0
   -3.9783    2.6900  -11.6929 N   0  0  1  0  0  4  0  0  0  0  0  0
   -4.8875    2.8999  -10.6239 C   0  0  0  0  0  0  0  0  0  0  0  0
   -4.4031    2.5826   -9.2548 C   0  0  0  0  0  0  0  0  0  0  0  0
   -2.6017    2.6695  -11.4204 C   0  0  0  0  0  0  0  0  0  0  0  0
   -2.1580    2.3148  -10.0519 C   0  0  0  0  0  0  0  0  0  0  0  0
   -2.9833    2.9119   -8.9694 C   0  0  1  0  0  0  0  0  0  0  0  0
   -2.8291    4.3397   -8.7994 N   0  0  0  0  0  0  0  0  0  0  0  0
   -1.7550    4.9172   -8.0729 C   0  0  0  0  0  0  0  0  0  0  0  0
   -0.5982    4.6703   -8.4759 O   0  0  0  0  0  0  0  0  0  0  0  0
   -1.9190    5.7691   -6.9014 C   0  0  0  0  0  0  0  0  0  0  0  0
   -2.9492    6.6770   -6.7606 C   0  0  0  0  0  0  0  0  0  0  0  0
   -1.0189    5.6967   -5.8576 C   0  0  0  0  0  0  0  0  0  0  0  0
   -1.1418    6.4883   -4.7358 C   0  0  0  0  0  0  0  0  0  0  0  0
   -2.1976    7.3915   -4.6360 C   0  0  0  0  0  0  0  0  0  0  0  0
   -3.1184    7.4883   -5.6660 C   0  0  0  0  0  0  0  0  0  0  0  0
   -4.1793    8.4203   -5.5203 N   0  0  0  0  0  0  0  0  0  0  0  0
   -4.5833    9.3062   -6.5439 C   0  0  0  0  0  0  0  0  0  0  0  0
   -3.9842    9.3021   -7.6548 O   0  0  0  0  0  0  0  0  0  0  0  0
   -5.7199   10.2254   -6.2703 C   0  0  0  0  0  0  0  0  0  0  0  0
   -5.3389   11.6023   -6.7885 C   0  0  0  0  0  0  0  0  0  0  0  0
  1  2  2  0
  1  6  1  0
  2  3  1  0
  3  4  2  0
  4  5  1  0
  5  6  2  0
  6  7  1  0
  7  8  2  0
  7 17  1  0
  8  9  1  0
  9 10  1  0
  9 15  2  0
 10 11  2  0
 10 12  1  0
 12 13  2  0
 13 14  1  0
 14 15  1  0
 15 16  1  0
 16 17  2  0
 17 18  1  0
 18 19  2  0
 18 21  1  0
 19 20  1  0
 20 23  2  0
 21 22  2  0
 22 23  1  0
 23 24  1  0
 25 24  1  1
 25 26  1  0
 25 28  1  0
 26 27  1  0
 27 30  1  0
 28 29  1  0
 29 30  1  0
 30 31  1  6
 31 32  1  0
 32 33  2  0
 32 34  1  0
 34 35  2  0
 34 36  1  0
 35 39  1  0
 36 37  2  0
 37 38  1  0
 38 39  2  0
 39 40  1  0
 40 41  1  0
 41 42  2  0
 41 43  1  0
 43 44  1  0
M  CHG  1  25   1
M  END
$$$$
