
     RDKit          3D

 44 49  0  0  0  0  0  0  0  0999 V2000
    4.1047    0.6508  -12.3060 C   0  0  0  0  0  0  0  0  0  0  0  0
    4.4677    1.2936  -11.1350 C   0  0  0  0  0  0  0  0  0  0  0  0
    5.7942    1.4893  -10.8348 C   0  0  0  0  0  0  0  0  0  0  0  0
    6.7339    1.0251  -11.7361 C   0  0  0  0  0  0  0  0  0  0  0  0
    6.3754    0.3825  -12.9067 C   0  0  0  0  0  0  0  0  0  0  0  0
    5.0588    0.1840  -13.2126 C   0  0  0  0  0  0  0  0  0  0  0  0
    4.6088   -0.4859  -14.4292 C   0  0  0  0  0  0  0  0  0  0  0  0
    5.4977   -1.1182  -15.2727 C   0  0  0  0  0  0  0  0  0  0  0  0
    5.0268   -1.7416  -16.4171 C   0  0  0  0  0  0  0  0  0  0  0  0
    5.9585   -2.4128  -17.3156 C   0  0  0  0  0  0  0  0  0  0  0  0
    7.1853   -2.4032  -17.0152 O   0  0  0  0  0  0  0  0  0  0  0  0
    5.4372   -3.0398  -18.4778 N   0  0  0  0  0  0  0  0  0  0  0  0
    4.1912   -3.0153  -18.7255 C   0  0  0  0  0  0  0  0  0  0  0  0
    3.1422   -2.3829  -17.9178 C   0  0  0  0  0  0  0  0  0  0  0  0
    3.6775   -1.7317  -16.7140 C   0  0  0  0  0  0  0  0  0  0  0  0
    2.8152   -1.1074  -15.8773 N   0  0  0  0  0  0  0  0  0  0  0  0
    3.2584   -0.4893  -14.7480 C   0  0  0  0  0  0  0  0  0  0  0  0
    2.3525    0.1916  -13.8237 C   0  0  0  0  0  0  0  0  0  0  0  0
    2.1241    1.5623  -13.9214 C   0  0  0  0  0  0  0  0  0  0  0  0
    1.2711    2.2086  -13.0518 C   0  0  0  0  0  0  0  0  0  0  0  0
    1.6919   -0.4910  -12.8239 C   0  0  0  0  0  0  0  0  0  0  0  0
    0.8382    0.1772  -11.9597 C   0  0  0  0  0  0  0  0  0  0  0  0
    0.6075    1.5304  -12.0494 C   0  0  0  0  0  0  0  0  0  0  0  0
   -0.2880    2.2529  -11.1427 C   0  0  0  0  0  0  0  0  0  0  0  0
   -1.5044    2.7558  -11.7418 N   0  0  1  0  0  4  0  0  0  0  0  0
   -2.2054    1.6784  -12.3428 C   0  0  0  0  0  0  0  0  0  0  0  0
   -3.4226    1.1915  -11.6417 C   0  0  0  0  0  0  0  0  0  0  0  0
   -2.1865    3.5970  -10.8491 C   0  0  0  0  0  0  0  0  0  0  0  0
   -3.3752    3.0629  -10.1440 C   0  0  0  0  0  0  0  0  0  0  0  0
   -4.2650    2.2292  -10.9942 C   0  0  1  0  0  0  0  0  0  0  0  0
   -5.0129    2.9574  -11.9950 N   0  0  0  0  0  0  0  0  0  0  0  0
   -6.4292    2.9146  -12.0805 C   0  0  0  0  0  0  0  0  0  0  0  0
   -7.0590    2.7628  -11.0119 O   0  0  0  0  0  0  0  0  0  0  0  0
   -7.1818    3.0355  -13.3231 C   0  0  0  0  0  0  0  0  0  0  0  0
   -6.6297    3.4876  -14.5046 C   0  0  0  0  0  0  0  0  0  0  0  0
   -8.5180    2.6922  -13.3628 C   0  0  0  0  0  0  0  0  0  0  0  0
   -9.2609    2.7957  -14.5194 C   0  0  0  0  0  0  0  0  0  0  0  0
   -8.6625    3.2574  -15.6895 C   0  0  0  0  0  0  0  0  0  0  0  0
   -7.3231    3.6097  -15.6833 C   0  0  0  0  0  0  0  0  0  0  0  0
   -6.7546    4.0726  -16.8990 N   0  0  0  0  0  0  0  0  0  0  0  0
   -5.9723    5.2449  -16.9958 C   0  0  0  0  0  0  0  0  0  0  0  0
   -6.0166    6.1108  -16.0784 O   0  0  0  0  0  0  0  0  0  0  0  0
   -5.1096    5.4177  -18.1948 C   0  0  0  0  0  0  0  0  0  0  0  0
   -4.6583    6.8683  -18.2372 C   0  0  0  0  0  0  0  0  0  0  0  0
  1  2  2  0
  1  6  1  0
  2  3  1  0
  3  4  2  0
  4  5  1  0
  5  6  2  0
  6  7  1  0
  7  8  2  0
  7 17  1  0
  8  9  1  0
  9 10  1  0
  9 15  2  0
 10 11  2  0
 10 12  1  0
 12 13  2  0
 13 14  1  0
 14 15  1  0
 15 16  1  0
 16 17  2  0
 17 18  1  0
 18 19  2  0
 18 21  1  0
 19 20  1  0
 20 23  2  0
 21 22  2  0
 22 23  1  0
 23 24  1  0
 25 24  1  1
 25 26  1  0
 25 28  1  0
 26 27  1  0
 27 30  1  0
 28 29  1  0
 29 30  1  0
 30 31  1  6
 31 32  1  0
 32 33  2  0
 32 34  1  0
 34 35  2  0
 34 36  1  0
 35 39  1  0
 36 37  2  0
 37 38  1  0
 38 39  2  0
 39 40  1  0
 40 41  1  0
 41 42  2  0
 41 43  1  0
 43 44  1  0
M  CHG  1  25   1
M  END
$$$$
