
     RDKit          3D

 44 49  0  0  0  0  0  0  0  0999 V2000
   -0.3057   -0.7793  -15.0256 C   0  0  0  0  0  0  0  0  0  0  0  0
    0.7901   -1.1764  -14.2789 C   0  0  0  0  0  0  0  0  0  0  0  0
    0.9735   -0.6917  -13.0063 C   0  0  0  0  0  0  0  0  0  0  0  0
    0.0337    0.1936  -12.5126 C   0  0  0  0  0  0  0  0  0  0  0  0
   -1.0621    0.5928  -13.2553 C   0  0  0  0  0  0  0  0  0  0  0  0
   -1.2518    0.1155  -14.5212 C   0  0  0  0  0  0  0  0  0  0  0  0
   -2.3845    0.4936  -15.3611 C   0  0  0  0  0  0  0  0  0  0  0  0
   -2.5701   -0.0607  -16.6101 C   0  0  0  0  0  0  0  0  0  0  0  0
   -3.6594    0.3273  -17.3737 C   0  0  0  0  0  0  0  0  0  0  0  0
   -3.8646   -0.2527  -18.6956 C   0  0  0  0  0  0  0  0  0  0  0  0
   -3.0278   -1.1044  -19.1075 O   0  0  0  0  0  0  0  0  0  0  0  0
   -4.9922    0.1707  -19.4472 N   0  0  0  0  0  0  0  0  0  0  0  0
   -5.7995    1.0321  -18.9775 C   0  0  0  0  0  0  0  0  0  0  0  0
   -5.7210    1.6969  -17.6718 C   0  0  0  0  0  0  0  0  0  0  0  0
   -4.5546    1.2622  -16.8906 C   0  0  0  0  0  0  0  0  0  0  0  0
   -4.3608    1.7987  -15.6626 N   0  0  0  0  0  0  0  0  0  0  0  0
   -3.2968    1.4304  -14.8972 C   0  0  0  0  0  0  0  0  0  0  0  0
   -3.0610    1.9898  -13.5668 C   0  0  0  0  0  0  0  0  0  0  0  0
   -3.1876    1.2029  -12.4243 C   0  0  0  0  0  0  0  0  0  0  0  0
   -2.9666    1.7262  -11.1678 C   0  0  0  0  0  0  0  0  0  0  0  0
   -2.7065    3.3108  -13.3899 C   0  0  0  0  0  0  0  0  0  0  0  0
   -2.4886    3.8178  -12.1181 C   0  0  0  0  0  0  0  0  0  0  0  0
   -2.6117    3.0474  -10.9851 C   0  0  0  0  0  0  0  0  0  0  0  0
   -2.3890    3.5676   -9.6337 C   0  0  0  0  0  0  0  0  0  0  0  0
   -3.4525    4.3910   -9.1024 N   0  0  1  0  0  4  0  0  0  0  0  0
   -3.0597    4.8959   -7.8358 C   0  0  0  0  0  0  0  0  0  0  0  0
   -2.6818    6.3321   -7.7703 C   0  0  0  0  0  0  0  0  0  0  0  0
   -3.9202    5.2870  -10.0761 C   0  0  0  0  0  0  0  0  0  0  0  0
   -3.4930    6.7035   -9.9956 C   0  0  0  0  0  0  0  0  0  0  0  0
   -3.4770    7.2581   -8.6164 C   0  0  1  0  0  0  0  0  0  0  0  0
   -4.7806    7.4727   -8.0283 N   0  0  0  0  0  0  0  0  0  0  0  0
   -5.6347    8.5381   -8.4166 C   0  0  0  0  0  0  0  0  0  0  0  0
   -6.2265    8.4224   -9.5111 O   0  0  0  0  0  0  0  0  0  0  0  0
   -5.8591    9.7418   -7.6255 C   0  0  0  0  0  0  0  0  0  0  0  0
   -7.0565   10.4284   -7.6103 C   0  0  0  0  0  0  0  0  0  0  0  0
   -4.8480   10.2554   -6.8389 C   0  0  0  0  0  0  0  0  0  0  0  0
   -5.0242   11.3924   -6.0798 C   0  0  0  0  0  0  0  0  0  0  0  0
   -6.2499   12.0539   -6.0948 C   0  0  0  0  0  0  0  0  0  0  0  0
   -7.2854   11.5640   -6.8733 C   0  0  0  0  0  0  0  0  0  0  0  0
   -8.5176   12.2688   -6.8559 N   0  0  0  0  0  0  0  0  0  0  0  0
   -9.4304   12.2674   -7.9341 C   0  0  0  0  0  0  0  0  0  0  0  0
   -9.0255   12.0190   -9.1035 O   0  0  0  0  0  0  0  0  0  0  0  0
  -10.8593   12.5623   -7.6462 C   0  0  0  0  0  0  0  0  0  0  0  0
  -11.4606   13.2022   -8.8866 C   0  0  0  0  0  0  0  0  0  0  0  0
  1  2  2  0
  1  6  1  0
  2  3  1  0
  3  4  2  0
  4  5  1  0
  5  6  2  0
  6  7  1  0
  7  8  2  0
  7 17  1  0
  8  9  1  0
  9 10  1  0
  9 15  2  0
 10 11  2  0
 10 12  1  0
 12 13  2  0
 13 14  1  0
 14 15  1  0
 15 16  1  0
 16 17  2  0
 17 18  1  0
 18 19  2  0
 18 21  1  0
 19 20  1  0
 20 23  2  0
 21 22  2  0
 22 23  1  0
 23 24  1  0
 25 24  1  6
 25 26  1  0
 25 28  1  0
 26 27  1  0
 27 30  1  0
 28 29  1  0
 29 30  1  0
 30 31  1  1
 31 32  1  0
 32 33  2  0
 32 34  1  0
 34 35  2  0
 34 36  1  0
 35 39  1  0
 36 37  2  0
 37 38  1  0
 38 39  2  0
 39 40  1  0
 40 41  1  0
 41 42  2  0
 41 43  1  0
 43 44  1  0
M  CHG  1  25   1
M  END
$$$$
