
     RDKit          3D

 44 49  0  0  0  0  0  0  0  0999 V2000
   -6.7621    1.6163  -13.5047 C   0  0  0  0  0  0  0  0  0  0  0  0
   -7.4258    2.3425  -12.5309 C   0  0  0  0  0  0  0  0  0  0  0  0
   -7.6059    3.6966  -12.6789 C   0  0  0  0  0  0  0  0  0  0  0  0
   -7.1050    4.2920  -13.8214 C   0  0  0  0  0  0  0  0  0  0  0  0
   -6.4415    3.5702  -14.7963 C   0  0  0  0  0  0  0  0  0  0  0  0
   -6.2582    2.2236  -14.6568 C   0  0  0  0  0  0  0  0  0  0  0  0
   -5.5679    1.4000  -15.6450 C   0  0  0  0  0  0  0  0  0  0  0  0
   -6.1125    1.1620  -16.8894 C   0  0  0  0  0  0  0  0  0  0  0  0
   -5.4226    0.3741  -17.7968 C   0  0  0  0  0  0  0  0  0  0  0  0
   -5.9898    0.1163  -19.1149 C   0  0  0  0  0  0  0  0  0  0  0  0
   -7.1109    0.6289  -19.3903 O   0  0  0  0  0  0  0  0  0  0  0  0
   -5.2526   -0.6958  -20.0163 N   0  0  0  0  0  0  0  0  0  0  0  0
   -4.1284   -1.1834  -19.6804 C   0  0  0  0  0  0  0  0  0  0  0  0
   -3.4380   -1.0100  -18.3974 C   0  0  0  0  0  0  0  0  0  0  0  0
   -4.1981   -0.1706  -17.4607 C   0  0  0  0  0  0  0  0  0  0  0  0
   -3.6745    0.0709  -16.2356 N   0  0  0  0  0  0  0  0  0  0  0  0
   -4.3369    0.8425  -15.3303 C   0  0  0  0  0  0  0  0  0  0  0  0
   -3.7972    1.1233  -14.0005 C   0  0  0  0  0  0  0  0  0  0  0  0
   -3.1733    2.3369  -13.7204 C   0  0  0  0  0  0  0  0  0  0  0  0
   -2.6627    2.6059  -12.4681 C   0  0  0  0  0  0  0  0  0  0  0  0
   -3.8831    0.2040  -12.9761 C   0  0  0  0  0  0  0  0  0  0  0  0
   -3.3635    0.4936  -11.7238 C   0  0  0  0  0  0  0  0  0  0  0  0
   -2.7458    1.6895  -11.4393 C   0  0  0  0  0  0  0  0  0  0  0  0
   -2.1880    2.0106  -10.1233 C   0  0  0  0  0  0  0  0  0  0  0  0
   -0.7500    1.9010  -10.0150 N   0  0  1  0  0  4  0  0  0  0  0  0
   -0.1551    3.0864  -10.5192 C   0  0  0  0  0  0  0  0  0  0  0  0
    0.4093    4.0340   -9.5225 C   0  0  0  0  0  0  0  0  0  0  0  0
   -0.3816    1.4447   -8.7399 C   0  0  0  0  0  0  0  0  0  0  0  0
    0.1446    2.4269   -7.7633 C   0  0  0  0  0  0  0  0  0  0  0  0
    1.0799    3.4247   -8.3457 C   0  0  1  0  0  0  0  0  0  0  0  0
    2.3731    2.9015   -8.7267 N   0  0  0  0  0  0  0  0  0  0  0  0
    3.5799    3.2910   -8.0887 C   0  0  0  0  0  0  0  0  0  0  0  0
    3.5071    3.6154   -6.8842 O   0  0  0  0  0  0  0  0  0  0  0  0
    4.8804    3.3343   -8.7459 C   0  0  0  0  0  0  0  0  0  0  0  0
    5.1053    2.8472  -10.0178 C   0  0  0  0  0  0  0  0  0  0  0  0
    5.9693    3.8805   -8.0973 C   0  0  0  0  0  0  0  0  0  0  0  0
    7.2139    3.9362   -8.6874 C   0  0  0  0  0  0  0  0  0  0  0  0
    7.3955    3.4322   -9.9732 C   0  0  0  0  0  0  0  0  0  0  0  0
    6.3228    2.8778  -10.6516 C   0  0  0  0  0  0  0  0  0  0  0  0
    6.5535    2.3790  -11.9604 N   0  0  0  0  0  0  0  0  0  0  0  0
    7.4562    2.9715  -12.8715 C   0  0  0  0  0  0  0  0  0  0  0  0
    8.2683    3.8518  -12.4729 O   0  0  0  0  0  0  0  0  0  0  0  0
    7.4164    2.5276  -14.2903 C   0  0  0  0  0  0  0  0  0  0  0  0
    8.4876    3.2950  -15.0473 C   0  0  0  0  0  0  0  0  0  0  0  0
  1  2  2  0
  1  6  1  0
  2  3  1  0
  3  4  2  0
  4  5  1  0
  5  6  2  0
  6  7  1  0
  7  8  2  0
  7 17  1  0
  8  9  1  0
  9 10  1  0
  9 15  2  0
 10 11  2  0
 10 12  1  0
 12 13  2  0
 13 14  1  0
 14 15  1  0
 15 16  1  0
 16 17  2  0
 17 18  1  0
 18 19  2  0
 18 21  1  0
 19 20  1  0
 20 23  2  0
 21 22  2  0
 22 23  1  0
 23 24  1  0
 25 24  1  1
 25 26  1  0
 25 28  1  0
 26 27  1  0
 27 30  1  0
 28 29  1  0
 29 30  1  0
 30 31  1  6
 31 32  1  0
 32 33  2  0
 32 34  1  0
 34 35  2  0
 34 36  1  0
 35 39  1  0
 36 37  2  0
 37 38  1  0
 38 39  2  0
 39 40  1  0
 40 41  1  0
 41 42  2  0
 41 43  1  0
 43 44  1  0
M  CHG  1  25   1
M  END
$$$$
