
     RDKit          3D

 44 49  0  0  0  0  0  0  0  0999 V2000
   -0.7126    1.0728  -13.1504 C   0  0  0  0  0  0  0  0  0  0  0  0
    0.4629    0.9123  -12.4374 C   0  0  0  0  0  0  0  0  0  0  0  0
    0.9593    1.9449  -11.6788 C   0  0  0  0  0  0  0  0  0  0  0  0
    0.2474    3.1295  -11.6587 C   0  0  0  0  0  0  0  0  0  0  0  0
   -0.9271    3.2938  -12.3696 C   0  0  0  0  0  0  0  0  0  0  0  0
   -1.4274    2.2722  -13.1261 C   0  0  0  0  0  0  0  0  0  0  0  0
   -2.6603    2.3755  -13.9012 C   0  0  0  0  0  0  0  0  0  0  0  0
   -2.6924    2.0688  -15.2453 C   0  0  0  0  0  0  0  0  0  0  0  0
   -3.8847    2.1810  -15.9425 C   0  0  0  0  0  0  0  0  0  0  0  0
   -3.9292    1.8593  -17.3638 C   0  0  0  0  0  0  0  0  0  0  0  0
   -2.8605    1.4825  -17.9217 O   0  0  0  0  0  0  0  0  0  0  0  0
   -5.1695    1.9869  -18.0428 N   0  0  0  0  0  0  0  0  0  0  0  0
   -6.2114    2.3712  -17.4255 C   0  0  0  0  0  0  0  0  0  0  0  0
   -6.3164    2.7265  -16.0057 C   0  0  0  0  0  0  0  0  0  0  0  0
   -5.0345    2.5967  -15.2990 C   0  0  0  0  0  0  0  0  0  0  0  0
   -4.9894    2.8947  -13.9789 N   0  0  0  0  0  0  0  0  0  0  0  0
   -3.8276    2.7907  -13.2766 C   0  0  0  0  0  0  0  0  0  0  0  0
   -3.7468    3.1031  -11.8503 C   0  0  0  0  0  0  0  0  0  0  0  0
   -4.0806    4.3683  -11.3725 C   0  0  0  0  0  0  0  0  0  0  0  0
   -4.0055    4.6675  -10.0284 C   0  0  0  0  0  0  0  0  0  0  0  0
   -3.3391    2.1642  -10.9261 C   0  0  0  0  0  0  0  0  0  0  0  0
   -3.2704    2.4848   -9.5790 C   0  0  0  0  0  0  0  0  0  0  0  0
   -3.5980    3.7318   -9.0992 C   0  0  0  0  0  0  0  0  0  0  0  0
   -3.5276    4.0888   -7.6802 C   0  0  0  0  0  0  0  0  0  0  0  0
   -2.7873    5.2941   -7.3793 N   0  0  1  0  0  4  0  0  0  0  0  0
   -3.3887    6.3885   -8.0532 C   0  0  0  0  0  0  0  0  0  0  0  0
   -4.1742    7.3408   -7.2249 C   0  0  0  0  0  0  0  0  0  0  0  0
   -2.5430    5.3956   -6.0010 C   0  0  0  0  0  0  0  0  0  0  0  0
   -3.3707    6.3313   -5.2042 C   0  0  0  0  0  0  0  0  0  0  0  0
   -3.6342    7.6328   -5.8725 C   0  0  1  0  0  0  0  0  0  0  0  0
   -2.4899    8.5113   -5.9736 N   0  0  0  0  0  0  0  0  0  0  0  0
   -2.0608    9.3428   -4.9061 C   0  0  0  0  0  0  0  0  0  0  0  0
   -1.9027    8.8008   -3.7913 O   0  0  0  0  0  0  0  0  0  0  0  0
   -1.7974   10.7711   -5.0314 C   0  0  0  0  0  0  0  0  0  0  0  0
   -2.7550   11.6896   -5.4117 C   0  0  0  0  0  0  0  0  0  0  0  0
   -0.5386   11.2717   -4.7671 C   0  0  0  0  0  0  0  0  0  0  0  0
   -0.2533   12.6158   -4.8773 C   0  0  0  0  0  0  0  0  0  0  0  0
   -1.2508   13.5076   -5.2647 C   0  0  0  0  0  0  0  0  0  0  0  0
   -2.5248   13.0374   -5.5367 C   0  0  0  0  0  0  0  0  0  0  0  0
   -3.5103   13.9823   -5.9256 N   0  0  0  0  0  0  0  0  0  0  0  0
   -4.5859   13.6749   -6.7884 C   0  0  0  0  0  0  0  0  0  0  0  0
   -4.4585   12.7684   -7.6575 O   0  0  0  0  0  0  0  0  0  0  0  0
   -5.8503   14.4430   -6.6373 C   0  0  0  0  0  0  0  0  0  0  0  0
   -6.7577   14.0774   -7.8004 C   0  0  0  0  0  0  0  0  0  0  0  0
  1  2  2  0
  1  6  1  0
  2  3  1  0
  3  4  2  0
  4  5  1  0
  5  6  2  0
  6  7  1  0
  7  8  2  0
  7 17  1  0
  8  9  1  0
  9 10  1  0
  9 15  2  0
 10 11  2  0
 10 12  1  0
 12 13  2  0
 13 14  1  0
 14 15  1  0
 15 16  1  0
 16 17  2  0
 17 18  1  0
 18 19  2  0
 18 21  1  0
 19 20  1  0
 20 23  2  0
 21 22  2  0
 22 23  1  0
 23 24  1  0
 25 24  1  1
 25 26  1  0
 25 28  1  0
 26 27  1  0
 27 30  1  0
 28 29  1  0
 29 30  1  0
 30 31  1  6
 31 32  1  0
 32 33  2  0
 32 34  1  0
 34 35  2  0
 34 36  1  0
 35 39  1  0
 36 37  2  0
 37 38  1  0
 38 39  2  0
 39 40  1  0
 40 41  1  0
 41 42  2  0
 41 43  1  0
 43 44  1  0
M  CHG  1  25   1
M  END
$$$$
