
     RDKit          3D

 44 49  0  0  0  0  0  0  0  0999 V2000
   -6.3459    1.3811  -13.8430 C   0  0  0  0  0  0  0  0  0  0  0  0
   -6.8359    1.5151  -12.5554 C   0  0  0  0  0  0  0  0  0  0  0  0
   -7.8137    2.4401  -12.2791 C   0  0  0  0  0  0  0  0  0  0  0  0
   -8.2788    3.2172  -13.3234 C   0  0  0  0  0  0  0  0  0  0  0  0
   -7.7920    3.0865  -14.6109 C   0  0  0  0  0  0  0  0  0  0  0  0
   -6.8198    2.1693  -14.8939 C   0  0  0  0  0  0  0  0  0  0  0  0
   -6.2602    1.9775  -16.2286 C   0  0  0  0  0  0  0  0  0  0  0  0
   -7.0560    2.0156  -17.3542 C   0  0  0  0  0  0  0  0  0  0  0  0
   -6.4827    1.8284  -18.6018 C   0  0  0  0  0  0  0  0  0  0  0  0
   -7.3153    1.8666  -19.7981 C   0  0  0  0  0  0  0  0  0  0  0  0
   -8.5532    2.0726  -19.6544 O   0  0  0  0  0  0  0  0  0  0  0  0
   -6.6907    1.6703  -21.0578 N   0  0  0  0  0  0  0  0  0  0  0  0
   -5.4390    1.4673  -21.1374 C   0  0  0  0  0  0  0  0  0  0  0  0
   -4.4820    1.4033  -20.0270 C   0  0  0  0  0  0  0  0  0  0  0  0
   -5.1244    1.6051  -18.7208 C   0  0  0  0  0  0  0  0  0  0  0  0
   -4.3543    1.5702  -17.6077 N   0  0  0  0  0  0  0  0  0  0  0  0
   -4.8988    1.7519  -16.3731 C   0  0  0  0  0  0  0  0  0  0  0  0
   -4.0939    1.7219  -15.1525 C   0  0  0  0  0  0  0  0  0  0  0  0
   -4.0801    2.8036  -14.2749 C   0  0  0  0  0  0  0  0  0  0  0  0
   -3.3223    2.7798  -13.1230 C   0  0  0  0  0  0  0  0  0  0  0  0
   -3.3205    0.6287  -14.8228 C   0  0  0  0  0  0  0  0  0  0  0  0
   -2.5657    0.6244  -13.6599 C   0  0  0  0  0  0  0  0  0  0  0  0
   -2.5464    1.6886  -12.7883 C   0  0  0  0  0  0  0  0  0  0  0  0
   -1.7520    1.7025  -11.5574 C   0  0  0  0  0  0  0  0  0  0  0  0
   -0.3861    1.2478  -11.6950 N   0  0  1  0  0  4  0  0  0  0  0  0
    0.2504    1.9944  -12.7201 C   0  0  0  0  0  0  0  0  0  0  0  0
    1.2334    3.0244  -12.2926 C   0  0  0  0  0  0  0  0  0  0  0  0
    0.2337    1.1510  -10.4395 C   0  0  0  0  0  0  0  0  0  0  0  0
    1.1815    2.2161  -10.0361 C   0  0  0  0  0  0  0  0  0  0  0  0
    2.0829    2.6749  -11.1255 C   0  0  1  0  0  0  0  0  0  0  0  0
    3.1003    1.7253  -11.5182 N   0  0  0  0  0  0  0  0  0  0  0  0
    4.4891    1.9800  -11.3719 C   0  0  0  0  0  0  0  0  0  0  0  0
    4.8165    2.9576  -10.6657 O   0  0  0  0  0  0  0  0  0  0  0  0
    5.5410    1.1802  -11.9875 C   0  0  0  0  0  0  0  0  0  0  0  0
    6.7877    1.0008  -11.4229 C   0  0  0  0  0  0  0  0  0  0  0  0
    5.3205    0.5547  -13.1979 C   0  0  0  0  0  0  0  0  0  0  0  0
    6.2926   -0.2073  -13.8098 C   0  0  0  0  0  0  0  0  0  0  0  0
    7.5374   -0.3612  -13.2040 C   0  0  0  0  0  0  0  0  0  0  0  0
    7.7906    0.2531  -11.9887 C   0  0  0  0  0  0  0  0  0  0  0  0
    9.0720    0.0667  -11.4069 N   0  0  0  0  0  0  0  0  0  0  0  0
   10.1698    0.9217  -11.6513 C   0  0  0  0  0  0  0  0  0  0  0  0
   10.5494    1.1384  -12.8355 O   0  0  0  0  0  0  0  0  0  0  0  0
   10.8480    1.5466  -10.4846 C   0  0  0  0  0  0  0  0  0  0  0  0
   12.2213    0.9097  -10.3498 C   0  0  0  0  0  0  0  0  0  0  0  0
  1  2  2  0
  1  6  1  0
  2  3  1  0
  3  4  2  0
  4  5  1  0
  5  6  2  0
  6  7  1  0
  7  8  2  0
  7 17  1  0
  8  9  1  0
  9 10  1  0
  9 15  2  0
 10 11  2  0
 10 12  1  0
 12 13  2  0
 13 14  1  0
 14 15  1  0
 15 16  1  0
 16 17  2  0
 17 18  1  0
 18 19  2  0
 18 21  1  0
 19 20  1  0
 20 23  2  0
 21 22  2  0
 22 23  1  0
 23 24  1  0
 25 24  1  1
 25 26  1  0
 25 28  1  0
 26 27  1  0
 27 30  1  0
 28 29  1  0
 29 30  1  0
 30 31  1  6
 31 32  1  0
 32 33  2  0
 32 34  1  0
 34 35  2  0
 34 36  1  0
 35 39  1  0
 36 37  2  0
 37 38  1  0
 38 39  2  0
 39 40  1  0
 40 41  1  0
 41 42  2  0
 41 43  1  0
 43 44  1  0
M  CHG  1  25   1
M  END
$$$$
