
     RDKit          3D

 44 49  0  0  0  0  0  0  0  0999 V2000
   -0.3930    1.5291  -15.4676 C   0  0  0  0  0  0  0  0  0  0  0  0
    0.7953    1.4414  -14.7630 C   0  0  0  0  0  0  0  0  0  0  0  0
    0.8108    0.9144  -13.4941 C   0  0  0  0  0  0  0  0  0  0  0  0
   -0.3894    0.4833  -12.9609 C   0  0  0  0  0  0  0  0  0  0  0  0
   -1.5783    0.5693  -13.6614 C   0  0  0  0  0  0  0  0  0  0  0  0
   -1.6025    1.0919  -14.9234 C   0  0  0  0  0  0  0  0  0  0  0  0
   -2.8200    1.2130  -15.7198 C   0  0  0  0  0  0  0  0  0  0  0  0
   -2.9680    0.5396  -16.9140 C   0  0  0  0  0  0  0  0  0  0  0  0
   -4.1409    0.6836  -17.6377 C   0  0  0  0  0  0  0  0  0  0  0  0
   -4.3073   -0.0240  -18.9016 C   0  0  0  0  0  0  0  0  0  0  0  0
   -3.3598   -0.7574  -19.3014 O   0  0  0  0  0  0  0  0  0  0  0  0
   -5.5233    0.1494  -19.6135 N   0  0  0  0  0  0  0  0  0  0  0  0
   -6.4406    0.9017  -19.1586 C   0  0  0  0  0  0  0  0  0  0  0  0
   -6.4139    1.6707  -17.9093 C   0  0  0  0  0  0  0  0  0  0  0  0
   -5.1564    1.4949  -17.1693 C   0  0  0  0  0  0  0  0  0  0  0  0
   -4.9984    2.1505  -15.9952 N   0  0  0  0  0  0  0  0  0  0  0  0
   -3.8536    2.0219  -15.2696 C   0  0  0  0  0  0  0  0  0  0  0  0
   -3.6534    2.7149  -13.9975 C   0  0  0  0  0  0  0  0  0  0  0  0
   -4.2277    2.2375  -12.8217 C   0  0  0  0  0  0  0  0  0  0  0  0
   -4.0419    2.8878  -11.6200 C   0  0  0  0  0  0  0  0  0  0  0  0
   -2.8929    3.8621  -13.9107 C   0  0  0  0  0  0  0  0  0  0  0  0
   -2.7181    4.5012  -12.6929 C   0  0  0  0  0  0  0  0  0  0  0  0
   -3.2820    4.0363  -11.5274 C   0  0  0  0  0  0  0  0  0  0  0  0
   -3.1109    4.7009  -10.2331 C   0  0  0  0  0  0  0  0  0  0  0  0
   -1.7943    4.5863   -9.6457 N   0  0  1  0  0  4  0  0  0  0  0  0
   -1.4836    5.7918   -8.9648 C   0  0  0  0  0  0  0  0  0  0  0  0
   -1.5298    5.7581   -7.4793 C   0  0  0  0  0  0  0  0  0  0  0  0
   -1.6590    3.3666   -8.9648 C   0  0  0  0  0  0  0  0  0  0  0  0
   -1.7453    3.3703   -7.4856 C   0  0  0  0  0  0  0  0  0  0  0  0
   -1.0450    4.5098   -6.8369 C   0  0  1  0  0  0  0  0  0  0  0  0
    0.3989    4.4515   -6.8914 N   0  0  0  0  0  0  0  0  0  0  0  0
    1.2072    4.2880   -5.7360 C   0  0  0  0  0  0  0  0  0  0  0  0
    0.6178    4.0687   -4.6562 O   0  0  0  0  0  0  0  0  0  0  0  0
    2.6632    4.3598   -5.7345 C   0  0  0  0  0  0  0  0  0  0  0  0
    3.4524    3.7975   -6.7176 C   0  0  0  0  0  0  0  0  0  0  0  0
    3.3261    5.0127   -4.7151 C   0  0  0  0  0  0  0  0  0  0  0  0
    4.7015    5.0983   -4.6804 C   0  0  0  0  0  0  0  0  0  0  0  0
    5.4589    4.5157   -5.6939 C   0  0  0  0  0  0  0  0  0  0  0  0
    4.8242    3.8535   -6.7317 C   0  0  0  0  0  0  0  0  0  0  0  0
    5.6357    3.2773   -7.7439 N   0  0  0  0  0  0  0  0  0  0  0  0
    5.2852    3.2699   -9.1125 C   0  0  0  0  0  0  0  0  0  0  0  0
    4.1995    3.7924   -9.4886 O   0  0  0  0  0  0  0  0  0  0  0  0
    6.2251    2.6373  -10.0758 C   0  0  0  0  0  0  0  0  0  0  0  0
    5.4422    2.2966  -11.3331 C   0  0  0  0  0  0  0  0  0  0  0  0
  1  2  2  0
  1  6  1  0
  2  3  1  0
  3  4  2  0
  4  5  1  0
  5  6  2  0
  6  7  1  0
  7  8  2  0
  7 17  1  0
  8  9  1  0
  9 10  1  0
  9 15  2  0
 10 11  2  0
 10 12  1  0
 12 13  2  0
 13 14  1  0
 14 15  1  0
 15 16  1  0
 16 17  2  0
 17 18  1  0
 18 19  2  0
 18 21  1  0
 19 20  1  0
 20 23  2  0
 21 22  2  0
 22 23  1  0
 23 24  1  0
 25 24  1  1
 25 26  1  0
 25 28  1  0
 26 27  1  0
 27 30  1  0
 28 29  1  0
 29 30  1  0
 30 31  1  6
 31 32  1  0
 32 33  2  0
 32 34  1  0
 34 35  2  0
 34 36  1  0
 35 39  1  0
 36 37  2  0
 37 38  1  0
 38 39  2  0
 39 40  1  0
 40 41  1  0
 41 42  2  0
 41 43  1  0
 43 44  1  0
M  CHG  1  25   1
M  END
$$$$
