
     RDKit          3D

 44 49  0  0  0  0  0  0  0  0999 V2000
   -5.1516    1.5189  -11.4737 C   0  0  0  0  0  0  0  0  0  0  0  0
   -4.8591    1.8135  -10.1533 C   0  0  0  0  0  0  0  0  0  0  0  0
   -5.0771    3.0778   -9.6610 C   0  0  0  0  0  0  0  0  0  0  0  0
   -5.5919    4.0257  -10.5254 C   0  0  0  0  0  0  0  0  0  0  0  0
   -5.8854    3.7353  -11.8450 C   0  0  0  0  0  0  0  0  0  0  0  0
   -5.6715    2.4809  -12.3422 C   0  0  0  0  0  0  0  0  0  0  0  0
   -5.9580    2.1045  -13.7234 C   0  0  0  0  0  0  0  0  0  0  0  0
   -7.1948    2.3327  -14.2891 C   0  0  0  0  0  0  0  0  0  0  0  0
   -7.4232    1.9592  -15.6038 C   0  0  0  0  0  0  0  0  0  0  0  0
   -8.7273    2.1960  -16.2112 C   0  0  0  0  0  0  0  0  0  0  0  0
   -9.6209    2.7433  -15.5060 O   0  0  0  0  0  0  0  0  0  0  0  0
   -8.9220    1.7991  -17.5603 N   0  0  0  0  0  0  0  0  0  0  0  0
   -7.9827    1.2524  -18.2184 C   0  0  0  0  0  0  0  0  0  0  0  0
   -6.6275    0.9538  -17.7418 C   0  0  0  0  0  0  0  0  0  0  0  0
   -6.4217    1.3623  -16.3451 C   0  0  0  0  0  0  0  0  0  0  0  0
   -5.2118    1.1439  -15.7778 N   0  0  0  0  0  0  0  0  0  0  0  0
   -4.9679    1.5038  -14.4876 C   0  0  0  0  0  0  0  0  0  0  0  0
   -3.6719    1.2833  -13.8471 C   0  0  0  0  0  0  0  0  0  0  0  0
   -3.2203   -0.0039  -13.5650 C   0  0  0  0  0  0  0  0  0  0  0  0
   -1.9991   -0.2166  -12.9608 C   0  0  0  0  0  0  0  0  0  0  0  0
   -2.8494    2.3339  -13.4982 C   0  0  0  0  0  0  0  0  0  0  0  0
   -1.6251    2.0990  -12.8915 C   0  0  0  0  0  0  0  0  0  0  0  0
   -1.1720    0.8310  -12.6094 C   0  0  0  0  0  0  0  0  0  0  0  0
    0.1168    0.5649  -11.9656 C   0  0  0  0  0  0  0  0  0  0  0  0
    1.1697    0.1129  -12.8479 N   0  0  1  0  0  4  0  0  0  0  0  0
    1.3162    1.0425  -13.9099 C   0  0  0  0  0  0  0  0  0  0  0  0
    2.5071    1.9313  -13.8682 C   0  0  0  0  0  0  0  0  0  0  0  0
    2.3046   -0.2648  -12.1136 C   0  0  0  0  0  0  0  0  0  0  0  0
    3.4579    0.6643  -12.0686 C   0  0  0  0  0  0  0  0  0  0  0  0
    3.7643    1.3193  -13.3675 C   0  0  1  0  0  0  0  0  0  0  0  0
    4.3277    0.4474  -14.3743 N   0  0  0  0  0  0  0  0  0  0  0  0
    5.1602    0.9190  -15.4229 C   0  0  0  0  0  0  0  0  0  0  0  0
    4.5938    1.4320  -16.4116 O   0  0  0  0  0  0  0  0  0  0  0  0
    6.6159    0.8415  -15.4148 C   0  0  0  0  0  0  0  0  0  0  0  0
    7.3863    1.1383  -14.3086 C   0  0  0  0  0  0  0  0  0  0  0  0
    7.2980    0.4575  -16.5516 C   0  0  0  0  0  0  0  0  0  0  0  0
    8.6737    0.3752  -16.5806 C   0  0  0  0  0  0  0  0  0  0  0  0
    9.4117    0.6844  -15.4404 C   0  0  0  0  0  0  0  0  0  0  0  0
    8.7574    1.0727  -14.2831 C   0  0  0  0  0  0  0  0  0  0  0  0
    9.5495    1.3758  -13.1446 N   0  0  0  0  0  0  0  0  0  0  0  0
    9.3887    0.7408  -11.8930 C   0  0  0  0  0  0  0  0  0  0  0  0
    8.6349   -0.2663  -11.7885 O   0  0  0  0  0  0  0  0  0  0  0  0
   10.1272    1.2908  -10.7252 C   0  0  0  0  0  0  0  0  0  0  0  0
   11.0918    0.2213  -10.2399 C   0  0  0  0  0  0  0  0  0  0  0  0
  1  2  2  0
  1  6  1  0
  2  3  1  0
  3  4  2  0
  4  5  1  0
  5  6  2  0
  6  7  1  0
  7  8  2  0
  7 17  1  0
  8  9  1  0
  9 10  1  0
  9 15  2  0
 10 11  2  0
 10 12  1  0
 12 13  2  0
 13 14  1  0
 14 15  1  0
 15 16  1  0
 16 17  2  0
 17 18  1  0
 18 19  2  0
 18 21  1  0
 19 20  1  0
 20 23  2  0
 21 22  2  0
 22 23  1  0
 23 24  1  0
 25 24  1  1
 25 26  1  0
 25 28  1  0
 26 27  1  0
 27 30  1  0
 28 29  1  0
 29 30  1  0
 30 31  1  6
 31 32  1  0
 32 33  2  0
 32 34  1  0
 34 35  2  0
 34 36  1  0
 35 39  1  0
 36 37  2  0
 37 38  1  0
 38 39  2  0
 39 40  1  0
 40 41  1  0
 41 42  2  0
 41 43  1  0
 43 44  1  0
M  CHG  1  25   1
M  END
$$$$
