
     RDKit          3D

 44 49  0  0  0  0  0  0  0  0999 V2000
   -4.9179    1.5837  -16.7641 C   0  0  0  0  0  0  0  0  0  0  0  0
   -6.2204    2.0372  -16.8816 C   0  0  0  0  0  0  0  0  0  0  0  0
   -7.1382    1.7710  -15.8942 C   0  0  0  0  0  0  0  0  0  0  0  0
   -6.7127    1.0441  -14.7982 C   0  0  0  0  0  0  0  0  0  0  0  0
   -5.4126    0.5893  -14.6772 C   0  0  0  0  0  0  0  0  0  0  0  0
   -4.4940    0.8496  -15.6543 C   0  0  0  0  0  0  0  0  0  0  0  0
   -3.1062    0.4009  -15.5925 C   0  0  0  0  0  0  0  0  0  0  0  0
   -2.5362   -0.3177  -16.6223 C   0  0  0  0  0  0  0  0  0  0  0  0
   -1.2152   -0.7237  -16.5215 C   0  0  0  0  0  0  0  0  0  0  0  0
   -0.6033   -1.4840  -17.6047 C   0  0  0  0  0  0  0  0  0  0  0  0
   -1.3105   -1.7518  -18.6164 O   0  0  0  0  0  0  0  0  0  0  0  0
    0.7523   -1.8817  -17.4639 N   0  0  0  0  0  0  0  0  0  0  0  0
    1.4122   -1.5813  -16.4206 C   0  0  0  0  0  0  0  0  0  0  0  0
    0.9316   -0.8257  -15.2583 C   0  0  0  0  0  0  0  0  0  0  0  0
   -0.4717   -0.4127  -15.3993 C   0  0  0  0  0  0  0  0  0  0  0  0
   -1.0433    0.2935  -14.3953 N   0  0  0  0  0  0  0  0  0  0  0  0
   -2.3397    0.7015  -14.4756 C   0  0  0  0  0  0  0  0  0  0  0  0
   -2.9849    1.4668  -13.4095 C   0  0  0  0  0  0  0  0  0  0  0  0
   -3.5960    2.6906  -13.6731 C   0  0  0  0  0  0  0  0  0  0  0  0
   -4.2052    3.4159  -12.6710 C   0  0  0  0  0  0  0  0  0  0  0  0
   -3.0142    1.0115  -12.1081 C   0  0  0  0  0  0  0  0  0  0  0  0
   -3.6319    1.7557  -11.1148 C   0  0  0  0  0  0  0  0  0  0  0  0
   -4.2374    2.9650  -11.3669 C   0  0  0  0  0  0  0  0  0  0  0  0
   -4.8912    3.7661  -10.3290 C   0  0  0  0  0  0  0  0  0  0  0  0
   -4.0003    4.4202   -9.3964 N   0  0  1  0  0  4  0  0  0  0  0  0
   -4.4137    5.7670   -9.2267 C   0  0  0  0  0  0  0  0  0  0  0  0
   -5.0888    6.1087   -7.9471 C   0  0  0  0  0  0  0  0  0  0  0  0
   -3.7990    3.6224   -8.2594 C   0  0  0  0  0  0  0  0  0  0  0  0
   -4.5170    3.9762   -7.0125 C   0  0  0  0  0  0  0  0  0  0  0  0
   -4.5670    5.4350   -6.7307 C   0  0  1  0  0  0  0  0  0  0  0  0
   -3.3069    6.0256   -6.3376 N   0  0  0  0  0  0  0  0  0  0  0  0
   -2.0919    5.7793   -7.0291 C   0  0  0  0  0  0  0  0  0  0  0  0
   -2.1808    5.3606   -8.2032 O   0  0  0  0  0  0  0  0  0  0  0  0
   -0.7658    5.9830   -6.4592 C   0  0  0  0  0  0  0  0  0  0  0  0
   -0.3101    7.2077   -6.0145 C   0  0  0  0  0  0  0  0  0  0  0  0
    0.1108    4.9234   -6.3419 C   0  0  0  0  0  0  0  0  0  0  0  0
    1.3729    5.0798   -5.8100 C   0  0  0  0  0  0  0  0  0  0  0  0
    1.7915    6.3347   -5.3736 C   0  0  0  0  0  0  0  0  0  0  0  0
    0.9356    7.4186   -5.4769 C   0  0  0  0  0  0  0  0  0  0  0  0
    1.4033    8.6777   -5.0174 N   0  0  0  0  0  0  0  0  0  0  0  0
    0.7257    9.8942   -5.2559 C   0  0  0  0  0  0  0  0  0  0  0  0
   -0.1868    9.9481   -6.1264 O   0  0  0  0  0  0  0  0  0  0  0  0
    1.1183   11.0861   -4.4579 C   0  0  0  0  0  0  0  0  0  0  0  0
    0.9291   12.3140   -5.3333 C   0  0  0  0  0  0  0  0  0  0  0  0
  1  2  2  0
  1  6  1  0
  2  3  1  0
  3  4  2  0
  4  5  1  0
  5  6  2  0
  6  7  1  0
  7  8  2  0
  7 17  1  0
  8  9  1  0
  9 10  1  0
  9 15  2  0
 10 11  2  0
 10 12  1  0
 12 13  2  0
 13 14  1  0
 14 15  1  0
 15 16  1  0
 16 17  2  0
 17 18  1  0
 18 19  2  0
 18 21  1  0
 19 20  1  0
 20 23  2  0
 21 22  2  0
 22 23  1  0
 23 24  1  0
 25 24  1  6
 25 26  1  0
 25 28  1  0
 26 27  1  0
 27 30  1  0
 28 29  1  0
 29 30  1  0
 30 31  1  6
 31 32  1  0
 32 33  2  0
 32 34  1  0
 34 35  2  0
 34 36  1  0
 35 39  1  0
 36 37  2  0
 37 38  1  0
 38 39  2  0
 39 40  1  0
 40 41  1  0
 41 42  2  0
 41 43  1  0
 43 44  1  0
M  CHG  1  25   1
M  END
$$$$
