
     RDKit          3D

 44 49  0  0  0  0  0  0  0  0999 V2000
   -4.8729    0.5842  -12.9349 C   0  0  0  0  0  0  0  0  0  0  0  0
   -4.5560    0.5720  -11.5876 C   0  0  0  0  0  0  0  0  0  0  0  0
   -4.5340    1.7440  -10.8705 C   0  0  0  0  0  0  0  0  0  0  0  0
   -4.8364    2.9147  -11.5403 C   0  0  0  0  0  0  0  0  0  0  0  0
   -5.1534    2.9311  -12.8861 C   0  0  0  0  0  0  0  0  0  0  0  0
   -5.1775    1.7704  -13.6061 C   0  0  0  0  0  0  0  0  0  0  0  0
   -5.5032    1.7136  -15.0281 C   0  0  0  0  0  0  0  0  0  0  0  0
   -6.6693    2.2602  -15.5211 C   0  0  0  0  0  0  0  0  0  0  0  0
   -6.9384    2.1835  -16.8783 C   0  0  0  0  0  0  0  0  0  0  0  0
   -8.1686    2.7581  -17.4095 C   0  0  0  0  0  0  0  0  0  0  0  0
   -8.9618    3.3162  -16.6004 O   0  0  0  0  0  0  0  0  0  0  0  0
   -8.4081    2.6592  -18.8054 N   0  0  0  0  0  0  0  0  0  0  0  0
   -7.5706    2.0848  -19.5689 C   0  0  0  0  0  0  0  0  0  0  0  0
   -6.2990    1.4656  -19.1784 C   0  0  0  0  0  0  0  0  0  0  0  0
   -6.0473    1.5649  -17.7339 C   0  0  0  0  0  0  0  0  0  0  0  0
   -4.9058    1.0324  -17.2371 N   0  0  0  0  0  0  0  0  0  0  0  0
   -4.6235    1.0976  -15.9067 C   0  0  0  0  0  0  0  0  0  0  0  0
   -3.3990    0.5340  -15.3398 C   0  0  0  0  0  0  0  0  0  0  0  0
   -2.5344    1.3164  -14.5778 C   0  0  0  0  0  0  0  0  0  0  0  0
   -1.3784    0.7894  -14.0415 C   0  0  0  0  0  0  0  0  0  0  0  0
   -3.0522   -0.7864  -15.5356 C   0  0  0  0  0  0  0  0  0  0  0  0
   -1.8855   -1.2972  -14.9878 C   0  0  0  0  0  0  0  0  0  0  0  0
   -1.0264   -0.5312  -14.2344 C   0  0  0  0  0  0  0  0  0  0  0  0
    0.2120   -1.0535  -13.6514 C   0  0  0  0  0  0  0  0  0  0  0  0
    1.3439   -0.1544  -13.6904 N   0  0  1  0  0  4  0  0  0  0  0  0
    2.4052   -0.7113  -12.9307 C   0  0  0  0  0  0  0  0  0  0  0  0
    3.5509   -1.2794  -13.6887 C   0  0  0  0  0  0  0  0  0  0  0  0
    1.5973    0.2680  -15.0046 C   0  0  0  0  0  0  0  0  0  0  0  0
    2.7278   -0.3475  -15.7385 C   0  0  0  0  0  0  0  0  0  0  0  0
    3.9508   -0.5477  -14.9176 C   0  0  1  0  0  0  0  0  0  0  0  0
    4.6570    0.6644  -14.5665 N   0  0  0  0  0  0  0  0  0  0  0  0
    5.6744    0.7039  -13.5772 C   0  0  0  0  0  0  0  0  0  0  0  0
    5.3544    0.3618  -12.4187 O   0  0  0  0  0  0  0  0  0  0  0  0
    7.0504    1.1139  -13.8291 C   0  0  0  0  0  0  0  0  0  0  0  0
    7.4419    1.8085  -14.9558 C   0  0  0  0  0  0  0  0  0  0  0  0
    8.0437    0.8102  -12.9203 C   0  0  0  0  0  0  0  0  0  0  0  0
    9.3555    1.1802  -13.1268 C   0  0  0  0  0  0  0  0  0  0  0  0
    9.7059    1.8804  -14.2788 C   0  0  0  0  0  0  0  0  0  0  0  0
    8.7326    2.2011  -15.2105 C   0  0  0  0  0  0  0  0  0  0  0  0
    9.1348    2.9175  -16.3682 N   0  0  0  0  0  0  0  0  0  0  0  0
    8.2249    3.5041  -17.2759 C   0  0  0  0  0  0  0  0  0  0  0  0
    7.0224    3.6834  -16.9367 O   0  0  0  0  0  0  0  0  0  0  0  0
    8.7265    3.8965  -18.6198 C   0  0  0  0  0  0  0  0  0  0  0  0
    7.9742    5.1451  -19.0499 C   0  0  0  0  0  0  0  0  0  0  0  0
  1  2  2  0
  1  6  1  0
  2  3  1  0
  3  4  2  0
  4  5  1  0
  5  6  2  0
  6  7  1  0
  7  8  2  0
  7 17  1  0
  8  9  1  0
  9 10  1  0
  9 15  2  0
 10 11  2  0
 10 12  1  0
 12 13  2  0
 13 14  1  0
 14 15  1  0
 15 16  1  0
 16 17  2  0
 17 18  1  0
 18 19  2  0
 18 21  1  0
 19 20  1  0
 20 23  2  0
 21 22  2  0
 22 23  1  0
 23 24  1  0
 25 24  1  6
 25 26  1  0
 25 28  1  0
 26 27  1  0
 27 30  1  0
 28 29  1  0
 29 30  1  0
 30 31  1  1
 31 32  1  0
 32 33  2  0
 32 34  1  0
 34 35  2  0
 34 36  1  0
 35 39  1  0
 36 37  2  0
 37 38  1  0
 38 39  2  0
 39 40  1  0
 40 41  1  0
 41 42  2  0
 41 43  1  0
 43 44  1  0
M  CHG  1  25   1
M  END
$$$$
