
     RDKit          3D

 44 49  0  0  0  0  0  0  0  0999 V2000
    0.9948    1.9440  -13.6148 C   0  0  0  0  0  0  0  0  0  0  0  0
    1.4598    2.5372  -12.4538 C   0  0  0  0  0  0  0  0  0  0  0  0
    0.9303    2.1847  -11.2358 C   0  0  0  0  0  0  0  0  0  0  0  0
   -0.0686    1.2294  -11.2199 C   0  0  0  0  0  0  0  0  0  0  0  0
   -0.5358    0.6346  -12.3773 C   0  0  0  0  0  0  0  0  0  0  0  0
   -0.0148    0.9794  -13.5922 C   0  0  0  0  0  0  0  0  0  0  0  0
   -0.4597    0.3930  -14.8530 C   0  0  0  0  0  0  0  0  0  0  0  0
    0.4019   -0.3244  -15.6559 C   0  0  0  0  0  0  0  0  0  0  0  0
   -0.0630   -0.8637  -16.8447 C   0  0  0  0  0  0  0  0  0  0  0  0
    0.8398   -1.6238  -17.7008 C   0  0  0  0  0  0  0  0  0  0  0  0
    2.0366   -1.7676  -17.3234 O   0  0  0  0  0  0  0  0  0  0  0  0
    0.3258   -2.1602  -18.9106 N   0  0  0  0  0  0  0  0  0  0  0  0
   -0.8893   -1.9812  -19.2358 C   0  0  0  0  0  0  0  0  0  0  0  0
   -1.9071   -1.2438  -18.4787 C   0  0  0  0  0  0  0  0  0  0  0  0
   -1.3791   -0.6859  -17.2258 C   0  0  0  0  0  0  0  0  0  0  0  0
   -2.2147    0.0206  -16.4283 N   0  0  0  0  0  0  0  0  0  0  0  0
   -1.7769    0.5582  -15.2565 C   0  0  0  0  0  0  0  0  0  0  0  0
   -2.6547    1.3242  -14.3727 C   0  0  0  0  0  0  0  0  0  0  0  0
   -2.4482    2.6852  -14.1592 C   0  0  0  0  0  0  0  0  0  0  0  0
   -3.2732    3.4114  -13.3265 C   0  0  0  0  0  0  0  0  0  0  0  0
   -3.7159    0.7343  -13.7185 C   0  0  0  0  0  0  0  0  0  0  0  0
   -4.5338    1.4820  -12.8854 C   0  0  0  0  0  0  0  0  0  0  0  0
   -4.3364    2.8262  -12.6692 C   0  0  0  0  0  0  0  0  0  0  0  0
   -5.1883    3.6304  -11.7896 C   0  0  0  0  0  0  0  0  0  0  0  0
   -4.5087    4.6681  -11.0463 N   0  0  1  0  0  4  0  0  0  0  0  0
   -5.2766    5.8599  -11.1054 C   0  0  0  0  0  0  0  0  0  0  0  0
   -6.0149    6.2479   -9.8748 C   0  0  0  0  0  0  0  0  0  0  0  0
   -4.0911    4.1899   -9.7946 C   0  0  0  0  0  0  0  0  0  0  0  0
   -4.8741    4.5713   -8.5959 C   0  0  0  0  0  0  0  0  0  0  0  0
   -5.3231    5.9884   -8.5865 C   0  0  1  0  0  0  0  0  0  0  0  0
   -4.2730    6.9614   -8.3817 N   0  0  0  0  0  0  0  0  0  0  0  0
   -4.5329    8.3376   -8.1501 C   0  0  0  0  0  0  0  0  0  0  0  0
   -5.0367    8.9873   -9.0912 O   0  0  0  0  0  0  0  0  0  0  0  0
   -4.2509    9.0280   -6.8976 C   0  0  0  0  0  0  0  0  0  0  0  0
   -3.1965    8.6991   -6.0696 C   0  0  0  0  0  0  0  0  0  0  0  0
   -5.0561   10.0686   -6.4807 C   0  0  0  0  0  0  0  0  0  0  0  0
   -4.8204   10.7424   -5.3014 C   0  0  0  0  0  0  0  0  0  0  0  0
   -3.7444   10.3764   -4.4961 C   0  0  0  0  0  0  0  0  0  0  0  0
   -2.9168    9.3366   -4.8862 C   0  0  0  0  0  0  0  0  0  0  0  0
   -1.8311    8.9997   -4.0359 N   0  0  0  0  0  0  0  0  0  0  0  0
   -0.5096    8.8113   -4.4983 C   0  0  0  0  0  0  0  0  0  0  0  0
   -0.2597    8.8659   -5.7343 O   0  0  0  0  0  0  0  0  0  0  0  0
    0.5566    8.5528   -3.4943 C   0  0  0  0  0  0  0  0  0  0  0  0
    1.7225    7.8949   -4.2138 C   0  0  0  0  0  0  0  0  0  0  0  0
  1  2  2  0
  1  6  1  0
  2  3  1  0
  3  4  2  0
  4  5  1  0
  5  6  2  0
  6  7  1  0
  7  8  2  0
  7 17  1  0
  8  9  1  0
  9 10  1  0
  9 15  2  0
 10 11  2  0
 10 12  1  0
 12 13  2  0
 13 14  1  0
 14 15  1  0
 15 16  1  0
 16 17  2  0
 17 18  1  0
 18 19  2  0
 18 21  1  0
 19 20  1  0
 20 23  2  0
 21 22  2  0
 22 23  1  0
 23 24  1  0
 25 24  1  1
 25 26  1  0
 25 28  1  0
 26 27  1  0
 27 30  1  0
 28 29  1  0
 29 30  1  0
 30 31  1  6
 31 32  1  0
 32 33  2  0
 32 34  1  0
 34 35  2  0
 34 36  1  0
 35 39  1  0
 36 37  2  0
 37 38  1  0
 38 39  2  0
 39 40  1  0
 40 41  1  0
 41 42  2  0
 41 43  1  0
 43 44  1  0
M  CHG  1  25   1
M  END
$$$$
