
     RDKit          3D

 44 49  0  0  0  0  0  0  0  0999 V2000
   -7.3512    2.6102  -15.2060 C   0  0  0  0  0  0  0  0  0  0  0  0
   -8.1697    2.8498  -14.1157 C   0  0  0  0  0  0  0  0  0  0  0  0
   -8.0267    2.1102  -12.9665 C   0  0  0  0  0  0  0  0  0  0  0  0
   -7.0481    1.1342  -12.9461 C   0  0  0  0  0  0  0  0  0  0  0  0
   -6.2286    0.8918  -14.0331 C   0  0  0  0  0  0  0  0  0  0  0  0
   -6.3642    1.6226  -15.1794 C   0  0  0  0  0  0  0  0  0  0  0  0
   -5.5348    1.4209  -16.3637 C   0  0  0  0  0  0  0  0  0  0  0  0
   -6.0926    1.1351  -17.5920 C   0  0  0  0  0  0  0  0  0  0  0  0
   -5.2675    0.9510  -18.6900 C   0  0  0  0  0  0  0  0  0  0  0  0
   -5.8473    0.6483  -19.9930 C   0  0  0  0  0  0  0  0  0  0  0  0
   -7.1045    0.5625  -20.0787 O   0  0  0  0  0  0  0  0  0  0  0  0
   -4.9687    0.4666  -21.0933 N   0  0  0  0  0  0  0  0  0  0  0  0
   -3.7110    0.5661  -20.9434 C   0  0  0  0  0  0  0  0  0  0  0  0
   -2.9902    0.8644  -19.7006 C   0  0  0  0  0  0  0  0  0  0  0  0
   -3.8958    1.0524  -18.5586 C   0  0  0  0  0  0  0  0  0  0  0  0
   -3.3609    1.3336  -17.3469 N   0  0  0  0  0  0  0  0  0  0  0  0
   -4.1548    1.5178  -16.2563 C   0  0  0  0  0  0  0  0  0  0  0  0
   -3.6079    1.8244  -14.9352 C   0  0  0  0  0  0  0  0  0  0  0  0
   -3.9339    3.0101  -14.2808 C   0  0  0  0  0  0  0  0  0  0  0  0
   -3.4203    3.3036  -13.0351 C   0  0  0  0  0  0  0  0  0  0  0  0
   -2.7524    0.9580  -14.2876 C   0  0  0  0  0  0  0  0  0  0  0  0
   -2.2468    1.2715  -13.0353 C   0  0  0  0  0  0  0  0  0  0  0  0
   -2.5637    2.4403  -12.3826 C   0  0  0  0  0  0  0  0  0  0  0  0
   -2.0358    2.7891  -11.0612 C   0  0  0  0  0  0  0  0  0  0  0  0
   -0.7349    2.2407  -10.7479 N   0  0  1  0  0  4  0  0  0  0  0  0
    0.2044    2.6965  -11.7089 C   0  0  0  0  0  0  0  0  0  0  0  0
    1.1658    3.7415  -11.2689 C   0  0  0  0  0  0  0  0  0  0  0  0
   -0.4441    2.4005   -9.3842 C   0  0  0  0  0  0  0  0  0  0  0  0
    0.4928    3.4760   -8.9833 C   0  0  0  0  0  0  0  0  0  0  0  0
    1.6712    3.6228   -9.8774 C   0  0  1  0  0  0  0  0  0  0  0  0
    2.6416    2.5541   -9.7909 N   0  0  0  0  0  0  0  0  0  0  0  0
    3.7075    2.5558   -8.8534 C   0  0  0  0  0  0  0  0  0  0  0  0
    3.4004    2.6119   -7.6434 O   0  0  0  0  0  0  0  0  0  0  0  0
    5.1189    2.4966   -9.2133 C   0  0  0  0  0  0  0  0  0  0  0  0
    5.6151    1.6804  -10.2097 C   0  0  0  0  0  0  0  0  0  0  0  0
    6.0397    3.2796   -8.5470 C   0  0  0  0  0  0  0  0  0  0  0  0
    7.3820    3.2478   -8.8593 C   0  0  0  0  0  0  0  0  0  0  0  0
    7.8391    2.4084   -9.8726 C   0  0  0  0  0  0  0  0  0  0  0  0
    6.9406    1.6102  -10.5610 C   0  0  0  0  0  0  0  0  0  0  0  0
    7.4506    0.7725  -11.5873 N   0  0  0  0  0  0  0  0  0  0  0  0
    7.9834    1.2635  -12.8001 C   0  0  0  0  0  0  0  0  0  0  0  0
    8.2033    2.4987  -12.9385 O   0  0  0  0  0  0  0  0  0  0  0  0
    8.2717    0.2900  -13.8868 C   0  0  0  0  0  0  0  0  0  0  0  0
    8.7260    1.0757  -15.1058 C   0  0  0  0  0  0  0  0  0  0  0  0
  1  2  2  0
  1  6  1  0
  2  3  1  0
  3  4  2  0
  4  5  1  0
  5  6  2  0
  6  7  1  0
  7  8  2  0
  7 17  1  0
  8  9  1  0
  9 10  1  0
  9 15  2  0
 10 11  2  0
 10 12  1  0
 12 13  2  0
 13 14  1  0
 14 15  1  0
 15 16  1  0
 16 17  2  0
 17 18  1  0
 18 19  2  0
 18 21  1  0
 19 20  1  0
 20 23  2  0
 21 22  2  0
 22 23  1  0
 23 24  1  0
 25 24  1  6
 25 26  1  0
 25 28  1  0
 26 27  1  0
 27 30  1  0
 28 29  1  0
 29 30  1  0
 30 31  1  6
 31 32  1  0
 32 33  2  0
 32 34  1  0
 34 35  2  0
 34 36  1  0
 35 39  1  0
 36 37  2  0
 37 38  1  0
 38 39  2  0
 39 40  1  0
 40 41  1  0
 41 42  2  0
 41 43  1  0
 43 44  1  0
M  CHG  1  25   1
M  END
$$$$
