
     RDKit          3D

 44 49  0  0  0  0  0  0  0  0999 V2000
   -3.9012    3.5050  -16.7999 C   0  0  0  0  0  0  0  0  0  0  0  0
   -2.6729    3.9453  -17.2618 C   0  0  0  0  0  0  0  0  0  0  0  0
   -1.5664    3.1363  -17.1661 C   0  0  0  0  0  0  0  0  0  0  0  0
   -1.7294    1.8863  -16.5989 C   0  0  0  0  0  0  0  0  0  0  0  0
   -2.9546    1.4429  -16.1364 C   0  0  0  0  0  0  0  0  0  0  0  0
   -4.0597    2.2410  -16.2278 C   0  0  0  0  0  0  0  0  0  0  0  0
   -5.3827    1.8381  -15.7604 C   0  0  0  0  0  0  0  0  0  0  0  0
   -6.4323    1.6619  -16.6373 C   0  0  0  0  0  0  0  0  0  0  0  0
   -7.6716    1.2788  -16.1501 C   0  0  0  0  0  0  0  0  0  0  0  0
   -8.7878    1.0901  -17.0689 C   0  0  0  0  0  0  0  0  0  0  0  0
   -8.5839    1.2856  -18.2999 O   0  0  0  0  0  0  0  0  0  0  0  0
  -10.0416    0.6975  -16.5309 N   0  0  0  0  0  0  0  0  0  0  0  0
  -10.1841    0.5158  -15.2815 C   0  0  0  0  0  0  0  0  0  0  0  0
   -9.1575    0.6668  -14.2441 C   0  0  0  0  0  0  0  0  0  0  0  0
   -7.8579    1.0741  -14.7964 C   0  0  0  0  0  0  0  0  0  0  0  0
   -6.8191    1.2504  -13.9461 N   0  0  0  0  0  0  0  0  0  0  0  0
   -5.5938    1.6264  -14.4054 C   0  0  0  0  0  0  0  0  0  0  0  0
   -4.4520    1.8230  -13.5132 C   0  0  0  0  0  0  0  0  0  0  0  0
   -3.9123    3.0905  -13.3064 C   0  0  0  0  0  0  0  0  0  0  0  0
   -2.8355    3.2805  -12.4663 C   0  0  0  0  0  0  0  0  0  0  0  0
   -3.8664    0.7684  -12.8447 C   0  0  0  0  0  0  0  0  0  0  0  0
   -2.7844    0.9804  -12.0043 C   0  0  0  0  0  0  0  0  0  0  0  0
   -2.2455    2.2287  -11.7949 C   0  0  0  0  0  0  0  0  0  0  0  0
   -1.1004    2.4702  -10.9136 C   0  0  0  0  0  0  0  0  0  0  0  0
    0.1994    2.2824  -11.5191 N   0  0  1  0  0  4  0  0  0  0  0  0
    0.8683    1.2180  -10.8610 C   0  0  0  0  0  0  0  0  0  0  0  0
    0.9679   -0.0713  -11.5942 C   0  0  0  0  0  0  0  0  0  0  0  0
    0.0963    2.2587  -12.9186 C   0  0  0  0  0  0  0  0  0  0  0  0
    0.1659    0.9499  -13.6096 C   0  0  0  0  0  0  0  0  0  0  0  0
    1.1904    0.0237  -13.0596 C   0  0  1  0  0  0  0  0  0  0  0  0
    2.5610    0.3969  -13.3308 N   0  0  0  0  0  0  0  0  0  0  0  0
    3.1229    0.3704  -14.6341 C   0  0  0  0  0  0  0  0  0  0  0  0
    2.3260    0.3577  -15.5966 O   0  0  0  0  0  0  0  0  0  0  0  0
    4.5538    0.3572  -14.9123 C   0  0  0  0  0  0  0  0  0  0  0  0
    5.5008    0.8643  -14.0455 C   0  0  0  0  0  0  0  0  0  0  0  0
    5.0277   -0.1791  -16.0924 C   0  0  0  0  0  0  0  0  0  0  0  0
    6.3735   -0.2065  -16.3894 C   0  0  0  0  0  0  0  0  0  0  0  0
    7.2946    0.3170  -15.4850 C   0  0  0  0  0  0  0  0  0  0  0  0
    6.8516    0.8621  -14.2913 C   0  0  0  0  0  0  0  0  0  0  0  0
    7.8256    1.3815  -13.3988 N   0  0  0  0  0  0  0  0  0  0  0  0
    7.7156    1.2994  -11.9927 C   0  0  0  0  0  0  0  0  0  0  0  0
    6.5973    1.0555  -11.4604 O   0  0  0  0  0  0  0  0  0  0  0  0
    8.9425    1.5055  -11.1780 C   0  0  0  0  0  0  0  0  0  0  0  0
    8.6492    1.0240   -9.7666 C   0  0  0  0  0  0  0  0  0  0  0  0
  1  2  2  0
  1  6  1  0
  2  3  1  0
  3  4  2  0
  4  5  1  0
  5  6  2  0
  6  7  1  0
  7  8  2  0
  7 17  1  0
  8  9  1  0
  9 10  1  0
  9 15  2  0
 10 11  2  0
 10 12  1  0
 12 13  2  0
 13 14  1  0
 14 15  1  0
 15 16  1  0
 16 17  2  0
 17 18  1  0
 18 19  2  0
 18 21  1  0
 19 20  1  0
 20 23  2  0
 21 22  2  0
 22 23  1  0
 23 24  1  0
 25 24  1  1
 25 26  1  0
 25 28  1  0
 26 27  1  0
 27 30  1  0
 28 29  1  0
 29 30  1  0
 30 31  1  1
 31 32  1  0
 32 33  2  0
 32 34  1  0
 34 35  2  0
 34 36  1  0
 35 39  1  0
 36 37  2  0
 37 38  1  0
 38 39  2  0
 39 40  1  0
 40 41  1  0
 41 42  2  0
 41 43  1  0
 43 44  1  0
M  CHG  1  25   1
M  END
$$$$
