
     RDKit          3D

 23 26  0  0  0  0  0  0  0  0999 V2000
  -54.9846  -20.4619   35.8980 C   0  0  0  0  0  0  0  0  0  0  0  0
  -62.7835  -17.9746   38.2316 C   0  0  0  0  0  0  0  0  0  0  0  0
  -60.4917  -20.6132   37.2405 C   0  0  0  0  0  0  0  0  0  0  0  0
  -61.5863  -19.6208   37.3863 C   0  0  0  0  0  0  0  0  0  0  0  0
  -62.6546  -19.4457   36.5511 C   0  0  0  0  0  0  0  0  0  0  0  0
  -63.4238  -18.4018   37.0772 C   0  0  0  0  0  0  0  0  0  0  0  0
  -64.5919  -17.7974   36.6705 C   0  0  0  0  0  0  0  0  0  0  0  0
  -65.1300  -16.7614   37.4135 C   0  0  0  0  0  0  0  0  0  0  0  0
  -64.5083  -16.3262   38.5596 C   0  0  0  0  0  0  0  0  0  0  0  0
  -63.3397  -16.9425   38.9519 C   0  0  0  0  0  0  0  0  0  0  0  0
  -58.4437  -21.6796   38.1655 C   0  0  0  0  0  0  0  0  0  0  0  0
  -57.2531  -21.2824   37.3937 C   0  0  0  0  0  0  0  0  0  0  0  0
  -56.4834  -22.1899   36.6898 C   0  0  0  0  0  0  0  0  0  0  0  0
  -55.3657  -21.7719   35.9552 C   0  0  0  0  0  0  0  0  0  0  0  0
  -53.2700  -21.1272   34.5554 C   0  0  0  0  0  0  0  0  0  0  0  0
  -55.7649  -19.5401   36.6114 C   0  0  0  0  0  0  0  0  0  0  0  0
  -56.8550  -19.9750   37.3231 C   0  0  0  0  0  0  0  0  0  0  0  0
  -61.6876  -18.7269   38.3848 N   0  0  0  0  0  0  0  0  0  0  0  0
  -59.4889  -20.7138   38.2270 N   0  0  0  0  0  0  0  0  0  0  0  0
  -52.0909  -21.0279   33.7243 N   0  0  0  0  0  0  0  0  0  0  0  0
  -53.9246  -20.1788   35.1828 N   0  0  0  0  0  0  0  0  0  0  0  0
  -60.4642  -21.3590   36.2377 O   0  0  0  0  0  0  0  0  0  0  0  0
  -54.1795  -22.5228   34.9782 S   0  0  0  0  0  0  0  0  0  0  0  0
  1 14  2  0
  1 16  1  0
 21  1  1  0
  2  6  2  0
  2 10  1  0
 18  2  1  0
  3  4  1  0
 19  3  1  0
  3 22  2  0
  4  5  2  0
  4 18  1  0
  5  6  1  0
  6  7  1  0
  7  8  2  0
  9  8  1  0
 10  9  2  0
 12 11  1  0
 11 19  1  0
 13 12  2  0
 12 17  1  0
 14 13  1  0
 14 23  1  0
 15 20  1  0
 15 21  2  0
 15 23  1  0
 16 17  2  0
M  END
$$$$
