
     RDKit          3D

 23 26  0  0  0  0  0  0  0  0999 V2000
  -44.4901  -23.3794   25.5311 C   0  0  0  0  0  0  0  0  0  0  0  0
  -41.7665  -31.1100   28.4856 C   0  0  0  0  0  0  0  0  0  0  0  0
  -42.0466  -27.5048   28.8338 C   0  0  0  0  0  0  0  0  0  0  0  0
  -42.0213  -28.9806   28.9942 C   0  0  0  0  0  0  0  0  0  0  0  0
  -42.3160  -29.6904   30.1250 C   0  0  0  0  0  0  0  0  0  0  0  0
  -42.1579  -31.0458   29.8152 C   0  0  0  0  0  0  0  0  0  0  0  0
  -42.3133  -32.2017   30.5468 C   0  0  0  0  0  0  0  0  0  0  0  0
  -42.0792  -33.4310   29.9561 C   0  0  0  0  0  0  0  0  0  0  0  0
  -41.6909  -33.5121   28.6401 C   0  0  0  0  0  0  0  0  0  0  0  0
  -41.5401  -32.3450   27.9228 C   0  0  0  0  0  0  0  0  0  0  0  0
  -41.3249  -25.5022   27.5471 C   0  0  0  0  0  0  0  0  0  0  0  0
  -42.3933  -24.7720   26.8427 C   0  0  0  0  0  0  0  0  0  0  0  0
  -42.4249  -24.6402   25.4668 C   0  0  0  0  0  0  0  0  0  0  0  0
  -43.4659  -23.9501   24.8314 C   0  0  0  0  0  0  0  0  0  0  0  0
  -45.3376  -22.6959   23.5312 C   0  0  0  0  0  0  0  0  0  0  0  0
  -44.4595  -23.5125   26.9271 C   0  0  0  0  0  0  0  0  0  0  0  0
  -43.4288  -24.1936   27.5253 C   0  0  0  0  0  0  0  0  0  0  0  0
  -41.6953  -29.8550   28.0270 N   0  0  0  0  0  0  0  0  0  0  0  0
  -41.5172  -26.9081   27.6708 N   0  0  0  0  0  0  0  0  0  0  0  0
  -46.2396  -22.0658   22.5930 N   0  0  0  0  0  0  0  0  0  0  0  0
  -45.4123  -22.7573   24.8397 N   0  0  0  0  0  0  0  0  0  0  0  0
  -42.5398  -26.7942   29.7363 O   0  0  0  0  0  0  0  0  0  0  0  0
  -43.8855  -23.5608   23.2196 S   0  0  0  0  0  0  0  0  0  0  0  0
  1 14  2  0
  1 16  1  0
 21  1  1  0
  2  6  2  0
  2 10  1  0
 18  2  1  0
  3  4  1  0
 19  3  1  0
  3 22  2  0
  4  5  2  0
  4 18  1  0
  5  6  1  0
  6  7  1  0
  7  8  2  0
  9  8  1  0
 10  9  2  0
 12 11  1  0
 11 19  1  0
 13 12  2  0
 12 17  1  0
 14 13  1  0
 14 23  1  0
 15 20  1  0
 15 21  2  0
 15 23  1  0
 16 17  2  0
M  END
$$$$
