
     RDKit          3D

 23 26  0  0  0  0  0  0  0  0999 V2000
  -40.2076  -30.3195   28.6253 C   0  0  0  0  0  0  0  0  0  0  0  0
  -45.4237  -24.0284   24.4982 C   0  0  0  0  0  0  0  0  0  0  0  0
  -43.2184  -25.3764   27.0508 C   0  0  0  0  0  0  0  0  0  0  0  0
  -43.8853  -24.9040   25.8114 C   0  0  0  0  0  0  0  0  0  0  0  0
  -43.3853  -24.9493   24.5396 C   0  0  0  0  0  0  0  0  0  0  0  0
  -44.3537  -24.3955   23.6948 C   0  0  0  0  0  0  0  0  0  0  0  0
  -44.4039  -24.1809   22.3359 C   0  0  0  0  0  0  0  0  0  0  0  0
  -45.5233  -23.5981   21.7683 C   0  0  0  0  0  0  0  0  0  0  0  0
  -46.5919  -23.2286   22.5500 C   0  0  0  0  0  0  0  0  0  0  0  0
  -46.5245  -23.4507   23.9085 C   0  0  0  0  0  0  0  0  0  0  0  0
  -41.1422  -26.1327   28.1930 C   0  0  0  0  0  0  0  0  0  0  0  0
  -40.8330  -27.5637   28.3591 C   0  0  0  0  0  0  0  0  0  0  0  0
  -41.6448  -28.4243   29.0746 C   0  0  0  0  0  0  0  0  0  0  0  0
  -41.3247  -29.7829   29.1985 C   0  0  0  0  0  0  0  0  0  0  0  0
  -40.8446  -32.3211   29.5045 C   0  0  0  0  0  0  0  0  0  0  0  0
  -39.3833  -29.4476   27.8988 C   0  0  0  0  0  0  0  0  0  0  0  0
  -39.7191  -28.1210   27.7921 C   0  0  0  0  0  0  0  0  0  0  0  0
  -45.1077  -24.3478   25.7585 N   0  0  0  0  0  0  0  0  0  0  0  0
  -41.8711  -25.7920   27.0176 N   0  0  0  0  0  0  0  0  0  0  0  0
  -40.8017  -33.7326   29.8156 N   0  0  0  0  0  0  0  0  0  0  0  0
  -40.0018  -31.6007   28.8027 N   0  0  0  0  0  0  0  0  0  0  0  0
  -43.8585  -25.4040   28.1242 O   0  0  0  0  0  0  0  0  0  0  0  0
  -42.0163  -31.1494   29.9600 S   0  0  0  0  0  0  0  0  0  0  0  0
  1 14  2  0
  1 16  1  0
 21  1  1  0
  2  6  2  0
  2 10  1  0
 18  2  1  0
  3  4  1  0
 19  3  1  0
  3 22  2  0
  4  5  2  0
  4 18  1  0
  5  6  1  0
  6  7  1  0
  7  8  2  0
  9  8  1  0
 10  9  2  0
 12 11  1  0
 11 19  1  0
 13 12  2  0
 12 17  1  0
 14 13  1  0
 14 23  1  0
 15 20  1  0
 15 21  2  0
 15 23  1  0
 16 17  2  0
M  END
$$$$
