
     RDKit          3D

 23 26  0  0  0  0  0  0  0  0999 V2000
  -69.9995  -12.8673   30.8734 C   0  0  0  0  0  0  0  0  0  0  0  0
  -66.0413  -20.7866   30.7994 C   0  0  0  0  0  0  0  0  0  0  0  0
  -68.8941  -18.5430   30.9561 C   0  0  0  0  0  0  0  0  0  0  0  0
  -67.7363  -19.3944   30.5835 C   0  0  0  0  0  0  0  0  0  0  0  0
  -67.2163  -19.5740   29.3318 C   0  0  0  0  0  0  0  0  0  0  0  0
  -66.1379  -20.4572   29.4550 C   0  0  0  0  0  0  0  0  0  0  0  0
  -65.2530  -20.9930   28.5466 C   0  0  0  0  0  0  0  0  0  0  0  0
  -64.2643  -21.8619   28.9736 C   0  0  0  0  0  0  0  0  0  0  0  0
  -64.1548  -22.1985   30.3018 C   0  0  0  0  0  0  0  0  0  0  0  0
  -65.0491  -21.6529   31.1974 C   0  0  0  0  0  0  0  0  0  0  0  0
  -70.7671  -17.0645   30.2539 C   0  0  0  0  0  0  0  0  0  0  0  0
  -70.5085  -15.6267   30.4452 C   0  0  0  0  0  0  0  0  0  0  0  0
  -71.0995  -14.6518   29.6631 C   0  0  0  0  0  0  0  0  0  0  0  0
  -70.8399  -13.2927   29.8848 C   0  0  0  0  0  0  0  0  0  0  0  0
  -70.4422  -10.7403   30.1915 C   0  0  0  0  0  0  0  0  0  0  0  0
  -69.3993  -13.8553   31.6678 C   0  0  0  0  0  0  0  0  0  0  0  0
  -69.6704  -15.1798   31.4304 C   0  0  0  0  0  0  0  0  0  0  0  0
  -67.0139  -20.1319   31.4441 N   0  0  0  0  0  0  0  0  0  0  0  0
  -69.6244  -17.8625   29.9598 N   0  0  0  0  0  0  0  0  0  0  0  0
  -70.3879   -9.2958   30.1580 N   0  0  0  0  0  0  0  0  0  0  0  0
  -69.8260  -11.5749   30.9949 N   0  0  0  0  0  0  0  0  0  0  0  0
  -69.2174  -18.4325   32.1585 O   0  0  0  0  0  0  0  0  0  0  0  0
  -71.3333  -11.8117   29.1858 S   0  0  0  0  0  0  0  0  0  0  0  0
  1 14  2  0
  1 16  1  0
 21  1  1  0
  2  6  2  0
  2 10  1  0
 18  2  1  0
  3  4  1  0
 19  3  1  0
  3 22  2  0
  4  5  2  0
  4 18  1  0
  5  6  1  0
  6  7  1  0
  7  8  2  0
  9  8  1  0
 10  9  2  0
 12 11  1  0
 11 19  1  0
 13 12  2  0
 12 17  1  0
 14 13  1  0
 14 23  1  0
 15 20  1  0
 15 21  2  0
 15 23  1  0
 16 17  2  0
M  END
$$$$
