
     RDKit          3D

 23 26  0  0  0  0  0  0  0  0999 V2000
  -48.6955  -11.5127   20.8960 C   0  0  0  0  0  0  0  0  0  0  0  0
  -49.7994  -19.6731   23.2636 C   0  0  0  0  0  0  0  0  0  0  0  0
  -47.4172  -17.1243   22.2509 C   0  0  0  0  0  0  0  0  0  0  0  0
  -48.2273  -18.3496   22.4670 C   0  0  0  0  0  0  0  0  0  0  0  0
  -48.0456  -19.5703   21.8785 C   0  0  0  0  0  0  0  0  0  0  0  0
  -49.0388  -20.4211   22.3764 C   0  0  0  0  0  0  0  0  0  0  0  0
  -49.3458  -21.7433   22.1468 C   0  0  0  0  0  0  0  0  0  0  0  0
  -50.4149  -22.3292   22.8016 C   0  0  0  0  0  0  0  0  0  0  0  0
  -51.1784  -21.6022   23.6836 C   0  0  0  0  0  0  0  0  0  0  0  0
  -50.8570  -20.2799   23.9013 C   0  0  0  0  0  0  0  0  0  0  0  0
  -46.8233  -14.8112   22.9463 C   0  0  0  0  0  0  0  0  0  0  0  0
  -47.4637  -13.6954   22.2281 C   0  0  0  0  0  0  0  0  0  0  0  0
  -48.3131  -13.8888   21.1545 C   0  0  0  0  0  0  0  0  0  0  0  0
  -48.9150  -12.8025   20.5054 C   0  0  0  0  0  0  0  0  0  0  0  0
  -50.0936  -10.8755   19.2153 C   0  0  0  0  0  0  0  0  0  0  0  0
  -47.8342  -11.3150   21.9853 C   0  0  0  0  0  0  0  0  0  0  0  0
  -47.2574  -12.3959   22.6042 C   0  0  0  0  0  0  0  0  0  0  0  0
  -49.2844  -18.4384   23.2922 N   0  0  0  0  0  0  0  0  0  0  0  0
  -47.6072  -15.9939   23.0724 N   0  0  0  0  0  0  0  0  0  0  0  0
  -50.8524   -9.9987   18.3514 N   0  0  0  0  0  0  0  0  0  0  0  0
  -49.3073  -10.5717   20.2209 N   0  0  0  0  0  0  0  0  0  0  0  0
  -46.5657  -17.1007   21.3360 O   0  0  0  0  0  0  0  0  0  0  0  0
  -49.9880  -12.5906   19.1904 S   0  0  0  0  0  0  0  0  0  0  0  0
  1 14  2  0
  1 16  1  0
 21  1  1  0
  2  6  2  0
  2 10  1  0
 18  2  1  0
  3  4  1  0
 19  3  1  0
  3 22  2  0
  4  5  2  0
  4 18  1  0
  5  6  1  0
  6  7  1  0
  7  8  2  0
  9  8  1  0
 10  9  2  0
 12 11  1  0
 11 19  1  0
 13 12  2  0
 12 17  1  0
 14 13  1  0
 14 23  1  0
 15 20  1  0
 15 21  2  0
 15 23  1  0
 16 17  2  0
M  END
$$$$
