
     RDKit          3D

 23 26  0  0  0  0  0  0  0  0999 V2000
  -42.7867  -24.8661   32.0691 C   0  0  0  0  0  0  0  0  0  0  0  0
  -37.7732  -29.5335   26.9987 C   0  0  0  0  0  0  0  0  0  0  0  0
  -41.0160  -28.1266   27.8366 C   0  0  0  0  0  0  0  0  0  0  0  0
  -39.7065  -28.5049   27.2480 C   0  0  0  0  0  0  0  0  0  0  0  0
  -39.1405  -28.0024   26.1093 C   0  0  0  0  0  0  0  0  0  0  0  0
  -37.9107  -28.6481   25.9393 C   0  0  0  0  0  0  0  0  0  0  0  0
  -36.9223  -28.5519   24.9859 C   0  0  0  0  0  0  0  0  0  0  0  0
  -35.7884  -29.3392   25.0830 C   0  0  0  0  0  0  0  0  0  0  0  0
  -35.6366  -30.2213   26.1261 C   0  0  0  0  0  0  0  0  0  0  0  0
  -36.6360  -30.3047   27.0715 C   0  0  0  0  0  0  0  0  0  0  0  0
  -42.7125  -28.4217   29.6316 C   0  0  0  0  0  0  0  0  0  0  0  0
  -42.7377  -27.1950   30.4472 C   0  0  0  0  0  0  0  0  0  0  0  0
  -43.3004  -26.0136   30.0006 C   0  0  0  0  0  0  0  0  0  0  0  0
  -43.3182  -24.8708   30.8113 C   0  0  0  0  0  0  0  0  0  0  0  0
  -43.4151  -22.6823   32.2141 C   0  0  0  0  0  0  0  0  0  0  0  0
  -42.2158  -26.0641   32.5235 C   0  0  0  0  0  0  0  0  0  0  0  0
  -42.2113  -27.1697   31.7101 C   0  0  0  0  0  0  0  0  0  0  0  0
  -38.8669  -29.4203   27.7613 N   0  0  0  0  0  0  0  0  0  0  0  0
  -41.4607  -28.7354   29.0285 N   0  0  0  0  0  0  0  0  0  0  0  0
  -43.5907  -21.3641   32.7819 N   0  0  0  0  0  0  0  0  0  0  0  0
  -42.8555  -23.7450   32.7426 N   0  0  0  0  0  0  0  0  0  0  0  0
  -41.7222  -27.2654   27.2691 O   0  0  0  0  0  0  0  0  0  0  0  0
  -43.8867  -23.2641   30.6673 S   0  0  0  0  0  0  0  0  0  0  0  0
  1 14  2  0
  1 16  1  0
 21  1  1  0
  2  6  2  0
  2 10  1  0
 18  2  1  0
  3  4  1  0
 19  3  1  0
  3 22  2  0
  4  5  2  0
  4 18  1  0
  5  6  1  0
  6  7  1  0
  7  8  2  0
  9  8  1  0
 10  9  2  0
 12 11  1  0
 11 19  1  0
 13 12  2  0
 12 17  1  0
 14 13  1  0
 14 23  1  0
 15 20  1  0
 15 21  2  0
 15 23  1  0
 16 17  2  0
M  END
$$$$
