
     RDKit          3D

 23 26  0  0  0  0  0  0  0  0999 V2000
  -40.1188  -30.5212   28.7372 C   0  0  0  0  0  0  0  0  0  0  0  0
  -44.0707  -24.5184   24.0912 C   0  0  0  0  0  0  0  0  0  0  0  0
  -42.5229  -25.1861   27.3092 C   0  0  0  0  0  0  0  0  0  0  0  0
  -43.3451  -24.7252   26.1621 C   0  0  0  0  0  0  0  0  0  0  0  0
  -44.3984  -23.8543   26.2022 C   0  0  0  0  0  0  0  0  0  0  0  0
  -44.8689  -23.7141   24.8918 C   0  0  0  0  0  0  0  0  0  0  0  0
  -45.8918  -22.9809   24.3336 C   0  0  0  0  0  0  0  0  0  0  0  0
  -46.1254  -23.0450   22.9712 C   0  0  0  0  0  0  0  0  0  0  0  0
  -45.3439  -23.8368   22.1640 C   0  0  0  0  0  0  0  0  0  0  0  0
  -44.3245  -24.5640   22.7396 C   0  0  0  0  0  0  0  0  0  0  0  0
  -40.4415  -26.2630   28.1429 C   0  0  0  0  0  0  0  0  0  0  0  0
  -40.3413  -27.7162   28.3643 C   0  0  0  0  0  0  0  0  0  0  0  0
  -41.2678  -28.4232   29.1081 C   0  0  0  0  0  0  0  0  0  0  0  0
  -41.1466  -29.8081   29.2846 C   0  0  0  0  0  0  0  0  0  0  0  0
  -41.0364  -32.3755   29.6884 C   0  0  0  0  0  0  0  0  0  0  0  0
  -39.1783  -29.8052   27.9821 C   0  0  0  0  0  0  0  0  0  0  0  0
  -39.3197  -28.4491   27.8239 C   0  0  0  0  0  0  0  0  0  0  0  0
  -43.1698  -25.1079   24.8857 N   0  0  0  0  0  0  0  0  0  0  0  0
  -41.3041  -25.8589   27.0839 N   0  0  0  0  0  0  0  0  0  0  0  0
  -41.1968  -33.7656   30.0527 N   0  0  0  0  0  0  0  0  0  0  0  0
  -40.0994  -31.8110   28.9638 N   0  0  0  0  0  0  0  0  0  0  0  0
  -42.9178  -24.9744   28.4762 O   0  0  0  0  0  0  0  0  0  0  0  0
  -42.0269  -31.0309   30.0939 S   0  0  0  0  0  0  0  0  0  0  0  0
  1 14  2  0
  1 16  1  0
 21  1  1  0
  2  6  2  0
  2 10  1  0
 18  2  1  0
  3  4  1  0
 19  3  1  0
  3 22  2  0
  4  5  2  0
  4 18  1  0
  5  6  1  0
  6  7  1  0
  7  8  2  0
  9  8  1  0
 10  9  2  0
 12 11  1  0
 11 19  1  0
 13 12  2  0
 12 17  1  0
 14 13  1  0
 14 23  1  0
 15 20  1  0
 15 21  2  0
 15 23  1  0
 16 17  2  0
M  END
$$$$
