
     RDKit          3D

 23 26  0  0  0  0  0  0  0  0999 V2000
  -40.3079  -29.6277   29.6165 C   0  0  0  0  0  0  0  0  0  0  0  0
  -45.2925  -25.7490   23.5116 C   0  0  0  0  0  0  0  0  0  0  0  0
  -44.2503  -26.2857   26.9500 C   0  0  0  0  0  0  0  0  0  0  0  0
  -44.5818  -25.7700   25.5979 C   0  0  0  0  0  0  0  0  0  0  0  0
  -44.4142  -24.4923   25.1408 C   0  0  0  0  0  0  0  0  0  0  0  0
  -44.8623  -24.4654   23.8154 C   0  0  0  0  0  0  0  0  0  0  0  0
  -44.9352  -23.4694   22.8678 C   0  0  0  0  0  0  0  0  0  0  0  0
  -45.4382  -23.7475   21.6090 C   0  0  0  0  0  0  0  0  0  0  0  0
  -45.8685  -25.0138   21.2918 C   0  0  0  0  0  0  0  0  0  0  0  0
  -45.7884  -25.9987   22.2526 C   0  0  0  0  0  0  0  0  0  0  0  0
  -44.2304  -28.1947   28.5446 C   0  0  0  0  0  0  0  0  0  0  0  0
  -42.8966  -28.7041   28.9080 C   0  0  0  0  0  0  0  0  0  0  0  0
  -42.3916  -29.8924   28.4135 C   0  0  0  0  0  0  0  0  0  0  0  0
  -41.1118  -30.3373   28.7711 C   0  0  0  0  0  0  0  0  0  0  0  0
  -38.7565  -31.2741   29.3559 C   0  0  0  0  0  0  0  0  0  0  0  0
  -40.8188  -28.4218   30.1187 C   0  0  0  0  0  0  0  0  0  0  0  0
  -42.0754  -28.0079   29.7528 C   0  0  0  0  0  0  0  0  0  0  0  0
  -45.1095  -26.5024   24.6021 N   0  0  0  0  0  0  0  0  0  0  0  0
  -44.3502  -27.6648   27.2278 N   0  0  0  0  0  0  0  0  0  0  0  0
  -37.5144  -31.9955   29.5218 N   0  0  0  0  0  0  0  0  0  0  0  0
  -39.1300  -30.1333   29.8857 N   0  0  0  0  0  0  0  0  0  0  0  0
  -43.8823  -25.4900   27.8410 O   0  0  0  0  0  0  0  0  0  0  0  0
  -40.1301  -31.6907   28.4107 S   0  0  0  0  0  0  0  0  0  0  0  0
  1 14  2  0
  1 16  1  0
 21  1  1  0
  2  6  2  0
  2 10  1  0
 18  2  1  0
  3  4  1  0
 19  3  1  0
  3 22  2  0
  4  5  2  0
  4 18  1  0
  5  6  1  0
  6  7  1  0
  7  8  2  0
  9  8  1  0
 10  9  2  0
 12 11  1  0
 11 19  1  0
 13 12  2  0
 12 17  1  0
 14 13  1  0
 14 23  1  0
 15 20  1  0
 15 21  2  0
 15 23  1  0
 16 17  2  0
M  END
$$$$
