
     RDKit          3D

 23 26  0  0  0  0  0  0  0  0999 V2000
  -53.3993  -21.0122   35.5074 C   0  0  0  0  0  0  0  0  0  0  0  0
  -52.8080  -20.9486   27.0605 C   0  0  0  0  0  0  0  0  0  0  0  0
  -50.9426  -21.4581   30.1357 C   0  0  0  0  0  0  0  0  0  0  0  0
  -51.4576  -21.0715   28.7981 C   0  0  0  0  0  0  0  0  0  0  0  0
  -50.8432  -20.2636   27.8819 C   0  0  0  0  0  0  0  0  0  0  0  0
  -51.6914  -20.1772   26.7723 C   0  0  0  0  0  0  0  0  0  0  0  0
  -51.5998  -19.5159   25.5683 C   0  0  0  0  0  0  0  0  0  0  0  0
  -52.6228  -19.6200   24.6423 C   0  0  0  0  0  0  0  0  0  0  0  0
  -53.7358  -20.3801   24.9120 C   0  0  0  0  0  0  0  0  0  0  0  0
  -53.8109  -21.0352   26.1223 C   0  0  0  0  0  0  0  0  0  0  0  0
  -51.2197  -22.7717   32.2297 C   0  0  0  0  0  0  0  0  0  0  0  0
  -51.9468  -22.1616   33.3567 C   0  0  0  0  0  0  0  0  0  0  0  0
  -51.5502  -20.9753   33.9457 C   0  0  0  0  0  0  0  0  0  0  0  0
  -52.2762  -20.4182   35.0070 C   0  0  0  0  0  0  0  0  0  0  0  0
  -53.5327  -19.2809   36.9804 C   0  0  0  0  0  0  0  0  0  0  0  0
  -53.8029  -22.2157   34.9105 C   0  0  0  0  0  0  0  0  0  0  0  0
  -53.0746  -22.7405   33.8721 C   0  0  0  0  0  0  0  0  0  0  0  0
  -52.6330  -21.4683   28.2810 N   0  0  0  0  0  0  0  0  0  0  0  0
  -51.6545  -22.3798   30.9311 N   0  0  0  0  0  0  0  0  0  0  0  0
  -54.0420  -18.4642   38.0595 N   0  0  0  0  0  0  0  0  0  0  0  0
  -54.0026  -20.4081   36.5005 N   0  0  0  0  0  0  0  0  0  0  0  0
  -49.8740  -20.9614   30.5530 O   0  0  0  0  0  0  0  0  0  0  0  0
  -52.1506  -19.0253   35.9915 S   0  0  0  0  0  0  0  0  0  0  0  0
  1 14  2  0
  1 16  1  0
 21  1  1  0
  2  6  2  0
  2 10  1  0
 18  2  1  0
  3  4  1  0
 19  3  1  0
  3 22  2  0
  4  5  2  0
  4 18  1  0
  5  6  1  0
  6  7  1  0
  7  8  2  0
  9  8  1  0
 10  9  2  0
 12 11  1  0
 11 19  1  0
 13 12  2  0
 12 17  1  0
 14 13  1  0
 14 23  1  0
 15 20  1  0
 15 21  2  0
 15 23  1  0
 16 17  2  0
M  END
$$$$
