
     RDKit          3D

 23 26  0  0  0  0  0  0  0  0999 V2000
  -43.0962   -1.0733   10.3200 C   0  0  0  0  0  0  0  0  0  0  0  0
  -36.2580   -6.9882   10.4129 C   0  0  0  0  0  0  0  0  0  0  0  0
  -39.2647   -5.0027    9.9497 C   0  0  0  0  0  0  0  0  0  0  0  0
  -38.2351   -6.0256   10.2622 C   0  0  0  0  0  0  0  0  0  0  0  0
  -38.4382   -7.2468   10.8427 C   0  0  0  0  0  0  0  0  0  0  0  0
  -37.1890   -7.8691   10.9444 C   0  0  0  0  0  0  0  0  0  0  0  0
  -36.7837   -9.0888   11.4375 C   0  0  0  0  0  0  0  0  0  0  0  0
  -35.4454   -9.4387   11.4037 C   0  0  0  0  0  0  0  0  0  0  0  0
  -34.5103   -8.5777   10.8805 C   0  0  0  0  0  0  0  0  0  0  0  0
  -34.9336   -7.3607   10.3914 C   0  0  0  0  0  0  0  0  0  0  0  0
  -39.7716   -3.0837    8.4505 C   0  0  0  0  0  0  0  0  0  0  0  0
  -40.8944   -2.3876    9.1028 C   0  0  0  0  0  0  0  0  0  0  0  0
  -40.7492   -1.1665    9.7348 C   0  0  0  0  0  0  0  0  0  0  0  0
  -41.8444   -0.5280   10.3320 C   0  0  0  0  0  0  0  0  0  0  0  0
  -43.7928    0.7597   11.4775 C   0  0  0  0  0  0  0  0  0  0  0  0
  -43.2450   -2.3119    9.6788 C   0  0  0  0  0  0  0  0  0  0  0  0
  -42.1565   -2.9167    9.1013 C   0  0  0  0  0  0  0  0  0  0  0  0
  -36.9204   -5.8959   10.0148 N   0  0  0  0  0  0  0  0  0  0  0  0
  -38.8972   -3.7945    9.3218 N   0  0  0  0  0  0  0  0  0  0  0  0
  -44.6908    1.6562   12.1708 N   0  0  0  0  0  0  0  0  0  0  0  0
  -44.0494   -0.3939   10.9073 N   0  0  0  0  0  0  0  0  0  0  0  0
  -40.4595   -5.2187   10.2470 O   0  0  0  0  0  0  0  0  0  0  0  0
  -42.1076    0.9300   11.1865 S   0  0  0  0  0  0  0  0  0  0  0  0
  1 14  2  0
  1 16  1  0
 21  1  1  0
  2  6  2  0
  2 10  1  0
 18  2  1  0
  3  4  1  0
 19  3  1  0
  3 22  2  0
  4  5  2  0
  4 18  1  0
  5  6  1  0
  6  7  1  0
  7  8  2  0
  9  8  1  0
 10  9  2  0
 12 11  1  0
 11 19  1  0
 13 12  2  0
 12 17  1  0
 14 13  1  0
 14 23  1  0
 15 20  1  0
 15 21  2  0
 15 23  1  0
 16 17  2  0
M  END
$$$$
