
     RDKit          3D

 23 26  0  0  0  0  0  0  0  0999 V2000
  -39.8118  -29.5045   29.0973 C   0  0  0  0  0  0  0  0  0  0  0  0
  -47.3492  -32.9226   32.0272 C   0  0  0  0  0  0  0  0  0  0  0  0
  -45.6142  -30.9037   29.5552 C   0  0  0  0  0  0  0  0  0  0  0  0
  -46.5162  -31.4798   30.5841 C   0  0  0  0  0  0  0  0  0  0  0  0
  -47.6146  -30.8857   31.1408 C   0  0  0  0  0  0  0  0  0  0  0  0
  -48.1536  -31.7926   32.0603 C   0  0  0  0  0  0  0  0  0  0  0  0
  -49.2414  -31.7426   32.9026 C   0  0  0  0  0  0  0  0  0  0  0  0
  -49.5345  -32.8210   33.7187 C   0  0  0  0  0  0  0  0  0  0  0  0
  -48.7478  -33.9480   33.6981 C   0  0  0  0  0  0  0  0  0  0  0  0
  -47.6628  -33.9807   32.8489 C   0  0  0  0  0  0  0  0  0  0  0  0
  -43.6456  -31.1829   28.0606 C   0  0  0  0  0  0  0  0  0  0  0  0
  -42.3304  -30.6273   28.4244 C   0  0  0  0  0  0  0  0  0  0  0  0
  -41.2083  -31.4168   28.5950 C   0  0  0  0  0  0  0  0  0  0  0  0
  -39.9705  -30.8500   28.9272 C   0  0  0  0  0  0  0  0  0  0  0  0
  -37.6188  -29.9247   29.5437 C   0  0  0  0  0  0  0  0  0  0  0  0
  -40.9493  -28.7023   28.9242 C   0  0  0  0  0  0  0  0  0  0  0  0
  -42.1502  -29.2819   28.5987 C   0  0  0  0  0  0  0  0  0  0  0  0
  -46.3796  -32.6992   31.1326 N   0  0  0  0  0  0  0  0  0  0  0  0
  -44.4594  -31.6050   29.1508 N   0  0  0  0  0  0  0  0  0  0  0  0
  -36.2364  -29.6640   29.8779 N   0  0  0  0  0  0  0  0  0  0  0  0
  -38.6126  -29.0789   29.4071 N   0  0  0  0  0  0  0  0  0  0  0  0
  -45.8844  -29.7929   29.0496 O   0  0  0  0  0  0  0  0  0  0  0  0
  -38.3878  -31.4276   29.2219 S   0  0  0  0  0  0  0  0  0  0  0  0
  1 14  2  0
  1 16  1  0
 21  1  1  0
  2  6  2  0
  2 10  1  0
 18  2  1  0
  3  4  1  0
 19  3  1  0
  3 22  2  0
  4  5  2  0
  4 18  1  0
  5  6  1  0
  6  7  1  0
  7  8  2  0
  9  8  1  0
 10  9  2  0
 12 11  1  0
 11 19  1  0
 13 12  2  0
 12 17  1  0
 14 13  1  0
 14 23  1  0
 15 20  1  0
 15 21  2  0
 15 23  1  0
 16 17  2  0
M  END
$$$$
