
     RDKit          3D

 23 26  0  0  0  0  0  0  0  0999 V2000
  -55.2947  -22.4411   34.8538 C   0  0  0  0  0  0  0  0  0  0  0  0
  -49.6654  -17.5618   30.7063 C   0  0  0  0  0  0  0  0  0  0  0  0
  -49.8437  -20.5990   32.6913 C   0  0  0  0  0  0  0  0  0  0  0  0
  -49.5083  -19.4890   31.7641 C   0  0  0  0  0  0  0  0  0  0  0  0
  -48.4333  -19.4166   30.9223 C   0  0  0  0  0  0  0  0  0  0  0  0
  -48.5212  -18.1959   30.2438 C   0  0  0  0  0  0  0  0  0  0  0  0
  -47.7327  -17.5911   29.2910 C   0  0  0  0  0  0  0  0  0  0  0  0
  -48.0808  -16.3481   28.7923 C   0  0  0  0  0  0  0  0  0  0  0  0
  -49.2110  -15.7064   29.2398 C   0  0  0  0  0  0  0  0  0  0  0  0
  -49.9886  -16.3263   30.1939 C   0  0  0  0  0  0  0  0  0  0  0  0
  -51.1109  -21.4156   34.6698 C   0  0  0  0  0  0  0  0  0  0  0  0
  -52.5397  -21.7656   34.7536 C   0  0  0  0  0  0  0  0  0  0  0  0
  -53.3418  -21.3785   35.8111 C   0  0  0  0  0  0  0  0  0  0  0  0
  -54.7008  -21.7185   35.8485 C   0  0  0  0  0  0  0  0  0  0  0  0
  -57.2326  -22.2841   36.0389 C   0  0  0  0  0  0  0  0  0  0  0  0
  -54.4821  -22.8342   33.7801 C   0  0  0  0  0  0  0  0  0  0  0  0
  -53.1538  -22.4882   33.7670 C   0  0  0  0  0  0  0  0  0  0  0  0
  -50.2303  -18.3652   31.6150 N   0  0  0  0  0  0  0  0  0  0  0  0
  -50.7793  -20.4000   33.7276 N   0  0  0  0  0  0  0  0  0  0  0  0
  -58.6276  -22.4656   36.3734 N   0  0  0  0  0  0  0  0  0  0  0  0
  -56.5706  -22.7049   34.9871 N   0  0  0  0  0  0  0  0  0  0  0  0
  -49.2914  -21.7112   32.5479 O   0  0  0  0  0  0  0  0  0  0  0  0
  -56.0090  -21.4589   36.9193 S   0  0  0  0  0  0  0  0  0  0  0  0
  1 14  2  0
  1 16  1  0
 21  1  1  0
  2  6  2  0
  2 10  1  0
 18  2  1  0
  3  4  1  0
 19  3  1  0
  3 22  2  0
  4  5  2  0
  4 18  1  0
  5  6  1  0
  6  7  1  0
  7  8  2  0
  9  8  1  0
 10  9  2  0
 12 11  1  0
 11 19  1  0
 13 12  2  0
 12 17  1  0
 14 13  1  0
 14 23  1  0
 15 20  1  0
 15 21  2  0
 15 23  1  0
 16 17  2  0
M  END
$$$$
