
     RDKit          3D

130134  0  0  0  0  0  0  0  0999 V2000
  -17.6787  -29.5894   29.6390 C   0  0  0  0  0  0  0  0  0  0  0  0
  -18.8134  -29.1266   29.6578 O   0  0  0  0  0  0  0  0  0  0  0  0
  -17.4101  -31.0704   29.7337 C   0  0  0  0  0  0  0  0  0  0  0  0
  -16.5551  -28.7996   29.5720 N   0  0  0  0  0  0  0  0  0  0  0  0
  -16.2149  -27.8513   30.6348 C   0  0  2  0  0  0  0  0  0  0  0  0
  -17.4113  -26.8941   30.8803 C   0  0  0  0  0  0  0  0  0  0  0  0
  -18.1738  -26.5175   29.9974 O   0  0  0  0  0  0  0  0  0  0  0  0
  -14.8812  -27.1271   30.3653 C   0  0  0  0  0  0  0  0  0  0  0  0
  -14.1601  -27.7098   29.1395 C   0  0  0  0  0  0  0  0  0  0  0  0
  -14.9481  -28.7632   28.3544 C   0  0  0  0  0  0  0  0  0  0  0  0
  -14.5452  -28.8641   26.8917 C   0  0  0  0  0  0  0  0  0  0  0  0
  -13.2366  -29.5603   26.8007 N   0  0  0  0  0  4  0  0  0  0  0  0
  -17.4630  -26.4259   32.1831 N   0  0  0  0  0  0  0  0  0  0  0  0
  -18.4539  -25.4448   32.6646 C   0  0  2  0  0  0  0  0  0  0  0  0
  -17.6333  -24.1226   32.7633 C   0  0  0  0  0  0  0  0  0  0  0  0
  -16.7247  -23.9922   33.5989 O   0  0  0  0  0  0  0  0  0  0  0  0
  -19.1851  -25.8808   33.9548 C   0  0  0  0  0  0  0  0  0  0  0  0
  -20.2228  -27.0016   33.7577 C   0  0  0  0  0  0  0  0  0  0  0  0
  -21.5617  -26.4349   33.2595 C   0  0  0  0  0  0  0  0  0  0  0  0
  -21.7249  -26.4863   31.7405 C   0  0  0  0  0  0  0  0  0  0  0  0
  -22.5067  -27.6765   31.3390 N   0  0  0  0  0  4  0  0  0  0  0  0
  -18.0908  -23.0319   32.0577 N   0  0  0  0  0  0  0  0  0  0  0  0
  -18.5144  -21.7866   32.7104 C   0  0  2  0  0  0  0  0  0  0  0  0
  -17.3435  -21.2413   33.5671 C   0  0  0  0  0  0  0  0  0  0  0  0
  -17.4567  -20.2740   34.3066 O   0  0  0  0  0  0  0  0  0  0  0  0
  -19.7830  -21.9951   33.5484 C   0  0  0  0  0  0  0  0  0  0  0  0
  -20.8362  -22.8853   32.8700 C   0  0  0  0  0  0  0  0  0  0  0  0
  -22.1165  -22.1222   32.5424 C   0  0  0  0  0  0  0  0  0  0  0  0
  -21.9281  -21.1998   31.4143 N   0  0  0  0  0  0  0  0  0  0  0  0
  -22.4965  -21.3169   30.2081 C   0  0  0  0  0  0  0  0  0  0  0  0
  -22.2189  -22.3292   29.3837 N   0  0  0  0  0  4  0  0  0  0  0  0
  -23.3744  -20.3888   29.8109 N   0  0  0  0  0  0  0  0  0  0  0  0
  -16.1340  -21.8780   33.3183 N   0  0  0  0  0  0  0  0  0  0  0  0
  -14.8961  -21.3662   33.9183 C   0  0  2  0  0  0  0  0  0  0  0  0
  -14.9723  -19.8367   33.7633 C   0  0  0  0  0  0  0  0  0  0  0  0
  -15.7937  -19.3141   33.0085 O   0  0  0  0  0  0  0  0  0  0  0  0
  -13.6554  -21.8897   33.1876 C   0  0  0  0  0  0  0  0  0  0  0  0
  -13.4775  -23.3799   33.3605 C   0  0  0  0  0  0  0  0  0  0  0  0
  -12.8169  -23.9072   34.4818 C   0  0  0  0  0  0  0  0  0  0  0  0
  -13.9579  -24.2595   32.3811 C   0  0  0  0  0  0  0  0  0  0  0  0
  -12.6380  -25.2894   34.6165 C   0  0  0  0  0  0  0  0  0  0  0  0
  -13.7817  -25.6340   32.5155 C   0  0  0  0  0  0  0  0  0  0  0  0
  -13.1261  -26.1419   33.6278 C   0  0  0  0  0  0  0  0  0  0  0  0
  -12.9930  -27.4933   33.7165 O   0  0  0  0  0  0  0  0  0  0  0  0
  -14.0553  -19.1316   34.5040 N   0  0  0  0  0  0  0  0  0  0  0  0
  -14.1528  -17.6861   34.7180 C   0  0  2  0  0  0  0  0  0  0  0  0
  -14.6740  -17.3603   36.1302 C   0  0  0  0  0  0  0  0  0  0  0  0
  -15.7796  -17.7172   36.5232 O   0  0  0  0  0  0  0  0  0  0  0  0
  -15.0620  -17.0419   33.6634 C   0  0  0  0  0  0  0  0  0  0  0  0
  -14.7271  -15.6607   33.5241 O   0  0  0  0  0  0  0  0  0  0  0  0
  -13.7881  -16.6375   36.9112 N   0  0  0  0  0  0  0  0  0  0  0  0
  -13.9981  -16.3548   38.3402 C   0  0  2  0  0  0  0  0  0  0  0  0
  -14.4209  -14.8703   38.4720 C   0  0  0  0  0  0  0  0  0  0  0  0
  -13.6278  -13.9342   38.3883 O   0  0  0  0  0  0  0  0  0  0  0  0
  -12.7518  -16.6898   39.1892 C   0  0  0  0  0  0  0  0  0  0  0  0
  -11.4219  -16.6542   38.4230 C   0  0  0  0  0  0  0  0  0  0  0  0
  -10.3235  -17.4325   39.1305 C   0  0  0  0  0  0  0  0  0  0  0  0
  -10.7964  -17.9218   40.4229 N   0  0  0  0  0  0  0  0  0  0  0  0
  -10.7745  -19.2127   40.7988 C   0  0  0  0  0  0  0  0  0  0  0  0
  -11.3466  -19.6283   41.9247 N   0  0  0  0  0  4  0  0  0  0  0  0
  -10.1493  -20.1065   40.0362 N   0  0  0  0  0  0  0  0  0  0  0  0
  -16.0505  -17.0690   38.2407 C   0  0  0  0  0  0  0  0  0  0  0  0
  -15.7708  -14.6783   38.7555 N   0  0  0  0  0  0  0  0  0  0  0  0
  -15.1062  -16.9650   37.4459 O   0  0  0  0  0  0  0  0  0  0  0  0
  -16.6854  -15.8342   38.9729 C   0  0  1  0  0  0  0  0  0  0  0  0
  -18.0765  -15.5219   38.3399 C   0  0  0  0  0  0  0  0  0  0  0  0
  -18.7299  -14.3839   36.1376 C   0  0  0  0  0  0  0  0  0  0  0  0
  -17.6978  -13.2940   36.1058 C   0  0  0  0  0  0  0  0  0  0  0  0
  -18.1815  -15.6400   36.8102 C   0  0  0  0  0  0  0  0  0  0  0  0
  -16.9328  -16.0198   40.4838 C   0  0  0  0  0  0  0  0  0  0  0  0
  -16.6601  -18.2876   38.3235 N   0  0  0  0  0  0  0  0  0  0  0  0
  -16.6474  -19.1038   39.5437 C   0  0  2  0  0  0  0  0  0  0  0  0
  -15.6405  -20.2605   39.3343 C   0  0  0  0  0  0  0  0  0  0  0  0
  -16.0029  -21.4163   39.1086 O   0  0  0  0  0  0  0  0  0  0  0  0
  -18.0622  -19.5717   39.8999 C   0  0  0  0  0  0  0  0  0  0  0  0
  -19.0280  -18.4891   40.4005 C   0  0  0  0  0  0  0  0  0  0  0  0
  -18.3643  -17.1277   40.4262 C   0  0  0  0  0  0  0  0  0  0  0  0
  -18.8569  -16.1258   40.9293 O   0  0  0  0  0  0  0  0  0  0  0  0
  -17.1163  -17.0937   39.8802 N   0  0  0  0  0  0  0  0  0  0  0  0
  -14.2988  -19.9916   39.2751 N   0  0  0  0  0  0  0  0  0  0  0  0
  -13.5692  -18.8435   39.8371 C   0  0  2  0  0  0  0  0  0  0  0  0
  -12.3240  -18.4963   38.9719 C   0  0  0  0  0  0  0  0  0  0  0  0
  -11.3209  -17.9114   39.3893 O   0  0  0  0  0  0  0  0  0  0  0  0
  -13.2881  -18.9740   41.3405 C   0  0  0  0  0  0  0  0  0  0  0  0
  -12.7705  -20.3246   41.8811 C   0  0  1  0  0  0  0  0  0  0  0  0
  -12.7255  -20.2619   43.4132 C   0  0  0  0  0  0  0  0  0  0  0  0
  -13.6267  -21.5197   41.4676 C   0  0  0  0  0  0  0  0  0  0  0  0
  -12.5066  -18.7836   37.6301 N   0  0  0  0  0  0  0  0  0  0  0  0
  -11.4227  -18.7098   36.6631 C   0  0  2  0  0  0  0  0  0  0  0  0
  -11.4261  -17.4019   35.8353 C   0  0  0  0  0  0  0  0  0  0  0  0
  -10.3954  -17.0088   35.2803 O   0  0  0  0  0  0  0  0  0  0  0  0
  -11.4503  -19.9211   35.7213 C   0  0  0  0  0  0  0  0  0  0  0  0
  -11.9898  -21.2123   36.3812 C   0  0  1  0  0  0  0  0  0  0  0  0
  -11.1312  -22.4071   35.9613 C   0  0  0  0  0  0  0  0  0  0  0  0
  -12.0281  -21.1166   37.9078 C   0  0  0  0  0  0  0  0  0  0  0  0
  -12.0460  -14.4306   35.1054 C   0  0  0  0  0  0  0  0  0  0  0  0
  -12.6452  -16.7794   35.6732 N   0  0  0  0  0  0  0  0  0  0  0  0
  -12.4987  -13.2789   35.0929 O   0  0  0  0  0  0  0  0  0  0  0  0
  -12.9122  -15.6789   34.7011 C   0  0  1  0  0  0  0  0  0  0  0  0
  -14.4202  -15.3099   34.8236 C   0  0  0  0  0  0  0  0  0  0  0  0
  -16.4878  -14.0367   33.9896 C   0  0  0  0  0  0  0  0  0  0  0  0
  -16.7378  -13.1498   35.1796 C   0  0  0  0  0  0  0  0  0  0  0  0
  -14.9976  -14.3473   33.7740 C   0  0  0  0  0  0  0  0  0  0  0  0
  -12.5704  -16.1847   33.2859 C   0  0  0  0  0  0  0  0  0  0  0  0
  -10.7302  -14.6734   35.4396 N   0  0  0  0  0  0  0  0  0  0  0  0
  -10.2100  -16.0363   35.6802 C   0  0  2  0  0  0  0  0  0  0  0  0
   -9.6520  -16.1662   37.1152 C   0  0  0  0  0  0  0  0  0  0  0  0
   -9.2097  -17.2207   37.5629 O   0  0  0  0  0  0  0  0  0  0  0  0
   -9.1023  -16.3242   34.6420 C   0  0  0  0  0  0  0  0  0  0  0  0
   -7.6909  -16.2238   35.1720 C   0  0  0  0  0  0  0  0  0  0  0  0
   -6.9719  -15.0228   35.0585 C   0  0  0  0  0  0  0  0  0  0  0  0
   -7.0585  -17.3373   35.7460 C   0  0  0  0  0  0  0  0  0  0  0  0
   -5.6589  -14.9369   35.5198 C   0  0  0  0  0  0  0  0  0  0  0  0
   -5.7446  -17.2452   36.2122 C   0  0  0  0  0  0  0  0  0  0  0  0
   -5.0440  -16.0460   36.0984 C   0  0  0  0  0  0  0  0  0  0  0  0
   -9.5101  -14.9683   37.7777 N   0  0  0  0  0  0  0  0  0  0  0  0
   -8.9329  -14.8782   39.1231 C   0  0  2  0  0  0  0  0  0  0  0  0
   -9.9977  -14.4011   40.1290 C   0  0  0  0  0  0  0  0  0  0  0  0
   -9.7467  -13.7768   41.1553 O   0  0  0  0  0  0  0  0  0  0  0  0
   -7.7248  -13.9221   39.1197 C   0  0  0  0  0  0  0  0  0  0  0  0
   -7.1585  -13.7152   40.4945 C   0  0  0  0  0  0  0  0  0  0  0  0
   -7.6102  -12.7964   41.4218 C   0  0  0  0  0  0  0  0  0  0  0  0
   -6.0756  -14.4286   41.1020 C   0  0  0  0  0  0  0  0  0  0  0  0
   -6.8576  -12.9257   42.5572 N   0  0  0  0  0  0  0  0  0  0  0  0
   -5.9246  -13.9246   42.3939 C   0  0  0  0  0  0  0  0  0  0  0  0
   -5.2051  -15.4573   40.6774 C   0  0  0  0  0  0  0  0  0  0  0  0
   -4.9549  -14.3968   43.2833 C   0  0  0  0  0  0  0  0  0  0  0  0
   -4.2303  -15.9425   41.5576 C   0  0  0  0  0  0  0  0  0  0  0  0
   -4.1126  -15.4182   42.8425 C   0  0  0  0  0  0  0  0  0  0  0  0
  -11.2940  -14.6960   39.8113 N   0  0  0  0  0  0  0  0  0  0  0  0
  1  2  2  0
  1  3  1  0
  4  1  1  0
  5  4  1  0
  6  5  1  0
  5  8  1  6
  6  7  2  0
 13  6  1  0
  8  9  1  0
  9 10  1  0
 10 11  1  0
 11 12  1  0
 14 13  1  0
 15 14  1  0
 14 17  1  1
 15 16  2  0
 22 15  1  0
 17 18  1  0
 18 19  1  0
 19 20  1  0
 20 21  1  0
 23 22  1  0
 24 23  1  0
 23 26  1  1
 24 25  2  0
 33 24  1  0
 26 27  1  0
 27 28  1  0
 28 29  1  0
 29 30  1  0
 30 31  2  0
 30 32  1  0
 34 33  1  0
 35 34  1  0
 34 37  1  6
 35 36  2  0
 45 35  1  0
 37 38  1  0
 38 39  2  0
 38 40  1  0
 39 41  1  0
 40 42  2  0
 41 43  2  0
 42 43  1  0
 43 44  1  0
 46 45  1  0
 47 46  1  0
 46 49  1  6
 47 48  2  0
 51 47  1  0
 49 50  1  0
 52 51  1  0
 53 52  1  0
 52 55  1  1
 53 54  2  0
 63 53  1  0
 55 56  1  0
 56 57  1  0
 57 58  1  0
 58 59  1  0
 59 60  2  0
 59 61  1  0
 62 64  2  0
 62 65  1  0
 71 62  1  0
 65 63  1  0
 65 66  1  0
 65 70  1  1
 66 69  1  0
 67 68  1  0
 69 67  1  0
 68102  2  0
 72 71  1  0
 73 72  1  0
 72 75  1  6
 73 74  2  0
 80 73  1  0
 75 76  1  0
 76 77  1  0
 77 78  2  0
 77 79  1  0
 81 80  1  0
 82 81  1  0
 81 84  1  1
 82 83  2  0
 88 82  1  0
 84 85  1  0
 85 86  1  1
 85 87  1  0
 89 88  1  0
 90 89  1  0
 89 92  1  6
 90 91  2  0
 97 90  1  0
 92 93  1  0
 93 94  1  1
 93 95  1  0
 96 98  2  0
 99 96  1  0
 96105  1  0
 97 99  1  0
 99100  1  0
 99104  1  6
100103  1  0
102101  1  0
101103  1  0
105106  1  0
106107  1  0
106109  1  6
107108  2  0
107116  1  0
109110  1  0
110111  2  0
110112  1  0
111113  1  0
112114  2  0
113115  2  0
114115  1  0
116117  1  0
117118  1  0
117120  1  6
118119  2  0
118130  1  0
120121  1  0
121122  2  0
121123  1  0
122124  1  0
123125  2  0
123126  1  0
124125  1  0
125127  1  0
126128  2  0
127129  2  0
128129  1  0
M  CHG  4  12   1  21   1  31   1  60   1
M  END
$$$$
