
     RDKit          3D

130134  0  0  0  0  0  0  0  0999 V2000
  -20.4054  -30.4233   32.7527 C   0  0  0  0  0  0  0  0  0  0  0  0
  -20.8533  -31.3185   33.4599 O   0  0  0  0  0  0  0  0  0  0  0  0
  -19.8173  -30.6902   31.3898 C   0  0  0  0  0  0  0  0  0  0  0  0
  -20.3624  -29.1093   33.1555 N   0  0  0  0  0  0  0  0  0  0  0  0
  -20.1679  -28.0163   32.2005 C   0  0  2  0  0  0  0  0  0  0  0  0
  -18.9142  -27.1937   32.6000 C   0  0  0  0  0  0  0  0  0  0  0  0
  -18.9652  -26.0914   33.1337 O   0  0  0  0  0  0  0  0  0  0  0  0
  -21.4409  -27.1660   32.0201 C   0  0  0  0  0  0  0  0  0  0  0  0
  -21.2514  -26.0879   30.9412 C   0  0  0  0  0  0  0  0  0  0  0  0
  -22.2202  -24.9038   31.0201 C   0  0  0  0  0  0  0  0  0  0  0  0
  -22.0098  -23.8675   29.9275 C   0  0  0  0  0  0  0  0  0  0  0  0
  -23.0363  -22.8039   30.0698 N   0  0  0  0  0  4  0  0  0  0  0  0
  -17.7317  -27.7898   32.1931 N   0  0  0  0  0  0  0  0  0  0  0  0
  -16.7022  -27.1064   31.3874 C   0  0  2  0  0  0  0  0  0  0  0  0
  -17.0405  -25.5960   31.5764 C   0  0  0  0  0  0  0  0  0  0  0  0
  -17.9737  -25.0647   30.9538 O   0  0  0  0  0  0  0  0  0  0  0  0
  -16.6266  -27.6011   29.9249 C   0  0  0  0  0  0  0  0  0  0  0  0
  -15.2679  -27.3695   29.2377 C   0  0  0  0  0  0  0  0  0  0  0  0
  -15.3982  -26.3726   28.0754 C   0  0  0  0  0  0  0  0  0  0  0  0
  -15.7591  -27.0261   26.7414 C   0  0  0  0  0  0  0  0  0  0  0  0
  -15.1391  -26.2929   25.6158 N   0  0  0  0  0  4  0  0  0  0  0  0
  -16.1406  -24.8217   32.2746 N   0  0  0  0  0  0  0  0  0  0  0  0
  -16.3491  -23.3886   32.5173 C   0  0  2  0  0  0  0  0  0  0  0  0
  -15.3892  -22.9214   33.6409 C   0  0  0  0  0  0  0  0  0  0  0  0
  -14.9455  -23.6789   34.4922 O   0  0  0  0  0  0  0  0  0  0  0  0
  -17.8141  -23.0839   32.8580 C   0  0  0  0  0  0  0  0  0  0  0  0
  -18.1055  -21.5892   33.0655 C   0  0  0  0  0  0  0  0  0  0  0  0
  -19.5803  -21.2525   32.8643 C   0  0  0  0  0  0  0  0  0  0  0  0
  -20.1633  -20.6224   34.0568 N   0  0  0  0  0  0  0  0  0  0  0  0
  -21.4004  -20.1190   34.1468 C   0  0  0  0  0  0  0  0  0  0  0  0
  -21.8719  -19.2247   33.2754 N   0  0  0  0  0  4  0  0  0  0  0  0
  -22.1956  -20.5240   35.1436 N   0  0  0  0  0  0  0  0  0  0  0  0
  -15.1852  -21.5472   33.6571 N   0  0  0  0  0  0  0  0  0  0  0  0
  -14.3921  -20.9336   34.7289 C   0  0  2  0  0  0  0  0  0  0  0  0
  -14.5523  -19.4152   34.5337 C   0  0  0  0  0  0  0  0  0  0  0  0
  -14.7020  -18.9306   33.4111 O   0  0  0  0  0  0  0  0  0  0  0  0
  -12.9100  -21.3064   34.6195 C   0  0  0  0  0  0  0  0  0  0  0  0
  -12.7076  -22.7910   34.4269 C   0  0  0  0  0  0  0  0  0  0  0  0
  -12.6782  -23.3594   33.1433 C   0  0  0  0  0  0  0  0  0  0  0  0
  -12.5664  -23.6277   35.5421 C   0  0  0  0  0  0  0  0  0  0  0  0
  -12.5142  -24.7406   32.9812 C   0  0  0  0  0  0  0  0  0  0  0  0
  -12.4018  -25.0008   35.3812 C   0  0  0  0  0  0  0  0  0  0  0  0
  -12.3756  -25.5499   34.1074 C   0  0  0  0  0  0  0  0  0  0  0  0
  -12.1983  -26.8953   34.0062 O   0  0  0  0  0  0  0  0  0  0  0  0
  -14.4934  -18.6721   35.6874 N   0  0  0  0  0  0  0  0  0  0  0  0
  -14.5082  -17.2077   35.6882 C   0  0  2  0  0  0  0  0  0  0  0  0
  -14.8482  -16.6493   37.0826 C   0  0  0  0  0  0  0  0  0  0  0  0
  -15.8640  -16.9691   37.6910 O   0  0  0  0  0  0  0  0  0  0  0  0
  -15.5077  -16.6749   34.6534 C   0  0  0  0  0  0  0  0  0  0  0  0
  -16.3637  -17.7353   34.2266 O   0  0  0  0  0  0  0  0  0  0  0  0
  -13.9099  -15.7638   37.5855 N   0  0  0  0  0  0  0  0  0  0  0  0
  -14.0007  -15.1423   38.9165 C   0  0  2  0  0  0  0  0  0  0  0  0
  -15.2556  -14.2342   38.9304 C   0  0  0  0  0  0  0  0  0  0  0  0
  -15.2969  -13.1340   38.3824 O   0  0  0  0  0  0  0  0  0  0  0  0
  -12.7135  -14.3739   39.2893 C   0  0  0  0  0  0  0  0  0  0  0  0
  -11.5732  -15.2502   39.8268 C   0  0  0  0  0  0  0  0  0  0  0  0
  -12.0438  -16.2229   40.8969 C   0  0  0  0  0  0  0  0  0  0  0  0
  -11.9788  -17.5957   40.4027 N   0  0  0  0  0  0  0  0  0  0  0  0
  -12.3549  -18.6750   41.1111 C   0  0  0  0  0  0  0  0  0  0  0  0
  -11.5296  -19.6929   41.3356 N   0  0  0  0  0  4  0  0  0  0  0  0
  -13.5940  -18.7437   41.5919 N   0  0  0  0  0  0  0  0  0  0  0  0
  -14.7462  -15.8248   41.2147 C   0  0  0  0  0  0  0  0  0  0  0  0
  -16.3235  -14.7376   39.6691 N   0  0  0  0  0  0  0  0  0  0  0  0
  -14.0743  -16.1567   40.2285 O   0  0  0  0  0  0  0  0  0  0  0  0
  -16.1540  -15.1411   41.0933 C   0  0  1  0  0  0  0  0  0  0  0  0
  -17.2599  -16.1725   41.4760 C   0  0  0  0  0  0  0  0  0  0  0  0
  -18.2592  -18.1544   40.1932 C   0  0  0  0  0  0  0  0  0  0  0  0
  -18.3228  -17.5535   38.8187 C   0  0  0  0  0  0  0  0  0  0  0  0
  -17.0643  -17.6129   40.9743 C   0  0  0  0  0  0  0  0  0  0  0  0
  -16.3731  -13.9176   42.0062 C   0  0  0  0  0  0  0  0  0  0  0  0
  -14.3054  -16.2466   42.4358 N   0  0  0  0  0  0  0  0  0  0  0  0
  -13.8598  -15.3219   43.4854 C   0  0  2  0  0  0  0  0  0  0  0  0
  -12.3143  -15.3771   43.5460 C   0  0  0  0  0  0  0  0  0  0  0  0
  -11.7110  -15.9684   44.4429 O   0  0  0  0  0  0  0  0  0  0  0  0
  -14.5433  -15.6423   44.8187 C   0  0  0  0  0  0  0  0  0  0  0  0
  -14.6753  -14.4777   45.8095 C   0  0  0  0  0  0  0  0  0  0  0  0
  -14.0318  -13.2178   45.2679 C   0  0  0  0  0  0  0  0  0  0  0  0
  -12.9230  -13.1735   44.7499 O   0  0  0  0  0  0  0  0  0  0  0  0
  -14.8105  -12.1025   45.3480 N   0  0  0  0  0  0  0  0  0  0  0  0
  -11.5746  -14.8607   42.5154 N   0  0  0  0  0  0  0  0  0  0  0  0
  -11.9595  -13.8287   41.5390 C   0  0  2  0  0  0  0  0  0  0  0  0
  -11.2457  -14.0566   40.1759 C   0  0  0  0  0  0  0  0  0  0  0  0
  -11.0224  -13.1724   39.3446 O   0  0  0  0  0  0  0  0  0  0  0  0
  -11.8530  -12.3986   42.0865 C   0  0  0  0  0  0  0  0  0  0  0  0
  -11.1123  -12.1719   43.4222 C   0  0  1  0  0  0  0  0  0  0  0  0
  -10.3619  -13.4560   43.7982 C   0  0  0  0  0  0  0  0  0  0  0  0
  -10.1126  -11.0181   43.3812 C   0  0  0  0  0  0  0  0  0  0  0  0
  -11.0053  -15.3944   39.9138 N   0  0  0  0  0  0  0  0  0  0  0  0
  -10.1949  -15.8346   38.7890 C   0  0  2  0  0  0  0  0  0  0  0  0
  -11.0326  -16.2965   37.5721 C   0  0  0  0  0  0  0  0  0  0  0  0
  -10.5365  -16.3174   36.4414 O   0  0  0  0  0  0  0  0  0  0  0  0
   -9.2354  -16.9539   39.2146 C   0  0  0  0  0  0  0  0  0  0  0  0
   -8.8995  -16.9472   40.7249 C   0  0  1  0  0  0  0  0  0  0  0  0
   -7.7003  -16.0334   40.9854 C   0  0  0  0  0  0  0  0  0  0  0  0
  -10.0837  -16.5010   41.5851 C   0  0  0  0  0  0  0  0  0  0  0  0
  -13.4954  -16.5451   35.6700 C   0  0  0  0  0  0  0  0  0  0  0  0
  -12.2981  -16.7720   37.8410 N   0  0  0  0  0  0  0  0  0  0  0  0
  -14.5323  -15.8701   35.6417 O   0  0  0  0  0  0  0  0  0  0  0  0
  -13.1519  -17.5090   36.8637 C   0  0  1  0  0  0  0  0  0  0  0  0
  -14.4696  -17.8937   37.5991 C   0  0  0  0  0  0  0  0  0  0  0  0
  -16.7043  -19.1554   37.6748 C   0  0  0  0  0  0  0  0  0  0  0  0
  -17.6531  -17.9889   37.7407 C   0  0  0  0  0  0  0  0  0  0  0  0
  -15.4294  -18.8485   36.8721 C   0  0  0  0  0  0  0  0  0  0  0  0
  -12.3851  -18.7603   36.3928 C   0  0  0  0  0  0  0  0  0  0  0  0
  -12.5991  -16.5149   34.6223 N   0  0  0  0  0  0  0  0  0  0  0  0
  -11.2118  -17.0105   34.7489 C   0  0  2  0  0  0  0  0  0  0  0  0
  -10.2793  -15.9023   35.2871 C   0  0  0  0  0  0  0  0  0  0  0  0
  -10.6931  -14.9371   35.9237 O   0  0  0  0  0  0  0  0  0  0  0  0
  -10.7371  -17.4873   33.3580 C   0  0  0  0  0  0  0  0  0  0  0  0
  -10.4732  -16.3824   32.3617 C   0  0  0  0  0  0  0  0  0  0  0  0
  -11.5407  -15.7190   31.7354 C   0  0  0  0  0  0  0  0  0  0  0  0
   -9.1608  -16.0294   32.0118 C   0  0  0  0  0  0  0  0  0  0  0  0
  -11.2991  -14.7197   30.7934 C   0  0  0  0  0  0  0  0  0  0  0  0
   -8.9231  -15.0236   31.0716 C   0  0  0  0  0  0  0  0  0  0  0  0
   -9.9914  -14.3693   30.4614 C   0  0  0  0  0  0  0  0  0  0  0  0
   -8.9375  -16.1840   35.1667 N   0  0  0  0  0  0  0  0  0  0  0  0
   -8.1983  -16.9370   36.1856 C   0  0  2  0  0  0  0  0  0  0  0  0
   -6.9203  -17.5444   35.5767 C   0  0  0  0  0  0  0  0  0  0  0  0
   -5.8126  -17.0189   35.6318 O   0  0  0  0  0  0  0  0  0  0  0  0
   -9.0917  -18.0416   36.7817 C   0  0  0  0  0  0  0  0  0  0  0  0
   -8.7905  -19.3927   36.2007 C   0  0  0  0  0  0  0  0  0  0  0  0
   -8.0940  -20.4043   36.8330 C   0  0  0  0  0  0  0  0  0  0  0  0
   -9.1755  -19.8877   34.9133 C   0  0  0  0  0  0  0  0  0  0  0  0
   -8.0462  -21.4835   35.9931 N   0  0  0  0  0  0  0  0  0  0  0  0
   -8.7114  -21.2000   34.8218 C   0  0  0  0  0  0  0  0  0  0  0  0
   -9.8753  -19.3455   33.8122 C   0  0  0  0  0  0  0  0  0  0  0  0
   -8.9137  -21.9986   33.6924 C   0  0  0  0  0  0  0  0  0  0  0  0
  -10.0880  -20.1337   32.6747 C   0  0  0  0  0  0  0  0  0  0  0  0
   -9.6143  -21.4424   32.6214 C   0  0  0  0  0  0  0  0  0  0  0  0
   -7.0693  -18.7556   34.9610 N   0  0  0  0  0  0  0  0  0  0  0  0
  1  2  2  0
  1  3  1  0
  4  1  1  0
  5  4  1  0
  6  5  1  0
  5  8  1  1
  6  7  2  0
 13  6  1  0
  8  9  1  0
  9 10  1  0
 10 11  1  0
 11 12  1  0
 14 13  1  0
 15 14  1  0
 14 17  1  6
 15 16  2  0
 22 15  1  0
 17 18  1  0
 18 19  1  0
 19 20  1  0
 20 21  1  0
 23 22  1  0
 24 23  1  0
 23 26  1  1
 24 25  2  0
 33 24  1  0
 26 27  1  0
 27 28  1  0
 28 29  1  0
 29 30  1  0
 30 31  2  0
 30 32  1  0
 34 33  1  0
 35 34  1  0
 34 37  1  6
 35 36  2  0
 45 35  1  0
 37 38  1  0
 38 39  2  0
 38 40  1  0
 39 41  1  0
 40 42  2  0
 41 43  2  0
 42 43  1  0
 43 44  1  0
 46 45  1  0
 47 46  1  0
 46 49  1  6
 47 48  2  0
 51 47  1  0
 49 50  1  0
 52 51  1  0
 53 52  1  0
 52 55  1  6
 53 54  2  0
 63 53  1  0
 55 56  1  0
 56 57  1  0
 57 58  1  0
 58 59  1  0
 59 60  2  0
 59 61  1  0
 62 64  2  0
 62 65  1  0
 71 62  1  0
 65 63  1  0
 65 66  1  0
 65 70  1  1
 66 69  1  0
 67 68  1  0
 69 67  1  0
 68102  2  0
 72 71  1  0
 73 72  1  0
 72 75  1  1
 73 74  2  0
 80 73  1  0
 75 76  1  0
 76 77  1  0
 77 78  2  0
 77 79  1  0
 81 80  1  0
 82 81  1  0
 81 84  1  1
 82 83  2  0
 88 82  1  0
 84 85  1  0
 85 86  1  6
 85 87  1  0
 89 88  1  0
 90 89  1  0
 89 92  1  1
 90 91  2  0
 97 90  1  0
 92 93  1  0
 93 94  1  6
 93 95  1  0
 96 98  2  0
 99 96  1  0
 96105  1  0
 97 99  1  0
 99100  1  0
 99104  1  6
100103  1  0
102101  1  0
101103  1  0
105106  1  0
106107  1  0
106109  1  6
107108  2  0
107116  1  0
109110  1  0
110111  2  0
110112  1  0
111113  1  0
112114  2  0
113115  2  0
114115  1  0
116117  1  0
117118  1  0
117120  1  6
118119  2  0
118130  1  0
120121  1  0
121122  2  0
121123  1  0
122124  1  0
123125  2  0
123126  1  0
124125  1  0
125127  1  0
126128  2  0
127129  2  0
128129  1  0
M  CHG  4  12   1  21   1  31   1  60   1
M  END
$$$$
