
     RDKit          3D

130134  0  0  0  0  0  0  0  0999 V2000
  -11.7034  -30.8131   36.0334 C   0  0  0  0  0  0  0  0  0  0  0  0
  -11.9962  -31.9228   35.6034 O   0  0  0  0  0  0  0  0  0  0  0  0
  -11.0205  -30.6183   37.3640 C   0  0  0  0  0  0  0  0  0  0  0  0
  -12.0079  -29.6521   35.3626 N   0  0  0  0  0  0  0  0  0  0  0  0
  -13.3852  -29.1691   35.2434 C   0  0  2  0  0  0  0  0  0  0  0  0
  -13.3985  -27.8191   34.4785 C   0  0  0  0  0  0  0  0  0  0  0  0
  -13.2665  -27.7240   33.2635 O   0  0  0  0  0  0  0  0  0  0  0  0
  -14.1068  -29.1224   36.6046 C   0  0  0  0  0  0  0  0  0  0  0  0
  -15.5438  -28.5955   36.4640 C   0  0  0  0  0  0  0  0  0  0  0  0
  -16.6372  -29.6684   36.4498 C   0  0  0  0  0  0  0  0  0  0  0  0
  -16.3263  -30.8466   35.5403 C   0  0  0  0  0  0  0  0  0  0  0  0
  -17.4985  -31.7578   35.5167 N   0  0  0  0  0  4  0  0  0  0  0  0
  -13.4687  -26.7252   35.3256 N   0  0  0  0  0  0  0  0  0  0  0  0
  -13.3234  -25.3276   34.8762 C   0  0  2  0  0  0  0  0  0  0  0  0
  -12.7611  -24.6007   36.1359 C   0  0  0  0  0  0  0  0  0  0  0  0
  -13.3976  -24.5784   37.2014 O   0  0  0  0  0  0  0  0  0  0  0  0
  -14.6159  -24.7296   34.2751 C   0  0  0  0  0  0  0  0  0  0  0  0
  -15.0454  -25.3479   32.9316 C   0  0  0  0  0  0  0  0  0  0  0  0
  -14.0853  -24.9408   31.8028 C   0  0  0  0  0  0  0  0  0  0  0  0
  -14.4541  -25.5265   30.4398 C   0  0  0  0  0  0  0  0  0  0  0  0
  -13.5543  -25.0064   29.3868 N   0  0  0  0  0  4  0  0  0  0  0  0
  -11.6546  -23.7976   35.9701 N   0  0  0  0  0  0  0  0  0  0  0  0
  -11.2238  -22.8234   36.9808 C   0  0  2  0  0  0  0  0  0  0  0  0
  -12.3572  -21.7896   37.2017 C   0  0  0  0  0  0  0  0  0  0  0  0
  -13.2290  -21.5732   36.3719 O   0  0  0  0  0  0  0  0  0  0  0  0
   -9.9060  -22.1457   36.5819 C   0  0  0  0  0  0  0  0  0  0  0  0
   -8.6637  -23.0217   36.8085 C   0  0  0  0  0  0  0  0  0  0  0  0
   -7.3963  -22.3886   36.2413 C   0  0  0  0  0  0  0  0  0  0  0  0
   -6.4080  -22.1110   37.2926 N   0  0  0  0  0  0  0  0  0  0  0  0
   -5.1342  -21.7526   37.0902 C   0  0  0  0  0  0  0  0  0  0  0  0
   -4.7174  -21.2182   35.9405 N   0  0  0  0  0  4  0  0  0  0  0  0
   -4.2444  -21.9346   38.0726 N   0  0  0  0  0  0  0  0  0  0  0  0
  -12.2128  -21.0530   38.3708 N   0  0  0  0  0  0  0  0  0  0  0  0
  -13.0354  -19.8581   38.5941 C   0  0  2  0  0  0  0  0  0  0  0  0
  -12.5932  -18.8537   37.5147 C   0  0  0  0  0  0  0  0  0  0  0  0
  -11.4296  -18.8250   37.1112 O   0  0  0  0  0  0  0  0  0  0  0  0
  -12.7905  -19.2544   39.9808 C   0  0  0  0  0  0  0  0  0  0  0  0
  -11.3185  -19.1220   40.2937 C   0  0  0  0  0  0  0  0  0  0  0  0
  -10.6931  -17.8651   40.3261 C   0  0  0  0  0  0  0  0  0  0  0  0
  -10.5497  -20.2680   40.5371 C   0  0  0  0  0  0  0  0  0  0  0  0
   -9.3227  -17.7598   40.5935 C   0  0  0  0  0  0  0  0  0  0  0  0
   -9.1874  -20.1635   40.8047 C   0  0  0  0  0  0  0  0  0  0  0  0
   -8.5815  -18.9157   40.8326 C   0  0  0  0  0  0  0  0  0  0  0  0
   -7.2507  -18.8691   41.1125 O   0  0  0  0  0  0  0  0  0  0  0  0
  -13.5787  -18.0053   37.0724 N   0  0  0  0  0  0  0  0  0  0  0  0
  -13.4665  -17.2410   35.8283 C   0  0  2  0  0  0  0  0  0  0  0  0
  -13.5891  -15.7273   36.0850 C   0  0  0  0  0  0  0  0  0  0  0  0
  -14.4211  -15.2541   36.8518 O   0  0  0  0  0  0  0  0  0  0  0  0
  -14.5318  -17.6883   34.8190 C   0  0  0  0  0  0  0  0  0  0  0  0
  -14.0225  -18.7671   34.0340 O   0  0  0  0  0  0  0  0  0  0  0  0
  -12.6806  -14.9552   35.3809 N   0  0  0  0  0  0  0  0  0  0  0  0
  -12.6045  -13.4884   35.4765 C   0  0  2  0  0  0  0  0  0  0  0  0
  -13.3770  -12.8949   34.2720 C   0  0  0  0  0  0  0  0  0  0  0  0
  -13.4240  -13.4366   33.1690 O   0  0  0  0  0  0  0  0  0  0  0  0
  -11.1460  -12.9845   35.5470 C   0  0  0  0  0  0  0  0  0  0  0  0
  -10.3926  -13.3699   36.8279 C   0  0  0  0  0  0  0  0  0  0  0  0
   -9.1146  -14.1421   36.5394 C   0  0  0  0  0  0  0  0  0  0  0  0
   -8.8153  -15.0608   37.6346 N   0  0  0  0  0  0  0  0  0  0  0  0
   -7.5890  -15.5396   37.9087 C   0  0  0  0  0  0  0  0  0  0  0  0
   -6.9179  -16.2944   37.0440 N   0  0  0  0  0  4  0  0  0  0  0  0
   -7.0282  -15.2696   39.0851 N   0  0  0  0  0  0  0  0  0  0  0  0
  -14.5206  -12.4152   36.7959 C   0  0  0  0  0  0  0  0  0  0  0  0
  -13.9692  -11.6589   34.5193 N   0  0  0  0  0  0  0  0  0  0  0  0
  -14.8017  -13.5214   36.3148 O   0  0  0  0  0  0  0  0  0  0  0  0
  -14.1741  -11.1663   35.9105 C   0  0  1  0  0  0  0  0  0  0  0  0
  -15.3738  -10.1697   35.9370 C   0  0  0  0  0  0  0  0  0  0  0  0
  -17.6488  -10.2095   34.7560 C   0  0  0  0  0  0  0  0  0  0  0  0
  -17.2243  -10.7418   33.4178 C   0  0  0  0  0  0  0  0  0  0  0  0
  -16.7827  -10.7830   35.8749 C   0  0  0  0  0  0  0  0  0  0  0  0
  -12.9375  -10.3621   36.3607 C   0  0  0  0  0  0  0  0  0  0  0  0
  -14.7060  -12.2579   38.1391 N   0  0  0  0  0  0  0  0  0  0  0  0
  -13.6015  -12.0015   39.0715 C   0  0  2  0  0  0  0  0  0  0  0  0
  -13.3146  -13.3115   39.8441 C   0  0  0  0  0  0  0  0  0  0  0  0
  -13.6636  -13.4759   41.0143 O   0  0  0  0  0  0  0  0  0  0  0  0
  -13.9195  -10.8064   39.9762 C   0  0  0  0  0  0  0  0  0  0  0  0
  -12.7568   -9.8473   40.2656 C   0  0  0  0  0  0  0  0  0  0  0  0
  -11.4377  -10.4219   39.7920 C   0  0  0  0  0  0  0  0  0  0  0  0
  -10.3560   -9.8588   39.9046 O   0  0  0  0  0  0  0  0  0  0  0  0
  -11.5217  -11.6729   39.2585 N   0  0  0  0  0  0  0  0  0  0  0  0
  -12.7622  -14.3801   39.1891 N   0  0  0  0  0  0  0  0  0  0  0  0
  -11.9467  -14.3813   37.9638 C   0  0  2  0  0  0  0  0  0  0  0  0
  -12.1575  -15.6932   37.1550 C   0  0  0  0  0  0  0  0  0  0  0  0
  -11.3387  -16.1684   36.3635 O   0  0  0  0  0  0  0  0  0  0  0  0
  -10.4779  -14.0075   38.2063 C   0  0  0  0  0  0  0  0  0  0  0  0
  -10.0511  -12.5343   38.0286 C   0  0  1  0  0  0  0  0  0  0  0  0
   -8.5199  -12.4522   38.0704 C   0  0  0  0  0  0  0  0  0  0  0  0
  -10.5369  -11.9080   36.7232 C   0  0  0  0  0  0  0  0  0  0  0  0
  -13.4317  -16.2141   37.3009 N   0  0  0  0  0  0  0  0  0  0  0  0
  -13.8025  -17.5223   36.7845 C   0  0  2  0  0  0  0  0  0  0  0  0
  -14.5602  -17.4582   35.4363 C   0  0  0  0  0  0  0  0  0  0  0  0
  -14.5926  -18.4402   34.6883 O   0  0  0  0  0  0  0  0  0  0  0  0
  -14.6367  -18.2970   37.8134 C   0  0  0  0  0  0  0  0  0  0  0  0
  -15.0876  -17.4424   39.0218 C   0  0  1  0  0  0  0  0  0  0  0  0
  -15.3537  -16.0050   38.5702 C   0  0  0  0  0  0  0  0  0  0  0  0
  -16.3352  -18.0073   39.7042 C   0  0  0  0  0  0  0  0  0  0  0  0
  -15.5344  -16.2982   32.7067 C   0  0  0  0  0  0  0  0  0  0  0  0
  -15.2669  -16.3024   35.1819 N   0  0  0  0  0  0  0  0  0  0  0  0
  -15.6844  -15.4873   31.7839 O   0  0  0  0  0  0  0  0  0  0  0  0
  -16.2698  -16.1458   34.0879 C   0  0  1  0  0  0  0  0  0  0  0  0
  -16.8504  -14.7047   34.1960 C   0  0  0  0  0  0  0  0  0  0  0  0
  -18.5501  -12.9172   33.4838 C   0  0  0  0  0  0  0  0  0  0  0  0
  -17.6159  -11.9054   32.8765 C   0  0  0  0  0  0  0  0  0  0  0  0
  -18.0614  -14.3649   33.3131 C   0  0  0  0  0  0  0  0  0  0  0  0
  -17.3684  -17.2101   34.2774 C   0  0  0  0  0  0  0  0  0  0  0  0
  -14.7360  -17.4119   32.5512 N   0  0  0  0  0  0  0  0  0  0  0  0
  -15.2312  -18.6662   31.9449 C   0  0  2  0  0  0  0  0  0  0  0  0
  -16.4487  -19.2106   32.7250 C   0  0  0  0  0  0  0  0  0  0  0  0
  -16.7956  -18.7601   33.8134 O   0  0  0  0  0  0  0  0  0  0  0  0
  -14.0802  -19.6972   31.9522 C   0  0  0  0  0  0  0  0  0  0  0  0
  -13.2451  -19.7285   30.6934 C   0  0  0  0  0  0  0  0  0  0  0  0
  -12.2336  -20.6896   30.5342 C   0  0  0  0  0  0  0  0  0  0  0  0
  -13.4344  -18.7741   29.6822 C   0  0  0  0  0  0  0  0  0  0  0  0
  -11.4419  -20.7014   29.3864 C   0  0  0  0  0  0  0  0  0  0  0  0
  -12.6426  -18.7931   28.5311 C   0  0  0  0  0  0  0  0  0  0  0  0
  -11.6458  -19.7555   28.3831 C   0  0  0  0  0  0  0  0  0  0  0  0
  -17.2233  -20.1003   32.0160 N   0  0  0  0  0  0  0  0  0  0  0  0
  -18.4853  -20.6340   32.5394 C   0  0  2  0  0  0  0  0  0  0  0  0
  -18.3169  -22.1149   32.9288 C   0  0  0  0  0  0  0  0  0  0  0  0
  -19.0726  -22.7203   33.6828 O   0  0  0  0  0  0  0  0  0  0  0  0
  -19.6044  -20.4735   31.4927 C   0  0  0  0  0  0  0  0  0  0  0  0
  -20.9158  -21.0246   31.9723 C   0  0  0  0  0  0  0  0  0  0  0  0
  -22.1060  -20.9960   31.2718 C   0  0  0  0  0  0  0  0  0  0  0  0
  -21.1745  -21.6879   33.2148 C   0  0  0  0  0  0  0  0  0  0  0  0
  -23.0649  -21.6136   32.0278 N   0  0  0  0  0  0  0  0  0  0  0  0
  -22.5195  -22.0582   33.2108 C   0  0  0  0  0  0  0  0  0  0  0  0
  -20.3935  -22.0102   34.3472 C   0  0  0  0  0  0  0  0  0  0  0  0
  -23.1221  -22.7362   34.2745 C   0  0  0  0  0  0  0  0  0  0  0  0
  -20.9822  -22.6914   35.4195 C   0  0  0  0  0  0  0  0  0  0  0  0
  -22.3275  -23.0496   35.3778 C   0  0  0  0  0  0  0  0  0  0  0  0
  -17.2563  -22.7647   32.3620 N   0  0  0  0  0  0  0  0  0  0  0  0
  1  2  2  0
  1  3  1  0
  4  1  1  0
  5  4  1  0
  6  5  1  0
  5  8  1  1
  6  7  2  0
 13  6  1  0
  8  9  1  0
  9 10  1  0
 10 11  1  0
 11 12  1  0
 14 13  1  0
 15 14  1  0
 14 17  1  1
 15 16  2  0
 22 15  1  0
 17 18  1  0
 18 19  1  0
 19 20  1  0
 20 21  1  0
 23 22  1  0
 24 23  1  0
 23 26  1  6
 24 25  2  0
 33 24  1  0
 26 27  1  0
 27 28  1  0
 28 29  1  0
 29 30  1  0
 30 31  2  0
 30 32  1  0
 34 33  1  0
 35 34  1  0
 34 37  1  1
 35 36  2  0
 45 35  1  0
 37 38  1  0
 38 39  2  0
 38 40  1  0
 39 41  1  0
 40 42  2  0
 41 43  2  0
 42 43  1  0
 43 44  1  0
 46 45  1  0
 47 46  1  0
 46 49  1  6
 47 48  2  0
 51 47  1  0
 49 50  1  0
 52 51  1  0
 53 52  1  0
 52 55  1  6
 53 54  2  0
 63 53  1  0
 55 56  1  0
 56 57  1  0
 57 58  1  0
 58 59  1  0
 59 60  2  0
 59 61  1  0
 62 64  2  0
 62 65  1  0
 71 62  1  0
 65 63  1  0
 65 66  1  0
 65 70  1  1
 66 69  1  0
 67 68  1  0
 69 67  1  0
 68102  2  0
 72 71  1  0
 73 72  1  0
 72 75  1  1
 73 74  2  0
 80 73  1  0
 75 76  1  0
 76 77  1  0
 77 78  2  0
 77 79  1  0
 81 80  1  0
 82 81  1  0
 81 84  1  1
 82 83  2  0
 88 82  1  0
 84 85  1  0
 85 86  1  6
 85 87  1  0
 89 88  1  0
 90 89  1  0
 89 92  1  1
 90 91  2  0
 97 90  1  0
 92 93  1  0
 93 94  1  6
 93 95  1  0
 96 98  2  0
 99 96  1  0
 96105  1  0
 97 99  1  0
 99100  1  0
 99104  1  1
100103  1  0
102101  1  0
101103  1  0
105106  1  0
106107  1  0
106109  1  1
107108  2  0
107116  1  0
109110  1  0
110111  2  0
110112  1  0
111113  1  0
112114  2  0
113115  2  0
114115  1  0
116117  1  0
117118  1  0
117120  1  6
118119  2  0
118130  1  0
120121  1  0
121122  2  0
121123  1  0
122124  1  0
123125  2  0
123126  1  0
124125  1  0
125127  1  0
126128  2  0
127129  2  0
128129  1  0
M  CHG  4  12   1  21   1  31   1  60   1
M  END
$$$$
