
     RDKit          3D

130134  0  0  0  0  0  0  0  0999 V2000
   -6.6885  -10.1469   38.6539 C   0  0  0  0  0  0  0  0  0  0  0  0
   -7.2440   -9.0708   38.8420 O   0  0  0  0  0  0  0  0  0  0  0  0
   -5.3171  -10.2491   38.0346 C   0  0  0  0  0  0  0  0  0  0  0  0
   -7.2815  -11.3513   38.9513 N   0  0  0  0  0  0  0  0  0  0  0  0
   -8.2848  -11.9547   38.0717 C   0  0  2  0  0  0  0  0  0  0  0  0
   -8.5015  -13.4384   38.4711 C   0  0  0  0  0  0  0  0  0  0  0  0
   -7.7182  -14.3394   38.1932 O   0  0  0  0  0  0  0  0  0  0  0  0
   -7.9507  -11.7521   36.5807 C   0  0  0  0  0  0  0  0  0  0  0  0
   -8.9575  -12.4766   35.6731 C   0  0  0  0  0  0  0  0  0  0  0  0
  -10.2804  -11.7395   35.4416 C   0  0  0  0  0  0  0  0  0  0  0  0
  -10.9505  -12.0855   34.1212 C   0  0  0  0  0  0  0  0  0  0  0  0
  -12.2362  -11.3484   34.0272 N   0  0  0  0  0  4  0  0  0  0  0  0
   -9.7257  -13.6543   39.0825 N   0  0  0  0  0  0  0  0  0  0  0  0
   -9.9879  -14.7537   40.0305 C   0  0  2  0  0  0  0  0  0  0  0  0
   -9.3683  -15.9965   39.3214 C   0  0  0  0  0  0  0  0  0  0  0  0
   -9.0707  -15.9657   38.1167 O   0  0  0  0  0  0  0  0  0  0  0  0
  -11.4733  -14.8828   40.4384 C   0  0  0  0  0  0  0  0  0  0  0  0
  -11.8889  -14.0086   41.6363 C   0  0  0  0  0  0  0  0  0  0  0  0
  -10.8983  -12.8530   41.8484 C   0  0  0  0  0  0  0  0  0  0  0  0
  -11.3712  -11.8158   42.8669 C   0  0  0  0  0  0  0  0  0  0  0  0
  -10.3664  -10.7410   43.0231 N   0  0  0  0  0  4  0  0  0  0  0  0
   -9.3712  -17.1912   40.0066 N   0  0  0  0  0  0  0  0  0  0  0  0
   -8.3239  -18.2059   39.8347 C   0  0  2  0  0  0  0  0  0  0  0  0
   -8.9783  -19.5360   39.3823 C   0  0  0  0  0  0  0  0  0  0  0  0
   -8.4668  -20.2805   38.5578 O   0  0  0  0  0  0  0  0  0  0  0  0
   -7.4995  -18.3851   41.1167 C   0  0  0  0  0  0  0  0  0  0  0  0
   -6.4276  -19.4820   41.0175 C   0  0  0  0  0  0  0  0  0  0  0  0
   -5.0115  -18.9156   41.0708 C   0  0  0  0  0  0  0  0  0  0  0  0
   -5.0050  -17.4513   40.9492 N   0  0  0  0  0  0  0  0  0  0  0  0
   -3.9239  -16.6666   41.0346 C   0  0  0  0  0  0  0  0  0  0  0  0
   -2.6933  -17.1612   41.1845 N   0  0  0  0  0  4  0  0  0  0  0  0
   -4.0777  -15.3393   40.9675 N   0  0  0  0  0  0  0  0  0  0  0  0
  -10.2488  -19.7336   39.9087 N   0  0  0  0  0  0  0  0  0  0  0  0
  -11.3392  -20.1998   39.0439 C   0  0  2  0  0  0  0  0  0  0  0  0
  -11.9077  -18.9290   38.3871 C   0  0  0  0  0  0  0  0  0  0  0  0
  -11.6953  -17.8150   38.8682 O   0  0  0  0  0  0  0  0  0  0  0  0
  -12.4429  -20.8924   39.8497 C   0  0  0  0  0  0  0  0  0  0  0  0
  -11.9136  -22.0475   40.6668 C   0  0  0  0  0  0  0  0  0  0  0  0
  -11.5855  -23.2729   40.0647 C   0  0  0  0  0  0  0  0  0  0  0  0
  -11.7630  -21.9120   42.0534 C   0  0  0  0  0  0  0  0  0  0  0  0
  -11.1190  -24.3427   40.8384 C   0  0  0  0  0  0  0  0  0  0  0  0
  -11.2977  -22.9749   42.8227 C   0  0  0  0  0  0  0  0  0  0  0  0
  -10.9780  -24.1807   42.2154 C   0  0  0  0  0  0  0  0  0  0  0  0
  -10.5147  -25.1824   43.0116 O   0  0  0  0  0  0  0  0  0  0  0  0
  -12.6671  -19.1462   37.2633 N   0  0  0  0  0  0  0  0  0  0  0  0
  -13.3533  -18.0668   36.5501 C   0  0  2  0  0  0  0  0  0  0  0  0
  -14.8705  -18.0938   36.8137 C   0  0  0  0  0  0  0  0  0  0  0  0
  -15.5123  -17.0816   37.0738 O   0  0  0  0  0  0  0  0  0  0  0  0
  -13.0826  -18.1550   35.0426 C   0  0  0  0  0  0  0  0  0  0  0  0
  -13.3867  -19.4712   34.5793 O   0  0  0  0  0  0  0  0  0  0  0  0
  -15.4408  -19.3527   36.7276 N   0  0  0  0  0  0  0  0  0  0  0  0
  -16.8884  -19.6038   36.8139 C   0  0  2  0  0  0  0  0  0  0  0  0
  -17.5097  -18.4934   37.6974 C   0  0  0  0  0  0  0  0  0  0  0  0
  -17.0201  -17.3711   37.8119 O   0  0  0  0  0  0  0  0  0  0  0  0
  -17.2029  -21.0213   37.3414 C   0  0  0  0  0  0  0  0  0  0  0  0
  -18.0822  -21.8729   36.4149 C   0  0  0  0  0  0  0  0  0  0  0  0
  -18.4223  -21.1562   35.1174 C   0  0  0  0  0  0  0  0  0  0  0  0
  -19.8446  -20.8269   35.0741 N   0  0  0  0  0  0  0  0  0  0  0  0
  -20.4653  -20.2859   34.0111 C   0  0  0  0  0  0  0  0  0  0  0  0
  -21.3191  -19.2740   34.1336 N   0  0  0  0  0  4  0  0  0  0  0  0
  -20.2381  -20.7821   32.7972 N   0  0  0  0  0  0  0  0  0  0  0  0
  -18.2718  -21.2998   38.0941 C   0  0  0  0  0  0  0  0  0  0  0  0
  -18.6423  -18.8865   38.4061 N   0  0  0  0  0  0  0  0  0  0  0  0
  -18.1843  -21.0861   36.8772 O   0  0  0  0  0  0  0  0  0  0  0  0
  -18.6886  -20.1911   39.1241 C   0  0  1  0  0  0  0  0  0  0  0  0
  -20.1452  -20.4645   39.6109 C   0  0  0  0  0  0  0  0  0  0  0  0
  -22.4173  -20.0861   38.4856 C   0  0  0  0  0  0  0  0  0  0  0  0
  -22.1486  -18.7665   37.8217 C   0  0  0  0  0  0  0  0  0  0  0  0
  -21.1512  -20.9371   38.5481 C   0  0  0  0  0  0  0  0  0  0  0  0
  -17.8186  -20.1121   40.3951 C   0  0  0  0  0  0  0  0  0  0  0  0
  -18.1758  -22.5983   38.5042 N   0  0  0  0  0  0  0  0  0  0  0  0
  -17.0829  -23.0871   39.3537 C   0  0  2  0  0  0  0  0  0  0  0  0
  -16.1103  -23.8963   38.4623 C   0  0  0  0  0  0  0  0  0  0  0  0
  -16.0690  -25.1276   38.4816 O   0  0  0  0  0  0  0  0  0  0  0  0
  -17.6323  -23.8771   40.5461 C   0  0  0  0  0  0  0  0  0  0  0  0
  -19.1414  -24.1560   40.5367 C   0  0  0  0  0  0  0  0  0  0  0  0
  -19.7427  -23.8886   39.1722 C   0  0  0  0  0  0  0  0  0  0  0  0
  -19.8904  -22.7743   38.6862 O   0  0  0  0  0  0  0  0  0  0  0  0
  -20.0758  -25.0071   38.4690 N   0  0  0  0  0  0  0  0  0  0  0  0
  -15.3459  -23.2490   37.5281 N   0  0  0  0  0  0  0  0  0  0  0  0
  -14.9220  -21.8397   37.5088 C   0  0  2  0  0  0  0  0  0  0  0  0
  -14.7678  -21.3236   36.0496 C   0  0  0  0  0  0  0  0  0  0  0  0
  -14.0434  -20.3838   35.7108 O   0  0  0  0  0  0  0  0  0  0  0  0
  -13.7221  -21.5493   38.4209 C   0  0  0  0  0  0  0  0  0  0  0  0
  -13.0241  -20.1765   38.3094 C   0  0  1  0  0  0  0  0  0  0  0  0
  -14.0178  -19.1594   37.7340 C   0  0  0  0  0  0  0  0  0  0  0  0
  -12.4997  -19.6449   39.6416 C   0  0  0  0  0  0  0  0  0  0  0  0
  -15.6429  -21.9361   35.1690 N   0  0  0  0  0  0  0  0  0  0  0  0
  -15.5607  -21.7450   33.7295 C   0  0  2  0  0  0  0  0  0  0  0  0
  -16.5788  -20.7126   33.1879 C   0  0  0  0  0  0  0  0  0  0  0  0
  -16.3872  -20.1526   32.1041 O   0  0  0  0  0  0  0  0  0  0  0  0
  -15.7321  -23.0800   32.9926 C   0  0  0  0  0  0  0  0  0  0  0  0
  -15.5239  -22.9795   31.4628 C   0  0  1  0  0  0  0  0  0  0  0  0
  -15.8520  -21.5630   30.9866 C   0  0  0  0  0  0  0  0  0  0  0  0
  -14.0999  -23.3478   31.0412 C   0  0  0  0  0  0  0  0  0  0  0  0
  -18.5668  -18.3058   33.2180 C   0  0  0  0  0  0  0  0  0  0  0  0
  -17.7336  -20.5439   33.9215 N   0  0  0  0  0  0  0  0  0  0  0  0
  -19.3610  -17.4894   32.7339 O   0  0  0  0  0  0  0  0  0  0  0  0
  -18.9443  -19.8157   33.4406 C   0  0  1  0  0  0  0  0  0  0  0  0
  -20.0169  -19.9089   34.5658 C   0  0  0  0  0  0  0  0  0  0  0  0
  -22.4140  -19.5422   35.4088 C   0  0  0  0  0  0  0  0  0  0  0  0
  -22.1497  -18.5392   36.4993 C   0  0  0  0  0  0  0  0  0  0  0  0
  -21.4347  -19.4205   34.2299 C   0  0  0  0  0  0  0  0  0  0  0  0
  -19.4326  -20.4861   32.1415 C   0  0  0  0  0  0  0  0  0  0  0  0
  -17.2813  -17.9344   33.5520 N   0  0  0  0  0  0  0  0  0  0  0  0
  -16.3270  -18.8637   34.1937 C   0  0  2  0  0  0  0  0  0  0  0  0
  -15.0416  -18.1215   34.6232 C   0  0  0  0  0  0  0  0  0  0  0  0
  -13.9588  -18.2941   34.0703 O   0  0  0  0  0  0  0  0  0  0  0  0
  -15.9912  -19.9872   33.1875 C   0  0  0  0  0  0  0  0  0  0  0  0
  -14.5342  -20.3844   33.1391 C   0  0  0  0  0  0  0  0  0  0  0  0
  -13.5276  -19.4190   33.3034 C   0  0  0  0  0  0  0  0  0  0  0  0
  -14.1601  -21.7131   32.8862 C   0  0  0  0  0  0  0  0  0  0  0  0
  -12.1824  -19.7785   33.2292 C   0  0  0  0  0  0  0  0  0  0  0  0
  -12.8110  -22.0700   32.8183 C   0  0  0  0  0  0  0  0  0  0  0  0
  -11.8219  -21.1033   32.9885 C   0  0  0  0  0  0  0  0  0  0  0  0
  -15.2487  -17.1143   35.5379 N   0  0  0  0  0  0  0  0  0  0  0  0
  -14.5214  -17.0466   36.8099 C   0  0  2  0  0  0  0  0  0  0  0  0
  -14.2861  -15.5781   37.2118 C   0  0  0  0  0  0  0  0  0  0  0  0
  -14.0632  -15.2040   38.3591 O   0  0  0  0  0  0  0  0  0  0  0  0
  -13.1811  -17.7978   36.6959 C   0  0  0  0  0  0  0  0  0  0  0  0
  -12.3366  -17.2871   35.5647 C   0  0  0  0  0  0  0  0  0  0  0  0
  -11.1752  -16.5507   35.6952 C   0  0  0  0  0  0  0  0  0  0  0  0
  -12.5592  -17.4771   34.1629 C   0  0  0  0  0  0  0  0  0  0  0  0
  -10.6859  -16.2939   34.4434 N   0  0  0  0  0  0  0  0  0  0  0  0
  -11.5029  -16.8608   33.4917 C   0  0  0  0  0  0  0  0  0  0  0  0
  -13.5601  -18.1147   33.3962 C   0  0  0  0  0  0  0  0  0  0  0  0
  -11.3921  -16.8526   32.0982 C   0  0  0  0  0  0  0  0  0  0  0  0
  -13.4618  -18.1171   31.9995 C   0  0  0  0  0  0  0  0  0  0  0  0
  -12.3895  -17.4957   31.3641 C   0  0  0  0  0  0  0  0  0  0  0  0
  -14.3175  -14.6677   36.1927 N   0  0  0  0  0  0  0  0  0  0  0  0
  1  2  2  0
  1  3  1  0
  4  1  1  0
  5  4  1  0
  6  5  1  0
  5  8  1  6
  6  7  2  0
 13  6  1  0
  8  9  1  0
  9 10  1  0
 10 11  1  0
 11 12  1  0
 14 13  1  0
 15 14  1  0
 14 17  1  6
 15 16  2  0
 22 15  1  0
 17 18  1  0
 18 19  1  0
 19 20  1  0
 20 21  1  0
 23 22  1  0
 24 23  1  0
 23 26  1  1
 24 25  2  0
 33 24  1  0
 26 27  1  0
 27 28  1  0
 28 29  1  0
 29 30  1  0
 30 31  2  0
 30 32  1  0
 34 33  1  0
 35 34  1  0
 34 37  1  1
 35 36  2  0
 45 35  1  0
 37 38  1  0
 38 39  2  0
 38 40  1  0
 39 41  1  0
 40 42  2  0
 41 43  2  0
 42 43  1  0
 43 44  1  0
 46 45  1  0
 47 46  1  0
 46 49  1  6
 47 48  2  0
 51 47  1  0
 49 50  1  0
 52 51  1  0
 53 52  1  0
 52 55  1  1
 53 54  2  0
 63 53  1  0
 55 56  1  0
 56 57  1  0
 57 58  1  0
 58 59  1  0
 59 60  2  0
 59 61  1  0
 62 64  2  0
 62 65  1  0
 71 62  1  0
 65 63  1  0
 65 66  1  0
 65 70  1  1
 66 69  1  0
 67 68  1  0
 69 67  1  0
 68102  2  0
 72 71  1  0
 73 72  1  0
 72 75  1  1
 73 74  2  0
 80 73  1  0
 75 76  1  0
 76 77  1  0
 77 78  2  0
 77 79  1  0
 81 80  1  0
 82 81  1  0
 81 84  1  6
 82 83  2  0
 88 82  1  0
 84 85  1  0
 85 86  1  1
 85 87  1  0
 89 88  1  0
 90 89  1  0
 89 92  1  6
 90 91  2  0
 97 90  1  0
 92 93  1  0
 93 94  1  1
 93 95  1  0
 96 98  2  0
 99 96  1  0
 96105  1  0
 97 99  1  0
 99100  1  0
 99104  1  6
100103  1  0
102101  1  0
101103  1  0
105106  1  0
106107  1  0
106109  1  6
107108  2  0
107116  1  0
109110  1  0
110111  2  0
110112  1  0
111113  1  0
112114  2  0
113115  2  0
114115  1  0
116117  1  0
117118  1  0
117120  1  6
118119  2  0
118130  1  0
120121  1  0
121122  2  0
121123  1  0
122124  1  0
123125  2  0
123126  1  0
124125  1  0
125127  1  0
126128  2  0
127129  2  0
128129  1  0
M  CHG  4  12   1  21   1  31   1  60   1
M  END
$$$$
