
     RDKit          3D

130134  0  0  0  0  0  0  0  0999 V2000
  -20.7729  -28.8655   29.2287 C   0  0  0  0  0  0  0  0  0  0  0  0
  -20.4327  -28.8709   28.0513 O   0  0  0  0  0  0  0  0  0  0  0  0
  -20.6422  -30.0814   30.1115 C   0  0  0  0  0  0  0  0  0  0  0  0
  -21.3393  -27.7682   29.8335 N   0  0  0  0  0  0  0  0  0  0  0  0
  -20.6820  -26.4596   29.8275 C   0  0  2  0  0  0  0  0  0  0  0  0
  -20.6420  -25.8912   31.2708 C   0  0  0  0  0  0  0  0  0  0  0  0
  -21.5662  -25.9959   32.0693 O   0  0  0  0  0  0  0  0  0  0  0  0
  -21.3045  -25.4989   28.7953 C   0  0  0  0  0  0  0  0  0  0  0  0
  -22.7775  -25.2011   29.1179 C   0  0  0  0  0  0  0  0  0  0  0  0
  -23.0256  -23.9299   29.9360 C   0  0  0  0  0  0  0  0  0  0  0  0
  -24.4940  -23.6717   30.2349 C   0  0  0  0  0  0  0  0  0  0  0  0
  -24.6073  -22.4434   31.0617 N   0  0  0  0  0  4  0  0  0  0  0  0
  -19.4930  -25.1605   31.5262 N   0  0  0  0  0  0  0  0  0  0  0  0
  -19.1190  -24.6580   32.8618 C   0  0  2  0  0  0  0  0  0  0  0  0
  -19.1378  -23.1092   32.6822 C   0  0  0  0  0  0  0  0  0  0  0  0
  -18.7192  -22.5789   31.6409 O   0  0  0  0  0  0  0  0  0  0  0  0
  -17.8016  -25.2564   33.4055 C   0  0  0  0  0  0  0  0  0  0  0  0
  -16.5251  -24.7132   32.7367 C   0  0  0  0  0  0  0  0  0  0  0  0
  -15.4516  -25.8070   32.6226 C   0  0  0  0  0  0  0  0  0  0  0  0
  -14.0217  -25.2821   32.7517 C   0  0  0  0  0  0  0  0  0  0  0  0
  -13.0483  -26.3012   32.3012 N   0  0  0  0  0  4  0  0  0  0  0  0
  -19.4173  -22.3403   33.7901 N   0  0  0  0  0  0  0  0  0  0  0  0
  -19.4286  -20.8724   33.7538 C   0  0  2  0  0  0  0  0  0  0  0  0
  -18.0397  -20.3453   34.1958 C   0  0  0  0  0  0  0  0  0  0  0  0
  -17.5645  -20.5719   35.2996 O   0  0  0  0  0  0  0  0  0  0  0  0
  -20.5570  -20.2977   34.6206 C   0  0  0  0  0  0  0  0  0  0  0  0
  -20.9054  -18.8361   34.2975 C   0  0  0  0  0  0  0  0  0  0  0  0
  -22.4112  -18.6051   34.2068 C   0  0  0  0  0  0  0  0  0  0  0  0
  -23.1407  -19.8564   33.9601 N   0  0  0  0  0  0  0  0  0  0  0  0
  -24.4715  -19.9818   33.8878 C   0  0  0  0  0  0  0  0  0  0  0  0
  -25.0673  -21.1590   33.6863 N   0  0  0  0  0  4  0  0  0  0  0  0
  -25.2349  -18.8914   34.0220 N   0  0  0  0  0  0  0  0  0  0  0  0
  -17.4507  -19.4952   33.2681 N   0  0  0  0  0  0  0  0  0  0  0  0
  -16.2907  -18.6806   33.6490 C   0  0  2  0  0  0  0  0  0  0  0  0
  -16.7640  -17.8348   34.8448 C   0  0  0  0  0  0  0  0  0  0  0  0
  -17.7945  -18.1194   35.4569 O   0  0  0  0  0  0  0  0  0  0  0  0
  -15.8539  -17.7522   32.5112 C   0  0  0  0  0  0  0  0  0  0  0  0
  -14.8497  -18.4083   31.5929 C   0  0  0  0  0  0  0  0  0  0  0  0
  -13.4753  -18.3773   31.8790 C   0  0  0  0  0  0  0  0  0  0  0  0
  -15.2840  -19.0437   30.4219 C   0  0  0  0  0  0  0  0  0  0  0  0
  -12.5540  -18.9686   31.0059 C   0  0  0  0  0  0  0  0  0  0  0  0
  -14.3684  -19.6332   29.5544 C   0  0  0  0  0  0  0  0  0  0  0  0
  -13.0131  -19.5945   29.8483 C   0  0  0  0  0  0  0  0  0  0  0  0
  -12.1626  -20.1979   28.9740 O   0  0  0  0  0  0  0  0  0  0  0  0
  -15.9686  -16.7555   35.1436 N   0  0  0  0  0  0  0  0  0  0  0  0
  -15.9291  -16.1447   36.4740 C   0  0  2  0  0  0  0  0  0  0  0  0
  -15.0212  -14.9009   36.4952 C   0  0  0  0  0  0  0  0  0  0  0  0
  -15.1105  -14.0343   37.3586 O   0  0  0  0  0  0  0  0  0  0  0  0
  -15.4522  -17.1584   37.5222 C   0  0  0  0  0  0  0  0  0  0  0  0
  -15.1953  -16.4850   38.7551 O   0  0  0  0  0  0  0  0  0  0  0  0
  -14.0999  -14.8509   35.4627 N   0  0  0  0  0  0  0  0  0  0  0  0
  -12.7874  -14.1933   35.5670 C   0  0  2  0  0  0  0  0  0  0  0  0
  -11.8576  -14.8199   34.4980 C   0  0  0  0  0  0  0  0  0  0  0  0
  -11.9999  -15.9635   34.0687 O   0  0  0  0  0  0  0  0  0  0  0  0
  -12.1979  -14.2925   36.9914 C   0  0  0  0  0  0  0  0  0  0  0  0
  -10.8121  -14.9482   37.0707 C   0  0  0  0  0  0  0  0  0  0  0  0
  -10.2488  -14.9453   38.4834 C   0  0  0  0  0  0  0  0  0  0  0  0
   -9.5772  -16.2107   38.7674 N   0  0  0  0  0  0  0  0  0  0  0  0
   -9.2471  -16.6336   40.0005 C   0  0  0  0  0  0  0  0  0  0  0  0
   -9.3801  -15.8562   41.0709 N   0  0  0  0  0  4  0  0  0  0  0  0
   -8.7555  -17.8597   40.1628 N   0  0  0  0  0  0  0  0  0  0  0  0
  -10.5873  -12.4622   36.0090 C   0  0  0  0  0  0  0  0  0  0  0  0
  -10.8022  -14.0026   34.1012 N   0  0  0  0  0  0  0  0  0  0  0  0
  -10.7066  -13.4411   36.7585 O   0  0  0  0  0  0  0  0  0  0  0  0
  -10.7730  -12.5551   34.4532 C   0  0  1  0  0  0  0  0  0  0  0  0
  -12.1310  -11.8971   34.0582 C   0  0  0  0  0  0  0  0  0  0  0  0
  -14.5487  -12.7246   34.2626 C   0  0  0  0  0  0  0  0  0  0  0  0
  -14.3492  -14.1668   33.8961 C   0  0  0  0  0  0  0  0  0  0  0  0
  -13.3258  -12.1680   34.9877 C   0  0  0  0  0  0  0  0  0  0  0  0
   -9.6908  -11.8422   33.6168 C   0  0  0  0  0  0  0  0  0  0  0  0
  -10.4720  -11.2378   36.6016 N   0  0  0  0  0  0  0  0  0  0  0  0
   -9.2669  -10.4073   36.4871 C   0  0  2  0  0  0  0  0  0  0  0  0
   -8.4986  -10.4928   37.8278 C   0  0  0  0  0  0  0  0  0  0  0  0
   -8.5029   -9.5743   38.6492 O   0  0  0  0  0  0  0  0  0  0  0  0
   -9.6290   -8.9777   36.0713 C   0  0  0  0  0  0  0  0  0  0  0  0
   -9.8154   -7.9672   37.2112 C   0  0  0  0  0  0  0  0  0  0  0  0
   -9.8682   -8.6591   38.5578 C   0  0  0  0  0  0  0  0  0  0  0  0
   -8.8842   -8.9550   39.2240 O   0  0  0  0  0  0  0  0  0  0  0  0
  -11.1257   -8.8964   39.0257 N   0  0  0  0  0  0  0  0  0  0  0  0
   -7.8853  -11.6638   38.1866 N   0  0  0  0  0  0  0  0  0  0  0  0
   -7.4163  -12.7555   37.3179 C   0  0  2  0  0  0  0  0  0  0  0  0
   -7.5005  -14.1256   38.0494 C   0  0  0  0  0  0  0  0  0  0  0  0
   -6.8105  -15.1110   37.7747 O   0  0  0  0  0  0  0  0  0  0  0  0
   -6.0643  -12.4681   36.6503 C   0  0  0  0  0  0  0  0  0  0  0  0
   -5.9453  -11.2413   35.7202 C   0  0  1  0  0  0  0  0  0  0  0  0
   -6.1855   -9.9691   36.5430 C   0  0  0  0  0  0  0  0  0  0  0  0
   -4.5886  -11.1251   35.0286 C   0  0  0  0  0  0  0  0  0  0  0  0
   -8.5400  -14.1832   38.9618 N   0  0  0  0  0  0  0  0  0  0  0  0
   -8.7044  -15.2937   39.8865 C   0  0  2  0  0  0  0  0  0  0  0  0
   -9.7605  -16.3266   39.4243 C   0  0  0  0  0  0  0  0  0  0  0  0
   -9.7403  -17.4817   39.8607 O   0  0  0  0  0  0  0  0  0  0  0  0
   -9.0550  -14.7849   41.2912 C   0  0  0  0  0  0  0  0  0  0  0  0
   -9.6694  -13.3650   41.3051 C   0  0  1  0  0  0  0  0  0  0  0  0
   -9.1332  -12.5562   40.1222 C   0  0  0  0  0  0  0  0  0  0  0  0
  -11.1987  -13.3894   41.2616 C   0  0  0  0  0  0  0  0  0  0  0  0
  -11.6162  -17.9053   37.4724 C   0  0  0  0  0  0  0  0  0  0  0  0
  -10.7609  -15.8572   38.6005 N   0  0  0  0  0  0  0  0  0  0  0  0
  -12.0098  -18.1175   36.3184 O   0  0  0  0  0  0  0  0  0  0  0  0
  -12.0077  -16.6076   38.2691 C   0  0  1  0  0  0  0  0  0  0  0  0
  -12.8689  -15.6905   37.3512 C   0  0  0  0  0  0  0  0  0  0  0  0
  -15.0645  -15.1826   36.1211 C   0  0  0  0  0  0  0  0  0  0  0  0
  -14.5735  -15.2183   34.6988 C   0  0  0  0  0  0  0  0  0  0  0  0
  -14.3033  -16.1484   37.0440 C   0  0  0  0  0  0  0  0  0  0  0  0
  -12.7426  -16.9369   39.5832 C   0  0  0  0  0  0  0  0  0  0  0  0
  -10.8383  -18.8286   38.1390 N   0  0  0  0  0  0  0  0  0  0  0  0
   -9.3993  -18.6135   38.4016 C   0  0  2  0  0  0  0  0  0  0  0  0
   -8.8623  -19.6564   39.4074 C   0  0  0  0  0  0  0  0  0  0  0  0
   -7.6730  -19.7463   39.6995 O   0  0  0  0  0  0  0  0  0  0  0  0
   -9.2148  -17.1833   38.9566 C   0  0  0  0  0  0  0  0  0  0  0  0
   -7.7845  -16.6985   39.0052 C   0  0  0  0  0  0  0  0  0  0  0  0
   -7.4721  -15.3693   38.6767 C   0  0  0  0  0  0  0  0  0  0  0  0
   -6.7400  -17.5753   39.3357 C   0  0  0  0  0  0  0  0  0  0  0  0
   -6.1495  -14.9279   38.6918 C   0  0  0  0  0  0  0  0  0  0  0  0
   -5.4166  -17.1274   39.3551 C   0  0  0  0  0  0  0  0  0  0  0  0
   -5.1207  -15.8046   39.0324 C   0  0  0  0  0  0  0  0  0  0  0  0
   -9.8419  -20.3392   40.0916 N   0  0  0  0  0  0  0  0  0  0  0  0
   -9.5369  -21.2473   41.2024 C   0  0  2  0  0  0  0  0  0  0  0  0
   -8.8271  -22.5102   40.6787 C   0  0  0  0  0  0  0  0  0  0  0  0
   -9.3856  -23.5860   40.4863 O   0  0  0  0  0  0  0  0  0  0  0  0
  -10.8298  -21.6240   41.9506 C   0  0  0  0  0  0  0  0  0  0  0  0
  -11.8949  -22.1360   41.0247 C   0  0  0  0  0  0  0  0  0  0  0  0
  -13.0838  -21.4962   40.7327 C   0  0  0  0  0  0  0  0  0  0  0  0
  -11.8744  -23.3519   40.2686 C   0  0  0  0  0  0  0  0  0  0  0  0
  -13.7757  -22.2632   39.8352 N   0  0  0  0  0  0  0  0  0  0  0  0
  -13.0534  -23.3929   39.5241 C   0  0  0  0  0  0  0  0  0  0  0  0
  -10.9653  -24.4263   40.1447 C   0  0  0  0  0  0  0  0  0  0  0  0
  -13.3684  -24.4462   38.6607 C   0  0  0  0  0  0  0  0  0  0  0  0
  -11.2656  -25.4875   39.2821 C   0  0  0  0  0  0  0  0  0  0  0  0
  -12.4506  -25.4915   38.5503 C   0  0  0  0  0  0  0  0  0  0  0  0
   -7.4945  -22.3766   40.4056 N   0  0  0  0  0  0  0  0  0  0  0  0
  1  2  2  0
  1  3  1  0
  4  1  1  0
  5  4  1  0
  6  5  1  0
  5  8  1  6
  6  7  2  0
 13  6  1  0
  8  9  1  0
  9 10  1  0
 10 11  1  0
 11 12  1  0
 14 13  1  0
 15 14  1  0
 14 17  1  6
 15 16  2  0
 22 15  1  0
 17 18  1  0
 18 19  1  0
 19 20  1  0
 20 21  1  0
 23 22  1  0
 24 23  1  0
 23 26  1  1
 24 25  2  0
 33 24  1  0
 26 27  1  0
 27 28  1  0
 28 29  1  0
 29 30  1  0
 30 31  2  0
 30 32  1  0
 34 33  1  0
 35 34  1  0
 34 37  1  6
 35 36  2  0
 45 35  1  0
 37 38  1  0
 38 39  2  0
 38 40  1  0
 39 41  1  0
 40 42  2  0
 41 43  2  0
 42 43  1  0
 43 44  1  0
 46 45  1  0
 47 46  1  0
 46 49  1  1
 47 48  2  0
 51 47  1  0
 49 50  1  0
 52 51  1  0
 53 52  1  0
 52 55  1  1
 53 54  2  0
 63 53  1  0
 55 56  1  0
 56 57  1  0
 57 58  1  0
 58 59  1  0
 59 60  2  0
 59 61  1  0
 62 64  2  0
 62 65  1  0
 71 62  1  0
 65 63  1  0
 65 66  1  0
 65 70  1  6
 66 69  1  0
 67 68  1  0
 69 67  1  0
 68102  2  0
 72 71  1  0
 73 72  1  0
 72 75  1  1
 73 74  2  0
 80 73  1  0
 75 76  1  0
 76 77  1  0
 77 78  2  0
 77 79  1  0
 81 80  1  0
 82 81  1  0
 81 84  1  1
 82 83  2  0
 88 82  1  0
 84 85  1  0
 85 86  1  1
 85 87  1  0
 89 88  1  0
 90 89  1  0
 89 92  1  1
 90 91  2  0
 97 90  1  0
 92 93  1  0
 93 94  1  6
 93 95  1  0
 96 98  2  0
 99 96  1  0
 96105  1  0
 97 99  1  0
 99100  1  0
 99104  1  1
100103  1  0
102101  1  0
101103  1  0
105106  1  0
106107  1  0
106109  1  1
107108  2  0
107116  1  0
109110  1  0
110111  2  0
110112  1  0
111113  1  0
112114  2  0
113115  2  0
114115  1  0
116117  1  0
117118  1  0
117120  1  6
118119  2  0
118130  1  0
120121  1  0
121122  2  0
121123  1  0
122124  1  0
123125  2  0
123126  1  0
124125  1  0
125127  1  0
126128  2  0
127129  2  0
128129  1  0
M  CHG  4  12   1  21   1  31   1  60   1
M  END
$$$$
