
     RDKit          3D

130134  0  0  0  0  0  0  0  0999 V2000
  -27.0811  -24.3018   30.7098 C   0  0  0  0  0  0  0  0  0  0  0  0
  -27.6868  -23.3235   30.2879 O   0  0  0  0  0  0  0  0  0  0  0  0
  -26.8646  -25.5385   29.8742 C   0  0  0  0  0  0  0  0  0  0  0  0
  -26.5843  -24.3729   31.9900 N   0  0  0  0  0  0  0  0  0  0  0  0
  -25.9233  -23.2308   32.6250 C   0  0  2  0  0  0  0  0  0  0  0  0
  -24.6735  -22.8277   31.7983 C   0  0  0  0  0  0  0  0  0  0  0  0
  -23.8102  -23.6205   31.4394 O   0  0  0  0  0  0  0  0  0  0  0  0
  -25.6302  -23.4823   34.1172 C   0  0  0  0  0  0  0  0  0  0  0  0
  -25.1906  -22.1941   34.8311 C   0  0  0  0  0  0  0  0  0  0  0  0
  -26.3293  -21.3163   35.3601 C   0  0  0  0  0  0  0  0  0  0  0  0
  -26.1363  -19.8332   35.0859 C   0  0  0  0  0  0  0  0  0  0  0  0
  -25.5487  -19.6673   33.7322 N   0  0  0  0  0  4  0  0  0  0  0  0
  -24.5822  -21.4596   31.5998 N   0  0  0  0  0  0  0  0  0  0  0  0
  -23.4479  -20.8016   30.9241 C   0  0  2  0  0  0  0  0  0  0  0  0
  -22.2395  -21.1190   31.8571 C   0  0  0  0  0  0  0  0  0  0  0  0
  -22.4105  -21.6121   32.9833 O   0  0  0  0  0  0  0  0  0  0  0  0
  -23.6879  -19.3053   30.6195 C   0  0  0  0  0  0  0  0  0  0  0  0
  -24.4583  -19.0310   29.3144 C   0  0  0  0  0  0  0  0  0  0  0  0
  -24.2728  -20.1795   28.3103 C   0  0  0  0  0  0  0  0  0  0  0  0
  -24.8094  -19.8683   26.9131 C   0  0  0  0  0  0  0  0  0  0  0  0
  -25.2658  -21.1051   26.2413 N   0  0  0  0  0  4  0  0  0  0  0  0
  -21.0043  -20.6311   31.4920 N   0  0  0  0  0  0  0  0  0  0  0  0
  -19.9606  -20.3032   32.4715 C   0  0  2  0  0  0  0  0  0  0  0  0
  -19.3106  -18.9508   32.0838 C   0  0  0  0  0  0  0  0  0  0  0  0
  -19.5757  -18.3603   31.0461 O   0  0  0  0  0  0  0  0  0  0  0  0
  -18.9186  -21.4248   32.5786 C   0  0  0  0  0  0  0  0  0  0  0  0
  -19.5184  -22.7998   32.9126 C   0  0  0  0  0  0  0  0  0  0  0  0
  -20.2468  -22.8047   34.2536 C   0  0  0  0  0  0  0  0  0  0  0  0
  -19.4712  -23.4957   35.2928 N   0  0  0  0  0  0  0  0  0  0  0  0
  -19.9806  -24.1033   36.3714 C   0  0  0  0  0  0  0  0  0  0  0  0
  -20.6882  -25.2317   36.2870 N   0  0  0  0  0  4  0  0  0  0  0  0
  -19.7753  -23.5638   37.5784 N   0  0  0  0  0  0  0  0  0  0  0  0
  -18.3158  -18.5436   32.9640 N   0  0  0  0  0  0  0  0  0  0  0  0
  -18.2799  -17.1568   33.4435 C   0  0  2  0  0  0  0  0  0  0  0  0
  -17.1612  -17.1217   34.5002 C   0  0  0  0  0  0  0  0  0  0  0  0
  -17.1193  -16.2333   35.3526 O   0  0  0  0  0  0  0  0  0  0  0  0
  -19.6060  -16.7492   34.0937 C   0  0  0  0  0  0  0  0  0  0  0  0
  -20.0113  -15.3404   33.7286 C   0  0  0  0  0  0  0  0  0  0  0  0
  -21.0448  -15.0972   32.8097 C   0  0  0  0  0  0  0  0  0  0  0  0
  -19.3373  -14.2501   34.2948 C   0  0  0  0  0  0  0  0  0  0  0  0
  -21.3932  -13.7861   32.4624 C   0  0  0  0  0  0  0  0  0  0  0  0
  -19.6845  -12.9465   33.9510 C   0  0  0  0  0  0  0  0  0  0  0  0
  -20.7069  -12.7199   33.0409 C   0  0  0  0  0  0  0  0  0  0  0  0
  -21.0151  -11.4267   32.7505 O   0  0  0  0  0  0  0  0  0  0  0  0
  -16.2318  -18.1276   34.3955 N   0  0  0  0  0  0  0  0  0  0  0  0
  -15.0731  -18.2314   35.2851 C   0  0  2  0  0  0  0  0  0  0  0  0
  -15.0855  -17.1250   36.3564 C   0  0  0  0  0  0  0  0  0  0  0  0
  -16.1248  -16.6739   36.8261 O   0  0  0  0  0  0  0  0  0  0  0  0
  -13.7666  -18.1687   34.4835 C   0  0  0  0  0  0  0  0  0  0  0  0
  -12.9958  -17.0463   34.9141 O   0  0  0  0  0  0  0  0  0  0  0  0
  -13.8281  -16.6913   36.7413 N   0  0  0  0  0  0  0  0  0  0  0  0
  -12.8375  -17.5459   37.4155 C   0  0  2  0  0  0  0  0  0  0  0  0
  -13.5404  -18.2298   38.6147 C   0  0  0  0  0  0  0  0  0  0  0  0
  -13.2419  -19.3519   39.0198 O   0  0  0  0  0  0  0  0  0  0  0  0
  -11.5807  -16.7555   37.8420 C   0  0  0  0  0  0  0  0  0  0  0  0
  -11.2719  -15.5230   36.9803 C   0  0  0  0  0  0  0  0  0  0  0  0
  -10.0103  -14.8023   37.4295 C   0  0  0  0  0  0  0  0  0  0  0  0
   -8.8522  -15.2884   36.6842 N   0  0  0  0  0  0  0  0  0  0  0  0
   -7.6371  -14.7131   36.7118 C   0  0  0  0  0  0  0  0  0  0  0  0
   -6.5368  -15.3738   36.3641 N   0  0  0  0  0  4  0  0  0  0  0  0
   -7.5193  -13.4499   37.1139 N   0  0  0  0  0  0  0  0  0  0  0  0
  -13.9121  -15.7459   37.5699 C   0  0  0  0  0  0  0  0  0  0  0  0
  -14.5868  -17.4943   39.1658 N   0  0  0  0  0  0  0  0  0  0  0  0
  -12.7775  -16.2427   37.5702 O   0  0  0  0  0  0  0  0  0  0  0  0
  -15.0497  -16.2237   38.5403 C   0  0  1  0  0  0  0  0  0  0  0  0
  -15.2644  -15.1473   39.6487 C   0  0  0  0  0  0  0  0  0  0  0  0
  -13.9060  -14.5631   41.7428 C   0  0  0  0  0  0  0  0  0  0  0  0
  -13.5307  -15.9467   42.1890 C   0  0  0  0  0  0  0  0  0  0  0  0
  -14.0007  -14.4838   40.2210 C   0  0  0  0  0  0  0  0  0  0  0  0
  -16.4272  -16.4439   37.8826 C   0  0  0  0  0  0  0  0  0  0  0  0
  -14.0969  -14.6222   36.8172 N   0  0  0  0  0  0  0  0  0  0  0  0
  -14.9964  -14.5785   35.6579 C   0  0  2  0  0  0  0  0  0  0  0  0
  -14.1271  -14.6003   34.3776 C   0  0  0  0  0  0  0  0  0  0  0  0
  -13.9353  -13.5930   33.6944 O   0  0  0  0  0  0  0  0  0  0  0  0
  -15.9388  -13.3735   35.7456 C   0  0  0  0  0  0  0  0  0  0  0  0
  -15.7550  -12.2901   34.6741 C   0  0  0  0  0  0  0  0  0  0  0  0
  -14.4198  -12.4302   33.9723 C   0  0  0  0  0  0  0  0  0  0  0  0
  -14.2645  -12.3678   32.7592 O   0  0  0  0  0  0  0  0  0  0  0  0
  -13.3532  -12.5848   34.8061 N   0  0  0  0  0  0  0  0  0  0  0  0
  -13.4422  -15.7374   34.0401 N   0  0  0  0  0  0  0  0  0  0  0  0
  -13.7328  -17.1289   34.4220 C   0  0  2  0  0  0  0  0  0  0  0  0
  -12.4251  -17.9658   34.5172 C   0  0  0  0  0  0  0  0  0  0  0  0
  -12.3656  -19.1914   34.3864 O   0  0  0  0  0  0  0  0  0  0  0  0
  -14.8458  -17.7733   33.5841 C   0  0  0  0  0  0  0  0  0  0  0  0
  -16.0159  -16.8878   33.1035 C   0  0  1  0  0  0  0  0  0  0  0  0
  -16.8236  -16.4268   34.3235 C   0  0  0  0  0  0  0  0  0  0  0  0
  -15.5706  -15.6547   32.3201 C   0  0  0  0  0  0  0  0  0  0  0  0
  -11.3331  -17.2112   34.9103 N   0  0  0  0  0  0  0  0  0  0  0  0
   -9.9771  -17.7369   34.8962 C   0  0  2  0  0  0  0  0  0  0  0  0
   -9.4838  -18.2010   36.2880 C   0  0  0  0  0  0  0  0  0  0  0  0
   -8.5548  -19.0087   36.3864 O   0  0  0  0  0  0  0  0  0  0  0  0
   -8.9998  -16.7061   34.3155 C   0  0  0  0  0  0  0  0  0  0  0  0
   -7.5851  -16.7673   34.9389 C   0  0  1  0  0  0  0  0  0  0  0  0
   -7.6555  -16.3990   36.4223 C   0  0  0  0  0  0  0  0  0  0  0  0
   -6.9353  -18.1434   34.7800 C   0  0  0  0  0  0  0  0  0  0  0  0
   -9.6484  -19.1868   39.2454 C   0  0  0  0  0  0  0  0  0  0  0  0
  -10.0603  -17.5897   37.3806 N   0  0  0  0  0  0  0  0  0  0  0  0
  -10.5083  -19.9600   38.8046 O   0  0  0  0  0  0  0  0  0  0  0  0
   -9.5448  -17.6894   38.7776 C   0  0  1  0  0  0  0  0  0  0  0  0
  -10.4685  -16.8135   39.6747 C   0  0  0  0  0  0  0  0  0  0  0  0
  -11.0064  -15.7117   41.9304 C   0  0  0  0  0  0  0  0  0  0  0  0
  -12.2830  -16.4337   42.2683 C   0  0  0  0  0  0  0  0  0  0  0  0
  -10.0219  -16.5761   41.1258 C   0  0  0  0  0  0  0  0  0  0  0  0
   -8.0912  -17.1774   38.7986 C   0  0  0  0  0  0  0  0  0  0  0  0
   -8.7536  -19.5957   40.2119 N   0  0  0  0  0  0  0  0  0  0  0  0
   -7.4142  -18.9879   40.3629 C   0  0  2  0  0  0  0  0  0  0  0  0
   -7.1514  -18.5956   41.8341 C   0  0  0  0  0  0  0  0  0  0  0  0
   -6.7255  -17.4912   42.1611 O   0  0  0  0  0  0  0  0  0  0  0  0
   -7.3396  -17.7431   39.4505 C   0  0  0  0  0  0  0  0  0  0  0  0
   -6.0958  -16.9022   39.6208 C   0  0  0  0  0  0  0  0  0  0  0  0
   -5.9983  -15.9816   40.6768 C   0  0  0  0  0  0  0  0  0  0  0  0
   -5.0365  -16.9933   38.7050 C   0  0  0  0  0  0  0  0  0  0  0  0
   -4.8639  -15.1832   40.8182 C   0  0  0  0  0  0  0  0  0  0  0  0
   -3.8991  -16.1955   38.8536 C   0  0  0  0  0  0  0  0  0  0  0  0
   -3.8126  -15.2897   39.9090 C   0  0  0  0  0  0  0  0  0  0  0  0
   -7.6160  -19.5073   42.7544 N   0  0  0  0  0  0  0  0  0  0  0  0
   -7.4019  -19.3465   44.1966 C   0  0  2  0  0  0  0  0  0  0  0  0
   -7.9541  -20.5673   44.9567 C   0  0  0  0  0  0  0  0  0  0  0  0
   -8.0804  -20.6215   46.1763 O   0  0  0  0  0  0  0  0  0  0  0  0
   -8.0733  -18.0514   44.6919 C   0  0  0  0  0  0  0  0  0  0  0  0
   -7.0849  -16.9403   44.8977 C   0  0  0  0  0  0  0  0  0  0  0  0
   -5.7105  -17.0776   44.9129 C   0  0  0  0  0  0  0  0  0  0  0  0
   -7.3714  -15.5513   45.0953 C   0  0  0  0  0  0  0  0  0  0  0  0
   -5.1569  -15.8409   45.1038 N   0  0  0  0  0  0  0  0  0  0  0  0
   -6.1477  -14.8904   45.2028 C   0  0  0  0  0  0  0  0  0  0  0  0
   -8.5566  -14.7885   45.1945 C   0  0  0  0  0  0  0  0  0  0  0  0
   -6.0463  -13.5100   45.3989 C   0  0  0  0  0  0  0  0  0  0  0  0
   -8.4714  -13.4045   45.3885 C   0  0  0  0  0  0  0  0  0  0  0  0
   -7.2312  -12.7782   45.4859 C   0  0  0  0  0  0  0  0  0  0  0  0
   -8.3338  -21.6297   44.1851 N   0  0  0  0  0  0  0  0  0  0  0  0
  1  2  2  0
  1  3  1  0
  4  1  1  0
  5  4  1  0
  6  5  1  0
  5  8  1  1
  6  7  2  0
 13  6  1  0
  8  9  1  0
  9 10  1  0
 10 11  1  0
 11 12  1  0
 14 13  1  0
 15 14  1  0
 14 17  1  1
 15 16  2  0
 22 15  1  0
 17 18  1  0
 18 19  1  0
 19 20  1  0
 20 21  1  0
 23 22  1  0
 24 23  1  0
 23 26  1  6
 24 25  2  0
 33 24  1  0
 26 27  1  0
 27 28  1  0
 28 29  1  0
 29 30  1  0
 30 31  2  0
 30 32  1  0
 34 33  1  0
 35 34  1  0
 34 37  1  1
 35 36  2  0
 45 35  1  0
 37 38  1  0
 38 39  2  0
 38 40  1  0
 39 41  1  0
 40 42  2  0
 41 43  2  0
 42 43  1  0
 43 44  1  0
 46 45  1  0
 47 46  1  0
 46 49  1  6
 47 48  2  0
 51 47  1  0
 49 50  1  0
 52 51  1  0
 53 52  1  0
 52 55  1  1
 53 54  2  0
 63 53  1  0
 55 56  1  0
 56 57  1  0
 57 58  1  0
 58 59  1  0
 59 60  2  0
 59 61  1  0
 62 64  2  0
 62 65  1  0
 71 62  1  0
 65 63  1  0
 65 66  1  0
 65 70  1  6
 66 69  1  0
 67 68  1  0
 69 67  1  0
 68102  2  0
 72 71  1  0
 73 72  1  0
 72 75  1  1
 73 74  2  0
 80 73  1  0
 75 76  1  0
 76 77  1  0
 77 78  2  0
 77 79  1  0
 81 80  1  0
 82 81  1  0
 81 84  1  6
 82 83  2  0
 88 82  1  0
 84 85  1  0
 85 86  1  1
 85 87  1  0
 89 88  1  0
 90 89  1  0
 89 92  1  1
 90 91  2  0
 97 90  1  0
 92 93  1  0
 93 94  1  1
 93 95  1  0
 96 98  2  0
 99 96  1  0
 96105  1  0
 97 99  1  0
 99100  1  0
 99104  1  6
100103  1  0
102101  1  0
101103  1  0
105106  1  0
106107  1  0
106109  1  6
107108  2  0
107116  1  0
109110  1  0
110111  2  0
110112  1  0
111113  1  0
112114  2  0
113115  2  0
114115  1  0
116117  1  0
117118  1  0
117120  1  1
118119  2  0
118130  1  0
120121  1  0
121122  2  0
121123  1  0
122124  1  0
123125  2  0
123126  1  0
124125  1  0
125127  1  0
126128  2  0
127129  2  0
128129  1  0
M  CHG  4  12   1  21   1  31   1  60   1
M  END
$$$$
