
     RDKit          3D

130134  0  0  0  0  0  0  0  0999 V2000
  -17.5743  -33.1376   29.2897 C   0  0  0  0  0  0  0  0  0  0  0  0
  -17.4468  -34.3498   29.4178 O   0  0  0  0  0  0  0  0  0  0  0  0
  -17.8729  -32.4944   27.9586 C   0  0  0  0  0  0  0  0  0  0  0  0
  -17.4158  -32.2591   30.3355 N   0  0  0  0  0  0  0  0  0  0  0  0
  -17.6839  -30.8271   30.1868 C   0  0  2  0  0  0  0  0  0  0  0  0
  -16.3509  -30.0372   30.2704 C   0  0  0  0  0  0  0  0  0  0  0  0
  -15.2520  -30.5306   30.0430 O   0  0  0  0  0  0  0  0  0  0  0  0
  -18.7657  -30.3315   31.1666 C   0  0  0  0  0  0  0  0  0  0  0  0
  -19.1159  -28.8552   30.9211 C   0  0  0  0  0  0  0  0  0  0  0  0
  -20.2069  -28.2802   31.8299 C   0  0  0  0  0  0  0  0  0  0  0  0
  -21.1826  -29.3240   32.3501 C   0  0  0  0  0  0  0  0  0  0  0  0
  -22.4420  -29.2365   31.5680 N   0  0  0  0  0  4  0  0  0  0  0  0
  -16.5245  -28.7427   30.7324 N   0  0  0  0  0  0  0  0  0  0  0  0
  -15.4256  -27.7700   30.8830 C   0  0  2  0  0  0  0  0  0  0  0  0
  -16.1276  -26.5279   31.5120 C   0  0  0  0  0  0  0  0  0  0  0  0
  -17.3100  -26.2572   31.2486 O   0  0  0  0  0  0  0  0  0  0  0  0
  -14.6413  -27.5099   29.5767 C   0  0  0  0  0  0  0  0  0  0  0  0
  -13.5428  -28.5449   29.2699 C   0  0  0  0  0  0  0  0  0  0  0  0
  -12.9377  -29.1101   30.5646 C   0  0  0  0  0  0  0  0  0  0  0  0
  -13.8182  -30.1542   31.2510 C   0  0  0  0  0  0  0  0  0  0  0  0
  -13.0289  -30.9497   32.2171 N   0  0  0  0  0  4  0  0  0  0  0  0
  -15.3393  -25.6195   32.1831 N   0  0  0  0  0  0  0  0  0  0  0  0
  -15.8953  -24.4644   32.8991 C   0  0  2  0  0  0  0  0  0  0  0  0
  -14.9374  -24.0770   34.0543 C   0  0  0  0  0  0  0  0  0  0  0  0
  -14.9982  -24.5844   35.1653 O   0  0  0  0  0  0  0  0  0  0  0  0
  -17.3144  -24.7492   33.4087 C   0  0  0  0  0  0  0  0  0  0  0  0
  -17.9125  -23.6106   34.2500 C   0  0  0  0  0  0  0  0  0  0  0  0
  -19.4042  -23.4196   33.9908 C   0  0  0  0  0  0  0  0  0  0  0  0
  -20.1880  -23.5021   35.2309 N   0  0  0  0  0  0  0  0  0  0  0  0
  -20.7281  -24.6165   35.7392 C   0  0  0  0  0  0  0  0  0  0  0  0
  -20.8586  -25.7362   35.0247 N   0  0  0  0  0  4  0  0  0  0  0  0
  -21.1532  -24.6121   37.0077 N   0  0  0  0  0  0  0  0  0  0  0  0
  -14.0939  -23.0184   33.7409 N   0  0  0  0  0  0  0  0  0  0  0  0
  -13.1183  -22.5381   34.7267 C   0  0  2  0  0  0  0  0  0  0  0  0
  -13.3041  -21.0107   34.7703 C   0  0  0  0  0  0  0  0  0  0  0  0
  -14.1640  -20.4548   34.0855 O   0  0  0  0  0  0  0  0  0  0  0  0
  -11.6817  -22.8634   34.3052 C   0  0  0  0  0  0  0  0  0  0  0  0
  -11.3504  -22.3149   32.9372 C   0  0  0  0  0  0  0  0  0  0  0  0
  -12.1810  -21.3705   32.3126 C   0  0  0  0  0  0  0  0  0  0  0  0
  -10.2079  -22.7645   32.2617 C   0  0  0  0  0  0  0  0  0  0  0  0
  -11.8740  -20.8893   31.0340 C   0  0  0  0  0  0  0  0  0  0  0  0
   -9.9015  -22.2850   30.9910 C   0  0  0  0  0  0  0  0  0  0  0  0
  -10.7313  -21.3529   30.3847 C   0  0  0  0  0  0  0  0  0  0  0  0
  -10.3783  -20.9071   29.1484 O   0  0  0  0  0  0  0  0  0  0  0  0
  -12.4363  -20.3437   35.6003 N   0  0  0  0  0  0  0  0  0  0  0  0
  -12.7878  -19.0907   36.2719 C   0  0  2  0  0  0  0  0  0  0  0  0
  -13.3913  -18.0736   35.2854 C   0  0  0  0  0  0  0  0  0  0  0  0
  -13.1472  -18.0964   34.0837 O   0  0  0  0  0  0  0  0  0  0  0  0
  -11.5604  -18.4834   36.9637 C   0  0  0  0  0  0  0  0  0  0  0  0
  -11.2426  -19.2465   38.1282 O   0  0  0  0  0  0  0  0  0  0  0  0
  -14.2305  -17.1411   35.8715 N   0  0  0  0  0  0  0  0  0  0  0  0
  -15.1086  -16.2371   35.1114 C   0  0  2  0  0  0  0  0  0  0  0  0
  -15.5797  -15.1165   36.0716 C   0  0  0  0  0  0  0  0  0  0  0  0
  -16.2173  -15.3350   37.1003 O   0  0  0  0  0  0  0  0  0  0  0  0
  -16.2899  -16.9871   34.4569 C   0  0  0  0  0  0  0  0  0  0  0  0
  -17.2311  -16.1049   33.6245 C   0  0  0  0  0  0  0  0  0  0  0  0
  -18.6955  -16.4541   33.8401 C   0  0  0  0  0  0  0  0  0  0  0  0
  -19.2206  -17.1842   32.6894 N   0  0  0  0  0  0  0  0  0  0  0  0
  -19.7360  -18.4247   32.7497 C   0  0  0  0  0  0  0  0  0  0  0  0
  -19.7007  -19.2535   31.7106 N   0  0  0  0  0  4  0  0  0  0  0  0
  -20.3163  -18.8391   33.8735 N   0  0  0  0  0  0  0  0  0  0  0  0
  -12.8284  -13.5623   35.6866 C   0  0  0  0  0  0  0  0  0  0  0  0
  -15.2753  -13.8261   35.6453 N   0  0  0  0  0  0  0  0  0  0  0  0
  -12.8939  -13.5407   36.9233 O   0  0  0  0  0  0  0  0  0  0  0  0
  -14.1009  -13.5606   34.7676 C   0  0  1  0  0  0  0  0  0  0  0  0
  -14.2542  -12.1563   34.1059 C   0  0  0  0  0  0  0  0  0  0  0  0
  -15.0852   -9.9162   35.0350 C   0  0  0  0  0  0  0  0  0  0  0  0
  -16.2228  -10.4062   35.8835 C   0  0  0  0  0  0  0  0  0  0  0  0
  -13.9513  -10.9378   34.9937 C   0  0  0  0  0  0  0  0  0  0  0  0
  -14.0798  -14.5806   33.6110 C   0  0  0  0  0  0  0  0  0  0  0  0
  -11.5941  -13.3954   35.1279 N   0  0  0  0  0  0  0  0  0  0  0  0
  -10.9289  -14.4389   34.3383 C   0  0  2  0  0  0  0  0  0  0  0  0
   -9.8171  -15.0651   35.2141 C   0  0  0  0  0  0  0  0  0  0  0  0
   -8.6234  -14.8114   35.0441 O   0  0  0  0  0  0  0  0  0  0  0  0
  -10.4234  -13.8744   33.0066 C   0  0  0  0  0  0  0  0  0  0  0  0
   -8.9136  -13.9843   32.7535 C   0  0  0  0  0  0  0  0  0  0  0  0
   -8.1328  -13.9395   34.0507 C   0  0  0  0  0  0  0  0  0  0  0  0
   -8.6078  -14.1768   35.1542 O   0  0  0  0  0  0  0  0  0  0  0  0
   -6.8073  -13.6584   33.9066 N   0  0  0  0  0  0  0  0  0  0  0  0
  -10.1558  -15.8356   36.2947 N   0  0  0  0  0  0  0  0  0  0  0  0
  -11.4030  -16.5797   36.5340 C   0  0  2  0  0  0  0  0  0  0  0  0
  -11.7191  -16.6639   38.0547 C   0  0  0  0  0  0  0  0  0  0  0  0
  -12.4072  -17.5430   38.5805 O   0  0  0  0  0  0  0  0  0  0  0  0
  -11.4667  -17.9216   35.7915 C   0  0  0  0  0  0  0  0  0  0  0  0
  -10.2037  -18.4202   35.0564 C   0  0  1  0  0  0  0  0  0  0  0  0
   -8.9838  -17.6617   35.5947 C   0  0  0  0  0  0  0  0  0  0  0  0
   -9.9537  -19.9186   35.2135 C   0  0  0  0  0  0  0  0  0  0  0  0
  -11.2660  -15.5611   38.7583 N   0  0  0  0  0  0  0  0  0  0  0  0
  -11.2896  -15.5005   40.2113 C   0  0  2  0  0  0  0  0  0  0  0  0
  -12.4888  -14.6992   40.7732 C   0  0  0  0  0  0  0  0  0  0  0  0
  -12.8742  -14.8783   41.9327 O   0  0  0  0  0  0  0  0  0  0  0  0
   -9.9767  -14.9195   40.7531 C   0  0  0  0  0  0  0  0  0  0  0  0
   -8.7104  -15.5334   40.1100 C   0  0  1  0  0  0  0  0  0  0  0  0
   -9.1065  -16.4158   38.9246 C   0  0  0  0  0  0  0  0  0  0  0  0
   -7.7139  -14.4679   39.6487 C   0  0  0  0  0  0  0  0  0  0  0  0
  -15.3121  -13.3690   40.8461 C   0  0  0  0  0  0  0  0  0  0  0  0
  -13.0149  -13.7234   39.9540 N   0  0  0  0  0  0  0  0  0  0  0  0
  -15.9341  -13.0200   41.8575 O   0  0  0  0  0  0  0  0  0  0  0  0
  -13.9760  -12.6716   40.3982 C   0  0  1  0  0  0  0  0  0  0  0  0
  -14.2673  -11.7624   39.1678 C   0  0  0  0  0  0  0  0  0  0  0  0
  -15.3096   -9.6531   38.1402 C   0  0  0  0  0  0  0  0  0  0  0  0
  -16.3137  -10.2892   37.2170 C   0  0  0  0  0  0  0  0  0  0  0  0
  -15.0643  -10.4725   39.4178 C   0  0  0  0  0  0  0  0  0  0  0  0
  -13.3287  -11.8731   41.5465 C   0  0  0  0  0  0  0  0  0  0  0  0
  -15.7450  -14.4277   40.0757 N   0  0  0  0  0  0  0  0  0  0  0  0
  -14.9299  -15.6432   39.8656 C   0  0  2  0  0  0  0  0  0  0  0  0
  -14.3463  -15.6732   38.4352 C   0  0  0  0  0  0  0  0  0  0  0  0
  -14.1493  -14.6555   37.7768 O   0  0  0  0  0  0  0  0  0  0  0  0
  -15.8265  -16.8780   40.1089 C   0  0  0  0  0  0  0  0  0  0  0  0
  -15.0804  -18.1604   40.3951 C   0  0  0  0  0  0  0  0  0  0  0  0
  -14.0322  -18.1806   41.3295 C   0  0  0  0  0  0  0  0  0  0  0  0
  -15.3906  -19.3412   39.7032 C   0  0  0  0  0  0  0  0  0  0  0  0
  -13.3228  -19.3560   41.5730 C   0  0  0  0  0  0  0  0  0  0  0  0
  -14.6809  -20.5183   39.9545 C   0  0  0  0  0  0  0  0  0  0  0  0
  -13.6465  -20.5261   40.8881 C   0  0  0  0  0  0  0  0  0  0  0  0
  -13.8852  -16.9075   38.0379 N   0  0  0  0  0  0  0  0  0  0  0  0
  -12.6634  -17.5041   38.5883 C   0  0  2  0  0  0  0  0  0  0  0  0
  -12.6775  -19.0310   38.3848 C   0  0  0  0  0  0  0  0  0  0  0  0
  -11.6791  -19.7051   38.1503 O   0  0  0  0  0  0  0  0  0  0  0  0
  -12.5309  -17.1586   40.0839 C   0  0  0  0  0  0  0  0  0  0  0  0
  -11.5179  -18.0207   40.7798 C   0  0  0  0  0  0  0  0  0  0  0  0
  -11.7985  -18.9992   41.7135 C   0  0  0  0  0  0  0  0  0  0  0  0
  -10.0974  -18.0062   40.5991 C   0  0  0  0  0  0  0  0  0  0  0  0
  -10.6194  -19.5771   42.0984 N   0  0  0  0  0  0  0  0  0  0  0  0
   -9.5682  -19.0003   41.4223 C   0  0  0  0  0  0  0  0  0  0  0  0
   -9.2065  -17.2415   39.8133 C   0  0  0  0  0  0  0  0  0  0  0  0
   -8.1991  -19.2726   41.4978 C   0  0  0  0  0  0  0  0  0  0  0  0
   -7.8326  -17.5040   39.8761 C   0  0  0  0  0  0  0  0  0  0  0  0
   -7.3409  -18.5085   40.7062 C   0  0  0  0  0  0  0  0  0  0  0  0
  -13.8970  -19.6376   38.4994 N   0  0  0  0  0  0  0  0  0  0  0  0
  1  2  2  0
  1  3  1  0
  4  1  1  0
  5  4  1  0
  6  5  1  0
  5  8  1  1
  6  7  2  0
 13  6  1  0
  8  9  1  0
  9 10  1  0
 10 11  1  0
 11 12  1  0
 14 13  1  0
 15 14  1  0
 14 17  1  6
 15 16  2  0
 22 15  1  0
 17 18  1  0
 18 19  1  0
 19 20  1  0
 20 21  1  0
 23 22  1  0
 24 23  1  0
 23 26  1  1
 24 25  2  0
 33 24  1  0
 26 27  1  0
 27 28  1  0
 28 29  1  0
 29 30  1  0
 30 31  2  0
 30 32  1  0
 34 33  1  0
 35 34  1  0
 34 37  1  6
 35 36  2  0
 45 35  1  0
 37 38  1  0
 38 39  2  0
 38 40  1  0
 39 41  1  0
 40 42  2  0
 41 43  2  0
 42 43  1  0
 43 44  1  0
 46 45  1  0
 47 46  1  0
 46 49  1  6
 47 48  2  0
 51 47  1  0
 49 50  1  0
 52 51  1  0
 53 52  1  0
 52 55  1  1
 53 54  2  0
 63 53  1  0
 55 56  1  0
 56 57  1  0
 57 58  1  0
 58 59  1  0
 59 60  2  0
 59 61  1  0
 62 64  2  0
 62 65  1  0
 71 62  1  0
 65 63  1  0
 65 66  1  0
 65 70  1  6
 66 69  1  0
 67 68  1  0
 69 67  1  0
 68102  2  0
 72 71  1  0
 73 72  1  0
 72 75  1  6
 73 74  2  0
 80 73  1  0
 75 76  1  0
 76 77  1  0
 77 78  2  0
 77 79  1  0
 81 80  1  0
 82 81  1  0
 81 84  1  1
 82 83  2  0
 88 82  1  0
 84 85  1  0
 85 86  1  1
 85 87  1  0
 89 88  1  0
 90 89  1  0
 89 92  1  6
 90 91  2  0
 97 90  1  0
 92 93  1  0
 93 94  1  6
 93 95  1  0
 96 98  2  0
 99 96  1  0
 96105  1  0
 97 99  1  0
 99100  1  0
 99104  1  1
100103  1  0
102101  1  0
101103  1  0
105106  1  0
106107  1  0
106109  1  6
107108  2  0
107116  1  0
109110  1  0
110111  2  0
110112  1  0
111113  1  0
112114  2  0
113115  2  0
114115  1  0
116117  1  0
117118  1  0
117120  1  1
118119  2  0
118130  1  0
120121  1  0
121122  2  0
121123  1  0
122124  1  0
123125  2  0
123126  1  0
124125  1  0
125127  1  0
126128  2  0
127129  2  0
128129  1  0
M  CHG  4  12   1  21   1  31   1  60   1
M  END
$$$$
