
     RDKit          3D

130134  0  0  0  0  0  0  0  0999 V2000
  -23.0504  -21.5278   28.3181 C   0  0  0  0  0  0  0  0  0  0  0  0
  -22.3455  -22.2575   27.6306 O   0  0  0  0  0  0  0  0  0  0  0  0
  -24.4146  -21.0676   27.8685 C   0  0  0  0  0  0  0  0  0  0  0  0
  -22.6440  -21.0337   29.5352 N   0  0  0  0  0  0  0  0  0  0  0  0
  -23.5331  -20.2305   30.3771 C   0  0  2  0  0  0  0  0  0  0  0  0
  -23.5211  -18.7575   29.8890 C   0  0  0  0  0  0  0  0  0  0  0  0
  -22.5886  -18.2517   29.2749 O   0  0  0  0  0  0  0  0  0  0  0  0
  -23.2202  -20.3935   31.8775 C   0  0  0  0  0  0  0  0  0  0  0  0
  -23.9622  -21.5963   32.4815 C   0  0  0  0  0  0  0  0  0  0  0  0
  -23.4339  -22.9713   32.0609 C   0  0  0  0  0  0  0  0  0  0  0  0
  -22.4036  -23.5498   33.0180 C   0  0  0  0  0  0  0  0  0  0  0  0
  -22.4266  -25.0308   32.9110 N   0  0  0  0  0  4  0  0  0  0  0  0
  -24.6306  -18.0446   30.3133 N   0  0  0  0  0  0  0  0  0  0  0  0
  -24.7813  -16.5862   30.1504 C   0  0  2  0  0  0  0  0  0  0  0  0
  -23.3725  -16.0340   30.5268 C   0  0  0  0  0  0  0  0  0  0  0  0
  -22.4727  -15.9387   29.6771 O   0  0  0  0  0  0  0  0  0  0  0  0
  -25.9699  -15.9913   30.9395 C   0  0  0  0  0  0  0  0  0  0  0  0
  -27.3491  -16.2210   30.2936 C   0  0  0  0  0  0  0  0  0  0  0  0
  -28.4188  -16.5066   31.3593 C   0  0  0  0  0  0  0  0  0  0  0  0
  -29.8092  -16.7692   30.7810 C   0  0  0  0  0  0  0  0  0  0  0  0
  -30.6577  -17.4803   31.7626 N   0  0  0  0  0  4  0  0  0  0  0  0
  -23.0861  -15.8702   31.8640 N   0  0  0  0  0  0  0  0  0  0  0  0
  -21.9116  -15.1271   32.3378 C   0  0  2  0  0  0  0  0  0  0  0  0
  -20.6851  -16.0745   32.3497 C   0  0  0  0  0  0  0  0  0  0  0  0
  -20.7486  -17.2375   32.7225 O   0  0  0  0  0  0  0  0  0  0  0  0
  -22.1610  -14.5024   33.7171 C   0  0  0  0  0  0  0  0  0  0  0  0
  -23.3600  -13.5418   33.7563 C   0  0  0  0  0  0  0  0  0  0  0  0
  -24.6664  -14.2580   34.0874 C   0  0  0  0  0  0  0  0  0  0  0  0
  -25.0653  -14.0457   35.4855 N   0  0  0  0  0  0  0  0  0  0  0  0
  -25.2033  -15.0031   36.4109 C   0  0  0  0  0  0  0  0  0  0  0  0
  -26.3905  -15.3352   36.9223 N   0  0  0  0  0  4  0  0  0  0  0  0
  -24.1155  -15.6525   36.8409 N   0  0  0  0  0  0  0  0  0  0  0  0
  -19.4945  -15.4409   32.0163 N   0  0  0  0  0  0  0  0  0  0  0  0
  -18.2097  -16.0843   32.3155 C   0  0  2  0  0  0  0  0  0  0  0  0
  -18.0076  -15.9018   33.8305 C   0  0  0  0  0  0  0  0  0  0  0  0
  -18.5563  -14.9819   34.4390 O   0  0  0  0  0  0  0  0  0  0  0  0
  -17.0540  -15.4151   31.5645 C   0  0  0  0  0  0  0  0  0  0  0  0
  -15.7126  -15.9940   31.9487 C   0  0  0  0  0  0  0  0  0  0  0  0
  -14.8672  -15.3305   32.8525 C   0  0  0  0  0  0  0  0  0  0  0  0
  -15.2854  -17.2031   31.3838 C   0  0  0  0  0  0  0  0  0  0  0  0
  -13.6160  -15.8670   33.1804 C   0  0  0  0  0  0  0  0  0  0  0  0
  -14.0422  -17.7377   31.7109 C   0  0  0  0  0  0  0  0  0  0  0  0
  -13.2160  -17.0714   32.6044 C   0  0  0  0  0  0  0  0  0  0  0  0
  -12.0176  -17.6445   32.8999 O   0  0  0  0  0  0  0  0  0  0  0  0
  -17.1691  -16.8168   34.4189 N   0  0  0  0  0  0  0  0  0  0  0  0
  -16.9683  -16.8906   35.8676 C   0  0  2  0  0  0  0  0  0  0  0  0
  -15.8306  -17.8636   36.2291 C   0  0  0  0  0  0  0  0  0  0  0  0
  -15.8000  -19.0212   35.8249 O   0  0  0  0  0  0  0  0  0  0  0  0
  -18.2629  -17.3141   36.5736 C   0  0  0  0  0  0  0  0  0  0  0  0
  -18.3224  -18.7391   36.6468 O   0  0  0  0  0  0  0  0  0  0  0  0
  -14.8513  -17.3177   37.0418 N   0  0  0  0  0  0  0  0  0  0  0  0
  -13.5034  -17.8879   37.1965 C   0  0  2  0  0  0  0  0  0  0  0  0
  -13.6513  -19.4245   37.3258 C   0  0  0  0  0  0  0  0  0  0  0  0
  -14.6495  -20.0387   36.9531 O   0  0  0  0  0  0  0  0  0  0  0  0
  -12.7419  -17.2671   38.3885 C   0  0  0  0  0  0  0  0  0  0  0  0
  -11.7378  -18.2066   39.0711 C   0  0  0  0  0  0  0  0  0  0  0  0
  -10.7163  -17.4540   39.9095 C   0  0  0  0  0  0  0  0  0  0  0  0
   -9.5473  -18.2921   40.1629 N   0  0  0  0  0  0  0  0  0  0  0  0
   -9.1423  -18.6783   41.3856 C   0  0  0  0  0  0  0  0  0  0  0  0
   -9.8815  -19.4721   42.1546 N   0  0  0  0  0  4  0  0  0  0  0  0
   -7.9754  -18.2446   41.8564 N   0  0  0  0  0  0  0  0  0  0  0  0
  -10.1445  -20.3615   37.8162 C   0  0  0  0  0  0  0  0  0  0  0  0
  -12.5828  -20.0556   37.9577 N   0  0  0  0  0  0  0  0  0  0  0  0
  -10.0246  -19.4521   38.6485 O   0  0  0  0  0  0  0  0  0  0  0  0
  -11.5229  -20.7490   37.1730 C   0  0  1  0  0  0  0  0  0  0  0  0
  -11.5588  -20.2482   35.6961 C   0  0  0  0  0  0  0  0  0  0  0  0
  -11.8996  -17.9123   34.6965 C   0  0  0  0  0  0  0  0  0  0  0  0
  -12.9615  -17.3977   35.6248 C   0  0  0  0  0  0  0  0  0  0  0  0
  -10.9501  -18.8630   35.4215 C   0  0  0  0  0  0  0  0  0  0  0  0
  -11.8242  -22.2607   37.1216 C   0  0  0  0  0  0  0  0  0  0  0  0
   -8.9942  -20.9062   37.3227 N   0  0  0  0  0  0  0  0  0  0  0  0
   -8.6157  -22.3068   37.5460 C   0  0  2  0  0  0  0  0  0  0  0  0
   -7.4945  -22.3346   38.6125 C   0  0  0  0  0  0  0  0  0  0  0  0
   -6.3141  -22.5356   38.3221 O   0  0  0  0  0  0  0  0  0  0  0  0
   -8.2313  -22.9836   36.2262 C   0  0  0  0  0  0  0  0  0  0  0  0
   -7.1217  -22.3026   35.4135 C   0  0  0  0  0  0  0  0  0  0  0  0
   -6.8379  -20.9071   35.9299 C   0  0  0  0  0  0  0  0  0  0  0  0
   -6.8060  -19.9024   35.2304 O   0  0  0  0  0  0  0  0  0  0  0  0
   -6.6638  -20.8249   37.2788 N   0  0  0  0  0  0  0  0  0  0  0  0
   -7.7834  -22.0095   39.9113 N   0  0  0  0  0  0  0  0  0  0  0  0
   -9.0795  -22.0762   40.6055 C   0  0  2  0  0  0  0  0  0  0  0  0
   -9.1790  -20.9827   41.7073 C   0  0  0  0  0  0  0  0  0  0  0  0
   -9.9068  -21.0527   42.7013 O   0  0  0  0  0  0  0  0  0  0  0  0
   -9.4516  -23.4905   41.0717 C   0  0  0  0  0  0  0  0  0  0  0  0
   -9.0865  -24.6870   40.1665 C   0  0  1  0  0  0  0  0  0  0  0  0
   -9.5815  -25.9795   40.8280 C   0  0  0  0  0  0  0  0  0  0  0  0
   -9.6826  -24.5990   38.7632 C   0  0  0  0  0  0  0  0  0  0  0  0
   -8.4677  -19.8377   41.3920 N   0  0  0  0  0  0  0  0  0  0  0  0
   -8.2693  -18.7567   42.3445 C   0  0  2  0  0  0  0  0  0  0  0  0
   -9.2396  -17.5688   42.1363 C   0  0  0  0  0  0  0  0  0  0  0  0
   -9.4738  -16.7818   43.0587 O   0  0  0  0  0  0  0  0  0  0  0  0
   -6.8192  -18.2563   42.3055 C   0  0  0  0  0  0  0  0  0  0  0  0
   -6.1869  -18.2850   40.8937 C   0  0  1  0  0  0  0  0  0  0  0  0
   -5.0962  -19.3563   40.8355 C   0  0  0  0  0  0  0  0  0  0  0  0
   -7.2208  -18.5423   39.7954 C   0  0  0  0  0  0  0  0  0  0  0  0
  -11.7900  -16.0354   41.1932 C   0  0  0  0  0  0  0  0  0  0  0  0
   -9.7274  -17.3891   40.8597 N   0  0  0  0  0  0  0  0  0  0  0  0
  -11.8485  -15.4891   42.3021 O   0  0  0  0  0  0  0  0  0  0  0  0
  -10.4445  -16.1672   40.3907 C   0  0  1  0  0  0  0  0  0  0  0  0
  -10.7727  -16.3744   38.8825 C   0  0  0  0  0  0  0  0  0  0  0  0
  -11.6256  -15.4762   36.6336 C   0  0  0  0  0  0  0  0  0  0  0  0
  -12.8379  -16.3500   36.4538 C   0  0  0  0  0  0  0  0  0  0  0  0
  -11.3220  -15.1658   38.1085 C   0  0  0  0  0  0  0  0  0  0  0  0
   -9.5238  -14.9496   40.6035 C   0  0  0  0  0  0  0  0  0  0  0  0
  -12.9100  -16.5990   40.6188 N   0  0  0  0  0  0  0  0  0  0  0  0
  -13.2920  -16.3506   39.2122 C   0  0  2  0  0  0  0  0  0  0  0  0
  -14.4927  -17.2337   38.8046 C   0  0  0  0  0  0  0  0  0  0  0  0
  -15.1418  -17.8878   39.6162 O   0  0  0  0  0  0  0  0  0  0  0  0
  -12.0703  -16.6532   38.3159 C   0  0  0  0  0  0  0  0  0  0  0  0
  -11.7293  -18.1187   38.1774 C   0  0  0  0  0  0  0  0  0  0  0  0
  -12.4886  -19.0923   38.8465 C   0  0  0  0  0  0  0  0  0  0  0  0
  -10.6248  -18.5301   37.4158 C   0  0  0  0  0  0  0  0  0  0  0  0
  -12.1572  -20.4429   38.7442 C   0  0  0  0  0  0  0  0  0  0  0  0
  -10.2996  -19.8849   37.3113 C   0  0  0  0  0  0  0  0  0  0  0  0
  -11.0645  -20.8415   37.9760 C   0  0  0  0  0  0  0  0  0  0  0  0
  -14.8947  -17.0741   37.4981 N   0  0  0  0  0  0  0  0  0  0  0  0
  -15.8270  -17.9988   36.8444 C   0  0  2  0  0  0  0  0  0  0  0  0
  -15.8465  -19.3488   37.5862 C   0  0  0  0  0  0  0  0  0  0  0  0
  -16.7658  -20.1592   37.5202 O   0  0  0  0  0  0  0  0  0  0  0  0
  -15.4306  -18.1977   35.3690 C   0  0  0  0  0  0  0  0  0  0  0  0
  -14.1877  -19.0263   35.2200 C   0  0  0  0  0  0  0  0  0  0  0  0
  -12.9413  -18.5514   34.8606 C   0  0  0  0  0  0  0  0  0  0  0  0
  -14.0551  -20.4358   35.4353 C   0  0  0  0  0  0  0  0  0  0  0  0
  -12.0658  -19.6030   34.8548 N   0  0  0  0  0  0  0  0  0  0  0  0
  -12.7163  -20.7609   35.2165 C   0  0  0  0  0  0  0  0  0  0  0  0
  -14.9464  -21.4712   35.7955 C   0  0  0  0  0  0  0  0  0  0  0  0
  -12.2217  -22.0623   35.3432 C   0  0  0  0  0  0  0  0  0  0  0  0
  -14.4657  -22.7794   35.9287 C   0  0  0  0  0  0  0  0  0  0  0  0
  -13.1207  -23.0655   35.7073 C   0  0  0  0  0  0  0  0  0  0  0  0
  -14.7422  -19.6320   38.3403 N   0  0  0  0  0  0  0  0  0  0  0  0
  1  2  2  0
  1  3  1  0
  4  1  1  0
  5  4  1  0
  6  5  1  0
  5  8  1  1
  6  7  2  0
 13  6  1  0
  8  9  1  0
  9 10  1  0
 10 11  1  0
 11 12  1  0
 14 13  1  0
 15 14  1  0
 14 17  1  1
 15 16  2  0
 22 15  1  0
 17 18  1  0
 18 19  1  0
 19 20  1  0
 20 21  1  0
 23 22  1  0
 24 23  1  0
 23 26  1  1
 24 25  2  0
 33 24  1  0
 26 27  1  0
 27 28  1  0
 28 29  1  0
 29 30  1  0
 30 31  2  0
 30 32  1  0
 34 33  1  0
 35 34  1  0
 34 37  1  6
 35 36  2  0
 45 35  1  0
 37 38  1  0
 38 39  2  0
 38 40  1  0
 39 41  1  0
 40 42  2  0
 41 43  2  0
 42 43  1  0
 43 44  1  0
 46 45  1  0
 47 46  1  0
 46 49  1  1
 47 48  2  0
 51 47  1  0
 49 50  1  0
 52 51  1  0
 53 52  1  0
 52 55  1  1
 53 54  2  0
 63 53  1  0
 55 56  1  0
 56 57  1  0
 57 58  1  0
 58 59  1  0
 59 60  2  0
 59 61  1  0
 62 64  2  0
 62 65  1  0
 71 62  1  0
 65 63  1  0
 65 66  1  0
 65 70  1  6
 66 69  1  0
 67 68  1  0
 69 67  1  0
 68102  2  0
 72 71  1  0
 73 72  1  0
 72 75  1  6
 73 74  2  0
 80 73  1  0
 75 76  1  0
 76 77  1  0
 77 78  2  0
 77 79  1  0
 81 80  1  0
 82 81  1  0
 81 84  1  1
 82 83  2  0
 88 82  1  0
 84 85  1  0
 85 86  1  1
 85 87  1  0
 89 88  1  0
 90 89  1  0
 89 92  1  6
 90 91  2  0
 97 90  1  0
 92 93  1  0
 93 94  1  1
 93 95  1  0
 96 98  2  0
 99 96  1  0
 96105  1  0
 97 99  1  0
 99100  1  0
 99104  1  6
100103  1  0
102101  1  0
101103  1  0
105106  1  0
106107  1  0
106109  1  6
107108  2  0
107116  1  0
109110  1  0
110111  2  0
110112  1  0
111113  1  0
112114  2  0
113115  2  0
114115  1  0
116117  1  0
117118  1  0
117120  1  6
118119  2  0
118130  1  0
120121  1  0
121122  2  0
121123  1  0
122124  1  0
123125  2  0
123126  1  0
124125  1  0
125127  1  0
126128  2  0
127129  2  0
128129  1  0
M  CHG  4  12   1  21   1  31   1  60   1
M  END
$$$$
