
     RDKit          3D

130134  0  0  0  0  0  0  0  0999 V2000
   -4.0808  -12.6182   40.1795 C   0  0  0  0  0  0  0  0  0  0  0  0
   -3.6980  -11.4571   40.0933 O   0  0  0  0  0  0  0  0  0  0  0  0
   -3.2741  -13.6834   40.8790 C   0  0  0  0  0  0  0  0  0  0  0  0
   -5.2539  -13.0579   39.6130 N   0  0  0  0  0  0  0  0  0  0  0  0
   -6.0795  -12.1861   38.7746 C   0  0  2  0  0  0  0  0  0  0  0  0
   -7.5580  -12.2662   39.2388 C   0  0  0  0  0  0  0  0  0  0  0  0
   -7.9521  -13.0099   40.1300 O   0  0  0  0  0  0  0  0  0  0  0  0
   -5.8812  -12.4640   37.2715 C   0  0  0  0  0  0  0  0  0  0  0  0
   -4.5957  -11.8093   36.7411 C   0  0  0  0  0  0  0  0  0  0  0  0
   -3.4299  -11.7549   37.7334 C   0  0  0  0  0  0  0  0  0  0  0  0
   -2.1456  -11.1994   37.1383 C   0  0  0  0  0  0  0  0  0  0  0  0
   -1.2324  -10.8117   38.2434 N   0  0  0  0  0  4  0  0  0  0  0  0
   -8.4037  -11.4859   38.4674 N   0  0  0  0  0  0  0  0  0  0  0  0
   -9.8630  -11.6871   38.3886 C   0  0  2  0  0  0  0  0  0  0  0  0
   -9.9974  -13.1047   37.7531 C   0  0  0  0  0  0  0  0  0  0  0  0
   -9.0245  -13.6659   37.2248 O   0  0  0  0  0  0  0  0  0  0  0  0
  -10.6096  -10.5483   37.6571 C   0  0  0  0  0  0  0  0  0  0  0  0
  -10.8080   -9.2698   38.4926 C   0  0  0  0  0  0  0  0  0  0  0  0
   -9.5240   -8.4259   38.5265 C   0  0  0  0  0  0  0  0  0  0  0  0
   -8.6819   -8.6367   39.7847 C   0  0  0  0  0  0  0  0  0  0  0  0
   -8.7673  -10.0416   40.2413 N   0  0  0  0  0  4  0  0  0  0  0  0
  -11.2662  -13.6161   37.5934 N   0  0  0  0  0  0  0  0  0  0  0  0
  -11.5204  -14.9335   36.9967 C   0  0  2  0  0  0  0  0  0  0  0  0
  -13.0216  -15.2818   37.1615 C   0  0  0  0  0  0  0  0  0  0  0  0
  -13.5272  -15.5432   38.2439 O   0  0  0  0  0  0  0  0  0  0  0  0
  -10.6160  -16.0115   37.6091 C   0  0  0  0  0  0  0  0  0  0  0  0
  -10.9606  -17.4401   37.1593 C   0  0  0  0  0  0  0  0  0  0  0  0
  -10.2676  -18.4995   38.0116 C   0  0  0  0  0  0  0  0  0  0  0  0
  -11.1639  -19.0429   39.0413 N   0  0  0  0  0  0  0  0  0  0  0  0
  -10.8715  -19.1698   40.3414 C   0  0  0  0  0  0  0  0  0  0  0  0
   -9.6149  -19.2122   40.7893 N   0  0  0  0  0  4  0  0  0  0  0  0
  -11.8710  -19.2572   41.2265 N   0  0  0  0  0  0  0  0  0  0  0  0
  -13.6998  -15.3881   35.9536 N   0  0  0  0  0  0  0  0  0  0  0  0
  -15.1420  -15.6606   35.9410 C   0  0  2  0  0  0  0  0  0  0  0  0
  -15.2720  -17.1700   36.2136 C   0  0  0  0  0  0  0  0  0  0  0  0
  -14.3097  -17.9265   36.0750 O   0  0  0  0  0  0  0  0  0  0  0  0
  -15.7669  -15.3344   34.5807 C   0  0  0  0  0  0  0  0  0  0  0  0
  -15.1814  -14.0834   33.9690 C   0  0  0  0  0  0  0  0  0  0  0  0
  -15.6649  -13.5748   32.7527 C   0  0  0  0  0  0  0  0  0  0  0  0
  -14.1233  -13.4224   34.6071 C   0  0  0  0  0  0  0  0  0  0  0  0
  -15.0959  -12.4280   32.1854 C   0  0  0  0  0  0  0  0  0  0  0  0
  -13.5584  -12.2812   34.0442 C   0  0  0  0  0  0  0  0  0  0  0  0
  -14.0448  -11.7897   32.8414 C   0  0  0  0  0  0  0  0  0  0  0  0
  -13.4661  -10.6638   32.3421 O   0  0  0  0  0  0  0  0  0  0  0  0
  -16.5250  -17.5856   36.5929 N   0  0  0  0  0  0  0  0  0  0  0  0
  -16.8185  -18.9679   36.9776 C   0  0  2  0  0  0  0  0  0  0  0  0
  -16.2167  -19.9706   35.9755 C   0  0  0  0  0  0  0  0  0  0  0  0
  -16.1809  -19.7553   34.7686 O   0  0  0  0  0  0  0  0  0  0  0  0
  -18.3323  -19.1888   37.0935 C   0  0  0  0  0  0  0  0  0  0  0  0
  -18.7985  -19.9080   35.9512 O   0  0  0  0  0  0  0  0  0  0  0  0
  -15.7202  -21.1261   36.5550 N   0  0  0  0  0  0  0  0  0  0  0  0
  -16.2068  -22.4776   36.2345 C   0  0  2  0  0  0  0  0  0  0  0  0
  -16.7595  -23.1035   37.5393 C   0  0  0  0  0  0  0  0  0  0  0  0
  -16.2275  -22.9507   38.6375 O   0  0  0  0  0  0  0  0  0  0  0  0
  -15.1129  -23.3502   35.5800 C   0  0  0  0  0  0  0  0  0  0  0  0
  -15.4194  -24.8543   35.5529 C   0  0  0  0  0  0  0  0  0  0  0  0
  -15.1062  -25.5341   36.8768 C   0  0  0  0  0  0  0  0  0  0  0  0
  -16.2666  -26.2822   37.3531 N   0  0  0  0  0  0  0  0  0  0  0  0
  -16.2226  -27.2131   38.3226 C   0  0  0  0  0  0  0  0  0  0  0  0
  -15.0728  -27.6927   38.7870 N   0  0  0  0  0  4  0  0  0  0  0  0
  -17.3590  -27.6876   38.8272 N   0  0  0  0  0  0  0  0  0  0  0  0
  -17.9650  -23.0755   35.0479 C   0  0  0  0  0  0  0  0  0  0  0  0
  -17.8811  -23.9098   37.3621 N   0  0  0  0  0  0  0  0  0  0  0  0
  -17.5405  -21.9906   35.4683 O   0  0  0  0  0  0  0  0  0  0  0  0
  -18.3760  -24.2542   35.9996 C   0  0  1  0  0  0  0  0  0  0  0  0
  -19.9311  -24.3734   36.0267 C   0  0  0  0  0  0  0  0  0  0  0  0
  -21.7273  -22.9730   37.2034 C   0  0  0  0  0  0  0  0  0  0  0  0
  -21.0320  -22.7257   38.5109 C   0  0  0  0  0  0  0  0  0  0  0  0
  -20.7243  -23.0563   36.0553 C   0  0  0  0  0  0  0  0  0  0  0  0
  -17.8455  -25.6443   35.5937 C   0  0  0  0  0  0  0  0  0  0  0  0
  -18.2489  -23.1559   33.7150 N   0  0  0  0  0  0  0  0  0  0  0  0
  -17.5249  -24.0448   32.7981 C   0  0  2  0  0  0  0  0  0  0  0  0
  -16.5584  -23.1777   31.9559 C   0  0  0  0  0  0  0  0  0  0  0  0
  -16.7845  -22.8937   30.7784 O   0  0  0  0  0  0  0  0  0  0  0  0
  -18.5026  -24.8744   31.9593 C   0  0  0  0  0  0  0  0  0  0  0  0
  -19.7974  -24.1692   31.5333 C   0  0  0  0  0  0  0  0  0  0  0  0
  -19.5648  -22.6931   31.2845 C   0  0  0  0  0  0  0  0  0  0  0  0
  -19.1436  -21.9068   32.1235 O   0  0  0  0  0  0  0  0  0  0  0  0
  -19.8131  -22.2861   30.0081 N   0  0  0  0  0  0  0  0  0  0  0  0
  -15.4703  -22.5977   32.5522 N   0  0  0  0  0  0  0  0  0  0  0  0
  -14.7661  -23.0140   33.7758 C   0  0  2  0  0  0  0  0  0  0  0  0
  -14.1554  -21.7878   34.5125 C   0  0  0  0  0  0  0  0  0  0  0  0
  -13.1883  -21.8391   35.2772 O   0  0  0  0  0  0  0  0  0  0  0  0
  -13.7912  -24.1787   33.5542 C   0  0  0  0  0  0  0  0  0  0  0  0
  -13.7975  -24.8981   32.1879 C   0  0  1  0  0  0  0  0  0  0  0  0
  -15.2215  -25.3840   31.8891 C   0  0  0  0  0  0  0  0  0  0  0  0
  -13.3298  -24.0193   31.0297 C   0  0  0  0  0  0  0  0  0  0  0  0
  -14.8987  -20.6330   34.3384 N   0  0  0  0  0  0  0  0  0  0  0  0
  -14.4296  -19.3300   34.7831 C   0  0  2  0  0  0  0  0  0  0  0  0
  -15.0429  -18.8844   36.1327 C   0  0  0  0  0  0  0  0  0  0  0  0
  -14.4789  -18.0326   36.8265 O   0  0  0  0  0  0  0  0  0  0  0  0
  -14.6949  -18.2620   33.7137 C   0  0  0  0  0  0  0  0  0  0  0  0
  -13.6121  -17.1585   33.6519 C   0  0  1  0  0  0  0  0  0  0  0  0
  -12.2336  -17.7694   33.9117 C   0  0  0  0  0  0  0  0  0  0  0  0
  -13.6046  -16.4214   32.3111 C   0  0  0  0  0  0  0  0  0  0  0  0
  -16.4226  -19.1452   38.9208 C   0  0  0  0  0  0  0  0  0  0  0  0
  -16.2789  -19.4060   36.4491 N   0  0  0  0  0  0  0  0  0  0  0  0
  -17.0075  -19.6003   39.9120 O   0  0  0  0  0  0  0  0  0  0  0  0
  -17.1536  -18.9052   37.5497 C   0  0  1  0  0  0  0  0  0  0  0  0
  -18.4627  -19.7481   37.5195 C   0  0  0  0  0  0  0  0  0  0  0  0
  -20.8594  -20.1898   38.3271 C   0  0  0  0  0  0  0  0  0  0  0  0
  -20.6627  -21.5274   38.9884 C   0  0  0  0  0  0  0  0  0  0  0  0
  -19.6194  -19.2856   38.4193 C   0  0  0  0  0  0  0  0  0  0  0  0
  -17.4411  -17.4113   37.3027 C   0  0  0  0  0  0  0  0  0  0  0  0
  -15.0933  -18.7833   38.9842 N   0  0  0  0  0  0  0  0  0  0  0  0
  -14.2569  -18.6157   37.7766 C   0  0  2  0  0  0  0  0  0  0  0  0
  -12.7552  -18.6702   38.1361 C   0  0  0  0  0  0  0  0  0  0  0  0
  -11.8847  -18.1679   37.4306 O   0  0  0  0  0  0  0  0  0  0  0  0
  -14.6077  -17.2583   37.1268 C   0  0  0  0  0  0  0  0  0  0  0  0
  -13.4337  -16.5124   36.5367 C   0  0  0  0  0  0  0  0  0  0  0  0
  -13.6425  -15.4011   35.7038 C   0  0  0  0  0  0  0  0  0  0  0  0
  -12.1185  -16.9407   36.7732 C   0  0  0  0  0  0  0  0  0  0  0  0
  -12.5614  -14.7297   35.1340 C   0  0  0  0  0  0  0  0  0  0  0  0
  -11.0377  -16.2615   36.2049 C   0  0  0  0  0  0  0  0  0  0  0  0
  -11.2585  -15.1570   35.3845 C   0  0  0  0  0  0  0  0  0  0  0  0
  -12.4929  -19.1506   39.3989 N   0  0  0  0  0  0  0  0  0  0  0  0
  -13.4275  -20.0235   40.1172 C   0  0  2  0  0  0  0  0  0  0  0  0
  -12.7759  -20.5544   41.4082 C   0  0  0  0  0  0  0  0  0  0  0  0
  -13.2605  -21.4330   42.1149 O   0  0  0  0  0  0  0  0  0  0  0  0
  -13.8658  -21.1910   39.2125 C   0  0  0  0  0  0  0  0  0  0  0  0
  -14.4636  -22.3242   39.9949 C   0  0  0  0  0  0  0  0  0  0  0  0
  -15.6814  -22.9246   39.7404 C   0  0  0  0  0  0  0  0  0  0  0  0
  -13.8893  -22.9978   41.1206 C   0  0  0  0  0  0  0  0  0  0  0  0
  -15.8649  -23.9282   40.6522 N   0  0  0  0  0  0  0  0  0  0  0  0
  -14.7798  -24.0039   41.4957 C   0  0  0  0  0  0  0  0  0  0  0  0
  -12.6949  -22.8491   41.8605 C   0  0  0  0  0  0  0  0  0  0  0  0
  -14.5376  -24.8702   42.5659 C   0  0  0  0  0  0  0  0  0  0  0  0
  -12.4370  -23.7107   42.9336 C   0  0  0  0  0  0  0  0  0  0  0  0
  -13.3474  -24.7076   43.2759 C   0  0  0  0  0  0  0  0  0  0  0  0
  -11.5729  -19.9982   41.7424 N   0  0  0  0  0  0  0  0  0  0  0  0
  1  2  2  0
  1  3  1  0
  4  1  1  0
  5  4  1  0
  6  5  1  0
  5  8  1  6
  6  7  2  0
 13  6  1  0
  8  9  1  0
  9 10  1  0
 10 11  1  0
 11 12  1  0
 14 13  1  0
 15 14  1  0
 14 17  1  6
 15 16  2  0
 22 15  1  0
 17 18  1  0
 18 19  1  0
 19 20  1  0
 20 21  1  0
 23 22  1  0
 24 23  1  0
 23 26  1  1
 24 25  2  0
 33 24  1  0
 26 27  1  0
 27 28  1  0
 28 29  1  0
 29 30  1  0
 30 31  2  0
 30 32  1  0
 34 33  1  0
 35 34  1  0
 34 37  1  6
 35 36  2  0
 45 35  1  0
 37 38  1  0
 38 39  2  0
 38 40  1  0
 39 41  1  0
 40 42  2  0
 41 43  2  0
 42 43  1  0
 43 44  1  0
 46 45  1  0
 47 46  1  0
 46 49  1  6
 47 48  2  0
 51 47  1  0
 49 50  1  0
 52 51  1  0
 53 52  1  0
 52 55  1  1
 53 54  2  0
 63 53  1  0
 55 56  1  0
 56 57  1  0
 57 58  1  0
 58 59  1  0
 59 60  2  0
 59 61  1  0
 62 64  2  0
 62 65  1  0
 71 62  1  0
 65 63  1  0
 65 66  1  0
 65 70  1  6
 66 69  1  0
 67 68  1  0
 69 67  1  0
 68102  2  0
 72 71  1  0
 73 72  1  0
 72 75  1  6
 73 74  2  0
 80 73  1  0
 75 76  1  0
 76 77  1  0
 77 78  2  0
 77 79  1  0
 81 80  1  0
 82 81  1  0
 81 84  1  6
 82 83  2  0
 88 82  1  0
 84 85  1  0
 85 86  1  6
 85 87  1  0
 89 88  1  0
 90 89  1  0
 89 92  1  6
 90 91  2  0
 97 90  1  0
 92 93  1  0
 93 94  1  6
 93 95  1  0
 96 98  2  0
 99 96  1  0
 96105  1  0
 97 99  1  0
 99100  1  0
 99104  1  6
100103  1  0
102101  1  0
101103  1  0
105106  1  0
106107  1  0
106109  1  1
107108  2  0
107116  1  0
109110  1  0
110111  2  0
110112  1  0
111113  1  0
112114  2  0
113115  2  0
114115  1  0
116117  1  0
117118  1  0
117120  1  6
118119  2  0
118130  1  0
120121  1  0
121122  2  0
121123  1  0
122124  1  0
123125  2  0
123126  1  0
124125  1  0
125127  1  0
126128  2  0
127129  2  0
128129  1  0
M  CHG  4  12   1  21   1  31   1  60   1
M  END
$$$$
