
     RDKit          3D

130134  0  0  0  0  0  0  0  0999 V2000
  -16.0034  -24.8802   34.6046 C   0  0  0  0  0  0  0  0  0  0  0  0
  -16.5740  -23.8019   34.4879 O   0  0  0  0  0  0  0  0  0  0  0  0
  -16.0070  -25.6590   35.8962 C   0  0  0  0  0  0  0  0  0  0  0  0
  -15.2787  -25.4516   33.5853 N   0  0  0  0  0  0  0  0  0  0  0  0
  -15.3547  -24.9516   32.2110 C   0  0  2  0  0  0  0  0  0  0  0  0
  -16.8176  -25.0484   31.7026 C   0  0  0  0  0  0  0  0  0  0  0  0
  -17.6482  -25.8234   32.1630 O   0  0  0  0  0  0  0  0  0  0  0  0
  -14.3260  -25.6307   31.2855 C   0  0  0  0  0  0  0  0  0  0  0  0
  -14.2065  -27.1341   31.5814 C   0  0  0  0  0  0  0  0  0  0  0  0
  -14.1669  -27.5092   33.0662 C   0  0  0  0  0  0  0  0  0  0  0  0
  -15.3023  -28.4244   33.4965 C   0  0  0  0  0  0  0  0  0  0  0  0
  -15.0631  -28.8621   34.8952 N   0  0  0  0  0  4  0  0  0  0  0  0
  -17.0558  -24.2410   30.6023 N   0  0  0  0  0  0  0  0  0  0  0  0
  -18.3683  -24.1226   29.9392 C   0  0  2  0  0  0  0  0  0  0  0  0
  -19.0586  -22.9574   30.7119 C   0  0  0  0  0  0  0  0  0  0  0  0
  -20.2865  -22.7859   30.6510 O   0  0  0  0  0  0  0  0  0  0  0  0
  -19.1572  -25.4505   29.8789 C   0  0  0  0  0  0  0  0  0  0  0  0
  -18.4177  -26.6645   30.4716 C   0  0  0  0  0  0  0  0  0  0  0  0
  -19.2509  -27.9472   30.3224 C   0  0  0  0  0  0  0  0  0  0  0  0
  -18.5422  -29.2039   30.8275 C   0  0  0  0  0  0  0  0  0  0  0  0
  -19.3506  -30.4099   30.5425 N   0  0  0  0  0  4  0  0  0  0  0  0
  -18.2494  -21.9960   31.2755 N   0  0  0  0  0  0  0  0  0  0  0  0
  -18.7839  -20.8218   31.9767 C   0  0  2  0  0  0  0  0  0  0  0  0
  -17.6089  -20.0299   32.6047 C   0  0  0  0  0  0  0  0  0  0  0  0
  -16.7585  -20.5530   33.3108 O   0  0  0  0  0  0  0  0  0  0  0  0
  -19.8263  -21.2225   33.0293 C   0  0  0  0  0  0  0  0  0  0  0  0
  -19.3225  -21.1090   34.4768 C   0  0  0  0  0  0  0  0  0  0  0  0
  -20.2610  -20.2859   35.3547 C   0  0  0  0  0  0  0  0  0  0  0  0
  -19.7159  -20.0943   36.7056 N   0  0  0  0  0  0  0  0  0  0  0  0
  -20.2431  -19.3122   37.6555 C   0  0  0  0  0  0  0  0  0  0  0  0
  -19.7000  -19.1991   38.8694 N   0  0  0  0  0  4  0  0  0  0  0  0
  -21.3535  -18.6175   37.3826 N   0  0  0  0  0  0  0  0  0  0  0  0
  -17.6888  -18.6597   32.3893 N   0  0  0  0  0  0  0  0  0  0  0  0
  -16.6679  -17.7661   32.9492 C   0  0  2  0  0  0  0  0  0  0  0  0
  -16.4046  -18.2919   34.3718 C   0  0  0  0  0  0  0  0  0  0  0  0
  -17.3295  -18.6760   35.0891 O   0  0  0  0  0  0  0  0  0  0  0  0
  -17.1645  -16.3188   33.0264 C   0  0  0  0  0  0  0  0  0  0  0  0
  -17.9217  -15.9083   31.7854 C   0  0  0  0  0  0  0  0  0  0  0  0
  -18.4892  -14.6290   31.6707 C   0  0  0  0  0  0  0  0  0  0  0  0
  -18.0845  -16.8188   30.7326 C   0  0  0  0  0  0  0  0  0  0  0  0
  -19.2092  -14.2710   30.5244 C   0  0  0  0  0  0  0  0  0  0  0  0
  -18.7990  -16.4626   29.5921 C   0  0  0  0  0  0  0  0  0  0  0  0
  -19.3556  -15.1957   29.4919 C   0  0  0  0  0  0  0  0  0  0  0  0
  -20.0321  -14.8945   28.3502 O   0  0  0  0  0  0  0  0  0  0  0  0
  -15.0880  -18.2741   34.7630 N   0  0  0  0  0  0  0  0  0  0  0  0
  -14.6353  -18.8168   36.0456 C   0  0  2  0  0  0  0  0  0  0  0  0
  -13.2507  -18.2646   36.4328 C   0  0  0  0  0  0  0  0  0  0  0  0
  -12.2062  -18.7495   36.0107 O   0  0  0  0  0  0  0  0  0  0  0  0
  -14.5934  -20.3498   36.0015 C   0  0  0  0  0  0  0  0  0  0  0  0
  -14.3192  -20.8575   37.3078 O   0  0  0  0  0  0  0  0  0  0  0  0
  -13.2906  -17.1781   37.2903 N   0  0  0  0  0  0  0  0  0  0  0  0
  -12.4111  -17.0252   38.4605 C   0  0  2  0  0  0  0  0  0  0  0  0
  -13.2121  -16.2862   39.5614 C   0  0  0  0  0  0  0  0  0  0  0  0
  -13.8583  -15.2613   39.3508 O   0  0  0  0  0  0  0  0  0  0  0  0
  -11.0919  -16.3035   38.1069 C   0  0  0  0  0  0  0  0  0  0  0  0
   -9.9416  -16.5434   39.0949 C   0  0  0  0  0  0  0  0  0  0  0  0
   -8.7143  -15.7058   38.7710 C   0  0  0  0  0  0  0  0  0  0  0  0
   -7.6663  -16.5401   38.1890 N   0  0  0  0  0  0  0  0  0  0  0  0
   -6.3669  -16.1983   38.1367 C   0  0  0  0  0  0  0  0  0  0  0  0
   -5.4507  -16.9931   37.5921 N   0  0  0  0  0  4  0  0  0  0  0  0
   -5.9730  -15.0389   38.6583 N   0  0  0  0  0  0  0  0  0  0  0  0
  -12.0271  -18.7202   39.6509 C   0  0  0  0  0  0  0  0  0  0  0  0
  -13.0938  -16.8428   40.8325 N   0  0  0  0  0  0  0  0  0  0  0  0
  -12.1725  -18.0848   38.5977 O   0  0  0  0  0  0  0  0  0  0  0  0
  -12.6321  -18.2470   41.0198 C   0  0  1  0  0  0  0  0  0  0  0  0
  -13.8511  -19.1505   41.3818 C   0  0  0  0  0  0  0  0  0  0  0  0
  -16.2542  -19.2073   40.4910 C   0  0  0  0  0  0  0  0  0  0  0  0
  -16.5045  -17.7329   40.3580 C   0  0  0  0  0  0  0  0  0  0  0  0
  -14.7881  -19.5414   40.2268 C   0  0  0  0  0  0  0  0  0  0  0  0
  -11.6717  -18.3183   42.2244 C   0  0  0  0  0  0  0  0  0  0  0  0
  -11.4742  -19.9645   39.5532 N   0  0  0  0  0  0  0  0  0  0  0  0
  -10.1811  -20.3116   40.1552 C   0  0  2  0  0  0  0  0  0  0  0  0
   -9.1296  -20.3810   39.0216 C   0  0  0  0  0  0  0  0  0  0  0  0
   -8.7008  -21.4507   38.5857 O   0  0  0  0  0  0  0  0  0  0  0  0
  -10.2917  -21.6003   40.9765 C   0  0  0  0  0  0  0  0  0  0  0  0
  -10.4800  -21.4255   42.4896 C   0  0  0  0  0  0  0  0  0  0  0  0
  -10.7140  -19.9732   42.8515 C   0  0  0  0  0  0  0  0  0  0  0  0
  -10.9459  -19.0854   42.0405 O   0  0  0  0  0  0  0  0  0  0  0  0
  -10.7010  -19.7117   44.1888 N   0  0  0  0  0  0  0  0  0  0  0  0
   -8.7380  -19.2326   38.3862 N   0  0  0  0  0  0  0  0  0  0  0  0
   -8.7856  -17.8485   38.8844 C   0  0  2  0  0  0  0  0  0  0  0  0
   -8.9953  -16.8424   37.7168 C   0  0  0  0  0  0  0  0  0  0  0  0
   -8.6548  -15.6566   37.7430 O   0  0  0  0  0  0  0  0  0  0  0  0
   -7.6288  -17.4989   39.8309 C   0  0  0  0  0  0  0  0  0  0  0  0
   -6.1884  -17.5152   39.2749 C   0  0  1  0  0  0  0  0  0  0  0  0
   -5.3182  -18.4008   40.1759 C   0  0  0  0  0  0  0  0  0  0  0  0
   -6.0898  -18.0331   37.8416 C   0  0  0  0  0  0  0  0  0  0  0  0
   -9.7412  -17.3738   36.6787 N   0  0  0  0  0  0  0  0  0  0  0  0
   -9.9138  -16.6833   35.4103 C   0  0  2  0  0  0  0  0  0  0  0  0
  -11.2671  -15.9411   35.2942 C   0  0  0  0  0  0  0  0  0  0  0  0
  -11.4061  -15.0130   34.4916 O   0  0  0  0  0  0  0  0  0  0  0  0
   -9.7519  -17.6561   34.2347 C   0  0  0  0  0  0  0  0  0  0  0  0
   -9.1558  -19.0263   34.6362 C   0  0  1  0  0  0  0  0  0  0  0  0
   -7.6528  -18.8850   34.8852 C   0  0  0  0  0  0  0  0  0  0  0  0
   -9.8302  -19.6165   35.8763 C   0  0  0  0  0  0  0  0  0  0  0  0
  -13.8893  -14.5242   36.2227 C   0  0  0  0  0  0  0  0  0  0  0  0
  -12.3090  -16.4399   36.0464 N   0  0  0  0  0  0  0  0  0  0  0  0
  -14.9447  -14.0442   36.6557 O   0  0  0  0  0  0  0  0  0  0  0  0
  -13.7396  -16.0504   35.8761 C   0  0  1  0  0  0  0  0  0  0  0  0
  -14.5702  -16.8850   36.8953 C   0  0  0  0  0  0  0  0  0  0  0  0
  -16.8278  -17.6719   37.8309 C   0  0  0  0  0  0  0  0  0  0  0  0
  -16.7513  -17.0795   39.2124 C   0  0  0  0  0  0  0  0  0  0  0  0
  -16.1009  -16.8257   36.7730 C   0  0  0  0  0  0  0  0  0  0  0  0
  -14.1589  -16.3565   34.4249 C   0  0  0  0  0  0  0  0  0  0  0  0
  -12.7916  -13.7250   35.9814 N   0  0  0  0  0  0  0  0  0  0  0  0
  -11.4304  -14.0879   36.4304 C   0  0  2  0  0  0  0  0  0  0  0  0
  -11.2355  -13.7472   37.9249 C   0  0  0  0  0  0  0  0  0  0  0  0
  -10.4739  -14.3750   38.6553 O   0  0  0  0  0  0  0  0  0  0  0  0
  -10.4106  -13.3161   35.5632 C   0  0  0  0  0  0  0  0  0  0  0  0
   -9.0033  -13.2834   36.1124 C   0  0  0  0  0  0  0  0  0  0  0  0
   -8.5184  -12.1351   36.7593 C   0  0  0  0  0  0  0  0  0  0  0  0
   -8.1428  -14.3797   35.9483 C   0  0  0  0  0  0  0  0  0  0  0  0
   -7.2103  -12.0920   37.2402 C   0  0  0  0  0  0  0  0  0  0  0  0
   -6.8345  -14.3344   36.4368 C   0  0  0  0  0  0  0  0  0  0  0  0
   -6.3674  -13.1908   37.0816 C   0  0  0  0  0  0  0  0  0  0  0  0
  -11.8301  -12.5703   38.3191 N   0  0  0  0  0  0  0  0  0  0  0  0
  -11.7153  -12.0516   39.6863 C   0  0  2  0  0  0  0  0  0  0  0  0
  -12.9121  -12.5191   40.5360 C   0  0  0  0  0  0  0  0  0  0  0  0
  -13.0859  -12.2117   41.7114 O   0  0  0  0  0  0  0  0  0  0  0  0
  -11.6344  -10.5132   39.6655 C   0  0  0  0  0  0  0  0  0  0  0  0
  -11.4688   -9.9331   41.0402 C   0  0  0  0  0  0  0  0  0  0  0  0
  -10.2748   -9.5304   41.6061 C   0  0  0  0  0  0  0  0  0  0  0  0
  -12.4984   -9.6747   42.0014 C   0  0  0  0  0  0  0  0  0  0  0  0
  -10.5356   -9.0380   42.8558 N   0  0  0  0  0  0  0  0  0  0  0  0
  -11.8860   -9.1005   43.1154 C   0  0  0  0  0  0  0  0  0  0  0  0
  -13.8967   -9.8746   42.0334 C   0  0  0  0  0  0  0  0  0  0  0  0
  -12.5965   -8.7120   44.2550 C   0  0  0  0  0  0  0  0  0  0  0  0
  -14.6226   -9.4885   43.1667 C   0  0  0  0  0  0  0  0  0  0  0  0
  -13.9773   -8.9131   44.2586 C   0  0  0  0  0  0  0  0  0  0  0  0
  -13.8256  -13.3100   39.8970 N   0  0  0  0  0  0  0  0  0  0  0  0
  1  2  2  0
  1  3  1  0
  4  1  1  0
  5  4  1  0
  6  5  1  0
  5  8  1  6
  6  7  2  0
 13  6  1  0
  8  9  1  0
  9 10  1  0
 10 11  1  0
 11 12  1  0
 14 13  1  0
 15 14  1  0
 14 17  1  1
 15 16  2  0
 22 15  1  0
 17 18  1  0
 18 19  1  0
 19 20  1  0
 20 21  1  0
 23 22  1  0
 24 23  1  0
 23 26  1  1
 24 25  2  0
 33 24  1  0
 26 27  1  0
 27 28  1  0
 28 29  1  0
 29 30  1  0
 30 31  2  0
 30 32  1  0
 34 33  1  0
 35 34  1  0
 34 37  1  1
 35 36  2  0
 45 35  1  0
 37 38  1  0
 38 39  2  0
 38 40  1  0
 39 41  1  0
 40 42  2  0
 41 43  2  0
 42 43  1  0
 43 44  1  0
 46 45  1  0
 47 46  1  0
 46 49  1  6
 47 48  2  0
 51 47  1  0
 49 50  1  0
 52 51  1  0
 53 52  1  0
 52 55  1  6
 53 54  2  0
 63 53  1  0
 55 56  1  0
 56 57  1  0
 57 58  1  0
 58 59  1  0
 59 60  2  0
 59 61  1  0
 62 64  2  0
 62 65  1  0
 71 62  1  0
 65 63  1  0
 65 66  1  0
 65 70  1  1
 66 69  1  0
 67 68  1  0
 69 67  1  0
 68102  2  0
 72 71  1  0
 73 72  1  0
 72 75  1  6
 73 74  2  0
 80 73  1  0
 75 76  1  0
 76 77  1  0
 77 78  2  0
 77 79  1  0
 81 80  1  0
 82 81  1  0
 81 84  1  6
 82 83  2  0
 88 82  1  0
 84 85  1  0
 85 86  1  1
 85 87  1  0
 89 88  1  0
 90 89  1  0
 89 92  1  6
 90 91  2  0
 97 90  1  0
 92 93  1  0
 93 94  1  1
 93 95  1  0
 96 98  2  0
 99 96  1  0
 96105  1  0
 97 99  1  0
 99100  1  0
 99104  1  6
100103  1  0
102101  1  0
101103  1  0
105106  1  0
106107  1  0
106109  1  6
107108  2  0
107116  1  0
109110  1  0
110111  2  0
110112  1  0
111113  1  0
112114  2  0
113115  2  0
114115  1  0
116117  1  0
117118  1  0
117120  1  6
118119  2  0
118130  1  0
120121  1  0
121122  2  0
121123  1  0
122124  1  0
123125  2  0
123126  1  0
124125  1  0
125127  1  0
126128  2  0
127129  2  0
128129  1  0
M  CHG  4  12   1  21   1  31   1  60   1
M  END
$$$$
