
     RDKit          3D

130134  0  0  0  0  0  0  0  0999 V2000
  -13.2569  -30.2027   33.7245 C   0  0  0  0  0  0  0  0  0  0  0  0
  -12.0452  -30.0193   33.7092 O   0  0  0  0  0  0  0  0  0  0  0  0
  -13.8677  -31.5708   33.5524 C   0  0  0  0  0  0  0  0  0  0  0  0
  -14.1622  -29.1763   33.8578 N   0  0  0  0  0  0  0  0  0  0  0  0
  -13.8057  -27.7893   33.5517 C   0  0  2  0  0  0  0  0  0  0  0  0
  -14.9041  -26.8379   34.0959 C   0  0  0  0  0  0  0  0  0  0  0  0
  -16.1044  -27.0115   33.9174 O   0  0  0  0  0  0  0  0  0  0  0  0
  -13.4873  -27.5850   32.0575 C   0  0  0  0  0  0  0  0  0  0  0  0
  -13.2005  -26.1093   31.7380 C   0  0  0  0  0  0  0  0  0  0  0  0
  -11.7364  -25.6806   31.8778 C   0  0  0  0  0  0  0  0  0  0  0  0
  -11.2224  -24.8665   30.7009 C   0  0  0  0  0  0  0  0  0  0  0  0
  -10.9831  -23.4713   31.1497 N   0  0  0  0  0  4  0  0  0  0  0  0
  -14.3801  -25.7144   34.7143 N   0  0  0  0  0  0  0  0  0  0  0  0
  -15.2036  -24.6357   35.2925 C   0  0  2  0  0  0  0  0  0  0  0  0
  -15.1765  -23.5319   34.1914 C   0  0  0  0  0  0  0  0  0  0  0  0
  -14.2297  -23.4450   33.3933 O   0  0  0  0  0  0  0  0  0  0  0  0
  -14.7480  -24.1919   36.7013 C   0  0  0  0  0  0  0  0  0  0  0  0
  -13.8119  -25.1843   37.4160 C   0  0  0  0  0  0  0  0  0  0  0  0
  -14.4041  -25.6332   38.7613 C   0  0  0  0  0  0  0  0  0  0  0  0
  -15.8963  -25.9589   38.6990 C   0  0  0  0  0  0  0  0  0  0  0  0
  -16.3867  -26.4161   40.0180 N   0  0  0  0  0  4  0  0  0  0  0  0
  -16.1123  -22.5248   34.2723 N   0  0  0  0  0  0  0  0  0  0  0  0
  -16.7093  -21.9003   33.0849 C   0  0  2  0  0  0  0  0  0  0  0  0
  -16.2959  -20.4073   33.0374 C   0  0  0  0  0  0  0  0  0  0  0  0
  -16.1804  -19.7837   31.9917 O   0  0  0  0  0  0  0  0  0  0  0  0
  -18.2345  -22.0687   33.0685 C   0  0  0  0  0  0  0  0  0  0  0  0
  -18.9131  -21.4609   31.8307 C   0  0  0  0  0  0  0  0  0  0  0  0
  -20.2890  -22.0665   31.5675 C   0  0  0  0  0  0  0  0  0  0  0  0
  -21.2087  -21.0901   30.9678 N   0  0  0  0  0  0  0  0  0  0  0  0
  -21.7872  -21.2001   29.7657 C   0  0  0  0  0  0  0  0  0  0  0  0
  -22.7379  -20.3597   29.3518 N   0  0  0  0  0  4  0  0  0  0  0  0
  -21.4019  -22.1857   28.9471 N   0  0  0  0  0  0  0  0  0  0  0  0
  -15.9526  -19.8894   34.2800 N   0  0  0  0  0  0  0  0  0  0  0  0
  -15.6401  -18.4623   34.4215 C   0  0  2  0  0  0  0  0  0  0  0  0
  -16.7480  -17.8920   35.3252 C   0  0  0  0  0  0  0  0  0  0  0  0
  -17.9289  -17.9147   34.9750 O   0  0  0  0  0  0  0  0  0  0  0  0
  -15.6657  -17.7413   33.0699 C   0  0  0  0  0  0  0  0  0  0  0  0
  -14.3759  -17.0059   32.7909 C   0  0  0  0  0  0  0  0  0  0  0  0
  -13.2538  -17.1676   33.6195 C   0  0  0  0  0  0  0  0  0  0  0  0
  -14.2930  -16.1288   31.7012 C   0  0  0  0  0  0  0  0  0  0  0  0
  -12.0728  -16.4606   33.3626 C   0  0  0  0  0  0  0  0  0  0  0  0
  -13.1183  -15.4269   31.4446 C   0  0  0  0  0  0  0  0  0  0  0  0
  -12.0172  -15.5950   32.2717 C   0  0  0  0  0  0  0  0  0  0  0  0
  -10.8900  -14.8956   31.9680 O   0  0  0  0  0  0  0  0  0  0  0  0
  -16.3106  -17.3534   36.5106 N   0  0  0  0  0  0  0  0  0  0  0  0
  -14.9856  -17.6344   37.0675 C   0  0  2  0  0  0  0  0  0  0  0  0
  -14.4996  -16.4853   37.9704 C   0  0  0  0  0  0  0  0  0  0  0  0
  -15.2414  -15.9060   38.7566 O   0  0  0  0  0  0  0  0  0  0  0  0
  -13.9684  -17.8851   35.9467 C   0  0  0  0  0  0  0  0  0  0  0  0
  -14.5896  -18.6250   34.8950 O   0  0  0  0  0  0  0  0  0  0  0  0
  -13.1598  -16.1701   37.8189 N   0  0  0  0  0  0  0  0  0  0  0  0
  -12.3745  -15.4286   38.8187 C   0  0  2  0  0  0  0  0  0  0  0  0
  -13.1224  -14.1065   39.1225 C   0  0  0  0  0  0  0  0  0  0  0  0
  -13.4718  -13.3143   38.2490 O   0  0  0  0  0  0  0  0  0  0  0  0
  -10.9201  -15.1898   38.3562 C   0  0  0  0  0  0  0  0  0  0  0  0
   -9.8494  -15.4999   39.4118 C   0  0  0  0  0  0  0  0  0  0  0  0
   -8.6856  -14.5222   39.3626 C   0  0  0  0  0  0  0  0  0  0  0  0
   -7.8072  -14.7162   40.5132 N   0  0  0  0  0  0  0  0  0  0  0  0
   -6.6057  -15.3173   40.4567 C   0  0  0  0  0  0  0  0  0  0  0  0
   -5.8003  -15.3824   41.5126 N   0  0  0  0  0  4  0  0  0  0  0  0
   -6.1937  -15.8514   39.3094 N   0  0  0  0  0  0  0  0  0  0  0  0
  -12.9536  -16.2672   40.7860 C   0  0  0  0  0  0  0  0  0  0  0  0
  -13.3169  -13.8523   40.4778 N   0  0  0  0  0  0  0  0  0  0  0  0
  -13.3814  -16.4354   39.6359 O   0  0  0  0  0  0  0  0  0  0  0  0
  -12.9854  -14.8747   41.5098 C   0  0  1  0  0  0  0  0  0  0  0  0
  -14.0985  -14.8895   42.6024 C   0  0  0  0  0  0  0  0  0  0  0  0
  -16.6507  -14.7129   42.4377 C   0  0  0  0  0  0  0  0  0  0  0  0
  -16.7584  -13.6752   41.3580 C   0  0  0  0  0  0  0  0  0  0  0  0
  -15.4174  -15.5899   42.2353 C   0  0  0  0  0  0  0  0  0  0  0  0
  -11.6811  -14.4768   42.2304 C   0  0  0  0  0  0  0  0  0  0  0  0
  -12.6179  -17.3859   41.4926 N   0  0  0  0  0  0  0  0  0  0  0  0
  -11.2457  -17.6701   41.9304 C   0  0  2  0  0  0  0  0  0  0  0  0
  -10.6699  -18.7739   41.0109 C   0  0  0  0  0  0  0  0  0  0  0  0
  -10.5469  -19.9424   41.3820 O   0  0  0  0  0  0  0  0  0  0  0  0
  -11.2127  -18.0262   43.4202 C   0  0  0  0  0  0  0  0  0  0  0  0
  -11.4694  -16.8719   44.3987 C   0  0  0  0  0  0  0  0  0  0  0  0
  -11.9176  -15.6216   43.6703 C   0  0  0  0  0  0  0  0  0  0  0  0
  -11.2228  -14.6259   43.5104 O   0  0  0  0  0  0  0  0  0  0  0  0
  -13.1702  -15.6919   43.1386 N   0  0  0  0  0  0  0  0  0  0  0  0
  -10.3931  -18.4907   39.6997 N   0  0  0  0  0  0  0  0  0  0  0  0
  -10.1033  -17.1845   39.0864 C   0  0  2  0  0  0  0  0  0  0  0  0
  -10.5876  -17.1423   37.6089 C   0  0  0  0  0  0  0  0  0  0  0  0
  -10.1239  -16.3993   36.7396 O   0  0  0  0  0  0  0  0  0  0  0  0
   -8.6573  -16.7159   39.2999 C   0  0  0  0  0  0  0  0  0  0  0  0
   -7.5073  -17.6124   38.7920 C   0  0  1  0  0  0  0  0  0  0  0  0
   -7.9019  -19.0824   38.9833 C   0  0  0  0  0  0  0  0  0  0  0  0
   -7.1587  -17.3891   37.3219 C   0  0  0  0  0  0  0  0  0  0  0  0
  -11.7043  -17.9301   37.3881 N   0  0  0  0  0  0  0  0  0  0  0  0
  -12.2258  -18.1862   36.0547 C   0  0  2  0  0  0  0  0  0  0  0  0
  -13.4390  -17.2974   35.6885 C   0  0  0  0  0  0  0  0  0  0  0  0
  -13.7396  -17.1033   34.5066 O   0  0  0  0  0  0  0  0  0  0  0  0
  -12.5972  -19.6660   35.8907 C   0  0  0  0  0  0  0  0  0  0  0  0
  -12.8501  -20.3981   37.2301 C   0  0  1  0  0  0  0  0  0  0  0  0
  -12.9271  -21.9072   36.9899 C   0  0  0  0  0  0  0  0  0  0  0  0
  -11.7723  -20.0968   38.2735 C   0  0  0  0  0  0  0  0  0  0  0  0
  -15.3909  -14.8634   35.7944 C   0  0  0  0  0  0  0  0  0  0  0  0
  -14.2046  -16.8381   36.7387 N   0  0  0  0  0  0  0  0  0  0  0  0
  -16.0383  -13.8463   36.0739 O   0  0  0  0  0  0  0  0  0  0  0  0
  -15.5495  -16.2074   36.5947 C   0  0  1  0  0  0  0  0  0  0  0  0
  -16.0648  -15.8851   38.0285 C   0  0  0  0  0  0  0  0  0  0  0  0
  -17.9311  -15.1200   39.6169 C   0  0  0  0  0  0  0  0  0  0  0  0
  -17.3106  -13.8561   40.1486 C   0  0  0  0  0  0  0  0  0  0  0  0
  -17.5245  -15.4249   38.1658 C   0  0  0  0  0  0  0  0  0  0  0  0
  -16.4799  -17.2022   35.8734 C   0  0  0  0  0  0  0  0  0  0  0  0
  -14.5175  -14.8790   34.7272 N   0  0  0  0  0  0  0  0  0  0  0  0
  -13.6824  -16.0546   34.4009 C   0  0  2  0  0  0  0  0  0  0  0  0
  -13.9591  -17.2150   35.3829 C   0  0  0  0  0  0  0  0  0  0  0  0
  -13.6904  -17.1509   36.5794 O   0  0  0  0  0  0  0  0  0  0  0  0
  -12.1981  -15.6308   34.4703 C   0  0  0  0  0  0  0  0  0  0  0  0
  -11.4239  -15.8097   33.1851 C   0  0  0  0  0  0  0  0  0  0  0  0
  -10.1482  -15.2412   33.0378 C   0  0  0  0  0  0  0  0  0  0  0  0
  -11.9808  -16.5075   32.1025 C   0  0  0  0  0  0  0  0  0  0  0  0
   -9.4447  -15.3797   31.8419 C   0  0  0  0  0  0  0  0  0  0  0  0
  -11.2701  -16.6488   30.9079 C   0  0  0  0  0  0  0  0  0  0  0  0
  -10.0028  -16.0844   30.7765 C   0  0  0  0  0  0  0  0  0  0  0  0
  -14.7054  -18.2413   34.8501 N   0  0  0  0  0  0  0  0  0  0  0  0
  -14.1316  -19.5584   34.5543 C   0  0  2  0  0  0  0  0  0  0  0  0
  -14.7325  -20.1212   33.2523 C   0  0  0  0  0  0  0  0  0  0  0  0
  -14.4460  -21.2157   32.7767 O   0  0  0  0  0  0  0  0  0  0  0  0
  -14.3842  -20.5235   35.7284 C   0  0  0  0  0  0  0  0  0  0  0  0
  -15.3684  -21.6014   35.3776 C   0  0  0  0  0  0  0  0  0  0  0  0
  -15.4585  -22.2442   34.1583 C   0  0  0  0  0  0  0  0  0  0  0  0
  -16.3698  -22.1706   36.2285 C   0  0  0  0  0  0  0  0  0  0  0  0
  -16.4591  -23.1744   34.2354 N   0  0  0  0  0  0  0  0  0  0  0  0
  -17.0207  -23.1605   35.4920 C   0  0  0  0  0  0  0  0  0  0  0  0
  -16.7885  -21.9393   37.5579 C   0  0  0  0  0  0  0  0  0  0  0  0
  -18.0622  -23.9328   36.0146 C   0  0  0  0  0  0  0  0  0  0  0  0
  -17.8287  -22.7064   38.0965 C   0  0  0  0  0  0  0  0  0  0  0  0
  -18.4519  -23.6901   37.3324 C   0  0  0  0  0  0  0  0  0  0  0  0
  -15.6536  -19.3277   32.6277 N   0  0  0  0  0  0  0  0  0  0  0  0
  1  2  2  0
  1  3  1  0
  4  1  1  0
  5  4  1  0
  6  5  1  0
  5  8  1  6
  6  7  2  0
 13  6  1  0
  8  9  1  0
  9 10  1  0
 10 11  1  0
 11 12  1  0
 14 13  1  0
 15 14  1  0
 14 17  1  1
 15 16  2  0
 22 15  1  0
 17 18  1  0
 18 19  1  0
 19 20  1  0
 20 21  1  0
 23 22  1  0
 24 23  1  0
 23 26  1  1
 24 25  2  0
 33 24  1  0
 26 27  1  0
 27 28  1  0
 28 29  1  0
 29 30  1  0
 30 31  2  0
 30 32  1  0
 34 33  1  0
 35 34  1  0
 34 37  1  6
 35 36  2  0
 45 35  1  0
 37 38  1  0
 38 39  2  0
 38 40  1  0
 39 41  1  0
 40 42  2  0
 41 43  2  0
 42 43  1  0
 43 44  1  0
 46 45  1  0
 47 46  1  0
 46 49  1  6
 47 48  2  0
 51 47  1  0
 49 50  1  0
 52 51  1  0
 53 52  1  0
 52 55  1  6
 53 54  2  0
 63 53  1  0
 55 56  1  0
 56 57  1  0
 57 58  1  0
 58 59  1  0
 59 60  2  0
 59 61  1  0
 62 64  2  0
 62 65  1  0
 71 62  1  0
 65 63  1  0
 65 66  1  0
 65 70  1  1
 66 69  1  0
 67 68  1  0
 69 67  1  0
 68102  2  0
 72 71  1  0
 73 72  1  0
 72 75  1  1
 73 74  2  0
 80 73  1  0
 75 76  1  0
 76 77  1  0
 77 78  2  0
 77 79  1  0
 81 80  1  0
 82 81  1  0
 81 84  1  6
 82 83  2  0
 88 82  1  0
 84 85  1  0
 85 86  1  6
 85 87  1  0
 89 88  1  0
 90 89  1  0
 89 92  1  1
 90 91  2  0
 97 90  1  0
 92 93  1  0
 93 94  1  6
 93 95  1  0
 96 98  2  0
 99 96  1  0
 96105  1  0
 97 99  1  0
 99100  1  0
 99104  1  6
100103  1  0
102101  1  0
101103  1  0
105106  1  0
106107  1  0
106109  1  1
107108  2  0
107116  1  0
109110  1  0
110111  2  0
110112  1  0
111113  1  0
112114  2  0
113115  2  0
114115  1  0
116117  1  0
117118  1  0
117120  1  1
118119  2  0
118130  1  0
120121  1  0
121122  2  0
121123  1  0
122124  1  0
123125  2  0
123126  1  0
124125  1  0
125127  1  0
126128  2  0
127129  2  0
128129  1  0
M  CHG  4  12   1  21   1  31   1  60   1
M  END
$$$$
