
     RDKit          3D

130134  0  0  0  0  0  0  0  0999 V2000
  -17.2308  -30.8773   30.2784 C   0  0  0  0  0  0  0  0  0  0  0  0
  -16.0826  -30.9165   29.8516 O   0  0  0  0  0  0  0  0  0  0  0  0
  -18.0264  -32.1253   30.5687 C   0  0  0  0  0  0  0  0  0  0  0  0
  -17.9052  -29.6977   30.4896 N   0  0  0  0  0  0  0  0  0  0  0  0
  -17.2013  -28.4533   30.8064 C   0  0  2  0  0  0  0  0  0  0  0  0
  -17.0496  -28.3190   32.3449 C   0  0  0  0  0  0  0  0  0  0  0  0
  -17.8258  -28.8185   33.1515 O   0  0  0  0  0  0  0  0  0  0  0  0
  -17.8513  -27.2281   30.1340 C   0  0  0  0  0  0  0  0  0  0  0  0
  -17.0039  -25.9609   30.3298 C   0  0  0  0  0  0  0  0  0  0  0  0
  -17.5997  -24.6766   29.7446 C   0  0  0  0  0  0  0  0  0  0  0  0
  -16.7691  -23.4341   30.0245 C   0  0  0  0  0  0  0  0  0  0  0  0
  -17.4267  -22.2635   29.3898 N   0  0  0  0  0  4  0  0  0  0  0  0
  -16.0042  -27.4858   32.7084 N   0  0  0  0  0  0  0  0  0  0  0  0
  -15.6292  -27.2003   34.1063 C   0  0  2  0  0  0  0  0  0  0  0  0
  -15.5111  -25.6458   34.1375 C   0  0  0  0  0  0  0  0  0  0  0  0
  -14.7432  -25.0452   33.3692 O   0  0  0  0  0  0  0  0  0  0  0  0
  -14.3843  -27.9795   34.5883 C   0  0  0  0  0  0  0  0  0  0  0  0
  -14.4388  -28.4307   36.0598 C   0  0  0  0  0  0  0  0  0  0  0  0
  -13.5409  -27.5496   36.9426 C   0  0  0  0  0  0  0  0  0  0  0  0
  -13.4692  -28.0082   38.3991 C   0  0  0  0  0  0  0  0  0  0  0  0
  -12.2672  -28.8405   38.6263 N   0  0  0  0  0  4  0  0  0  0  0  0
  -16.1069  -24.9801   35.1857 N   0  0  0  0  0  0  0  0  0  0  0  0
  -15.9454  -23.5368   35.4021 C   0  0  2  0  0  0  0  0  0  0  0  0
  -14.6943  -23.2949   36.2844 C   0  0  0  0  0  0  0  0  0  0  0  0
  -14.5183  -23.8589   37.3551 O   0  0  0  0  0  0  0  0  0  0  0  0
  -17.2057  -22.9171   36.0207 C   0  0  0  0  0  0  0  0  0  0  0  0
  -18.5024  -23.2737   35.2768 C   0  0  0  0  0  0  0  0  0  0  0  0
  -18.4938  -22.7872   33.8303 C   0  0  0  0  0  0  0  0  0  0  0  0
  -19.7416  -23.1276   33.1332 N   0  0  0  0  0  0  0  0  0  0  0  0
  -20.9550  -23.1945   33.6944 C   0  0  0  0  0  0  0  0  0  0  0  0
  -21.6940  -22.1079   33.9280 N   0  0  0  0  0  4  0  0  0  0  0  0
  -21.4483  -24.3906   34.0347 N   0  0  0  0  0  0  0  0  0  0  0  0
  -13.8636  -22.2914   35.8015 N   0  0  0  0  0  0  0  0  0  0  0  0
  -12.8651  -21.6750   36.6832 C   0  0  2  0  0  0  0  0  0  0  0  0
  -13.5693  -20.4547   37.3029 C   0  0  0  0  0  0  0  0  0  0  0  0
  -14.3718  -20.5857   38.2284 O   0  0  0  0  0  0  0  0  0  0  0  0
  -11.6328  -21.2079   35.9018 C   0  0  0  0  0  0  0  0  0  0  0  0
  -10.5075  -20.7789   36.8139 C   0  0  0  0  0  0  0  0  0  0  0  0
   -9.7399  -19.6373   36.5327 C   0  0  0  0  0  0  0  0  0  0  0  0
  -10.2023  -21.5375   37.9519 C   0  0  0  0  0  0  0  0  0  0  0  0
   -8.6842  -19.2656   37.3743 C   0  0  0  0  0  0  0  0  0  0  0  0
   -9.1538  -21.1673   38.7897 C   0  0  0  0  0  0  0  0  0  0  0  0
   -8.4023  -20.0376   38.4999 C   0  0  0  0  0  0  0  0  0  0  0  0
   -7.3981  -19.7130   39.3589 O   0  0  0  0  0  0  0  0  0  0  0  0
  -13.2472  -19.2471   36.7333 N   0  0  0  0  0  0  0  0  0  0  0  0
  -14.0517  -18.0391   36.9289 C   0  0  2  0  0  0  0  0  0  0  0  0
  -15.3782  -18.1145   36.1500 C   0  0  0  0  0  0  0  0  0  0  0  0
  -15.4523  -18.5809   35.0181 O   0  0  0  0  0  0  0  0  0  0  0  0
  -13.2670  -16.7905   36.5058 C   0  0  0  0  0  0  0  0  0  0  0  0
  -13.8512  -15.6337   37.1056 O   0  0  0  0  0  0  0  0  0  0  0  0
  -16.4714  -17.6159   36.8382 N   0  0  0  0  0  0  0  0  0  0  0  0
  -17.1049  -16.3209   36.5420 C   0  0  2  0  0  0  0  0  0  0  0  0
  -17.6462  -15.7430   37.8734 C   0  0  0  0  0  0  0  0  0  0  0  0
  -17.8315  -16.4271   38.8785 O   0  0  0  0  0  0  0  0  0  0  0  0
  -18.2038  -16.4435   35.4632 C   0  0  0  0  0  0  0  0  0  0  0  0
  -17.9848  -17.5725   34.4462 C   0  0  0  0  0  0  0  0  0  0  0  0
  -18.0232  -18.9495   35.0906 C   0  0  0  0  0  0  0  0  0  0  0  0
  -19.3837  -19.2806   35.5059 N   0  0  0  0  0  0  0  0  0  0  0  0
  -20.3306  -19.7650   34.6831 C   0  0  0  0  0  0  0  0  0  0  0  0
  -21.6244  -19.5344   34.8851 N   0  0  0  0  0  4  0  0  0  0  0  0
  -19.9735  -20.5132   33.6419 N   0  0  0  0  0  0  0  0  0  0  0  0
  -16.8699  -14.1513   35.6356 C   0  0  0  0  0  0  0  0  0  0  0  0
  -17.9670  -14.3887   37.8262 N   0  0  0  0  0  0  0  0  0  0  0  0
  -15.9257  -14.8160   36.0837 O   0  0  0  0  0  0  0  0  0  0  0  0
  -18.0658  -13.6642   36.5280 C   0  0  1  0  0  0  0  0  0  0  0  0
  -17.9285  -12.1305   36.7774 C   0  0  0  0  0  0  0  0  0  0  0  0
  -16.3951  -10.7873   38.3318 C   0  0  0  0  0  0  0  0  0  0  0  0
  -16.4181  -11.6824   39.5371 C   0  0  0  0  0  0  0  0  0  0  0  0
  -16.5105  -11.5983   37.0434 C   0  0  0  0  0  0  0  0  0  0  0  0
  -19.4685  -13.8773   35.9234 C   0  0  0  0  0  0  0  0  0  0  0  0
  -16.7484  -13.6840   34.3587 N   0  0  0  0  0  0  0  0  0  0  0  0
  -17.6334  -14.1085   33.2671 C   0  0  2  0  0  0  0  0  0  0  0  0
  -16.8471  -15.0955   32.3710 C   0  0  0  0  0  0  0  0  0  0  0  0
  -16.3962  -14.7706   31.2713 O   0  0  0  0  0  0  0  0  0  0  0  0
  -18.1879  -12.8953   32.5132 C   0  0  0  0  0  0  0  0  0  0  0  0
  -17.1544  -11.8732   32.0207 C   0  0  0  0  0  0  0  0  0  0  0  0
  -15.7406  -12.3800   32.2187 C   0  0  0  0  0  0  0  0  0  0  0  0
  -15.2417  -12.6345   33.3078 O   0  0  0  0  0  0  0  0  0  0  0  0
  -15.0466  -12.5928   31.0656 N   0  0  0  0  0  0  0  0  0  0  0  0
  -16.5275  -16.3393   32.8471 N   0  0  0  0  0  0  0  0  0  0  0  0
  -17.1925  -17.1124   33.9085 C   0  0  2  0  0  0  0  0  0  0  0  0
  -16.1770  -18.0259   34.6527 C   0  0  0  0  0  0  0  0  0  0  0  0
  -16.4751  -19.0603   35.2558 O   0  0  0  0  0  0  0  0  0  0  0  0
  -18.4690  -17.8236   33.4389 C   0  0  0  0  0  0  0  0  0  0  0  0
  -19.4441  -17.0598   32.5169 C   0  0  1  0  0  0  0  0  0  0  0  0
  -18.8961  -17.0856   31.0843 C   0  0  0  0  0  0  0  0  0  0  0  0
  -20.8584  -17.6361   32.5076 C   0  0  0  0  0  0  0  0  0  0  0  0
  -14.9029  -17.4863   34.6970 N   0  0  0  0  0  0  0  0  0  0  0  0
  -13.7554  -18.2369   35.1821 C   0  0  2  0  0  0  0  0  0  0  0  0
  -13.3726  -17.8977   36.6430 C   0  0  0  0  0  0  0  0  0  0  0  0
  -12.7113  -18.6925   37.3182 O   0  0  0  0  0  0  0  0  0  0  0  0
  -12.5425  -18.0294   34.2653 C   0  0  0  0  0  0  0  0  0  0  0  0
  -12.6689  -16.8024   33.3313 C   0  0  1  0  0  0  0  0  0  0  0  0
  -14.1358  -16.3806   33.2249 C   0  0  0  0  0  0  0  0  0  0  0  0
  -11.8251  -15.6174   33.8055 C   0  0  0  0  0  0  0  0  0  0  0  0
  -13.7204  -16.8743   39.5717 C   0  0  0  0  0  0  0  0  0  0  0  0
  -13.7155  -16.6408   37.0930 N   0  0  0  0  0  0  0  0  0  0  0  0
  -14.6232  -16.4797   40.3206 O   0  0  0  0  0  0  0  0  0  0  0  0
  -13.2068  -16.0239   38.3531 C   0  0  1  0  0  0  0  0  0  0  0  0
  -13.8125  -14.5920   38.4439 C   0  0  0  0  0  0  0  0  0  0  0  0
  -13.9416  -12.2830   39.5590 C   0  0  0  0  0  0  0  0  0  0  0  0
  -15.3604  -12.3212   40.0599 C   0  0  0  0  0  0  0  0  0  0  0  0
  -13.2716  -13.6667   39.5452 C   0  0  0  0  0  0  0  0  0  0  0  0
  -11.6676  -15.9800   38.2878 C   0  0  0  0  0  0  0  0  0  0  0  0
  -13.0847  -18.0772   39.7975 N   0  0  0  0  0  0  0  0  0  0  0  0
  -12.7573  -19.0200   38.7067 C   0  0  2  0  0  0  0  0  0  0  0  0
  -11.4262  -18.6311   38.0252 C   0  0  0  0  0  0  0  0  0  0  0  0
  -11.3773  -17.9626   36.9963 O   0  0  0  0  0  0  0  0  0  0  0  0
  -13.9143  -18.9997   37.6828 C   0  0  0  0  0  0  0  0  0  0  0  0
  -14.1751  -17.6559   37.0430 C   0  0  0  0  0  0  0  0  0  0  0  0
  -14.0606  -17.4956   35.6525 C   0  0  0  0  0  0  0  0  0  0  0  0
  -14.4925  -16.5366   37.8275 C   0  0  0  0  0  0  0  0  0  0  0  0
  -14.2714  -16.2495   35.0633 C   0  0  0  0  0  0  0  0  0  0  0  0
  -14.7085  -15.2910   37.2324 C   0  0  0  0  0  0  0  0  0  0  0  0
  -14.5971  -15.1466   35.8509 C   0  0  0  0  0  0  0  0  0  0  0  0
  -10.3042  -18.9244   38.7664 N   0  0  0  0  0  0  0  0  0  0  0  0
   -8.9477  -18.6508   38.2800 C   0  0  2  0  0  0  0  0  0  0  0  0
   -8.0231  -19.8460   38.5793 C   0  0  0  0  0  0  0  0  0  0  0  0
   -7.0527  -20.1560   37.8949 O   0  0  0  0  0  0  0  0  0  0  0  0
   -8.3995  -17.3662   38.9304 C   0  0  0  0  0  0  0  0  0  0  0  0
   -6.9294  -17.1866   38.6851 C   0  0  0  0  0  0  0  0  0  0  0  0
   -5.9199  -17.5038   39.5731 C   0  0  0  0  0  0  0  0  0  0  0  0
   -6.3041  -16.6794   37.5008 C   0  0  0  0  0  0  0  0  0  0  0  0
   -4.7202  -17.2183   38.9802 N   0  0  0  0  0  0  0  0  0  0  0  0
   -4.9259  -16.7287   37.7103 C   0  0  0  0  0  0  0  0  0  0  0  0
   -6.7775  -16.1805   36.2666 C   0  0  0  0  0  0  0  0  0  0  0  0
   -3.9980  -16.3111   36.7517 C   0  0  0  0  0  0  0  0  0  0  0  0
   -5.8605  -15.7607   35.2954 C   0  0  0  0  0  0  0  0  0  0  0  0
   -4.4908  -15.8296   35.5382 C   0  0  0  0  0  0  0  0  0  0  0  0
   -8.3265  -20.5703   39.6981 N   0  0  0  0  0  0  0  0  0  0  0  0
  1  2  2  0
  1  3  1  0
  4  1  1  0
  5  4  1  0
  6  5  1  0
  5  8  1  1
  6  7  2  0
 13  6  1  0
  8  9  1  0
  9 10  1  0
 10 11  1  0
 11 12  1  0
 14 13  1  0
 15 14  1  0
 14 17  1  6
 15 16  2  0
 22 15  1  0
 17 18  1  0
 18 19  1  0
 19 20  1  0
 20 21  1  0
 23 22  1  0
 24 23  1  0
 23 26  1  1
 24 25  2  0
 33 24  1  0
 26 27  1  0
 27 28  1  0
 28 29  1  0
 29 30  1  0
 30 31  2  0
 30 32  1  0
 34 33  1  0
 35 34  1  0
 34 37  1  6
 35 36  2  0
 45 35  1  0
 37 38  1  0
 38 39  2  0
 38 40  1  0
 39 41  1  0
 40 42  2  0
 41 43  2  0
 42 43  1  0
 43 44  1  0
 46 45  1  0
 47 46  1  0
 46 49  1  6
 47 48  2  0
 51 47  1  0
 49 50  1  0
 52 51  1  0
 53 52  1  0
 52 55  1  6
 53 54  2  0
 63 53  1  0
 55 56  1  0
 56 57  1  0
 57 58  1  0
 58 59  1  0
 59 60  2  0
 59 61  1  0
 62 64  2  0
 62 65  1  0
 71 62  1  0
 65 63  1  0
 65 66  1  0
 65 70  1  6
 66 69  1  0
 67 68  1  0
 69 67  1  0
 68102  2  0
 72 71  1  0
 73 72  1  0
 72 75  1  6
 73 74  2  0
 80 73  1  0
 75 76  1  0
 76 77  1  0
 77 78  2  0
 77 79  1  0
 81 80  1  0
 82 81  1  0
 81 84  1  6
 82 83  2  0
 88 82  1  0
 84 85  1  0
 85 86  1  6
 85 87  1  0
 89 88  1  0
 90 89  1  0
 89 92  1  6
 90 91  2  0
 97 90  1  0
 92 93  1  0
 93 94  1  1
 93 95  1  0
 96 98  2  0
 99 96  1  0
 96105  1  0
 97 99  1  0
 99100  1  0
 99104  1  6
100103  1  0
102101  1  0
101103  1  0
105106  1  0
106107  1  0
106109  1  6
107108  2  0
107116  1  0
109110  1  0
110111  2  0
110112  1  0
111113  1  0
112114  2  0
113115  2  0
114115  1  0
116117  1  0
117118  1  0
117120  1  1
118119  2  0
118130  1  0
120121  1  0
121122  2  0
121123  1  0
122124  1  0
123125  2  0
123126  1  0
124125  1  0
125127  1  0
126128  2  0
127129  2  0
128129  1  0
M  CHG  4  12   1  21   1  31   1  60   1
M  END
$$$$
