
     RDKit          3D

130134  0  0  0  0  0  0  0  0999 V2000
  -13.7159   -9.8550   39.7217 C   0  0  0  0  0  0  0  0  0  0  0  0
  -14.2408   -8.7849   39.4366 O   0  0  0  0  0  0  0  0  0  0  0  0
  -14.5205  -11.0679   40.1171 C   0  0  0  0  0  0  0  0  0  0  0  0
  -12.3524  -10.0308   39.7461 N   0  0  0  0  0  0  0  0  0  0  0  0
  -11.4793   -9.4283   38.7366 C   0  0  2  0  0  0  0  0  0  0  0  0
  -11.8494   -9.9786   37.3337 C   0  0  0  0  0  0  0  0  0  0  0  0
  -12.9985  -10.0536   36.9135 O   0  0  0  0  0  0  0  0  0  0  0  0
   -9.9869   -9.5780   39.0920 C   0  0  0  0  0  0  0  0  0  0  0  0
   -9.4593   -8.3458   39.8440 C   0  0  0  0  0  0  0  0  0  0  0  0
   -8.5023   -8.6446   41.0023 C   0  0  0  0  0  0  0  0  0  0  0  0
   -7.8680   -7.4023   41.6077 C   0  0  0  0  0  0  0  0  0  0  0  0
   -6.6966   -7.0105   40.7833 N   0  0  0  0  0  4  0  0  0  0  0  0
  -10.7530  -10.4749   36.6476 N   0  0  0  0  0  0  0  0  0  0  0  0
  -10.8393  -11.1469   35.3372 C   0  0  2  0  0  0  0  0  0  0  0  0
  -11.5226  -12.5073   35.6741 C   0  0  0  0  0  0  0  0  0  0  0  0
  -10.9161  -13.3929   36.2975 O   0  0  0  0  0  0  0  0  0  0  0  0
   -9.4866  -11.2390   34.5947 C   0  0  0  0  0  0  0  0  0  0  0  0
   -8.9583   -9.8974   34.0534 C   0  0  0  0  0  0  0  0  0  0  0  0
   -9.9948   -8.7783   34.2404 C   0  0  0  0  0  0  0  0  0  0  0  0
   -9.4969   -7.3995   33.8069 C   0  0  0  0  0  0  0  0  0  0  0  0
   -9.6370   -6.4230   34.9097 N   0  0  0  0  0  4  0  0  0  0  0  0
  -12.7282  -12.7846   35.0687 N   0  0  0  0  0  0  0  0  0  0  0  0
  -13.4657  -14.0321   35.3057 C   0  0  2  0  0  0  0  0  0  0  0  0
  -12.7850  -15.1793   34.5167 C   0  0  0  0  0  0  0  0  0  0  0  0
  -12.4466  -15.0703   33.3466 O   0  0  0  0  0  0  0  0  0  0  0  0
  -14.9476  -13.8878   34.9342 C   0  0  0  0  0  0  0  0  0  0  0  0
  -15.8533  -13.5257   36.1219 C   0  0  0  0  0  0  0  0  0  0  0  0
  -17.2974  -13.2772   35.6955 C   0  0  0  0  0  0  0  0  0  0  0  0
  -17.7558  -14.2725   34.7166 N   0  0  0  0  0  0  0  0  0  0  0  0
  -18.1977  -15.5029   35.0042 C   0  0  0  0  0  0  0  0  0  0  0  0
  -18.2950  -16.4603   34.0795 N   0  0  0  0  0  4  0  0  0  0  0  0
  -18.5553  -15.7872   36.2616 N   0  0  0  0  0  0  0  0  0  0  0  0
  -12.7123  -16.3710   35.2273 N   0  0  0  0  0  0  0  0  0  0  0  0
  -12.7849  -17.6550   34.5200 C   0  0  2  0  0  0  0  0  0  0  0  0
  -13.8901  -18.4512   35.2370 C   0  0  0  0  0  0  0  0  0  0  0  0
  -14.4572  -17.9974   36.2320 O   0  0  0  0  0  0  0  0  0  0  0  0
  -11.4637  -18.4255   34.6102 C   0  0  0  0  0  0  0  0  0  0  0  0
  -10.5051  -17.8009   35.5966 C   0  0  0  0  0  0  0  0  0  0  0  0
  -10.8529  -16.6461   36.3157 C   0  0  0  0  0  0  0  0  0  0  0  0
   -9.2363  -18.3633   35.7902 C   0  0  0  0  0  0  0  0  0  0  0  0
   -9.9447  -16.0643   37.2087 C   0  0  0  0  0  0  0  0  0  0  0  0
   -8.3336  -17.7860   36.6791 C   0  0  0  0  0  0  0  0  0  0  0  0
   -8.6894  -16.6443   37.3826 C   0  0  0  0  0  0  0  0  0  0  0  0
   -7.7751  -16.1289   38.2486 O   0  0  0  0  0  0  0  0  0  0  0  0
  -14.1621  -19.6839   34.6955 N   0  0  0  0  0  0  0  0  0  0  0  0
  -15.4456  -20.3645   34.8802 C   0  0  2  0  0  0  0  0  0  0  0  0
  -15.2833  -21.8952   34.8276 C   0  0  0  0  0  0  0  0  0  0  0  0
  -14.6171  -22.4581   33.9654 O   0  0  0  0  0  0  0  0  0  0  0  0
  -16.4581  -19.9093   33.8213 C   0  0  0  0  0  0  0  0  0  0  0  0
  -16.6282  -20.9411   32.8488 O   0  0  0  0  0  0  0  0  0  0  0  0
  -15.9485  -22.5730   35.8353 N   0  0  0  0  0  0  0  0  0  0  0  0
  -15.7447  -23.9993   36.1362 C   0  0  2  0  0  0  0  0  0  0  0  0
  -15.8896  -24.1855   37.6672 C   0  0  0  0  0  0  0  0  0  0  0  0
  -16.3358  -23.3148   38.4123 O   0  0  0  0  0  0  0  0  0  0  0  0
  -14.3902  -24.5185   35.6051 C   0  0  0  0  0  0  0  0  0  0  0  0
  -14.4373  -25.9214   34.9833 C   0  0  0  0  0  0  0  0  0  0  0  0
  -14.3544  -25.8862   33.4651 C   0  0  0  0  0  0  0  0  0  0  0  0
  -13.6155  -27.0436   32.9676 N   0  0  0  0  0  0  0  0  0  0  0  0
  -14.0031  -27.7993   31.9251 C   0  0  0  0  0  0  0  0  0  0  0  0
  -13.7633  -29.1061   31.8746 N   0  0  0  0  0  4  0  0  0  0  0  0
  -14.6313  -27.2286   30.8999 N   0  0  0  0  0  0  0  0  0  0  0  0
  -16.2962  -26.3528   36.0541 C   0  0  0  0  0  0  0  0  0  0  0  0
  -15.4151  -25.4036   38.1473 N   0  0  0  0  0  0  0  0  0  0  0  0
  -17.1296  -25.4366   36.0390 O   0  0  0  0  0  0  0  0  0  0  0  0
  -15.3256  -26.5993   37.2629 C   0  0  1  0  0  0  0  0  0  0  0  0
  -15.7950  -27.8626   38.0484 C   0  0  0  0  0  0  0  0  0  0  0  0
  -17.7253  -28.2251   39.6960 C   0  0  0  0  0  0  0  0  0  0  0  0
  -17.6518  -26.9306   40.4530 C   0  0  0  0  0  0  0  0  0  0  0  0
  -17.3114  -28.0335   38.2390 C   0  0  0  0  0  0  0  0  0  0  0  0
  -13.8522  -26.8519   36.8838 C   0  0  0  0  0  0  0  0  0  0  0  0
  -16.3716  -27.2764   35.0518 N   0  0  0  0  0  0  0  0  0  0  0  0
  -15.3074  -27.4628   34.0579 C   0  0  2  0  0  0  0  0  0  0  0  0
  -15.7781  -26.8247   32.7287 C   0  0  0  0  0  0  0  0  0  0  0  0
  -16.1646  -27.5010   31.7741 O   0  0  0  0  0  0  0  0  0  0  0  0
  -14.9312  -28.9429   33.9348 C   0  0  0  0  0  0  0  0  0  0  0  0
  -13.4567  -29.2901   34.1816 C   0  0  0  0  0  0  0  0  0  0  0  0
  -12.7371  -28.1632   34.8938 C   0  0  0  0  0  0  0  0  0  0  0  0
  -11.5507  -28.1804   35.1966 O   0  0  0  0  0  0  0  0  0  0  0  0
  -13.5055  -27.0656   35.1419 N   0  0  0  0  0  0  0  0  0  0  0  0
  -15.8897  -25.4632   32.6301 N   0  0  0  0  0  0  0  0  0  0  0  0
  -15.2004  -24.4284   33.4177 C   0  0  2  0  0  0  0  0  0  0  0  0
  -16.0848  -23.1571   33.5638 C   0  0  0  0  0  0  0  0  0  0  0  0
  -15.6508  -22.0207   33.7705 O   0  0  0  0  0  0  0  0  0  0  0  0
  -13.7639  -24.1586   32.9490 C   0  0  0  0  0  0  0  0  0  0  0  0
  -12.9793  -25.3044   32.2738 C   0  0  1  0  0  0  0  0  0  0  0  0
  -11.5760  -24.8003   31.9132 C   0  0  0  0  0  0  0  0  0  0  0  0
  -12.8399  -26.5499   33.1465 C   0  0  0  0  0  0  0  0  0  0  0  0
  -17.4387  -23.4452   33.5817 N   0  0  0  0  0  0  0  0  0  0  0  0
  -18.4568  -22.4077   33.5310 C   0  0  2  0  0  0  0  0  0  0  0  0
  -19.0544  -22.0654   34.9172 C   0  0  0  0  0  0  0  0  0  0  0  0
  -19.6106  -20.9797   35.1092 O   0  0  0  0  0  0  0  0  0  0  0  0
  -19.5812  -22.7955   32.5615 C   0  0  0  0  0  0  0  0  0  0  0  0
  -19.2302  -23.9918   31.6454 C   0  0  1  0  0  0  0  0  0  0  0  0
  -17.8078  -23.8314   31.1050 C   0  0  0  0  0  0  0  0  0  0  0  0
  -19.3596  -25.3363   32.3643 C   0  0  0  0  0  0  0  0  0  0  0  0
  -19.2360  -21.8477   38.0261 C   0  0  0  0  0  0  0  0  0  0  0  0
  -19.0221  -23.0656   35.8652 N   0  0  0  0  0  0  0  0  0  0  0  0
  -19.8601  -21.4031   38.9980 O   0  0  0  0  0  0  0  0  0  0  0  0
  -19.7767  -23.0378   37.1525 C   0  0  1  0  0  0  0  0  0  0  0  0
  -19.4853  -24.3791   37.8881 C   0  0  0  0  0  0  0  0  0  0  0  0
  -19.9442  -26.0280   39.8017 C   0  0  0  0  0  0  0  0  0  0  0  0
  -18.6089  -25.9913   40.4952 C   0  0  0  0  0  0  0  0  0  0  0  0
  -20.3163  -24.6897   39.1428 C   0  0  0  0  0  0  0  0  0  0  0  0
  -21.2772  -22.8854   36.8349 C   0  0  0  0  0  0  0  0  0  0  0  0
  -18.0395  -21.2860   37.6326 N   0  0  0  0  0  0  0  0  0  0  0  0
  -17.2113  -21.8579   36.5496 C   0  0  2  0  0  0  0  0  0  0  0  0
  -15.7609  -21.3313   36.6304 C   0  0  0  0  0  0  0  0  0  0  0  0
  -15.2315  -20.7009   35.7193 O   0  0  0  0  0  0  0  0  0  0  0  0
  -17.8499  -21.4756   35.1955 C   0  0  0  0  0  0  0  0  0  0  0  0
  -17.9801  -22.6126   34.2090 C   0  0  0  0  0  0  0  0  0  0  0  0
  -18.8536  -23.6816   34.4664 C   0  0  0  0  0  0  0  0  0  0  0  0
  -17.2011  -22.6435   33.0422 C   0  0  0  0  0  0  0  0  0  0  0  0
  -18.9528  -24.7466   33.5718 C   0  0  0  0  0  0  0  0  0  0  0  0
  -17.3078  -23.7098   32.1456 C   0  0  0  0  0  0  0  0  0  0  0  0
  -18.1824  -24.7619   32.4102 C   0  0  0  0  0  0  0  0  0  0  0  0
  -15.1828  -21.4540   37.8733 N   0  0  0  0  0  0  0  0  0  0  0  0
  -13.8373  -20.9494   38.1673 C   0  0  2  0  0  0  0  0  0  0  0  0
  -13.1699  -21.8130   39.2544 C   0  0  0  0  0  0  0  0  0  0  0  0
  -12.1998  -22.5391   39.0599 O   0  0  0  0  0  0  0  0  0  0  0  0
  -13.9084  -19.4766   38.6139 C   0  0  0  0  0  0  0  0  0  0  0  0
  -12.5522  -18.9060   38.9121 C   0  0  0  0  0  0  0  0  0  0  0  0
  -11.6986  -18.3335   37.9892 C   0  0  0  0  0  0  0  0  0  0  0  0
  -11.9048  -18.8312   40.1872 C   0  0  0  0  0  0  0  0  0  0  0  0
  -10.5742  -17.9134   38.6461 N   0  0  0  0  0  0  0  0  0  0  0  0
  -10.6811  -18.1913   39.9901 C   0  0  0  0  0  0  0  0  0  0  0  0
  -12.2410  -19.2476   41.4949 C   0  0  0  0  0  0  0  0  0  0  0  0
   -9.7801  -17.9418   41.0294 C   0  0  0  0  0  0  0  0  0  0  0  0
  -11.3499  -19.0026   42.5467 C   0  0  0  0  0  0  0  0  0  0  0  0
  -10.1388  -18.3560   42.3127 C   0  0  0  0  0  0  0  0  0  0  0  0
  -13.7117  -21.7216   40.5060 N   0  0  0  0  0  0  0  0  0  0  0  0
  1  2  2  0
  1  3  1  0
  4  1  1  0
  5  4  1  0
  6  5  1  0
  5  8  1  1
  6  7  2  0
 13  6  1  0
  8  9  1  0
  9 10  1  0
 10 11  1  0
 11 12  1  0
 14 13  1  0
 15 14  1  0
 14 17  1  1
 15 16  2  0
 22 15  1  0
 17 18  1  0
 18 19  1  0
 19 20  1  0
 20 21  1  0
 23 22  1  0
 24 23  1  0
 23 26  1  6
 24 25  2  0
 33 24  1  0
 26 27  1  0
 27 28  1  0
 28 29  1  0
 29 30  1  0
 30 31  2  0
 30 32  1  0
 34 33  1  0
 35 34  1  0
 34 37  1  1
 35 36  2  0
 45 35  1  0
 37 38  1  0
 38 39  2  0
 38 40  1  0
 39 41  1  0
 40 42  2  0
 41 43  2  0
 42 43  1  0
 43 44  1  0
 46 45  1  0
 47 46  1  0
 46 49  1  6
 47 48  2  0
 51 47  1  0
 49 50  1  0
 52 51  1  0
 53 52  1  0
 52 55  1  1
 53 54  2  0
 63 53  1  0
 55 56  1  0
 56 57  1  0
 57 58  1  0
 58 59  1  0
 59 60  2  0
 59 61  1  0
 62 64  2  0
 62 65  1  0
 71 62  1  0
 65 63  1  0
 65 66  1  0
 65 70  1  6
 66 69  1  0
 67 68  1  0
 69 67  1  0
 68102  2  0
 72 71  1  0
 73 72  1  0
 72 75  1  6
 73 74  2  0
 80 73  1  0
 75 76  1  0
 76 77  1  0
 77 78  2  0
 77 79  1  0
 81 80  1  0
 82 81  1  0
 81 84  1  6
 82 83  2  0
 88 82  1  0
 84 85  1  0
 85 86  1  1
 85 87  1  0
 89 88  1  0
 90 89  1  0
 89 92  1  6
 90 91  2  0
 97 90  1  0
 92 93  1  0
 93 94  1  1
 93 95  1  0
 96 98  2  0
 99 96  1  0
 96105  1  0
 97 99  1  0
 99100  1  0
 99104  1  6
100103  1  0
102101  1  0
101103  1  0
105106  1  0
106107  1  0
106109  1  6
107108  2  0
107116  1  0
109110  1  0
110111  2  0
110112  1  0
111113  1  0
112114  2  0
113115  2  0
114115  1  0
116117  1  0
117118  1  0
117120  1  1
118119  2  0
118130  1  0
120121  1  0
121122  2  0
121123  1  0
122124  1  0
123125  2  0
123126  1  0
124125  1  0
125127  1  0
126128  2  0
127129  2  0
128129  1  0
M  CHG  4  12   1  21   1  31   1  60   1
M  END
$$$$
