
     RDKit          3D

130134  0  0  0  0  0  0  0  0999 V2000
  -17.4810  -30.0531   31.2969 C   0  0  0  0  0  0  0  0  0  0  0  0
  -16.3346  -30.0926   30.8655 O   0  0  0  0  0  0  0  0  0  0  0  0
  -18.0286  -31.1048   32.2289 C   0  0  0  0  0  0  0  0  0  0  0  0
  -18.3769  -29.0738   30.9375 N   0  0  0  0  0  0  0  0  0  0  0  0
  -17.9639  -27.6808   30.7544 C   0  0  2  0  0  0  0  0  0  0  0  0
  -17.1945  -27.1969   32.0121 C   0  0  0  0  0  0  0  0  0  0  0  0
  -16.7025  -27.9534   32.8418 O   0  0  0  0  0  0  0  0  0  0  0  0
  -19.1423  -26.7709   30.3551 C   0  0  0  0  0  0  0  0  0  0  0  0
  -19.7127  -27.1563   28.9810 C   0  0  0  0  0  0  0  0  0  0  0  0
  -19.3583  -28.5654   28.4957 C   0  0  0  0  0  0  0  0  0  0  0  0
  -19.7747  -28.8404   27.0593 C   0  0  0  0  0  0  0  0  0  0  0  0
  -19.3143  -30.1997   26.6773 N   0  0  0  0  0  4  0  0  0  0  0  0
  -17.2142  -25.8190   32.1538 N   0  0  0  0  0  0  0  0  0  0  0  0
  -16.1336  -25.0433   32.7917 C   0  0  2  0  0  0  0  0  0  0  0  0
  -15.7350  -24.0103   31.6939 C   0  0  0  0  0  0  0  0  0  0  0  0
  -15.7229  -24.3231   30.4927 O   0  0  0  0  0  0  0  0  0  0  0  0
  -14.9834  -25.9161   33.3438 C   0  0  0  0  0  0  0  0  0  0  0  0
  -13.7050  -25.1384   33.7084 C   0  0  0  0  0  0  0  0  0  0  0  0
  -12.6791  -26.0517   34.3977 C   0  0  0  0  0  0  0  0  0  0  0  0
  -13.2768  -27.3505   34.9389 C   0  0  0  0  0  0  0  0  0  0  0  0
  -14.6289  -27.5754   34.3818 N   0  0  0  0  0  4  0  0  0  0  0  0
  -15.1823  -22.8186   32.1076 N   0  0  0  0  0  0  0  0  0  0  0  0
  -15.9645  -21.5817   32.2281 C   0  0  2  0  0  0  0  0  0  0  0  0
  -15.0624  -20.4689   32.8195 C   0  0  0  0  0  0  0  0  0  0  0  0
  -15.4684  -19.3389   33.0516 O   0  0  0  0  0  0  0  0  0  0  0  0
  -17.2288  -21.7966   33.0710 C   0  0  0  0  0  0  0  0  0  0  0  0
  -18.4372  -22.2944   32.2623 C   0  0  0  0  0  0  0  0  0  0  0  0
  -19.0436  -21.1979   31.3912 C   0  0  0  0  0  0  0  0  0  0  0  0
  -19.9151  -20.3048   32.1669 N   0  0  0  0  0  0  0  0  0  0  0  0
  -20.6046  -19.2680   31.6754 C   0  0  0  0  0  0  0  0  0  0  0  0
  -20.9827  -19.2043   30.3970 N   0  0  0  0  0  4  0  0  0  0  0  0
  -20.9284  -18.2580   32.4909 N   0  0  0  0  0  0  0  0  0  0  0  0
  -13.7302  -20.8442   32.9412 N   0  0  0  0  0  0  0  0  0  0  0  0
  -12.9102  -20.3040   34.0321 C   0  0  2  0  0  0  0  0  0  0  0  0
  -13.4063  -18.8613   34.2364 C   0  0  0  0  0  0  0  0  0  0  0  0
  -14.5477  -18.5295   33.9130 O   0  0  0  0  0  0  0  0  0  0  0  0
  -11.4231  -20.2826   33.6640 C   0  0  0  0  0  0  0  0  0  0  0  0
  -10.8557  -21.6730   33.5002 C   0  0  0  0  0  0  0  0  0  0  0  0
  -11.2998  -22.5224   32.4740 C   0  0  0  0  0  0  0  0  0  0  0  0
   -9.8838  -22.1413   34.3946 C   0  0  0  0  0  0  0  0  0  0  0  0
  -10.7822  -23.8175   32.3493 C   0  0  0  0  0  0  0  0  0  0  0  0
   -9.3679  -23.4284   34.2700 C   0  0  0  0  0  0  0  0  0  0  0  0
   -9.8161  -24.2579   33.2522 C   0  0  0  0  0  0  0  0  0  0  0  0
   -9.2689  -25.5010   33.1672 O   0  0  0  0  0  0  0  0  0  0  0  0
  -12.4818  -18.0002   34.7755 N   0  0  0  0  0  0  0  0  0  0  0  0
  -12.8329  -16.9781   35.7637 C   0  0  2  0  0  0  0  0  0  0  0  0
  -14.1286  -17.3415   36.5128 C   0  0  0  0  0  0  0  0  0  0  0  0
  -15.1985  -17.5078   35.9367 O   0  0  0  0  0  0  0  0  0  0  0  0
  -12.9830  -15.6057   35.0947 C   0  0  0  0  0  0  0  0  0  0  0  0
  -13.9845  -15.6767   34.0791 O   0  0  0  0  0  0  0  0  0  0  0  0
  -13.9777  -17.4664   37.8836 N   0  0  0  0  0  0  0  0  0  0  0  0
  -15.1032  -17.5141   38.8308 C   0  0  2  0  0  0  0  0  0  0  0  0
  -14.5988  -16.9757   40.1929 C   0  0  0  0  0  0  0  0  0  0  0  0
  -13.4134  -16.7505   40.4308 O   0  0  0  0  0  0  0  0  0  0  0  0
  -15.7083  -18.9308   38.9449 C   0  0  0  0  0  0  0  0  0  0  0  0
  -17.2201  -18.9660   39.2098 C   0  0  0  0  0  0  0  0  0  0  0  0
  -17.7779  -20.3808   39.2015 C   0  0  0  0  0  0  0  0  0  0  0  0
  -18.5067  -20.6491   40.4384 N   0  0  0  0  0  0  0  0  0  0  0  0
  -18.5000  -21.8302   41.0811 C   0  0  0  0  0  0  0  0  0  0  0  0
  -17.5126  -22.1814   41.8993 N   0  0  0  0  0  4  0  0  0  0  0  0
  -19.4990  -22.6877   40.8861 N   0  0  0  0  0  0  0  0  0  0  0  0
  -17.2157  -17.2442   39.3543 C   0  0  0  0  0  0  0  0  0  0  0  0
  -15.5928  -16.8222   41.1561 N   0  0  0  0  0  0  0  0  0  0  0  0
  -16.4329  -16.6833   38.5753 O   0  0  0  0  0  0  0  0  0  0  0  0
  -16.9868  -17.2853   40.9066 C   0  0  1  0  0  0  0  0  0  0  0  0
  -17.9893  -16.3114   41.5992 C   0  0  0  0  0  0  0  0  0  0  0  0
  -18.0167  -13.7563   41.8047 C   0  0  0  0  0  0  0  0  0  0  0  0
  -16.5522  -13.5094   42.0250 C   0  0  0  0  0  0  0  0  0  0  0  0
  -18.2396  -14.9652   40.8993 C   0  0  0  0  0  0  0  0  0  0  0  0
  -17.1994  -18.6625   41.5676 C   0  0  0  0  0  0  0  0  0  0  0  0
  -18.4039  -17.6735   38.8372 N   0  0  0  0  0  0  0  0  0  0  0  0
  -18.7808  -19.0910   38.7762 C   0  0  2  0  0  0  0  0  0  0  0  0
  -18.6273  -19.5636   37.3104 C   0  0  0  0  0  0  0  0  0  0  0  0
  -19.5967  -19.7421   36.5710 O   0  0  0  0  0  0  0  0  0  0  0  0
  -20.1844  -19.3060   39.3520 C   0  0  0  0  0  0  0  0  0  0  0  0
  -20.5160  -20.7313   39.8146 C   0  0  0  0  0  0  0  0  0  0  0  0
  -19.2788  -21.6051   39.8372 C   0  0  0  0  0  0  0  0  0  0  0  0
  -19.2253  -22.7426   39.3866 O   0  0  0  0  0  0  0  0  0  0  0  0
  -18.1719  -21.0093   40.3629 N   0  0  0  0  0  0  0  0  0  0  0  0
  -17.3783  -19.6783   36.7603 N   0  0  0  0  0  0  0  0  0  0  0  0
  -16.0910  -19.8793   37.4450 C   0  0  2  0  0  0  0  0  0  0  0  0
  -14.9275  -19.2210   36.6497 C   0  0  0  0  0  0  0  0  0  0  0  0
  -13.7458  -19.5696   36.7180 O   0  0  0  0  0  0  0  0  0  0  0  0
  -15.8396  -21.3357   37.8596 C   0  0  0  0  0  0  0  0  0  0  0  0
  -16.8338  -22.4199   37.3902 C   0  0  1  0  0  0  0  0  0  0  0  0
  -16.9199  -23.5128   38.4633 C   0  0  0  0  0  0  0  0  0  0  0  0
  -18.2402  -21.8881   37.1228 C   0  0  0  0  0  0  0  0  0  0  0  0
  -15.3258  -18.0939   35.9516 N   0  0  0  0  0  0  0  0  0  0  0  0
  -14.4567  -17.4189   35.0006 C   0  0  2  0  0  0  0  0  0  0  0  0
  -13.7673  -16.1616   35.5836 C   0  0  0  0  0  0  0  0  0  0  0  0
  -12.7338  -15.7196   35.0722 O   0  0  0  0  0  0  0  0  0  0  0  0
  -15.2285  -17.0455   33.7280 C   0  0  0  0  0  0  0  0  0  0  0  0
  -14.4637  -16.0753   32.7964 C   0  0  1  0  0  0  0  0  0  0  0  0
  -15.1234  -14.6953   32.8307 C   0  0  0  0  0  0  0  0  0  0  0  0
  -12.9855  -15.9492   33.1705 C   0  0  0  0  0  0  0  0  0  0  0  0
  -12.6301  -14.2120   37.7403 C   0  0  0  0  0  0  0  0  0  0  0  0
  -14.4225  -15.5228   36.6145 N   0  0  0  0  0  0  0  0  0  0  0  0
  -12.2621  -13.4324   38.6282 O   0  0  0  0  0  0  0  0  0  0  0  0
  -14.0764  -14.1641   37.1256 C   0  0  1  0  0  0  0  0  0  0  0  0
  -15.0946  -13.8212   38.2530 C   0  0  0  0  0  0  0  0  0  0  0  0
  -16.1173  -12.1511   39.9131 C   0  0  0  0  0  0  0  0  0  0  0  0
  -15.7419  -12.8181   41.2091 C   0  0  0  0  0  0  0  0  0  0  0  0
  -15.0863  -12.3839   38.7966 C   0  0  0  0  0  0  0  0  0  0  0  0
  -14.1739  -13.1640   35.9569 C   0  0  0  0  0  0  0  0  0  0  0  0
  -11.7644  -15.1462   37.2113 N   0  0  0  0  0  0  0  0  0  0  0  0
  -11.4207  -16.3998   37.9159 C   0  0  2  0  0  0  0  0  0  0  0  0
   -9.8917  -16.6217   37.9286 C   0  0  0  0  0  0  0  0  0  0  0  0
   -9.3638  -17.5767   38.4918 O   0  0  0  0  0  0  0  0  0  0  0  0
  -12.1303  -17.5705   37.1992 C   0  0  0  0  0  0  0  0  0  0  0  0
  -11.8154  -18.9408   37.7525 C   0  0  0  0  0  0  0  0  0  0  0  0
  -12.4403  -19.3956   38.9250 C   0  0  0  0  0  0  0  0  0  0  0  0
  -10.8636  -19.7643   37.1320 C   0  0  0  0  0  0  0  0  0  0  0  0
  -12.1287  -20.6476   39.4539 C   0  0  0  0  0  0  0  0  0  0  0  0
  -10.5586  -21.0206   37.6621 C   0  0  0  0  0  0  0  0  0  0  0  0
  -11.1898  -21.4623   38.8233 C   0  0  0  0  0  0  0  0  0  0  0  0
   -9.1905  -15.7778   37.0978 N   0  0  0  0  0  0  0  0  0  0  0  0
   -7.8346  -15.3144   37.4113 C   0  0  2  0  0  0  0  0  0  0  0  0
   -7.8921  -13.9880   38.1927 C   0  0  0  0  0  0  0  0  0  0  0  0
   -7.3226  -13.7919   39.2620 O   0  0  0  0  0  0  0  0  0  0  0  0
   -7.0187  -15.1443   36.1155 C   0  0  0  0  0  0  0  0  0  0  0  0
   -6.8607  -16.4368   35.3685 C   0  0  0  0  0  0  0  0  0  0  0  0
   -5.8871  -17.3884   35.6023 C   0  0  0  0  0  0  0  0  0  0  0  0
   -7.6831  -16.9287   34.3044 C   0  0  0  0  0  0  0  0  0  0  0  0
   -6.0866  -18.4293   34.7368 N   0  0  0  0  0  0  0  0  0  0  0  0
   -7.1846  -18.1809   33.9447 C   0  0  0  0  0  0  0  0  0  0  0  0
   -8.8067  -16.4291   33.6086 C   0  0  0  0  0  0  0  0  0  0  0  0
   -7.7516  -18.9602   32.9320 C   0  0  0  0  0  0  0  0  0  0  0  0
   -9.3873  -17.1989   32.5934 C   0  0  0  0  0  0  0  0  0  0  0  0
   -8.8651  -18.4477   32.2652 C   0  0  0  0  0  0  0  0  0  0  0  0
   -8.6189  -12.9852   37.6145 N   0  0  0  0  0  0  0  0  0  0  0  0
  1  2  2  0
  1  3  1  0
  4  1  1  0
  5  4  1  0
  6  5  1  0
  5  8  1  1
  6  7  2  0
 13  6  1  0
  8  9  1  0
  9 10  1  0
 10 11  1  0
 11 12  1  0
 14 13  1  0
 15 14  1  0
 14 17  1  6
 15 16  2  0
 22 15  1  0
 17 18  1  0
 18 19  1  0
 19 20  1  0
 20 21  1  0
 23 22  1  0
 24 23  1  0
 23 26  1  1
 24 25  2  0
 33 24  1  0
 26 27  1  0
 27 28  1  0
 28 29  1  0
 29 30  1  0
 30 31  2  0
 30 32  1  0
 34 33  1  0
 35 34  1  0
 34 37  1  6
 35 36  2  0
 45 35  1  0
 37 38  1  0
 38 39  2  0
 38 40  1  0
 39 41  1  0
 40 42  2  0
 41 43  2  0
 42 43  1  0
 43 44  1  0
 46 45  1  0
 47 46  1  0
 46 49  1  6
 47 48  2  0
 51 47  1  0
 49 50  1  0
 52 51  1  0
 53 52  1  0
 52 55  1  1
 53 54  2  0
 63 53  1  0
 55 56  1  0
 56 57  1  0
 57 58  1  0
 58 59  1  0
 59 60  2  0
 59 61  1  0
 62 64  2  0
 62 65  1  0
 71 62  1  0
 65 63  1  0
 65 66  1  0
 65 70  1  1
 66 69  1  0
 67 68  1  0
 69 67  1  0
 68102  2  0
 72 71  1  0
 73 72  1  0
 72 75  1  6
 73 74  2  0
 80 73  1  0
 75 76  1  0
 76 77  1  0
 77 78  2  0
 77 79  1  0
 81 80  1  0
 82 81  1  0
 81 84  1  6
 82 83  2  0
 88 82  1  0
 84 85  1  0
 85 86  1  1
 85 87  1  0
 89 88  1  0
 90 89  1  0
 89 92  1  6
 90 91  2  0
 97 90  1  0
 92 93  1  0
 93 94  1  1
 93 95  1  0
 96 98  2  0
 99 96  1  0
 96105  1  0
 97 99  1  0
 99100  1  0
 99104  1  6
100103  1  0
102101  1  0
101103  1  0
105106  1  0
106107  1  0
106109  1  6
107108  2  0
107116  1  0
109110  1  0
110111  2  0
110112  1  0
111113  1  0
112114  2  0
113115  2  0
114115  1  0
116117  1  0
117118  1  0
117120  1  6
118119  2  0
118130  1  0
120121  1  0
121122  2  0
121123  1  0
122124  1  0
123125  2  0
123126  1  0
124125  1  0
125127  1  0
126128  2  0
127129  2  0
128129  1  0
M  CHG  4  12   1  21   1  31   1  60   1
M  END
$$$$
