
     RDKit          3D

 24 27  0  0  0  0  0  0  0  0999 V2000
  -15.6042   -9.8710   22.7268 C   0  0  0  0  0  0  0  0  0  0  0  0
  -12.6856  -10.5890   26.1941 C   0  0  0  0  0  0  0  0  0  0  0  0
  -13.2577  -11.5287   28.3455 C   0  0  0  0  0  0  0  0  0  0  0  0
  -12.0720   -9.5270   26.8381 C   0  0  0  0  0  0  0  0  0  0  0  0
  -10.8669   -8.6019   30.1789 C   0  0  0  0  0  0  0  0  0  0  0  0
  -15.9197   -9.2447   23.9118 C   0  0  0  0  0  0  0  0  0  0  0  0
  -13.8064  -14.0489   16.4690 N   0  0  0  0  0  0  0  0  0  0  0  0
  -13.5269  -13.3013   17.6479 C   0  0  0  0  0  0  0  0  0  0  0  0
  -12.3483  -13.0126   18.2122 N   0  0  0  0  0  0  0  0  0  0  0  0
  -12.5133  -12.2872   19.3117 N   0  0  0  0  0  0  0  0  0  0  0  0
  -13.8247  -12.0722   19.5090 C   0  0  0  0  0  0  0  0  0  0  0  0
  -14.4808  -12.7009   18.4747 C   0  0  0  0  0  0  0  0  0  0  0  0
  -14.4398  -11.3151   20.6115 C   0  0  0  0  0  0  0  0  0  0  0  0
  -15.6694  -10.7125   20.4667 C   0  0  0  0  0  0  0  0  0  0  0  0
  -16.2426  -10.0044   21.5010 C   0  0  0  0  0  0  0  0  0  0  0  0
  -14.3591  -10.4747   22.8890 C   0  0  0  0  0  0  0  0  0  0  0  0
  -13.8055  -11.1833   21.8272 C   0  0  0  0  0  0  0  0  0  0  0  0
  -13.9584  -10.2052   24.1419 N   0  0  0  0  0  0  0  0  0  0  0  0
  -12.7062  -10.6461   24.7137 C   0  0  0  0  0  0  0  0  0  0  0  0
  -13.2692  -11.5738   26.9515 C   0  0  0  0  0  0  0  0  0  0  0  0
  -12.6439  -10.4665   28.9978 C   0  0  0  0  0  0  0  0  0  0  0  0
  -12.0616   -9.4840   28.2184 C   0  0  0  0  0  0  0  0  0  0  0  0
  -11.4552   -8.4340   28.8898 O   0  0  0  0  0  0  0  0  0  0  0  0
  -14.8854   -9.4583   24.7921 C   0  0  0  0  0  0  0  0  0  0  0  0
  6  1  1  0
  1 15  2  0
 16  1  1  0
  4  2  2  0
  2 19  1  0
  2 20  1  0
  3 20  2  0
 21  3  1  0
 22  4  1  0
 23  5  1  0
 24  6  2  0
  8  7  1  0
  8  9  2  0
 12  8  1  0
 10  9  1  0
 11 10  1  0
 11 12  2  0
 13 11  1  0
 13 14  2  0
 17 13  1  0
 15 14  1  0
 16 17  2  0
 18 16  1  0
 19 18  1  0
 18 24  1  0
 22 21  2  0
 22 23  1  0
M  END
$$$$
