
     RDKit          3D

 24 27  0  0  0  0  0  0  0  0999 V2000
  -23.5040  -17.6701   12.0120 C   0  0  0  0  0  0  0  0  0  0  0  0
  -23.0528  -21.9966   10.6657 C   0  0  0  0  0  0  0  0  0  0  0  0
  -24.5920  -23.6725    9.8530 C   0  0  0  0  0  0  0  0  0  0  0  0
  -22.4581  -21.9579    9.4151 C   0  0  0  0  0  0  0  0  0  0  0  0
  -20.9549  -22.8846    6.9592 C   0  0  0  0  0  0  0  0  0  0  0  0
  -24.7121  -18.2585   11.7117 C   0  0  0  0  0  0  0  0  0  0  0  0
  -15.9262  -17.4934   13.5327 N   0  0  0  0  0  0  0  0  0  0  0  0
  -17.2119  -16.9228   13.3136 C   0  0  0  0  0  0  0  0  0  0  0  0
  -17.5845  -15.6375   13.3222 N   0  0  0  0  0  0  0  0  0  0  0  0
  -18.8827  -15.5177   13.0716 N   0  0  0  0  0  0  0  0  0  0  0  0
  -19.4136  -16.7380   12.8873 C   0  0  0  0  0  0  0  0  0  0  0  0
  -18.3811  -17.6366   13.0349 C   0  0  0  0  0  0  0  0  0  0  0  0
  -20.8198  -17.0535   12.5870 C   0  0  0  0  0  0  0  0  0  0  0  0
  -21.7788  -16.0668   12.5353 C   0  0  0  0  0  0  0  0  0  0  0  0
  -23.0946  -16.3656   12.2538 C   0  0  0  0  0  0  0  0  0  0  0  0
  -22.5454  -18.6800   12.0610 C   0  0  0  0  0  0  0  0  0  0  0  0
  -21.2248  -18.3482   12.3473 C   0  0  0  0  0  0  0  0  0  0  0  0
  -23.1824  -19.8317   11.7951 N   0  0  0  0  0  0  0  0  0  0  0  0
  -22.5459  -21.1288   11.7545 C   0  0  0  0  0  0  0  0  0  0  0  0
  -24.1085  -22.8497   10.8701 C   0  0  0  0  0  0  0  0  0  0  0  0
  -24.0003  -23.6388    8.5963 C   0  0  0  0  0  0  0  0  0  0  0  0
  -22.9383  -22.7733    8.4093 C   0  0  0  0  0  0  0  0  0  0  0  0
  -22.3633  -22.7561    7.1483 O   0  0  0  0  0  0  0  0  0  0  0  0
  -24.5029  -19.6107   11.5774 C   0  0  0  0  0  0  0  0  0  0  0  0
  6  1  1  0
  1 15  2  0
 16  1  1  0
  4  2  2  0
  2 19  1  0
  2 20  1  0
  3 20  2  0
 21  3  1  0
 22  4  1  0
 23  5  1  0
 24  6  2  0
  8  7  1  0
  8  9  2  0
 12  8  1  0
 10  9  1  0
 11 10  1  0
 11 12  2  0
 13 11  1  0
 13 14  2  0
 17 13  1  0
 15 14  1  0
 16 17  2  0
 18 16  1  0
 19 18  1  0
 18 24  1  0
 22 21  2  0
 22 23  1  0
M  END
$$$$
