
     RDKit          3D

 24 27  0  0  0  0  0  0  0  0999 V2000
  -23.9181  -19.4717   11.4177 C   0  0  0  0  0  0  0  0  0  0  0  0
  -22.3250  -22.6548    8.8304 C   0  0  0  0  0  0  0  0  0  0  0  0
  -22.6826  -21.9199    6.5565 C   0  0  0  0  0  0  0  0  0  0  0  0
  -21.2366  -23.3978    8.4032 C   0  0  0  0  0  0  0  0  0  0  0  0
  -19.2031  -25.1465    7.3989 C   0  0  0  0  0  0  0  0  0  0  0  0
  -25.0959  -20.0899   11.0622 C   0  0  0  0  0  0  0  0  0  0  0  0
  -17.1826  -16.1949   13.3536 N   0  0  0  0  0  0  0  0  0  0  0  0
  -18.0182  -17.2334   12.8537 C   0  0  0  0  0  0  0  0  0  0  0  0
  -17.6849  -18.4422   12.3860 N   0  0  0  0  0  0  0  0  0  0  0  0
  -18.7630  -19.1208   12.0128 N   0  0  0  0  0  0  0  0  0  0  0  0
  -19.8562  -18.3696   12.2260 C   0  0  0  0  0  0  0  0  0  0  0  0
  -19.4115  -17.1787   12.7544 C   0  0  0  0  0  0  0  0  0  0  0  0
  -21.2529  -18.7439   11.9500 C   0  0  0  0  0  0  0  0  0  0  0  0
  -22.2899  -17.8741   12.2032 C   0  0  0  0  0  0  0  0  0  0  0  0
  -23.5965  -18.2275   11.9436 C   0  0  0  0  0  0  0  0  0  0  0  0
  -22.8799  -20.3634   11.1562 C   0  0  0  0  0  0  0  0  0  0  0  0
  -21.5707  -19.9786   11.4283 C   0  0  0  0  0  0  0  0  0  0  0  0
  -23.4419  -21.4769   10.6591 N   0  0  0  0  0  0  0  0  0  0  0  0
  -22.7081  -22.6571   10.2617 C   0  0  0  0  0  0  0  0  0  0  0  0
  -23.0330  -21.9273    7.9065 C   0  0  0  0  0  0  0  0  0  0  0  0
  -21.5921  -22.6627    6.1212 C   0  0  0  0  0  0  0  0  0  0  0  0
  -20.8913  -23.3892    7.0661 C   0  0  0  0  0  0  0  0  0  0  0  0
  -19.8074  -24.1228    6.6098 O   0  0  0  0  0  0  0  0  0  0  0  0
  -24.7900  -21.3438   10.5884 C   0  0  0  0  0  0  0  0  0  0  0  0
  6  1  1  0
  1 15  2  0
 16  1  1  0
  4  2  2  0
  2 19  1  0
  2 20  1  0
  3 20  2  0
 21  3  1  0
 22  4  1  0
 23  5  1  0
 24  6  2  0
  8  7  1  0
  8  9  2  0
 12  8  1  0
 10  9  1  0
 11 10  1  0
 11 12  2  0
 13 11  1  0
 13 14  2  0
 17 13  1  0
 15 14  1  0
 16 17  2  0
 18 16  1  0
 19 18  1  0
 18 24  1  0
 22 21  2  0
 22 23  1  0
M  END
$$$$
