
     RDKit          3D

 24 27  0  0  0  0  0  0  0  0999 V2000
  -13.3262  -10.2671   28.4938 C   0  0  0  0  0  0  0  0  0  0  0  0
  -11.3064   -6.3483   28.3582 C   0  0  0  0  0  0  0  0  0  0  0  0
  -13.1621   -4.8010   28.3306 C   0  0  0  0  0  0  0  0  0  0  0  0
  -10.4379   -5.2867   28.1643 C   0  0  0  0  0  0  0  0  0  0  0  0
  -10.5173   -1.5847   28.1187 C   0  0  0  0  0  0  0  0  0  0  0  0
  -13.2324   -9.9738   29.8358 C   0  0  0  0  0  0  0  0  0  0  0  0
  -11.5711   -9.6249   20.9921 N   0  0  0  0  0  0  0  0  0  0  0  0
  -12.2645  -10.1615   22.1138 C   0  0  0  0  0  0  0  0  0  0  0  0
  -13.2030  -11.1145   22.1570 N   0  0  0  0  0  0  0  0  0  0  0  0
  -13.6025  -11.3313   23.4042 N   0  0  0  0  0  0  0  0  0  0  0  0
  -12.9300  -10.5162   24.2338 C   0  0  0  0  0  0  0  0  0  0  0  0
  -12.0831   -9.7717   23.4439 C   0  0  0  0  0  0  0  0  0  0  0  0
  -13.0696  -10.4340   25.6969 C   0  0  0  0  0  0  0  0  0  0  0  0
  -13.9689  -11.2259   26.3753 C   0  0  0  0  0  0  0  0  0  0  0  0
  -14.0970  -11.1466   27.7453 C   0  0  0  0  0  0  0  0  0  0  0  0
  -12.4117   -9.4586   27.8220 C   0  0  0  0  0  0  0  0  0  0  0  0
  -12.3043   -9.5609   26.4385 C   0  0  0  0  0  0  0  0  0  0  0  0
  -11.7988   -8.7106   28.7535 N   0  0  0  0  0  0  0  0  0  0  0  0
  -10.7772   -7.7276   28.4721 C   0  0  0  0  0  0  0  0  0  0  0  0
  -12.6531   -6.0950   28.4388 C   0  0  0  0  0  0  0  0  0  0  0  0
  -12.2967   -3.7316   28.1361 C   0  0  0  0  0  0  0  0  0  0  0  0
  -10.9438   -4.0061   28.0574 C   0  0  0  0  0  0  0  0  0  0  0  0
  -10.0989   -2.9247   27.8631 O   0  0  0  0  0  0  0  0  0  0  0  0
  -12.2748   -8.9993   29.9904 C   0  0  0  0  0  0  0  0  0  0  0  0
  6  1  1  0
  1 15  2  0
 16  1  1  0
  4  2  2  0
  2 19  1  0
  2 20  1  0
  3 20  2  0
 21  3  1  0
 22  4  1  0
 23  5  1  0
 24  6  2  0
  8  7  1  0
  8  9  2  0
 12  8  1  0
 10  9  1  0
 11 10  1  0
 11 12  2  0
 13 11  1  0
 13 14  2  0
 17 13  1  0
 15 14  1  0
 16 17  2  0
 18 16  1  0
 19 18  1  0
 18 24  1  0
 22 21  2  0
 22 23  1  0
M  END
$$$$
