
     RDKit          3D

 24 27  0  0  0  0  0  0  0  0999 V2000
  -23.2303  -18.3369   13.4357 C   0  0  0  0  0  0  0  0  0  0  0  0
  -23.1757  -21.0398    9.9595 C   0  0  0  0  0  0  0  0  0  0  0  0
  -23.2140  -23.2738   10.8797 C   0  0  0  0  0  0  0  0  0  0  0  0
  -22.5719  -21.5374    8.8163 C   0  0  0  0  0  0  0  0  0  0  0  0
  -21.2042  -22.5820    6.5445 C   0  0  0  0  0  0  0  0  0  0  0  0
  -24.5576  -18.6991   13.3816 C   0  0  0  0  0  0  0  0  0  0  0  0
  -16.1260  -17.1020   10.6476 N   0  0  0  0  0  0  0  0  0  0  0  0
  -17.1111  -17.2047   11.6703 C   0  0  0  0  0  0  0  0  0  0  0  0
  -16.9854  -17.0362   12.9920 N   0  0  0  0  0  0  0  0  0  0  0  0
  -18.1473  -17.2206   13.6069 N   0  0  0  0  0  0  0  0  0  0  0  0
  -19.0885  -17.5208   12.6964 C   0  0  0  0  0  0  0  0  0  0  0  0
  -18.4593  -17.5164   11.4719 C   0  0  0  0  0  0  0  0  0  0  0  0
  -20.5107  -17.7995   12.9549 C   0  0  0  0  0  0  0  0  0  0  0  0
  -21.0845  -17.5183   14.1746 C   0  0  0  0  0  0  0  0  0  0  0  0
  -22.4164  -17.7803   14.4133 C   0  0  0  0  0  0  0  0  0  0  0  0
  -22.6645  -18.6275   12.1961 C   0  0  0  0  0  0  0  0  0  0  0  0
  -21.3172  -18.3517   11.9841 C   0  0  0  0  0  0  0  0  0  0  0  0
  -23.6419  -19.1480   11.4368 N   0  0  0  0  0  0  0  0  0  0  0  0
  -23.4699  -19.5921   10.0720 C   0  0  0  0  0  0  0  0  0  0  0  0
  -23.4887  -21.9096   10.9743 C   0  0  0  0  0  0  0  0  0  0  0  0
  -22.6087  -23.7795    9.7360 C   0  0  0  0  0  0  0  0  0  0  0  0
  -22.3007  -22.8884    8.7245 C   0  0  0  0  0  0  0  0  0  0  0  0
  -21.6974  -23.4145    7.5931 O   0  0  0  0  0  0  0  0  0  0  0  0
  -24.8076  -19.2055   12.1280 C   0  0  0  0  0  0  0  0  0  0  0  0
  6  1  1  0
  1 15  2  0
 16  1  1  0
  4  2  2  0
  2 19  1  0
  2 20  1  0
  3 20  2  0
 21  3  1  0
 22  4  1  0
 23  5  1  0
 24  6  2  0
  8  7  1  0
  8  9  2  0
 12  8  1  0
 10  9  1  0
 11 10  1  0
 11 12  2  0
 13 11  1  0
 13 14  2  0
 17 13  1  0
 15 14  1  0
 16 17  2  0
 18 16  1  0
 19 18  1  0
 18 24  1  0
 22 21  2  0
 22 23  1  0
M  END
$$$$
