
     RDKit          3D

 24 27  0  0  0  0  0  0  0  0999 V2000
  -23.8650  -18.8771   11.7009 C   0  0  0  0  0  0  0  0  0  0  0  0
  -22.0259  -22.2260    9.5280 C   0  0  0  0  0  0  0  0  0  0  0  0
  -21.9821  -21.4074    7.2550 C   0  0  0  0  0  0  0  0  0  0  0  0
  -21.2173  -23.2842    9.1466 C   0  0  0  0  0  0  0  0  0  0  0  0
  -19.5735  -25.4566    8.3208 C   0  0  0  0  0  0  0  0  0  0  0  0
  -25.0023  -19.5881   11.3898 C   0  0  0  0  0  0  0  0  0  0  0  0
  -16.2963  -17.8342   12.8821 N   0  0  0  0  0  0  0  0  0  0  0  0
  -17.6550  -17.4219   12.7783 C   0  0  0  0  0  0  0  0  0  0  0  0
  -18.1875  -16.2033   12.9279 N   0  0  0  0  0  0  0  0  0  0  0  0
  -19.5027  -16.2348   12.7499 N   0  0  0  0  0  0  0  0  0  0  0  0
  -19.8832  -17.4932   12.4735 C   0  0  0  0  0  0  0  0  0  0  0  0
  -18.7376  -18.2566   12.4862 C   0  0  0  0  0  0  0  0  0  0  0  0
  -21.2527  -17.9642   12.2092 C   0  0  0  0  0  0  0  0  0  0  0  0
  -22.3357  -17.1241   12.3404 C   0  0  0  0  0  0  0  0  0  0  0  0
  -23.6167  -17.5682   12.0921 C   0  0  0  0  0  0  0  0  0  0  0  0
  -22.7795  -19.7397   11.5640 C   0  0  0  0  0  0  0  0  0  0  0  0
  -21.4978  -19.2631   11.8212 C   0  0  0  0  0  0  0  0  0  0  0  0
  -23.2747  -20.9277   11.1814 N   0  0  0  0  0  0  0  0  0  0  0  0
  -22.4758  -22.1067   10.9347 C   0  0  0  0  0  0  0  0  0  0  0  0
  -22.3979  -21.3033    8.5823 C   0  0  0  0  0  0  0  0  0  0  0  0
  -21.1709  -22.4661    6.8656 C   0  0  0  0  0  0  0  0  0  0  0  0
  -20.8066  -23.3855    7.8319 C   0  0  0  0  0  0  0  0  0  0  0  0
  -19.9974  -24.4332    7.4214 O   0  0  0  0  0  0  0  0  0  0  0  0
  -24.6250  -20.8699   11.0657 C   0  0  0  0  0  0  0  0  0  0  0  0
  6  1  1  0
  1 15  2  0
 16  1  1  0
  4  2  2  0
  2 19  1  0
  2 20  1  0
  3 20  2  0
 21  3  1  0
 22  4  1  0
 23  5  1  0
 24  6  2  0
  8  7  1  0
  8  9  2  0
 12  8  1  0
 10  9  1  0
 11 10  1  0
 11 12  2  0
 13 11  1  0
 13 14  2  0
 17 13  1  0
 15 14  1  0
 16 17  2  0
 18 16  1  0
 19 18  1  0
 18 24  1  0
 22 21  2  0
 22 23  1  0
M  END
$$$$
