
     RDKit          3D

 24 27  0  0  0  0  0  0  0  0999 V2000
  -23.8464  -20.4828   12.5569 C   0  0  0  0  0  0  0  0  0  0  0  0
  -23.3657  -20.9234    8.2275 C   0  0  0  0  0  0  0  0  0  0  0  0
  -21.8703  -22.8165    8.0908 C   0  0  0  0  0  0  0  0  0  0  0  0
  -23.1712  -20.6914    6.8757 C   0  0  0  0  0  0  0  0  0  0  0  0
  -22.8494  -20.3344    4.0666 C   0  0  0  0  0  0  0  0  0  0  0  0
  -24.9429  -21.2799   12.3156 C   0  0  0  0  0  0  0  0  0  0  0  0
  -17.2532  -16.5141   13.3483 N   0  0  0  0  0  0  0  0  0  0  0  0
  -18.5158  -16.8196   12.7658 C   0  0  0  0  0  0  0  0  0  0  0  0
  -19.1527  -16.2194   11.7533 N   0  0  0  0  0  0  0  0  0  0  0  0
  -20.3170  -16.8084   11.5089 N   0  0  0  0  0  0  0  0  0  0  0  0
  -20.4861  -17.8298   12.3650 C   0  0  0  0  0  0  0  0  0  0  0  0
  -19.3657  -17.8554   13.1646 C   0  0  0  0  0  0  0  0  0  0  0  0
  -21.6397  -18.7417   12.4357 C   0  0  0  0  0  0  0  0  0  0  0  0
  -22.0326  -19.3068   13.6282 C   0  0  0  0  0  0  0  0  0  0  0  0
  -23.1132  -20.1601   13.6910 C   0  0  0  0  0  0  0  0  0  0  0  0
  -23.4612  -19.9192   11.3423 C   0  0  0  0  0  0  0  0  0  0  0  0
  -22.3663  -19.0611   11.3098 C   0  0  0  0  0  0  0  0  0  0  0  0
  -24.3154  -20.3788   10.4139 N   0  0  0  0  0  0  0  0  0  0  0  0
  -24.2598  -20.0384    9.0102 C   0  0  0  0  0  0  0  0  0  0  0  0
  -22.7159  -21.9787    8.8177 C   0  0  0  0  0  0  0  0  0  0  0  0
  -21.6707  -22.5895    6.7347 C   0  0  0  0  0  0  0  0  0  0  0  0
  -22.3335  -21.5220    6.1577 C   0  0  0  0  0  0  0  0  0  0  0  0
  -22.1199  -21.3141    4.8040 O   0  0  0  0  0  0  0  0  0  0  0  0
  -25.2303  -21.2097   10.9729 C   0  0  0  0  0  0  0  0  0  0  0  0
  6  1  1  0
  1 15  2  0
 16  1  1  0
  4  2  2  0
  2 19  1  0
  2 20  1  0
  3 20  2  0
 21  3  1  0
 22  4  1  0
 23  5  1  0
 24  6  2  0
  8  7  1  0
  8  9  2  0
 12  8  1  0
 10  9  1  0
 11 10  1  0
 11 12  2  0
 13 11  1  0
 13 14  2  0
 17 13  1  0
 15 14  1  0
 16 17  2  0
 18 16  1  0
 19 18  1  0
 18 24  1  0
 22 21  2  0
 22 23  1  0
M  END
$$$$
