
     RDKit          3D

 24 27  0  0  0  0  0  0  0  0999 V2000
  -11.7286   -7.4898   28.6647 C   0  0  0  0  0  0  0  0  0  0  0  0
  -12.4473  -11.8638   29.4039 C   0  0  0  0  0  0  0  0  0  0  0  0
  -10.3291  -12.8692   29.9876 C   0  0  0  0  0  0  0  0  0  0  0  0
  -13.0996  -12.9576   29.9490 C   0  0  0  0  0  0  0  0  0  0  0  0
  -14.3277  -15.4410   30.7252 C   0  0  0  0  0  0  0  0  0  0  0  0
  -11.8268   -7.6783   30.0251 C   0  0  0  0  0  0  0  0  0  0  0  0
  -11.0219   -6.7942   20.9921 N   0  0  0  0  0  0  0  0  0  0  0  0
  -11.4902   -7.3877   22.1984 C   0  0  0  0  0  0  0  0  0  0  0  0
  -12.2803   -8.4541   22.3705 N   0  0  0  0  0  0  0  0  0  0  0  0
  -12.4865   -8.6890   23.6607 N   0  0  0  0  0  0  0  0  0  0  0  0
  -11.8293   -7.7714   24.3895 C   0  0  0  0  0  0  0  0  0  0  0  0
  -11.1959   -6.9431   23.4906 C   0  0  0  0  0  0  0  0  0  0  0  0
  -11.7926   -7.6703   25.8577 C   0  0  0  0  0  0  0  0  0  0  0  0
  -11.2830   -6.5557   26.4853 C   0  0  0  0  0  0  0  0  0  0  0  0
  -11.2503   -6.4641   27.8602 C   0  0  0  0  0  0  0  0  0  0  0  0
  -12.2472   -8.6245   28.0446 C   0  0  0  0  0  0  0  0  0  0  0  0
  -12.2674   -8.6886   26.6548 C   0  0  0  0  0  0  0  0  0  0  0  0
  -12.6387   -9.4559   29.0236 N   0  0  0  0  0  0  0  0  0  0  0  0
  -13.2296  -10.7569   28.8054 C   0  0  0  0  0  0  0  0  0  0  0  0
  -11.0753  -11.8317   29.4290 C   0  0  0  0  0  0  0  0  0  0  0  0
  -10.9769  -13.9692   30.5362 C   0  0  0  0  0  0  0  0  0  0  0  0
  -12.3591  -13.9839   30.5017 C   0  0  0  0  0  0  0  0  0  0  0  0
  -12.9843  -15.0906   31.0543 O   0  0  0  0  0  0  0  0  0  0  0  0
  -12.3972   -8.9104   30.2418 C   0  0  0  0  0  0  0  0  0  0  0  0
  6  1  1  0
  1 15  2  0
 16  1  1  0
  4  2  2  0
  2 19  1  0
  2 20  1  0
  3 20  2  0
 21  3  1  0
 22  4  1  0
 23  5  1  0
 24  6  2  0
  8  7  1  0
  8  9  2  0
 12  8  1  0
 10  9  1  0
 11 10  1  0
 11 12  2  0
 13 11  1  0
 13 14  2  0
 17 13  1  0
 15 14  1  0
 16 17  2  0
 18 16  1  0
 19 18  1  0
 18 24  1  0
 22 21  2  0
 22 23  1  0
M  END
$$$$
