
     RDKit          3D

 24 27  0  0  0  0  0  0  0  0999 V2000
  -23.2459  -18.4476   13.3208 C   0  0  0  0  0  0  0  0  0  0  0  0
  -23.1128  -21.2230    9.8902 C   0  0  0  0  0  0  0  0  0  0  0  0
  -23.3780  -23.4730   10.7305 C   0  0  0  0  0  0  0  0  0  0  0  0
  -22.3066  -21.7131    8.8758 C   0  0  0  0  0  0  0  0  0  0  0  0
  -20.6365  -22.7540    6.8189 C   0  0  0  0  0  0  0  0  0  0  0  0
  -24.5578  -18.8607   13.2565 C   0  0  0  0  0  0  0  0  0  0  0  0
  -16.0883  -17.2462   10.6575 N   0  0  0  0  0  0  0  0  0  0  0  0
  -17.1205  -17.2273   11.6378 C   0  0  0  0  0  0  0  0  0  0  0  0
  -17.0795  -16.8065   12.9076 N   0  0  0  0  0  0  0  0  0  0  0  0
  -18.2601  -16.9566   13.4958 N   0  0  0  0  0  0  0  0  0  0  0  0
  -19.1283  -17.4886   12.6194 C   0  0  0  0  0  0  0  0  0  0  0  0
  -18.4332  -17.6671   11.4445 C   0  0  0  0  0  0  0  0  0  0  0  0
  -20.5423  -17.8163   12.8649 C   0  0  0  0  0  0  0  0  0  0  0  0
  -21.1425  -17.5353   14.0718 C   0  0  0  0  0  0  0  0  0  0  0  0
  -22.4667  -17.8433   14.2984 C   0  0  0  0  0  0  0  0  0  0  0  0
  -22.6530  -18.7386   12.0941 C   0  0  0  0  0  0  0  0  0  0  0  0
  -21.3144  -18.4159   11.8942 C   0  0  0  0  0  0  0  0  0  0  0  0
  -23.5999  -19.3092   11.3320 N   0  0  0  0  0  0  0  0  0  0  0  0
  -23.3931  -19.7708    9.9780 C   0  0  0  0  0  0  0  0  0  0  0  0
  -23.6373  -22.1044   10.8024 C   0  0  0  0  0  0  0  0  0  0  0  0
  -22.5703  -23.9712    9.7157 C   0  0  0  0  0  0  0  0  0  0  0  0
  -22.0510  -23.0684    8.8062 C   0  0  0  0  0  0  0  0  0  0  0  0
  -21.2482  -23.5872    7.8025 O   0  0  0  0  0  0  0  0  0  0  0  0
  -24.7718  -19.3986   12.0093 C   0  0  0  0  0  0  0  0  0  0  0  0
  6  1  1  0
  1 15  2  0
 16  1  1  0
  4  2  2  0
  2 19  1  0
  2 20  1  0
  3 20  2  0
 21  3  1  0
 22  4  1  0
 23  5  1  0
 24  6  2  0
  8  7  1  0
  8  9  2  0
 12  8  1  0
 10  9  1  0
 11 10  1  0
 11 12  2  0
 13 11  1  0
 13 14  2  0
 17 13  1  0
 15 14  1  0
 16 17  2  0
 18 16  1  0
 19 18  1  0
 18 24  1  0
 22 21  2  0
 22 23  1  0
M  END
$$$$
