
     RDKit          3D

 24 27  0  0  0  0  0  0  0  0999 V2000
  -22.2901  -18.2273   11.0891 C   0  0  0  0  0  0  0  0  0  0  0  0
  -24.6231  -18.3402   14.9821 C   0  0  0  0  0  0  0  0  0  0  0  0
  -26.8220  -18.7251   15.9068 C   0  0  0  0  0  0  0  0  0  0  0  0
  -24.8694  -16.9772   15.0030 C   0  0  0  0  0  0  0  0  0  0  0  0
  -27.6224  -14.6510   15.9296 C   0  0  0  0  0  0  0  0  0  0  0  0
  -23.5842  -18.6559   10.8959 C   0  0  0  0  0  0  0  0  0  0  0  0
  -15.9252  -16.6093   15.1682 N   0  0  0  0  0  0  0  0  0  0  0  0
  -16.7257  -16.6609   13.9921 C   0  0  0  0  0  0  0  0  0  0  0  0
  -16.4367  -16.2596   12.7485 N   0  0  0  0  0  0  0  0  0  0  0  0
  -17.4570  -16.4813   11.9288 N   0  0  0  0  0  0  0  0  0  0  0  0
  -18.4648  -17.0437   12.6165 C   0  0  0  0  0  0  0  0  0  0  0  0
  -18.0270  -17.1660   13.9160 C   0  0  0  0  0  0  0  0  0  0  0  0
  -19.7773  -17.4493   12.0874 C   0  0  0  0  0  0  0  0  0  0  0  0
  -20.0408  -17.4295   10.7360 C   0  0  0  0  0  0  0  0  0  0  0  0
  -21.2707  -17.8100   10.2438 C   0  0  0  0  0  0  0  0  0  0  0  0
  -22.0392  -18.2526   12.4594 C   0  0  0  0  0  0  0  0  0  0  0  0
  -20.7879  -17.8630   12.9271 C   0  0  0  0  0  0  0  0  0  0  0  0
  -23.1637  -18.6867   13.0510 N   0  0  0  0  0  0  0  0  0  0  0  0
  -23.3271  -18.8515   14.4777 C   0  0  0  0  0  0  0  0  0  0  0  0
  -25.5978  -19.1955   15.4322 C   0  0  0  0  0  0  0  0  0  0  0  0
  -27.0757  -17.3593   15.9305 C   0  0  0  0  0  0  0  0  0  0  0  0
  -26.0822  -16.5133   15.4732 C   0  0  0  0  0  0  0  0  0  0  0  0
  -26.3566  -15.1551   15.5059 O   0  0  0  0  0  0  0  0  0  0  0  0
  -24.1242  -18.9416   12.1277 C   0  0  0  0  0  0  0  0  0  0  0  0
  6  1  1  0
  1 15  2  0
 16  1  1  0
  4  2  2  0
  2 19  1  0
  2 20  1  0
  3 20  2  0
 21  3  1  0
 22  4  1  0
 23  5  1  0
 24  6  2  0
  8  7  1  0
  8  9  2  0
 12  8  1  0
 10  9  1  0
 11 10  1  0
 11 12  2  0
 13 11  1  0
 13 14  2  0
 17 13  1  0
 15 14  1  0
 16 17  2  0
 18 16  1  0
 19 18  1  0
 18 24  1  0
 22 21  2  0
 22 23  1  0
M  END
$$$$
