
     RDKit          3D

 24 27  0  0  0  0  0  0  0  0999 V2000
  -21.8096  -18.8018   14.7519 C   0  0  0  0  0  0  0  0  0  0  0  0
  -23.3106  -20.3837   10.8687 C   0  0  0  0  0  0  0  0  0  0  0  0
  -22.1864  -22.3602   10.0512 C   0  0  0  0  0  0  0  0  0  0  0  0
  -24.5277  -20.9603   10.5446 C   0  0  0  0  0  0  0  0  0  0  0  0
  -25.8101  -24.0909    8.9949 C   0  0  0  0  0  0  0  0  0  0  0  0
  -23.0477  -19.3265   15.0479 C   0  0  0  0  0  0  0  0  0  0  0  0
  -16.3262  -15.7544   10.2336 N   0  0  0  0  0  0  0  0  0  0  0  0
  -16.8483  -16.2979   11.4414 C   0  0  0  0  0  0  0  0  0  0  0  0
  -16.2377  -16.5058   12.6140 N   0  0  0  0  0  0  0  0  0  0  0  0
  -17.0751  -17.0341   13.4983 N   0  0  0  0  0  0  0  0  0  0  0  0
  -18.2809  -17.1931   12.9278 C   0  0  0  0  0  0  0  0  0  0  0  0
  -18.1614  -16.7368   11.6344 C   0  0  0  0  0  0  0  0  0  0  0  0
  -19.4909  -17.7454   13.5587 C   0  0  0  0  0  0  0  0  0  0  0  0
  -19.5682  -17.9256   14.9216 C   0  0  0  0  0  0  0  0  0  0  0  0
  -20.7026  -18.4428   15.5092 C   0  0  0  0  0  0  0  0  0  0  0  0
  -21.7470  -18.6257   13.3712 C   0  0  0  0  0  0  0  0  0  0  0  0
  -20.5886  -18.1012   12.8062 C   0  0  0  0  0  0  0  0  0  0  0  0
  -22.9237  -19.0395   12.8743 N   0  0  0  0  0  0  0  0  0  0  0  0
  -23.2684  -19.0305   11.4706 C   0  0  0  0  0  0  0  0  0  0  0  0
  -22.1583  -21.0868   10.6196 C   0  0  0  0  0  0  0  0  0  0  0  0
  -23.4037  -22.9445    9.7238 C   0  0  0  0  0  0  0  0  0  0  0  0
  -24.5535  -22.2213    9.9820 C   0  0  0  0  0  0  0  0  0  0  0  0
  -25.7564  -22.8231    9.6474 O   0  0  0  0  0  0  0  0  0  0  0  0
  -23.7390  -19.4723   13.8683 C   0  0  0  0  0  0  0  0  0  0  0  0
  6  1  1  0
  1 15  2  0
 16  1  1  0
  4  2  2  0
  2 19  1  0
  2 20  1  0
  3 20  2  0
 21  3  1  0
 22  4  1  0
 23  5  1  0
 24  6  2  0
  8  7  1  0
  8  9  2  0
 12  8  1  0
 10  9  1  0
 11 10  1  0
 11 12  2  0
 13 11  1  0
 13 14  2  0
 17 13  1  0
 15 14  1  0
 16 17  2  0
 18 16  1  0
 19 18  1  0
 18 24  1  0
 22 21  2  0
 22 23  1  0
M  END
$$$$
