
     RDKit          3D

 24 27  0  0  0  0  0  0  0  0999 V2000
  -11.9028   -8.7356   27.8331 C   0  0  0  0  0  0  0  0  0  0  0  0
  -15.1290  -11.6869   28.2640 C   0  0  0  0  0  0  0  0  0  0  0  0
  -17.1035  -10.2957   28.3328 C   0  0  0  0  0  0  0  0  0  0  0  0
  -15.9377  -12.8009   28.1089 C   0  0  0  0  0  0  0  0  0  0  0  0
  -17.6366  -15.0344   27.5905 C   0  0  0  0  0  0  0  0  0  0  0  0
  -11.9513   -8.8040   29.2074 C   0  0  0  0  0  0  0  0  0  0  0  0
  -13.4816  -10.9364   20.5920 N   0  0  0  0  0  0  0  0  0  0  0  0
  -12.8359  -10.1546   21.5913 C   0  0  0  0  0  0  0  0  0  0  0  0
  -11.9434   -9.1670   21.4534 N   0  0  0  0  0  0  0  0  0  0  0  0
  -11.5789   -8.6877   22.6365 N   0  0  0  0  0  0  0  0  0  0  0  0
  -12.2292   -9.3542   23.6049 C   0  0  0  0  0  0  0  0  0  0  0  0
  -13.0251  -10.2813   22.9706 C   0  0  0  0  0  0  0  0  0  0  0  0
  -12.1147   -9.1376   25.0565 C   0  0  0  0  0  0  0  0  0  0  0  0
  -11.4869   -8.0230   25.5660 C   0  0  0  0  0  0  0  0  0  0  0  0
  -11.3815   -7.8231   26.9256 C   0  0  0  0  0  0  0  0  0  0  0  0
  -12.5409   -9.8688   27.3332 C   0  0  0  0  0  0  0  0  0  0  0  0
  -12.6323  -10.0437   25.9558 C   0  0  0  0  0  0  0  0  0  0  0  0
  -12.9518  -10.5817   28.3943 N   0  0  0  0  0  0  0  0  0  0  0  0
  -13.6562  -11.8411   28.3116 C   0  0  0  0  0  0  0  0  0  0  0  0
  -15.7181  -10.4519   28.3738 C   0  0  0  0  0  0  0  0  0  0  0  0
  -17.9205  -11.4087   28.1774 C   0  0  0  0  0  0  0  0  0  0  0  0
  -17.3092  -12.6441   28.0685 C   0  0  0  0  0  0  0  0  0  0  0  0
  -18.1432  -13.7404   27.9143 O   0  0  0  0  0  0  0  0  0  0  0  0
  -12.6090   -9.9614   29.5510 C   0  0  0  0  0  0  0  0  0  0  0  0
  6  1  1  0
  1 15  2  0
 16  1  1  0
  4  2  2  0
  2 19  1  0
  2 20  1  0
  3 20  2  0
 21  3  1  0
 22  4  1  0
 23  5  1  0
 24  6  2  0
  8  7  1  0
  8  9  2  0
 12  8  1  0
 10  9  1  0
 11 10  1  0
 11 12  2  0
 13 11  1  0
 13 14  2  0
 17 13  1  0
 15 14  1  0
 16 17  2  0
 18 16  1  0
 19 18  1  0
 18 24  1  0
 22 21  2  0
 22 23  1  0
M  END
$$$$
