
     RDKit          3D

 24 27  0  0  0  0  0  0  0  0999 V2000
  -24.1757  -18.8758   11.5886 C   0  0  0  0  0  0  0  0  0  0  0  0
  -22.3704  -22.4676    9.8400 C   0  0  0  0  0  0  0  0  0  0  0  0
  -20.7592  -23.5477    8.3991 C   0  0  0  0  0  0  0  0  0  0  0  0
  -22.8986  -21.8174    8.7367 C   0  0  0  0  0  0  0  0  0  0  0  0
  -22.1559  -21.3907    5.1256 C   0  0  0  0  0  0  0  0  0  0  0  0
  -25.3363  -19.5472   11.2755 C   0  0  0  0  0  0  0  0  0  0  0  0
  -16.6183  -18.1496   13.0469 N   0  0  0  0  0  0  0  0  0  0  0  0
  -17.9484  -17.6764   12.8636 C   0  0  0  0  0  0  0  0  0  0  0  0
  -18.4231  -16.4269   12.9296 N   0  0  0  0  0  0  0  0  0  0  0  0
  -19.7296  -16.4022   12.6959 N   0  0  0  0  0  0  0  0  0  0  0  0
  -20.1629  -17.6528   12.4653 C   0  0  0  0  0  0  0  0  0  0  0  0
  -19.0598  -18.4703   12.5657 C   0  0  0  0  0  0  0  0  0  0  0  0
  -21.5428  -18.0684   12.1648 C   0  0  0  0  0  0  0  0  0  0  0  0
  -22.5783  -17.1608   12.1608 C   0  0  0  0  0  0  0  0  0  0  0  0
  -23.8692  -17.5531   11.8790 C   0  0  0  0  0  0  0  0  0  0  0  0
  -23.1388  -19.8065   11.5889 C   0  0  0  0  0  0  0  0  0  0  0  0
  -21.8457  -19.3810   11.8769 C   0  0  0  0  0  0  0  0  0  0  0  0
  -23.6846  -20.9944   11.2826 N   0  0  0  0  0  0  0  0  0  0  0  0
  -22.9470  -22.2335   11.1846 C   0  0  0  0  0  0  0  0  0  0  0  0
  -21.3111  -23.3219    9.6599 C   0  0  0  0  0  0  0  0  0  0  0  0
  -21.2841  -22.8988    7.2883 C   0  0  0  0  0  0  0  0  0  0  0  0
  -22.3507  -22.0422    7.4892 C   0  0  0  0  0  0  0  0  0  0  0  0
  -22.8584  -21.4057    6.3675 O   0  0  0  0  0  0  0  0  0  0  0  0
  -25.0211  -20.8720   11.0853 C   0  0  0  0  0  0  0  0  0  0  0  0
  6  1  1  0
  1 15  2  0
 16  1  1  0
  4  2  2  0
  2 19  1  0
  2 20  1  0
  3 20  2  0
 21  3  1  0
 22  4  1  0
 23  5  1  0
 24  6  2  0
  8  7  1  0
  8  9  2  0
 12  8  1  0
 10  9  1  0
 11 10  1  0
 11 12  2  0
 13 11  1  0
 13 14  2  0
 17 13  1  0
 15 14  1  0
 16 17  2  0
 18 16  1  0
 19 18  1  0
 18 24  1  0
 22 21  2  0
 22 23  1  0
M  END
$$$$
