
     RDKit          3D

 24 27  0  0  0  0  0  0  0  0999 V2000
  -23.9248  -19.4767   11.8659 C   0  0  0  0  0  0  0  0  0  0  0  0
  -22.5221  -22.3201    8.7956 C   0  0  0  0  0  0  0  0  0  0  0  0
  -22.5837  -20.9882    6.7804 C   0  0  0  0  0  0  0  0  0  0  0  0
  -22.1466  -23.4187    8.0400 C   0  0  0  0  0  0  0  0  0  0  0  0
  -20.6666  -25.3260    6.3410 C   0  0  0  0  0  0  0  0  0  0  0  0
  -25.1022  -20.1202   11.5569 C   0  0  0  0  0  0  0  0  0  0  0  0
  -17.1855  -15.9022   13.1524 N   0  0  0  0  0  0  0  0  0  0  0  0
  -18.0199  -17.0072   12.8217 C   0  0  0  0  0  0  0  0  0  0  0  0
  -17.6827  -18.2650   12.5132 N   0  0  0  0  0  0  0  0  0  0  0  0
  -18.7611  -18.9987   12.2660 N   0  0  0  0  0  0  0  0  0  0  0  0
  -19.8583  -18.2362   12.4059 C   0  0  0  0  0  0  0  0  0  0  0  0
  -19.4160  -16.9802   12.7551 C   0  0  0  0  0  0  0  0  0  0  0  0
  -21.2567  -18.6583   12.2227 C   0  0  0  0  0  0  0  0  0  0  0  0
  -22.3026  -17.8796   12.6649 C   0  0  0  0  0  0  0  0  0  0  0  0
  -23.6108  -18.2776   12.4916 C   0  0  0  0  0  0  0  0  0  0  0  0
  -22.8775  -20.2761   11.4130 C   0  0  0  0  0  0  0  0  0  0  0  0
  -21.5670  -19.8482   11.6017 C   0  0  0  0  0  0  0  0  0  0  0  0
  -23.4337  -21.3621   10.8524 N   0  0  0  0  0  0  0  0  0  0  0  0
  -22.6889  -22.4511   10.2620 C   0  0  0  0  0  0  0  0  0  0  0  0
  -22.7356  -21.1221    8.1604 C   0  0  0  0  0  0  0  0  0  0  0  0
  -22.2073  -22.0860    6.0165 C   0  0  0  0  0  0  0  0  0  0  0  0
  -21.9967  -23.2842    6.6738 C   0  0  0  0  0  0  0  0  0  0  0  0
  -21.6220  -24.3659    5.8924 O   0  0  0  0  0  0  0  0  0  0  0  0
  -24.7869  -21.2989   10.9229 C   0  0  0  0  0  0  0  0  0  0  0  0
  6  1  1  0
  1 15  2  0
 16  1  1  0
  4  2  2  0
  2 19  1  0
  2 20  1  0
  3 20  2  0
 21  3  1  0
 22  4  1  0
 23  5  1  0
 24  6  2  0
  8  7  1  0
  8  9  2  0
 12  8  1  0
 10  9  1  0
 11 10  1  0
 11 12  2  0
 13 11  1  0
 13 14  2  0
 17 13  1  0
 15 14  1  0
 16 17  2  0
 18 16  1  0
 19 18  1  0
 18 24  1  0
 22 21  2  0
 22 23  1  0
M  END
$$$$
