
     RDKit          3D

 16 18  0  0  0  0  0  0  0  0999 V2000
    5.3263   10.6516   27.7415 C   0  0  0  0  0  0  0  0  0  0  0  0
    4.2804   11.4979   27.9253 C   0  0  0  0  0  0  0  0  0  0  0  0
    3.9841   12.7040   27.2779 C   0  0  0  0  0  0  0  0  0  0  0  0
    5.7409    9.7405   28.6978 C   0  0  0  0  0  0  0  0  0  0  0  0
    5.3322    9.4046   29.9648 C   0  0  0  0  0  0  0  0  0  0  0  0
    6.0054    8.4176   30.6365 C   0  0  0  0  0  0  0  0  0  0  0  0
    7.0646    7.7697   30.0728 C   0  0  0  0  0  0  0  0  0  0  0  0
    7.4523    8.1232   28.8086 C   0  0  0  0  0  0  0  0  0  0  0  0
    6.8240    9.0969   28.0874 C   0  0  0  0  0  0  0  0  0  0  0  0
    3.4606   11.1429   28.8062 O   0  0  0  0  0  0  0  0  0  0  0  0
    4.4916   13.1585   26.0811 C   0  0  0  0  0  0  0  0  0  0  0  0
    5.3287   12.4806   25.1934 C   0  0  0  0  0  0  0  0  0  0  0  0
    6.0320   11.3040   25.4300 C   0  0  0  0  0  0  0  0  0  0  0  0
    6.1125   10.5715   26.6062 C   0  0  0  0  0  0  0  0  0  0  0  0
    7.0168    9.6070   26.8611 N   0  0  0  0  0  0  0  0  0  0  0  0
    8.8181    7.2841   28.0881 Cl  0  0  0  0  0  0  0  0  0  0  0  0
  1  2  1  0
  1  4  1  0
  1 14  2  0
  2  3  1  0
  2 10  2  0
  3 11  2  0
  4  5  2  0
  4  9  1  0
  5  6  1  0
  6  7  2  0
  7  8  1  0
  8  9  2  0
  8 16  1  0
  9 15  1  0
 11 12  1  0
 12 13  2  0
 13 14  1  0
 14 15  1  0
M  END
$$$$
