
     RDKit          3D

 16 18  0  0  0  0  0  0  0  0999 V2000
    6.7519    8.5484   28.2529 C   0  0  0  0  0  0  0  0  0  0  0  0
    6.1507    8.3323   29.4513 C   0  0  0  0  0  0  0  0  0  0  0  0
    5.3841    9.2039   30.2350 C   0  0  0  0  0  0  0  0  0  0  0  0
    7.8082    7.7850   27.7865 C   0  0  0  0  0  0  0  0  0  0  0  0
    8.5235    6.7155   28.2662 C   0  0  0  0  0  0  0  0  0  0  0  0
    9.5384    6.2026   27.5012 C   0  0  0  0  0  0  0  0  0  0  0  0
    9.8471    6.7317   26.2829 C   0  0  0  0  0  0  0  0  0  0  0  0
    9.1191    7.7976   25.8274 C   0  0  0  0  0  0  0  0  0  0  0  0
    8.0969    8.3541   26.5404 C   0  0  0  0  0  0  0  0  0  0  0  0
    6.3078    7.1801   29.9222 O   0  0  0  0  0  0  0  0  0  0  0  0
    4.7781   10.3746   29.8366 C   0  0  0  0  0  0  0  0  0  0  0  0
    4.6994   10.9020   28.5468 C   0  0  0  0  0  0  0  0  0  0  0  0
    5.4184   10.4991   27.4262 C   0  0  0  0  0  0  0  0  0  0  0  0
    6.4111    9.5326   27.3426 C   0  0  0  0  0  0  0  0  0  0  0  0
    7.2598    9.3772   26.3090 N   0  0  0  0  0  0  0  0  0  0  0  0
    9.5224    8.4746   24.2564 Cl  0  0  0  0  0  0  0  0  0  0  0  0
  1  2  1  0
  1  4  1  0
  1 14  2  0
  2  3  1  0
  2 10  2  0
  3 11  2  0
  4  5  2  0
  4  9  1  0
  5  6  1  0
  6  7  2  0
  7  8  1  0
  8  9  2  0
  8 16  1  0
  9 15  1  0
 11 12  1  0
 12 13  2  0
 13 14  1  0
 14 15  1  0
M  END
$$$$
