
     RDKit          3D

 16 18  0  0  0  0  0  0  0  0999 V2000
    5.3916   10.7429   27.3261 C   0  0  0  0  0  0  0  0  0  0  0  0
    4.4174   11.6867   27.3920 C   0  0  0  0  0  0  0  0  0  0  0  0
    4.2827   12.8817   26.6742 C   0  0  0  0  0  0  0  0  0  0  0  0
    5.6479    9.8457   28.3486 C   0  0  0  0  0  0  0  0  0  0  0  0
    5.1166    9.6088   29.5924 C   0  0  0  0  0  0  0  0  0  0  0  0
    5.6440    8.5994   30.3550 C   0  0  0  0  0  0  0  0  0  0  0  0
    6.6780    7.8336   29.9034 C   0  0  0  0  0  0  0  0  0  0  0  0
    7.1898    8.0901   28.6601 C   0  0  0  0  0  0  0  0  0  0  0  0
    6.7095    9.0799   27.8522 C   0  0  0  0  0  0  0  0  0  0  0  0
    3.5049   11.4487   28.2197 O   0  0  0  0  0  0  0  0  0  0  0  0
    4.9178   13.2313   25.5033 C   0  0  0  0  0  0  0  0  0  0  0  0
    5.7526   12.4398   24.7129 C   0  0  0  0  0  0  0  0  0  0  0  0
    6.3248   11.2182   25.0523 C   0  0  0  0  0  0  0  0  0  0  0  0
    6.2495   10.5389   26.2603 C   0  0  0  0  0  0  0  0  0  0  0  0
    7.0394    9.5113   26.6250 N   0  0  0  0  0  0  0  0  0  0  0  0
    8.5223    7.0993   28.0844 Cl  0  0  0  0  0  0  0  0  0  0  0  0
  1  2  1  0
  1  4  1  0
  1 14  2  0
  2  3  1  0
  2 10  2  0
  3 11  2  0
  4  5  2  0
  4  9  1  0
  5  6  1  0
  6  7  2  0
  7  8  1  0
  8  9  2  0
  8 16  1  0
  9 15  1  0
 11 12  1  0
 12 13  2  0
 13 14  1  0
 14 15  1  0
M  END
$$$$
