
     RDKit          3D

 16 18  0  0  0  0  0  0  0  0999 V2000
    5.1739   10.7737   27.6919 C   0  0  0  0  0  0  0  0  0  0  0  0
    4.1676   11.6798   27.7933 C   0  0  0  0  0  0  0  0  0  0  0  0
    3.9664   12.8725   27.0872 C   0  0  0  0  0  0  0  0  0  0  0  0
    5.4948    9.8816   28.7007 C   0  0  0  0  0  0  0  0  0  0  0  0
    5.0112    9.6187   29.9586 C   0  0  0  0  0  0  0  0  0  0  0  0
    5.5991    8.6261   30.6985 C   0  0  0  0  0  0  0  0  0  0  0  0
    6.6467    7.9019   30.2110 C   0  0  0  0  0  0  0  0  0  0  0  0
    7.1101    8.1836   28.9543 C   0  0  0  0  0  0  0  0  0  0  0  0
    6.5687    9.1587   28.1675 C   0  0  0  0  0  0  0  0  0  0  0  0
    3.2905   11.4036   28.6469 O   0  0  0  0  0  0  0  0  0  0  0  0
    4.5517   13.2515   25.8997 C   0  0  0  0  0  0  0  0  0  0  0  0
    5.3909   12.4959   25.0794 C   0  0  0  0  0  0  0  0  0  0  0  0
    6.0185   11.2949   25.3937 C   0  0  0  0  0  0  0  0  0  0  0  0
    6.0058   10.6073   26.5993 C   0  0  0  0  0  0  0  0  0  0  0  0
    6.8444    9.6083   26.9334 N   0  0  0  0  0  0  0  0  0  0  0  0
    8.4605    7.2464   28.3322 Cl  0  0  0  0  0  0  0  0  0  0  0  0
  1  2  1  0
  1  4  1  0
  1 14  2  0
  2  3  1  0
  2 10  2  0
  3 11  2  0
  4  5  2  0
  4  9  1  0
  5  6  1  0
  6  7  2  0
  7  8  1  0
  8  9  2  0
  8 16  1  0
  9 15  1  0
 11 12  1  0
 12 13  2  0
 13 14  1  0
 14 15  1  0
M  END
$$$$
