
     RDKit          3D

 16 18  0  0  0  0  0  0  0  0999 V2000
    5.4183   10.8305   27.4841 C   0  0  0  0  0  0  0  0  0  0  0  0
    4.4277   11.7588   27.5175 C   0  0  0  0  0  0  0  0  0  0  0  0
    4.2805   12.9339   26.7697 C   0  0  0  0  0  0  0  0  0  0  0  0
    5.6788    9.9626   28.5306 C   0  0  0  0  0  0  0  0  0  0  0  0
    5.1386    9.7465   29.7743 C   0  0  0  0  0  0  0  0  0  0  0  0
    5.6748    8.7648   30.5663 C   0  0  0  0  0  0  0  0  0  0  0  0
    6.7262    8.0062   30.1439 C   0  0  0  0  0  0  0  0  0  0  0  0
    7.2467    8.2415   28.9000 C   0  0  0  0  0  0  0  0  0  0  0  0
    6.7584    9.2033   28.0636 C   0  0  0  0  0  0  0  0  0  0  0  0
    3.5107   11.5252   28.3413 O   0  0  0  0  0  0  0  0  0  0  0  0
    4.9220   13.2661   25.5972 C   0  0  0  0  0  0  0  0  0  0  0  0
    5.7783   12.4702   24.8346 C   0  0  0  0  0  0  0  0  0  0  0  0
    6.3673   11.2670   25.2091 C   0  0  0  0  0  0  0  0  0  0  0  0
    6.2907   10.6156   26.4324 C   0  0  0  0  0  0  0  0  0  0  0  0
    7.0939    9.6107   26.8297 N   0  0  0  0  0  0  0  0  0  0  0  0
    8.6017    7.2600   28.3619 Cl  0  0  0  0  0  0  0  0  0  0  0  0
  1  2  1  0
  1  4  1  0
  1 14  2  0
  2  3  1  0
  2 10  2  0
  3 11  2  0
  4  5  2  0
  4  9  1  0
  5  6  1  0
  6  7  2  0
  7  8  1  0
  8  9  2  0
  8 16  1  0
  9 15  1  0
 11 12  1  0
 12 13  2  0
 13 14  1  0
 14 15  1  0
M  END
$$$$
