
     RDKit          3D

 16 18  0  0  0  0  0  0  0  0999 V2000
    7.4614    8.0160   28.1270 C   0  0  0  0  0  0  0  0  0  0  0  0
    7.2026    7.4201   29.3195 C   0  0  0  0  0  0  0  0  0  0  0  0
    6.6011    7.9480   30.4689 C   0  0  0  0  0  0  0  0  0  0  0  0
    8.4155    7.5505   27.2386 C   0  0  0  0  0  0  0  0  0  0  0  0
    9.3036    6.5034   27.2233 C   0  0  0  0  0  0  0  0  0  0  0  0
   10.1238    6.3483   26.1363 C   0  0  0  0  0  0  0  0  0  0  0  0
   10.0732    7.2084   25.0794 C   0  0  0  0  0  0  0  0  0  0  0  0
    9.1792    8.2441   25.1190 C   0  0  0  0  0  0  0  0  0  0  0  0
    8.3356    8.4533   26.1715 C   0  0  0  0  0  0  0  0  0  0  0  0
    7.5561    6.2189   29.3988 O   0  0  0  0  0  0  0  0  0  0  0  0
    5.8318    9.0863   30.5638 C   0  0  0  0  0  0  0  0  0  0  0  0
    5.3896    9.9096   29.5271 C   0  0  0  0  0  0  0  0  0  0  0  0
    5.8258    9.9096   28.2062 C   0  0  0  0  0  0  0  0  0  0  0  0
    6.8306    9.1433   27.6321 C   0  0  0  0  0  0  0  0  0  0  0  0
    7.3966    9.3758   26.4327 N   0  0  0  0  0  0  0  0  0  0  0  0
    9.1193    9.3489   23.7535 Cl  0  0  0  0  0  0  0  0  0  0  0  0
  1  2  1  0
  1  4  1  0
  1 14  2  0
  2  3  1  0
  2 10  2  0
  3 11  2  0
  4  5  2  0
  4  9  1  0
  5  6  1  0
  6  7  2  0
  7  8  1  0
  8  9  2  0
  8 16  1  0
  9 15  1  0
 11 12  1  0
 12 13  2  0
 13 14  1  0
 14 15  1  0
M  END
$$$$
