
     RDKit          3D

 16 18  0  0  0  0  0  0  0  0999 V2000
    5.6399   10.6703   27.2681 C   0  0  0  0  0  0  0  0  0  0  0  0
    4.6923   11.6431   27.2682 C   0  0  0  0  0  0  0  0  0  0  0  0
    4.6032   12.8019   26.4868 C   0  0  0  0  0  0  0  0  0  0  0  0
    5.8543    9.8213   28.3403 C   0  0  0  0  0  0  0  0  0  0  0  0
    5.2974    9.6652   29.5855 C   0  0  0  0  0  0  0  0  0  0  0  0
    5.7836    8.6830   30.4086 C   0  0  0  0  0  0  0  0  0  0  0  0
    6.8019    7.8659   30.0152 C   0  0  0  0  0  0  0  0  0  0  0  0
    7.3400    8.0421   28.7691 C   0  0  0  0  0  0  0  0  0  0  0  0
    6.9011    9.0010   27.9026 C   0  0  0  0  0  0  0  0  0  0  0  0
    3.7607   11.4746   28.0915 O   0  0  0  0  0  0  0  0  0  0  0  0
    5.2661   13.0715   25.3102 C   0  0  0  0  0  0  0  0  0  0  0  0
    6.0899   12.2164   24.5764 C   0  0  0  0  0  0  0  0  0  0  0  0
    6.6214   10.9988   24.9887 C   0  0  0  0  0  0  0  0  0  0  0  0
    6.5079   10.3865   26.2291 C   0  0  0  0  0  0  0  0  0  0  0  0
    7.2621    9.3578   26.6603 N   0  0  0  0  0  0  0  0  0  0  0  0
    8.6523    6.9855   28.2685 Cl  0  0  0  0  0  0  0  0  0  0  0  0
  1  2  1  0
  1  4  1  0
  1 14  2  0
  2  3  1  0
  2 10  2  0
  3 11  2  0
  4  5  2  0
  4  9  1  0
  5  6  1  0
  6  7  2  0
  7  8  1  0
  8  9  2  0
  8 16  1  0
  9 15  1  0
 11 12  1  0
 12 13  2  0
 13 14  1  0
 14 15  1  0
M  END
$$$$
