
     RDKit          3D

 16 18  0  0  0  0  0  0  0  0999 V2000
    5.4593   10.5101   27.5697 C   0  0  0  0  0  0  0  0  0  0  0  0
    4.4286   11.3828   27.7120 C   0  0  0  0  0  0  0  0  0  0  0  0
    4.1694   12.5767   27.0272 C   0  0  0  0  0  0  0  0  0  0  0  0
    5.8377    9.6169   28.5573 C   0  0  0  0  0  0  0  0  0  0  0  0
    5.4001    9.3242   29.8254 C   0  0  0  0  0  0  0  0  0  0  0  0
    6.0404    8.3421   30.5353 C   0  0  0  0  0  0  0  0  0  0  0  0
    7.0951    7.6571   30.0082 C   0  0  0  0  0  0  0  0  0  0  0  0
    7.5120    7.9679   28.7420 C   0  0  0  0  0  0  0  0  0  0  0  0
    6.9172    8.9345   27.9838 C   0  0  0  0  0  0  0  0  0  0  0  0
    3.5863   11.0691   28.5874 O   0  0  0  0  0  0  0  0  0  0  0  0
    4.7071   12.9878   25.8278 C   0  0  0  0  0  0  0  0  0  0  0  0
    5.5447   12.2686   24.9738 C   0  0  0  0  0  0  0  0  0  0  0  0
    6.2185   11.0845   25.2544 C   0  0  0  0  0  0  0  0  0  0  0  0
    6.2631   10.3828   26.4511 C   0  0  0  0  0  0  0  0  0  0  0  0
    7.1420    9.4069   26.7479 N   0  0  0  0  0  0  0  0  0  0  0  0
    8.8719    7.0811   28.0689 Cl  0  0  0  0  0  0  0  0  0  0  0  0
  1  2  1  0
  1  4  1  0
  1 14  2  0
  2  3  1  0
  2 10  2  0
  3 11  2  0
  4  5  2  0
  4  9  1  0
  5  6  1  0
  6  7  2  0
  7  8  1  0
  8  9  2  0
  8 16  1  0
  9 15  1  0
 11 12  1  0
 12 13  2  0
 13 14  1  0
 14 15  1  0
M  END
$$$$
