
     RDKit          3D

 16 18  0  0  0  0  0  0  0  0999 V2000
    5.6017   10.8666   27.6032 C   0  0  0  0  0  0  0  0  0  0  0  0
    4.5983   11.7770   27.6936 C   0  0  0  0  0  0  0  0  0  0  0  0
    4.4062   12.9671   26.9805 C   0  0  0  0  0  0  0  0  0  0  0  0
    5.9125    9.9782   28.6183 C   0  0  0  0  0  0  0  0  0  0  0  0
    5.4197    9.7232   29.8742 C   0  0  0  0  0  0  0  0  0  0  0  0
    5.9988    8.7319   30.6228 C   0  0  0  0  0  0  0  0  0  0  0  0
    7.0468    8.0014   30.1457 C   0  0  0  0  0  0  0  0  0  0  0  0
    7.5196    8.2753   28.8907 C   0  0  0  0  0  0  0  0  0  0  0  0
    6.9871    9.2486   28.0957 C   0  0  0  0  0  0  0  0  0  0  0  0
    3.7145   11.5083   28.5426 O   0  0  0  0  0  0  0  0  0  0  0  0
    5.0009   13.3381   25.7951 C   0  0  0  0  0  0  0  0  0  0  0  0
    5.8426   12.5754   24.9840 C   0  0  0  0  0  0  0  0  0  0  0  0
    6.4635   11.3736   25.3081 C   0  0  0  0  0  0  0  0  0  0  0  0
    6.4402   10.6918   26.5169 C   0  0  0  0  0  0  0  0  0  0  0  0
    7.2727    9.6912   26.8614 N   0  0  0  0  0  0  0  0  0  0  0  0
    8.8705    7.3300   28.2820 Cl  0  0  0  0  0  0  0  0  0  0  0  0
  1  2  1  0
  1  4  1  0
  1 14  2  0
  2  3  1  0
  2 10  2  0
  3 11  2  0
  4  5  2  0
  4  9  1  0
  5  6  1  0
  6  7  2  0
  7  8  1  0
  8  9  2  0
  8 16  1  0
  9 15  1  0
 11 12  1  0
 12 13  2  0
 13 14  1  0
 14 15  1  0
M  END
$$$$
