
     RDKit          3D

 16 18  0  0  0  0  0  0  0  0999 V2000
    7.3432    8.1847   28.3498 C   0  0  0  0  0  0  0  0  0  0  0  0
    7.0850    7.6332   29.5636 C   0  0  0  0  0  0  0  0  0  0  0  0
    6.4728    8.1993   30.6889 C   0  0  0  0  0  0  0  0  0  0  0  0
    8.3061    7.6947   27.4844 C   0  0  0  0  0  0  0  0  0  0  0  0
    9.2049    6.6572   27.5139 C   0  0  0  0  0  0  0  0  0  0  0  0
   10.0318    6.4681   26.4373 C   0  0  0  0  0  0  0  0  0  0  0  0
    9.9773    7.2857   25.3473 C   0  0  0  0  0  0  0  0  0  0  0  0
    9.0725    8.3128   25.3426 C   0  0  0  0  0  0  0  0  0  0  0  0
    8.2220    8.5542   26.3824 C   0  0  0  0  0  0  0  0  0  0  0  0
    7.4504    6.4397   29.6914 O   0  0  0  0  0  0  0  0  0  0  0  0
    5.6914    9.3324   30.7359 C   0  0  0  0  0  0  0  0  0  0  0  0
    5.2456   10.1099   29.6659 C   0  0  0  0  0  0  0  0  0  0  0  0
    5.6880   10.0627   28.3479 C   0  0  0  0  0  0  0  0  0  0  0  0
    6.7032    9.2850   27.8085 C   0  0  0  0  0  0  0  0  0  0  0  0
    7.2723    9.4764   26.6033 N   0  0  0  0  0  0  0  0  0  0  0  0
    9.0077    9.3627   23.9346 Cl  0  0  0  0  0  0  0  0  0  0  0  0
  1  2  1  0
  1  4  1  0
  1 14  2  0
  2  3  1  0
  2 10  2  0
  3 11  2  0
  4  5  2  0
  4  9  1  0
  5  6  1  0
  6  7  2  0
  7  8  1  0
  8  9  2  0
  8 16  1  0
  9 15  1  0
 11 12  1  0
 12 13  2  0
 13 14  1  0
 14 15  1  0
M  END
$$$$
