
     RDKit          3D

 23 24  0  0  0  0  0  0  0  0999 V2000
   -6.6047  -32.3130  -14.1958 C   0  0  1  0  0  0  0  0  0  0  0  0
   -7.4593  -31.7882  -13.0581 C   0  0  1  0  0  0  0  0  0  0  0  0
   -6.9362  -30.4186  -12.6789 C   0  0  2  0  0  0  0  0  0  0  0  0
   -7.0329  -29.4440  -13.8176 C   0  0  1  0  0  0  0  0  0  0  0  0
   -7.0201  -30.2452  -15.1060 C   0  0  1  0  0  0  0  0  0  0  0  0
   -6.5830  -29.3722  -16.2655 C   0  0  0  0  0  0  0  0  0  0  0  0
   -7.2826  -33.1342  -15.0513 O   0  0  0  0  0  0  0  0  0  0  0  0
   -8.8078  -31.7488  -13.3990 O   0  0  0  0  0  0  0  0  0  0  0  0
   -5.5829  -30.5907  -12.3332 O   0  0  0  0  0  0  0  0  0  0  0  0
   -8.1839  -28.6602  -13.7685 O   0  0  0  0  0  0  0  0  0  0  0  0
   -6.0827  -31.2448  -14.9625 O   0  0  0  0  0  0  0  0  0  0  0  0
   -5.1968  -29.2700  -16.2451 O   0  0  0  0  0  0  0  0  0  0  0  0
   -6.4311  -33.8823  -15.9012 C   0  0  2  0  0  0  0  0  0  0  0  0
   -7.3083  -34.5002  -16.9356 C   0  0  1  0  0  0  0  0  0  0  0  0
   -6.5206  -35.5657  -17.6584 C   0  0  2  0  0  0  0  0  0  0  0  0
   -6.2499  -36.6438  -16.6360 C   0  0  1  0  0  0  0  0  0  0  0  0
   -6.1226  -36.1061  -15.2467 C   0  0  1  0  0  0  0  0  0  0  0  0
   -5.1393  -37.0328  -14.5209 C   0  0  0  0  0  0  0  0  0  0  0  0
   -8.3803  -35.1240  -16.3010 O   0  0  0  0  0  0  0  0  0  0  0  0
   -5.3485  -35.0677  -18.2135 O   0  0  0  0  0  0  0  0  0  0  0  0
   -7.2784  -37.5838  -16.7550 O   0  0  0  0  0  0  0  0  0  0  0  0
   -5.8065  -34.8017  -15.1210 O   0  0  0  0  0  0  0  0  0  0  0  0
   -3.9439  -36.9644  -15.2391 O   0  0  0  0  0  0  0  0  0  0  0  0
  1  2  1  0
  1  7  1  6
  1 11  1  0
  2  3  1  0
  2  8  1  6
  3  4  1  0
  3  9  1  6
  5  4  1  0
  4 10  1  1
  5  6  1  6
 11  5  1  0
  6 12  1  0
 13  7  1  1
 13 14  1  0
 22 13  1  0
 15 14  1  0
 14 19  1  1
 16 15  1  0
 15 20  1  1
 17 16  1  0
 16 21  1  1
 17 18  1  1
 17 22  1  0
 23 18  1  0
M  END
$$$$
