
     RDKit          3D

 23 24  0  0  0  0  0  0  0  0999 V2000
   -6.7932  -33.8032  -15.9371 C   0  0  1  0  0  0  0  0  0  0  0  0
   -7.9232  -34.6384  -16.5077 C   0  0  1  0  0  0  0  0  0  0  0  0
   -7.3226  -35.6210  -17.4910 C   0  0  2  0  0  0  0  0  0  0  0  0
   -6.3468  -36.5525  -16.8310 C   0  0  1  0  0  0  0  0  0  0  0  0
   -5.8092  -35.8509  -15.5978 C   0  0  1  0  0  0  0  0  0  0  0  0
   -4.4799  -36.4523  -15.1864 C   0  0  0  0  0  0  0  0  0  0  0  0
   -7.0177  -33.3872  -14.6555 O   0  0  0  0  0  0  0  0  0  0  0  0
   -8.6449  -35.2845  -15.5087 O   0  0  0  0  0  0  0  0  0  0  0  0
   -6.6460  -34.8541  -18.4577 O   0  0  0  0  0  0  0  0  0  0  0  0
   -6.9177  -37.7690  -16.4623 O   0  0  0  0  0  0  0  0  0  0  0  0
   -5.5823  -34.5347  -15.9363 O   0  0  0  0  0  0  0  0  0  0  0  0
   -3.5861  -35.4187  -14.9312 O   0  0  0  0  0  0  0  0  0  0  0  0
   -6.5166  -32.0884  -14.3931 C   0  0  2  0  0  0  0  0  0  0  0  0
   -7.0357  -31.7018  -13.0505 C   0  0  1  0  0  0  0  0  0  0  0  0
   -6.8210  -30.2198  -12.8616 C   0  0  2  0  0  0  0  0  0  0  0  0
   -7.7159  -29.5411  -13.8714 C   0  0  1  0  0  0  0  0  0  0  0  0
   -7.9074  -30.3516  -15.1131 C   0  0  1  0  0  0  0  0  0  0  0  0
   -8.0999  -29.3435  -16.2529 C   0  0  0  0  0  0  0  0  0  0  0  0
   -8.4081  -31.9384  -13.0145 O   0  0  0  0  0  0  0  0  0  0  0  0
   -5.4893  -29.8570  -13.0185 O   0  0  0  0  0  0  0  0  0  0  0  0
   -8.9225  -29.2619  -13.2220 O   0  0  0  0  0  0  0  0  0  0  0  0
   -6.9723  -31.2832  -15.3871 O   0  0  0  0  0  0  0  0  0  0  0  0
   -6.8196  -29.0439  -16.7224 O   0  0  0  0  0  0  0  0  0  0  0  0
  1  2  1  0
  1  7  1  1
  1 11  1  0
  2  3  1  0
  2  8  1  1
  3  4  1  0
  3  9  1  6
  5  4  1  0
  4 10  1  1
  5  6  1  6
 11  5  1  0
  6 12  1  0
 13  7  1  6
 13 14  1  0
 22 13  1  0
 15 14  1  0
 14 19  1  6
 16 15  1  0
 15 20  1  6
 17 16  1  0
 16 21  1  1
 17 18  1  6
 17 22  1  0
 23 18  1  0
M  END
$$$$
