
     RDKit          3D

 23 24  0  0  0  0  0  0  0  0999 V2000
   -6.3398  -31.9012  -14.0479 C   0  0  1  0  0  0  0  0  0  0  0  0
   -6.6521  -31.5501  -12.6058 C   0  0  1  0  0  0  0  0  0  0  0  0
   -6.6668  -30.0404  -12.4890 C   0  0  2  0  0  0  0  0  0  0  0  0
   -7.7245  -29.4191  -13.3557 C   0  0  1  0  0  0  0  0  0  0  0  0
   -8.0008  -30.3795  -14.4974 C   0  0  1  0  0  0  0  0  0  0  0  0
   -8.6221  -29.6428  -15.6674 C   0  0  0  0  0  0  0  0  0  0  0  0
   -6.9148  -33.0697  -14.4599 O   0  0  0  0  0  0  0  0  0  0  0  0
   -7.8536  -32.1116  -12.1848 O   0  0  0  0  0  0  0  0  0  0  0  0
   -5.4017  -29.5953  -12.9154 O   0  0  0  0  0  0  0  0  0  0  0  0
   -8.9090  -29.1593  -12.6694 O   0  0  0  0  0  0  0  0  0  0  0  0
   -6.7887  -30.8809  -14.9190 O   0  0  0  0  0  0  0  0  0  0  0  0
   -7.7585  -28.6269  -16.0605 O   0  0  0  0  0  0  0  0  0  0  0  0
   -6.4117  -33.5337  -15.7003 C   0  0  2  0  0  0  0  0  0  0  0  0
   -7.5190  -34.2966  -16.3433 C   0  0  1  0  0  0  0  0  0  0  0  0
   -6.9499  -35.0901  -17.4941 C   0  0  2  0  0  0  0  0  0  0  0  0
   -6.0340  -36.1183  -16.8736 C   0  0  1  0  0  0  0  0  0  0  0  0
   -5.4002  -35.6402  -15.6066 C   0  0  1  0  0  0  0  0  0  0  0  0
   -4.0311  -36.3272  -15.5309 C   0  0  0  0  0  0  0  0  0  0  0  0
   -8.0358  -35.2023  -15.4195 O   0  0  0  0  0  0  0  0  0  0  0  0
   -6.2848  -34.2850  -18.4102 O   0  0  0  0  0  0  0  0  0  0  0  0
   -6.7920  -37.2789  -16.6892 O   0  0  0  0  0  0  0  0  0  0  0  0
   -5.3306  -34.3067  -15.4214 O   0  0  0  0  0  0  0  0  0  0  0  0
   -3.1040  -35.3125  -15.2857 O   0  0  0  0  0  0  0  0  0  0  0  0
  1  2  1  0
  1  7  1  6
  1 11  1  0
  2  3  1  0
  2  8  1  6
  3  4  1  0
  3  9  1  6
  5  4  1  0
  4 10  1  1
  5  6  1  6
 11  5  1  0
  6 12  1  0
 13  7  1  1
 13 14  1  0
 22 13  1  0
 15 14  1  0
 14 19  1  1
 16 15  1  0
 15 20  1  6
 17 16  1  0
 16 21  1  1
 17 18  1  6
 17 22  1  0
 23 18  1  0
M  END
$$$$
