
     RDKit          3D

 23 24  0  0  0  0  0  0  0  0999 V2000
   -6.6797  -32.3116  -14.8852 C   0  0  1  0  0  0  0  0  0  0  0  0
   -7.5048  -31.8700  -13.6918 C   0  0  1  0  0  0  0  0  0  0  0  0
   -7.0022  -30.5088  -13.2588 C   0  0  2  0  0  0  0  0  0  0  0  0
   -7.1647  -29.4788  -14.3398 C   0  0  1  0  0  0  0  0  0  0  0  0
   -7.1792  -30.2108  -15.6687 C   0  0  1  0  0  0  0  0  0  0  0  0
   -6.8066  -29.2669  -16.7947 C   0  0  0  0  0  0  0  0  0  0  0  0
   -7.3679  -33.1047  -15.7588 O   0  0  0  0  0  0  0  0  0  0  0  0
   -8.8655  -31.8489  -13.9824 O   0  0  0  0  0  0  0  0  0  0  0  0
   -5.6334  -30.6625  -12.9707 O   0  0  0  0  0  0  0  0  0  0  0  0
   -8.3321  -28.7296  -14.2086 O   0  0  0  0  0  0  0  0  0  0  0  0
   -6.2127  -31.1912  -15.6119 O   0  0  0  0  0  0  0  0  0  0  0  0
   -5.4207  -29.1808  -16.8604 O   0  0  0  0  0  0  0  0  0  0  0  0
   -6.5256  -33.8852  -16.5885 C   0  0  2  0  0  0  0  0  0  0  0  0
   -7.4126  -34.5333  -17.5957 C   0  0  1  0  0  0  0  0  0  0  0  0
   -6.6348  -35.6264  -18.2873 C   0  0  2  0  0  0  0  0  0  0  0  0
   -6.3623  -36.6708  -17.2309 C   0  0  1  0  0  0  0  0  0  0  0  0
   -6.2232  -36.0872  -15.8614 C   0  0  1  0  0  0  0  0  0  0  0  0
   -5.2394  -36.9937  -15.1112 C   0  0  0  0  0  0  0  0  0  0  0  0
   -8.4832  -35.1300  -16.9335 O   0  0  0  0  0  0  0  0  0  0  0  0
   -5.4642  -35.1532  -18.8666 O   0  0  0  0  0  0  0  0  0  0  0  0
   -7.3960  -37.6092  -17.3114 O   0  0  0  0  0  0  0  0  0  0  0  0
   -5.9001  -34.7808  -15.7819 O   0  0  0  0  0  0  0  0  0  0  0  0
   -4.0316  -36.2951  -15.0635 O   0  0  0  0  0  0  0  0  0  0  0  0
  1  2  1  0
  1  7  1  6
  1 11  1  0
  2  3  1  0
  2  8  1  6
  3  4  1  0
  3  9  1  6
  5  4  1  0
  4 10  1  1
  5  6  1  6
 11  5  1  0
  6 12  1  0
 13  7  1  1
 13 14  1  0
 22 13  1  0
 15 14  1  0
 14 19  1  1
 16 15  1  0
 15 20  1  1
 17 16  1  0
 16 21  1  1
 17 18  1  1
 17 22  1  0
 23 18  1  0
M  END
$$$$
