
     RDKit          3D

 23 24  0  0  0  0  0  0  0  0999 V2000
   -6.0987  -33.5480  -15.8449 C   0  0  1  0  0  0  0  0  0  0  0  0
   -7.1216  -33.9316  -16.8968 C   0  0  1  0  0  0  0  0  0  0  0  0
   -6.4685  -34.9203  -17.8397 C   0  0  2  0  0  0  0  0  0  0  0  0
   -6.0401  -36.1740  -17.1323 C   0  0  1  0  0  0  0  0  0  0  0  0
   -5.8179  -35.8214  -15.6735 C   0  0  1  0  0  0  0  0  0  0  0  0
   -4.9031  -36.8375  -15.0189 C   0  0  0  0  0  0  0  0  0  0  0  0
   -6.6518  -33.2444  -14.6334 O   0  0  0  0  0  0  0  0  0  0  0  0
   -8.2803  -34.4505  -16.3271 O   0  0  0  0  0  0  0  0  0  0  0  0
   -5.3330  -34.2776  -18.3670 O   0  0  0  0  0  0  0  0  0  0  0  0
   -6.9778  -37.2005  -17.2252 O   0  0  0  0  0  0  0  0  0  0  0  0
   -5.1781  -34.6016  -15.6353 O   0  0  0  0  0  0  0  0  0  0  0  0
   -4.4688  -36.3237  -13.8024 O   0  0  0  0  0  0  0  0  0  0  0  0
   -6.2051  -32.0065  -14.1089 C   0  0  2  0  0  0  0  0  0  0  0  0
   -7.1709  -31.6319  -13.0373 C   0  0  1  0  0  0  0  0  0  0  0  0
   -6.9482  -30.1836  -12.6756 C   0  0  2  0  0  0  0  0  0  0  0  0
   -7.3435  -29.3877  -13.8968 C   0  0  1  0  0  0  0  0  0  0  0  0
   -7.0990  -30.1261  -15.1737 C   0  0  1  0  0  0  0  0  0  0  0  0
   -6.7756  -29.0586  -16.2265 C   0  0  0  0  0  0  0  0  0  0  0  0
   -8.4655  -31.7485  -13.5386 O   0  0  0  0  0  0  0  0  0  0  0  0
   -5.6368  -29.9328  -12.2921 O   0  0  0  0  0  0  0  0  0  0  0  0
   -8.6856  -29.0309  -13.7322 O   0  0  0  0  0  0  0  0  0  0  0  0
   -6.1933  -31.1239  -15.1409 O   0  0  0  0  0  0  0  0  0  0  0  0
   -6.0770  -29.7167  -17.2404 O   0  0  0  0  0  0  0  0  0  0  0  0
  1  2  1  0
  1  7  1  1
  1 11  1  0
  2  3  1  0
  2  8  1  1
  3  4  1  0
  3  9  1  1
  5  4  1  0
  4 10  1  1
  5  6  1  6
 11  5  1  0
  6 12  1  0
 13  7  1  6
 13 14  1  0
 22 13  1  0
 15 14  1  0
 14 19  1  6
 16 15  1  0
 15 20  1  6
 17 16  1  0
 16 21  1  1
 17 18  1  6
 17 22  1  0
 23 18  1  0
M  END
$$$$
