
     RDKit          3D

 23 24  0  0  0  0  0  0  0  0999 V2000
   -6.6548  -32.2425  -14.3729 C   0  0  1  0  0  0  0  0  0  0  0  0
   -7.3071  -31.9029  -13.0465 C   0  0  1  0  0  0  0  0  0  0  0  0
   -6.9846  -30.4581  -12.7277 C   0  0  2  0  0  0  0  0  0  0  0  0
   -7.5287  -29.5178  -13.7648 C   0  0  1  0  0  0  0  0  0  0  0  0
   -7.6606  -30.2953  -15.0610 C   0  0  1  0  0  0  0  0  0  0  0  0
   -7.6809  -29.3482  -16.2443 C   0  0  0  0  0  0  0  0  0  0  0  0
   -7.3411  -33.1789  -15.0926 O   0  0  0  0  0  0  0  0  0  0  0  0
   -8.6795  -32.1315  -13.0710 O   0  0  0  0  0  0  0  0  0  0  0  0
   -5.5810  -30.3585  -12.7064 O   0  0  0  0  0  0  0  0  0  0  0  0
   -8.7659  -28.9791  -13.4175 O   0  0  0  0  0  0  0  0  0  0  0  0
   -6.5408  -31.0887  -15.1836 O   0  0  0  0  0  0  0  0  0  0  0  0
   -7.0847  -29.9812  -17.3288 O   0  0  0  0  0  0  0  0  0  0  0  0
   -6.5501  -33.8150  -16.0809 C   0  0  2  0  0  0  0  0  0  0  0  0
   -7.5007  -34.4969  -17.0043 C   0  0  1  0  0  0  0  0  0  0  0  0
   -6.7227  -35.4581  -17.8698 C   0  0  2  0  0  0  0  0  0  0  0  0
   -6.2023  -36.5253  -16.9365 C   0  0  1  0  0  0  0  0  0  0  0  0
   -5.9311  -36.0091  -15.5597 C   0  0  1  0  0  0  0  0  0  0  0  0
   -4.7666  -36.8451  -15.0143 C   0  0  0  0  0  0  0  0  0  0  0  0
   -8.4031  -35.2429  -16.2492 O   0  0  0  0  0  0  0  0  0  0  0  0
   -5.6979  -34.8286  -18.5650 O   0  0  0  0  0  0  0  0  0  0  0  0
   -7.1385  -37.5641  -16.9449 O   0  0  0  0  0  0  0  0  0  0  0  0
   -5.7317  -34.6822  -15.4310 O   0  0  0  0  0  0  0  0  0  0  0  0
   -3.6186  -36.0718  -15.1970 O   0  0  0  0  0  0  0  0  0  0  0  0
  1  2  1  0
  1  7  1  6
  1 11  1  0
  2  3  1  0
  2  8  1  6
  3  4  1  0
  3  9  1  6
  5  4  1  0
  4 10  1  1
  5  6  1  6
 11  5  1  0
  6 12  1  0
 13  7  1  1
 13 14  1  0
 22 13  1  0
 15 14  1  0
 14 19  1  1
 16 15  1  0
 15 20  1  1
 17 16  1  0
 16 21  1  1
 17 18  1  6
 17 22  1  0
 23 18  1  0
M  END
$$$$
