
     RDKit          3D

 23 24  0  0  0  0  0  0  0  0999 V2000
   -6.3079  -33.7948  -16.0029 C   0  0  1  0  0  0  0  0  0  0  0  0
   -6.8870  -34.1144  -17.3677 C   0  0  1  0  0  0  0  0  0  0  0  0
   -6.0980  -35.2697  -17.9472 C   0  0  2  0  0  0  0  0  0  0  0  0
   -6.2035  -36.5048  -17.0993 C   0  0  1  0  0  0  0  0  0  0  0  0
   -6.5128  -36.0601  -15.6820 C   0  0  1  0  0  0  0  0  0  0  0  0
   -6.1171  -37.1384  -14.6928 C   0  0  0  0  0  0  0  0  0  0  0  0
   -7.2298  -33.3050  -15.1220 O   0  0  0  0  0  0  0  0  0  0  0  0
   -8.2468  -34.4019  -17.2987 O   0  0  0  0  0  0  0  0  0  0  0  0
   -4.7544  -34.8531  -17.9895 O   0  0  0  0  0  0  0  0  0  0  0  0
   -7.1916  -37.3843  -17.5370 O   0  0  0  0  0  0  0  0  0  0  0  0
   -5.7393  -34.9508  -15.4182 O   0  0  0  0  0  0  0  0  0  0  0  0
   -4.7542  -37.0304  -14.4413 O   0  0  0  0  0  0  0  0  0  0  0  0
   -6.7196  -32.2756  -14.2931 C   0  0  2  0  0  0  0  0  0  0  0  0
   -7.8592  -31.8100  -13.4528 C   0  0  1  0  0  0  0  0  0  0  0  0
   -7.4718  -30.5061  -12.7988 C   0  0  2  0  0  0  0  0  0  0  0  0
   -7.3387  -29.5048  -13.9215 C   0  0  1  0  0  0  0  0  0  0  0  0
   -6.8880  -30.1282  -15.2036 C   0  0  1  0  0  0  0  0  0  0  0  0
   -6.0758  -29.0530  -15.9363 C   0  0  0  0  0  0  0  0  0  0  0  0
   -8.9533  -31.5605  -14.2784 O   0  0  0  0  0  0  0  0  0  0  0  0
   -6.3021  -30.6166  -12.0576 O   0  0  0  0  0  0  0  0  0  0  0  0
   -8.5756  -28.8637  -14.0427 O   0  0  0  0  0  0  0  0  0  0  0  0
   -6.2417  -31.3080  -15.1174 O   0  0  0  0  0  0  0  0  0  0  0  0
   -4.7393  -29.2909  -15.6102 O   0  0  0  0  0  0  0  0  0  0  0  0
  1  2  1  0
  1  7  1  1
  1 11  1  0
  2  3  1  0
  2  8  1  1
  3  4  1  0
  3  9  1  1
  5  4  1  0
  4 10  1  6
  5  6  1  1
 11  5  1  0
  6 12  1  0
 13  7  1  6
 13 14  1  0
 22 13  1  0
 15 14  1  0
 14 19  1  6
 16 15  1  0
 15 20  1  6
 17 16  1  0
 16 21  1  6
 17 18  1  1
 17 22  1  0
 23 18  1  0
M  END
$$$$
