
     RDKit          3D

 23 24  0  0  0  0  0  0  0  0999 V2000
   -6.4574  -33.8796  -15.8652 C   0  0  1  0  0  0  0  0  0  0  0  0
   -7.2465  -34.3152  -17.0849 C   0  0  1  0  0  0  0  0  0  0  0  0
   -6.4668  -35.4161  -17.7727 C   0  0  2  0  0  0  0  0  0  0  0  0
   -6.2855  -36.6153  -16.8868 C   0  0  1  0  0  0  0  0  0  0  0  0
   -6.3672  -36.1369  -15.4493 C   0  0  1  0  0  0  0  0  0  0  0  0
   -5.6857  -37.1262  -14.5248 C   0  0  0  0  0  0  0  0  0  0  0  0
   -7.2427  -33.4392  -14.8380 O   0  0  0  0  0  0  0  0  0  0  0  0
   -8.5329  -34.7264  -16.7495 O   0  0  0  0  0  0  0  0  0  0  0  0
   -5.2045  -34.8767  -18.0823 O   0  0  0  0  0  0  0  0  0  0  0  0
   -7.2436  -37.6035  -17.1035 O   0  0  0  0  0  0  0  0  0  0  0  0
   -5.6748  -34.9484  -15.3685 O   0  0  0  0  0  0  0  0  0  0  0  0
   -4.3532  -37.2412  -14.9037 O   0  0  0  0  0  0  0  0  0  0  0  0
   -6.7042  -32.3153  -14.1643 C   0  0  2  0  0  0  0  0  0  0  0  0
   -7.7946  -31.7826  -13.2991 C   0  0  1  0  0  0  0  0  0  0  0  0
   -7.3980  -30.4075  -12.8195 C   0  0  2  0  0  0  0  0  0  0  0  0
   -7.3708  -29.5329  -14.0505 C   0  0  1  0  0  0  0  0  0  0  0  0
   -6.9940  -30.2844  -15.2870 C   0  0  1  0  0  0  0  0  0  0  0  0
   -6.2644  -29.2806  -16.1883 C   0  0  0  0  0  0  0  0  0  0  0  0
   -8.9500  -31.6464  -14.0655 O   0  0  0  0  0  0  0  0  0  0  0  0
   -6.1769  -30.4133  -12.1572 O   0  0  0  0  0  0  0  0  0  0  0  0
   -8.6301  -28.9332  -14.1505 O   0  0  0  0  0  0  0  0  0  0  0  0
   -6.3114  -31.4349  -15.1207 O   0  0  0  0  0  0  0  0  0  0  0  0
   -5.1480  -29.9531  -16.6891 O   0  0  0  0  0  0  0  0  0  0  0  0
  1  2  1  0
  1  7  1  1
  1 11  1  0
  2  3  1  0
  2  8  1  1
  3  4  1  0
  3  9  1  1
  5  4  1  0
  4 10  1  6
  5  6  1  1
 11  5  1  0
  6 12  1  0
 13  7  1  6
 13 14  1  0
 22 13  1  0
 15 14  1  0
 14 19  1  6
 16 15  1  0
 15 20  1  6
 17 16  1  0
 16 21  1  6
 17 18  1  6
 17 22  1  0
 23 18  1  0
M  END
$$$$
