
     RDKit          3D

 23 24  0  0  0  0  0  0  0  0999 V2000
   -6.4833  -31.8555  -14.1446 C   0  0  1  0  0  0  0  0  0  0  0  0
   -6.5944  -31.3928  -12.7045 C   0  0  1  0  0  0  0  0  0  0  0  0
   -6.5207  -29.8803  -12.6966 C   0  0  2  0  0  0  0  0  0  0  0  0
   -7.6473  -29.2578  -13.4706 C   0  0  1  0  0  0  0  0  0  0  0  0
   -8.1113  -30.2739  -14.4974 C   0  0  1  0  0  0  0  0  0  0  0  0
   -8.8380  -29.5815  -15.6333 C   0  0  0  0  0  0  0  0  0  0  0  0
   -7.1618  -33.0137  -14.3976 O   0  0  0  0  0  0  0  0  0  0  0  0
   -7.7595  -31.8554  -12.1005 O   0  0  0  0  0  0  0  0  0  0  0  0
   -5.2989  -29.5377  -13.3052 O   0  0  0  0  0  0  0  0  0  0  0  0
   -8.7221  -28.8857  -12.6657 O   0  0  0  0  0  0  0  0  0  0  0  0
   -6.9877  -30.8708  -15.0262 O   0  0  0  0  0  0  0  0  0  0  0  0
   -8.1172  -28.4496  -15.9958 O   0  0  0  0  0  0  0  0  0  0  0  0
   -6.8497  -33.5810  -15.6577 C   0  0  2  0  0  0  0  0  0  0  0  0
   -7.9796  -34.4908  -15.9997 C   0  0  1  0  0  0  0  0  0  0  0  0
   -7.5563  -35.3694  -17.1516 C   0  0  2  0  0  0  0  0  0  0  0  0
   -6.4530  -36.2502  -16.6152 C   0  0  1  0  0  0  0  0  0  0  0  0
   -5.6482  -35.5842  -15.5454 C   0  0  1  0  0  0  0  0  0  0  0  0
   -4.2305  -36.1577  -15.6612 C   0  0  0  0  0  0  0  0  0  0  0  0
   -8.2361  -35.3182  -14.9085 O   0  0  0  0  0  0  0  0  0  0  0  0
   -7.1441  -34.6302  -18.2532 O   0  0  0  0  0  0  0  0  0  0  0  0
   -7.0553  -37.4331  -16.1751 O   0  0  0  0  0  0  0  0  0  0  0  0
   -5.6695  -34.2368  -15.5118 O   0  0  0  0  0  0  0  0  0  0  0  0
   -3.4614  -35.4777  -14.7149 O   0  0  0  0  0  0  0  0  0  0  0  0
  1  2  1  0
  1  7  1  1
  1 11  1  0
  2  3  1  0
  2  8  1  6
  3  4  1  0
  3  9  1  6
  5  4  1  0
  4 10  1  1
  5  6  1  6
 11  5  1  0
  6 12  1  0
 13  7  1  1
 13 14  1  0
 22 13  1  0
 15 14  1  0
 14 19  1  1
 16 15  1  0
 15 20  1  6
 17 16  1  0
 16 21  1  1
 17 18  1  6
 17 22  1  0
 23 18  1  0
M  END
$$$$
