
     RDKit          3D

 23 24  0  0  0  0  0  0  0  0999 V2000
   -7.6317  -32.3753  -15.1265 C   0  0  1  0  0  0  0  0  0  0  0  0
   -7.1219  -31.2499  -16.0061 C   0  0  1  0  0  0  0  0  0  0  0  0
   -8.0025  -30.0410  -15.7693 C   0  0  2  0  0  0  0  0  0  0  0  0
   -7.9465  -29.5746  -14.3427 C   0  0  1  0  0  0  0  0  0  0  0  0
   -7.5604  -30.7671  -13.4878 C   0  0  1  0  0  0  0  0  0  0  0  0
   -7.9893  -30.5466  -12.0507 C   0  0  0  0  0  0  0  0  0  0  0  0
   -6.6505  -33.2328  -14.7169 O   0  0  0  0  0  0  0  0  0  0  0  0
   -5.7816  -30.9676  -15.7606 O   0  0  0  0  0  0  0  0  0  0  0  0
   -9.3175  -30.4405  -16.0722 O   0  0  0  0  0  0  0  0  0  0  0  0
   -7.0321  -28.5426  -14.1417 O   0  0  0  0  0  0  0  0  0  0  0  0
   -8.2521  -31.8593  -13.9644 O   0  0  0  0  0  0  0  0  0  0  0  0
   -7.6884  -31.6891  -11.3182 O   0  0  0  0  0  0  0  0  0  0  0  0
   -6.9718  -34.5954  -14.9342 C   0  0  2  0  0  0  0  0  0  0  0  0
   -5.8600  -35.3888  -14.3379 C   0  0  1  0  0  0  0  0  0  0  0  0
   -5.9715  -36.8128  -14.8257 C   0  0  2  0  0  0  0  0  0  0  0  0
   -5.7042  -36.7623  -16.3113 C   0  0  1  0  0  0  0  0  0  0  0  0
   -6.1437  -35.4769  -16.9358 C   0  0  1  0  0  0  0  0  0  0  0  0
   -6.5549  -35.8214  -18.3726 C   0  0  0  0  0  0  0  0  0  0  0  0
   -4.6476  -34.8783  -14.7965 O   0  0  0  0  0  0  0  0  0  0  0  0
   -7.2101  -37.3720  -14.5377 O   0  0  0  0  0  0  0  0  0  0  0  0
   -4.3381  -37.0041  -16.4866 O   0  0  0  0  0  0  0  0  0  0  0  0
   -7.0796  -34.7642  -16.2773 O   0  0  0  0  0  0  0  0  0  0  0  0
   -7.9117  -36.1459  -18.3177 O   0  0  0  0  0  0  0  0  0  0  0  0
  1  2  1  0
  1  7  1  1
  1 11  1  0
  2  3  1  0
  2  8  1  1
  3  4  1  0
  3  9  1  1
  5  4  1  0
  4 10  1  6
  5  6  1  1
 11  5  1  0
  6 12  1  0
 13  7  1  6
 13 14  1  0
 22 13  1  0
 15 14  1  0
 14 19  1  6
 16 15  1  0
 15 20  1  6
 17 16  1  0
 16 21  1  1
 17 18  1  6
 17 22  1  0
 23 18  1  0
M  END
$$$$
