
     RDKit          3D

 23 24  0  0  0  0  0  0  0  0999 V2000
   -7.3788  -33.2455  -15.1548 C   0  0  1  0  0  0  0  0  0  0  0  0
   -6.7520  -34.2623  -14.2202 C   0  0  1  0  0  0  0  0  0  0  0  0
   -6.8530  -35.6219  -14.8793 C   0  0  2  0  0  0  0  0  0  0  0  0
   -6.1092  -35.6720  -16.1832 C   0  0  1  0  0  0  0  0  0  0  0  0
   -6.0357  -34.2552  -16.7211 C   0  0  1  0  0  0  0  0  0  0  0  0
   -5.7991  -34.2712  -18.2182 C   0  0  0  0  0  0  0  0  0  0  0  0
   -6.8158  -32.0043  -15.0648 O   0  0  0  0  0  0  0  0  0  0  0  0
   -5.4355  -33.9367  -13.9089 O   0  0  0  0  0  0  0  0  0  0  0  0
   -8.2210  -35.8473  -15.1202 O   0  0  0  0  0  0  0  0  0  0  0  0
   -4.8214  -36.1891  -16.0571 O   0  0  0  0  0  0  0  0  0  0  0  0
   -7.2611  -33.6648  -16.5008 O   0  0  0  0  0  0  0  0  0  0  0  0
   -6.9003  -34.8541  -18.8347 O   0  0  0  0  0  0  0  0  0  0  0  0
   -7.6651  -30.9697  -15.5290 C   0  0  2  0  0  0  0  0  0  0  0  0
   -6.7720  -29.8743  -16.0021 C   0  0  1  0  0  0  0  0  0  0  0  0
   -7.6011  -28.6274  -16.1915 C   0  0  2  0  0  0  0  0  0  0  0  0
   -8.0655  -28.2268  -14.8113 C   0  0  1  0  0  0  0  0  0  0  0  0
   -8.2532  -29.3977  -13.9006 C   0  0  1  0  0  0  0  0  0  0  0  0
   -9.3835  -29.0107  -12.9388 C   0  0  0  0  0  0  0  0  0  0  0  0
   -5.8265  -29.6076  -15.0143 O   0  0  0  0  0  0  0  0  0  0  0  0
   -8.6654  -28.8305  -17.0610 O   0  0  0  0  0  0  0  0  0  0  0  0
   -7.1322  -27.3090  -14.3193 O   0  0  0  0  0  0  0  0  0  0  0  0
   -8.4436  -30.6000  -14.4796 O   0  0  0  0  0  0  0  0  0  0  0  0
  -10.5415  -29.6014  -13.4479 O   0  0  0  0  0  0  0  0  0  0  0  0
  1  2  1  0
  1  7  1  6
  1 11  1  0
  2  3  1  0
  2  8  1  6
  3  4  1  0
  3  9  1  6
  5  4  1  0
  4 10  1  1
  5  6  1  6
 11  5  1  0
  6 12  1  0
 13  7  1  1
 13 14  1  0
 22 13  1  0
 15 14  1  0
 14 19  1  1
 16 15  1  0
 15 20  1  6
 17 16  1  0
 16 21  1  1
 17 18  1  6
 17 22  1  0
 23 18  1  0
M  END
$$$$
