
     RDKit          3D

 23 24  0  0  0  0  0  0  0  0999 V2000
   -7.3182  -33.2489  -15.9803 C   0  0  1  0  0  0  0  0  0  0  0  0
   -7.6397  -34.3648  -15.0048 C   0  0  1  0  0  0  0  0  0  0  0  0
   -7.8713  -35.6286  -15.8063 C   0  0  2  0  0  0  0  0  0  0  0  0
   -6.6524  -36.0323  -16.5854 C   0  0  1  0  0  0  0  0  0  0  0  0
   -5.8302  -34.7803  -16.8270 C   0  0  1  0  0  0  0  0  0  0  0  0
   -4.9068  -34.9766  -18.0130 C   0  0  0  0  0  0  0  0  0  0  0  0
   -6.4793  -32.3016  -15.4658 O   0  0  0  0  0  0  0  0  0  0  0  0
   -6.6331  -34.5314  -14.0587 O   0  0  0  0  0  0  0  0  0  0  0  0
   -8.9185  -35.3457  -16.7027 O   0  0  0  0  0  0  0  0  0  0  0  0
   -5.8730  -36.9808  -15.9263 O   0  0  0  0  0  0  0  0  0  0  0  0
   -6.7057  -33.7654  -17.1462 O   0  0  0  0  0  0  0  0  0  0  0  0
   -5.5008  -34.4113  -19.1354 O   0  0  0  0  0  0  0  0  0  0  0  0
   -6.9735  -30.9813  -15.6055 C   0  0  2  0  0  0  0  0  0  0  0  0
   -5.9662  -30.0866  -14.9683 C   0  0  1  0  0  0  0  0  0  0  0  0
   -6.5840  -28.7216  -14.7861 C   0  0  2  0  0  0  0  0  0  0  0  0
   -7.6897  -28.9009  -13.7731 C   0  0  1  0  0  0  0  0  0  0  0  0
   -8.3147  -30.2579  -13.8316 C   0  0  1  0  0  0  0  0  0  0  0  0
   -9.7786  -30.0697  -13.4146 C   0  0  0  0  0  0  0  0  0  0  0  0
   -5.6594  -30.5844  -13.7038 O   0  0  0  0  0  0  0  0  0  0  0  0
   -7.0533  -28.1928  -15.9818 O   0  0  0  0  0  0  0  0  0  0  0  0
   -7.1411  -28.6169  -12.5185 O   0  0  0  0  0  0  0  0  0  0  0  0
   -8.1800  -30.9455  -14.9832 O   0  0  0  0  0  0  0  0  0  0  0  0
  -10.3457  -29.2244  -14.3703 O   0  0  0  0  0  0  0  0  0  0  0  0
  1  2  1  0
  1  7  1  1
  1 11  1  0
  2  3  1  0
  2  8  1  1
  3  4  1  0
  3  9  1  6
  5  4  1  0
  4 10  1  1
  5  6  1  6
 11  5  1  0
  6 12  1  0
 13  7  1  1
 13 14  1  0
 22 13  1  0
 15 14  1  0
 14 19  1  1
 16 15  1  0
 15 20  1  6
 17 16  1  0
 16 21  1  1
 17 18  1  6
 17 22  1  0
 23 18  1  0
M  END
$$$$
