
     RDKit          3D

 23 24  0  0  0  0  0  0  0  0999 V2000
   -6.4699  -32.2875  -14.5937 C   0  0  1  0  0  0  0  0  0  0  0  0
   -7.5189  -32.0317  -13.5286 C   0  0  1  0  0  0  0  0  0  0  0  0
   -7.0892  -30.8138  -12.7379 C   0  0  2  0  0  0  0  0  0  0  0  0
   -6.9964  -29.5872  -13.5996 C   0  0  1  0  0  0  0  0  0  0  0  0
   -6.7457  -30.0479  -15.0233 C   0  0  1  0  0  0  0  0  0  0  0  0
   -6.1224  -28.9311  -15.8369 C   0  0  0  0  0  0  0  0  0  0  0  0
   -6.9751  -32.8526  -15.7301 O   0  0  0  0  0  0  0  0  0  0  0  0
   -8.7864  -31.8683  -14.0791 O   0  0  0  0  0  0  0  0  0  0  0  0
   -5.8161  -31.1070  -12.2149 O   0  0  0  0  0  0  0  0  0  0  0  0
   -8.1483  -28.8042  -13.5601 O   0  0  0  0  0  0  0  0  0  0  0  0
   -5.8350  -31.0806  -14.9699 O   0  0  0  0  0  0  0  0  0  0  0  0
   -5.3987  -29.4945  -16.8815 O   0  0  0  0  0  0  0  0  0  0  0  0
   -6.1080  -33.8101  -16.3119 C   0  0  2  0  0  0  0  0  0  0  0  0
   -6.8462  -34.3986  -17.4651 C   0  0  1  0  0  0  0  0  0  0  0  0
   -6.1212  -35.6441  -17.9136 C   0  0  2  0  0  0  0  0  0  0  0  0
   -6.2558  -36.6313  -16.7785 C   0  0  1  0  0  0  0  0  0  0  0  0
   -6.3269  -35.9689  -15.4399 C   0  0  1  0  0  0  0  0  0  0  0  0
   -5.6878  -36.9479  -14.4471 C   0  0  0  0  0  0  0  0  0  0  0  0
   -8.1166  -34.7790  -17.0382 O   0  0  0  0  0  0  0  0  0  0  0  0
   -4.7924  -35.3935  -18.2317 O   0  0  0  0  0  0  0  0  0  0  0  0
   -7.3834  -37.4122  -17.0509 O   0  0  0  0  0  0  0  0  0  0  0  0
   -5.8245  -34.7215  -15.3460 O   0  0  0  0  0  0  0  0  0  0  0  0
   -4.3084  -36.7630  -14.5578 O   0  0  0  0  0  0  0  0  0  0  0  0
  1  2  1  0
  1  7  1  6
  1 11  1  0
  2  3  1  0
  2  8  1  6
  3  4  1  0
  3  9  1  6
  5  4  1  0
  4 10  1  6
  5  6  1  6
 11  5  1  0
  6 12  1  0
 13  7  1  1
 13 14  1  0
 22 13  1  0
 15 14  1  0
 14 19  1  1
 16 15  1  0
 15 20  1  1
 17 16  1  0
 16 21  1  6
 17 18  1  1
 17 22  1  0
 23 18  1  0
M  END
$$$$
