
     RDKit          3D

 23 24  0  0  0  0  0  0  0  0999 V2000
   -6.8439  -33.6729  -15.5470 C   0  0  1  0  0  0  0  0  0  0  0  0
   -7.6959  -34.0605  -16.7404 C   0  0  1  0  0  0  0  0  0  0  0  0
   -6.8226  -34.8425  -17.6990 C   0  0  2  0  0  0  0  0  0  0  0  0
   -6.2949  -36.1042  -17.0782 C   0  0  1  0  0  0  0  0  0  0  0  0
   -6.2674  -35.8963  -15.5756 C   0  0  1  0  0  0  0  0  0  0  0  0
   -5.2884  -36.8557  -14.9283 C   0  0  0  0  0  0  0  0  0  0  0  0
   -7.5495  -33.5839  -14.3808 O   0  0  0  0  0  0  0  0  0  0  0  0
   -8.8211  -34.7853  -16.3596 O   0  0  0  0  0  0  0  0  0  0  0  0
   -5.7417  -34.0037  -18.0280 O   0  0  0  0  0  0  0  0  0  0  0  0
   -7.0670  -37.2245  -17.3788 O   0  0  0  0  0  0  0  0  0  0  0  0
   -5.8105  -34.6174  -15.3430 O   0  0  0  0  0  0  0  0  0  0  0  0
   -3.9969  -36.4551  -15.2505 O   0  0  0  0  0  0  0  0  0  0  0  0
   -7.1005  -32.5411  -13.5335 C   0  0  2  0  0  0  0  0  0  0  0  0
   -8.1629  -31.4960  -13.5554 C   0  0  1  0  0  0  0  0  0  0  0  0
   -7.6037  -30.2307  -12.9517 C   0  0  2  0  0  0  0  0  0  0  0  0
   -6.5288  -29.7598  -13.9024 C   0  0  1  0  0  0  0  0  0  0  0  0
   -5.8516  -30.8861  -14.6153 C   0  0  1  0  0  0  0  0  0  0  0  0
   -4.4116  -30.4234  -14.8693 C   0  0  0  0  0  0  0  0  0  0  0  0
   -8.4956  -31.2215  -14.8802 O   0  0  0  0  0  0  0  0  0  0  0  0
   -7.1122  -30.4329  -11.6682 O   0  0  0  0  0  0  0  0  0  0  0  0
   -7.1321  -28.8546  -14.7812 O   0  0  0  0  0  0  0  0  0  0  0  0
   -5.9192  -32.1038  -14.0408 O   0  0  0  0  0  0  0  0  0  0  0  0
   -4.5057  -29.1125  -15.3405 O   0  0  0  0  0  0  0  0  0  0  0  0
  1  2  1  0
  1  7  1  1
  1 11  1  0
  2  3  1  0
  2  8  1  1
  3  4  1  0
  3  9  1  1
  5  4  1  0
  4 10  1  1
  5  6  1  1
 11  5  1  0
  6 12  1  0
 13  7  1  6
 13 14  1  0
 22 13  1  0
 15 14  1  0
 14 19  1  6
 16 15  1  0
 15 20  1  1
 17 16  1  0
 16 21  1  6
 17 18  1  1
 17 22  1  0
 23 18  1  0
M  END
$$$$
