
     RDKit          3D

 23 24  0  0  0  0  0  0  0  0999 V2000
   -6.5090  -31.8683  -15.1904 C   0  0  1  0  0  0  0  0  0  0  0  0
   -6.9459  -30.5635  -14.5528 C   0  0  1  0  0  0  0  0  0  0  0  0
   -7.2048  -29.5682  -15.6643 C   0  0  2  0  0  0  0  0  0  0  0  0
   -8.3017  -30.0237  -16.5835 C   0  0  1  0  0  0  0  0  0  0  0  0
   -8.3643  -31.5376  -16.5038 C   0  0  1  0  0  0  0  0  0  0  0  0
   -9.0337  -32.1035  -17.7404 C   0  0  0  0  0  0  0  0  0  0  0  0
   -6.8705  -32.9726  -14.4721 O   0  0  0  0  0  0  0  0  0  0  0  0
   -8.0635  -30.7325  -13.7412 O   0  0  0  0  0  0  0  0  0  0  0  0
   -6.0057  -29.4645  -16.3936 O   0  0  0  0  0  0  0  0  0  0  0  0
   -9.5458  -29.4887  -16.2555 O   0  0  0  0  0  0  0  0  0  0  0  0
   -7.0683  -32.0049  -16.4826 O   0  0  0  0  0  0  0  0  0  0  0  0
   -8.0508  -32.4166  -18.6722 O   0  0  0  0  0  0  0  0  0  0  0  0
   -6.2657  -34.1658  -14.9383 C   0  0  2  0  0  0  0  0  0  0  0  0
   -6.8011  -35.2672  -14.0889 C   0  0  1  0  0  0  0  0  0  0  0  0
   -5.9543  -36.4972  -14.3081 C   0  0  2  0  0  0  0  0  0  0  0  0
   -4.5895  -36.1627  -13.7544 C   0  0  1  0  0  0  0  0  0  0  0  0
   -4.2553  -34.7104  -13.8750 C   0  0  1  0  0  0  0  0  0  0  0  0
   -2.7328  -34.6377  -14.0462 C   0  0  0  0  0  0  0  0  0  0  0  0
   -6.6782  -34.9021  -12.7501 O   0  0  0  0  0  0  0  0  0  0  0  0
   -5.8979  -36.8653  -15.6464 O   0  0  0  0  0  0  0  0  0  0  0  0
   -4.5680  -36.6096  -12.4295 O   0  0  0  0  0  0  0  0  0  0  0  0
   -4.9238  -34.0032  -14.8078 O   0  0  0  0  0  0  0  0  0  0  0  0
   -2.4265  -35.4679  -15.1261 O   0  0  0  0  0  0  0  0  0  0  0  0
  1  2  1  0
  1  7  1  1
  1 11  1  0
  2  3  1  0
  2  8  1  6
  3  4  1  0
  3  9  1  6
  5  4  1  0
  4 10  1  1
  5  6  1  6
 11  5  1  0
  6 12  1  0
 13  7  1  1
 13 14  1  0
 22 13  1  0
 15 14  1  0
 14 19  1  1
 16 15  1  0
 15 20  1  6
 17 16  1  0
 16 21  1  1
 17 18  1  6
 17 22  1  0
 23 18  1  0
M  END
$$$$
