
     RDKit          3D

 23 24  0  0  0  0  0  0  0  0999 V2000
   -7.1729  -31.9508  -15.6460 C   0  0  1  0  0  0  0  0  0  0  0  0
   -6.4145  -30.7912  -15.0292 C   0  0  1  0  0  0  0  0  0  0  0  0
   -7.3822  -30.0129  -14.1626 C   0  0  2  0  0  0  0  0  0  0  0  0
   -7.9357  -30.8501  -13.0452 C   0  0  1  0  0  0  0  0  0  0  0  0
   -7.8629  -32.3009  -13.4831 C   0  0  1  0  0  0  0  0  0  0  0  0
   -8.8492  -33.1398  -12.6950 C   0  0  0  0  0  0  0  0  0  0  0  0
   -6.3954  -33.0510  -15.8710 O   0  0  0  0  0  0  0  0  0  0  0  0
   -5.3071  -31.2231  -14.3057 O   0  0  0  0  0  0  0  0  0  0  0  0
   -8.4366  -29.6119  -15.0039 O   0  0  0  0  0  0  0  0  0  0  0  0
   -7.2411  -30.6901  -11.8479 O   0  0  0  0  0  0  0  0  0  0  0  0
   -8.2391  -32.3529  -14.8076 O   0  0  0  0  0  0  0  0  0  0  0  0
   -8.8944  -34.4120  -13.2533 O   0  0  0  0  0  0  0  0  0  0  0  0
   -6.5136  -33.5598  -17.1879 C   0  0  2  0  0  0  0  0  0  0  0  0
   -5.9288  -34.9304  -17.1623 C   0  0  1  0  0  0  0  0  0  0  0  0
   -5.7195  -35.3894  -18.5848 C   0  0  2  0  0  0  0  0  0  0  0  0
   -4.6529  -34.4862  -19.1572 C   0  0  1  0  0  0  0  0  0  0  0  0
   -4.6775  -33.1133  -18.5656 C   0  0  1  0  0  0  0  0  0  0  0  0
   -4.1895  -32.1664  -19.6691 C   0  0  0  0  0  0  0  0  0  0  0  0
   -4.6797  -34.8743  -16.5477 O   0  0  0  0  0  0  0  0  0  0  0  0
   -6.8919  -35.3479  -19.3288 O   0  0  0  0  0  0  0  0  0  0  0  0
   -3.4274  -35.1315  -18.9637 O   0  0  0  0  0  0  0  0  0  0  0  0
   -5.8328  -32.7104  -17.9998 O   0  0  0  0  0  0  0  0  0  0  0  0
   -4.2753  -30.8784  -19.1373 O   0  0  0  0  0  0  0  0  0  0  0  0
  1  2  1  0
  1  7  1  1
  1 11  1  0
  2  3  1  0
  2  8  1  1
  3  4  1  0
  3  9  1  6
  5  4  1  0
  4 10  1  1
  5  6  1  1
 11  5  1  0
  6 12  1  0
 13  7  1  1
 13 14  1  0
 22 13  1  0
 15 14  1  0
 14 19  1  1
 16 15  1  0
 15 20  1  6
 17 16  1  0
 16 21  1  1
 17 18  1  6
 17 22  1  0
 23 18  1  0
M  END
$$$$
