
     RDKit          3D

 23 24  0  0  0  0  0  0  0  0999 V2000
   -6.6422  -32.3843  -14.1633 C   0  0  1  0  0  0  0  0  0  0  0  0
   -7.6665  -31.7911  -13.2151 C   0  0  1  0  0  0  0  0  0  0  0  0
   -7.2084  -30.3939  -12.8529 C   0  0  2  0  0  0  0  0  0  0  0  0
   -7.1209  -29.5004  -14.0570 C   0  0  1  0  0  0  0  0  0  0  0  0
   -6.9040  -30.3876  -15.2685 C   0  0  1  0  0  0  0  0  0  0  0  0
   -6.2863  -29.5918  -16.4011 C   0  0  0  0  0  0  0  0  0  0  0  0
   -7.1763  -33.2685  -15.0571 O   0  0  0  0  0  0  0  0  0  0  0  0
   -8.9433  -31.7879  -13.7683 O   0  0  0  0  0  0  0  0  0  0  0  0
   -5.9279  -30.5291  -12.2852 O   0  0  0  0  0  0  0  0  0  0  0  0
   -8.2637  -28.7260  -14.2460 O   0  0  0  0  0  0  0  0  0  0  0  0
   -6.0030  -31.3661  -14.9090 O   0  0  0  0  0  0  0  0  0  0  0  0
   -4.9863  -29.2511  -16.0456 O   0  0  0  0  0  0  0  0  0  0  0  0
   -6.2121  -33.8374  -15.9253 C   0  0  2  0  0  0  0  0  0  0  0  0
   -6.9212  -34.1355  -17.2019 C   0  0  1  0  0  0  0  0  0  0  0  0
   -6.0465  -35.0389  -18.0369 C   0  0  2  0  0  0  0  0  0  0  0  0
   -5.9655  -36.3457  -17.2842 C   0  0  1  0  0  0  0  0  0  0  0  0
   -6.0554  -36.1675  -15.8024 C   0  0  1  0  0  0  0  0  0  0  0  0
   -5.2203  -37.2974  -15.1872 C   0  0  0  0  0  0  0  0  0  0  0  0
   -8.0933  -34.8308  -16.9128 O   0  0  0  0  0  0  0  0  0  0  0  0
   -4.7909  -34.4904  -18.2658 O   0  0  0  0  0  0  0  0  0  0  0  0
   -6.9783  -37.1680  -17.7878 O   0  0  0  0  0  0  0  0  0  0  0  0
   -5.7396  -34.9526  -15.3110 O   0  0  0  0  0  0  0  0  0  0  0  0
   -4.1922  -36.6740  -14.4775 O   0  0  0  0  0  0  0  0  0  0  0  0
  1  2  1  0
  1  7  1  6
  1 11  1  0
  2  3  1  0
  2  8  1  6
  3  4  1  0
  3  9  1  6
  5  4  1  0
  4 10  1  6
  5  6  1  6
 11  5  1  0
  6 12  1  0
 13  7  1  1
 13 14  1  0
 22 13  1  0
 15 14  1  0
 14 19  1  1
 16 15  1  0
 15 20  1  1
 17 16  1  0
 16 21  1  6
 17 18  1  1
 17 22  1  0
 23 18  1  0
M  END
$$$$
