
     RDKit          3D

 23 24  0  0  0  0  0  0  0  0999 V2000
   -6.8441  -32.5477  -14.3355 C   0  0  1  0  0  0  0  0  0  0  0  0
   -7.8535  -32.0396  -13.3240 C   0  0  1  0  0  0  0  0  0  0  0  0
   -7.3740  -30.6919  -12.8273 C   0  0  2  0  0  0  0  0  0  0  0  0
   -7.2828  -29.6832  -13.9364 C   0  0  1  0  0  0  0  0  0  0  0  0
   -7.0866  -30.4470  -15.2326 C   0  0  1  0  0  0  0  0  0  0  0  0
   -6.4660  -29.5494  -16.2848 C   0  0  0  0  0  0  0  0  0  0  0  0
   -7.3964  -33.3308  -15.3089 O   0  0  0  0  0  0  0  0  0  0  0  0
   -9.1341  -31.9646  -13.8634 O   0  0  0  0  0  0  0  0  0  0  0  0
   -6.0914  -30.8997  -12.2868 O   0  0  0  0  0  0  0  0  0  0  0  0
   -8.4163  -28.8792  -14.0372 O   0  0  0  0  0  0  0  0  0  0  0  0
   -6.1964  -31.4681  -14.9807 O   0  0  0  0  0  0  0  0  0  0  0  0
   -5.2567  -30.1061  -16.6847 O   0  0  0  0  0  0  0  0  0  0  0  0
   -6.4362  -34.0636  -16.0493 C   0  0  2  0  0  0  0  0  0  0  0  0
   -7.1216  -34.5164  -17.2929 C   0  0  1  0  0  0  0  0  0  0  0  0
   -6.2679  -35.5707  -17.9544 C   0  0  2  0  0  0  0  0  0  0  0  0
   -6.2719  -36.7539  -17.0158 C   0  0  1  0  0  0  0  0  0  0  0  0
   -6.3960  -36.3543  -15.5803 C   0  0  1  0  0  0  0  0  0  0  0  0
   -5.6347  -37.4158  -14.7766 C   0  0  0  0  0  0  0  0  0  0  0  0
   -8.3339  -35.1094  -16.9471 O   0  0  0  0  0  0  0  0  0  0  0  0
   -4.9810  -35.1175  -18.2162 O   0  0  0  0  0  0  0  0  0  0  0  0
   -7.3084  -37.5968  -17.4292 O   0  0  0  0  0  0  0  0  0  0  0  0
   -6.0362  -35.0949  -15.2615 O   0  0  0  0  0  0  0  0  0  0  0  0
   -4.2895  -37.2674  -15.1197 O   0  0  0  0  0  0  0  0  0  0  0  0
  1  2  1  0
  1  7  1  6
  1 11  1  0
  2  3  1  0
  2  8  1  6
  3  4  1  0
  3  9  1  6
  5  4  1  0
  4 10  1  6
  5  6  1  6
 11  5  1  0
  6 12  1  0
 13  7  1  1
 13 14  1  0
 22 13  1  0
 15 14  1  0
 14 19  1  1
 16 15  1  0
 15 20  1  1
 17 16  1  0
 16 21  1  6
 17 18  1  1
 17 22  1  0
 23 18  1  0
M  END
$$$$
