
     RDKit          3D

 23 24  0  0  0  0  0  0  0  0999 V2000
   -6.6046  -33.7078  -15.9059 C   0  0  1  0  0  0  0  0  0  0  0  0
   -7.7257  -34.5990  -16.4049 C   0  0  1  0  0  0  0  0  0  0  0  0
   -7.1330  -35.5792  -17.3953 C   0  0  2  0  0  0  0  0  0  0  0  0
   -6.0908  -36.4570  -16.7634 C   0  0  1  0  0  0  0  0  0  0  0  0
   -5.5247  -35.7075  -15.5719 C   0  0  1  0  0  0  0  0  0  0  0  0
   -4.1547  -36.2472  -15.2119 C   0  0  0  0  0  0  0  0  0  0  0  0
   -6.7854  -33.2723  -14.6240 O   0  0  0  0  0  0  0  0  0  0  0  0
   -8.3735  -35.2502  -15.3596 O   0  0  0  0  0  0  0  0  0  0  0  0
   -6.5335  -34.8084  -18.4086 O   0  0  0  0  0  0  0  0  0  0  0  0
   -6.5948  -37.6862  -16.3431 O   0  0  0  0  0  0  0  0  0  0  0  0
   -5.3667  -34.3913  -15.9478 O   0  0  0  0  0  0  0  0  0  0  0  0
   -3.2081  -35.6275  -16.0196 O   0  0  0  0  0  0  0  0  0  0  0  0
   -6.4413  -31.9101  -14.4421 C   0  0  2  0  0  0  0  0  0  0  0  0
   -6.9183  -31.5350  -13.0808 C   0  0  1  0  0  0  0  0  0  0  0  0
   -6.8860  -30.0309  -12.9587 C   0  0  2  0  0  0  0  0  0  0  0  0
   -7.9248  -29.5159  -13.9265 C   0  0  1  0  0  0  0  0  0  0  0  0
   -8.0893  -30.3971  -15.1232 C   0  0  1  0  0  0  0  0  0  0  0  0
   -8.4842  -29.4719  -16.2809 C   0  0  0  0  0  0  0  0  0  0  0  0
   -8.2432  -31.9424  -12.9411 O   0  0  0  0  0  0  0  0  0  0  0  0
   -5.6255  -29.5089  -13.2204 O   0  0  0  0  0  0  0  0  0  0  0  0
   -9.1129  -29.3646  -13.2047 O   0  0  0  0  0  0  0  0  0  0  0  0
   -7.0609  -31.2132  -15.4293 O   0  0  0  0  0  0  0  0  0  0  0  0
   -7.8082  -29.9510  -17.4046 O   0  0  0  0  0  0  0  0  0  0  0  0
  1  2  1  0
  1  7  1  1
  1 11  1  0
  2  3  1  0
  2  8  1  1
  3  4  1  0
  3  9  1  6
  5  4  1  0
  4 10  1  1
  5  6  1  6
 11  5  1  0
  6 12  1  0
 13  7  1  6
 13 14  1  0
 22 13  1  0
 15 14  1  0
 14 19  1  6
 16 15  1  0
 15 20  1  6
 17 16  1  0
 16 21  1  1
 17 18  1  6
 17 22  1  0
 23 18  1  0
M  END
$$$$
