
     RDKit          3D

 23 24  0  0  0  0  0  0  0  0999 V2000
   -6.2575  -33.5295  -16.1393 C   0  0  1  0  0  0  0  0  0  0  0  0
   -7.2843  -34.0409  -17.1314 C   0  0  1  0  0  0  0  0  0  0  0  0
   -6.6032  -35.0613  -18.0190 C   0  0  2  0  0  0  0  0  0  0  0  0
   -6.0915  -36.2363  -17.2358 C   0  0  1  0  0  0  0  0  0  0  0  0
   -5.8524  -35.7669  -15.8130 C   0  0  1  0  0  0  0  0  0  0  0  0
   -4.8692  -36.6842  -15.1133 C   0  0  0  0  0  0  0  0  0  0  0  0
   -6.7959  -33.1666  -14.9375 O   0  0  0  0  0  0  0  0  0  0  0  0
   -8.3994  -34.5752  -16.4932 O   0  0  0  0  0  0  0  0  0  0  0  0
   -5.5167  -34.4019  -18.6232 O   0  0  0  0  0  0  0  0  0  0  0  0
   -6.9756  -37.3134  -17.2280 O   0  0  0  0  0  0  0  0  0  0  0  0
   -5.2775  -34.5165  -15.8808 O   0  0  0  0  0  0  0  0  0  0  0  0
   -4.0655  -35.9175  -14.2775 O   0  0  0  0  0  0  0  0  0  0  0  0
   -6.2609  -31.9583  -14.4268 C   0  0  2  0  0  0  0  0  0  0  0  0
   -7.1434  -31.5535  -13.2961 C   0  0  1  0  0  0  0  0  0  0  0  0
   -6.8312  -30.1223  -12.9324 C   0  0  2  0  0  0  0  0  0  0  0  0
   -7.2588  -29.2921  -14.1194 C   0  0  1  0  0  0  0  0  0  0  0  0
   -7.1248  -30.0236  -15.4165 C   0  0  1  0  0  0  0  0  0  0  0  0
   -6.8129  -28.9581  -16.4748 C   0  0  0  0  0  0  0  0  0  0  0  0
   -8.4691  -31.6024  -13.7214 O   0  0  0  0  0  0  0  0  0  0  0  0
   -5.4891  -29.9386  -12.6242 O   0  0  0  0  0  0  0  0  0  0  0  0
   -8.5704  -28.8750  -13.8720 O   0  0  0  0  0  0  0  0  0  0  0  0
   -6.2672  -31.0632  -15.4481 O   0  0  0  0  0  0  0  0  0  0  0  0
   -5.7074  -29.4316  -17.1839 O   0  0  0  0  0  0  0  0  0  0  0  0
  1  2  1  0
  1  7  1  1
  1 11  1  0
  2  3  1  0
  2  8  1  1
  3  4  1  0
  3  9  1  1
  5  4  1  0
  4 10  1  1
  5  6  1  6
 11  5  1  0
  6 12  1  0
 13  7  1  6
 13 14  1  0
 22 13  1  0
 15 14  1  0
 14 19  1  6
 16 15  1  0
 15 20  1  6
 17 16  1  0
 16 21  1  1
 17 18  1  6
 17 22  1  0
 23 18  1  0
M  END
$$$$
