
     RDKit          3D

 23 24  0  0  0  0  0  0  0  0999 V2000
   -6.9515  -33.3412  -15.8135 C   0  0  1  0  0  0  0  0  0  0  0  0
   -8.0221  -34.3793  -16.0896 C   0  0  1  0  0  0  0  0  0  0  0  0
   -7.5019  -35.3061  -17.1683 C   0  0  2  0  0  0  0  0  0  0  0  0
   -6.2574  -36.0284  -16.7378 C   0  0  1  0  0  0  0  0  0  0  0  0
   -5.5816  -35.1800  -15.6769 C   0  0  1  0  0  0  0  0  0  0  0  0
   -4.1111  -35.5339  -15.5765 C   0  0  0  0  0  0  0  0  0  0  0  0
   -6.9467  -32.8948  -14.5225 O   0  0  0  0  0  0  0  0  0  0  0  0
   -8.3770  -35.0759  -14.9384 O   0  0  0  0  0  0  0  0  0  0  0  0
   -7.2035  -34.4961  -18.2797 O   0  0  0  0  0  0  0  0  0  0  0  0
   -6.5135  -37.2982  -16.2246 O   0  0  0  0  0  0  0  0  0  0  0  0
   -5.6655  -33.8658  -16.0824 O   0  0  0  0  0  0  0  0  0  0  0  0
   -3.4466  -34.4906  -14.9423 O   0  0  0  0  0  0  0  0  0  0  0  0
   -6.5092  -31.5533  -14.3960 C   0  0  2  0  0  0  0  0  0  0  0  0
   -6.5617  -31.2302  -12.9420 C   0  0  1  0  0  0  0  0  0  0  0  0
   -6.4340  -29.7353  -12.7778 C   0  0  2  0  0  0  0  0  0  0  0  0
   -7.6837  -29.1449  -13.3866 C   0  0  1  0  0  0  0  0  0  0  0  0
   -8.2193  -29.9628  -14.5179 C   0  0  1  0  0  0  0  0  0  0  0  0
   -8.8900  -28.9724  -15.4779 C   0  0  0  0  0  0  0  0  0  0  0  0
   -7.8071  -31.6057  -12.4432 O   0  0  0  0  0  0  0  0  0  0  0  0
   -5.2803  -29.2377  -13.3706 O   0  0  0  0  0  0  0  0  0  0  0  0
   -8.6089  -28.9943  -12.3488 O   0  0  0  0  0  0  0  0  0  0  0  0
   -7.3557  -30.7925  -15.1368 O   0  0  0  0  0  0  0  0  0  0  0  0
   -8.3388  -29.2222  -16.7361 O   0  0  0  0  0  0  0  0  0  0  0  0
  1  2  1  0
  1  7  1  1
  1 11  1  0
  2  3  1  0
  2  8  1  1
  3  4  1  0
  3  9  1  6
  5  4  1  0
  4 10  1  1
  5  6  1  6
 11  5  1  0
  6 12  1  0
 13  7  1  1
 13 14  1  0
 22 13  1  0
 15 14  1  0
 14 19  1  6
 16 15  1  0
 15 20  1  6
 17 16  1  0
 16 21  1  1
 17 18  1  6
 17 22  1  0
 23 18  1  0
M  END
$$$$
