
     RDKit          3D

 26 28  0  0  0  0  0  0  0  0999 V2000
   18.1404   27.0142   23.9367 C   0  0  0  0  0  0  0  0  0  0  0  0
   18.0845   27.7180   25.1251 C   0  0  0  0  0  0  0  0  0  0  0  0
   17.4401   27.2041   26.2359 C   0  0  0  0  0  0  0  0  0  0  0  0
   16.8531   25.9640   26.1213 C   0  0  0  0  0  0  0  0  0  0  0  0
   16.9120   25.2563   24.9190 C   0  0  0  0  0  0  0  0  0  0  0  0
   17.5495   25.7603   23.8141 C   0  0  0  0  0  0  0  0  0  0  0  0
   17.6318   25.0608   22.5240 C   0  0  0  0  0  0  0  0  0  0  0  0
   16.5935   24.2727   22.0885 C   0  0  0  0  0  0  0  0  0  0  0  0
   18.7388   25.1695   21.7035 C   0  0  0  0  0  0  0  0  0  0  0  0
   18.8200   24.5264   20.4991 C   0  0  0  0  0  0  0  0  0  0  0  0
   17.7383   23.7318   20.0910 C   0  0  0  0  0  0  0  0  0  0  0  0
   17.9070   23.1289   18.8948 F   0  0  0  0  0  0  0  0  0  0  0  0
   16.6259   23.5938   20.8655 C   0  0  0  0  0  0  0  0  0  0  0  0
   15.4921   22.7883   20.4619 C   0  0  0  0  0  0  0  0  0  0  0  0
   15.1382   22.7701   19.2217 O   0  0  0  0  0  0  0  0  0  0  0  0
   14.6910   21.9835   21.2955 N   0  0  0  0  0  0  0  0  0  0  0  0
   13.9245   20.9200   20.7744 N   0  0  0  0  0  0  0  0  0  0  0  0
   12.4474   21.6019   20.2201 S   0  0  2  0  0  6  0  0  0  0  0  0
   11.8097   20.6492   19.2421 O   0  0  0  0  0  0  0  0  0  0  0  0
   12.6762   22.9089   19.4857 O   0  0  0  0  0  0  0  0  0  0  0  0
   11.3391   21.9440   21.5172 C   0  0  0  0  0  0  0  0  0  0  0  0
   10.4320   22.9705   21.4003 C   0  0  0  0  0  0  0  0  0  0  0  0
    9.5535   23.2275   22.4539 C   0  0  0  0  0  0  0  0  0  0  0  0
    9.5466   22.4980   23.6200 C   0  0  0  0  0  0  0  0  0  0  0  0
   10.4622   21.4672   23.7295 C   0  0  0  0  0  0  0  0  0  0  0  0
   11.3324   21.2066   22.6954 C   0  0  0  0  0  0  0  0  0  0  0  0
  1  2  2  0
  1  6  1  0
  2  3  1  0
  3  4  2  0
  4  5  1  0
  5  6  2  0
  6  7  1  0
  7  8  2  0
  7  9  1  0
  8 13  1  0
  9 10  2  0
 10 11  1  0
 11 12  1  0
 11 13  2  0
 13 14  1  0
 14 15  2  0
 14 16  1  0
 16 17  1  0
 18 17  1  1
 18 19  2  0
 18 20  2  0
 18 21  1  0
 21 22  2  0
 21 26  1  0
 22 23  1  0
 23 24  2  0
 24 25  1  0
 25 26  2  0
M  END
$$$$
