
     RDKit          3D

 26 28  0  0  0  0  0  0  0  0999 V2000
   22.2765   29.7675    9.4579 C   0  0  0  0  0  0  0  0  0  0  0  0
   23.6291   29.9647    9.6635 C   0  0  0  0  0  0  0  0  0  0  0  0
   24.4367   30.4985    8.6756 C   0  0  0  0  0  0  0  0  0  0  0  0
   23.8493   30.8293    7.4752 C   0  0  0  0  0  0  0  0  0  0  0  0
   22.4825   30.6286    7.2715 C   0  0  0  0  0  0  0  0  0  0  0  0
   21.6765   30.0997    8.2471 C   0  0  0  0  0  0  0  0  0  0  0  0
   20.2360   29.8599    8.0803 C   0  0  0  0  0  0  0  0  0  0  0  0
   19.3440   30.2608    9.0461 C   0  0  0  0  0  0  0  0  0  0  0  0
   19.7245   29.2354    6.9584 C   0  0  0  0  0  0  0  0  0  0  0  0
   18.3849   29.0141    6.7936 C   0  0  0  0  0  0  0  0  0  0  0  0
   17.5077   29.4390    7.8026 C   0  0  0  0  0  0  0  0  0  0  0  0
   16.2063   29.1735    7.5608 F   0  0  0  0  0  0  0  0  0  0  0  0
   17.9646   30.0588    8.9267 C   0  0  0  0  0  0  0  0  0  0  0  0
   17.0790   30.5161    9.9772 C   0  0  0  0  0  0  0  0  0  0  0  0
   16.3114   31.5299    9.7612 O   0  0  0  0  0  0  0  0  0  0  0  0
   16.9454   29.9640   11.2663 N   0  0  0  0  0  0  0  0  0  0  0  0
   15.9386   30.4011   12.1525 N   0  0  0  0  0  0  0  0  0  0  0  0
   15.8537   29.2379   13.4150 S   0  0  2  0  0  6  0  0  0  0  0  0
   15.1269   29.8455   14.5869 O   0  0  0  0  0  0  0  0  0  0  0  0
   17.2336   28.8407   13.9026 O   0  0  0  0  0  0  0  0  0  0  0  0
   15.0556   27.7720   12.9227 C   0  0  0  0  0  0  0  0  0  0  0  0
   13.7098   27.7771   12.6421 C   0  0  0  0  0  0  0  0  0  0  0  0
   13.0905   26.5893   12.2503 C   0  0  0  0  0  0  0  0  0  0  0  0
   13.7646   25.3966   12.1279 C   0  0  0  0  0  0  0  0  0  0  0  0
   15.1182   25.4002   12.4119 C   0  0  0  0  0  0  0  0  0  0  0  0
   15.7371   26.5670   12.7991 C   0  0  0  0  0  0  0  0  0  0  0  0
  1  2  2  0
  1  6  1  0
  2  3  1  0
  3  4  2  0
  4  5  1  0
  5  6  2  0
  6  7  1  0
  7  8  2  0
  7  9  1  0
  8 13  1  0
  9 10  2  0
 10 11  1  0
 11 12  1  0
 11 13  2  0
 13 14  1  0
 14 15  2  0
 14 16  1  0
 16 17  1  0
 18 17  1  6
 18 19  2  0
 18 20  2  0
 18 21  1  0
 21 22  2  0
 21 26  1  0
 22 23  1  0
 23 24  2  0
 24 25  1  0
 25 26  2  0
M  END
$$$$
