
     RDKit          3D

 26 28  0  0  0  0  0  0  0  0999 V2000
   16.0136   22.1903   16.7113 C   0  0  0  0  0  0  0  0  0  0  0  0
   15.3495   22.0377   15.5086 C   0  0  0  0  0  0  0  0  0  0  0  0
   15.5757   20.9417   14.6958 C   0  0  0  0  0  0  0  0  0  0  0  0
   16.4871   20.0025   15.1233 C   0  0  0  0  0  0  0  0  0  0  0  0
   17.1559   20.1603   16.3389 C   0  0  0  0  0  0  0  0  0  0  0  0
   16.9358   21.2447   17.1494 C   0  0  0  0  0  0  0  0  0  0  0  0
   17.6196   21.4625   18.4321 C   0  0  0  0  0  0  0  0  0  0  0  0
   16.9372   21.9732   19.5103 C   0  0  0  0  0  0  0  0  0  0  0  0
   18.9573   21.1616   18.6071 C   0  0  0  0  0  0  0  0  0  0  0  0
   19.5987   21.3560   19.7994 C   0  0  0  0  0  0  0  0  0  0  0  0
   18.8662   21.8789   20.8755 C   0  0  0  0  0  0  0  0  0  0  0  0
   19.5795   22.0450   22.0096 F   0  0  0  0  0  0  0  0  0  0  0  0
   17.5457   22.1910   20.7513 C   0  0  0  0  0  0  0  0  0  0  0  0
   16.7653   22.7217   21.8496 C   0  0  0  0  0  0  0  0  0  0  0  0
   16.0334   21.9232   22.5498 O   0  0  0  0  0  0  0  0  0  0  0  0
   16.7047   24.0654   22.2681 N   0  0  0  0  0  0  0  0  0  0  0  0
   15.8967   24.4612   23.3548 N   0  0  0  0  0  0  0  0  0  0  0  0
   16.3118   26.0908   23.7101 S   0  0  2  0  0  6  0  0  0  0  0  0
   15.3130   26.6426   24.6944 O   0  0  0  0  0  0  0  0  0  0  0  0
   16.2496   26.9658   22.4730 O   0  0  0  0  0  0  0  0  0  0  0  0
   17.9210   26.2473   24.3534 C   0  0  0  0  0  0  0  0  0  0  0  0
   18.9653   26.5944   23.5294 C   0  0  0  0  0  0  0  0  0  0  0  0
   20.2478   26.7127   24.0669 C   0  0  0  0  0  0  0  0  0  0  0  0
   20.5269   26.4977   25.3966 C   0  0  0  0  0  0  0  0  0  0  0  0
   19.4707   26.1490   26.2187 C   0  0  0  0  0  0  0  0  0  0  0  0
   18.2025   26.0299   25.6970 C   0  0  0  0  0  0  0  0  0  0  0  0
  1  2  2  0
  1  6  1  0
  2  3  1  0
  3  4  2  0
  4  5  1  0
  5  6  2  0
  6  7  1  0
  7  8  2  0
  7  9  1  0
  8 13  1  0
  9 10  2  0
 10 11  1  0
 11 12  1  0
 11 13  2  0
 13 14  1  0
 14 15  2  0
 14 16  1  0
 16 17  1  0
 18 17  1  6
 18 19  2  0
 18 20  2  0
 18 21  1  0
 21 22  2  0
 21 26  1  0
 22 23  1  0
 23 24  2  0
 24 25  1  0
 25 26  2  0
M  END
$$$$
