
     RDKit          3D

 26 28  0  0  0  0  0  0  0  0999 V2000
   21.2329   27.8837   24.5562 C   0  0  0  0  0  0  0  0  0  0  0  0
   22.2421   28.0288   25.4894 C   0  0  0  0  0  0  0  0  0  0  0  0
   22.6341   29.2774   25.9370 C   0  0  0  0  0  0  0  0  0  0  0  0
   21.9851   30.3771   25.4222 C   0  0  0  0  0  0  0  0  0  0  0  0
   20.9659   30.2261   24.4796 C   0  0  0  0  0  0  0  0  0  0  0  0
   20.5726   28.9908   24.0319 C   0  0  0  0  0  0  0  0  0  0  0  0
   19.5134   28.7783   23.0353 C   0  0  0  0  0  0  0  0  0  0  0  0
   18.5710   27.7943   23.2156 C   0  0  0  0  0  0  0  0  0  0  0  0
   19.4184   29.5521   21.8939 C   0  0  0  0  0  0  0  0  0  0  0  0
   18.4320   29.3641   20.9652 C   0  0  0  0  0  0  0  0  0  0  0  0
   17.4893   28.3492   21.1869 C   0  0  0  0  0  0  0  0  0  0  0  0
   16.5578   28.2294   20.2171 F   0  0  0  0  0  0  0  0  0  0  0  0
   17.5419   27.5607   22.2968 C   0  0  0  0  0  0  0  0  0  0  0  0
   16.5747   26.5139   22.5538 C   0  0  0  0  0  0  0  0  0  0  0  0
   16.2854   26.2048   23.7721 O   0  0  0  0  0  0  0  0  0  0  0  0
   15.8772   25.7567   21.5922 N   0  0  0  0  0  0  0  0  0  0  0  0
   15.0986   24.6393   21.9600 N   0  0  0  0  0  0  0  0  0  0  0  0
   15.8067   23.2719   21.1965 S   0  0  2  0  0  6  0  0  0  0  0  0
   15.9924   23.5756   19.7322 O   0  0  0  0  0  0  0  0  0  0  0  0
   14.9094   22.0529   21.2894 O   0  0  0  0  0  0  0  0  0  0  0  0
   17.3327   22.8253   21.9036 C   0  0  0  0  0  0  0  0  0  0  0  0
   17.4853   21.5972   22.5023 C   0  0  0  0  0  0  0  0  0  0  0  0
   18.7178   21.2609   23.0641 C   0  0  0  0  0  0  0  0  0  0  0  0
   19.8039   22.1048   23.0503 C   0  0  0  0  0  0  0  0  0  0  0  0
   19.6420   23.3383   22.4459 C   0  0  0  0  0  0  0  0  0  0  0  0
   18.4299   23.6783   21.8895 C   0  0  0  0  0  0  0  0  0  0  0  0
  1  2  2  0
  1  6  1  0
  2  3  1  0
  3  4  2  0
  4  5  1  0
  5  6  2  0
  6  7  1  0
  7  8  2  0
  7  9  1  0
  8 13  1  0
  9 10  2  0
 10 11  1  0
 11 12  1  0
 11 13  2  0
 13 14  1  0
 14 15  2  0
 14 16  1  0
 16 17  1  0
 18 17  1  1
 18 19  2  0
 18 20  2  0
 18 21  1  0
 21 22  2  0
 21 26  1  0
 22 23  1  0
 23 24  2  0
 24 25  1  0
 25 26  2  0
M  END
$$$$
