
     RDKit          3D

 26 28  0  0  0  0  0  0  0  0999 V2000
   16.3376   22.6592   21.7194 C   0  0  0  0  0  0  0  0  0  0  0  0
   17.6780   22.3676   21.5491 C   0  0  0  0  0  0  0  0  0  0  0  0
   18.1438   21.7764   20.3887 C   0  0  0  0  0  0  0  0  0  0  0  0
   17.2272   21.4859   19.4033 C   0  0  0  0  0  0  0  0  0  0  0  0
   15.8740   21.7822   19.5793 C   0  0  0  0  0  0  0  0  0  0  0  0
   15.4059   22.3684   20.7275 C   0  0  0  0  0  0  0  0  0  0  0  0
   13.9921   22.6918   20.9660 C   0  0  0  0  0  0  0  0  0  0  0  0
   12.9989   22.0310   20.2835 C   0  0  0  0  0  0  0  0  0  0  0  0
   13.6072   23.6563   21.8783 C   0  0  0  0  0  0  0  0  0  0  0  0
   12.2935   23.9584   22.1098 C   0  0  0  0  0  0  0  0  0  0  0  0
   11.3103   23.2607   21.3926 C   0  0  0  0  0  0  0  0  0  0  0  0
   10.0430   23.6281   21.6783 F   0  0  0  0  0  0  0  0  0  0  0  0
   11.6407   22.3017   20.4829 C   0  0  0  0  0  0  0  0  0  0  0  0
   10.6446   21.5602   19.7379 C   0  0  0  0  0  0  0  0  0  0  0  0
    9.6738   22.1950   19.1738 O   0  0  0  0  0  0  0  0  0  0  0  0
   10.6035   20.1656   19.5431 N   0  0  0  0  0  0  0  0  0  0  0  0
    9.4824   19.5372   18.9614 N   0  0  0  0  0  0  0  0  0  0  0  0
    9.3512   17.9872   19.6924 S   0  0  2  0  0  6  0  0  0  0  0  0
   10.6105   17.2093   19.4102 O   0  0  0  0  0  0  0  0  0  0  0  0
    8.1963   17.1926   19.1140 O   0  0  0  0  0  0  0  0  0  0  0  0
    9.0866   18.0769   21.4099 C   0  0  0  0  0  0  0  0  0  0  0  0
    7.8591   18.4517   21.9027 C   0  0  0  0  0  0  0  0  0  0  0  0
    7.6700   18.5180   23.2839 C   0  0  0  0  0  0  0  0  0  0  0  0
    8.6607   18.2239   24.1917 C   0  0  0  0  0  0  0  0  0  0  0  0
    9.8925   17.8476   23.6877 C   0  0  0  0  0  0  0  0  0  0  0  0
   10.0878   17.7796   22.3269 C   0  0  0  0  0  0  0  0  0  0  0  0
  1  2  2  0
  1  6  1  0
  2  3  1  0
  3  4  2  0
  4  5  1  0
  5  6  2  0
  6  7  1  0
  7  8  2  0
  7  9  1  0
  8 13  1  0
  9 10  2  0
 10 11  1  0
 11 12  1  0
 11 13  2  0
 13 14  1  0
 14 15  2  0
 14 16  1  0
 16 17  1  0
 18 17  1  6
 18 19  2  0
 18 20  2  0
 18 21  1  0
 21 22  2  0
 21 26  1  0
 22 23  1  0
 23 24  2  0
 24 25  1  0
 25 26  2  0
M  END
$$$$
