
     RDKit          3D

 26 28  0  0  0  0  0  0  0  0999 V2000
   16.9336   23.3224   15.1250 C   0  0  0  0  0  0  0  0  0  0  0  0
   16.2523   23.9897   14.1244 C   0  0  0  0  0  0  0  0  0  0  0  0
   14.8850   24.1868   14.1931 C   0  0  0  0  0  0  0  0  0  0  0  0
   14.2198   23.6957   15.2939 C   0  0  0  0  0  0  0  0  0  0  0  0
   14.9119   23.0222   16.3026 C   0  0  0  0  0  0  0  0  0  0  0  0
   16.2675   22.8236   16.2404 C   0  0  0  0  0  0  0  0  0  0  0  0
   17.0408   22.1139   17.2693 C   0  0  0  0  0  0  0  0  0  0  0  0
   16.7903   22.3277   18.6037 C   0  0  0  0  0  0  0  0  0  0  0  0
   18.0343   21.2102   16.9428 C   0  0  0  0  0  0  0  0  0  0  0  0
   18.7540   20.5418   17.8947 C   0  0  0  0  0  0  0  0  0  0  0  0
   18.4670   20.7881   19.2456 C   0  0  0  0  0  0  0  0  0  0  0  0
   19.2296   20.0919   20.1154 F   0  0  0  0  0  0  0  0  0  0  0  0
   17.4971   21.6701   19.6166 C   0  0  0  0  0  0  0  0  0  0  0  0
   17.1747   21.9337   21.0036 C   0  0  0  0  0  0  0  0  0  0  0  0
   17.3797   21.0160   21.8865 O   0  0  0  0  0  0  0  0  0  0  0  0
   16.6406   23.1250   21.5327 N   0  0  0  0  0  0  0  0  0  0  0  0
   16.6130   23.3645   22.9227 N   0  0  0  0  0  0  0  0  0  0  0  0
   14.9576   23.4049   23.3834 S   0  0  2  0  0  6  0  0  0  0  0  0
   14.8727   23.6493   24.8679 O   0  0  0  0  0  0  0  0  0  0  0  0
   14.2686   22.0823   23.1084 O   0  0  0  0  0  0  0  0  0  0  0  0
   14.0552   24.6257   22.5329 C   0  0  0  0  0  0  0  0  0  0  0  0
   12.9976   24.2711   21.7294 C   0  0  0  0  0  0  0  0  0  0  0  0
   12.2890   25.2670   21.0557 C   0  0  0  0  0  0  0  0  0  0  0  0
   12.5967   26.6040   21.1544 C   0  0  0  0  0  0  0  0  0  0  0  0
   13.6620   26.9524   21.9648 C   0  0  0  0  0  0  0  0  0  0  0  0
   14.3664   25.9766   22.6328 C   0  0  0  0  0  0  0  0  0  0  0  0
  1  2  2  0
  1  6  1  0
  2  3  1  0
  3  4  2  0
  4  5  1  0
  5  6  2  0
  6  7  1  0
  7  8  2  0
  7  9  1  0
  8 13  1  0
  9 10  2  0
 10 11  1  0
 11 12  1  0
 11 13  2  0
 13 14  1  0
 14 15  2  0
 14 16  1  0
 16 17  1  0
 18 17  1  6
 18 19  2  0
 18 20  2  0
 18 21  1  0
 21 22  2  0
 21 26  1  0
 22 23  1  0
 23 24  2  0
 24 25  1  0
 25 26  2  0
M  END
$$$$
