
     RDKit          3D

 26 28  0  0  0  0  0  0  0  0999 V2000
   21.0074   19.6138   18.7911 C   0  0  0  0  0  0  0  0  0  0  0  0
   22.1226   18.8198   18.9828 C   0  0  0  0  0  0  0  0  0  0  0  0
   22.1831   17.5316   18.4829 C   0  0  0  0  0  0  0  0  0  0  0  0
   21.0933   17.0617   17.7850 C   0  0  0  0  0  0  0  0  0  0  0  0
   19.9687   17.8670   17.5936 C   0  0  0  0  0  0  0  0  0  0  0  0
   19.9026   19.1452   18.0866 C   0  0  0  0  0  0  0  0  0  0  0  0
   18.7401   20.0293   17.9211 C   0  0  0  0  0  0  0  0  0  0  0  0
   18.2837   20.7883   18.9721 C   0  0  0  0  0  0  0  0  0  0  0  0
   18.0703   20.1376   16.7169 C   0  0  0  0  0  0  0  0  0  0  0  0
   16.9916   20.9625   16.5538 C   0  0  0  0  0  0  0  0  0  0  0  0
   16.5575   21.7207   17.6514 C   0  0  0  0  0  0  0  0  0  0  0  0
   15.4835   22.5002   17.4031 F   0  0  0  0  0  0  0  0  0  0  0  0
   17.1854   21.6477   18.8584 C   0  0  0  0  0  0  0  0  0  0  0  0
   16.7634   22.4278   20.0031 C   0  0  0  0  0  0  0  0  0  0  0  0
   17.5361   22.5101   21.0326 O   0  0  0  0  0  0  0  0  0  0  0  0
   15.5568   23.1424   20.1372 N   0  0  0  0  0  0  0  0  0  0  0  0
   15.2894   23.9259   21.2795 N   0  0  0  0  0  0  0  0  0  0  0  0
   13.7234   24.5993   21.0601 S   0  0  2  0  0  6  0  0  0  0  0  0
   13.6900   25.3318   19.7436 O   0  0  0  0  0  0  0  0  0  0  0  0
   13.3930   25.6097   22.1417 O   0  0  0  0  0  0  0  0  0  0  0  0
   12.4659   23.3971   21.0973 C   0  0  0  0  0  0  0  0  0  0  0  0
   11.9476   22.9743   22.2984 C   0  0  0  0  0  0  0  0  0  0  0  0
   10.9405   22.0081   22.3042 C   0  0  0  0  0  0  0  0  0  0  0  0
   10.4312   21.4482   21.1556 C   0  0  0  0  0  0  0  0  0  0  0  0
   10.9581   21.8791   19.9515 C   0  0  0  0  0  0  0  0  0  0  0  0
   11.9516   22.8316   19.9365 C   0  0  0  0  0  0  0  0  0  0  0  0
  1  2  2  0
  1  6  1  0
  2  3  1  0
  3  4  2  0
  4  5  1  0
  5  6  2  0
  6  7  1  0
  7  8  2  0
  7  9  1  0
  8 13  1  0
  9 10  2  0
 10 11  1  0
 11 12  1  0
 11 13  2  0
 13 14  1  0
 14 15  2  0
 14 16  1  0
 16 17  1  0
 18 17  1  1
 18 19  2  0
 18 20  2  0
 18 21  1  0
 21 22  2  0
 21 26  1  0
 22 23  1  0
 23 24  2  0
 24 25  1  0
 25 26  2  0
M  END
$$$$
