
     RDKit          3D

 26 28  0  0  0  0  0  0  0  0999 V2000
   16.4009   22.1320   16.8891 C   0  0  0  0  0  0  0  0  0  0  0  0
   16.3804   21.9960   15.5137 C   0  0  0  0  0  0  0  0  0  0  0  0
   17.5412   21.7734   14.7954 C   0  0  0  0  0  0  0  0  0  0  0  0
   18.7238   21.6910   15.4956 C   0  0  0  0  0  0  0  0  0  0  0  0
   18.7401   21.8289   16.8851 C   0  0  0  0  0  0  0  0  0  0  0  0
   17.5925   22.0496   17.6030 C   0  0  0  0  0  0  0  0  0  0  0  0
   17.5567   22.2110   19.0635 C   0  0  0  0  0  0  0  0  0  0  0  0
   16.4377   22.7125   19.6843 C   0  0  0  0  0  0  0  0  0  0  0  0
   18.6295   21.8646   19.8632 C   0  0  0  0  0  0  0  0  0  0  0  0
   18.6012   22.0065   21.2233 C   0  0  0  0  0  0  0  0  0  0  0  0
   17.4399   22.5217   21.8180 C   0  0  0  0  0  0  0  0  0  0  0  0
   17.5024   22.6346   23.1619 F   0  0  0  0  0  0  0  0  0  0  0  0
   16.3570   22.8773   21.0714 C   0  0  0  0  0  0  0  0  0  0  0  0
   15.1431   23.4013   21.6621 C   0  0  0  0  0  0  0  0  0  0  0  0
   14.1667   23.7521   20.8959 O   0  0  0  0  0  0  0  0  0  0  0  0
   14.8844   23.5827   23.0349 N   0  0  0  0  0  0  0  0  0  0  0  0
   13.6267   24.0280   23.4934 N   0  0  0  0  0  0  0  0  0  0  0  0
   13.8693   25.5966   24.1528 S   0  0  2  0  0  6  0  0  0  0  0  0
   14.9531   25.5219   25.1971 O   0  0  0  0  0  0  0  0  0  0  0  0
   12.6206   26.1126   24.8413 O   0  0  0  0  0  0  0  0  0  0  0  0
   14.2965   26.7728   22.9436 C   0  0  0  0  0  0  0  0  0  0  0  0
   15.5839   27.2488   22.8651 C   0  0  0  0  0  0  0  0  0  0  0  0
   15.9035   28.1928   21.8881 C   0  0  0  0  0  0  0  0  0  0  0  0
   14.9859   28.6794   20.9862 C   0  0  0  0  0  0  0  0  0  0  0  0
   13.6931   28.1952   21.0719 C   0  0  0  0  0  0  0  0  0  0  0  0
   13.3691   27.2641   22.0325 C   0  0  0  0  0  0  0  0  0  0  0  0
  1  2  2  0
  1  6  1  0
  2  3  1  0
  3  4  2  0
  4  5  1  0
  5  6  2  0
  6  7  1  0
  7  8  2  0
  7  9  1  0
  8 13  1  0
  9 10  2  0
 10 11  1  0
 11 12  1  0
 11 13  2  0
 13 14  1  0
 14 15  2  0
 14 16  1  0
 16 17  1  0
 18 17  1  6
 18 19  2  0
 18 20  2  0
 18 21  1  0
 21 22  2  0
 21 26  1  0
 22 23  1  0
 23 24  2  0
 24 25  1  0
 25 26  2  0
M  END
$$$$
