
     RDKit          3D

 26 28  0  0  0  0  0  0  0  0999 V2000
   21.9473   23.2977   21.6546 C   0  0  0  0  0  0  0  0  0  0  0  0
   23.1405   23.6787   22.2392 C   0  0  0  0  0  0  0  0  0  0  0  0
   23.1870   24.1483   23.5394 C   0  0  0  0  0  0  0  0  0  0  0  0
   22.0026   24.2250   24.2372 C   0  0  0  0  0  0  0  0  0  0  0  0
   20.7994   23.8390   23.6429 C   0  0  0  0  0  0  0  0  0  0  0  0
   20.7467   23.3725   22.3542 C   0  0  0  0  0  0  0  0  0  0  0  0
   19.5066   22.9629   21.6800 C   0  0  0  0  0  0  0  0  0  0  0  0
   18.3498   23.6868   21.8437 C   0  0  0  0  0  0  0  0  0  0  0  0
   19.4538   21.8516   20.8598 C   0  0  0  0  0  0  0  0  0  0  0  0
   18.3050   21.4678   20.2245 C   0  0  0  0  0  0  0  0  0  0  0  0
   17.1459   22.2340   20.4176 C   0  0  0  0  0  0  0  0  0  0  0  0
   16.0583   21.7789   19.7598 F   0  0  0  0  0  0  0  0  0  0  0  0
   17.1486   23.3375   21.2168 C   0  0  0  0  0  0  0  0  0  0  0  0
   15.9685   24.1509   21.4237 C   0  0  0  0  0  0  0  0  0  0  0  0
   16.1035   25.3817   21.7853 O   0  0  0  0  0  0  0  0  0  0  0  0
   14.6282   23.7453   21.2707 N   0  0  0  0  0  0  0  0  0  0  0  0
   13.5598   24.6413   21.4852 N   0  0  0  0  0  0  0  0  0  0  0  0
   12.3092   23.7437   22.2496 S   0  0  2  0  0  6  0  0  0  0  0  0
   11.2240   24.6952   22.6828 O   0  0  0  0  0  0  0  0  0  0  0  0
   12.8089   23.0390   23.4960 O   0  0  0  0  0  0  0  0  0  0  0  0
   11.6377   22.5158   21.2155 C   0  0  0  0  0  0  0  0  0  0  0  0
   12.0311   21.2055   21.3509 C   0  0  0  0  0  0  0  0  0  0  0  0
   11.4802   20.2377   20.5096 C   0  0  0  0  0  0  0  0  0  0  0  0
   10.5510   20.5291   19.5382 C   0  0  0  0  0  0  0  0  0  0  0  0
   10.1606   21.8496   19.4086 C   0  0  0  0  0  0  0  0  0  0  0  0
   10.6988   22.8107   20.2340 C   0  0  0  0  0  0  0  0  0  0  0  0
  1  2  2  0
  1  6  1  0
  2  3  1  0
  3  4  2  0
  4  5  1  0
  5  6  2  0
  6  7  1  0
  7  8  2  0
  7  9  1  0
  8 13  1  0
  9 10  2  0
 10 11  1  0
 11 12  1  0
 11 13  2  0
 13 14  1  0
 14 15  2  0
 14 16  1  0
 16 17  1  0
 18 17  1  6
 18 19  2  0
 18 20  2  0
 18 21  1  0
 21 22  2  0
 21 26  1  0
 22 23  1  0
 23 24  2  0
 24 25  1  0
 25 26  2  0
M  END
$$$$
