
     RDKit          3D

 26 28  0  0  0  0  0  0  0  0999 V2000
   14.4843   12.7057   10.3265 C   0  0  0  0  0  0  0  0  0  0  0  0
   13.4944   13.5477   10.7972 C   0  0  0  0  0  0  0  0  0  0  0  0
   12.6049   13.1372   11.7735 C   0  0  0  0  0  0  0  0  0  0  0  0
   12.7361   11.8578   12.2648 C   0  0  0  0  0  0  0  0  0  0  0  0
   13.7376   11.0102   11.7866 C   0  0  0  0  0  0  0  0  0  0  0  0
   14.6227   11.4114   10.8188 C   0  0  0  0  0  0  0  0  0  0  0  0
   15.6874   10.5562   10.2752 C   0  0  0  0  0  0  0  0  0  0  0  0
   15.5012    9.1999   10.1539 C   0  0  0  0  0  0  0  0  0  0  0  0
   16.9013   11.0736    9.8637 C   0  0  0  0  0  0  0  0  0  0  0  0
   17.8944   10.2848    9.3515 C   0  0  0  0  0  0  0  0  0  0  0  0
   17.6642    8.9052    9.2439 C   0  0  0  0  0  0  0  0  0  0  0  0
   18.6996    8.2033    8.7359 F   0  0  0  0  0  0  0  0  0  0  0  0
   16.4841    8.3489    9.6366 C   0  0  0  0  0  0  0  0  0  0  0  0
   16.2182    6.9297    9.5259 C   0  0  0  0  0  0  0  0  0  0  0  0
   17.1878    6.1233    9.2552 O   0  0  0  0  0  0  0  0  0  0  0  0
   14.9729    6.2908    9.6858 N   0  0  0  0  0  0  0  0  0  0  0  0
   14.8183    4.9099    9.4419 N   0  0  0  0  0  0  0  0  0  0  0  0
   13.6433    4.7574    8.1970 S   0  0  2  0  0  6  0  0  0  0  0  0
   14.1629    5.4320    6.9537 O   0  0  0  0  0  0  0  0  0  0  0  0
   12.3435    5.4450    8.5680 O   0  0  0  0  0  0  0  0  0  0  0  0
   13.2499    3.0989    7.8467 C   0  0  0  0  0  0  0  0  0  0  0  0
   13.9938    2.3887    6.9345 C   0  0  0  0  0  0  0  0  0  0  0  0
   13.6593    1.0601    6.6683 C   0  0  0  0  0  0  0  0  0  0  0  0
   12.6097    0.4139    7.2790 C   0  0  0  0  0  0  0  0  0  0  0  0
   11.8664    1.1355    8.1954 C   0  0  0  0  0  0  0  0  0  0  0  0
   12.1893    2.4463    8.4639 C   0  0  0  0  0  0  0  0  0  0  0  0
  1  2  2  0
  1  6  1  0
  2  3  1  0
  3  4  2  0
  4  5  1  0
  5  6  2  0
  6  7  1  0
  7  8  2  0
  7  9  1  0
  8 13  1  0
  9 10  2  0
 10 11  1  0
 11 12  1  0
 11 13  2  0
 13 14  1  0
 14 15  2  0
 14 16  1  0
 16 17  1  0
 18 17  1  1
 18 19  2  0
 18 20  2  0
 18 21  1  0
 21 22  2  0
 21 26  1  0
 22 23  1  0
 23 24  2  0
 24 25  1  0
 25 26  2  0
M  END
$$$$
