
     RDKit          3D

 26 28  0  0  0  0  0  0  0  0999 V2000
   14.7972   19.3309   17.6395 C   0  0  0  0  0  0  0  0  0  0  0  0
   13.8817   18.2960   17.6006 C   0  0  0  0  0  0  0  0  0  0  0  0
   14.2901   16.9762   17.5342 C   0  0  0  0  0  0  0  0  0  0  0  0
   15.6432   16.7233   17.5079 C   0  0  0  0  0  0  0  0  0  0  0  0
   16.5648   17.7717   17.5474 C   0  0  0  0  0  0  0  0  0  0  0  0
   16.1661   19.0824   17.6134 C   0  0  0  0  0  0  0  0  0  0  0  0
   17.0943   20.2215   17.6476 C   0  0  0  0  0  0  0  0  0  0  0  0
   16.6997   21.4294   18.1713 C   0  0  0  0  0  0  0  0  0  0  0  0
   18.3866   20.1255   17.1668 C   0  0  0  0  0  0  0  0  0  0  0  0
   19.2577   21.1794   17.2007 C   0  0  0  0  0  0  0  0  0  0  0  0
   18.8159   22.3951   17.7437 C   0  0  0  0  0  0  0  0  0  0  0  0
   19.7374   23.3817   17.7299 F   0  0  0  0  0  0  0  0  0  0  0  0
   17.5511   22.5382   18.2298 C   0  0  0  0  0  0  0  0  0  0  0  0
   17.0747   23.7789   18.8049 C   0  0  0  0  0  0  0  0  0  0  0  0
   17.3878   24.8977   18.2445 O   0  0  0  0  0  0  0  0  0  0  0  0
   16.2728   23.9216   19.9543 N   0  0  0  0  0  0  0  0  0  0  0  0
   15.5992   25.1289   20.2355 N   0  0  0  0  0  0  0  0  0  0  0  0
   14.4363   24.7734   21.4501 S   0  0  2  0  0  6  0  0  0  0  0  0
   13.5729   23.6328   20.9766 O   0  0  0  0  0  0  0  0  0  0  0  0
   13.5175   25.9524   21.7063 O   0  0  0  0  0  0  0  0  0  0  0  0
   15.1653   24.3660   22.9768 C   0  0  0  0  0  0  0  0  0  0  0  0
   14.4804   23.5975   23.8879 C   0  0  0  0  0  0  0  0  0  0  0  0
   15.0843   23.2842   25.1065 C   0  0  0  0  0  0  0  0  0  0  0  0
   16.3467   23.7094   25.4495 C   0  0  0  0  0  0  0  0  0  0  0  0
   17.0289   24.4820   24.5272 C   0  0  0  0  0  0  0  0  0  0  0  0
   16.4409   24.7959   23.3230 C   0  0  0  0  0  0  0  0  0  0  0  0
  1  2  2  0
  1  6  1  0
  2  3  1  0
  3  4  2  0
  4  5  1  0
  5  6  2  0
  6  7  1  0
  7  8  2  0
  7  9  1  0
  8 13  1  0
  9 10  2  0
 10 11  1  0
 11 12  1  0
 11 13  2  0
 13 14  1  0
 14 15  2  0
 14 16  1  0
 16 17  1  0
 18 17  1  6
 18 19  2  0
 18 20  2  0
 18 21  1  0
 21 22  2  0
 21 26  1  0
 22 23  1  0
 23 24  2  0
 24 25  1  0
 25 26  2  0
M  END
$$$$
