
     RDKit          3D

 26 28  0  0  0  0  0  0  0  0999 V2000
   20.0845   20.8371   19.5909 C   0  0  0  0  0  0  0  0  0  0  0  0
   21.1108   20.1695   20.2325 C   0  0  0  0  0  0  0  0  0  0  0  0
   21.7325   19.0784   19.6527 C   0  0  0  0  0  0  0  0  0  0  0  0
   21.2958   18.6755   18.4108 C   0  0  0  0  0  0  0  0  0  0  0  0
   20.2587   19.3527   17.7660 C   0  0  0  0  0  0  0  0  0  0  0  0
   19.6384   20.4353   18.3355 C   0  0  0  0  0  0  0  0  0  0  0  0
   18.5373   21.1762   17.7038 C   0  0  0  0  0  0  0  0  0  0  0  0
   17.4514   21.5800   18.4433 C   0  0  0  0  0  0  0  0  0  0  0  0
   18.5502   21.4986   16.3598 C   0  0  0  0  0  0  0  0  0  0  0  0
   17.5321   22.1929   15.7664 C   0  0  0  0  0  0  0  0  0  0  0  0
   16.4420   22.5870   16.5564 C   0  0  0  0  0  0  0  0  0  0  0  0
   15.4810   23.2597   15.8880 F   0  0  0  0  0  0  0  0  0  0  0  0
   16.3841   22.2923   17.8854 C   0  0  0  0  0  0  0  0  0  0  0  0
   15.2753   22.6971   18.7243 C   0  0  0  0  0  0  0  0  0  0  0  0
   14.0931   22.7785   18.2150 O   0  0  0  0  0  0  0  0  0  0  0  0
   15.3308   23.0274   20.0926 N   0  0  0  0  0  0  0  0  0  0  0  0
   14.2023   23.5300   20.7739 N   0  0  0  0  0  0  0  0  0  0  0  0
   14.6461   23.6678   22.4286 S   0  0  2  0  0  6  0  0  0  0  0  0
   15.0043   22.3004   22.9507 O   0  0  0  0  0  0  0  0  0  0  0  0
   13.4972   24.1818   23.2744 O   0  0  0  0  0  0  0  0  0  0  0  0
   15.9778   24.7603   22.6762 C   0  0  0  0  0  0  0  0  0  0  0  0
   15.7751   26.1194   22.6352 C   0  0  0  0  0  0  0  0  0  0  0  0
   16.8581   26.9767   22.8353 C   0  0  0  0  0  0  0  0  0  0  0  0
   18.1360   26.5279   23.0750 C   0  0  0  0  0  0  0  0  0  0  0  0
   18.3313   25.1592   23.1147 C   0  0  0  0  0  0  0  0  0  0  0  0
   17.2689   24.3064   22.9184 C   0  0  0  0  0  0  0  0  0  0  0  0
  1  2  2  0
  1  6  1  0
  2  3  1  0
  3  4  2  0
  4  5  1  0
  5  6  2  0
  6  7  1  0
  7  8  2  0
  7  9  1  0
  8 13  1  0
  9 10  2  0
 10 11  1  0
 11 12  1  0
 11 13  2  0
 13 14  1  0
 14 15  2  0
 14 16  1  0
 16 17  1  0
 18 17  1  6
 18 19  2  0
 18 20  2  0
 18 21  1  0
 21 22  2  0
 21 26  1  0
 22 23  1  0
 23 24  2  0
 24 25  1  0
 25 26  2  0
M  END
$$$$
