
     RDKit          3D

 26 28  0  0  0  0  0  0  0  0999 V2000
   21.5702   26.1309   25.8173 C   0  0  0  0  0  0  0  0  0  0  0  0
   22.4444   26.2608   26.8801 C   0  0  0  0  0  0  0  0  0  0  0  0
   23.0306   27.4759   27.1851 C   0  0  0  0  0  0  0  0  0  0  0  0
   22.7153   28.5575   26.3940 C   0  0  0  0  0  0  0  0  0  0  0  0
   21.8316   28.4221   25.3212 C   0  0  0  0  0  0  0  0  0  0  0  0
   21.2471   27.2200   25.0137 C   0  0  0  0  0  0  0  0  0  0  0  0
   20.3189   27.0224   23.8913 C   0  0  0  0  0  0  0  0  0  0  0  0
   19.2109   26.2216   24.0330 C   0  0  0  0  0  0  0  0  0  0  0  0
   20.5155   27.6296   22.6653 C   0  0  0  0  0  0  0  0  0  0  0  0
   19.6530   27.4551   21.6182 C   0  0  0  0  0  0  0  0  0  0  0  0
   18.5337   26.6301   21.8040 C   0  0  0  0  0  0  0  0  0  0  0  0
   17.7418   26.5085   20.7174 F   0  0  0  0  0  0  0  0  0  0  0  0
   18.2978   26.0100   22.9941 C   0  0  0  0  0  0  0  0  0  0  0  0
   17.1444   25.1625   23.2143 C   0  0  0  0  0  0  0  0  0  0  0  0
   16.6979   25.0004   24.4135 O   0  0  0  0  0  0  0  0  0  0  0  0
   16.4149   24.4610   22.2344 N   0  0  0  0  0  0  0  0  0  0  0  0
   15.5833   23.3736   22.5751 N   0  0  0  0  0  0  0  0  0  0  0  0
   14.1086   23.5936   21.7201 S   0  0  2  0  0  6  0  0  0  0  0  0
   13.2267   22.3950   21.9570 O   0  0  0  0  0  0  0  0  0  0  0  0
   14.3389   23.6901   20.2244 O   0  0  0  0  0  0  0  0  0  0  0  0
   13.2707   25.0439   22.1921 C   0  0  0  0  0  0  0  0  0  0  0  0
   12.6905   25.1349   23.4351 C   0  0  0  0  0  0  0  0  0  0  0  0
   12.0225   26.3072   23.7917 C   0  0  0  0  0  0  0  0  0  0  0  0
   11.9121   27.3924   22.9537 C   0  0  0  0  0  0  0  0  0  0  0  0
   12.4986   27.2927   21.7051 C   0  0  0  0  0  0  0  0  0  0  0  0
   13.1594   26.1402   21.3451 C   0  0  0  0  0  0  0  0  0  0  0  0
  1  2  2  0
  1  6  1  0
  2  3  1  0
  3  4  2  0
  4  5  1  0
  5  6  2  0
  6  7  1  0
  7  8  2  0
  7  9  1  0
  8 13  1  0
  9 10  2  0
 10 11  1  0
 11 12  1  0
 11 13  2  0
 13 14  1  0
 14 15  2  0
 14 16  1  0
 16 17  1  0
 18 17  1  1
 18 19  2  0
 18 20  2  0
 18 21  1  0
 21 22  2  0
 21 26  1  0
 22 23  1  0
 23 24  2  0
 24 25  1  0
 25 26  2  0
M  END
$$$$
