
     RDKit          3D

 26 28  0  0  0  0  0  0  0  0999 V2000
   18.8234   25.4074   14.9463 C   0  0  0  0  0  0  0  0  0  0  0  0
   19.9420   25.9817   14.3722 C   0  0  0  0  0  0  0  0  0  0  0  0
   19.9095   26.4917   13.0869 C   0  0  0  0  0  0  0  0  0  0  0  0
   18.7230   26.4097   12.3933 C   0  0  0  0  0  0  0  0  0  0  0  0
   17.5953   25.8289   12.9770 C   0  0  0  0  0  0  0  0  0  0  0  0
   17.6211   25.3215   14.2510 C   0  0  0  0  0  0  0  0  0  0  0  0
   16.4660   24.6923   14.9071 C   0  0  0  0  0  0  0  0  0  0  0  0
   16.6402   23.8838   16.0048 C   0  0  0  0  0  0  0  0  0  0  0  0
   15.1739   24.8894   14.4576 C   0  0  0  0  0  0  0  0  0  0  0  0
   14.0938   24.3121   15.0666 C   0  0  0  0  0  0  0  0  0  0  0  0
   14.3145   23.4939   16.1845 C   0  0  0  0  0  0  0  0  0  0  0  0
   13.1945   22.9601   16.7169 F   0  0  0  0  0  0  0  0  0  0  0  0
   15.5698   23.2697   16.6643 C   0  0  0  0  0  0  0  0  0  0  0  0
   15.8229   22.4383   17.8226 C   0  0  0  0  0  0  0  0  0  0  0  0
   15.4226   21.2121   17.8212 O   0  0  0  0  0  0  0  0  0  0  0  0
   16.4843   22.8209   19.0061 N   0  0  0  0  0  0  0  0  0  0  0  0
   16.5988   21.9399   20.1020 N   0  0  0  0  0  0  0  0  0  0  0  0
   17.6149   22.7133   21.2524 S   0  0  2  0  0  6  0  0  0  0  0  0
   18.8551   23.2049   20.5517 O   0  0  0  0  0  0  0  0  0  0  0  0
   18.0653   21.7522   22.3356 O   0  0  0  0  0  0  0  0  0  0  0  0
   16.8275   24.0404   22.0566 C   0  0  0  0  0  0  0  0  0  0  0  0
   15.8454   23.8009   22.9884 C   0  0  0  0  0  0  0  0  0  0  0  0
   15.2266   24.8808   23.6199 C   0  0  0  0  0  0  0  0  0  0  0  0
   15.5517   26.1910   23.3561 C   0  0  0  0  0  0  0  0  0  0  0  0
   16.5407   26.4233   22.4175 C   0  0  0  0  0  0  0  0  0  0  0  0
   17.1562   25.3642   21.7898 C   0  0  0  0  0  0  0  0  0  0  0  0
  1  2  2  0
  1  6  1  0
  2  3  1  0
  3  4  2  0
  4  5  1  0
  5  6  2  0
  6  7  1  0
  7  8  2  0
  7  9  1  0
  8 13  1  0
  9 10  2  0
 10 11  1  0
 11 12  1  0
 11 13  2  0
 13 14  1  0
 14 15  2  0
 14 16  1  0
 16 17  1  0
 18 17  1  6
 18 19  2  0
 18 20  2  0
 18 21  1  0
 21 22  2  0
 21 26  1  0
 22 23  1  0
 23 24  2  0
 24 25  1  0
 25 26  2  0
M  END
$$$$
