
     RDKit          3D

 26 28  0  0  0  0  0  0  0  0999 V2000
   11.6545   21.0351   19.5381 C   0  0  0  0  0  0  0  0  0  0  0  0
   10.4714   20.3296   19.6528 C   0  0  0  0  0  0  0  0  0  0  0  0
   10.3069   19.0972   19.0469 C   0  0  0  0  0  0  0  0  0  0  0  0
   11.3629   18.5919   18.3223 C   0  0  0  0  0  0  0  0  0  0  0  0
   12.5565   19.3078   18.2089 C   0  0  0  0  0  0  0  0  0  0  0  0
   12.7258   20.5301   18.8074 C   0  0  0  0  0  0  0  0  0  0  0  0
   13.9569   21.3273   18.7112 C   0  0  0  0  0  0  0  0  0  0  0  0
   14.3093   22.1937   19.7182 C   0  0  0  0  0  0  0  0  0  0  0  0
   14.8029   21.2361   17.6220 C   0  0  0  0  0  0  0  0  0  0  0  0
   15.9531   21.9703   17.5282 C   0  0  0  0  0  0  0  0  0  0  0  0
   16.2770   22.8428   18.5778 C   0  0  0  0  0  0  0  0  0  0  0  0
   17.4238   23.5323   18.3984 F   0  0  0  0  0  0  0  0  0  0  0  0
   15.4744   22.9672   19.6718 C   0  0  0  0  0  0  0  0  0  0  0  0
   15.7920   23.8526   20.7728 C   0  0  0  0  0  0  0  0  0  0  0  0
   16.1180   25.0761   20.5274 O   0  0  0  0  0  0  0  0  0  0  0  0
   15.7876   23.5275   22.1435 N   0  0  0  0  0  0  0  0  0  0  0  0
   15.7838   24.5295   23.1367 N   0  0  0  0  0  0  0  0  0  0  0  0
   17.2785   24.3987   23.9749 S   0  0  2  0  0  6  0  0  0  0  0  0
   17.6731   22.9458   24.0399 O   0  0  0  0  0  0  0  0  0  0  0  0
   17.1633   24.8944   25.4035 O   0  0  0  0  0  0  0  0  0  0  0  0
   18.5496   25.3213   23.2259 C   0  0  0  0  0  0  0  0  0  0  0  0
   18.3127   26.6063   22.7982 C   0  0  0  0  0  0  0  0  0  0  0  0
   19.3467   27.3271   22.1990 C   0  0  0  0  0  0  0  0  0  0  0  0
   20.6086   26.8131   22.0108 C   0  0  0  0  0  0  0  0  0  0  0  0
   20.8386   25.5198   22.4439 C   0  0  0  0  0  0  0  0  0  0  0  0
   19.8246   24.8016   23.0359 C   0  0  0  0  0  0  0  0  0  0  0  0
  1  2  2  0
  1  6  1  0
  2  3  1  0
  3  4  2  0
  4  5  1  0
  5  6  2  0
  6  7  1  0
  7  8  2  0
  7  9  1  0
  8 13  1  0
  9 10  2  0
 10 11  1  0
 11 12  1  0
 11 13  2  0
 13 14  1  0
 14 15  2  0
 14 16  1  0
 16 17  1  0
 18 17  1  6
 18 19  2  0
 18 20  2  0
 18 21  1  0
 21 22  2  0
 21 26  1  0
 22 23  1  0
 23 24  2  0
 24 25  1  0
 25 26  2  0
M  END
$$$$
