
     RDKit          3D

 26 28  0  0  0  0  0  0  0  0999 V2000
   16.3107   21.3274   17.5143 C   0  0  0  0  0  0  0  0  0  0  0  0
   16.6155   20.6970   16.3225 C   0  0  0  0  0  0  0  0  0  0  0  0
   17.9232   20.5683   15.8906 C   0  0  0  0  0  0  0  0  0  0  0  0
   18.9171   21.0898   16.6879 C   0  0  0  0  0  0  0  0  0  0  0  0
   18.6049   21.7258   17.8912 C   0  0  0  0  0  0  0  0  0  0  0  0
   17.3104   21.8565   18.3250 C   0  0  0  0  0  0  0  0  0  0  0  0
   16.9282   22.5245   19.5773 C   0  0  0  0  0  0  0  0  0  0  0  0
   17.5242   23.7056   19.9498 C   0  0  0  0  0  0  0  0  0  0  0  0
   15.9628   22.0033   20.4180 C   0  0  0  0  0  0  0  0  0  0  0  0
   15.5978   22.6223   21.5818 C   0  0  0  0  0  0  0  0  0  0  0  0
   16.2300   23.8265   21.9257 C   0  0  0  0  0  0  0  0  0  0  0  0
   15.8143   24.3632   23.0926 F   0  0  0  0  0  0  0  0  0  0  0  0
   17.1875   24.3790   21.1292 C   0  0  0  0  0  0  0  0  0  0  0  0
   17.8470   25.6260   21.4565 C   0  0  0  0  0  0  0  0  0  0  0  0
   18.8991   25.9773   20.7983 O   0  0  0  0  0  0  0  0  0  0  0  0
   17.4627   26.5466   22.4512 N   0  0  0  0  0  0  0  0  0  0  0  0
   18.1104   27.7922   22.5898 N   0  0  0  0  0  0  0  0  0  0  0  0
   18.1365   28.1501   24.2706 S   0  0  2  0  0  6  0  0  0  0  0  0
   16.7837   27.8354   24.8551 O   0  0  0  0  0  0  0  0  0  0  0  0
   18.4014   29.6215   24.5246 O   0  0  0  0  0  0  0  0  0  0  0  0
   19.3675   27.2653   25.1249 C   0  0  0  0  0  0  0  0  0  0  0  0
   20.6957   27.5578   24.9242 C   0  0  0  0  0  0  0  0  0  0  0  0
   21.6659   26.8343   25.6193 C   0  0  0  0  0  0  0  0  0  0  0  0
   21.3597   25.8295   26.5074 C   0  0  0  0  0  0  0  0  0  0  0  0
   20.0211   25.5416   26.7036 C   0  0  0  0  0  0  0  0  0  0  0  0
   19.0577   26.2501   26.0222 C   0  0  0  0  0  0  0  0  0  0  0  0
  1  2  2  0
  1  6  1  0
  2  3  1  0
  3  4  2  0
  4  5  1  0
  5  6  2  0
  6  7  1  0
  7  8  2  0
  7  9  1  0
  8 13  1  0
  9 10  2  0
 10 11  1  0
 11 12  1  0
 11 13  2  0
 13 14  1  0
 14 15  2  0
 14 16  1  0
 16 17  1  0
 18 17  1  6
 18 19  2  0
 18 20  2  0
 18 21  1  0
 21 22  2  0
 21 26  1  0
 22 23  1  0
 23 24  2  0
 24 25  1  0
 25 26  2  0
M  END
$$$$
