
     RDKit          3D

 26 28  0  0  0  0  0  0  0  0999 V2000
   15.6330   21.6454   15.9264 C   0  0  0  0  0  0  0  0  0  0  0  0
   14.3866   21.7151   15.3327 C   0  0  0  0  0  0  0  0  0  0  0  0
   13.2439   21.9294   16.0820 C   0  0  0  0  0  0  0  0  0  0  0  0
   13.3863   22.0719   17.4439 C   0  0  0  0  0  0  0  0  0  0  0  0
   14.6472   22.0008   18.0397 C   0  0  0  0  0  0  0  0  0  0  0  0
   15.7840   21.7887   17.3023 C   0  0  0  0  0  0  0  0  0  0  0  0
   17.1320   21.6964   17.8809 C   0  0  0  0  0  0  0  0  0  0  0  0
   17.5143   22.5356   18.9001 C   0  0  0  0  0  0  0  0  0  0  0  0
   18.0566   20.7710   17.4348 C   0  0  0  0  0  0  0  0  0  0  0  0
   19.3107   20.6753   17.9724 C   0  0  0  0  0  0  0  0  0  0  0  0
   19.6615   21.5501   19.0114 C   0  0  0  0  0  0  0  0  0  0  0  0
   20.9189   21.3908   19.4763 F   0  0  0  0  0  0  0  0  0  0  0  0
   18.7843   22.4791   19.4847 C   0  0  0  0  0  0  0  0  0  0  0  0
   19.1185   23.3860   20.5631 C   0  0  0  0  0  0  0  0  0  0  0  0
   20.1048   23.1036   21.3448 O   0  0  0  0  0  0  0  0  0  0  0  0
   18.4696   24.5961   20.8780 N   0  0  0  0  0  0  0  0  0  0  0  0
   19.0842   25.5693   21.6937 N   0  0  0  0  0  0  0  0  0  0  0  0
   17.8537   26.2123   22.7067 S   0  0  2  0  0  6  0  0  0  0  0  0
   16.6644   26.5750   21.8554 O   0  0  0  0  0  0  0  0  0  0  0  0
   18.3085   27.4808   23.4022 O   0  0  0  0  0  0  0  0  0  0  0  0
   17.3673   25.1033   23.9563 C   0  0  0  0  0  0  0  0  0  0  0  0
   18.0570   25.0532   25.1445 C   0  0  0  0  0  0  0  0  0  0  0  0
   17.6499   24.1550   26.1321 C   0  0  0  0  0  0  0  0  0  0  0  0
   16.5795   23.3049   25.9779 C   0  0  0  0  0  0  0  0  0  0  0  0
   15.8910   23.3616   24.7797 C   0  0  0  0  0  0  0  0  0  0  0  0
   16.2857   24.2444   23.8002 C   0  0  0  0  0  0  0  0  0  0  0  0
  1  2  2  0
  1  6  1  0
  2  3  1  0
  3  4  2  0
  4  5  1  0
  5  6  2  0
  6  7  1  0
  7  8  2  0
  7  9  1  0
  8 13  1  0
  9 10  2  0
 10 11  1  0
 11 12  1  0
 11 13  2  0
 13 14  1  0
 14 15  2  0
 14 16  1  0
 16 17  1  0
 18 17  1  6
 18 19  2  0
 18 20  2  0
 18 21  1  0
 21 22  2  0
 21 26  1  0
 22 23  1  0
 23 24  2  0
 24 25  1  0
 25 26  2  0
M  END
$$$$
