
     RDKit          3D

 26 28  0  0  0  0  0  0  0  0999 V2000
   12.9871   12.1810   10.6920 C   0  0  0  0  0  0  0  0  0  0  0  0
   13.5572   11.0951   10.0544 C   0  0  0  0  0  0  0  0  0  0  0  0
   14.1229   11.2140    8.7979 C   0  0  0  0  0  0  0  0  0  0  0  0
   14.1009   12.4532    8.1985 C   0  0  0  0  0  0  0  0  0  0  0  0
   13.5240   13.5477    8.8460 C   0  0  0  0  0  0  0  0  0  0  0  0
   12.9615   13.4362   10.0919 C   0  0  0  0  0  0  0  0  0  0  0  0
   12.3340   14.5535   10.8118 C   0  0  0  0  0  0  0  0  0  0  0  0
   11.2470   14.3388   11.6250 C   0  0  0  0  0  0  0  0  0  0  0  0
   12.8076   15.8478   10.7072 C   0  0  0  0  0  0  0  0  0  0  0  0
   12.2324   16.8915   11.3786 C   0  0  0  0  0  0  0  0  0  0  0  0
   11.1249   16.6299   12.1988 C   0  0  0  0  0  0  0  0  0  0  0  0
   10.6168   17.7177   12.8164 F   0  0  0  0  0  0  0  0  0  0  0  0
   10.6220   15.3708   12.3336 C   0  0  0  0  0  0  0  0  0  0  0  0
    9.4868   15.0733   13.1821 C   0  0  0  0  0  0  0  0  0  0  0  0
    9.4025   15.6275   14.3437 O   0  0  0  0  0  0  0  0  0  0  0  0
    8.4121   14.2138   12.8809 N   0  0  0  0  0  0  0  0  0  0  0  0
    8.2458   12.9826   13.5493 N   0  0  0  0  0  0  0  0  0  0  0  0
    6.8392   13.1370   14.5247 S   0  0  2  0  0  6  0  0  0  0  0  0
    7.1554   14.0332   15.6942 O   0  0  0  0  0  0  0  0  0  0  0  0
    6.4029   11.7999   15.0919 O   0  0  0  0  0  0  0  0  0  0  0  0
    5.4803   13.7747   13.6445 C   0  0  0  0  0  0  0  0  0  0  0  0
    5.3206   13.4824   12.3107 C   0  0  0  0  0  0  0  0  0  0  0  0
    4.2238   14.0059   11.6244 C   0  0  0  0  0  0  0  0  0  0  0  0
    3.2803   14.8103   12.2201 C   0  0  0  0  0  0  0  0  0  0  0  0
    3.4483   15.0994   13.5622 C   0  0  0  0  0  0  0  0  0  0  0  0
    4.5271   14.5874   14.2467 C   0  0  0  0  0  0  0  0  0  0  0  0
  1  2  2  0
  1  6  1  0
  2  3  1  0
  3  4  2  0
  4  5  1  0
  5  6  2  0
  6  7  1  0
  7  8  2  0
  7  9  1  0
  8 13  1  0
  9 10  2  0
 10 11  1  0
 11 12  1  0
 11 13  2  0
 13 14  1  0
 14 15  2  0
 14 16  1  0
 16 17  1  0
 18 17  1  6
 18 19  2  0
 18 20  2  0
 18 21  1  0
 21 22  2  0
 21 26  1  0
 22 23  1  0
 23 24  2  0
 24 25  1  0
 25 26  2  0
M  END
$$$$
