
     RDKit          3D

 23 24  0  0  0  0  0  0  0  0999 V2000
   -7.2711  -33.2602  -15.1752 C   0  0  1  0  0  0  0  0  0  0  0  0
   -8.0420  -31.9851  -14.8882 C   0  0  1  0  0  0  0  0  0  0  0  0
   -7.5531  -31.2834  -13.6547 C   0  0  2  0  0  0  0  0  0  0  0  0
   -6.7132  -32.1326  -12.7615 C   0  0  1  0  0  0  0  0  0  0  0  0
   -5.7021  -32.9703  -13.4952 C   0  0  1  0  0  0  0  0  0  0  0  0
   -5.6228  -34.3092  -12.7809 C   0  0  0  0  0  0  0  0  0  0  0  0
   -7.3004  -33.3961  -16.5577 O   0  0  0  0  0  0  0  0  0  0  0  0
   -7.8985  -31.0872  -15.9560 O   0  0  0  0  0  0  0  0  0  0  0  0
   -8.6954  -30.8930  -12.9223 O   0  0  0  0  0  0  0  0  0  0  0  0
   -6.0923  -31.2930  -11.8304 O   0  0  0  0  0  0  0  0  0  0  0  0
   -5.9289  -33.0902  -14.8340 O   0  0  0  0  0  0  0  0  0  0  0  0
   -6.3959  -34.3108  -11.6114 O   0  0  0  0  0  0  0  0  0  0  0  0
   -6.2296  -33.7465  -19.2696 C   0  0  1  0  0  0  0  0  0  0  0  0
   -7.3874  -34.6798  -19.4705 C   0  0  1  0  0  0  0  0  0  0  0  0
   -8.1075  -34.9042  -18.1752 C   0  0  2  0  0  0  0  0  0  0  0  0
   -7.2100  -34.7026  -16.9950 C   0  0  1  0  0  0  0  0  0  0  0  0
   -5.7427  -34.9111  -17.3260 C   0  0  1  0  0  0  0  0  0  0  0  0
   -5.3928  -36.3756  -17.4529 C   0  0  0  0  0  0  0  0  0  0  0  0
   -6.6999  -32.4742  -18.9549 O   0  0  0  0  0  0  0  0  0  0  0  0
   -8.2623  -34.0428  -20.3810 O   0  0  0  0  0  0  0  0  0  0  0  0
   -8.6584  -36.1968  -18.2201 O   0  0  0  0  0  0  0  0  0  0  0  0
   -5.3014  -34.1536  -18.3707 O   0  0  0  0  0  0  0  0  0  0  0  0
   -3.9833  -36.4459  -17.3476 O   0  0  0  0  0  0  0  0  0  0  0  0
  1  2  1  0
  1  7  1  6
  1 11  1  0
  2  3  1  0
  2  8  1  6
  3  4  1  0
  3  9  1  1
  5  4  1  0
  4 10  1  1
  5  6  1  1
 11  5  1  0
  6 12  1  0
 16  7  1  6
 13 14  1  0
 13 19  1  1
 22 13  1  0
 15 14  1  0
 14 20  1  6
 16 15  1  0
 15 21  1  6
 17 16  1  0
 17 18  1  6
 17 22  1  0
 23 18  1  0
M  END
$$$$
