
     RDKit          3D

 23 24  0  0  0  0  0  0  0  0999 V2000
   -6.9404  -32.7130  -14.5367 C   0  0  1  0  0  0  0  0  0  0  0  0
   -8.0557  -31.6971  -14.3746 C   0  0  1  0  0  0  0  0  0  0  0  0
   -7.5987  -30.4483  -13.6784 C   0  0  2  0  0  0  0  0  0  0  0  0
   -6.3032  -30.5924  -12.9538 C   0  0  1  0  0  0  0  0  0  0  0  0
   -5.2552  -31.3442  -13.7277 C   0  0  1  0  0  0  0  0  0  0  0  0
   -4.4851  -32.1964  -12.7328 C   0  0  0  0  0  0  0  0  0  0  0  0
   -7.2485  -33.4041  -15.7022 O   0  0  0  0  0  0  0  0  0  0  0  0
   -8.5407  -31.3122  -15.6330 O   0  0  0  0  0  0  0  0  0  0  0  0
   -8.5875  -30.1225  -12.7247 O   0  0  0  0  0  0  0  0  0  0  0  0
   -5.8567  -29.3109  -12.6137 O   0  0  0  0  0  0  0  0  0  0  0  0
   -5.7341  -32.0577  -14.7859 O   0  0  0  0  0  0  0  0  0  0  0  0
   -3.3847  -32.8196  -13.3382 O   0  0  0  0  0  0  0  0  0  0  0  0
   -7.3113  -34.4971  -18.4271 C   0  0  1  0  0  0  0  0  0  0  0  0
   -7.5124  -35.8238  -17.7553 C   0  0  1  0  0  0  0  0  0  0  0  0
   -7.3561  -35.6860  -16.2710 C   0  0  2  0  0  0  0  0  0  0  0  0
   -6.4773  -34.5309  -15.9067 C   0  0  1  0  0  0  0  0  0  0  0  0
   -5.5076  -34.1544  -17.0128 C   0  0  1  0  0  0  0  0  0  0  0  0
   -4.3491  -35.1203  -17.1042 C   0  0  0  0  0  0  0  0  0  0  0  0
   -8.3509  -33.6352  -18.0871 O   0  0  0  0  0  0  0  0  0  0  0  0
   -8.8379  -36.2229  -18.0450 O   0  0  0  0  0  0  0  0  0  0  0  0
   -6.8666  -36.9111  -15.7852 O   0  0  0  0  0  0  0  0  0  0  0  0
   -6.1090  -33.9108  -18.2124 O   0  0  0  0  0  0  0  0  0  0  0  0
   -3.2027  -34.3260  -17.3441 O   0  0  0  0  0  0  0  0  0  0  0  0
  1  2  1  0
  1  7  1  6
  1 11  1  0
  2  3  1  0
  2  8  1  6
  3  4  1  0
  3  9  1  1
  5  4  1  0
  4 10  1  6
  5  6  1  1
 11  5  1  0
  6 12  1  0
 16  7  1  6
 13 14  1  0
 13 19  1  1
 22 13  1  0
 15 14  1  0
 14 20  1  1
 16 15  1  0
 15 21  1  6
 17 16  1  0
 17 18  1  6
 17 22  1  0
 23 18  1  0
M  END
$$$$
