
     RDKit          3D

 23 24  0  0  0  0  0  0  0  0999 V2000
   -6.9312  -33.4556  -15.1675 C   0  0  1  0  0  0  0  0  0  0  0  0
   -7.1296  -32.8886  -13.7741 C   0  0  1  0  0  0  0  0  0  0  0  0
   -6.8196  -33.8876  -12.6977 C   0  0  2  0  0  0  0  0  0  0  0  0
   -6.7656  -35.3003  -13.1728 C   0  0  1  0  0  0  0  0  0  0  0  0
   -6.0320  -35.4752  -14.4742 C   0  0  1  0  0  0  0  0  0  0  0  0
   -6.7704  -36.5401  -15.2681 C   0  0  0  0  0  0  0  0  0  0  0  0
   -6.5633  -32.3683  -15.9505 O   0  0  0  0  0  0  0  0  0  0  0  0
   -6.2767  -31.7930  -13.5762 O   0  0  0  0  0  0  0  0  0  0  0  0
   -7.8546  -33.7980  -11.7415 O   0  0  0  0  0  0  0  0  0  0  0  0
   -6.1867  -36.0721  -12.1597 O   0  0  0  0  0  0  0  0  0  0  0  0
   -5.8381  -34.3227  -15.1757 O   0  0  0  0  0  0  0  0  0  0  0  0
   -6.0793  -37.7598  -15.2526 O   0  0  0  0  0  0  0  0  0  0  0  0
   -4.9637  -30.7640  -17.8190 C   0  0  1  0  0  0  0  0  0  0  0  0
   -6.2832  -30.3793  -18.4214 C   0  0  1  0  0  0  0  0  0  0  0  0
   -7.3906  -31.1818  -17.8079 C   0  0  2  0  0  0  0  0  0  0  0  0
   -6.9036  -32.4955  -17.2825 C   0  0  1  0  0  0  0  0  0  0  0  0
   -5.6390  -32.9757  -17.9725 C   0  0  1  0  0  0  0  0  0  0  0  0
   -5.9204  -33.5309  -19.3494 C   0  0  0  0  0  0  0  0  0  0  0  0
   -4.9240  -30.3719  -16.4834 O   0  0  0  0  0  0  0  0  0  0  0  0
   -6.4797  -29.0124  -18.1165 O   0  0  0  0  0  0  0  0  0  0  0  0
   -8.3925  -31.3281  -18.7831 O   0  0  0  0  0  0  0  0  0  0  0  0
   -4.6211  -32.0682  -17.9491 O   0  0  0  0  0  0  0  0  0  0  0  0
   -5.0917  -34.6703  -19.4826 O   0  0  0  0  0  0  0  0  0  0  0  0
  1  2  1  0
  1  7  1  6
  1 11  1  0
  2  3  1  0
  2  8  1  1
  3  4  1  0
  3  9  1  1
  5  4  1  0
  4 10  1  1
  5  6  1  6
 11  5  1  0
  6 12  1  0
 16  7  1  1
 13 14  1  0
 13 19  1  1
 22 13  1  0
 15 14  1  0
 14 20  1  1
 16 15  1  0
 15 21  1  6
 17 16  1  0
 17 18  1  6
 17 22  1  0
 23 18  1  0
M  END
$$$$
