
     RDKit          3D

 23 24  0  0  0  0  0  0  0  0999 V2000
   -7.4836  -32.7295  -15.4639 C   0  0  1  0  0  0  0  0  0  0  0  0
   -7.7329  -31.2331  -15.4336 C   0  0  1  0  0  0  0  0  0  0  0  0
   -7.7854  -30.6875  -14.0362 C   0  0  2  0  0  0  0  0  0  0  0  0
   -7.9753  -31.7254  -12.9822 C   0  0  1  0  0  0  0  0  0  0  0  0
   -7.1356  -32.9567  -13.1846 C   0  0  1  0  0  0  0  0  0  0  0  0
   -7.9771  -34.1502  -12.7643 C   0  0  0  0  0  0  0  0  0  0  0  0
   -6.7935  -32.9564  -16.6484 O   0  0  0  0  0  0  0  0  0  0  0  0
   -6.6973  -30.5607  -16.0988 O   0  0  0  0  0  0  0  0  0  0  0  0
   -8.8910  -29.8114  -13.9770 O   0  0  0  0  0  0  0  0  0  0  0  0
   -7.7106  -31.1323  -11.7431 O   0  0  0  0  0  0  0  0  0  0  0  0
   -6.6103  -33.0860  -14.4358 O   0  0  0  0  0  0  0  0  0  0  0  0
   -7.2370  -35.3399  -12.8140 O   0  0  0  0  0  0  0  0  0  0  0  0
   -4.9007  -33.6013  -18.7990 C   0  0  1  0  0  0  0  0  0  0  0  0
   -6.0467  -34.3518  -19.4116 C   0  0  1  0  0  0  0  0  0  0  0  0
   -7.2065  -34.3978  -18.4632 C   0  0  2  0  0  0  0  0  0  0  0  0
   -6.7673  -34.2808  -17.0375 C   0  0  1  0  0  0  0  0  0  0  0  0
   -5.3332  -34.7309  -16.8222 C   0  0  1  0  0  0  0  0  0  0  0  0
   -5.2043  -36.2365  -16.8302 C   0  0  0  0  0  0  0  0  0  0  0  0
   -5.2385  -32.2574  -18.6609 O   0  0  0  0  0  0  0  0  0  0  0  0
   -6.4246  -33.6317  -20.5687 O   0  0  0  0  0  0  0  0  0  0  0  0
   -7.9079  -35.5897  -18.7161 O   0  0  0  0  0  0  0  0  0  0  0  0
   -4.4322  -34.1033  -17.6312 O   0  0  0  0  0  0  0  0  0  0  0  0
   -4.0592  -36.5297  -16.0520 O   0  0  0  0  0  0  0  0  0  0  0  0
  1  2  1  0
  1  7  1  6
  1 11  1  0
  2  3  1  0
  2  8  1  6
  3  4  1  0
  3  9  1  6
  5  4  1  0
  4 10  1  1
  5  6  1  6
 11  5  1  0
  6 12  1  0
 16  7  1  6
 13 14  1  0
 13 19  1  1
 22 13  1  0
 15 14  1  0
 14 20  1  6
 16 15  1  0
 15 21  1  1
 17 16  1  0
 17 18  1  6
 17 22  1  0
 23 18  1  0
M  END
$$$$
