
     RDKit          3D

 23 24  0  0  0  0  0  0  0  0999 V2000
   -6.9500  -33.7681  -15.7962 C   0  0  1  0  0  0  0  0  0  0  0  0
   -8.0443  -34.7584  -15.4438 C   0  0  1  0  0  0  0  0  0  0  0  0
   -7.6175  -36.1829  -15.6474 C   0  0  2  0  0  0  0  0  0  0  0  0
   -6.4012  -36.3406  -16.4960 C   0  0  1  0  0  0  0  0  0  0  0  0
   -5.3081  -35.3574  -16.1787 C   0  0  1  0  0  0  0  0  0  0  0  0
   -4.6616  -34.9616  -17.4957 C   0  0  0  0  0  0  0  0  0  0  0  0
   -7.1674  -32.6782  -14.9621 O   0  0  0  0  0  0  0  0  0  0  0  0
   -8.3963  -34.6238  -14.0929 O   0  0  0  0  0  0  0  0  0  0  0  0
   -8.6817  -36.8430  -16.2996 O   0  0  0  0  0  0  0  0  0  0  0  0
   -5.9502  -37.6578  -16.3592 O   0  0  0  0  0  0  0  0  0  0  0  0
   -5.7062  -34.2868  -15.4347 O   0  0  0  0  0  0  0  0  0  0  0  0
   -5.3755  -35.4725  -18.5889 O   0  0  0  0  0  0  0  0  0  0  0  0
   -6.6088  -30.4395  -13.1455 C   0  0  1  0  0  0  0  0  0  0  0  0
   -7.6272  -29.6924  -13.9556 C   0  0  1  0  0  0  0  0  0  0  0  0
   -8.0363  -30.4985  -15.1512 C   0  0  2  0  0  0  0  0  0  0  0  0
   -6.9662  -31.4561  -15.5720 C   0  0  1  0  0  0  0  0  0  0  0  0
   -5.5781  -31.0185  -15.1389 C   0  0  1  0  0  0  0  0  0  0  0  0
   -5.0406  -29.9013  -16.0028 C   0  0  0  0  0  0  0  0  0  0  0  0
   -7.1968  -31.5639  -12.5716 O   0  0  0  0  0  0  0  0  0  0  0  0
   -8.7505  -29.5085  -13.1162 O   0  0  0  0  0  0  0  0  0  0  0  0
   -8.3814  -29.5929  -16.1695 O   0  0  0  0  0  0  0  0  0  0  0  0
   -5.4712  -30.7722  -13.8017 O   0  0  0  0  0  0  0  0  0  0  0  0
   -3.6429  -29.8814  -15.7819 O   0  0  0  0  0  0  0  0  0  0  0  0
  1  2  1  0
  1  7  1  1
  1 11  1  0
  2  3  1  0
  2  8  1  1
  3  4  1  0
  3  9  1  6
  5  4  1  0
  4 10  1  1
  5  6  1  6
 11  5  1  0
  6 12  1  0
 16  7  1  1
 13 14  1  0
 13 19  1  6
 22 13  1  0
 15 14  1  0
 14 20  1  1
 16 15  1  0
 15 21  1  6
 17 16  1  0
 17 18  1  6
 17 22  1  0
 23 18  1  0
M  END
$$$$
