
     RDKit          3D

 23 24  0  0  0  0  0  0  0  0999 V2000
   -7.1426  -33.7200  -15.2297 C   0  0  1  0  0  0  0  0  0  0  0  0
   -7.6844  -32.4212  -14.6623 C   0  0  1  0  0  0  0  0  0  0  0  0
   -6.9636  -31.9932  -13.4172 C   0  0  2  0  0  0  0  0  0  0  0  0
   -6.1596  -33.0729  -12.7754 C   0  0  1  0  0  0  0  0  0  0  0  0
   -5.3690  -33.9019  -13.7501 C   0  0  1  0  0  0  0  0  0  0  0  0
   -5.4034  -35.3373  -13.2526 C   0  0  0  0  0  0  0  0  0  0  0  0
   -7.3468  -33.6276  -16.6010 O   0  0  0  0  0  0  0  0  0  0  0  0
   -7.5343  -31.3887  -15.5996 O   0  0  0  0  0  0  0  0  0  0  0  0
   -7.9479  -31.5855  -12.4906 O   0  0  0  0  0  0  0  0  0  0  0  0
   -5.3233  -32.4779  -11.8247 O   0  0  0  0  0  0  0  0  0  0  0  0
   -5.7601  -33.7762  -15.0499 O   0  0  0  0  0  0  0  0  0  0  0  0
   -4.1146  -35.8106  -12.9689 O   0  0  0  0  0  0  0  0  0  0  0  0
   -6.6909  -33.3336  -19.4484 C   0  0  1  0  0  0  0  0  0  0  0  0
   -7.7025  -34.4208  -19.6644 C   0  0  1  0  0  0  0  0  0  0  0  0
   -8.1565  -34.9797  -18.3498 C   0  0  2  0  0  0  0  0  0  0  0  0
   -7.1222  -34.8072  -17.2824 C   0  0  1  0  0  0  0  0  0  0  0  0
   -5.7144  -34.6843  -17.8381 C   0  0  1  0  0  0  0  0  0  0  0  0
   -5.1613  -36.0189  -18.2812 C   0  0  0  0  0  0  0  0  0  0  0  0
   -7.3001  -32.2378  -18.8422 O   0  0  0  0  0  0  0  0  0  0  0  0
   -8.8043  -33.8193  -20.3158 O   0  0  0  0  0  0  0  0  0  0  0  0
   -8.4945  -36.3277  -18.5615 O   0  0  0  0  0  0  0  0  0  0  0  0
   -5.5757  -33.7004  -18.7723 O   0  0  0  0  0  0  0  0  0  0  0  0
   -3.7809  -35.8074  -18.5103 O   0  0  0  0  0  0  0  0  0  0  0  0
  1  2  1  0
  1  7  1  6
  1 11  1  0
  2  3  1  0
  2  8  1  6
  3  4  1  0
  3  9  1  1
  5  4  1  0
  4 10  1  1
  5  6  1  1
 11  5  1  0
  6 12  1  0
 16  7  1  6
 13 14  1  0
 13 19  1  1
 22 13  1  0
 15 14  1  0
 14 20  1  1
 16 15  1  0
 15 21  1  6
 17 16  1  0
 17 18  1  6
 17 22  1  0
 23 18  1  0
M  END
$$$$
