
     RDKit          3D

 23 24  0  0  0  0  0  0  0  0999 V2000
   -7.0680  -32.7519  -14.6972 C   0  0  1  0  0  0  0  0  0  0  0  0
   -8.0379  -31.5853  -14.7269 C   0  0  1  0  0  0  0  0  0  0  0  0
   -7.5751  -30.4317  -13.8855 C   0  0  2  0  0  0  0  0  0  0  0  0
   -6.5045  -30.7800  -12.9074 C   0  0  1  0  0  0  0  0  0  0  0  0
   -5.4278  -31.6635  -13.4752 C   0  0  1  0  0  0  0  0  0  0  0  0
   -5.0231  -32.6394  -12.3829 C   0  0  0  0  0  0  0  0  0  0  0  0
   -7.2054  -33.3670  -15.9355 O   0  0  0  0  0  0  0  0  0  0  0  0
   -8.1747  -31.1086  -16.0388 O   0  0  0  0  0  0  0  0  0  0  0  0
   -8.6942  -29.9817  -13.1516 O   0  0  0  0  0  0  0  0  0  0  0  0
   -5.9689  -29.5856  -12.4139 O   0  0  0  0  0  0  0  0  0  0  0  0
   -5.7568  -32.2776  -14.6468 O   0  0  0  0  0  0  0  0  0  0  0  0
   -4.0139  -32.1056  -11.5693 O   0  0  0  0  0  0  0  0  0  0  0  0
   -6.4764  -34.4405  -18.5698 C   0  0  1  0  0  0  0  0  0  0  0  0
   -7.3466  -35.6047  -18.1966 C   0  0  1  0  0  0  0  0  0  0  0  0
   -7.7844  -35.4917  -16.7675 C   0  0  2  0  0  0  0  0  0  0  0  0
   -6.8196  -34.6926  -15.9492 C   0  0  1  0  0  0  0  0  0  0  0  0
   -5.4147  -34.6926  -16.5253 C   0  0  1  0  0  0  0  0  0  0  0  0
   -4.6944  -35.9948  -16.2629 C   0  0  0  0  0  0  0  0  0  0  0  0
   -7.2311  -33.2703  -18.5711 O   0  0  0  0  0  0  0  0  0  0  0  0
   -8.4839  -35.5398  -19.0346 O   0  0  0  0  0  0  0  0  0  0  0  0
   -7.9562  -36.7980  -16.2770 O   0  0  0  0  0  0  0  0  0  0  0  0
   -5.3537  -34.2895  -17.8268 O   0  0  0  0  0  0  0  0  0  0  0  0
   -3.8916  -35.7681  -15.1197 O   0  0  0  0  0  0  0  0  0  0  0  0
  1  2  1  0
  1  7  1  6
  1 11  1  0
  2  3  1  0
  2  8  1  6
  3  4  1  0
  3  9  1  1
  5  4  1  0
  4 10  1  6
  5  6  1  1
 11  5  1  0
  6 12  1  0
 16  7  1  6
 13 14  1  0
 13 19  1  1
 22 13  1  0
 15 14  1  0
 14 20  1  6
 16 15  1  0
 15 21  1  1
 17 16  1  0
 17 18  1  6
 17 22  1  0
 23 18  1  0
M  END
$$$$
