
     RDKit          3D

 23 24  0  0  0  0  0  0  0  0999 V2000
   -6.9576  -33.7687  -15.2924 C   0  0  1  0  0  0  0  0  0  0  0  0
   -7.4032  -33.7067  -13.8433 C   0  0  1  0  0  0  0  0  0  0  0  0
   -7.1169  -34.9785  -13.0992 C   0  0  2  0  0  0  0  0  0  0  0  0
   -6.8302  -36.1488  -13.9780 C   0  0  1  0  0  0  0  0  0  0  0  0
   -5.9176  -35.8328  -15.1311 C   0  0  1  0  0  0  0  0  0  0  0  0
   -6.4114  -36.6287  -16.3277 C   0  0  0  0  0  0  0  0  0  0  0  0
   -6.6258  -32.4609  -15.6242 O   0  0  0  0  0  0  0  0  0  0  0  0
   -6.7229  -32.6778  -13.1758 O   0  0  0  0  0  0  0  0  0  0  0  0
   -8.2708  -35.2834  -12.3448 O   0  0  0  0  0  0  0  0  0  0  0  0
   -6.2987  -37.1662  -13.1781 O   0  0  0  0  0  0  0  0  0  0  0  0
   -5.7755  -34.5029  -15.3944 O   0  0  0  0  0  0  0  0  0  0  0  0
   -5.4278  -36.7180  -17.3228 O   0  0  0  0  0  0  0  0  0  0  0  0
   -5.4084  -29.9555  -16.5542 C   0  0  1  0  0  0  0  0  0  0  0  0
   -6.7569  -29.6667  -17.1458 C   0  0  1  0  0  0  0  0  0  0  0  0
   -7.6500  -30.8636  -17.0176 C   0  0  2  0  0  0  0  0  0  0  0  0
   -6.8691  -32.1380  -16.9443 C   0  0  1  0  0  0  0  0  0  0  0  0
   -5.4977  -32.0284  -17.5868 C   0  0  1  0  0  0  0  0  0  0  0  0
   -5.5744  -32.0594  -19.0956 C   0  0  0  0  0  0  0  0  0  0  0  0
   -5.5225  -30.1076  -15.1747 O   0  0  0  0  0  0  0  0  0  0  0  0
   -7.3037  -28.6000  -16.3953 O   0  0  0  0  0  0  0  0  0  0  0  0
   -8.5427  -30.8390  -18.1034 O   0  0  0  0  0  0  0  0  0  0  0  0
   -4.7432  -31.0012  -17.1013 O   0  0  0  0  0  0  0  0  0  0  0  0
   -4.5441  -32.9336  -19.5163 O   0  0  0  0  0  0  0  0  0  0  0  0
  1  2  1  0
  1  7  1  1
  1 11  1  0
  2  3  1  0
  2  8  1  1
  3  4  1  0
  3  9  1  6
  5  4  1  0
  4 10  1  1
  5  6  1  6
 11  5  1  0
  6 12  1  0
 16  7  1  1
 13 14  1  0
 13 19  1  1
 22 13  1  0
 15 14  1  0
 14 20  1  1
 16 15  1  0
 15 21  1  6
 17 16  1  0
 17 18  1  6
 17 22  1  0
 23 18  1  0
M  END
$$$$
