
     RDKit          3D

 23 24  0  0  0  0  0  0  0  0999 V2000
   -6.9195  -33.8043  -14.8429 C   0  0  1  0  0  0  0  0  0  0  0  0
   -7.1336  -33.0344  -13.5529 C   0  0  1  0  0  0  0  0  0  0  0  0
   -6.5628  -33.7432  -12.3593 C   0  0  2  0  0  0  0  0  0  0  0  0
   -6.2631  -35.1856  -12.5912 C   0  0  1  0  0  0  0  0  0  0  0  0
   -5.5966  -35.4624  -13.9109 C   0  0  1  0  0  0  0  0  0  0  0  0
   -6.1614  -36.7722  -14.4350 C   0  0  0  0  0  0  0  0  0  0  0  0
   -6.8252  -32.8326  -15.8316 O   0  0  0  0  0  0  0  0  0  0  0  0
   -6.5020  -31.7845  -13.6298 O   0  0  0  0  0  0  0  0  0  0  0  0
   -7.5301  -33.6676  -11.3335 O   0  0  0  0  0  0  0  0  0  0  0  0
   -5.4782  -35.6378  -11.5250 O   0  0  0  0  0  0  0  0  0  0  0  0
   -5.6800  -34.4442  -14.8134 O   0  0  0  0  0  0  0  0  0  0  0  0
   -5.4225  -37.2460  -15.5282 O   0  0  0  0  0  0  0  0  0  0  0  0
   -5.8566  -31.1805  -18.0579 C   0  0  1  0  0  0  0  0  0  0  0  0
   -7.2530  -31.3059  -18.5932 C   0  0  1  0  0  0  0  0  0  0  0  0
   -8.0426  -32.2769  -17.7684 C   0  0  2  0  0  0  0  0  0  0  0  0
   -7.1626  -33.2812  -17.0930 C   0  0  1  0  0  0  0  0  0  0  0  0
   -5.8397  -33.4848  -17.8103 C   0  0  1  0  0  0  0  0  0  0  0  0
   -5.9938  -34.3268  -19.0555 C   0  0  0  0  0  0  0  0  0  0  0  0
   -5.8853  -30.5694  -16.8070 O   0  0  0  0  0  0  0  0  0  0  0  0
   -7.8402  -30.0238  -18.4852 O   0  0  0  0  0  0  0  0  0  0  0  0
   -8.9908  -32.8742  -18.6173 O   0  0  0  0  0  0  0  0  0  0  0  0
   -5.1424  -32.3309  -18.0163 O   0  0  0  0  0  0  0  0  0  0  0  0
   -4.6974  -34.8055  -19.3603 O   0  0  0  0  0  0  0  0  0  0  0  0
  1  2  1  0
  1  7  1  6
  1 11  1  0
  2  3  1  0
  2  8  1  6
  3  4  1  0
  3  9  1  1
  5  4  1  0
  4 10  1  1
  5  6  1  6
 11  5  1  0
  6 12  1  0
 16  7  1  1
 13 14  1  0
 13 19  1  1
 22 13  1  0
 15 14  1  0
 14 20  1  1
 16 15  1  0
 15 21  1  6
 17 16  1  0
 17 18  1  6
 17 22  1  0
 23 18  1  0
M  END
$$$$
