
     RDKit          3D

 23 24  0  0  0  0  0  0  0  0999 V2000
   -7.2434  -33.7727  -15.1852 C   0  0  1  0  0  0  0  0  0  0  0  0
   -7.7374  -34.3063  -13.8534 C   0  0  1  0  0  0  0  0  0  0  0  0
   -7.2976  -35.7191  -13.6017 C   0  0  2  0  0  0  0  0  0  0  0  0
   -6.8219  -36.4368  -14.8195 C   0  0  1  0  0  0  0  0  0  0  0  0
   -5.9282  -35.6089  -15.7016 C   0  0  1  0  0  0  0  0  0  0  0  0
   -6.2679  -35.9573  -17.1412 C   0  0  0  0  0  0  0  0  0  0  0  0
   -7.0893  -32.4054  -14.9913 O   0  0  0  0  0  0  0  0  0  0  0  0
   -7.2297  -33.5247  -12.8053 O   0  0  0  0  0  0  0  0  0  0  0  0
   -8.4195  -36.4179  -13.1051 O   0  0  0  0  0  0  0  0  0  0  0  0
   -6.1770  -37.6067  -14.4039 O   0  0  0  0  0  0  0  0  0  0  0  0
   -5.9670  -34.2695  -15.4514 O   0  0  0  0  0  0  0  0  0  0  0  0
   -5.9188  -37.2813  -17.4423 O   0  0  0  0  0  0  0  0  0  0  0  0
   -5.8935  -29.7299  -14.8027 C   0  0  1  0  0  0  0  0  0  0  0  0
   -7.1210  -29.2674  -15.5316 C   0  0  1  0  0  0  0  0  0  0  0  0
   -7.9370  -30.4431  -15.9775 C   0  0  2  0  0  0  0  0  0  0  0  0
   -7.0980  -31.6687  -16.1589 C   0  0  1  0  0  0  0  0  0  0  0  0
   -5.6400  -31.3505  -16.4399 C   0  0  1  0  0  0  0  0  0  0  0  0
   -5.4250  -30.8860  -17.8616 C   0  0  0  0  0  0  0  0  0  0  0  0
   -6.2581  -30.3258  -13.5981 O   0  0  0  0  0  0  0  0  0  0  0  0
   -7.8737  -28.5070  -14.6067 O   0  0  0  0  0  0  0  0  0  0  0  0
   -8.6055  -30.0670  -17.1556 O   0  0  0  0  0  0  0  0  0  0  0  0
   -5.0652  -30.5367  -15.5086 O   0  0  0  0  0  0  0  0  0  0  0  0
   -4.3291  -31.6359  -18.3509 O   0  0  0  0  0  0  0  0  0  0  0  0
  1  2  1  0
  1  7  1  1
  1 11  1  0
  2  3  1  0
  2  8  1  1
  3  4  1  0
  3  9  1  6
  5  4  1  0
  4 10  1  1
  5  6  1  6
 11  5  1  0
  6 12  1  0
 16  7  1  1
 13 14  1  0
 13 19  1  1
 22 13  1  0
 15 14  1  0
 14 20  1  1
 16 15  1  0
 15 21  1  6
 17 16  1  0
 17 18  1  6
 17 22  1  0
 23 18  1  0
M  END
$$$$
