
     RDKit          3D

 23 24  0  0  0  0  0  0  0  0999 V2000
   -6.7248  -32.1857  -15.1486 C   0  0  1  0  0  0  0  0  0  0  0  0
   -6.5584  -32.0698  -13.6449 C   0  0  1  0  0  0  0  0  0  0  0  0
   -7.3691  -30.9493  -13.0617 C   0  0  2  0  0  0  0  0  0  0  0  0
   -7.8482  -29.9556  -14.0654 C   0  0  1  0  0  0  0  0  0  0  0  0
   -8.3820  -30.5764  -15.3271 C   0  0  1  0  0  0  0  0  0  0  0  0
   -7.9573  -29.6854  -16.4824 C   0  0  0  0  0  0  0  0  0  0  0  0
   -6.5530  -33.5360  -15.4277 O   0  0  0  0  0  0  0  0  0  0  0  0
   -6.9842  -33.2524  -13.0226 O   0  0  0  0  0  0  0  0  0  0  0  0
   -6.5339  -30.2670  -12.1503 O   0  0  0  0  0  0  0  0  0  0  0  0
   -8.8155  -29.1549  -13.4487 O   0  0  0  0  0  0  0  0  0  0  0  0
   -8.0395  -31.8837  -15.5052 O   0  0  0  0  0  0  0  0  0  0  0  0
   -8.1802  -28.3320  -16.1924 O   0  0  0  0  0  0  0  0  0  0  0  0
   -6.2527  -36.3804  -16.0932 C   0  0  1  0  0  0  0  0  0  0  0  0
   -5.1489  -35.9222  -17.0007 C   0  0  1  0  0  0  0  0  0  0  0  0
   -5.1139  -34.4251  -17.0649 C   0  0  2  0  0  0  0  0  0  0  0  0
   -6.4522  -33.8221  -16.7746 C   0  0  1  0  0  0  0  0  0  0  0  0
   -7.6029  -34.7686  -17.0678 C   0  0  1  0  0  0  0  0  0  0  0  0
   -7.8784  -34.8842  -18.5490 C   0  0  0  0  0  0  0  0  0  0  0  0
   -5.9605  -36.0231  -14.7794 O   0  0  0  0  0  0  0  0  0  0  0  0
   -3.9416  -36.3884  -16.4303 O   0  0  0  0  0  0  0  0  0  0  0  0
   -4.6261  -34.0711  -18.3350 O   0  0  0  0  0  0  0  0  0  0  0  0
   -7.4981  -35.9738  -16.4380 O   0  0  0  0  0  0  0  0  0  0  0  0
   -9.1590  -35.4767  -18.6581 O   0  0  0  0  0  0  0  0  0  0  0  0
  1  2  1  0
  1  7  1  1
  1 11  1  0
  2  3  1  0
  2  8  1  1
  3  4  1  0
  3  9  1  1
  5  4  1  0
  4 10  1  1
  5  6  1  6
 11  5  1  0
  6 12  1  0
 16  7  1  1
 13 14  1  0
 13 19  1  1
 22 13  1  0
 15 14  1  0
 14 20  1  1
 16 15  1  0
 15 21  1  6
 17 16  1  0
 17 18  1  6
 17 22  1  0
 23 18  1  0
M  END
$$$$
