
     RDKit          3D

 23 24  0  0  0  0  0  0  0  0999 V2000
   -7.6936  -33.7140  -15.6923 C   0  0  1  0  0  0  0  0  0  0  0  0
   -8.3546  -34.8115  -14.8794 C   0  0  1  0  0  0  0  0  0  0  0  0
   -7.8301  -36.1756  -15.2219 C   0  0  2  0  0  0  0  0  0  0  0  0
   -7.0859  -36.2372  -16.5129 C   0  0  1  0  0  0  0  0  0  0  0  0
   -6.1384  -35.0880  -16.7227 C   0  0  1  0  0  0  0  0  0  0  0  0
   -6.1913  -34.7238  -18.1970 C   0  0  0  0  0  0  0  0  0  0  0  0
   -7.7076  -32.5958  -14.8677 O   0  0  0  0  0  0  0  0  0  0  0  0
   -8.1117  -34.6089  -13.5130 O   0  0  0  0  0  0  0  0  0  0  0  0
   -8.9477  -37.0314  -15.3320 O   0  0  0  0  0  0  0  0  0  0  0  0
   -6.4119  -37.4622  -16.5618 O   0  0  0  0  0  0  0  0  0  0  0  0
   -6.3486  -34.0218  -15.8999 O   0  0  0  0  0  0  0  0  0  0  0  0
   -5.0806  -33.9556  -18.5735 O   0  0  0  0  0  0  0  0  0  0  0  0
   -6.8655  -30.2782  -13.2728 C   0  0  1  0  0  0  0  0  0  0  0  0
   -8.0359  -29.5797  -13.9006 C   0  0  1  0  0  0  0  0  0  0  0  0
   -8.6460  -30.4390  -14.9665 C   0  0  2  0  0  0  0  0  0  0  0  0
   -7.6537  -31.3959  -15.5485 C   0  0  1  0  0  0  0  0  0  0  0  0
   -6.2190  -30.9201  -15.4038 C   0  0  1  0  0  0  0  0  0  0  0  0
   -5.8806  -29.8300  -16.3940 C   0  0  0  0  0  0  0  0  0  0  0  0
   -7.3083  -31.3878  -12.5573 O   0  0  0  0  0  0  0  0  0  0  0  0
   -8.9835  -29.3800  -12.8699 O   0  0  0  0  0  0  0  0  0  0  0  0
   -9.1986  -29.5801  -15.9325 O   0  0  0  0  0  0  0  0  0  0  0  0
   -5.8659  -30.6191  -14.1212 O   0  0  0  0  0  0  0  0  0  0  0  0
   -4.4681  -29.8114  -16.4794 O   0  0  0  0  0  0  0  0  0  0  0  0
  1  2  1  0
  1  7  1  1
  1 11  1  0
  2  3  1  0
  2  8  1  1
  3  4  1  0
  3  9  1  6
  5  4  1  0
  4 10  1  1
  5  6  1  6
 11  5  1  0
  6 12  1  0
 16  7  1  1
 13 14  1  0
 13 19  1  6
 22 13  1  0
 15 14  1  0
 14 20  1  1
 16 15  1  0
 15 21  1  6
 17 16  1  0
 17 18  1  6
 17 22  1  0
 23 18  1  0
M  END
$$$$
