
     RDKit          3D

 25 27  0  0  0  0  0  0  0  0999 V2000
    0.5064    7.5190   23.6507 C   0  0  0  0  0  0  0  0  0  0  0  0
    0.7250    7.5781   25.0871 C   0  0  0  0  0  0  0  0  0  0  0  0
    0.6202    8.7351   25.7158 C   0  0  0  0  0  0  0  0  0  0  0  0
    0.2914    9.9847   25.0427 C   0  0  0  0  0  0  0  0  0  0  0  0
    0.0920    9.9433   23.7459 C   0  0  0  0  0  0  0  0  0  0  0  0
    0.1700    8.7365   22.8939 C   0  0  0  0  0  0  0  0  0  0  0  0
   -1.0733    9.3817   21.1380 C   0  0  0  0  0  0  0  0  0  0  0  0
    0.1925   11.2326   25.8090 C   0  0  0  0  0  0  0  0  0  0  0  0
   -0.8501   14.3879   25.2984 C   0  0  0  0  0  0  0  0  0  0  0  0
    0.9118    8.7998   27.6159 Br  0  0  0  0  0  0  0  0  0  0  0  0
   -1.0312    8.5199   22.2176 O   0  0  0  0  0  0  0  0  0  0  0  0
    0.6013    6.4110   23.0146 O   0  0  0  0  0  0  0  0  0  0  0  0
   -0.8255   12.0032   25.7400 N   0  0  0  0  0  0  0  0  0  0  0  0
   -0.8536   13.3230   26.1195 N   0  0  0  0  0  0  0  0  0  0  0  0
   -0.8899   13.7499   27.4113 C   0  0  0  0  0  0  0  0  0  0  0  0
   -0.9084   15.0957   27.3602 N   0  0  0  0  0  0  0  0  0  0  0  0
   -0.8839   15.4699   26.0718 N   0  0  0  0  0  0  0  0  0  0  0  0
   -0.8067   14.2565   23.5084 S   0  0  0  0  0  0  0  0  0  0  0  0
    0.5867   15.1528   22.8202 C   0  0  0  0  0  0  0  0  0  0  0  0
   -0.9042   12.8748   28.5799 C   0  0  0  0  0  0  0  0  0  0  0  0
   -0.3026   13.2166   29.7728 C   0  0  0  0  0  0  0  0  0  0  0  0
   -0.2983   12.4136   30.8931 C   0  0  0  0  0  0  0  0  0  0  0  0
   -0.9428   11.1811   30.8112 C   0  0  0  0  0  0  0  0  0  0  0  0
   -1.5611   10.7912   29.6386 C   0  0  0  0  0  0  0  0  0  0  0  0
   -1.5352   11.6339   28.5469 C   0  0  0  0  0  0  0  0  0  0  0  0
  2  1  1  0
  6  1  1  0
  1 12  2  0
  3  2  2  0
  4  3  1  0
  3 10  1  0
  4  5  2  0
  8  4  1  0
  5  6  1  0
  6 11  1  0
 11  7  1  0
 13  8  2  0
 14  9  1  0
  9 17  2  0
  9 18  1  0
 13 14  1  0
 14 15  1  0
 15 16  2  0
 15 20  1  0
 16 17  1  0
 18 19  1  0
 20 21  2  0
 20 25  1  0
 21 22  1  0
 22 23  2  0
 23 24  1  0
 24 25  2  0
M  END
$$$$
