
     RDKit          3D

 25 27  0  0  0  0  0  0  0  0999 V2000
   -1.7956   15.3270   23.8754 C   0  0  0  0  0  0  0  0  0  0  0  0
   -1.9195   15.5663   25.3043 C   0  0  0  0  0  0  0  0  0  0  0  0
   -1.7565   14.5648   26.1501 C   0  0  0  0  0  0  0  0  0  0  0  0
   -1.4532   13.2033   25.7292 C   0  0  0  0  0  0  0  0  0  0  0  0
   -1.3390   12.9756   24.4414 C   0  0  0  0  0  0  0  0  0  0  0  0
   -1.4906   13.9797   23.3657 C   0  0  0  0  0  0  0  0  0  0  0  0
   -0.7120   14.4682   21.3162 C   0  0  0  0  0  0  0  0  0  0  0  0
   -1.2857   12.1414   26.7284 C   0  0  0  0  0  0  0  0  0  0  0  0
    0.2201   10.7407   28.9886 C   0  0  0  0  0  0  0  0  0  0  0  0
   -1.9230   14.8947   28.0377 Br  0  0  0  0  0  0  0  0  0  0  0  0
   -0.3394   14.0532   22.5806 O   0  0  0  0  0  0  0  0  0  0  0  0
   -1.9485   16.2790   23.0319 O   0  0  0  0  0  0  0  0  0  0  0  0
   -0.3148   11.3102   26.6924 N   0  0  0  0  0  0  0  0  0  0  0  0
    0.0215   10.4331   27.6947 N   0  0  0  0  0  0  0  0  0  0  0  0
    0.2057    9.0966   27.5156 C   0  0  0  0  0  0  0  0  0  0  0  0
    0.5203    8.5968   28.7261 N   0  0  0  0  0  0  0  0  0  0  0  0
    0.5256    9.6054   29.6112 N   0  0  0  0  0  0  0  0  0  0  0  0
    0.0736   12.4062   29.6430 S   0  0  0  0  0  0  0  0  0  0  0  0
    1.1781   12.6622   31.0333 C   0  0  0  0  0  0  0  0  0  0  0  0
    0.0743    8.3991   26.2398 C   0  0  0  0  0  0  0  0  0  0  0  0
   -0.4923    8.9842   25.1269 C   0  0  0  0  0  0  0  0  0  0  0  0
   -0.6308    8.3532   23.9092 C   0  0  0  0  0  0  0  0  0  0  0  0
   -0.1686    7.0434   23.8001 C   0  0  0  0  0  0  0  0  0  0  0  0
    0.4072    6.4117   24.8858 C   0  0  0  0  0  0  0  0  0  0  0  0
    0.5211    7.0898   26.0815 C   0  0  0  0  0  0  0  0  0  0  0  0
  2  1  1  0
  6  1  1  0
  1 12  2  0
  3  2  2  0
  4  3  1  0
  3 10  1  0
  4  5  2  0
  8  4  1  0
  5  6  1  0
  6 11  1  0
 11  7  1  0
 13  8  2  0
 14  9  1  0
  9 17  2  0
  9 18  1  0
 13 14  1  0
 14 15  1  0
 15 16  2  0
 15 20  1  0
 16 17  1  0
 18 19  1  0
 20 21  2  0
 20 25  1  0
 21 22  1  0
 22 23  2  0
 23 24  1  0
 24 25  2  0
M  END
$$$$
