
     RDKit          3D

 25 27  0  0  0  0  0  0  0  0999 V2000
   -1.3785   14.7448   22.7842 C   0  0  0  0  0  0  0  0  0  0  0  0
   -0.5070   15.2189   23.8473 C   0  0  0  0  0  0  0  0  0  0  0  0
   -0.0448   14.3640   24.7419 C   0  0  0  0  0  0  0  0  0  0  0  0
   -0.3622   12.9421   24.7286 C   0  0  0  0  0  0  0  0  0  0  0  0
   -1.1482   12.5029   23.7734 C   0  0  0  0  0  0  0  0  0  0  0  0
   -1.7487   13.3223   22.6981 C   0  0  0  0  0  0  0  0  0  0  0  0
   -2.2079   11.7789   21.1320 C   0  0  0  0  0  0  0  0  0  0  0  0
    0.1896   12.0526   25.7575 C   0  0  0  0  0  0  0  0  0  0  0  0
    0.4119    8.8565   26.8559 C   0  0  0  0  0  0  0  0  0  0  0  0
    1.1072   15.0038   26.1431 Br  0  0  0  0  0  0  0  0  0  0  0  0
   -1.3837   12.8450   21.4388 O   0  0  0  0  0  0  0  0  0  0  0  0
   -1.8417   15.5510   21.9028 O   0  0  0  0  0  0  0  0  0  0  0  0
   -0.4404   11.0274   26.1901 N   0  0  0  0  0  0  0  0  0  0  0  0
    0.0403   10.1243   27.1066 N   0  0  0  0  0  0  0  0  0  0  0  0
    0.2127   10.3912   28.4300 C   0  0  0  0  0  0  0  0  0  0  0  0
    0.6966    9.2608   28.9797 N   0  0  0  0  0  0  0  0  0  0  0  0
    0.8127    8.3372   28.0132 N   0  0  0  0  0  0  0  0  0  0  0  0
    0.3387    8.1085   25.2253 S   0  0  0  0  0  0  0  0  0  0  0  0
    1.9796    7.7434   24.5988 C   0  0  0  0  0  0  0  0  0  0  0  0
   -0.0856   11.6692   29.0699 C   0  0  0  0  0  0  0  0  0  0  0  0
   -0.3539   12.8158   28.3522 C   0  0  0  0  0  0  0  0  0  0  0  0
   -0.6387   14.0364   28.9258 C   0  0  0  0  0  0  0  0  0  0  0  0
   -0.6556   14.1122   30.3169 C   0  0  0  0  0  0  0  0  0  0  0  0
   -0.3935   12.9919   31.0821 C   0  0  0  0  0  0  0  0  0  0  0  0
   -0.1142   11.7949   30.4564 C   0  0  0  0  0  0  0  0  0  0  0  0
  2  1  1  0
  6  1  1  0
  1 12  2  0
  3  2  2  0
  4  3  1  0
  3 10  1  0
  4  5  2  0
  8  4  1  0
  5  6  1  0
  6 11  1  0
 11  7  1  0
 13  8  2  0
 14  9  1  0
  9 17  2  0
  9 18  1  0
 13 14  1  0
 14 15  1  0
 15 16  2  0
 15 20  1  0
 16 17  1  0
 18 19  1  0
 20 21  2  0
 20 25  1  0
 21 22  1  0
 22 23  2  0
 23 24  1  0
 24 25  2  0
M  END
$$$$
