
     RDKit          3D

 25 27  0  0  0  0  0  0  0  0999 V2000
    0.6810    7.5297   23.3931 C   0  0  0  0  0  0  0  0  0  0  0  0
    0.5669    7.1221   24.7843 C   0  0  0  0  0  0  0  0  0  0  0  0
    0.2741    8.0220   25.7058 C   0  0  0  0  0  0  0  0  0  0  0  0
    0.0533    9.4308   25.4069 C   0  0  0  0  0  0  0  0  0  0  0  0
    0.1536    9.8101   24.1542 C   0  0  0  0  0  0  0  0  0  0  0  0
    0.4729    8.9348   23.0053 C   0  0  0  0  0  0  0  0  0  0  0  0
   -0.2637   10.0433   21.1958 C   0  0  0  0  0  0  0  0  0  0  0  0
   -0.2688   10.3729   26.4853 C   0  0  0  0  0  0  0  0  0  0  0  0
   -0.1580   12.5405   28.6534 C   0  0  0  0  0  0  0  0  0  0  0  0
    0.1262    7.4699   27.5424 Br  0  0  0  0  0  0  0  0  0  0  0  0
   -0.5342    8.9837   22.0407 O   0  0  0  0  0  0  0  0  0  0  0  0
    0.9638    6.6789   22.4780 O   0  0  0  0  0  0  0  0  0  0  0  0
    0.0107   11.6188   26.4163 N   0  0  0  0  0  0  0  0  0  0  0  0
   -0.3727   12.5735   27.3264 N   0  0  0  0  0  0  0  0  0  0  0  0
   -1.0404   13.7154   27.0060 C   0  0  0  0  0  0  0  0  0  0  0  0
   -1.2277   14.3767   28.1643 N   0  0  0  0  0  0  0  0  0  0  0  0
   -0.6873   13.6525   29.1564 N   0  0  0  0  0  0  0  0  0  0  0  0
    0.6949   11.1967   29.4842 S   0  0  0  0  0  0  0  0  0  0  0  0
    1.3008   11.7031   31.0951 C   0  0  0  0  0  0  0  0  0  0  0  0
   -1.4465   14.0944   25.6558 C   0  0  0  0  0  0  0  0  0  0  0  0
   -1.3385   15.3847   25.1811 C   0  0  0  0  0  0  0  0  0  0  0  0
   -1.7126   15.7744   23.9130 C   0  0  0  0  0  0  0  0  0  0  0  0
   -2.2315   14.8016   23.0612 C   0  0  0  0  0  0  0  0  0  0  0  0
   -2.3605   13.4938   23.4884 C   0  0  0  0  0  0  0  0  0  0  0  0
   -1.9705   13.1582   24.7682 C   0  0  0  0  0  0  0  0  0  0  0  0
  2  1  1  0
  6  1  1  0
  1 12  2  0
  3  2  2  0
  4  3  1  0
  3 10  1  0
  4  5  2  0
  8  4  1  0
  5  6  1  0
  6 11  1  0
 11  7  1  0
 13  8  2  0
 14  9  1  0
  9 17  2  0
  9 18  1  0
 13 14  1  0
 14 15  1  0
 15 16  2  0
 15 20  1  0
 16 17  1  0
 18 19  1  0
 20 21  2  0
 20 25  1  0
 21 22  1  0
 22 23  2  0
 23 24  1  0
 24 25  2  0
M  END
$$$$
