
     RDKit          3D

 25 27  0  0  0  0  0  0  0  0999 V2000
    0.6561    7.9584   25.0728 C   0  0  0  0  0  0  0  0  0  0  0  0
    0.5053    8.3964   26.4511 C   0  0  0  0  0  0  0  0  0  0  0  0
    0.0762    9.6199   26.7036 C   0  0  0  0  0  0  0  0  0  0  0  0
   -0.2632   10.5798   25.6614 C   0  0  0  0  0  0  0  0  0  0  0  0
   -0.1309   10.1952   24.4133 C   0  0  0  0  0  0  0  0  0  0  0  0
    0.3347    8.8666   23.9592 C   0  0  0  0  0  0  0  0  0  0  0  0
   -0.2500    8.4558   21.8297 C   0  0  0  0  0  0  0  0  0  0  0  0
   -0.7341   11.9231   26.0194 C   0  0  0  0  0  0  0  0  0  0  0  0
   -1.7370   14.6819   24.9353 C   0  0  0  0  0  0  0  0  0  0  0  0
   -0.1190   10.1870   28.5311 Br  0  0  0  0  0  0  0  0  0  0  0  0
   -0.6176    8.2509   23.1461 O   0  0  0  0  0  0  0  0  0  0  0  0
    1.0701    6.7776   24.7979 O   0  0  0  0  0  0  0  0  0  0  0  0
   -0.1449   12.9866   25.6235 N   0  0  0  0  0  0  0  0  0  0  0  0
   -0.6810   14.2511   25.6475 N   0  0  0  0  0  0  0  0  0  0  0  0
   -0.2076   15.2712   26.4140 C   0  0  0  0  0  0  0  0  0  0  0  0
   -0.9965   16.3316   26.1541 N   0  0  0  0  0  0  0  0  0  0  0  0
   -1.9208   15.9602   25.2549 N   0  0  0  0  0  0  0  0  0  0  0  0
   -2.6529   13.6399   23.7956 S   0  0  0  0  0  0  0  0  0  0  0  0
   -3.0473   14.5161   22.2807 C   0  0  0  0  0  0  0  0  0  0  0  0
    0.9334   15.1754   27.3198 C   0  0  0  0  0  0  0  0  0  0  0  0
    1.8541   16.1915   27.4666 C   0  0  0  0  0  0  0  0  0  0  0  0
    2.9409   16.1320   28.3124 C   0  0  0  0  0  0  0  0  0  0  0  0
    3.1166   14.9719   29.0636 C   0  0  0  0  0  0  0  0  0  0  0  0
    2.2221   13.9244   28.9531 C   0  0  0  0  0  0  0  0  0  0  0  0
    1.1513   14.0367   28.0911 C   0  0  0  0  0  0  0  0  0  0  0  0
  2  1  1  0
  6  1  1  0
  1 12  2  0
  3  2  2  0
  4  3  1  0
  3 10  1  0
  4  5  2  0
  8  4  1  0
  5  6  1  0
  6 11  1  0
 11  7  1  0
 13  8  2  0
 14  9  1  0
  9 17  2  0
  9 18  1  0
 13 14  1  0
 14 15  1  0
 15 16  2  0
 15 20  1  0
 16 17  1  0
 18 19  1  0
 20 21  2  0
 20 25  1  0
 21 22  1  0
 22 23  2  0
 23 24  1  0
 24 25  2  0
M  END
$$$$
