
     RDKit          3D

 25 27  0  0  0  0  0  0  0  0999 V2000
    0.4574    7.6090   24.9360 C   0  0  0  0  0  0  0  0  0  0  0  0
    0.8041    7.7461   26.3415 C   0  0  0  0  0  0  0  0  0  0  0  0
    0.9058    8.9507   26.8739 C   0  0  0  0  0  0  0  0  0  0  0  0
    0.6867   10.1791   26.1217 C   0  0  0  0  0  0  0  0  0  0  0  0
    0.3732   10.0674   24.8519 C   0  0  0  0  0  0  0  0  0  0  0  0
    0.2194    8.8004   24.1041 C   0  0  0  0  0  0  0  0  0  0  0  0
   -1.2382    9.7895   22.7104 C   0  0  0  0  0  0  0  0  0  0  0  0
    0.8179   11.4830   26.7826 C   0  0  0  0  0  0  0  0  0  0  0  0
    1.0042   14.8374   26.2587 C   0  0  0  0  0  0  0  0  0  0  0  0
    1.3650    9.1182   28.7342 Br  0  0  0  0  0  0  0  0  0  0  0  0
   -1.0532    8.7003   23.5407 O   0  0  0  0  0  0  0  0  0  0  0  0
    0.3518    6.4536   24.3928 O   0  0  0  0  0  0  0  0  0  0  0  0
    0.2407   12.5369   26.3451 N   0  0  0  0  0  0  0  0  0  0  0  0
    0.3930   13.8013   26.8597 N   0  0  0  0  0  0  0  0  0  0  0  0
   -0.0643   14.1938   28.0800 C   0  0  0  0  0  0  0  0  0  0  0  0
    0.2807   15.4892   28.2099 N   0  0  0  0  0  0  0  0  0  0  0  0
    0.9287   15.8674   27.0973 N   0  0  0  0  0  0  0  0  0  0  0  0
    1.7482   14.7361   24.6279 S   0  0  0  0  0  0  0  0  0  0  0  0
    3.2214   15.7538   24.5166 C   0  0  0  0  0  0  0  0  0  0  0  0
   -0.7805   13.3354   29.0191 C   0  0  0  0  0  0  0  0  0  0  0  0
   -1.5569   12.2713   28.6109 C   0  0  0  0  0  0  0  0  0  0  0  0
   -2.2449   11.4429   29.4713 C   0  0  0  0  0  0  0  0  0  0  0  0
   -2.1473   11.6999   30.8372 C   0  0  0  0  0  0  0  0  0  0  0  0
   -1.3821   12.7542   31.2981 C   0  0  0  0  0  0  0  0  0  0  0  0
   -0.7139   13.5521   30.3930 C   0  0  0  0  0  0  0  0  0  0  0  0
  2  1  1  0
  6  1  1  0
  1 12  2  0
  3  2  2  0
  4  3  1  0
  3 10  1  0
  4  5  2  0
  8  4  1  0
  5  6  1  0
  6 11  1  0
 11  7  1  0
 13  8  2  0
 14  9  1  0
  9 17  2  0
  9 18  1  0
 13 14  1  0
 14 15  1  0
 15 16  2  0
 15 20  1  0
 16 17  1  0
 18 19  1  0
 20 21  2  0
 20 25  1  0
 21 22  1  0
 22 23  2  0
 23 24  1  0
 24 25  2  0
M  END
$$$$
