
     RDKit          3D

 25 27  0  0  0  0  0  0  0  0999 V2000
    0.5185    7.5189   22.9106 C   0  0  0  0  0  0  0  0  0  0  0  0
    0.3462    7.3219   24.3409 C   0  0  0  0  0  0  0  0  0  0  0  0
    0.0143    8.3468   25.1053 C   0  0  0  0  0  0  0  0  0  0  0  0
   -0.1947    9.6939   24.5911 C   0  0  0  0  0  0  0  0  0  0  0  0
   -0.0419    9.8835   23.3012 C   0  0  0  0  0  0  0  0  0  0  0  0
    0.3260    8.8493   22.3096 C   0  0  0  0  0  0  0  0  0  0  0  0
   -0.1680    9.4133   20.1922 C   0  0  0  0  0  0  0  0  0  0  0  0
   -0.5625   10.7836   25.5030 C   0  0  0  0  0  0  0  0  0  0  0  0
   -1.4252   14.0602   25.1549 C   0  0  0  0  0  0  0  0  0  0  0  0
   -0.2106    8.0729   26.9958 Br  0  0  0  0  0  0  0  0  0  0  0  0
   -0.6397    8.7473   21.3076 O   0  0  0  0  0  0  0  0  0  0  0  0
    0.8401    6.5435   22.1448 O   0  0  0  0  0  0  0  0  0  0  0  0
   -0.1746   11.9891   25.3258 N   0  0  0  0  0  0  0  0  0  0  0  0
   -0.7792   13.1062   25.8484 N   0  0  0  0  0  0  0  0  0  0  0  0
   -0.8109   13.4130   27.1740 C   0  0  0  0  0  0  0  0  0  0  0  0
   -1.4889   14.5725   27.2736 N   0  0  0  0  0  0  0  0  0  0  0  0
   -1.8561   14.9544   26.0406 N   0  0  0  0  0  0  0  0  0  0  0  0
   -1.6107   14.0307   23.3694 S   0  0  0  0  0  0  0  0  0  0  0  0
   -2.7874   15.2654   22.8134 C   0  0  0  0  0  0  0  0  0  0  0  0
   -0.2108   12.6060   28.2325 C   0  0  0  0  0  0  0  0  0  0  0  0
    0.2666   11.3306   28.0156 C   0  0  0  0  0  0  0  0  0  0  0  0
    0.8380   10.5438   28.9926 C   0  0  0  0  0  0  0  0  0  0  0  0
    0.9374   11.0735   30.2774 C   0  0  0  0  0  0  0  0  0  0  0  0
    0.4740   12.3470   30.5471 C   0  0  0  0  0  0  0  0  0  0  0  0
   -0.0893   13.0916   29.5319 C   0  0  0  0  0  0  0  0  0  0  0  0
  2  1  1  0
  6  1  1  0
  1 12  2  0
  3  2  2  0
  4  3  1  0
  3 10  1  0
  4  5  2  0
  8  4  1  0
  5  6  1  0
  6 11  1  0
 11  7  1  0
 13  8  2  0
 14  9  1  0
  9 17  2  0
  9 18  1  0
 13 14  1  0
 14 15  1  0
 15 16  2  0
 15 20  1  0
 16 17  1  0
 18 19  1  0
 20 21  2  0
 20 25  1  0
 21 22  1  0
 22 23  2  0
 23 24  1  0
 24 25  2  0
M  END
$$$$
