
     RDKit          3D

 25 27  0  0  0  0  0  0  0  0999 V2000
    0.4227    7.6665   24.6870 C   0  0  0  0  0  0  0  0  0  0  0  0
    0.7905    7.7519   26.0912 C   0  0  0  0  0  0  0  0  0  0  0  0
    0.7511    8.9205   26.7059 C   0  0  0  0  0  0  0  0  0  0  0  0
    0.3525   10.1577   26.0479 C   0  0  0  0  0  0  0  0  0  0  0  0
    0.0183   10.0925   24.7802 C   0  0  0  0  0  0  0  0  0  0  0  0
    0.0078    8.8700   23.9472 C   0  0  0  0  0  0  0  0  0  0  0  0
   -1.2723    9.1647   22.1251 C   0  0  0  0  0  0  0  0  0  0  0  0
    0.3333   11.4197   26.7972 C   0  0  0  0  0  0  0  0  0  0  0  0
    0.3117   14.7108   25.9561 C   0  0  0  0  0  0  0  0  0  0  0  0
    1.2400    9.0200   28.5635 Br  0  0  0  0  0  0  0  0  0  0  0  0
   -1.2574    8.6422   23.4045 O   0  0  0  0  0  0  0  0  0  0  0  0
    0.4515    6.5468   24.0650 O   0  0  0  0  0  0  0  0  0  0  0  0
   -0.3600   12.4285   26.4275 N   0  0  0  0  0  0  0  0  0  0  0  0
   -0.1159   13.7345   26.7759 N   0  0  0  0  0  0  0  0  0  0  0  0
   -0.2761   14.2372   28.0305 C   0  0  0  0  0  0  0  0  0  0  0  0
    0.0624   15.5389   27.9579 N   0  0  0  0  0  0  0  0  0  0  0  0
    0.4172   15.8133   26.6932 N   0  0  0  0  0  0  0  0  0  0  0  0
    0.6458   14.4604   24.2099 S   0  0  0  0  0  0  0  0  0  0  0  0
    0.4498   15.9829   23.2814 C   0  0  0  0  0  0  0  0  0  0  0  0
   -0.7285   13.4689   29.1866 C   0  0  0  0  0  0  0  0  0  0  0  0
   -0.4261   13.8281   30.4832 C   0  0  0  0  0  0  0  0  0  0  0  0
   -0.8375   13.1248   31.5950 C   0  0  0  0  0  0  0  0  0  0  0  0
   -1.6063   11.9807   31.3919 C   0  0  0  0  0  0  0  0  0  0  0  0
   -1.9369   11.5776   30.1122 C   0  0  0  0  0  0  0  0  0  0  0  0
   -1.4987   12.3188   29.0346 C   0  0  0  0  0  0  0  0  0  0  0  0
  2  1  1  0
  6  1  1  0
  1 12  2  0
  3  2  2  0
  4  3  1  0
  3 10  1  0
  4  5  2  0
  8  4  1  0
  5  6  1  0
  6 11  1  0
 11  7  1  0
 13  8  2  0
 14  9  1  0
  9 17  2  0
  9 18  1  0
 13 14  1  0
 14 15  1  0
 15 16  2  0
 15 20  1  0
 16 17  1  0
 18 19  1  0
 20 21  2  0
 20 25  1  0
 21 22  1  0
 22 23  2  0
 23 24  1  0
 24 25  2  0
M  END
$$$$
