
     RDKit          3D

 25 27  0  0  0  0  0  0  0  0999 V2000
    0.3165    7.4561   24.2951 C   0  0  0  0  0  0  0  0  0  0  0  0
    0.7657    7.3572   25.6746 C   0  0  0  0  0  0  0  0  0  0  0  0
    0.6109    8.3875   26.4865 C   0  0  0  0  0  0  0  0  0  0  0  0
    0.0036    9.6464   26.0750 C   0  0  0  0  0  0  0  0  0  0  0  0
   -0.4056    9.7470   24.8318 C   0  0  0  0  0  0  0  0  0  0  0  0
   -0.3081    8.6934   23.7980 C   0  0  0  0  0  0  0  0  0  0  0  0
   -1.4884    8.4478   21.9028 C   0  0  0  0  0  0  0  0  0  0  0  0
   -0.1346   10.7482   27.0348 C   0  0  0  0  0  0  0  0  0  0  0  0
   -1.0707   12.8977   28.9616 C   0  0  0  0  0  0  0  0  0  0  0  0
    1.2093    8.2438   28.3088 Br  0  0  0  0  0  0  0  0  0  0  0  0
   -1.5652    8.3783   23.2809 O   0  0  0  0  0  0  0  0  0  0  0  0
    0.4537    6.4730   23.4851 O   0  0  0  0  0  0  0  0  0  0  0  0
   -0.9181   11.7389   26.8363 N   0  0  0  0  0  0  0  0  0  0  0  0
   -0.9940   12.8648   27.6195 N   0  0  0  0  0  0  0  0  0  0  0  0
   -1.0024   14.1371   27.1362 C   0  0  0  0  0  0  0  0  0  0  0  0
   -1.0858   14.9449   28.2108 N   0  0  0  0  0  0  0  0  0  0  0  0
   -1.1265   14.1797   29.3124 N   0  0  0  0  0  0  0  0  0  0  0  0
   -1.0873   11.4244   29.9876 S   0  0  0  0  0  0  0  0  0  0  0  0
   -1.2142   11.8406   31.7280 C   0  0  0  0  0  0  0  0  0  0  0  0
   -0.9326   14.4938   25.7222 C   0  0  0  0  0  0  0  0  0  0  0  0
   -0.0396   13.9072   24.8502 C   0  0  0  0  0  0  0  0  0  0  0  0
    0.0513   14.2215   23.5112 C   0  0  0  0  0  0  0  0  0  0  0  0
   -0.8143   15.1923   23.0117 C   0  0  0  0  0  0  0  0  0  0  0  0
   -1.7280   15.8104   23.8439 C   0  0  0  0  0  0  0  0  0  0  0  0
   -1.7764   15.4578   25.1765 C   0  0  0  0  0  0  0  0  0  0  0  0
  2  1  1  0
  6  1  1  0
  1 12  2  0
  3  2  2  0
  4  3  1  0
  3 10  1  0
  4  5  2  0
  8  4  1  0
  5  6  1  0
  6 11  1  0
 11  7  1  0
 13  8  2  0
 14  9  1  0
  9 17  2  0
  9 18  1  0
 13 14  1  0
 14 15  1  0
 15 16  2  0
 15 20  1  0
 16 17  1  0
 18 19  1  0
 20 21  2  0
 20 25  1  0
 21 22  1  0
 22 23  2  0
 23 24  1  0
 24 25  2  0
M  END
$$$$
