
     RDKit          3D

 31 33  0  0  0  0  0  0  0  0999 V2000
   30.1086  -27.8450   37.1677 C   0  0  0  0  0  0  0  0  0  0  0  0
   29.9630  -27.6265   34.8254 C   0  0  0  0  0  0  0  0  0  0  0  0
   28.6465  -27.2515   34.9985 C   0  0  0  0  0  0  0  0  0  0  0  0
   28.0492  -27.1686   36.2416 C   0  0  0  0  0  0  0  0  0  0  0  0
   28.8176  -27.4747   37.3032 N   0  0  0  0  0  0  0  0  0  0  0  0
   30.6561  -32.3836   32.0616 O   0  0  0  0  0  0  0  0  0  0  0  0
   29.3179  -32.3276   29.6073 O   0  0  0  0  0  0  0  0  0  0  0  0
   30.0909  -33.2916   30.7633 P   0  0  2  0  0  5  0  0  0  0  0  0
   29.0572  -34.3243   31.2164 O   0  0  0  0  0  0  0  0  0  0  0  0
   31.3697  -34.1365   30.0222 O   0  0  0  0  0  0  0  0  0  0  0  0
   32.2283  -32.8619   32.4023 P   0  0  1  0  0  5  0  0  0  0  0  0
   32.2190  -33.9192   33.4711 O   0  0  0  0  0  0  0  0  0  0  0  0
   32.9770  -33.4867   31.0223 O   0  0  0  0  0  0  0  0  0  0  0  0
   33.1753  -31.5766   32.9634 O   0  0  0  0  0  0  0  0  0  0  0  0
   33.4193  -30.7375   31.9007 C   0  0  0  0  0  0  0  0  0  0  0  0
   32.9545  -29.3254   32.1383 C   0  0  1  0  0  0  0  0  0  0  0  0
   31.6126  -29.2654   32.5131 O   0  0  0  0  0  0  0  0  0  0  0  0
   31.5157  -27.9419   32.9285 C   0  0  2  0  0  0  0  0  0  0  0  0
   32.6351  -27.8686   33.9536 C   0  0  2  0  0  0  0  0  0  0  0  0
   33.0261  -26.5528   34.1999 O   0  0  0  0  0  0  0  0  0  0  0  0
   33.7424  -28.6255   33.2081 C   0  0  2  0  0  0  0  0  0  0  0  0
   34.5389  -27.6388   32.6163 O   0  0  0  0  0  0  0  0  0  0  0  0
   36.1633  -27.8098   32.9782 P   0  0  1  0  0  5  0  0  0  0  0  0
   36.3339  -28.8627   34.0572 O   0  0  0  0  0  0  0  0  0  0  0  0
   37.0609  -28.1680   31.6015 O   0  0  0  0  0  0  0  0  0  0  0  0
   36.6912  -26.3394   33.6588 O   0  0  0  0  0  0  0  0  0  0  0  0
   30.2534  -27.6136   33.5118 N   0  0  0  0  0  0  0  0  0  0  0  0
   29.1417  -27.2387   32.8817 C   0  0  0  0  0  0  0  0  0  0  0  0
   28.1472  -27.0137   33.7893 N   0  0  0  0  0  0  0  0  0  0  0  0
   26.6898  -26.7800   36.4013 N   0  0  0  0  0  0  0  0  0  0  0  0
   30.6644  -27.9173   35.9470 N   0  0  0  0  0  0  0  0  0  0  0  0
  1  5  2  0
 31  1  1  0
  2  3  1  0
 27  2  1  0
  2 31  2  0
  3  4  2  0
  3 29  1  0
  4  5  1  0
  4 30  1  0
  6  8  1  0
 11  6  1  0
  8  7  1  6
  8  9  2  0
  8 10  1  0
 11 12  2  0
 11 13  1  6
 14 11  1  0
 15 14  1  0
 16 15  1  1
 17 16  1  0
 16 21  1  0
 18 17  1  0
 18 19  1  0
 18 27  1  1
 19 20  1  6
 19 21  1  0
 21 22  1  6
 22 23  1  0
 23 24  2  0
 23 25  1  6
 23 26  1  0
 27 28  1  0
 28 29  2  0
M  END
$$$$
