
     RDKit          3D

 31 33  0  0  0  0  0  0  0  0999 V2000
   35.6324  -29.3015   28.8162 C   0  0  0  0  0  0  0  0  0  0  0  0
   34.7251  -28.1420   30.6567 C   0  0  0  0  0  0  0  0  0  0  0  0
   34.9370  -26.9738   29.9537 C   0  0  0  0  0  0  0  0  0  0  0  0
   35.4922  -26.9519   28.6887 C   0  0  0  0  0  0  0  0  0  0  0  0
   35.8268  -28.1411   28.1545 N   0  0  0  0  0  0  0  0  0  0  0  0
   27.7238  -31.3939   32.8642 O   0  0  0  0  0  0  0  0  0  0  0  0
   29.9753  -32.9987   32.4484 O   0  0  0  0  0  0  0  0  0  0  0  0
   28.2964  -32.9618   32.6568 P   0  0  2  0  0  5  0  0  0  0  0  0
   27.6981  -33.6105   31.4071 O   0  0  0  0  0  0  0  0  0  0  0  0
   27.8770  -33.9335   33.9903 O   0  0  0  0  0  0  0  0  0  0  0  0
   28.6384  -30.6457   34.0560 P   0  0  1  0  0  5  0  0  0  0  0  0
   27.8617  -29.5057   34.6541 O   0  0  0  0  0  0  0  0  0  0  0  0
   29.0349  -31.7390   35.2820 O   0  0  0  0  0  0  0  0  0  0  0  0
   30.0839  -30.0136   33.4440 O   0  0  0  0  0  0  0  0  0  0  0  0
   31.1082  -30.8404   33.8441 C   0  0  0  0  0  0  0  0  0  0  0  0
   32.4636  -30.1900   33.7647 C   0  0  1  0  0  0  0  0  0  0  0  0
   32.6453  -29.4877   32.5737 O   0  0  0  0  0  0  0  0  0  0  0  0
   33.8080  -28.7812   32.8610 C   0  0  2  0  0  0  0  0  0  0  0  0
   33.4187  -28.0785   34.1509 C   0  0  2  0  0  0  0  0  0  0  0  0
   34.5374  -27.6552   34.8678 O   0  0  0  0  0  0  0  0  0  0  0  0
   32.7128  -29.2246   34.8878 C   0  0  2  0  0  0  0  0  0  0  0  0
   33.6738  -29.7653   35.7494 O   0  0  0  0  0  0  0  0  0  0  0  0
   33.0672  -30.1024   37.2717 P   0  0  1  0  0  5  0  0  0  0  0  0
   31.8301  -29.2604   37.5220 O   0  0  0  0  0  0  0  0  0  0  0  0
   32.7580  -31.7457   37.4553 O   0  0  0  0  0  0  0  0  0  0  0  0
   34.2298  -29.5918   38.4080 O   0  0  0  0  0  0  0  0  0  0  0  0
   34.1757  -27.8433   31.8479 N   0  0  0  0  0  0  0  0  0  0  0  0
   34.0487  -26.5181   31.8848 C   0  0  0  0  0  0  0  0  0  0  0  0
   34.5150  -25.9746   30.7226 N   0  0  0  0  0  0  0  0  0  0  0  0
   35.7036  -25.7374   27.9782 N   0  0  0  0  0  0  0  0  0  0  0  0
   35.0906  -29.2940   30.0453 N   0  0  0  0  0  0  0  0  0  0  0  0
  1  5  2  0
 31  1  1  0
  2  3  1  0
 27  2  1  0
  2 31  2  0
  3  4  2  0
  3 29  1  0
  4  5  1  0
  4 30  1  0
  6  8  1  0
 11  6  1  0
  8  7  1  6
  8  9  2  0
  8 10  1  0
 11 12  2  0
 11 13  1  1
 14 11  1  0
 15 14  1  0
 16 15  1  6
 17 16  1  0
 16 21  1  0
 18 17  1  0
 18 19  1  0
 18 27  1  6
 19 20  1  1
 19 21  1  0
 21 22  1  1
 22 23  1  0
 23 24  2  0
 23 25  1  6
 23 26  1  0
 27 28  1  0
 28 29  2  0
M  END
$$$$
