
     RDKit          3D

 31 33  0  0  0  0  0  0  0  0999 V2000
   27.1980  -29.5737   33.4819 C   0  0  0  0  0  0  0  0  0  0  0  0
   28.9901  -28.2486   34.2485 C   0  0  0  0  0  0  0  0  0  0  0  0
   28.0620  -27.2806   34.5731 C   0  0  0  0  0  0  0  0  0  0  0  0
   26.7065  -27.4421   34.3600 C   0  0  0  0  0  0  0  0  0  0  0  0
   26.3153  -28.6069   33.8108 N   0  0  0  0  0  0  0  0  0  0  0  0
   37.1573  -25.7994   32.0784 O   0  0  0  0  0  0  0  0  0  0  0  0
   38.9948  -27.0308   30.3683 O   0  0  0  0  0  0  0  0  0  0  0  0
   37.5950  -27.2243   31.2991 P   0  0  2  0  0  5  0  0  0  0  0  0
   36.5024  -27.6870   30.3334 O   0  0  0  0  0  0  0  0  0  0  0  0
   37.8432  -28.4728   32.4295 O   0  0  0  0  0  0  0  0  0  0  0  0
   36.2575  -26.1912   33.4399 P   0  0  1  0  0  5  0  0  0  0  0  0
   36.9318  -27.3036   34.1937 O   0  0  0  0  0  0  0  0  0  0  0  0
   36.1034  -24.8541   34.4615 O   0  0  0  0  0  0  0  0  0  0  0  0
   34.6987  -26.7157   33.0413 O   0  0  0  0  0  0  0  0  0  0  0  0
   34.6959  -28.0912   33.0733 C   0  0  0  0  0  0  0  0  0  0  0  0
   33.4935  -28.6679   33.7719 C   0  0  1  0  0  0  0  0  0  0  0  0
   32.5096  -27.7091   34.0114 O   0  0  0  0  0  0  0  0  0  0  0  0
   31.4430  -28.5172   34.3895 C   0  0  2  0  0  0  0  0  0  0  0  0
   31.3584  -29.4706   33.2092 C   0  0  2  0  0  0  0  0  0  0  0  0
   30.6621  -30.6347   33.5329 O   0  0  0  0  0  0  0  0  0  0  0  0
   32.8465  -29.7788   32.9958 C   0  0  2  0  0  0  0  0  0  0  0  0
   33.0773  -30.9910   33.6557 O   0  0  0  0  0  0  0  0  0  0  0  0
   34.0251  -32.0454   32.7676 P   0  0  1  0  0  5  0  0  0  0  0  0
   33.7384  -31.8618   31.2890 O   0  0  0  0  0  0  0  0  0  0  0  0
   35.6573  -31.8451   33.1219 O   0  0  0  0  0  0  0  0  0  0  0  0
   33.5285  -33.6283   33.1569 O   0  0  0  0  0  0  0  0  0  0  0  0
   30.2182  -27.8044   34.5716 N   0  0  0  0  0  0  0  0  0  0  0  0
   30.0574  -26.5865   35.0859 C   0  0  0  0  0  0  0  0  0  0  0  0
   28.7329  -26.2560   35.0907 N   0  0  0  0  0  0  0  0  0  0  0  0
   25.7634  -26.4328   34.7011 N   0  0  0  0  0  0  0  0  0  0  0  0
   28.5107  -29.3905   33.7000 N   0  0  0  0  0  0  0  0  0  0  0  0
  1  5  2  0
 31  1  1  0
  2  3  1  0
 27  2  1  0
  2 31  2  0
  3  4  2  0
  3 29  1  0
  4  5  1  0
  4 30  1  0
  6  8  1  0
 11  6  1  0
  8  7  1  6
  8  9  2  0
  8 10  1  0
 11 12  2  0
 11 13  1  1
 14 11  1  0
 15 14  1  0
 16 15  1  6
 17 16  1  0
 16 21  1  0
 18 17  1  0
 18 19  1  0
 18 27  1  6
 19 20  1  1
 19 21  1  0
 21 22  1  1
 22 23  1  0
 23 24  2  0
 23 25  1  6
 23 26  1  0
 27 28  1  0
 28 29  2  0
M  END
$$$$
