
     RDKit          3D

 31 33  0  0  0  0  0  0  0  0999 V2000
   27.1057  -28.2670   34.7573 C   0  0  0  0  0  0  0  0  0  0  0  0
   29.3917  -27.7843   34.4472 C   0  0  0  0  0  0  0  0  0  0  0  0
   29.1270  -26.5097   34.9043 C   0  0  0  0  0  0  0  0  0  0  0  0
   27.8650  -26.0999   35.2896 C   0  0  0  0  0  0  0  0  0  0  0  0
   26.8795  -27.0121   35.2004 N   0  0  0  0  0  0  0  0  0  0  0  0
   35.7360  -28.5322   29.9106 O   0  0  0  0  0  0  0  0  0  0  0  0
   37.9731  -28.2030   28.2662 O   0  0  0  0  0  0  0  0  0  0  0  0
   37.2746  -29.0920   29.5252 P   0  0  2  0  0  5  0  0  0  0  0  0
   37.2334  -30.5451   29.0484 O   0  0  0  0  0  0  0  0  0  0  0  0
   38.2936  -29.0276   30.8876 O   0  0  0  0  0  0  0  0  0  0  0  0
   35.7416  -28.0144   31.5070 P   0  0  1  0  0  5  0  0  0  0  0  0
   37.1263  -27.5764   31.8959 O   0  0  0  0  0  0  0  0  0  0  0  0
   34.6787  -26.7182   31.7203 O   0  0  0  0  0  0  0  0  0  0  0  0
   35.2755  -29.2421   32.5744 O   0  0  0  0  0  0  0  0  0  0  0  0
   34.3118  -29.9999   31.9500 C   0  0  0  0  0  0  0  0  0  0  0  0
   33.0095  -30.0457   32.7040 C   0  0  1  0  0  0  0  0  0  0  0  0
   32.6822  -28.8145   33.2712 O   0  0  0  0  0  0  0  0  0  0  0  0
   31.3637  -29.0427   33.6494 C   0  0  2  0  0  0  0  0  0  0  0  0
   30.7529  -29.5049   32.3370 C   0  0  2  0  0  0  0  0  0  0  0  0
   29.5613  -30.2011   32.5374 O   0  0  0  0  0  0  0  0  0  0  0  0
   31.8510  -30.4550   31.8407 C   0  0  2  0  0  0  0  0  0  0  0  0
   31.4346  -31.7378   32.2140 O   0  0  0  0  0  0  0  0  0  0  0  0
   31.2312  -32.7623   30.9071 P   0  0  1  0  0  5  0  0  0  0  0  0
   30.8739  -34.1511   31.4027 O   0  0  0  0  0  0  0  0  0  0  0  0
   30.0832  -32.1621   29.8340 O   0  0  0  0  0  0  0  0  0  0  0  0
   32.7422  -32.9062   30.1325 O   0  0  0  0  0  0  0  0  0  0  0  0
   30.7006  -27.8810   34.1515 N   0  0  0  0  0  0  0  0  0  0  0  0
   31.2382  -26.6922   34.4190 C   0  0  0  0  0  0  0  0  0  0  0  0
   30.2765  -25.8418   34.8829 N   0  0  0  0  0  0  0  0  0  0  0  0
   27.6102  -24.7809   35.7588 N   0  0  0  0  0  0  0  0  0  0  0  0
   28.3427  -28.6391   34.3890 N   0  0  0  0  0  0  0  0  0  0  0  0
  1  5  2  0
 31  1  1  0
  2  3  1  0
 27  2  1  0
  2 31  2  0
  3  4  2  0
  3 29  1  0
  4  5  1  0
  4 30  1  0
  6  8  1  0
 11  6  1  0
  8  7  1  6
  8  9  2  0
  8 10  1  0
 11 12  2  0
 11 13  1  6
 14 11  1  0
 15 14  1  0
 16 15  1  6
 17 16  1  0
 16 21  1  0
 18 17  1  0
 18 19  1  0
 18 27  1  6
 19 20  1  1
 19 21  1  0
 21 22  1  1
 22 23  1  0
 23 24  2  0
 23 25  1  6
 23 26  1  0
 27 28  1  0
 28 29  2  0
M  END
$$$$
