
     RDKit          3D

 31 33  0  0  0  0  0  0  0  0999 V2000
   38.3770  -28.7422   31.7268 C   0  0  0  0  0  0  0  0  0  0  0  0
   36.3896  -27.4967   31.9602 C   0  0  0  0  0  0  0  0  0  0  0  0
   37.1502  -26.3577   31.7932 C   0  0  0  0  0  0  0  0  0  0  0  0
   38.5168  -26.3930   31.5932 C   0  0  0  0  0  0  0  0  0  0  0  0
   39.0928  -27.6091   31.5667 N   0  0  0  0  0  0  0  0  0  0  0  0
   28.2418  -27.6934   35.8538 O   0  0  0  0  0  0  0  0  0  0  0  0
   30.5858  -28.4627   37.1695 O   0  0  0  0  0  0  0  0  0  0  0  0
   28.9247  -28.1744   37.3138 P   0  0  2  0  0  5  0  0  0  0  0  0
   28.3073  -29.4829   37.8110 O   0  0  0  0  0  0  0  0  0  0  0  0
   28.6639  -26.9953   38.5138 O   0  0  0  0  0  0  0  0  0  0  0  0
   29.3273  -26.6865   35.0637 P   0  0  1  0  0  5  0  0  0  0  0  0
   28.7387  -26.2263   33.7590 O   0  0  0  0  0  0  0  0  0  0  0  0
   29.6859  -25.3325   36.0089 O   0  0  0  0  0  0  0  0  0  0  0  0
   30.7855  -27.4721   34.7174 O   0  0  0  0  0  0  0  0  0  0  0  0
   30.6628  -28.0625   33.4807 C   0  0  0  0  0  0  0  0  0  0  0  0
   31.9814  -28.4836   32.8886 C   0  0  1  0  0  0  0  0  0  0  0  0
   32.8014  -27.3950   32.5934 O   0  0  0  0  0  0  0  0  0  0  0  0
   34.0077  -28.0376   32.3378 C   0  0  2  0  0  0  0  0  0  0  0  0
   34.1873  -28.8510   33.6087 C   0  0  2  0  0  0  0  0  0  0  0  0
   35.0862  -29.9018   33.4282 O   0  0  0  0  0  0  0  0  0  0  0  0
   32.7630  -29.3911   33.7946 C   0  0  2  0  0  0  0  0  0  0  0  0
   32.7757  -30.6797   33.2492 O   0  0  0  0  0  0  0  0  0  0  0  0
   32.3847  -31.8630   34.3654 P   0  0  1  0  0  5  0  0  0  0  0  0
   33.5522  -32.8197   34.5196 O   0  0  0  0  0  0  0  0  0  0  0  0
   31.9263  -31.1871   35.8360 O   0  0  0  0  0  0  0  0  0  0  0  0
   31.1027  -32.7759   33.7123 O   0  0  0  0  0  0  0  0  0  0  0  0
   35.1031  -27.1434   32.1331 N   0  0  0  0  0  0  0  0  0  0  0  0
   35.0644  -25.8134   32.0748 C   0  0  0  0  0  0  0  0  0  0  0  0
   36.3204  -25.3213   31.8658 N   0  0  0  0  0  0  0  0  0  0  0  0
   39.2855  -25.2078   31.4227 N   0  0  0  0  0  0  0  0  0  0  0  0
   37.0492  -28.6791   31.9198 N   0  0  0  0  0  0  0  0  0  0  0  0
  1  5  2  0
 31  1  1  0
  2  3  1  0
 27  2  1  0
  2 31  2  0
  3  4  2  0
  3 29  1  0
  4  5  1  0
  4 30  1  0
  6  8  1  0
 11  6  1  0
  8  7  1  6
  8  9  2  0
  8 10  1  0
 11 12  2  0
 11 13  1  1
 14 11  1  0
 15 14  1  0
 16 15  1  1
 17 16  1  0
 16 21  1  0
 18 17  1  0
 18 19  1  0
 18 27  1  1
 19 20  1  6
 19 21  1  0
 21 22  1  6
 22 23  1  0
 23 24  2  0
 23 25  1  1
 23 26  1  0
 27 28  1  0
 28 29  2  0
M  END
$$$$
