
     RDKit          3D

 31 33  0  0  0  0  0  0  0  0999 V2000
   32.2215  -26.0465   36.2658 C   0  0  0  0  0  0  0  0  0  0  0  0
   31.1556  -26.9843   34.3844 C   0  0  0  0  0  0  0  0  0  0  0  0
   30.4493  -25.8049   34.2666 C   0  0  0  0  0  0  0  0  0  0  0  0
   30.6159  -24.7430   35.1346 C   0  0  0  0  0  0  0  0  0  0  0  0
   31.5145  -24.9054   36.1233 N   0  0  0  0  0  0  0  0  0  0  0  0
   35.3541  -32.0314   29.3016 O   0  0  0  0  0  0  0  0  0  0  0  0
   33.9472  -34.4149   28.9058 O   0  0  0  0  0  0  0  0  0  0  0  0
   34.5824  -33.0229   28.1833 P   0  0  2  0  0  5  0  0  0  0  0  0
   35.5555  -33.5082   27.1071 O   0  0  0  0  0  0  0  0  0  0  0  0
   33.3294  -32.1784   27.3990 O   0  0  0  0  0  0  0  0  0  0  0  0
   34.8361  -30.4532   29.0615 P   0  0  1  0  0  5  0  0  0  0  0  0
   35.9655  -29.4990   29.3345 O   0  0  0  0  0  0  0  0  0  0  0  0
   34.3059  -30.2317   27.4724 O   0  0  0  0  0  0  0  0  0  0  0  0
   33.5585  -30.0406   30.0916 O   0  0  0  0  0  0  0  0  0  0  0  0
   33.5888  -30.9002   31.1656 C   0  0  0  0  0  0  0  0  0  0  0  0
   32.5802  -30.5587   32.2298 C   0  0  1  0  0  0  0  0  0  0  0  0
   32.4156  -29.1823   32.3816 O   0  0  0  0  0  0  0  0  0  0  0  0
   31.2806  -29.1412   33.1840 C   0  0  2  0  0  0  0  0  0  0  0  0
   30.3083  -29.9764   32.3678 C   0  0  2  0  0  0  0  0  0  0  0  0
   29.2497  -30.4455   33.1451 O   0  0  0  0  0  0  0  0  0  0  0  0
   31.2223  -31.1368   31.9520 C   0  0  2  0  0  0  0  0  0  0  0  0
   30.9670  -32.1630   32.8685 O   0  0  0  0  0  0  0  0  0  0  0  0
   30.6287  -33.6257   32.1304 P   0  0  1  0  0  5  0  0  0  0  0  0
   29.1410  -33.7183   31.8474 O   0  0  0  0  0  0  0  0  0  0  0  0
   31.5486  -33.8337   30.7375 O   0  0  0  0  0  0  0  0  0  0  0  0
   30.9779  -34.8570   33.2555 O   0  0  0  0  0  0  0  0  0  0  0  0
   30.7780  -27.8215   33.4013 N   0  0  0  0  0  0  0  0  0  0  0  0
   29.8568  -27.1767   32.6876 C   0  0  0  0  0  0  0  0  0  0  0  0
   29.6482  -25.9343   33.2134 N   0  0  0  0  0  0  0  0  0  0  0  0
   29.8786  -23.5337   34.9980 N   0  0  0  0  0  0  0  0  0  0  0  0
   32.0396  -27.0636   35.4075 N   0  0  0  0  0  0  0  0  0  0  0  0
  1  5  2  0
 31  1  1  0
  2  3  1  0
 27  2  1  0
  2 31  2  0
  3  4  2  0
  3 29  1  0
  4  5  1  0
  4 30  1  0
  6  8  1  0
 11  6  1  0
  8  7  1  1
  8  9  2  0
  8 10  1  0
 11 12  2  0
 11 13  1  6
 14 11  1  0
 15 14  1  0
 16 15  1  6
 17 16  1  0
 16 21  1  0
 18 17  1  0
 18 19  1  0
 18 27  1  6
 19 20  1  1
 19 21  1  0
 21 22  1  1
 22 23  1  0
 23 24  2  0
 23 25  1  6
 23 26  1  0
 27 28  1  0
 28 29  2  0
M  END
$$$$
