
     RDKit          3D

 31 33  0  0  0  0  0  0  0  0999 V2000
   34.9061  -27.9089   28.8982 C   0  0  0  0  0  0  0  0  0  0  0  0
   33.2890  -28.8357   30.3410 C   0  0  0  0  0  0  0  0  0  0  0  0
   32.9261  -29.6723   29.3055 C   0  0  0  0  0  0  0  0  0  0  0  0
   33.5391  -29.6404   28.0677 C   0  0  0  0  0  0  0  0  0  0  0  0
   34.5273  -28.7413   27.9053 N   0  0  0  0  0  0  0  0  0  0  0  0
   33.0286  -31.3281   38.0618 O   0  0  0  0  0  0  0  0  0  0  0  0
   31.3163  -32.4635   39.9581 O   0  0  0  0  0  0  0  0  0  0  0  0
   32.1257  -31.0648   39.4563 P   0  0  2  0  0  5  0  0  0  0  0  0
   31.0447  -30.0069   39.2261 O   0  0  0  0  0  0  0  0  0  0  0  0
   33.1236  -30.5123   40.7201 O   0  0  0  0  0  0  0  0  0  0  0  0
   31.9735  -31.5024   36.7684 P   0  0  1  0  0  5  0  0  0  0  0  0
   32.6683  -32.2043   35.6348 O   0  0  0  0  0  0  0  0  0  0  0  0
   30.6168  -32.4034   37.2191 O   0  0  0  0  0  0  0  0  0  0  0  0
   31.4289  -30.0092   36.1876 O   0  0  0  0  0  0  0  0  0  0  0  0
   32.5076  -29.1565   36.1406 C   0  0  0  0  0  0  0  0  0  0  0  0
   32.6412  -28.4376   34.8246 C   0  0  1  0  0  0  0  0  0  0  0  0
   32.7555  -29.3180   33.7493 O   0  0  0  0  0  0  0  0  0  0  0  0
   32.5868  -28.4470   32.6786 C   0  0  2  0  0  0  0  0  0  0  0  0
   31.2640  -27.7894   33.0350 C   0  0  2  0  0  0  0  0  0  0  0  0
   31.0861  -26.5836   32.3575 O   0  0  0  0  0  0  0  0  0  0  0  0
   31.4767  -27.5353   34.5333 C   0  0  2  0  0  0  0  0  0  0  0  0
   31.8953  -26.2037   34.6327 O   0  0  0  0  0  0  0  0  0  0  0  0
   31.1289  -25.3706   35.8646 P   0  0  1  0  0  5  0  0  0  0  0  0
   32.1679  -24.7750   36.7962 O   0  0  0  0  0  0  0  0  0  0  0  0
   30.0866  -24.2002   35.2535 O   0  0  0  0  0  0  0  0  0  0  0  0
   30.2591  -26.5099   36.7860 O   0  0  0  0  0  0  0  0  0  0  0  0
   32.5175  -29.1017   31.4105 N   0  0  0  0  0  0  0  0  0  0  0  0
   31.6926  -30.0824   31.0481 C   0  0  0  0  0  0  0  0  0  0  0  0
   31.9373  -30.4399   29.7535 N   0  0  0  0  0  0  0  0  0  0  0  0
   33.1517  -30.5110   27.0110 N   0  0  0  0  0  0  0  0  0  0  0  0
   34.2929  -27.9611   30.0922 N   0  0  0  0  0  0  0  0  0  0  0  0
  1  5  2  0
 31  1  1  0
  2  3  1  0
 27  2  1  0
  2 31  2  0
  3  4  2  0
  3 29  1  0
  4  5  1  0
  4 30  1  0
  6  8  1  0
 11  6  1  0
  8  7  1  1
  8  9  2  0
  8 10  1  0
 11 12  2  0
 11 13  1  1
 14 11  1  0
 15 14  1  0
 16 15  1  1
 17 16  1  0
 16 21  1  0
 18 17  1  0
 18 19  1  0
 18 27  1  6
 19 20  1  6
 19 21  1  0
 21 22  1  6
 22 23  1  0
 23 24  2  0
 23 25  1  6
 23 26  1  0
 27 28  1  0
 28 29  2  0
M  END
$$$$
