
     RDKit          3D

 31 33  0  0  0  0  0  0  0  0999 V2000
   26.9084  -28.6339   33.8618 C   0  0  0  0  0  0  0  0  0  0  0  0
   29.1324  -27.9109   34.1559 C   0  0  0  0  0  0  0  0  0  0  0  0
   28.6259  -26.6739   34.4977 C   0  0  0  0  0  0  0  0  0  0  0  0
   27.2716  -26.4016   34.5264 C   0  0  0  0  0  0  0  0  0  0  0  0
   26.4447  -27.4123   34.2007 N   0  0  0  0  0  0  0  0  0  0  0  0
   37.7966  -27.6160   33.2593 O   0  0  0  0  0  0  0  0  0  0  0  0
   37.7870  -29.6733   31.3659 O   0  0  0  0  0  0  0  0  0  0  0  0
   37.6193  -28.0109   31.6339 P   0  0  2  0  0  5  0  0  0  0  0  0
   38.6898  -27.3316   30.7777 O   0  0  0  0  0  0  0  0  0  0  0  0
   36.1009  -27.5017   31.0565 O   0  0  0  0  0  0  0  0  0  0  0  0
   36.3134  -27.8108   34.0200 P   0  0  1  0  0  5  0  0  0  0  0  0
   36.4204  -28.8697   35.0820 O   0  0  0  0  0  0  0  0  0  0  0  0
   35.8139  -26.3652   34.7385 O   0  0  0  0  0  0  0  0  0  0  0  0
   35.1037  -28.2920   32.9389 O   0  0  0  0  0  0  0  0  0  0  0  0
   34.7683  -29.5934   33.2338 C   0  0  0  0  0  0  0  0  0  0  0  0
   33.3061  -29.7759   33.5422 C   0  0  1  0  0  0  0  0  0  0  0  0
   32.7086  -28.5990   33.9922 O   0  0  0  0  0  0  0  0  0  0  0  0
   31.3642  -28.9499   33.9365 C   0  0  2  0  0  0  0  0  0  0  0  0
   31.2358  -29.4096   32.4938 C   0  0  2  0  0  0  0  0  0  0  0  0
   30.1091  -30.2091   32.3035 O   0  0  0  0  0  0  0  0  0  0  0  0
   32.5151  -30.2457   32.3552 C   0  0  2  0  0  0  0  0  0  0  0  0
   32.1215  -31.5720   32.5652 O   0  0  0  0  0  0  0  0  0  0  0  0
   32.5154  -32.5780   31.2878 P   0  0  1  0  0  5  0  0  0  0  0  0
   33.9084  -33.1417   31.4977 O   0  0  0  0  0  0  0  0  0  0  0  0
   31.3680  -33.7922   31.0908 O   0  0  0  0  0  0  0  0  0  0  0  0
   32.5976  -31.6129   29.8858 O   0  0  0  0  0  0  0  0  0  0  0  0
   30.4756  -27.8674   34.2189 N   0  0  0  0  0  0  0  0  0  0  0  0
   30.7974  -26.6301   34.5918 C   0  0  0  0  0  0  0  0  0  0  0  0
   29.6646  -25.8884   34.7657 N   0  0  0  0  0  0  0  0  0  0  0  0
   26.7669  -25.1195   34.8814 N   0  0  0  0  0  0  0  0  0  0  0  0
   28.2303  -28.8713   33.8421 N   0  0  0  0  0  0  0  0  0  0  0  0
  1  5  2  0
 31  1  1  0
  2  3  1  0
 27  2  1  0
  2 31  2  0
  3  4  2  0
  3 29  1  0
  4  5  1  0
  4 30  1  0
  6  8  1  0
 11  6  1  0
  8  7  1  1
  8  9  2  0
  8 10  1  0
 11 12  2  0
 11 13  1  1
 14 11  1  0
 15 14  1  0
 16 15  1  6
 17 16  1  0
 16 21  1  0
 18 17  1  0
 18 19  1  0
 18 27  1  6
 19 20  1  1
 19 21  1  0
 21 22  1  1
 22 23  1  0
 23 24  2  0
 23 25  1  6
 23 26  1  0
 27 28  1  0
 28 29  2  0
M  END
$$$$
