
     RDKit          3D

 31 33  0  0  0  0  0  0  0  0999 V2000
   28.7335  -26.4720   30.9888 C   0  0  0  0  0  0  0  0  0  0  0  0
   30.3966  -26.5305   32.6580 C   0  0  0  0  0  0  0  0  0  0  0  0
   30.5031  -25.1617   32.5208 C   0  0  0  0  0  0  0  0  0  0  0  0
   29.7372  -24.4372   31.6279 C   0  0  0  0  0  0  0  0  0  0  0  0
   28.8619  -25.1328   30.8786 N   0  0  0  0  0  0  0  0  0  0  0  0
   36.8737  -29.6517   37.4042 O   0  0  0  0  0  0  0  0  0  0  0  0
   34.9492  -30.8492   39.0411 O   0  0  0  0  0  0  0  0  0  0  0  0
   36.2950  -31.0951   38.0454 P   0  0  2  0  0  5  0  0  0  0  0  0
   37.3505  -31.7778   38.9173 O   0  0  0  0  0  0  0  0  0  0  0  0
   35.8789  -32.1788   36.8001 O   0  0  0  0  0  0  0  0  0  0  0  0
   35.8122  -29.1347   36.2115 P   0  0  1  0  0  5  0  0  0  0  0  0
   36.0983  -27.7009   35.8612 O   0  0  0  0  0  0  0  0  0  0  0  0
   35.9693  -30.0790   34.8190 O   0  0  0  0  0  0  0  0  0  0  0  0
   34.1990  -29.2255   36.7146 O   0  0  0  0  0  0  0  0  0  0  0  0
   33.6024  -30.2606   36.0321 C   0  0  0  0  0  0  0  0  0  0  0  0
   32.4567  -29.8175   35.1617 C   0  0  1  0  0  0  0  0  0  0  0  0
   32.3728  -28.4290   35.0628 O   0  0  0  0  0  0  0  0  0  0  0  0
   31.4545  -28.2953   34.0272 C   0  0  2  0  0  0  0  0  0  0  0  0
   32.1058  -29.1353   32.9411 C   0  0  2  0  0  0  0  0  0  0  0  0
   31.1894  -29.5151   31.9609 O   0  0  0  0  0  0  0  0  0  0  0  0
   32.5474  -30.3542   33.7621 C   0  0  2  0  0  0  0  0  0  0  0  0
   31.5470  -31.3148   33.5761 O   0  0  0  0  0  0  0  0  0  0  0  0
   32.1589  -32.8493   33.3118 P   0  0  1  0  0  5  0  0  0  0  0  0
   33.3233  -33.0992   34.2519 O   0  0  0  0  0  0  0  0  0  0  0  0
   30.9608  -34.0195   33.4687 O   0  0  0  0  0  0  0  0  0  0  0  0
   32.8045  -32.8758   31.7350 O   0  0  0  0  0  0  0  0  0  0  0  0
   31.2648  -26.9458   33.5979 N   0  0  0  0  0  0  0  0  0  0  0  0
   31.8977  -25.8589   34.0358 C   0  0  0  0  0  0  0  0  0  0  0  0
   31.4350  -24.7559   33.3780 N   0  0  0  0  0  0  0  0  0  0  0  0
   29.8605  -23.0254   31.4998 N   0  0  0  0  0  0  0  0  0  0  0  0
   29.4910  -27.1519   31.8653 N   0  0  0  0  0  0  0  0  0  0  0  0
  1  5  2  0
 31  1  1  0
  2  3  1  0
 27  2  1  0
  2 31  2  0
  3  4  2  0
  3 29  1  0
  4  5  1  0
  4 30  1  0
  6  8  1  0
 11  6  1  0
  8  7  1  1
  8  9  2  0
  8 10  1  0
 11 12  2  0
 11 13  1  6
 14 11  1  0
 15 14  1  0
 16 15  1  1
 17 16  1  0
 16 21  1  0
 18 17  1  0
 18 19  1  0
 18 27  1  6
 19 20  1  6
 19 21  1  0
 21 22  1  1
 22 23  1  0
 23 24  2  0
 23 25  1  6
 23 26  1  0
 27 28  1  0
 28 29  2  0
M  END
$$$$
