
     RDKit          3D

 31 33  0  0  0  0  0  0  0  0999 V2000
   28.7237  -26.5061   30.8541 C   0  0  0  0  0  0  0  0  0  0  0  0
   30.4765  -27.9248   31.5399 C   0  0  0  0  0  0  0  0  0  0  0  0
   30.2990  -28.6208   30.3619 C   0  0  0  0  0  0  0  0  0  0  0  0
   29.3444  -28.2749   29.4249 C   0  0  0  0  0  0  0  0  0  0  0  0
   28.5753  -27.2080   29.7106 N   0  0  0  0  0  0  0  0  0  0  0  0
   38.1840  -27.8930   34.6563 O   0  0  0  0  0  0  0  0  0  0  0  0
   36.2624  -27.1544   32.7644 O   0  0  0  0  0  0  0  0  0  0  0  0
   37.5352  -26.6332   33.7501 P   0  0  2  0  0  5  0  0  0  0  0  0
   38.5809  -26.0289   32.8110 O   0  0  0  0  0  0  0  0  0  0  0  0
   36.9795  -25.3875   34.7689 O   0  0  0  0  0  0  0  0  0  0  0  0
   37.1800  -28.1762   35.9709 P   0  0  1  0  0  5  0  0  0  0  0  0
   37.6839  -29.3580   36.7518 O   0  0  0  0  0  0  0  0  0  0  0  0
   37.1320  -26.8288   36.9895 O   0  0  0  0  0  0  0  0  0  0  0  0
   35.5923  -28.5176   35.4953 O   0  0  0  0  0  0  0  0  0  0  0  0
   34.9764  -27.3244   35.1953 C   0  0  0  0  0  0  0  0  0  0  0  0
   33.5148  -27.4748   34.8676 C   0  0  1  0  0  0  0  0  0  0  0  0
   33.2967  -27.6953   33.5080 O   0  0  0  0  0  0  0  0  0  0  0  0
   31.9564  -28.0656   33.5145 C   0  0  2  0  0  0  0  0  0  0  0  0
   31.9676  -29.2078   34.5168 C   0  0  2  0  0  0  0  0  0  0  0  0
   30.6938  -29.4650   35.0228 O   0  0  0  0  0  0  0  0  0  0  0  0
   32.8661  -28.6093   35.6075 C   0  0  2  0  0  0  0  0  0  0  0  0
   31.9931  -28.0873   36.5686 O   0  0  0  0  0  0  0  0  0  0  0  0
   32.0214  -28.9421   38.0064 P   0  0  1  0  0  5  0  0  0  0  0  0
   30.8926  -29.9559   38.0155 O   0  0  0  0  0  0  0  0  0  0  0  0
   33.5192  -29.6655   38.2569 O   0  0  0  0  0  0  0  0  0  0  0  0
   31.6829  -27.8400   39.2612 O   0  0  0  0  0  0  0  0  0  0  0  0
   31.4729  -28.4958   32.2407 N   0  0  0  0  0  0  0  0  0  0  0  0
   31.9057  -29.5247   31.5142 C   0  0  0  0  0  0  0  0  0  0  0  0
   31.1885  -29.6090   30.3557 N   0  0  0  0  0  0  0  0  0  0  0  0
   29.1753  -29.0044   28.2150 N   0  0  0  0  0  0  0  0  0  0  0  0
   29.6600  -26.8643   31.7481 N   0  0  0  0  0  0  0  0  0  0  0  0
  1  5  2  0
 31  1  1  0
  2  3  1  0
 27  2  1  0
  2 31  2  0
  3  4  2  0
  3 29  1  0
  4  5  1  0
  4 30  1  0
  6  8  1  0
 11  6  1  0
  8  7  1  6
  8  9  2  0
  8 10  1  0
 11 12  2  0
 11 13  1  1
 14 11  1  0
 15 14  1  0
 16 15  1  6
 17 16  1  0
 16 21  1  0
 18 17  1  0
 18 19  1  0
 18 27  1  6
 19 20  1  1
 19 21  1  0
 21 22  1  1
 22 23  1  0
 23 24  2  0
 23 25  1  1
 23 26  1  0
 27 28  1  0
 28 29  2  0
M  END
$$$$
