
     RDKit          3D

 31 33  0  0  0  0  0  0  0  0999 V2000
   27.7226  -29.2827   31.1974 C   0  0  0  0  0  0  0  0  0  0  0  0
   28.8961  -28.6670   33.1466 C   0  0  0  0  0  0  0  0  0  0  0  0
   27.8607  -27.7997   33.4284 C   0  0  0  0  0  0  0  0  0  0  0  0
   26.7557  -27.6626   32.6104 C   0  0  0  0  0  0  0  0  0  0  0  0
   26.7259  -28.4247   31.5016 N   0  0  0  0  0  0  0  0  0  0  0  0
   34.7106  -28.0810   37.6393 O   0  0  0  0  0  0  0  0  0  0  0  0
   36.1580  -29.7679   39.3354 O   0  0  0  0  0  0  0  0  0  0  0  0
   36.2316  -28.6711   38.0490 P   0  0  2  0  0  5  0  0  0  0  0  0
   37.1604  -27.5436   38.5035 O   0  0  0  0  0  0  0  0  0  0  0  0
   36.9606  -29.4281   36.7096 O   0  0  0  0  0  0  0  0  0  0  0  0
   34.8932  -26.9282   36.4333 P   0  0  1  0  0  5  0  0  0  0  0  0
   34.0122  -25.7446   36.7221 O   0  0  0  0  0  0  0  0  0  0  0  0
   36.4975  -26.4055   36.3419 O   0  0  0  0  0  0  0  0  0  0  0  0
   34.4605  -27.5277   34.9111 O   0  0  0  0  0  0  0  0  0  0  0  0
   34.4599  -28.9017   34.9840 C   0  0  0  0  0  0  0  0  0  0  0  0
   33.1336  -29.5162   34.6235 C   0  0  1  0  0  0  0  0  0  0  0  0
   32.0690  -28.6410   34.8361 O   0  0  0  0  0  0  0  0  0  0  0  0
   31.0407  -29.3174   34.1890 C   0  0  2  0  0  0  0  0  0  0  0  0
   31.6418  -29.5231   32.8085 C   0  0  2  0  0  0  0  0  0  0  0  0
   30.9961  -30.5426   32.1095 O   0  0  0  0  0  0  0  0  0  0  0  0
   33.0652  -29.9528   33.1883 C   0  0  2  0  0  0  0  0  0  0  0  0
   33.0618  -31.3512   33.1364 O   0  0  0  0  0  0  0  0  0  0  0  0
   34.4091  -31.9773   32.3672 P   0  0  1  0  0  5  0  0  0  0  0  0
   35.4663  -32.3239   33.3989 O   0  0  0  0  0  0  0  0  0  0  0  0
   34.0056  -33.3007   31.4104 O   0  0  0  0  0  0  0  0  0  0  0  0
   35.0699  -30.7355   31.4055 O   0  0  0  0  0  0  0  0  0  0  0  0
   29.8203  -28.5777   34.1202 N   0  0  0  0  0  0  0  0  0  0  0  0
   29.3693  -27.6744   34.9887 C   0  0  0  0  0  0  0  0  0  0  0  0
   28.1634  -27.1902   34.5707 N   0  0  0  0  0  0  0  0  0  0  0  0
   25.6969  -26.7628   32.9169 N   0  0  0  0  0  0  0  0  0  0  0  0
   28.7858  -29.3963   32.0105 N   0  0  0  0  0  0  0  0  0  0  0  0
  1  5  2  0
 31  1  1  0
  2  3  1  0
 27  2  1  0
  2 31  2  0
  3  4  2  0
  3 29  1  0
  4  5  1  0
  4 30  1  0
  6  8  1  0
 11  6  1  0
  8  7  1  1
  8  9  2  0
  8 10  1  0
 11 12  2  0
 11 13  1  6
 14 11  1  0
 15 14  1  0
 16 15  1  6
 17 16  1  0
 16 21  1  0
 18 17  1  0
 18 19  1  0
 18 27  1  6
 19 20  1  1
 19 21  1  0
 21 22  1  1
 22 23  1  0
 23 24  2  0
 23 25  1  6
 23 26  1  0
 27 28  1  0
 28 29  2  0
M  END
$$$$
