
     RDKit          3D

 29 31  0  0  0  0  0  0  0  0999 V2000
   -0.4179  -38.9264   61.4882 C   0  0  0  0  0  0  0  0  0  0  0  0
   -2.5094  -35.1544   57.0688 C   0  0  0  0  0  0  0  0  0  0  0  0
   -0.5496  -38.1532   64.5578 C   0  0  0  0  0  0  0  0  0  0  0  0
   -0.7038  -39.6223   64.8465 C   0  0  2  0  0  0  0  0  0  0  0  0
   -1.0789  -40.2218   63.5234 C   0  0  2  0  0  0  0  0  0  0  0  0
   -2.5016  -37.3893   56.3675 C   0  0  0  0  0  0  0  0  0  0  0  0
   -2.1895  -36.4665   57.3384 C   0  0  0  0  0  0  0  0  0  0  0  0
   -1.5540  -36.8620   58.5987 C   0  0  0  0  0  0  0  0  0  0  0  0
   -1.5358  -38.1960   59.2383 C   0  0  0  0  0  0  0  0  0  0  0  0
   -3.1083  -34.7560   55.9020 C   0  0  0  0  0  0  0  0  0  0  0  0
   -3.4357  -35.6890   54.8945 C   0  0  0  0  0  0  0  0  0  0  0  0
   -3.1143  -36.9941   55.1711 C   0  0  0  0  0  0  0  0  0  0  0  0
   -3.6096  -35.0906   52.4574 C   0  0  0  0  0  0  0  0  0  0  0  0
   -4.4611  -35.6904   51.3977 C   0  0  0  0  0  0  0  0  0  0  0  0
   -3.9701  -36.6882   49.3555 C   0  0  0  0  0  0  0  0  0  0  0  0
   -2.7375  -36.2031   48.6236 C   0  0  0  0  0  0  0  0  0  0  0  0
   -1.3542  -39.0921   62.6176 C   0  0  1  0  0  0  0  0  0  0  0  0
   -1.4613  -37.8881   63.4390 N   0  0  0  0  0  4  0  0  0  0  0  0
   -0.7829  -38.0086   60.4373 N   0  0  0  0  0  4  0  0  0  0  0  0
   -0.4222  -36.7787   60.4754 N   0  0  0  0  0  0  0  0  0  0  0  0
   -0.8848  -36.0932   59.3721 N   0  0  0  0  0  0  0  0  0  0  0  0
   -1.5545  -36.4600   49.4188 N   0  0  0  0  0  0  0  0  0  0  0  0
   -0.7158  -35.3979   49.7861 N   0  0  0  0  0  0  0  0  0  0  0  0
    0.3187  -35.5268   50.4892 N   0  0  0  0  0  0  0  0  0  0  0  0
   -2.3007  -40.9579   63.6674 O   0  0  0  0  0  0  0  0  0  0  0  0
   -1.7406  -39.7511   65.7789 O   0  0  0  0  0  0  0  0  0  0  0  0
   -4.0348  -35.2330   53.7539 O   0  0  0  0  0  0  0  0  0  0  0  0
   -3.8389  -36.7274   50.7142 O   0  0  0  0  0  0  0  0  0  0  0  0
    0.7341  -36.4116   50.8172 H   0  0  0  0  0  0  0  0  0  0  0  0
 17  1  1  6
 19  1  1  0
  2  7  2  0
 10  2  1  0
  4  3  1  0
  3 18  1  0
  5  4  1  0
  4 26  1  1
 17  5  1  0
  5 25  1  1
  6  7  1  0
 12  6  2  0
  7  8  1  0
  8  9  1  0
  8 21  2  0
  9 19  1  0
 11 10  2  0
 11 12  1  0
 27 11  1  0
 14 13  1  0
 13 27  1  0
 28 14  1  0
 15 16  1  0
 15 28  1  0
 16 22  1  0
 17 18  1  0
 19 20  2  0
 20 21  1  0
 22 23  1  0
 23 24  2  0
 24 29  1  0
M  CHG  2  18   1  19   1
M  END
$$$$
