
     RDKit          3D

 29 31  0  0  0  0  0  0  0  0999 V2000
   -0.1312  -38.8162   61.6115 C   0  0  0  0  0  0  0  0  0  0  0  0
   -2.9246  -37.4334   56.6406 C   0  0  0  0  0  0  0  0  0  0  0  0
   -0.3940  -37.7295   64.5760 C   0  0  0  0  0  0  0  0  0  0  0  0
   -0.7160  -39.1410   64.9875 C   0  0  2  0  0  0  0  0  0  0  0  0
   -1.0584  -39.8323   63.7008 C   0  0  2  0  0  0  0  0  0  0  0  0
   -0.9819  -38.2788   55.6416 C   0  0  0  0  0  0  0  0  0  0  0  0
   -1.7361  -38.1152   56.7800 C   0  0  0  0  0  0  0  0  0  0  0  0
   -1.2986  -38.6456   58.0747 C   0  0  0  0  0  0  0  0  0  0  0  0
   -0.9225  -37.8962   59.2937 C   0  0  0  0  0  0  0  0  0  0  0  0
   -3.3615  -36.9309   55.4426 C   0  0  0  0  0  0  0  0  0  0  0  0
   -2.6007  -37.0892   54.2641 C   0  0  0  0  0  0  0  0  0  0  0  0
   -1.4184  -37.7701   54.4114 C   0  0  0  0  0  0  0  0  0  0  0  0
   -4.1453  -35.7452   52.8027 C   0  0  0  0  0  0  0  0  0  0  0  0
   -3.8445  -34.5142   52.0270 C   0  0  0  0  0  0  0  0  0  0  0  0
   -4.9599  -33.6410   50.1829 C   0  0  0  0  0  0  0  0  0  0  0  0
   -4.2225  -32.3992   49.7308 C   0  0  0  0  0  0  0  0  0  0  0  0
   -1.1548  -38.7784   62.6748 C   0  0  1  0  0  0  0  0  0  0  0  0
   -1.1952  -37.4933   63.3695 N   0  0  0  0  0  4  0  0  0  0  0  0
   -0.5807  -38.9058   60.2442 N   0  0  0  0  0  4  0  0  0  0  0  0
   -0.7419  -40.0419   59.6717 N   0  0  0  0  0  0  0  0  0  0  0  0
   -1.1728  -39.8838   58.3715 N   0  0  0  0  0  0  0  0  0  0  0  0
   -5.0259  -31.6648   48.7754 N   0  0  0  0  0  0  0  0  0  0  0  0
   -6.1815  -32.2503   48.2385 N   0  0  0  0  0  0  0  0  0  0  0  0
   -7.0096  -31.6412   47.5145 N   0  0  0  0  0  0  0  0  0  0  0  0
   -2.3556  -40.4315   63.8169 O   0  0  0  0  0  0  0  0  0  0  0  0
   -1.8220  -39.0769   65.8439 O   0  0  0  0  0  0  0  0  0  0  0  0
   -3.0892  -36.5695   53.0984 O   0  0  0  0  0  0  0  0  0  0  0  0
   -4.1535  -34.6259   50.6773 O   0  0  0  0  0  0  0  0  0  0  0  0
   -7.0205  -30.6313   47.3069 H   0  0  0  0  0  0  0  0  0  0  0  0
 17  1  1  6
 19  1  1  0
  2  7  2  0
 10  2  1  0
  4  3  1  0
  3 18  1  0
  5  4  1  0
  4 26  1  1
 17  5  1  0
  5 25  1  1
  6  7  1  0
 12  6  2  0
  7  8  1  0
  8  9  1  0
  8 21  2  0
  9 19  1  0
 11 10  2  0
 11 12  1  0
 27 11  1  0
 14 13  1  0
 13 27  1  0
 28 14  1  0
 15 16  1  0
 15 28  1  0
 16 22  1  0
 17 18  1  0
 19 20  2  0
 20 21  1  0
 22 23  1  0
 23 24  2  0
 24 29  1  0
M  CHG  2  18   1  19   1
M  END
$$$$
