
     RDKit          3D

 29 31  0  0  0  0  0  0  0  0999 V2000
   -0.7152  -39.8713   61.0681 C   0  0  0  0  0  0  0  0  0  0  0  0
   -2.9450  -38.1882   56.0717 C   0  0  0  0  0  0  0  0  0  0  0  0
   -0.0556  -37.9645   63.5109 C   0  0  0  0  0  0  0  0  0  0  0  0
    0.3139  -39.2024   64.2834 C   0  0  2  0  0  0  0  0  0  0  0  0
   -0.2850  -40.3259   63.4900 C   0  0  2  0  0  0  0  0  0  0  0  0
   -2.8188  -35.9540   56.7639 C   0  0  0  0  0  0  0  0  0  0  0  0
   -2.5980  -37.2814   57.0484 C   0  0  0  0  0  0  0  0  0  0  0  0
   -2.0169  -37.7075   58.3250 C   0  0  0  0  0  0  0  0  0  0  0  0
   -1.7423  -39.0834   58.7945 C   0  0  0  0  0  0  0  0  0  0  0  0
   -3.4851  -37.8190   54.8674 C   0  0  0  0  0  0  0  0  0  0  0  0
   -3.7188  -36.4616   54.5581 C   0  0  0  0  0  0  0  0  0  0  0  0
   -3.3699  -35.5645   55.5362 C   0  0  0  0  0  0  0  0  0  0  0  0
   -3.8440  -36.3596   52.0478 C   0  0  0  0  0  0  0  0  0  0  0  0
   -2.4491  -35.9711   51.7144 C   0  0  0  0  0  0  0  0  0  0  0  0
   -1.1175  -35.4556   49.8790 C   0  0  0  0  0  0  0  0  0  0  0  0
   -0.7867  -34.2408   50.7187 C   0  0  0  0  0  0  0  0  0  0  0  0
   -1.1468  -39.7021   62.4698 C   0  0  1  0  0  0  0  0  0  0  0  0
   -1.3168  -38.2983   62.8391 N   0  0  0  0  0  4  0  0  0  0  0  0
   -1.1825  -38.9128   60.0972 N   0  0  0  0  0  4  0  0  0  0  0  0
   -1.1349  -37.6531   60.3323 N   0  0  0  0  0  0  0  0  0  0  0  0
   -1.6351  -36.9323   59.2685 N   0  0  0  0  0  0  0  0  0  0  0  0
    0.2485  -33.4589   50.0745 N   0  0  0  0  0  0  0  0  0  0  0  0
    0.1677  -32.0589   50.0739 N   0  0  0  0  0  0  0  0  0  0  0  0
    1.0162  -31.3038   49.5346 N   0  0  0  0  0  0  0  0  0  0  0  0
   -1.1331  -41.1067   64.3423 O   0  0  0  0  0  0  0  0  0  0  0  0
   -0.2828  -39.0923   65.5454 O   0  0  0  0  0  0  0  0  0  0  0  0
   -4.2565  -36.1540   53.3399 O   0  0  0  0  0  0  0  0  0  0  0  0
   -2.1013  -36.2477   50.3982 O   0  0  0  0  0  0  0  0  0  0  0  0
    1.7282  -31.5745   48.8398 H   0  0  0  0  0  0  0  0  0  0  0  0
 17  1  1  6
 19  1  1  0
  2  7  2  0
 10  2  1  0
  4  3  1  0
  3 18  1  0
  5  4  1  0
  4 26  1  1
 17  5  1  0
  5 25  1  1
  6  7  1  0
 12  6  2  0
  7  8  1  0
  8  9  1  0
  8 21  2  0
  9 19  1  0
 11 10  2  0
 11 12  1  0
 27 11  1  0
 14 13  1  0
 13 27  1  0
 28 14  1  0
 15 16  1  0
 15 28  1  0
 16 22  1  0
 17 18  1  0
 19 20  2  0
 20 21  1  0
 22 23  1  0
 23 24  2  0
 24 29  1  0
M  CHG  2  18   1  19   1
M  END
$$$$
