
     RDKit          3D

 29 31  0  0  0  0  0  0  0  0999 V2000
   -1.1363  -39.1522   61.1498 C   0  0  0  0  0  0  0  0  0  0  0  0
   -2.1269  -34.7762   56.8834 C   0  0  0  0  0  0  0  0  0  0  0  0
    0.5637  -38.9652   63.8170 C   0  0  0  0  0  0  0  0  0  0  0  0
   -0.3412  -40.0268   64.3821 C   0  0  2  0  0  0  0  0  0  0  0  0
   -1.5228  -40.0360   63.4578 C   0  0  2  0  0  0  0  0  0  0  0  0
   -2.7401  -36.9100   56.1366 C   0  0  0  0  0  0  0  0  0  0  0  0
   -2.2352  -36.1238   57.1458 C   0  0  0  0  0  0  0  0  0  0  0  0
   -1.8385  -36.6922   58.4375 C   0  0  0  0  0  0  0  0  0  0  0  0
   -1.8304  -38.1126   58.8515 C   0  0  0  0  0  0  0  0  0  0  0  0
   -2.4945  -34.2161   55.6876 C   0  0  0  0  0  0  0  0  0  0  0  0
   -3.0143  -35.0074   54.6405 C   0  0  0  0  0  0  0  0  0  0  0  0
   -3.1196  -36.3488   54.9102 C   0  0  0  0  0  0  0  0  0  0  0  0
   -4.5217  -34.3632   52.7325 C   0  0  0  0  0  0  0  0  0  0  0  0
   -4.8159  -33.1111   51.9886 C   0  0  0  0  0  0  0  0  0  0  0  0
   -6.3979  -34.3540   50.8226 C   0  0  0  0  0  0  0  0  0  0  0  0
   -6.8731  -35.3467   51.8614 C   0  0  0  0  0  0  0  0  0  0  0  0
   -1.3725  -38.8628   62.5782 C   0  0  1  0  0  0  0  0  0  0  0  0
   -0.3354  -38.0113   63.1573 N   0  0  0  0  0  4  0  0  0  0  0  0
   -1.3600  -38.0906   60.1997 N   0  0  0  0  0  4  0  0  0  0  0  0
   -1.1286  -36.8668   60.5052 N   0  0  0  0  0  0  0  0  0  0  0  0
   -1.4155  -36.0303   59.4474 N   0  0  0  0  0  0  0  0  0  0  0  0
   -7.9110  -36.1896   51.3046 N   0  0  0  0  0  0  0  0  0  0  0  0
   -8.7757  -36.8889   52.1587 N   0  0  0  0  0  0  0  0  0  0  0  0
   -8.3920  -37.6100   53.1147 N   0  0  0  0  0  0  0  0  0  0  0  0
   -2.7212  -39.8436   64.2208 O   0  0  0  0  0  0  0  0  0  0  0  0
   -0.7028  -39.6150   65.6707 O   0  0  0  0  0  0  0  0  0  0  0  0
   -3.3666  -34.3923   53.4721 O   0  0  0  0  0  0  0  0  0  0  0  0
   -6.0382  -33.1380   51.3291 O   0  0  0  0  0  0  0  0  0  0  0  0
   -7.4241  -37.7221   53.4517 H   0  0  0  0  0  0  0  0  0  0  0  0
 17  1  1  6
 19  1  1  0
  2  7  2  0
 10  2  1  0
  4  3  1  0
  3 18  1  0
  5  4  1  0
  4 26  1  1
 17  5  1  0
  5 25  1  1
  6  7  1  0
 12  6  2  0
  7  8  1  0
  8  9  1  0
  8 21  2  0
  9 19  1  0
 11 10  2  0
 11 12  1  0
 27 11  1  0
 14 13  1  0
 13 27  1  0
 28 14  1  0
 15 16  1  0
 15 28  1  0
 16 22  1  0
 17 18  1  0
 19 20  2  0
 20 21  1  0
 22 23  1  0
 23 24  2  0
 24 29  1  0
M  CHG  2  18   1  19   1
M  END
$$$$
