
     RDKit          3D

 29 31  0  0  0  0  0  0  0  0999 V2000
   -0.3912  -37.4276   62.9805 C   0  0  0  0  0  0  0  0  0  0  0  0
   -2.9388  -35.3322   57.7415 C   0  0  0  0  0  0  0  0  0  0  0  0
   -1.4131  -40.0372   61.5026 C   0  0  0  0  0  0  0  0  0  0  0  0
   -1.9591  -40.4876   62.8309 C   0  0  2  0  0  0  0  0  0  0  0  0
   -1.2668  -39.6106   63.8320 C   0  0  2  0  0  0  0  0  0  0  0  0
   -0.6103  -35.5343   57.5857 C   0  0  0  0  0  0  0  0  0  0  0  0
   -1.7471  -35.6589   58.3497 C   0  0  0  0  0  0  0  0  0  0  0  0
   -1.6922  -36.1220   59.7394 C   0  0  0  0  0  0  0  0  0  0  0  0
   -0.5156  -36.5888   60.5054 C   0  0  0  0  0  0  0  0  0  0  0  0
   -3.0213  -34.9016   56.4429 C   0  0  0  0  0  0  0  0  0  0  0  0
   -1.8653  -34.7675   55.6439 C   0  0  0  0  0  0  0  0  0  0  0  0
   -0.6822  -35.0955   56.2571 C   0  0  0  0  0  0  0  0  0  0  0  0
   -1.7195  -34.8944   53.1358 C   0  0  0  0  0  0  0  0  0  0  0  0
   -2.6183  -34.5497   52.0040 C   0  0  0  0  0  0  0  0  0  0  0  0
   -4.4757  -35.2120   50.7716 C   0  0  0  0  0  0  0  0  0  0  0  0
   -4.3319  -35.9772   49.4738 C   0  0  0  0  0  0  0  0  0  0  0  0
   -0.2138  -38.8888   63.0953 C   0  0  1  0  0  0  0  0  0  0  0  0
   -0.0640  -39.5397   61.7953 N   0  0  0  0  0  4  0  0  0  0  0  0
   -1.0341  -36.9164   61.7951 N   0  0  0  0  0  4  0  0  0  0  0  0
   -2.2926  -36.6709   61.7762 N   0  0  0  0  0  0  0  0  0  0  0  0
   -2.6850  -36.1943   60.5433 N   0  0  0  0  0  0  0  0  0  0  0  0
   -3.6971  -35.1439   48.4737 N   0  0  0  0  0  0  0  0  0  0  0  0
   -4.4808  -34.3296   47.6435 N   0  0  0  0  0  0  0  0  0  0  0  0
   -5.0533  -34.7314   46.5986 N   0  0  0  0  0  0  0  0  0  0  0  0
   -0.6141  -40.4323   64.8088 O   0  0  0  0  0  0  0  0  0  0  0  0
   -1.5963  -41.8307   62.9900 O   0  0  0  0  0  0  0  0  0  0  0  0
   -2.0103  -34.3368   54.3551 O   0  0  0  0  0  0  0  0  0  0  0  0
   -3.5523  -35.5389   51.7230 O   0  0  0  0  0  0  0  0  0  0  0  0
   -5.1526  -35.7095   46.2880 H   0  0  0  0  0  0  0  0  0  0  0  0
 17  1  1  6
 19  1  1  0
  2  7  2  0
 10  2  1  0
  4  3  1  0
  3 18  1  0
  5  4  1  0
  4 26  1  1
 17  5  1  0
  5 25  1  1
  6  7  1  0
 12  6  2  0
  7  8  1  0
  8  9  1  0
  8 21  2  0
  9 19  1  0
 11 10  2  0
 11 12  1  0
 27 11  1  0
 14 13  1  0
 13 27  1  0
 28 14  1  0
 15 16  1  0
 15 28  1  0
 16 22  1  0
 17 18  1  0
 19 20  2  0
 20 21  1  0
 22 23  1  0
 23 24  2  0
 24 29  1  0
M  CHG  2  18   1  19   1
M  END
$$$$
