
     RDKit          3D

 29 31  0  0  0  0  0  0  0  0999 V2000
   22.0917  -46.9766   28.1260 C   0  0  0  0  0  0  0  0  0  0  0  0
   24.4692  -47.4428   33.7365 C   0  0  0  0  0  0  0  0  0  0  0  0
   22.1263  -45.7168   25.2191 C   0  0  0  0  0  0  0  0  0  0  0  0
   21.6753  -47.0597   24.7107 C   0  0  2  0  0  0  0  0  0  0  0  0
   21.9556  -47.9984   25.8468 C   0  0  2  0  0  0  0  0  0  0  0  0
   25.3916  -45.5620   32.6884 C   0  0  0  0  0  0  0  0  0  0  0  0
   24.6292  -46.7021   32.5865 C   0  0  0  0  0  0  0  0  0  0  0  0
   24.0136  -47.1042   31.3184 C   0  0  0  0  0  0  0  0  0  0  0  0
   23.2079  -46.2829   30.3883 C   0  0  0  0  0  0  0  0  0  0  0  0
   25.0284  -47.0889   34.9368 C   0  0  0  0  0  0  0  0  0  0  0  0
   25.8138  -45.9224   35.0601 C   0  0  0  0  0  0  0  0  0  0  0  0
   25.9679  -45.1898   33.9100 C   0  0  0  0  0  0  0  0  0  0  0  0
   27.5919  -45.7608   36.8322 C   0  0  0  0  0  0  0  0  0  0  0  0
   27.7561  -45.3531   38.2515 C   0  0  0  0  0  0  0  0  0  0  0  0
   30.0222  -45.8484   38.4149 C   0  0  0  0  0  0  0  0  0  0  0  0
   31.0171  -45.3296   39.4304 C   0  0  0  0  0  0  0  0  0  0  0  0
   22.7481  -47.2377   26.8296 C   0  0  1  0  0  0  0  0  0  0  0  0
   23.2011  -46.0131   26.1731 N   0  0  0  0  0  4  0  0  0  0  0  0
   22.8654  -47.1747   29.3268 N   0  0  0  0  0  4  0  0  0  0  0  0
   23.3923  -48.3123   29.5965 N   0  0  0  0  0  0  0  0  0  0  0  0
   24.0806  -48.2678   30.7905 N   0  0  0  0  0  0  0  0  0  0  0  0
   31.1223  -46.2545   40.5399 N   0  0  0  0  0  0  0  0  0  0  0  0
   31.0759  -45.7740   41.8565 N   0  0  0  0  0  0  0  0  0  0  0  0
   32.0885  -45.6118   42.5842 N   0  0  0  0  0  0  0  0  0  0  0  0
   22.7794  -49.0743   25.3787 O   0  0  0  0  0  0  0  0  0  0  0  0
   22.4622  -47.3608   23.5922 O   0  0  0  0  0  0  0  0  0  0  0  0
   26.3426  -45.6191   36.2832 O   0  0  0  0  0  0  0  0  0  0  0  0
   28.7646  -46.0460   38.9091 O   0  0  0  0  0  0  0  0  0  0  0  0
   33.0459  -45.9411   42.3896 H   0  0  0  0  0  0  0  0  0  0  0  0
 17  1  1  1
 19  1  1  0
  2  7  2  0
 10  2  1  0
  4  3  1  0
  3 18  1  0
  5  4  1  0
  4 26  1  6
 17  5  1  0
  5 25  1  6
  6  7  1  0
 12  6  2  0
  7  8  1  0
  8  9  1  0
  8 21  2  0
  9 19  1  0
 11 10  2  0
 11 12  1  0
 27 11  1  0
 14 13  1  0
 13 27  1  0
 28 14  1  0
 15 16  1  0
 15 28  1  0
 16 22  1  0
 17 18  1  0
 19 20  2  0
 20 21  1  0
 22 23  1  0
 23 24  2  0
 24 29  1  0
M  CHG  2  18   1  19   1
M  END
$$$$
