
     RDKit          3D

 29 31  0  0  0  0  0  0  0  0999 V2000
   -0.6351  -39.4785   61.4612 C   0  0  0  0  0  0  0  0  0  0  0  0
   -2.6568  -36.7570   56.2805 C   0  0  0  0  0  0  0  0  0  0  0  0
    0.4825  -37.8554   63.9421 C   0  0  0  0  0  0  0  0  0  0  0  0
    0.1439  -39.0544   64.7865 C   0  0  2  0  0  0  0  0  0  0  0  0
   -0.7865  -39.8600   63.9287 C   0  0  2  0  0  0  0  0  0  0  0  0
   -2.0092  -38.9806   55.9299 C   0  0  0  0  0  0  0  0  0  0  0  0
   -2.1508  -37.9268   56.8023 C   0  0  0  0  0  0  0  0  0  0  0  0
   -1.7866  -38.0461   58.2171 C   0  0  0  0  0  0  0  0  0  0  0  0
   -1.2837  -39.2361   58.9382 C   0  0  0  0  0  0  0  0  0  0  0  0
   -3.0105  -36.6178   54.9637 C   0  0  0  0  0  0  0  0  0  0  0  0
   -2.8721  -37.6884   54.0540 C   0  0  0  0  0  0  0  0  0  0  0  0
   -2.3678  -38.8504   54.5818 C   0  0  0  0  0  0  0  0  0  0  0  0
   -3.1889  -36.4107   51.9104 C   0  0  0  0  0  0  0  0  0  0  0  0
   -4.3021  -35.4302   51.9946 C   0  0  0  0  0  0  0  0  0  0  0  0
   -3.4044  -34.6110   50.0121 C   0  0  0  0  0  0  0  0  0  0  0  0
   -2.1121  -33.8265   49.9429 C   0  0  0  0  0  0  0  0  0  0  0  0
   -1.1268  -39.0114   62.7726 C   0  0  1  0  0  0  0  0  0  0  0  0
   -0.6902  -37.6518   63.0838 N   0  0  0  0  0  4  0  0  0  0  0  0
   -1.0981  -38.7895   60.2819 N   0  0  0  0  0  4  0  0  0  0  0  0
   -1.4291  -37.5513   60.3237 N   0  0  0  0  0  0  0  0  0  0  0  0
   -1.8410  -37.1074   59.0849 N   0  0  0  0  0  0  0  0  0  0  0  0
   -2.3387  -32.4586   50.3615 N   0  0  0  0  0  0  0  0  0  0  0  0
   -2.9098  -31.5405   49.4685 N   0  0  0  0  0  0  0  0  0  0  0  0
   -3.1016  -30.3261   49.7321 N   0  0  0  0  0  0  0  0  0  0  0  0
   -2.0020  -40.1032   64.6490 O   0  0  0  0  0  0  0  0  0  0  0  0
   -0.5014  -38.5791   65.9348 O   0  0  0  0  0  0  0  0  0  0  0  0
   -3.2445  -37.4912   52.7540 O   0  0  0  0  0  0  0  0  0  0  0  0
   -4.1575  -34.3584   51.1229 O   0  0  0  0  0  0  0  0  0  0  0  0
   -2.7698  -29.8168   50.5649 H   0  0  0  0  0  0  0  0  0  0  0  0
 17  1  1  6
 19  1  1  0
  2  7  2  0
 10  2  1  0
  4  3  1  0
  3 18  1  0
  5  4  1  0
  4 26  1  1
 17  5  1  0
  5 25  1  1
  6  7  1  0
 12  6  2  0
  7  8  1  0
  8  9  1  0
  8 21  2  0
  9 19  1  0
 11 10  2  0
 11 12  1  0
 27 11  1  0
 14 13  1  0
 13 27  1  0
 28 14  1  0
 15 16  1  0
 15 28  1  0
 16 22  1  0
 17 18  1  0
 19 20  2  0
 20 21  1  0
 22 23  1  0
 23 24  2  0
 24 29  1  0
M  CHG  2  18   1  19   1
M  END
$$$$
