
     RDKit          3D

 29 31  0  0  0  0  0  0  0  0999 V2000
   -0.4442  -39.6577   61.4829 C   0  0  0  0  0  0  0  0  0  0  0  0
   -1.7222  -35.8802   56.7561 C   0  0  0  0  0  0  0  0  0  0  0  0
   -0.0007  -38.0348   64.1677 C   0  0  0  0  0  0  0  0  0  0  0  0
    0.0211  -39.3606   64.8799 C   0  0  2  0  0  0  0  0  0  0  0  0
   -0.5709  -40.3213   63.8914 C   0  0  2  0  0  0  0  0  0  0  0  0
   -3.0430  -37.8144   56.7215 C   0  0  0  0  0  0  0  0  0  0  0  0
   -2.0816  -37.0653   57.3587 C   0  0  0  0  0  0  0  0  0  0  0  0
   -1.4751  -37.5045   58.6189 C   0  0  0  0  0  0  0  0  0  0  0  0
   -1.5092  -38.8497   59.2339 C   0  0  0  0  0  0  0  0  0  0  0  0
   -2.2754  -35.4417   55.5813 C   0  0  0  0  0  0  0  0  0  0  0  0
   -3.2632  -36.1972   54.9133 C   0  0  0  0  0  0  0  0  0  0  0  0
   -3.6160  -37.3762   55.5204 C   0  0  0  0  0  0  0  0  0  0  0  0
   -4.2711  -36.2992   52.6107 C   0  0  0  0  0  0  0  0  0  0  0  0
   -3.2900  -36.6338   51.5462 C   0  0  0  0  0  0  0  0  0  0  0  0
   -1.9223  -35.7659   49.8778 C   0  0  0  0  0  0  0  0  0  0  0  0
   -1.3916  -37.1810   49.7991 C   0  0  0  0  0  0  0  0  0  0  0  0
   -1.1126  -39.5046   62.7904 C   0  0  1  0  0  0  0  0  0  0  0  0
   -1.1406  -38.1167   63.2473 N   0  0  0  0  0  4  0  0  0  0  0  0
   -0.7655  -38.7094   60.4450 N   0  0  0  0  0  4  0  0  0  0  0  0
   -0.3646  -37.4930   60.5101 N   0  0  0  0  0  0  0  0  0  0  0  0
   -0.7905  -36.7726   59.4143 N   0  0  0  0  0  0  0  0  0  0  0  0
   -0.6750  -37.3741   48.5553 N   0  0  0  0  0  0  0  0  0  0  0  0
    0.0824  -36.3246   48.0156 N   0  0  0  0  0  0  0  0  0  0  0  0
    0.8537  -36.4457   47.0300 N   0  0  0  0  0  0  0  0  0  0  0  0
   -1.6768  -41.0024   64.4984 O   0  0  0  0  0  0  0  0  0  0  0  0
   -0.7887  -39.2304   66.0149 O   0  0  0  0  0  0  0  0  0  0  0  0
   -3.7804  -35.7074   53.7470 O   0  0  0  0  0  0  0  0  0  0  0  0
   -2.6970  -35.5155   50.9742 O   0  0  0  0  0  0  0  0  0  0  0  0
    0.9475  -37.2710   46.4191 H   0  0  0  0  0  0  0  0  0  0  0  0
 17  1  1  6
 19  1  1  0
  2  7  2  0
 10  2  1  0
  4  3  1  0
  3 18  1  0
  5  4  1  0
  4 26  1  1
 17  5  1  0
  5 25  1  1
  6  7  1  0
 12  6  2  0
  7  8  1  0
  8  9  1  0
  8 21  2  0
  9 19  1  0
 11 10  2  0
 11 12  1  0
 27 11  1  0
 14 13  1  0
 13 27  1  0
 28 14  1  0
 15 16  1  0
 15 28  1  0
 16 22  1  0
 17 18  1  0
 19 20  2  0
 20 21  1  0
 22 23  1  0
 23 24  2  0
 24 29  1  0
M  CHG  2  18   1  19   1
M  END
$$$$
