
     RDKit          3D

 29 31  0  0  0  0  0  0  0  0999 V2000
   -0.1340  -38.9222   61.2862 C   0  0  0  0  0  0  0  0  0  0  0  0
   -2.6417  -38.4535   56.1404 C   0  0  0  0  0  0  0  0  0  0  0  0
    0.6192  -38.4566   64.3282 C   0  0  0  0  0  0  0  0  0  0  0  0
    0.0889  -39.8396   64.5957 C   0  0  2  0  0  0  0  0  0  0  0  0
   -0.7181  -40.1688   63.3747 C   0  0  2  0  0  0  0  0  0  0  0  0
   -3.3298  -36.2883   56.7110 C   0  0  0  0  0  0  0  0  0  0  0  0
   -2.6213  -37.4179   57.0481 C   0  0  0  0  0  0  0  0  0  0  0  0
   -1.8773  -37.5111   58.3077 C   0  0  0  0  0  0  0  0  0  0  0  0
   -1.4533  -38.7276   59.0353 C   0  0  0  0  0  0  0  0  0  0  0  0
   -3.3238  -38.3929   54.9531 C   0  0  0  0  0  0  0  0  0  0  0  0
   -4.0564  -37.2419   54.5906 C   0  0  0  0  0  0  0  0  0  0  0  0
   -4.0305  -36.2146   55.5000 C   0  0  0  0  0  0  0  0  0  0  0  0
   -4.3467  -37.5750   52.1141 C   0  0  0  0  0  0  0  0  0  0  0  0
   -4.3964  -36.4980   51.0917 C   0  0  0  0  0  0  0  0  0  0  0  0
   -2.3486  -36.0696   50.0768 C   0  0  0  0  0  0  0  0  0  0  0  0
   -1.2998  -35.0161   49.7928 C   0  0  0  0  0  0  0  0  0  0  0  0
   -0.8191  -38.9227   62.5940 C   0  0  1  0  0  0  0  0  0  0  0  0
   -0.3809  -37.8281   63.4575 N   0  0  0  0  0  4  0  0  0  0  0  0
   -0.7717  -38.2358   60.1899 N   0  0  0  0  0  4  0  0  0  0  0  0
   -0.7926  -36.9550   60.1310 N   0  0  0  0  0  0  0  0  0  0  0  0
   -1.4553  -36.5226   59.0018 N   0  0  0  0  0  0  0  0  0  0  0  0
    0.0232  -35.5568   50.0270 N   0  0  0  0  0  0  0  0  0  0  0  0
    1.0130  -34.7526   50.6104 N   0  0  0  0  0  0  0  0  0  0  0  0
    0.9127  -34.2234   51.7466 N   0  0  0  0  0  0  0  0  0  0  0  0
   -2.0477  -40.5307   63.7704 O   0  0  0  0  0  0  0  0  0  0  0  0
   -0.7194  -39.7560   65.7361 O   0  0  0  0  0  0  0  0  0  0  0  0
   -4.7138  -37.2386   53.3925 O   0  0  0  0  0  0  0  0  0  0  0  0
   -3.2424  -35.7259   51.0504 O   0  0  0  0  0  0  0  0  0  0  0  0
    0.0612  -34.1630   52.3249 H   0  0  0  0  0  0  0  0  0  0  0  0
 17  1  1  6
 19  1  1  0
  2  7  2  0
 10  2  1  0
  4  3  1  0
  3 18  1  0
  5  4  1  0
  4 26  1  1
 17  5  1  0
  5 25  1  1
  6  7  1  0
 12  6  2  0
  7  8  1  0
  8  9  1  0
  8 21  2  0
  9 19  1  0
 11 10  2  0
 11 12  1  0
 27 11  1  0
 14 13  1  0
 13 27  1  0
 28 14  1  0
 15 16  1  0
 15 28  1  0
 16 22  1  0
 17 18  1  0
 19 20  2  0
 20 21  1  0
 22 23  1  0
 23 24  2  0
 24 29  1  0
M  CHG  2  18   1  19   1
M  END
$$$$
