
     RDKit          3D

 34 37  0  0  0  0  0  0  0  0999 V2000
   21.3976   38.2991   -7.5792 C   0  0  0  0  0  0  0  0  0  0  0  0
   20.9440   37.8439   -8.8130 C   0  0  0  0  0  0  0  0  0  0  0  0
   19.6173   37.9831   -9.1650 C   0  0  0  0  0  0  0  0  0  0  0  0
   18.6897   38.5732   -8.3196 C   0  0  0  0  0  0  0  0  0  0  0  0
   19.1794   39.0131   -7.1019 C   0  0  0  0  0  0  0  0  0  0  0  0
   17.2608   38.7202   -8.6966 C   0  0  1  0  0  0  0  0  0  0  0  0
   16.9813   39.9075   -9.5669 C   0  0  2  0  0  0  0  0  0  0  0  0
   14.2764   39.3793   -6.6558 N   0  0  0  0  0  0  0  0  0  0  0  0
   20.9039   39.3782   -5.4353 N   0  0  0  0  0  0  0  0  0  0  0  0
   21.6819   43.5663   -0.6134 O   0  0  0  0  0  0  0  0  0  0  0  0
   15.7643   39.5943  -10.4494 C   0  0  0  0  0  0  0  0  0  0  0  0
   22.4755   42.3966   -3.9560 N   0  0  0  0  0  0  0  0  0  0  0  0
   15.0698   39.2500   -7.6605 C   0  0  0  0  0  0  0  0  0  0  0  0
   21.7794   40.4817   -5.2660 C   0  0  0  0  0  0  0  0  0  0  0  0
   21.7414   41.2737   -4.0444 C   0  0  0  0  0  0  0  0  0  0  0  0
   22.4464   43.1339   -2.8317 C   0  0  0  0  0  0  0  0  0  0  0  0
   21.6862   42.7891   -1.7434 C   0  0  0  0  0  0  0  0  0  0  0  0
   20.9758   40.9218   -2.9548 C   0  0  0  0  0  0  0  0  0  0  0  0
   16.8000   37.4104   -9.3094 C   0  0  0  0  0  0  0  0  0  0  0  0
   19.8510   43.0510    0.6540 F   0  0  0  0  0  0  0  0  0  0  0  0
   20.4943   44.0560   -0.0306 C   0  0  0  0  0  0  0  0  0  0  0  0
   20.9473   41.6680   -1.8191 N   0  0  0  0  0  0  0  0  0  0  0  0
   22.5925   40.7865   -6.1621 O   0  0  0  0  0  0  0  0  0  0  0  0
   20.4891   38.8983   -6.7044 C   0  0  0  0  0  0  0  0  0  0  0  0
   19.1907   37.5391  -10.3693 F   0  0  0  0  0  0  0  0  0  0  0  0
   16.4175   38.8507   -7.5224 N   0  0  0  0  0  0  0  0  0  0  0  0
   14.3558   39.6126   -9.2831 S   0  0  0  0  0  0  0  0  0  0  0  0
   18.1034   40.4313  -10.3376 C   0  0  0  0  0  0  0  0  0  0  0  0
   18.7673   39.7481  -11.3444 C   0  0  0  0  0  0  0  0  0  0  0  0
   19.8248   40.2818  -12.0514 C   0  0  0  0  0  0  0  0  0  0  0  0
   20.2663   41.5405  -11.7739 C   0  0  0  0  0  0  0  0  0  0  0  0
   19.6505   42.2524  -10.7969 C   0  0  0  0  0  0  0  0  0  0  0  0
   18.6147   41.7184  -10.1106 C   0  0  0  0  0  0  0  0  0  0  0  0
   14.5910   39.4808   -5.6822 H   0  0  0  0  0  0  0  0  0  0  0  0
  1  2  2  0
 24  1  1  0
  2  3  1  0
  4  3  2  0
  3 25  1  0
  5  4  1  0
  4  6  1  0
 24  5  2  0
  6  7  1  0
  6 19  1  6
  6 26  1  0
  7 11  1  0
  7 28  1  6
 13  8  2  0
 14  9  1  0
  9 24  1  0
 17 10  1  0
 10 21  1  0
 11 27  1  0
 12 15  2  0
 16 12  1  0
 26 13  1  0
 13 27  1  0
 15 14  1  0
 14 23  2  0
 15 18  1  0
 16 17  2  0
 17 22  1  0
 18 22  2  0
 21 20  1  0
 28 29  2  0
 28 33  1  0
 29 30  1  0
 30 31  2  0
 31 32  1  0
 32 33  2  0
  8 34  1  0
M  END
$$$$
