
     RDKit          3D

 34 37  0  0  0  0  0  0  0  0999 V2000
   21.5971   38.4176   -7.2249 C   0  0  0  0  0  0  0  0  0  0  0  0
   21.0993   37.9757   -8.4464 C   0  0  0  0  0  0  0  0  0  0  0  0
   19.7713   38.1635   -8.7695 C   0  0  0  0  0  0  0  0  0  0  0  0
   18.8855   38.7908   -7.9062 C   0  0  0  0  0  0  0  0  0  0  0  0
   19.4184   39.2160   -6.7015 C   0  0  0  0  0  0  0  0  0  0  0  0
   17.4551   38.9901   -8.2520 C   0  0  1  0  0  0  0  0  0  0  0  0
   17.2217   40.0520   -9.2831 C   0  0  2  0  0  0  0  0  0  0  0  0
   14.6215   40.1761   -6.2345 N   0  0  0  0  0  0  0  0  0  0  0  0
   21.1922   39.5217   -5.0751 N   0  0  0  0  0  0  0  0  0  0  0  0
   20.9118   43.7404   -0.2624 O   0  0  0  0  0  0  0  0  0  0  0  0
   15.9464   39.7058  -10.0653 C   0  0  0  0  0  0  0  0  0  0  0  0
   20.5531   41.2873   -2.9127 N   0  0  0  0  0  0  0  0  0  0  0  0
   15.3570   39.8370   -7.2343 C   0  0  0  0  0  0  0  0  0  0  0  0
   21.8421   40.7702   -4.8974 C   0  0  0  0  0  0  0  0  0  0  0  0
   21.6154   41.5555   -3.6920 C   0  0  0  0  0  0  0  0  0  0  0  0
   20.3363   42.0075   -1.7979 C   0  0  0  0  0  0  0  0  0  0  0  0
   21.1653   43.0276   -1.4063 C   0  0  0  0  0  0  0  0  0  0  0  0
   22.4518   42.5789   -3.3042 C   0  0  0  0  0  0  0  0  0  0  0  0
   16.8744   37.6431   -8.6418 C   0  0  0  0  0  0  0  0  0  0  0  0
   22.7783   44.0782    1.0128 F   0  0  0  0  0  0  0  0  0  0  0  0
   21.5490   43.4624    0.9650 C   0  0  0  0  0  0  0  0  0  0  0  0
   22.2314   43.3060   -2.1772 N   0  0  0  0  0  0  0  0  0  0  0  0
   22.6158   41.2100   -5.7720 O   0  0  0  0  0  0  0  0  0  0  0  0
   20.7315   39.0534   -6.3327 C   0  0  0  0  0  0  0  0  0  0  0  0
   19.3015   37.7318   -9.9622 F   0  0  0  0  0  0  0  0  0  0  0  0
   16.6776   39.3595   -7.0833 N   0  0  0  0  0  0  0  0  0  0  0  0
   14.5975   40.0072   -8.8678 S   0  0  0  0  0  0  0  0  0  0  0  0
   18.3420   40.3662  -10.1626 C   0  0  0  0  0  0  0  0  0  0  0  0
   18.6921   39.6483  -11.2954 C   0  0  0  0  0  0  0  0  0  0  0  0
   19.7603   39.9812  -12.1024 C   0  0  0  0  0  0  0  0  0  0  0  0
   20.5321   41.0630  -11.8025 C   0  0  0  0  0  0  0  0  0  0  0  0
   20.2320   41.8001  -10.7037 C   0  0  0  0  0  0  0  0  0  0  0  0
   19.1823   41.4639   -9.9201 C   0  0  0  0  0  0  0  0  0  0  0  0
   14.3595   39.5406   -5.4699 H   0  0  0  0  0  0  0  0  0  0  0  0
  1  2  2  0
 24  1  1  0
  2  3  1  0
  4  3  2  0
  3 25  1  0
  5  4  1  0
  4  6  1  0
 24  5  2  0
  6  7  1  0
  6 19  1  6
  6 26  1  0
  7 11  1  0
  7 28  1  6
 13  8  2  0
 14  9  1  0
  9 24  1  0
 17 10  1  0
 10 21  1  0
 11 27  1  0
 12 15  2  0
 16 12  1  0
 26 13  1  0
 13 27  1  0
 15 14  1  0
 14 23  2  0
 15 18  1  0
 16 17  2  0
 17 22  1  0
 18 22  2  0
 21 20  1  0
 28 29  2  0
 28 33  1  0
 29 30  1  0
 30 31  2  0
 31 32  1  0
 32 33  2  0
  8 34  1  0
M  END
$$$$
