
     RDKit          3D

 34 37  0  0  0  0  0  0  0  0999 V2000
   21.6701   38.3592  -10.0402 C   0  0  0  0  0  0  0  0  0  0  0  0
   20.8853   37.4206   -9.3780 C   0  0  0  0  0  0  0  0  0  0  0  0
   19.7190   37.8035   -8.7486 C   0  0  0  0  0  0  0  0  0  0  0  0
   19.2817   39.1197   -8.7464 C   0  0  0  0  0  0  0  0  0  0  0  0
   20.0893   40.0232   -9.4155 C   0  0  0  0  0  0  0  0  0  0  0  0
   18.0280   39.5330   -8.0661 C   0  0  1  0  0  0  0  0  0  0  0  0
   18.1883   39.7844   -6.5976 C   0  0  2  0  0  0  0  0  0  0  0  0
   14.8667   37.7394   -7.5226 N   0  0  0  0  0  0  0  0  0  0  0  0
   22.0244   40.6868  -10.7192 N   0  0  0  0  0  0  0  0  0  0  0  0
   24.5321   46.5847  -10.6777 O   0  0  0  0  0  0  0  0  0  0  0  0
   17.1542   40.8330   -6.1628 C   0  0  0  0  0  0  0  0  0  0  0  0
   22.6814   43.5119  -10.1270 N   0  0  0  0  0  0  0  0  0  0  0  0
   15.8166   38.6028   -7.4342 C   0  0  0  0  0  0  0  0  0  0  0  0
   23.2693   41.1644  -10.2344 C   0  0  0  0  0  0  0  0  0  0  0  0
   23.6170   42.5735  -10.3548 C   0  0  0  0  0  0  0  0  0  0  0  0
   22.9938   44.8153  -10.2359 C   0  0  0  0  0  0  0  0  0  0  0  0
   24.2507   45.2463  -10.5763 C   0  0  0  0  0  0  0  0  0  0  0  0
   24.8812   42.9998  -10.6970 C   0  0  0  0  0  0  0  0  0  0  0  0
   17.4577   40.7230   -8.8157 C   0  0  0  0  0  0  0  0  0  0  0  0
   26.3832   47.2388  -11.8479 F   0  0  0  0  0  0  0  0  0  0  0  0
   25.8440   47.0957  -10.5904 C   0  0  0  0  0  0  0  0  0  0  0  0
   25.1956   44.3176  -10.8067 N   0  0  0  0  0  0  0  0  0  0  0  0
   24.0810   40.3824   -9.6991 O   0  0  0  0  0  0  0  0  0  0  0  0
   21.2581   39.6932  -10.0570 C   0  0  0  0  0  0  0  0  0  0  0  0
   18.9638   36.8798   -8.1114 F   0  0  0  0  0  0  0  0  0  0  0  0
   16.9939   38.5247   -8.2105 N   0  0  0  0  0  0  0  0  0  0  0  0
   15.5593   39.9418   -6.2446 S   0  0  0  0  0  0  0  0  0  0  0  0
   19.5326   40.1072   -6.1329 C   0  0  0  0  0  0  0  0  0  0  0  0
   20.3699   39.2393   -5.4497 C   0  0  0  0  0  0  0  0  0  0  0  0
   21.6375   39.5846   -5.0288 C   0  0  0  0  0  0  0  0  0  0  0  0
   22.1244   40.8321   -5.2793 C   0  0  0  0  0  0  0  0  0  0  0  0
   21.3446   41.7204   -5.9452 C   0  0  0  0  0  0  0  0  0  0  0  0
   20.1035   41.3703   -6.3528 C   0  0  0  0  0  0  0  0  0  0  0  0
   14.0384   37.8530   -8.1212 H   0  0  0  0  0  0  0  0  0  0  0  0
  1  2  2  0
 24  1  1  0
  2  3  1  0
  4  3  2  0
  3 25  1  0
  5  4  1  0
  4  6  1  0
 24  5  2  0
  6  7  1  0
  6 19  1  6
  6 26  1  0
  7 11  1  0
  7 28  1  6
 13  8  2  0
 14  9  1  0
  9 24  1  0
 17 10  1  0
 10 21  1  0
 11 27  1  0
 12 15  2  0
 16 12  1  0
 26 13  1  0
 13 27  1  0
 15 14  1  0
 14 23  2  0
 15 18  1  0
 16 17  2  0
 17 22  1  0
 18 22  2  0
 21 20  1  0
 28 29  2  0
 28 33  1  0
 29 30  1  0
 30 31  2  0
 31 32  1  0
 32 33  2  0
  8 34  1  0
M  END
$$$$
