
     RDKit          3D

 34 37  0  0  0  0  0  0  0  0999 V2000
   21.7481   38.6014   -7.4149 C   0  0  0  0  0  0  0  0  0  0  0  0
   21.3039   38.0095   -8.5929 C   0  0  0  0  0  0  0  0  0  0  0  0
   19.9620   38.0100   -8.9130 C   0  0  0  0  0  0  0  0  0  0  0  0
   19.0092   38.5907   -8.0892 C   0  0  0  0  0  0  0  0  0  0  0  0
   19.4902   39.1690   -6.9272 C   0  0  0  0  0  0  0  0  0  0  0  0
   17.5641   38.5885   -8.4316 C   0  0  1  0  0  0  0  0  0  0  0  0
   17.1902   39.5765   -9.4942 C   0  0  2  0  0  0  0  0  0  0  0  0
   14.6039   39.4555   -6.4337 N   0  0  0  0  0  0  0  0  0  0  0  0
   21.2186   39.8113   -5.3509 N   0  0  0  0  0  0  0  0  0  0  0  0
   24.1709   44.1383   -1.6546 O   0  0  0  0  0  0  0  0  0  0  0  0
   15.9698   39.0402  -10.2565 C   0  0  0  0  0  0  0  0  0  0  0  0
   23.0055   42.0621   -4.3935 N   0  0  0  0  0  0  0  0  0  0  0  0
   15.3752   39.1841   -7.4272 C   0  0  0  0  0  0  0  0  0  0  0  0
   20.8487   41.1311   -4.9849 C   0  0  0  0  0  0  0  0  0  0  0  0
   21.7001   41.9192   -4.1045 C   0  0  0  0  0  0  0  0  0  0  0  0
   23.7988   42.7881   -3.5861 C   0  0  0  0  0  0  0  0  0  0  0  0
   23.3313   43.4057   -2.4541 C   0  0  0  0  0  0  0  0  0  0  0  0
   21.2245   42.5370   -2.9691 C   0  0  0  0  0  0  0  0  0  0  0  0
   17.1653   37.1648   -8.7745 C   0  0  0  0  0  0  0  0  0  0  0  0
   26.0676   45.0454   -2.5511 F   0  0  0  0  0  0  0  0  0  0  0  0
   24.8000   45.3220   -2.0937 C   0  0  0  0  0  0  0  0  0  0  0  0
   22.0275   43.2705   -2.1539 N   0  0  0  0  0  0  0  0  0  0  0  0
   19.7892   41.6322   -5.4131 O   0  0  0  0  0  0  0  0  0  0  0  0
   20.8144   39.1950   -6.5633 C   0  0  0  0  0  0  0  0  0  0  0  0
   19.5444   37.4339  -10.0633 F   0  0  0  0  0  0  0  0  0  0  0  0
   16.7477   38.8899   -7.2699 N   0  0  0  0  0  0  0  0  0  0  0  0
   14.5959   39.1998   -9.0601 S   0  0  0  0  0  0  0  0  0  0  0  0
   18.2571   40.0070  -10.3907 C   0  0  0  0  0  0  0  0  0  0  0  0
   18.8874   41.2406  -10.3455 C   0  0  0  0  0  0  0  0  0  0  0  0
   19.8954   41.6078  -11.2127 C   0  0  0  0  0  0  0  0  0  0  0  0
   20.3189   40.7408  -12.1745 C   0  0  0  0  0  0  0  0  0  0  0  0
   19.7346   39.5195  -12.2617 C   0  0  0  0  0  0  0  0  0  0  0  0
   18.7472   39.1708  -11.4059 C   0  0  0  0  0  0  0  0  0  0  0  0
   14.8858   39.3804   -5.4478 H   0  0  0  0  0  0  0  0  0  0  0  0
  1  2  2  0
 24  1  1  0
  2  3  1  0
  4  3  2  0
  3 25  1  0
  5  4  1  0
  4  6  1  0
 24  5  2  0
  6  7  1  0
  6 19  1  6
  6 26  1  0
  7 11  1  0
  7 28  1  6
 13  8  2  0
 14  9  1  0
  9 24  1  0
 17 10  1  0
 10 21  1  0
 11 27  1  0
 12 15  2  0
 16 12  1  0
 26 13  1  0
 13 27  1  0
 15 14  1  0
 14 23  2  0
 15 18  1  0
 16 17  2  0
 17 22  1  0
 18 22  2  0
 21 20  1  0
 28 29  2  0
 28 33  1  0
 29 30  1  0
 30 31  2  0
 31 32  1  0
 32 33  2  0
  8 34  1  0
M  END
$$$$
