
     RDKit          3D

 34 37  0  0  0  0  0  0  0  0999 V2000
   21.5761   38.3103   -7.5555 C   0  0  0  0  0  0  0  0  0  0  0  0
   21.0795   37.8712   -8.7786 C   0  0  0  0  0  0  0  0  0  0  0  0
   19.7473   38.0410   -9.0940 C   0  0  0  0  0  0  0  0  0  0  0  0
   18.8559   38.6470   -8.2213 C   0  0  0  0  0  0  0  0  0  0  0  0
   19.3877   39.0701   -7.0153 C   0  0  0  0  0  0  0  0  0  0  0  0
   17.4209   38.8270   -8.5589 C   0  0  1  0  0  0  0  0  0  0  0  0
   17.1671   39.8874   -9.5866 C   0  0  2  0  0  0  0  0  0  0  0  0
   14.5822   39.9696   -6.5237 N   0  0  0  0  0  0  0  0  0  0  0  0
   21.1641   39.3894   -5.3944 N   0  0  0  0  0  0  0  0  0  0  0  0
   21.7085   43.4101   -0.4374 O   0  0  0  0  0  0  0  0  0  0  0  0
   15.8925   39.5249  -10.3625 C   0  0  0  0  0  0  0  0  0  0  0  0
   20.9549   41.0332   -3.0743 N   0  0  0  0  0  0  0  0  0  0  0  0
   15.3169   39.6427   -7.5281 C   0  0  0  0  0  0  0  0  0  0  0  0
   21.9476   40.5611   -5.2329 C   0  0  0  0  0  0  0  0  0  0  0  0
   21.9006   41.3148   -3.9876 C   0  0  0  0  0  0  0  0  0  0  0  0
   20.9043   41.7242   -1.9218 C   0  0  0  0  0  0  0  0  0  0  0  0
   21.7913   42.7270   -1.6238 C   0  0  0  0  0  0  0  0  0  0  0  0
   22.7945   42.3208   -3.6943 C   0  0  0  0  0  0  0  0  0  0  0  0
   16.8570   37.4727   -8.9481 C   0  0  0  0  0  0  0  0  0  0  0  0
   19.7484   44.5850   -0.3976 F   0  0  0  0  0  0  0  0  0  0  0  0
   20.4880   43.6155    0.2393 C   0  0  0  0  0  0  0  0  0  0  0  0
   22.7421   43.0184   -2.5290 N   0  0  0  0  0  0  0  0  0  0  0  0
   22.6863   40.9595   -6.1562 O   0  0  0  0  0  0  0  0  0  0  0  0
   20.7049   38.9248   -6.6540 C   0  0  0  0  0  0  0  0  0  0  0  0
   19.2787   37.6123  -10.2882 F   0  0  0  0  0  0  0  0  0  0  0  0
   16.6448   39.1834   -7.3852 N   0  0  0  0  0  0  0  0  0  0  0  0
   14.5461   39.8053   -9.1571 S   0  0  0  0  0  0  0  0  0  0  0  0
   18.2781   40.2188  -10.4716 C   0  0  0  0  0  0  0  0  0  0  0  0
   18.5972   39.5422  -11.6385 C   0  0  0  0  0  0  0  0  0  0  0  0
   19.6575   39.8902  -12.4495 C   0  0  0  0  0  0  0  0  0  0  0  0
   20.4527   40.9460  -12.1190 C   0  0  0  0  0  0  0  0  0  0  0  0
   20.1833   41.6423  -10.9862 C   0  0  0  0  0  0  0  0  0  0  0  0
   19.1410   41.2916  -10.1991 C   0  0  0  0  0  0  0  0  0  0  0  0
   14.3193   39.3244   -5.7675 H   0  0  0  0  0  0  0  0  0  0  0  0
  1  2  2  0
 24  1  1  0
  2  3  1  0
  4  3  2  0
  3 25  1  0
  5  4  1  0
  4  6  1  0
 24  5  2  0
  6  7  1  0
  6 19  1  6
  6 26  1  0
  7 11  1  0
  7 28  1  6
 13  8  2  0
 14  9  1  0
  9 24  1  0
 17 10  1  0
 10 21  1  0
 11 27  1  0
 12 15  2  0
 16 12  1  0
 26 13  1  0
 13 27  1  0
 15 14  1  0
 14 23  2  0
 15 18  1  0
 16 17  2  0
 17 22  1  0
 18 22  2  0
 21 20  1  0
 28 29  2  0
 28 33  1  0
 29 30  1  0
 30 31  2  0
 31 32  1  0
 32 33  2  0
  8 34  1  0
M  END
$$$$
