
     RDKit          3D

 34 37  0  0  0  0  0  0  0  0999 V2000
   21.9997   38.7338   -7.4419 C   0  0  0  0  0  0  0  0  0  0  0  0
   21.4904   37.9084   -8.4391 C   0  0  0  0  0  0  0  0  0  0  0  0
   20.1514   37.9533   -8.7679 C   0  0  0  0  0  0  0  0  0  0  0  0
   19.2653   38.8088   -8.1303 C   0  0  0  0  0  0  0  0  0  0  0  0
   19.8097   39.6137   -7.1445 C   0  0  0  0  0  0  0  0  0  0  0  0
   17.8231   38.8550   -8.4815 C   0  0  1  0  0  0  0  0  0  0  0  0
   17.4897   39.8516   -9.5496 C   0  0  2  0  0  0  0  0  0  0  0  0
   14.8825   39.8300   -6.5046 N   0  0  0  0  0  0  0  0  0  0  0  0
   21.6062   40.4684   -5.7564 N   0  0  0  0  0  0  0  0  0  0  0  0
   21.5031   44.8243   -1.0223 O   0  0  0  0  0  0  0  0  0  0  0  0
   16.2562   39.3549  -10.3176 C   0  0  0  0  0  0  0  0  0  0  0  0
   20.9404   41.4523   -2.2403 N   0  0  0  0  0  0  0  0  0  0  0  0
   15.6500   39.5289   -7.4924 C   0  0  0  0  0  0  0  0  0  0  0  0
   21.1587   40.4013   -4.4118 C   0  0  0  0  0  0  0  0  0  0  0  0
   21.2545   41.5659   -3.5427 C   0  0  0  0  0  0  0  0  0  0  0  0
   21.0261   42.5226   -1.4306 C   0  0  0  0  0  0  0  0  0  0  0  0
   21.4279   43.7553   -1.8781 C   0  0  0  0  0  0  0  0  0  0  0  0
   21.6588   42.8013   -3.9983 C   0  0  0  0  0  0  0  0  0  0  0  0
   17.3776   37.4448   -8.8223 C   0  0  0  0  0  0  0  0  0  0  0  0
   23.1909   46.2259   -1.6633 F   0  0  0  0  0  0  0  0  0  0  0  0
   21.8346   46.1250   -1.4560 C   0  0  0  0  0  0  0  0  0  0  0  0
   21.7449   43.8822   -3.1789 N   0  0  0  0  0  0  0  0  0  0  0  0
   20.6776   39.3430   -3.9580 O   0  0  0  0  0  0  0  0  0  0  0  0
   21.1341   39.6071   -6.7803 C   0  0  0  0  0  0  0  0  0  0  0  0
   19.6704   37.1475   -9.7421 F   0  0  0  0  0  0  0  0  0  0  0  0
   17.0105   39.1883   -7.3258 N   0  0  0  0  0  0  0  0  0  0  0  0
   14.8814   39.5658   -9.1301 S   0  0  0  0  0  0  0  0  0  0  0  0
   18.5761   40.2421  -10.4410 C   0  0  0  0  0  0  0  0  0  0  0  0
   18.9442   39.5656  -11.5934 C   0  0  0  0  0  0  0  0  0  0  0  0
   19.9788   39.9706  -12.4111 C   0  0  0  0  0  0  0  0  0  0  0  0
   20.6969   41.0864  -12.1025 C   0  0  0  0  0  0  0  0  0  0  0  0
   20.3772   41.7854  -10.9846 C   0  0  0  0  0  0  0  0  0  0  0  0
   19.3608   41.3785  -10.1907 C   0  0  0  0  0  0  0  0  0  0  0  0
   14.4633   39.1391   -5.8688 H   0  0  0  0  0  0  0  0  0  0  0  0
  1  2  2  0
 24  1  1  0
  2  3  1  0
  4  3  2  0
  3 25  1  0
  5  4  1  0
  4  6  1  0
 24  5  2  0
  6  7  1  0
  6 19  1  6
  6 26  1  0
  7 11  1  0
  7 28  1  6
 13  8  2  0
 14  9  1  0
  9 24  1  0
 17 10  1  0
 10 21  1  0
 11 27  1  0
 12 15  2  0
 16 12  1  0
 26 13  1  0
 13 27  1  0
 15 14  1  0
 14 23  2  0
 15 18  1  0
 16 17  2  0
 17 22  1  0
 18 22  2  0
 21 20  1  0
 28 29  2  0
 28 33  1  0
 29 30  1  0
 30 31  2  0
 31 32  1  0
 32 33  2  0
  8 34  1  0
M  END
$$$$
