
     RDKit          3D

 34 37  0  0  0  0  0  0  0  0999 V2000
   21.5275   38.9618   -7.5091 C   0  0  0  0  0  0  0  0  0  0  0  0
   21.0634   37.9268   -8.3144 C   0  0  0  0  0  0  0  0  0  0  0  0
   19.7367   37.8730   -8.6886 C   0  0  0  0  0  0  0  0  0  0  0  0
   18.8191   38.8320   -8.2862 C   0  0  0  0  0  0  0  0  0  0  0  0
   19.3190   39.8451   -7.4863 C   0  0  0  0  0  0  0  0  0  0  0  0
   17.3901   38.7727   -8.6859 C   0  0  1  0  0  0  0  0  0  0  0  0
   17.0472   39.6549   -9.8475 C   0  0  2  0  0  0  0  0  0  0  0  0
   14.3353   39.7601   -6.8972 N   0  0  0  0  0  0  0  0  0  0  0  0
   21.0550   41.0190   -6.2644 N   0  0  0  0  0  0  0  0  0  0  0  0
   21.3235   43.7661   -0.4578 O   0  0  0  0  0  0  0  0  0  0  0  0
   15.8682   39.0303  -10.6078 C   0  0  0  0  0  0  0  0  0  0  0  0
   22.8172   42.2730   -3.4091 N   0  0  0  0  0  0  0  0  0  0  0  0
   15.1520   39.4153   -7.8297 C   0  0  0  0  0  0  0  0  0  0  0  0
   21.9622   40.8644   -5.1846 C   0  0  0  0  0  0  0  0  0  0  0  0
   21.7768   41.6161   -3.9511 C   0  0  0  0  0  0  0  0  0  0  0  0
   22.6549   42.9697   -2.2704 C   0  0  0  0  0  0  0  0  0  0  0  0
   21.4509   43.0455   -1.6177 C   0  0  0  0  0  0  0  0  0  0  0  0
   20.5649   41.6884   -3.3006 C   0  0  0  0  0  0  0  0  0  0  0  0
   17.0270   37.3171   -8.9154 C   0  0  0  0  0  0  0  0  0  0  0  0
   20.9214   42.0080    0.9461 F   0  0  0  0  0  0  0  0  0  0  0  0
   20.5765   43.3056    0.6465 C   0  0  0  0  0  0  0  0  0  0  0  0
   20.4023   42.3929   -2.1496 N   0  0  0  0  0  0  0  0  0  0  0  0
   22.9298   40.0822   -5.2793 O   0  0  0  0  0  0  0  0  0  0  0  0
   20.6294   39.9438   -7.0865 C   0  0  0  0  0  0  0  0  0  0  0  0
   19.2998   36.8628   -9.4749 F   0  0  0  0  0  0  0  0  0  0  0  0
   16.5207   39.1616   -7.5905 N   0  0  0  0  0  0  0  0  0  0  0  0
   14.4425   39.2709   -9.4880 S   0  0  0  0  0  0  0  0  0  0  0  0
   18.1448   40.0231  -10.7347 C   0  0  0  0  0  0  0  0  0  0  0  0
   18.5882   39.2691  -11.8100 C   0  0  0  0  0  0  0  0  0  0  0  0
   19.6306   39.6554  -12.6267 C   0  0  0  0  0  0  0  0  0  0  0  0
   20.2805   40.8303  -12.3955 C   0  0  0  0  0  0  0  0  0  0  0  0
   19.8855   41.6061  -11.3551 C   0  0  0  0  0  0  0  0  0  0  0  0
   18.8621   41.2169  -10.5613 C   0  0  0  0  0  0  0  0  0  0  0  0
   14.6069   39.8983   -5.9151 H   0  0  0  0  0  0  0  0  0  0  0  0
  1  2  2  0
 24  1  1  0
  2  3  1  0
  4  3  2  0
  3 25  1  0
  5  4  1  0
  4  6  1  0
 24  5  2  0
  6  7  1  0
  6 19  1  6
  6 26  1  0
  7 11  1  0
  7 28  1  6
 13  8  2  0
 14  9  1  0
  9 24  1  0
 17 10  1  0
 10 21  1  0
 11 27  1  0
 12 15  2  0
 16 12  1  0
 26 13  1  0
 13 27  1  0
 15 14  1  0
 14 23  2  0
 15 18  1  0
 16 17  2  0
 17 22  1  0
 18 22  2  0
 21 20  1  0
 28 29  2  0
 28 33  1  0
 29 30  1  0
 30 31  2  0
 31 32  1  0
 32 33  2  0
  8 34  1  0
M  END
$$$$
