
     RDKit          3D

 34 37  0  0  0  0  0  0  0  0999 V2000
   21.8271   38.4249   -7.4026 C   0  0  0  0  0  0  0  0  0  0  0  0
   21.3554   38.0178   -8.6463 C   0  0  0  0  0  0  0  0  0  0  0  0
   20.0231   38.1670   -8.9719 C   0  0  0  0  0  0  0  0  0  0  0  0
   19.1073   38.7204   -8.0894 C   0  0  0  0  0  0  0  0  0  0  0  0
   19.6149   39.1129   -6.8629 C   0  0  0  0  0  0  0  0  0  0  0  0
   17.6724   38.8781   -8.4381 C   0  0  1  0  0  0  0  0  0  0  0  0
   17.3957   40.0174   -9.3712 C   0  0  2  0  0  0  0  0  0  0  0  0
   14.7590   39.7280   -6.3656 N   0  0  0  0  0  0  0  0  0  0  0  0
   21.3644   39.4165   -5.2100 N   0  0  0  0  0  0  0  0  0  0  0  0
   21.3884   43.2755   -0.0970 O   0  0  0  0  0  0  0  0  0  0  0  0
   16.1489   39.6807  -10.2019 C   0  0  0  0  0  0  0  0  0  0  0  0
   20.9062   40.9715   -2.8591 N   0  0  0  0  0  0  0  0  0  0  0  0
   15.5222   39.5202   -7.3805 C   0  0  0  0  0  0  0  0  0  0  0  0
   22.0249   40.6515   -4.9837 C   0  0  0  0  0  0  0  0  0  0  0  0
   21.8739   41.3476   -3.7134 C   0  0  0  0  0  0  0  0  0  0  0  0
   20.7596   41.6087   -1.6841 C   0  0  0  0  0  0  0  0  0  0  0  0
   21.5681   42.6495   -1.3039 C   0  0  0  0  0  0  0  0  0  0  0  0
   22.6892   42.3922   -3.3375 C   0  0  0  0  0  0  0  0  0  0  0  0
   17.1668   37.5451   -8.9588 C   0  0  0  0  0  0  0  0  0  0  0  0
   21.4278   45.3201   -1.1178 F   0  0  0  0  0  0  0  0  0  0  0  0
   21.0341   44.6367    0.0094 C   0  0  0  0  0  0  0  0  0  0  0  0
   22.5399   43.0355   -2.1495 N   0  0  0  0  0  0  0  0  0  0  0  0
   22.7433   41.1558   -5.8707 O   0  0  0  0  0  0  0  0  0  0  0  0
   20.9310   38.9862   -6.4907 C   0  0  0  0  0  0  0  0  0  0  0  0
   19.5787   37.7701  -10.1862 F   0  0  0  0  0  0  0  0  0  0  0  0
   16.8640   39.0983   -7.2529 N   0  0  0  0  0  0  0  0  0  0  0  0
   14.7730   39.8018   -9.0033 S   0  0  0  0  0  0  0  0  0  0  0  0
   18.5080   40.4677  -10.2004 C   0  0  0  0  0  0  0  0  0  0  0  0
   19.3125   41.5633   -9.9289 C   0  0  0  0  0  0  0  0  0  0  0  0
   20.3574   41.9547  -10.7401 C   0  0  0  0  0  0  0  0  0  0  0  0
   20.6426   41.2536  -11.8728 C   0  0  0  0  0  0  0  0  0  0  0  0
   19.8851   40.1722  -12.1846 C   0  0  0  0  0  0  0  0  0  0  0  0
   18.8633   39.7981  -11.3816 C   0  0  0  0  0  0  0  0  0  0  0  0
   15.0655   39.6459   -5.3875 H   0  0  0  0  0  0  0  0  0  0  0  0
  1  2  2  0
 24  1  1  0
  2  3  1  0
  4  3  2  0
  3 25  1  0
  5  4  1  0
  4  6  1  0
 24  5  2  0
  6  7  1  0
  6 19  1  6
  6 26  1  0
  7 11  1  0
  7 28  1  6
 13  8  2  0
 14  9  1  0
  9 24  1  0
 17 10  1  0
 10 21  1  0
 11 27  1  0
 12 15  2  0
 16 12  1  0
 26 13  1  0
 13 27  1  0
 15 14  1  0
 14 23  2  0
 15 18  1  0
 16 17  2  0
 17 22  1  0
 18 22  2  0
 21 20  1  0
 28 29  2  0
 28 33  1  0
 29 30  1  0
 30 31  2  0
 31 32  1  0
 32 33  2  0
  8 34  1  0
M  END
$$$$
