
     RDKit          3D

 34 37  0  0  0  0  0  0  0  0999 V2000
   21.7323   38.4783   -7.4540 C   0  0  0  0  0  0  0  0  0  0  0  0
   21.2858   38.0497   -8.6998 C   0  0  0  0  0  0  0  0  0  0  0  0
   19.9596   38.1892   -9.0533 C   0  0  0  0  0  0  0  0  0  0  0  0
   19.0254   38.7537   -8.1977 C   0  0  0  0  0  0  0  0  0  0  0  0
   19.5081   39.1677   -6.9682 C   0  0  0  0  0  0  0  0  0  0  0  0
   17.5970   38.9011   -8.5764 C   0  0  1  0  0  0  0  0  0  0  0  0
   17.3429   39.9870   -9.5771 C   0  0  2  0  0  0  0  0  0  0  0  0
   14.6602   39.8883   -6.6000 N   0  0  0  0  0  0  0  0  0  0  0  0
   21.2245   39.5037   -5.2871 N   0  0  0  0  0  0  0  0  0  0  0  0
   21.9023   43.6290   -0.3965 O   0  0  0  0  0  0  0  0  0  0  0  0
   16.1058   39.6119  -10.4059 C   0  0  0  0  0  0  0  0  0  0  0  0
   22.8080   42.4709   -3.7144 N   0  0  0  0  0  0  0  0  0  0  0  0
   15.4365   39.6175   -7.5897 C   0  0  0  0  0  0  0  0  0  0  0  0
   22.0911   40.6093   -5.0886 C   0  0  0  0  0  0  0  0  0  0  0  0
   22.0284   41.3848   -3.8575 C   0  0  0  0  0  0  0  0  0  0  0  0
   22.7564   43.1928   -2.5810 C   0  0  0  0  0  0  0  0  0  0  0  0
   21.9275   42.8685   -1.5374 C   0  0  0  0  0  0  0  0  0  0  0  0
   21.1937   41.0538   -2.8130 C   0  0  0  0  0  0  0  0  0  0  0  0
   17.0888   37.5441   -9.0276 C   0  0  0  0  0  0  0  0  0  0  0  0
   20.2411   43.1643    1.1031 F   0  0  0  0  0  0  0  0  0  0  0  0
   20.7022   44.0836    0.1893 C   0  0  0  0  0  0  0  0  0  0  0  0
   21.1426   41.7844   -1.6680 N   0  0  0  0  0  0  0  0  0  0  0  0
   22.9175   40.9301   -5.9668 O   0  0  0  0  0  0  0  0  0  0  0  0
   20.8171   39.0513   -6.5687 C   0  0  0  0  0  0  0  0  0  0  0  0
   19.5399   37.7712  -10.2693 F   0  0  0  0  0  0  0  0  0  0  0  0
   16.7730   39.1944   -7.4180 N   0  0  0  0  0  0  0  0  0  0  0  0
   14.7134   39.8108   -9.2371 S   0  0  0  0  0  0  0  0  0  0  0  0
   18.4706   40.3814  -10.4139 C   0  0  0  0  0  0  0  0  0  0  0  0
   18.8477   39.7544  -11.5911 C   0  0  0  0  0  0  0  0  0  0  0  0
   19.9219   40.1614  -12.3550 C   0  0  0  0  0  0  0  0  0  0  0  0
   20.6727   41.2289  -11.9643 C   0  0  0  0  0  0  0  0  0  0  0  0
   20.3458   41.8783  -10.8189 C   0  0  0  0  0  0  0  0  0  0  0  0
   19.2904   41.4700  -10.0783 C   0  0  0  0  0  0  0  0  0  0  0  0
   14.2954   39.1852   -5.9443 H   0  0  0  0  0  0  0  0  0  0  0  0
  1  2  2  0
 24  1  1  0
  2  3  1  0
  4  3  2  0
  3 25  1  0
  5  4  1  0
  4  6  1  0
 24  5  2  0
  6  7  1  0
  6 19  1  6
  6 26  1  0
  7 11  1  0
  7 28  1  6
 13  8  2  0
 14  9  1  0
  9 24  1  0
 17 10  1  0
 10 21  1  0
 11 27  1  0
 12 15  2  0
 16 12  1  0
 26 13  1  0
 13 27  1  0
 15 14  1  0
 14 23  2  0
 15 18  1  0
 16 17  2  0
 17 22  1  0
 18 22  2  0
 21 20  1  0
 28 29  2  0
 28 33  1  0
 29 30  1  0
 30 31  2  0
 31 32  1  0
 32 33  2  0
  8 34  1  0
M  END
$$$$
