
     RDKit          3D

 34 37  0  0  0  0  0  0  0  0999 V2000
   22.0169   38.8241   -7.2606 C   0  0  0  0  0  0  0  0  0  0  0  0
   21.4707   37.8030   -8.0314 C   0  0  0  0  0  0  0  0  0  0  0  0
   20.1169   37.7740   -8.2957 C   0  0  0  0  0  0  0  0  0  0  0  0
   19.2520   38.7450   -7.8134 C   0  0  0  0  0  0  0  0  0  0  0  0
   19.8331   39.7437   -7.0511 C   0  0  0  0  0  0  0  0  0  0  0  0
   17.7942   38.7124   -8.0947 C   0  0  1  0  0  0  0  0  0  0  0  0
   17.3967   39.4642   -9.3284 C   0  0  2  0  0  0  0  0  0  0  0  0
   14.9382   40.0667   -6.2198 N   0  0  0  0  0  0  0  0  0  0  0  0
   21.6833   40.8795   -5.9688 N   0  0  0  0  0  0  0  0  0  0  0  0
   20.9245   43.5687   -0.1956 O   0  0  0  0  0  0  0  0  0  0  0  0
   16.1349   38.8146   -9.9147 C   0  0  0  0  0  0  0  0  0  0  0  0
   20.8074   41.2640   -2.9964 N   0  0  0  0  0  0  0  0  0  0  0  0
   15.6618   39.5695   -7.1605 C   0  0  0  0  0  0  0  0  0  0  0  0
   22.3764   40.6798   -4.7471 C   0  0  0  0  0  0  0  0  0  0  0  0
   22.0150   41.4422   -3.5601 C   0  0  0  0  0  0  0  0  0  0  0  0
   20.4655   41.9638   -1.9002 C   0  0  0  0  0  0  0  0  0  0  0  0
   21.3082   42.8733   -1.3136 C   0  0  0  0  0  0  0  0  0  0  0  0
   22.8660   42.3541   -2.9757 C   0  0  0  0  0  0  0  0  0  0  0  0
   17.3522   37.2605   -8.1133 C   0  0  0  0  0  0  0  0  0  0  0  0
   22.7747   43.8462    1.1174 F   0  0  0  0  0  0  0  0  0  0  0  0
   21.7661   44.5000    0.4480 C   0  0  0  0  0  0  0  0  0  0  0  0
   22.5191   43.0608   -1.8677 N   0  0  0  0  0  0  0  0  0  0  0  0
   23.3039   39.8481   -4.6754 O   0  0  0  0  0  0  0  0  0  0  0  0
   21.1734   39.8176   -6.7597 C   0  0  0  0  0  0  0  0  0  0  0  0
   19.5998   36.7771   -9.0495 F   0  0  0  0  0  0  0  0  0  0  0  0
   17.0332   39.2756   -6.9945 N   0  0  0  0  0  0  0  0  0  0  0  0
   14.8155   39.2628   -8.7302 S   0  0  0  0  0  0  0  0  0  0  0  0
   18.4339   39.6647  -10.3340 C   0  0  0  0  0  0  0  0  0  0  0  0
   19.3398   40.7138  -10.3469 C   0  0  0  0  0  0  0  0  0  0  0  0
   20.3084   40.8656  -11.3174 C   0  0  0  0  0  0  0  0  0  0  0  0
   20.4098   39.9589  -12.3292 C   0  0  0  0  0  0  0  0  0  0  0  0
   19.5468   38.9127  -12.3630 C   0  0  0  0  0  0  0  0  0  0  0  0
   18.6014   38.7744  -11.4059 C   0  0  0  0  0  0  0  0  0  0  0  0
   14.9017   39.6937   -5.2623 H   0  0  0  0  0  0  0  0  0  0  0  0
  1  2  2  0
 24  1  1  0
  2  3  1  0
  4  3  2  0
  3 25  1  0
  5  4  1  0
  4  6  1  0
 24  5  2  0
  6  7  1  0
  6 19  1  6
  6 26  1  0
  7 11  1  0
  7 28  1  6
 13  8  2  0
 14  9  1  0
  9 24  1  0
 17 10  1  0
 10 21  1  0
 11 27  1  0
 12 15  2  0
 16 12  1  0
 26 13  1  0
 13 27  1  0
 15 14  1  0
 14 23  2  0
 15 18  1  0
 16 17  2  0
 17 22  1  0
 18 22  2  0
 21 20  1  0
 28 29  2  0
 28 33  1  0
 29 30  1  0
 30 31  2  0
 31 32  1  0
 32 33  2  0
  8 34  1  0
M  END
$$$$
