
     RDKit          3D

 34 37  0  0  0  0  0  0  0  0999 V2000
   21.6329   38.2068   -7.4003 C   0  0  0  0  0  0  0  0  0  0  0  0
   21.1625   37.7791   -8.6376 C   0  0  0  0  0  0  0  0  0  0  0  0
   19.8423   37.9721   -8.9887 C   0  0  0  0  0  0  0  0  0  0  0  0
   18.9378   38.5909   -8.1388 C   0  0  0  0  0  0  0  0  0  0  0  0
   19.4436   39.0021   -6.9176 C   0  0  0  0  0  0  0  0  0  0  0  0
   17.5158   38.7958   -8.5147 C   0  0  1  0  0  0  0  0  0  0  0  0
   17.3015   39.9053   -9.4988 C   0  0  2  0  0  0  0  0  0  0  0  0
   14.6164   39.8593   -6.5226 N   0  0  0  0  0  0  0  0  0  0  0  0
   21.1803   39.2875   -5.2481 N   0  0  0  0  0  0  0  0  0  0  0  0
   21.2177   43.8654   -0.7300 O   0  0  0  0  0  0  0  0  0  0  0  0
   16.0518   39.5880  -10.3328 C   0  0  0  0  0  0  0  0  0  0  0  0
   22.0735   42.6225   -4.0305 N   0  0  0  0  0  0  0  0  0  0  0  0
   15.3826   39.5754   -7.5166 C   0  0  0  0  0  0  0  0  0  0  0  0
   21.9970   40.4328   -5.0637 C   0  0  0  0  0  0  0  0  0  0  0  0
   21.7874   41.3131   -3.9227 C   0  0  0  0  0  0  0  0  0  0  0  0
   21.8829   43.4425   -2.9819 C   0  0  0  0  0  0  0  0  0  0  0  0
   21.3991   42.9989   -1.7775 C   0  0  0  0  0  0  0  0  0  0  0  0
   21.3011   40.8614   -2.7157 C   0  0  0  0  0  0  0  0  0  0  0  0
   16.9586   37.4652   -8.9862 C   0  0  0  0  0  0  0  0  0  0  0  0
   21.7626   42.9542    1.2940 F   0  0  0  0  0  0  0  0  0  0  0  0
   20.7330   43.4489    0.5275 C   0  0  0  0  0  0  0  0  0  0  0  0
   21.1090   41.6914   -1.6566 N   0  0  0  0  0  0  0  0  0  0  0  0
   22.9048   40.6993   -5.8774 O   0  0  0  0  0  0  0  0  0  0  0  0
   20.7478   38.8338   -6.5210 C   0  0  0  0  0  0  0  0  0  0  0  0
   19.3993   37.5542  -10.1964 F   0  0  0  0  0  0  0  0  0  0  0  0
   16.7027   39.1014   -7.3518 N   0  0  0  0  0  0  0  0  0  0  0  0
   14.6673   39.8198   -9.1606 S   0  0  0  0  0  0  0  0  0  0  0  0
   18.4430   40.2710  -10.3299 C   0  0  0  0  0  0  0  0  0  0  0  0
   18.7656   39.6852  -11.5440 C   0  0  0  0  0  0  0  0  0  0  0  0
   19.8554   40.0629  -12.3008 C   0  0  0  0  0  0  0  0  0  0  0  0
   20.6779   41.0577  -11.8653 C   0  0  0  0  0  0  0  0  0  0  0  0
   20.4065   41.6643  -10.6826 C   0  0  0  0  0  0  0  0  0  0  0  0
   19.3352   41.2854   -9.9493 C   0  0  0  0  0  0  0  0  0  0  0  0
   14.5855   39.3216   -5.6467 H   0  0  0  0  0  0  0  0  0  0  0  0
  1  2  2  0
 24  1  1  0
  2  3  1  0
  4  3  2  0
  3 25  1  0
  5  4  1  0
  4  6  1  0
 24  5  2  0
  6  7  1  0
  6 19  1  6
  6 26  1  0
  7 11  1  0
  7 28  1  6
 13  8  2  0
 14  9  1  0
  9 24  1  0
 17 10  1  0
 10 21  1  0
 11 27  1  0
 12 15  2  0
 16 12  1  0
 26 13  1  0
 13 27  1  0
 15 14  1  0
 14 23  2  0
 15 18  1  0
 16 17  2  0
 17 22  1  0
 18 22  2  0
 21 20  1  0
 28 29  2  0
 28 33  1  0
 29 30  1  0
 30 31  2  0
 31 32  1  0
 32 33  2  0
  8 34  1  0
M  END
$$$$
