
     RDKit          3D

 34 37  0  0  0  0  0  0  0  0999 V2000
   21.8421   38.8440   -7.6145 C   0  0  0  0  0  0  0  0  0  0  0  0
   21.2643   37.8481   -8.3953 C   0  0  0  0  0  0  0  0  0  0  0  0
   19.9016   37.8300   -8.6098 C   0  0  0  0  0  0  0  0  0  0  0  0
   19.0583   38.7876   -8.0662 C   0  0  0  0  0  0  0  0  0  0  0  0
   19.6705   39.7612   -7.2959 C   0  0  0  0  0  0  0  0  0  0  0  0
   17.5910   38.7666   -8.2940 C   0  0  1  0  0  0  0  0  0  0  0  0
   17.1337   39.6776   -9.3923 C   0  0  2  0  0  0  0  0  0  0  0  0
   14.7940   39.7859   -6.1389 N   0  0  0  0  0  0  0  0  0  0  0  0
   21.5633   40.8595   -6.2490 N   0  0  0  0  0  0  0  0  0  0  0  0
   21.3565   43.3207   -0.3324 O   0  0  0  0  0  0  0  0  0  0  0  0
   15.8585   39.0930  -10.0168 C   0  0  0  0  0  0  0  0  0  0  0  0
   20.9048   41.2954   -3.3097 N   0  0  0  0  0  0  0  0  0  0  0  0
   15.4861   39.4411   -7.1674 C   0  0  0  0  0  0  0  0  0  0  0  0
   22.3766   40.6205   -5.1114 C   0  0  0  0  0  0  0  0  0  0  0  0
   22.1290   41.3310   -3.8644 C   0  0  0  0  0  0  0  0  0  0  0  0
   20.6674   41.9485   -2.1584 C   0  0  0  0  0  0  0  0  0  0  0  0
   21.6360   42.6672   -1.5053 C   0  0  0  0  0  0  0  0  0  0  0  0
   23.1062   42.0511   -3.2134 C   0  0  0  0  0  0  0  0  0  0  0  0
   17.1689   37.3237   -8.5021 C   0  0  0  0  0  0  0  0  0  0  0  0
   19.3158   42.8794    0.5974 F   0  0  0  0  0  0  0  0  0  0  0  0
   20.6733   42.7060    0.7377 C   0  0  0  0  0  0  0  0  0  0  0  0
   22.8649   42.7108   -2.0497 N   0  0  0  0  0  0  0  0  0  0  0  0
   23.3138   39.7985   -5.1660 O   0  0  0  0  0  0  0  0  0  0  0  0
   21.0209   39.8234   -7.0525 C   0  0  0  0  0  0  0  0  0  0  0  0
   19.3537   36.8578   -9.3740 F   0  0  0  0  0  0  0  0  0  0  0  0
   16.8670   39.1535   -7.0969 N   0  0  0  0  0  0  0  0  0  0  0  0
   14.5817   39.3432   -8.7317 S   0  0  0  0  0  0  0  0  0  0  0  0
   18.1268   40.0387  -10.3977 C   0  0  0  0  0  0  0  0  0  0  0  0
   18.6453   41.3104  -10.5855 C   0  0  0  0  0  0  0  0  0  0  0  0
   19.5865   41.6093  -11.5488 C   0  0  0  0  0  0  0  0  0  0  0  0
   20.0530   40.6316  -12.3749 C   0  0  0  0  0  0  0  0  0  0  0  0
   19.5777   39.3689  -12.2327 C   0  0  0  0  0  0  0  0  0  0  0  0
   18.6551   39.0880  -11.2846 C   0  0  0  0  0  0  0  0  0  0  0  0
   13.7669   39.8303   -6.1238 H   0  0  0  0  0  0  0  0  0  0  0  0
  1  2  2  0
 24  1  1  0
  2  3  1  0
  4  3  2  0
  3 25  1  0
  5  4  1  0
  4  6  1  0
 24  5  2  0
  6  7  1  0
  6 19  1  6
  6 26  1  0
  7 11  1  0
  7 28  1  6
 13  8  2  0
 14  9  1  0
  9 24  1  0
 17 10  1  0
 10 21  1  0
 11 27  1  0
 12 15  2  0
 16 12  1  0
 26 13  1  0
 13 27  1  0
 15 14  1  0
 14 23  2  0
 15 18  1  0
 16 17  2  0
 17 22  1  0
 18 22  2  0
 21 20  1  0
 28 29  2  0
 28 33  1  0
 29 30  1  0
 30 31  2  0
 31 32  1  0
 32 33  2  0
  8 34  1  0
M  END
$$$$
