
     RDKit          3D

 34 37  0  0  0  0  0  0  0  0999 V2000
   21.6228   38.7584   -7.1650 C   0  0  0  0  0  0  0  0  0  0  0  0
   21.2451   38.3619   -8.4438 C   0  0  0  0  0  0  0  0  0  0  0  0
   19.9234   38.4259   -8.8340 C   0  0  0  0  0  0  0  0  0  0  0  0
   18.9264   38.8808   -7.9839 C   0  0  0  0  0  0  0  0  0  0  0  0
   19.3417   39.2660   -6.7209 C   0  0  0  0  0  0  0  0  0  0  0  0
   17.5030   38.9467   -8.4022 C   0  0  1  0  0  0  0  0  0  0  0  0
   17.2079   40.0412   -9.3822 C   0  0  2  0  0  0  0  0  0  0  0  0
   14.4525   39.6891   -6.4919 N   0  0  0  0  0  0  0  0  0  0  0  0
   20.9792   39.6372   -4.9700 N   0  0  0  0  0  0  0  0  0  0  0  0
   21.3318   43.6483    0.0117 O   0  0  0  0  0  0  0  0  0  0  0  0
   16.0222   39.6105  -10.2577 C   0  0  0  0  0  0  0  0  0  0  0  0
   20.7508   41.2145   -2.6169 N   0  0  0  0  0  0  0  0  0  0  0  0
   15.2730   39.4959   -7.4640 C   0  0  0  0  0  0  0  0  0  0  0  0
   21.8850   40.6933   -4.6928 C   0  0  0  0  0  0  0  0  0  0  0  0
   21.7565   41.4745   -3.4705 C   0  0  0  0  0  0  0  0  0  0  0  0
   20.6246   41.9310   -1.4859 C   0  0  0  0  0  0  0  0  0  0  0  0
   21.4924   42.9390   -1.1510 C   0  0  0  0  0  0  0  0  0  0  0  0
   22.6314   42.4857   -3.1399 C   0  0  0  0  0  0  0  0  0  0  0  0
   17.0970   37.5728   -8.9032 C   0  0  0  0  0  0  0  0  0  0  0  0
   22.5139   45.6002   -0.1189 F   0  0  0  0  0  0  0  0  0  0  0  0
   21.2601   45.0568    0.0407 C   0  0  0  0  0  0  0  0  0  0  0  0
   22.5027   43.2091   -1.9964 N   0  0  0  0  0  0  0  0  0  0  0  0
   22.8027   40.9652   -5.4935 O   0  0  0  0  0  0  0  0  0  0  0  0
   20.6433   39.2216   -6.2844 C   0  0  0  0  0  0  0  0  0  0  0  0
   19.5708   38.0404  -10.0816 F   0  0  0  0  0  0  0  0  0  0  0  0
   16.6286   39.1546   -7.2625 N   0  0  0  0  0  0  0  0  0  0  0  0
   14.5867   39.6877   -9.1273 S   0  0  0  0  0  0  0  0  0  0  0  0
   18.3313   40.5298  -10.1737 C   0  0  0  0  0  0  0  0  0  0  0  0
   19.0386   41.6946   -9.9201 C   0  0  0  0  0  0  0  0  0  0  0  0
   20.0982   42.1205  -10.6940 C   0  0  0  0  0  0  0  0  0  0  0  0
   20.4978   41.3855  -11.7692 C   0  0  0  0  0  0  0  0  0  0  0  0
   19.8386   40.2363  -12.0612 C   0  0  0  0  0  0  0  0  0  0  0  0
   18.8013   39.8289  -11.2952 C   0  0  0  0  0  0  0  0  0  0  0  0
   13.5772   39.1650   -6.3635 H   0  0  0  0  0  0  0  0  0  0  0  0
  1  2  2  0
 24  1  1  0
  2  3  1  0
  4  3  2  0
  3 25  1  0
  5  4  1  0
  4  6  1  0
 24  5  2  0
  6  7  1  0
  6 19  1  6
  6 26  1  0
  7 11  1  0
  7 28  1  6
 13  8  2  0
 14  9  1  0
  9 24  1  0
 17 10  1  0
 10 21  1  0
 11 27  1  0
 12 15  2  0
 16 12  1  0
 26 13  1  0
 13 27  1  0
 15 14  1  0
 14 23  2  0
 15 18  1  0
 16 17  2  0
 17 22  1  0
 18 22  2  0
 21 20  1  0
 28 29  2  0
 28 33  1  0
 29 30  1  0
 30 31  2  0
 31 32  1  0
 32 33  2  0
  8 34  1  0
M  END
$$$$
