
     RDKit          3D

 47 47  0  0  0  0  0  0  0  0999 V2000
  -12.9181  -10.7210    4.1556 N   0  0  0  0  0  4  0  0  0  0  0  0
  -11.4797  -10.7433    4.3588 C   0  0  2  0  0  0  0  0  0  0  0  0
  -10.8421   -9.4198    4.1323 C   0  0  0  0  0  0  0  0  0  0  0  0
   -9.6028   -9.2674    4.0615 O   0  0  0  0  0  0  0  0  0  0  0  0
  -10.8950  -11.7684    3.3871 C   0  0  0  0  0  0  0  0  0  0  0  0
  -11.6870   -8.2730    3.9860 N   0  0  0  0  0  0  0  0  0  0  0  0
  -11.2200   -7.0619    3.4040 C   0  0  2  0  0  0  0  0  0  0  0  0
  -11.4324   -5.8437    4.2239 C   0  0  0  0  0  0  0  0  0  0  0  0
  -10.3790   -5.2863    4.6263 O   0  0  0  0  0  0  0  0  0  0  0  0
  -11.9671   -6.7760    2.0839 C   0  0  0  0  0  0  0  0  0  0  0  0
  -12.7048   -5.3114    4.5480 N   0  0  0  0  0  0  0  0  0  0  0  0
  -13.0566   -4.5939    5.7357 C   0  0  2  0  0  0  0  0  0  0  0  0
  -12.1227   -3.4715    5.9490 C   0  0  0  0  0  0  0  0  0  0  0  0
  -12.1134   -2.5118    5.1486 O   0  0  0  0  0  0  0  0  0  0  0  0
  -13.1946   -5.4968    6.9074 C   0  0  0  0  0  0  0  0  0  0  0  0
  -14.5492   -5.9605    7.2014 C   0  0  0  0  0  0  0  0  0  0  0  0
  -14.7619   -6.7602    8.1770 O   0  0  0  0  0  0  0  0  0  0  0  0
  -15.6854   -5.5889    6.4769 O   0  0  0  0  0  0  0  0  0  0  0  0
  -11.1894   -3.3810    7.0330 N   0  0  0  0  0  0  0  0  0  0  0  0
  -10.4017   -2.2107    7.1552 C   0  0  2  0  0  0  0  0  0  0  0  0
   -8.9804   -2.4695    6.8411 C   0  0  0  0  0  0  0  0  0  0  0  0
   -8.6564   -3.6505    6.4488 O   0  0  0  0  0  0  0  0  0  0  0  0
  -10.4752   -1.5705    8.5335 C   0  0  2  0  0  0  0  0  0  0  0  0
  -10.0384   -2.3691    9.5548 O   0  0  0  0  0  0  0  0  0  0  0  0
  -11.8706   -0.9987    8.7641 C   0  0  0  0  0  0  0  0  0  0  0  0
   -7.9631   -1.5133    6.9388 N   0  0  0  0  0  0  0  0  0  0  0  0
   -6.5712   -1.9257    6.5969 C   0  0  2  0  0  0  0  0  0  0  0  0
   -5.6439   -1.4515    7.5936 C   0  0  0  0  0  0  0  0  0  0  0  0
   -5.6475   -0.2480    7.9544 O   0  0  0  0  0  0  0  0  0  0  0  0
   -6.2559   -1.2103    5.2626 C   0  0  2  0  0  0  0  0  0  0  0  0
   -4.9674   -1.5315    4.8414 O   0  0  0  0  0  0  0  0  0  0  0  0
   -6.4594    0.2677    5.3847 C   0  0  0  0  0  0  0  0  0  0  0  0
   -4.6791   -2.3277    8.2215 N   0  0  0  0  0  0  0  0  0  0  0  0
   -3.7908   -1.8322    9.2142 C   0  0  2  0  0  0  0  0  0  0  0  0
   -2.4782   -1.3494    8.8542 C   0  0  0  0  0  0  0  0  0  0  0  0
   -2.0434   -1.5895    7.6460 O   0  0  0  0  0  0  0  0  0  0  0  0
   -3.6273   -2.8477   10.3575 C   0  0  2  0  0  0  0  0  0  0  0  0
   -2.9829   -4.0006    9.9442 O   0  0  0  0  0  0  0  0  0  0  0  0
   -4.9222   -3.2031   11.0108 C   0  0  0  0  0  0  0  0  0  0  0  0
   -1.5299   -0.6191    9.6331 N   0  0  0  0  0  0  0  0  0  0  0  0
   -0.3080    0.0073    9.0940 C   0  0  2  0  0  0  0  0  0  0  0  0
    0.8786   -0.7175    9.6349 C   0  0  0  0  0  0  0  0  0  0  0  0
    2.1118   -0.6910    9.0112 O   0  0  0  0  0  0  0  0  0  0  0  0
   -0.3766    1.3733    9.7843 C   0  0  0  0  0  0  0  0  0  0  0  0
   -0.6316    0.8805   11.2230 C   0  0  0  0  0  0  0  0  0  0  0  0
   -1.5822   -0.2947   11.0317 C   0  0  0  0  0  0  0  0  0  0  0  0
    0.7738   -1.3778   10.6891 O   0  0  0  0  0  0  0  0  0  0  0  0
  1  2  1  0
  2  3  1  0
  2  5  1  6
  3  4  2  0
  3  6  1  0
  6  7  1  0
  7  8  1  0
  7 10  1  6
  8  9  2  0
  8 11  1  0
 11 12  1  0
 12 13  1  0
 12 15  1  1
 13 14  2  0
 13 19  1  0
 15 16  1  0
 16 17  2  0
 16 18  1  0
 20 19  1  1
 20 21  1  0
 20 23  1  0
 21 22  2  0
 21 26  1  0
 23 24  1  0
 23 25  1  1
 27 26  1  1
 27 28  1  0
 27 30  1  0
 28 29  2  0
 28 33  1  0
 30 31  1  0
 30 32  1  1
 34 33  1  6
 34 35  1  0
 34 37  1  0
 35 36  2  0
 35 40  1  0
 37 38  1  0
 37 39  1  6
 40 41  1  0
 40 46  1  0
 41 42  1  1
 41 44  1  0
 42 43  1  0
 42 47  2  0
 44 45  1  0
 45 46  1  0
M  CHG  1   1   1
M  END
$$$$
