
     RDKit          3D

 47 47  0  0  0  0  0  0  0  0999 V2000
  -18.6655  -12.0939    2.3118 N   0  0  0  0  0  4  0  0  0  0  0  0
  -18.3096  -10.8917    3.0457 C   0  0  2  0  0  0  0  0  0  0  0  0
  -16.9971  -10.3286    2.6335 C   0  0  0  0  0  0  0  0  0  0  0  0
  -16.0117  -11.0441    2.3487 O   0  0  0  0  0  0  0  0  0  0  0  0
  -18.2694  -11.2553    4.5299 C   0  0  0  0  0  0  0  0  0  0  0  0
  -16.8603   -8.9052    2.5575 N   0  0  0  0  0  0  0  0  0  0  0  0
  -15.6540   -8.2858    2.1280 C   0  0  2  0  0  0  0  0  0  0  0  0
  -14.6264   -8.1044    3.1827 C   0  0  0  0  0  0  0  0  0  0  0  0
  -15.0308   -8.3079    4.3562 O   0  0  0  0  0  0  0  0  0  0  0  0
  -15.9359   -6.8585    1.6119 C   0  0  0  0  0  0  0  0  0  0  0  0
  -13.2813   -7.7366    2.9319 N   0  0  0  0  0  0  0  0  0  0  0  0
  -12.1808   -7.8381    3.8417 C   0  0  2  0  0  0  0  0  0  0  0  0
  -12.0766   -6.6111    4.6549 C   0  0  0  0  0  0  0  0  0  0  0  0
  -11.5739   -5.5798    4.1597 O   0  0  0  0  0  0  0  0  0  0  0  0
  -10.9217   -8.2126    3.1479 C   0  0  0  0  0  0  0  0  0  0  0  0
  -10.6771   -9.6456    2.9957 C   0  0  0  0  0  0  0  0  0  0  0  0
  -11.5120  -10.4972    3.4586 O   0  0  0  0  0  0  0  0  0  0  0  0
   -9.5595  -10.1923    2.3585 O   0  0  0  0  0  0  0  0  0  0  0  0
  -12.5166   -6.4928    6.0139 N   0  0  0  0  0  0  0  0  0  0  0  0
  -12.3259   -5.2605    6.6847 C   0  0  2  0  0  0  0  0  0  0  0  0
  -10.9143   -4.8234    6.6407 C   0  0  0  0  0  0  0  0  0  0  0  0
  -10.0023   -5.7277    6.7042 O   0  0  0  0  0  0  0  0  0  0  0  0
  -12.7707   -5.2859    8.1395 C   0  0  2  0  0  0  0  0  0  0  0  0
  -12.1060   -6.1909    8.9209 O   0  0  0  0  0  0  0  0  0  0  0  0
  -14.2886   -5.4191    8.2137 C   0  0  0  0  0  0  0  0  0  0  0  0
  -10.5034   -3.4900    6.5308 N   0  0  0  0  0  0  0  0  0  0  0  0
   -9.0444   -3.1917    6.6131 C   0  0  2  0  0  0  0  0  0  0  0  0
   -8.7673   -2.3268    7.7326 C   0  0  0  0  0  0  0  0  0  0  0  0
   -9.7022   -1.8491    8.4229 O   0  0  0  0  0  0  0  0  0  0  0  0
   -8.7174   -2.4208    5.3130 C   0  0  2  0  0  0  0  0  0  0  0  0
   -9.5820   -1.3379    5.1696 O   0  0  0  0  0  0  0  0  0  0  0  0
   -8.7500   -3.3320    4.1258 C   0  0  0  0  0  0  0  0  0  0  0  0
   -7.4168   -1.9746    8.1134 N   0  0  0  0  0  0  0  0  0  0  0  0
   -7.1799   -0.9831    9.1036 C   0  0  2  0  0  0  0  0  0  0  0  0
   -6.1256   -0.0104    8.9356 C   0  0  0  0  0  0  0  0  0  0  0  0
   -5.0956   -0.3388    8.2022 O   0  0  0  0  0  0  0  0  0  0  0  0
   -7.0186   -1.6245   10.4920 C   0  0  2  0  0  0  0  0  0  0  0  0
   -5.9350   -2.4835   10.5481 O   0  0  0  0  0  0  0  0  0  0  0  0
   -8.2481   -2.3369   10.9511 C   0  0  0  0  0  0  0  0  0  0  0  0
   -6.0135    1.3128    9.4608 N   0  0  0  0  0  0  0  0  0  0  0  0
   -5.5312    2.4791    8.6972 C   0  0  2  0  0  0  0  0  0  0  0  0
   -4.2206    2.9118    9.2638 C   0  0  0  0  0  0  0  0  0  0  0  0
   -3.3039    3.6465    8.5355 O   0  0  0  0  0  0  0  0  0  0  0  0
   -6.5813    3.5195    9.0995 C   0  0  0  0  0  0  0  0  0  0  0  0
   -6.5338    3.3019   10.6253 C   0  0  0  0  0  0  0  0  0  0  0  0
   -6.3845    1.7919   10.7634 C   0  0  0  0  0  0  0  0  0  0  0  0
   -3.9228    2.6092   10.4376 O   0  0  0  0  0  0  0  0  0  0  0  0
  1  2  1  0
  2  3  1  0
  2  5  1  1
  3  4  2  0
  3  6  1  0
  6  7  1  0
  7  8  1  0
  7 10  1  1
  8  9  2  0
  8 11  1  0
 11 12  1  0
 12 13  1  0
 12 15  1  6
 13 14  2  0
 13 19  1  0
 15 16  1  0
 16 17  2  0
 16 18  1  0
 20 19  1  1
 20 21  1  0
 20 23  1  0
 21 22  2  0
 21 26  1  0
 23 24  1  0
 23 25  1  6
 27 26  1  6
 27 28  1  0
 27 30  1  0
 28 29  2  0
 28 33  1  0
 30 31  1  0
 30 32  1  6
 34 33  1  6
 34 35  1  0
 34 37  1  0
 35 36  2  0
 35 40  1  0
 37 38  1  0
 37 39  1  6
 40 41  1  0
 40 46  1  0
 41 42  1  1
 41 44  1  0
 42 43  1  0
 42 47  2  0
 44 45  1  0
 45 46  1  0
M  CHG  1   1   1
M  END
$$$$
