
     RDKit          3D

 47 47  0  0  0  0  0  0  0  0999 V2000
  -17.7496  -10.4934    5.6098 N   0  0  0  0  0  4  0  0  0  0  0  0
  -16.4429  -10.1311    6.1313 C   0  0  2  0  0  0  0  0  0  0  0  0
  -16.0589   -8.7314    5.8103 C   0  0  0  0  0  0  0  0  0  0  0  0
  -16.8804   -7.7885    5.7990 O   0  0  0  0  0  0  0  0  0  0  0  0
  -15.4235  -11.0955    5.5250 C   0  0  0  0  0  0  0  0  0  0  0  0
  -14.6876   -8.4545    5.5048 N   0  0  0  0  0  0  0  0  0  0  0  0
  -14.2291   -7.1378    5.2232 C   0  0  2  0  0  0  0  0  0  0  0  0
  -12.7846   -7.0264    4.9031 C   0  0  0  0  0  0  0  0  0  0  0  0
  -12.2757   -8.0553    4.3889 O   0  0  0  0  0  0  0  0  0  0  0  0
  -14.4253   -6.2250    6.4525 C   0  0  0  0  0  0  0  0  0  0  0  0
  -12.0021   -5.8686    5.1368 N   0  0  0  0  0  0  0  0  0  0  0  0
  -11.2271   -5.1487    4.1723 C   0  0  2  0  0  0  0  0  0  0  0  0
  -10.6136   -3.9601    4.7957 C   0  0  0  0  0  0  0  0  0  0  0  0
  -10.7447   -2.8401    4.2572 O   0  0  0  0  0  0  0  0  0  0  0  0
  -12.0086   -4.8520    2.9442 C   0  0  0  0  0  0  0  0  0  0  0  0
  -11.7407   -5.7113    1.7925 C   0  0  0  0  0  0  0  0  0  0  0  0
  -12.1835   -5.3975    0.6341 O   0  0  0  0  0  0  0  0  0  0  0  0
  -11.0085   -6.9007    1.8485 O   0  0  0  0  0  0  0  0  0  0  0  0
   -9.8514   -3.9767    6.0094 N   0  0  0  0  0  0  0  0  0  0  0  0
   -9.8534   -2.8217    6.8286 C   0  0  2  0  0  0  0  0  0  0  0  0
   -8.4950   -2.4821    7.3032 C   0  0  0  0  0  0  0  0  0  0  0  0
   -7.7350   -3.4445    7.6903 O   0  0  0  0  0  0  0  0  0  0  0  0
  -10.7653   -2.9386    8.0408 C   0  0  2  0  0  0  0  0  0  0  0  0
  -10.3861   -3.8908    8.9471 O   0  0  0  0  0  0  0  0  0  0  0  0
  -12.2149   -3.0767    7.5859 C   0  0  0  0  0  0  0  0  0  0  0  0
   -7.9789   -1.1823    7.3563 N   0  0  0  0  0  0  0  0  0  0  0  0
   -6.5859   -0.9956    7.8555 C   0  0  2  0  0  0  0  0  0  0  0  0
   -6.4928    0.1960    8.6613 C   0  0  0  0  0  0  0  0  0  0  0  0
   -7.3683    1.0940    8.5849 O   0  0  0  0  0  0  0  0  0  0  0  0
   -5.7276   -0.7898    6.5856 C   0  0  2  0  0  0  0  0  0  0  0  0
   -6.2525    0.2468    5.8172 O   0  0  0  0  0  0  0  0  0  0  0  0
   -5.6041   -2.0634    5.8088 C   0  0  0  0  0  0  0  0  0  0  0  0
   -5.4032    0.4115    9.5882 N   0  0  0  0  0  0  0  0  0  0  0  0
   -5.2412    1.6667   10.2347 C   0  0  2  0  0  0  0  0  0  0  0  0
   -4.1781    2.5640    9.8469 C   0  0  0  0  0  0  0  0  0  0  0  0
   -3.1275    2.0568    9.2589 O   0  0  0  0  0  0  0  0  0  0  0  0
   -5.1829    1.4918   11.7615 C   0  0  2  0  0  0  0  0  0  0  0  0
   -4.0883    0.7450   12.1606 O   0  0  0  0  0  0  0  0  0  0  0  0
   -6.4299    0.8967   12.3278 C   0  0  0  0  0  0  0  0  0  0  0  0
   -4.0764    3.9796   10.0051 N   0  0  0  0  0  0  0  0  0  0  0  0
   -3.0505    4.8229    9.3628 C   0  0  2  0  0  0  0  0  0  0  0  0
   -2.1428    5.3581   10.4189 C   0  0  0  0  0  0  0  0  0  0  0  0
   -1.0876    6.2034   10.1314 O   0  0  0  0  0  0  0  0  0  0  0  0
   -3.9231    5.9797    8.8655 C   0  0  0  0  0  0  0  0  0  0  0  0
   -4.6907    6.2550   10.1742 C   0  0  0  0  0  0  0  0  0  0  0  0
   -4.9423    4.8618   10.7372 C   0  0  0  0  0  0  0  0  0  0  0  0
   -2.3269    5.0425   11.6125 O   0  0  0  0  0  0  0  0  0  0  0  0
  1  2  1  0
  2  3  1  0
  2  5  1  6
  3  4  2  0
  3  6  1  0
  6  7  1  0
  7  8  1  0
  7 10  1  1
  8  9  2  0
  8 11  1  0
 11 12  1  0
 12 13  1  0
 12 15  1  6
 13 14  2  0
 13 19  1  0
 15 16  1  0
 16 17  2  0
 16 18  1  0
 20 19  1  1
 20 21  1  0
 20 23  1  0
 21 22  2  0
 21 26  1  0
 23 24  1  0
 23 25  1  6
 27 26  1  6
 27 28  1  0
 27 30  1  0
 28 29  2  0
 28 33  1  0
 30 31  1  0
 30 32  1  6
 34 33  1  6
 34 35  1  0
 34 37  1  0
 35 36  2  0
 35 40  1  0
 37 38  1  0
 37 39  1  6
 40 41  1  0
 40 46  1  0
 41 42  1  1
 41 44  1  0
 42 43  1  0
 42 47  2  0
 44 45  1  0
 45 46  1  0
M  CHG  1   1   1
M  END
$$$$
