
     RDKit          3D

 47 47  0  0  0  0  0  0  0  0999 V2000
  -17.4226   -9.5247    3.8128 N   0  0  0  0  0  4  0  0  0  0  0  0
  -16.6277   -9.0988    4.9519 C   0  0  2  0  0  0  0  0  0  0  0  0
  -15.4824   -8.2325    4.5676 C   0  0  0  0  0  0  0  0  0  0  0  0
  -15.1933   -7.9791    3.3775 O   0  0  0  0  0  0  0  0  0  0  0  0
  -16.1090  -10.3582    5.6459 C   0  0  0  0  0  0  0  0  0  0  0  0
  -14.6802   -7.6631    5.6080 N   0  0  0  0  0  0  0  0  0  0  0  0
  -13.6350   -6.7381    5.3333 C   0  0  2  0  0  0  0  0  0  0  0  0
  -12.9325   -6.2055    6.5266 C   0  0  0  0  0  0  0  0  0  0  0  0
  -13.1876   -6.8052    7.6024 O   0  0  0  0  0  0  0  0  0  0  0  0
  -14.1959   -5.4874    4.6233 C   0  0  0  0  0  0  0  0  0  0  0  0
  -12.0319   -5.1120    6.5010 N   0  0  0  0  0  0  0  0  0  0  0  0
  -10.7281   -5.0612    7.0899 C   0  0  2  0  0  0  0  0  0  0  0  0
  -10.1095   -3.7437    6.8461 C   0  0  0  0  0  0  0  0  0  0  0  0
   -9.3727   -3.5793    5.8502 O   0  0  0  0  0  0  0  0  0  0  0  0
   -9.8863   -6.2114    6.6710 C   0  0  0  0  0  0  0  0  0  0  0  0
   -9.1908   -6.9192    7.7442 C   0  0  0  0  0  0  0  0  0  0  0  0
   -8.0260   -7.4099    7.5470 O   0  0  0  0  0  0  0  0  0  0  0  0
   -9.7108   -7.1153    9.0268 O   0  0  0  0  0  0  0  0  0  0  0  0
  -10.2846   -2.5926    7.6819 N   0  0  0  0  0  0  0  0  0  0  0  0
   -9.6315   -1.3882    7.3247 C   0  0  2  0  0  0  0  0  0  0  0  0
   -8.1605   -1.5192    7.3935 C   0  0  0  0  0  0  0  0  0  0  0  0
   -7.6669   -2.2899    8.2968 O   0  0  0  0  0  0  0  0  0  0  0  0
  -10.0433   -0.1979    8.1783 C   0  0  2  0  0  0  0  0  0  0  0  0
   -9.6672   -0.2831    9.4909 O   0  0  0  0  0  0  0  0  0  0  0  0
  -11.5308    0.0833    7.9901 C   0  0  0  0  0  0  0  0  0  0  0  0
   -7.2682   -0.8628    6.5381 N   0  0  0  0  0  0  0  0  0  0  0  0
   -5.8222   -0.8478    6.9030 C   0  0  2  0  0  0  0  0  0  0  0  0
   -5.5392    0.2409    7.8044 C   0  0  0  0  0  0  0  0  0  0  0  0
   -6.3111    1.2293    7.8813 O   0  0  0  0  0  0  0  0  0  0  0  0
   -5.0749   -0.5836    5.5750 C   0  0  2  0  0  0  0  0  0  0  0  0
   -5.4368    0.6602    5.0626 O   0  0  0  0  0  0  0  0  0  0  0  0
   -5.3133   -1.6902    4.5955 C   0  0  0  0  0  0  0  0  0  0  0  0
   -4.3700    0.2467    8.6564 N   0  0  0  0  0  0  0  0  0  0  0  0
   -4.0604    1.3830    9.4519 C   0  0  2  0  0  0  0  0  0  0  0  0
   -2.9089    2.2014    9.1519 C   0  0  0  0  0  0  0  0  0  0  0  0
   -2.0854    1.7900    8.2249 O   0  0  0  0  0  0  0  0  0  0  0  0
   -4.0021    1.0077   10.9421 C   0  0  2  0  0  0  0  0  0  0  0  0
   -2.9333    0.1772   11.2305 O   0  0  0  0  0  0  0  0  0  0  0  0
   -5.2673    0.3875   11.4367 C   0  0  0  0  0  0  0  0  0  0  0  0
   -2.4988    3.4435    9.7247 N   0  0  0  0  0  0  0  0  0  0  0  0
   -1.4004    4.2821    9.2084 C   0  0  2  0  0  0  0  0  0  0  0  0
   -0.2873    4.2753   10.2018 C   0  0  0  0  0  0  0  0  0  0  0  0
   -0.3709    3.6001   11.4049 O   0  0  0  0  0  0  0  0  0  0  0  0
   -2.0652    5.6614    9.2600 C   0  0  0  0  0  0  0  0  0  0  0  0
   -2.6050    5.5920   10.7027 C   0  0  0  0  0  0  0  0  0  0  0  0
   -3.0741    4.1485   10.8365 C   0  0  0  0  0  0  0  0  0  0  0  0
    0.7670    4.8964    9.9552 O   0  0  0  0  0  0  0  0  0  0  0  0
  1  2  1  0
  2  3  1  0
  2  5  1  6
  3  4  2  0
  3  6  1  0
  6  7  1  0
  7  8  1  0
  7 10  1  1
  8  9  2  0
  8 11  1  0
 11 12  1  0
 12 13  1  0
 12 15  1  6
 13 14  2  0
 13 19  1  0
 15 16  1  0
 16 17  2  0
 16 18  1  0
 20 19  1  1
 20 21  1  0
 20 23  1  0
 21 22  2  0
 21 26  1  0
 23 24  1  0
 23 25  1  1
 27 26  1  6
 27 28  1  0
 27 30  1  0
 28 29  2  0
 28 33  1  0
 30 31  1  0
 30 32  1  6
 34 33  1  6
 34 35  1  0
 34 37  1  0
 35 36  2  0
 35 40  1  0
 37 38  1  0
 37 39  1  6
 40 41  1  0
 40 46  1  0
 41 42  1  1
 41 44  1  0
 42 43  1  0
 42 47  2  0
 44 45  1  0
 45 46  1  0
M  CHG  1   1   1
M  END
$$$$
