
     RDKit          3D

 47 47  0  0  0  0  0  0  0  0999 V2000
  -16.5705  -11.2385    6.7152 N   0  0  0  0  0  4  0  0  0  0  0  0
  -15.2380  -10.6595    6.7265 C   0  0  2  0  0  0  0  0  0  0  0  0
  -15.2508   -9.1749    6.6528 C   0  0  0  0  0  0  0  0  0  0  0  0
  -16.0983   -8.5361    5.9912 O   0  0  0  0  0  0  0  0  0  0  0  0
  -14.4811  -11.2270    5.5257 C   0  0  0  0  0  0  0  0  0  0  0  0
  -14.2498   -8.4487    7.3746 N   0  0  0  0  0  0  0  0  0  0  0  0
  -14.1544   -7.0308    7.3110 C   0  0  2  0  0  0  0  0  0  0  0  0
  -13.5992   -6.4909    6.0455 C   0  0  0  0  0  0  0  0  0  0  0  0
  -14.2645   -6.7685    5.0147 O   0  0  0  0  0  0  0  0  0  0  0  0
  -13.2027   -6.5056    8.4071 C   0  0  0  0  0  0  0  0  0  0  0  0
  -12.4175   -5.7139    5.9594 N   0  0  0  0  0  0  0  0  0  0  0  0
  -12.1049   -4.7366    4.9612 C   0  0  2  0  0  0  0  0  0  0  0  0
  -10.8248   -4.0748    5.2788 C   0  0  0  0  0  0  0  0  0  0  0  0
   -9.8682   -4.1584    4.4791 O   0  0  0  0  0  0  0  0  0  0  0  0
  -13.2324   -3.7959    4.7353 C   0  0  0  0  0  0  0  0  0  0  0  0
  -14.0807   -4.0802    3.5794 C   0  0  0  0  0  0  0  0  0  0  0  0
  -15.3251   -3.7843    3.6016 O   0  0  0  0  0  0  0  0  0  0  0  0
  -13.6303   -4.6738    2.3967 O   0  0  0  0  0  0  0  0  0  0  0  0
  -10.5712   -3.3164    6.4683 N   0  0  0  0  0  0  0  0  0  0  0  0
   -9.4903   -2.4017    6.4731 C   0  0  2  0  0  0  0  0  0  0  0  0
   -8.5478   -2.6703    7.5800 C   0  0  0  0  0  0  0  0  0  0  0  0
   -8.9779   -2.5296    8.7838 O   0  0  0  0  0  0  0  0  0  0  0  0
   -9.9264   -0.9468    6.5624 C   0  0  2  0  0  0  0  0  0  0  0  0
  -10.4394   -0.5812    7.7769 O   0  0  0  0  0  0  0  0  0  0  0  0
  -10.8421   -0.6087    5.3900 C   0  0  0  0  0  0  0  0  0  0  0  0
   -7.2184   -3.0714    7.4057 N   0  0  0  0  0  0  0  0  0  0  0  0
   -6.3466   -3.1700    8.6118 C   0  0  2  0  0  0  0  0  0  0  0  0
   -5.4580   -2.0376    8.6875 C   0  0  0  0  0  0  0  0  0  0  0  0
   -4.6815   -1.7648    7.7381 O   0  0  0  0  0  0  0  0  0  0  0  0
   -5.4939   -4.4408    8.3890 C   0  0  2  0  0  0  0  0  0  0  0  0
   -4.9232   -4.4163    7.1184 O   0  0  0  0  0  0  0  0  0  0  0  0
   -6.3032   -5.6782    8.6221 C   0  0  0  0  0  0  0  0  0  0  0  0
   -5.4201   -1.1688    9.8437 N   0  0  0  0  0  0  0  0  0  0  0  0
   -4.4889   -0.0974    9.9131 C   0  0  2  0  0  0  0  0  0  0  0  0
   -3.1216   -0.3337   10.3136 C   0  0  0  0  0  0  0  0  0  0  0  0
   -2.8884   -1.2854   11.1775 O   0  0  0  0  0  0  0  0  0  0  0  0
   -5.0430    1.0540   10.7687 C   0  0  2  0  0  0  0  0  0  0  0  0
   -5.4698    0.6224   12.0125 O   0  0  0  0  0  0  0  0  0  0  0  0
   -6.1431    1.8047   10.0933 C   0  0  0  0  0  0  0  0  0  0  0  0
   -1.9243    0.3289    9.9052 N   0  0  0  0  0  0  0  0  0  0  0  0
   -0.5653   -0.2220   10.0660 C   0  0  2  0  0  0  0  0  0  0  0  0
    0.1690    0.6038   11.0683 C   0  0  0  0  0  0  0  0  0  0  0  0
    1.4075    0.2415   11.5635 O   0  0  0  0  0  0  0  0  0  0  0  0
    0.0187    0.0901    8.6845 C   0  0  0  0  0  0  0  0  0  0  0  0
   -0.3975    1.5723    8.5990 C   0  0  0  0  0  0  0  0  0  0  0  0
   -1.7862    1.5872    9.2256 C   0  0  0  0  0  0  0  0  0  0  0  0
   -0.3374    1.6651   11.4874 O   0  0  0  0  0  0  0  0  0  0  0  0
  1  2  1  0
  2  3  1  0
  2  5  1  6
  3  4  2  0
  3  6  1  0
  6  7  1  0
  7  8  1  0
  7 10  1  1
  8  9  2  0
  8 11  1  0
 11 12  1  0
 12 13  1  0
 12 15  1  1
 13 14  2  0
 13 19  1  0
 15 16  1  0
 16 17  2  0
 16 18  1  0
 20 19  1  1
 20 21  1  0
 20 23  1  0
 21 22  2  0
 21 26  1  0
 23 24  1  0
 23 25  1  6
 27 26  1  6
 27 28  1  0
 27 30  1  0
 28 29  2  0
 28 33  1  0
 30 31  1  0
 30 32  1  6
 34 33  1  1
 34 35  1  0
 34 37  1  0
 35 36  2  0
 35 40  1  0
 37 38  1  0
 37 39  1  6
 40 41  1  0
 40 46  1  0
 41 42  1  1
 41 44  1  0
 42 43  1  0
 42 47  2  0
 44 45  1  0
 45 46  1  0
M  CHG  1   1   1
M  END
$$$$
