
     RDKit          3D

 47 47  0  0  0  0  0  0  0  0999 V2000
  -15.9215   -6.4970    2.3981 N   0  0  0  0  0  4  0  0  0  0  0  0
  -15.9039   -6.5052    3.8508 C   0  0  2  0  0  0  0  0  0  0  0  0
  -14.7766   -7.2951    4.4120 C   0  0  0  0  0  0  0  0  0  0  0  0
  -13.6784   -7.4196    3.8267 O   0  0  0  0  0  0  0  0  0  0  0  0
  -17.2316   -7.0982    4.3224 C   0  0  0  0  0  0  0  0  0  0  0  0
  -14.9590   -7.9366    5.6791 N   0  0  0  0  0  0  0  0  0  0  0  0
  -13.8725   -8.1788    6.5647 C   0  0  2  0  0  0  0  0  0  0  0  0
  -13.3648   -6.9843    7.2836 C   0  0  0  0  0  0  0  0  0  0  0  0
  -13.7626   -6.8728    8.4715 O   0  0  0  0  0  0  0  0  0  0  0  0
  -12.6508   -8.7105    5.7852 C   0  0  0  0  0  0  0  0  0  0  0  0
  -12.4937   -6.0215    6.7163 N   0  0  0  0  0  0  0  0  0  0  0  0
  -11.2801   -5.5214    7.2874 C   0  0  2  0  0  0  0  0  0  0  0  0
  -10.6516   -4.5459    6.3758 C   0  0  0  0  0  0  0  0  0  0  0  0
   -9.8437   -4.9398    5.5075 O   0  0  0  0  0  0  0  0  0  0  0  0
  -10.3756   -6.6198    7.7146 C   0  0  0  0  0  0  0  0  0  0  0  0
   -9.1440   -6.2094    8.3864 C   0  0  0  0  0  0  0  0  0  0  0  0
   -8.0709   -6.8909    8.2434 O   0  0  0  0  0  0  0  0  0  0  0  0
   -9.0307   -5.0849    9.2090 O   0  0  0  0  0  0  0  0  0  0  0  0
  -10.8938   -3.1334    6.3990 N   0  0  0  0  0  0  0  0  0  0  0  0
  -10.2059   -2.3110    5.4742 C   0  0  2  0  0  0  0  0  0  0  0  0
   -8.9770   -1.7341    6.0597 C   0  0  0  0  0  0  0  0  0  0  0  0
   -8.2319   -1.0104    5.3017 O   0  0  0  0  0  0  0  0  0  0  0  0
  -11.0528   -1.1712    4.9280 C   0  0  2  0  0  0  0  0  0  0  0  0
  -11.4737   -0.2739    5.8712 O   0  0  0  0  0  0  0  0  0  0  0  0
  -12.1865   -1.7322    4.0752 C   0  0  0  0  0  0  0  0  0  0  0  0
   -8.5715   -1.9201    7.3863 N   0  0  0  0  0  0  0  0  0  0  0  0
   -7.2763   -1.3209    7.8193 C   0  0  2  0  0  0  0  0  0  0  0  0
   -6.2123   -2.2881    7.7176 C   0  0  0  0  0  0  0  0  0  0  0  0
   -6.4593   -3.5200    7.7355 O   0  0  0  0  0  0  0  0  0  0  0  0
   -7.4734   -0.9729    9.3131 C   0  0  2  0  0  0  0  0  0  0  0  0
   -7.7542   -2.1280   10.0395 O   0  0  0  0  0  0  0  0  0  0  0  0
   -8.5287    0.0746    9.4857 C   0  0  0  0  0  0  0  0  0  0  0  0
   -4.8267   -1.8929    7.5878 N   0  0  0  0  0  0  0  0  0  0  0  0
   -3.7943   -2.8696    7.5743 C   0  0  2  0  0  0  0  0  0  0  0  0
   -2.6572   -2.7525    8.4570 C   0  0  0  0  0  0  0  0  0  0  0  0
   -2.1675   -1.5614    8.6763 O   0  0  0  0  0  0  0  0  0  0  0  0
   -3.2675   -3.0887    6.1463 C   0  0  2  0  0  0  0  0  0  0  0  0
   -4.2908   -3.2934    5.2374 O   0  0  0  0  0  0  0  0  0  0  0  0
   -2.2828   -4.2076    6.0538 C   0  0  0  0  0  0  0  0  0  0  0  0
   -1.9436   -3.7673    9.1643 N   0  0  0  0  0  0  0  0  0  0  0  0
   -0.9632   -3.5099   10.2360 C   0  0  2  0  0  0  0  0  0  0  0  0
    0.3914   -3.9001    9.7475 C   0  0  0  0  0  0  0  0  0  0  0  0
    1.5507   -3.3374   10.2474 O   0  0  0  0  0  0  0  0  0  0  0  0
   -1.4076   -4.5531   11.2662 C   0  0  0  0  0  0  0  0  0  0  0  0
   -1.4833   -5.7729   10.3259 C   0  0  0  0  0  0  0  0  0  0  0  0
   -2.0603   -5.1939    9.0401 C   0  0  0  0  0  0  0  0  0  0  0  0
    0.5027   -4.7654    8.8548 O   0  0  0  0  0  0  0  0  0  0  0  0
  1  2  1  0
  2  3  1  0
  2  5  1  1
  3  4  2  0
  3  6  1  0
  6  7  1  0
  7  8  1  0
  7 10  1  6
  8  9  2  0
  8 11  1  0
 11 12  1  0
 12 13  1  0
 12 15  1  6
 13 14  2  0
 13 19  1  0
 15 16  1  0
 16 17  2  0
 16 18  1  0
 20 19  1  1
 20 21  1  0
 20 23  1  0
 21 22  2  0
 21 26  1  0
 23 24  1  0
 23 25  1  1
 27 26  1  1
 27 28  1  0
 27 30  1  0
 28 29  2  0
 28 33  1  0
 30 31  1  0
 30 32  1  6
 34 33  1  6
 34 35  1  0
 34 37  1  0
 35 36  2  0
 35 40  1  0
 37 38  1  0
 37 39  1  1
 40 41  1  0
 40 46  1  0
 41 42  1  6
 41 44  1  0
 42 43  1  0
 42 47  2  0
 44 45  1  0
 45 46  1  0
M  CHG  1   1   1
M  END
$$$$
