
     RDKit          3D

 47 47  0  0  0  0  0  0  0  0999 V2000
  -16.6308  -10.0819    1.6410 N   0  0  0  0  0  4  0  0  0  0  0  0
  -16.7546   -9.9803    3.0850 C   0  0  2  0  0  0  0  0  0  0  0  0
  -15.6153   -9.2626    3.7150 C   0  0  0  0  0  0  0  0  0  0  0  0
  -15.4473   -9.2119    4.9532 O   0  0  0  0  0  0  0  0  0  0  0  0
  -16.8358  -11.4024    3.6397 C   0  0  0  0  0  0  0  0  0  0  0  0
  -14.6702   -8.6052    2.8636 N   0  0  0  0  0  0  0  0  0  0  0  0
  -13.5407   -7.9142    3.3834 C   0  0  2  0  0  0  0  0  0  0  0  0
  -13.7328   -6.4583    3.5948 C   0  0  0  0  0  0  0  0  0  0  0  0
  -14.7248   -5.9635    3.0004 O   0  0  0  0  0  0  0  0  0  0  0  0
  -12.3526   -8.0101    2.4024 C   0  0  0  0  0  0  0  0  0  0  0  0
  -12.8918   -5.6506    4.3996 N   0  0  0  0  0  0  0  0  0  0  0  0
  -12.8227   -5.6435    5.8295 C   0  0  2  0  0  0  0  0  0  0  0  0
  -11.4536   -5.3158    6.2722 C   0  0  0  0  0  0  0  0  0  0  0  0
  -10.5907   -6.2173    6.3379 O   0  0  0  0  0  0  0  0  0  0  0  0
  -13.3644   -6.8963    6.4161 C   0  0  0  0  0  0  0  0  0  0  0  0
  -14.4997   -6.7390    7.3232 C   0  0  0  0  0  0  0  0  0  0  0  0
  -15.3959   -5.8562    7.0910 O   0  0  0  0  0  0  0  0  0  0  0  0
  -14.7017   -7.5048    8.4750 O   0  0  0  0  0  0  0  0  0  0  0  0
  -11.0089   -4.0062    6.6484 N   0  0  0  0  0  0  0  0  0  0  0  0
   -9.6522   -3.6621    6.4344 C   0  0  2  0  0  0  0  0  0  0  0  0
   -9.1947   -2.6184    7.3763 C   0  0  0  0  0  0  0  0  0  0  0  0
   -8.7884   -1.5014    6.8853 O   0  0  0  0  0  0  0  0  0  0  0  0
   -9.3626   -3.1853    5.0189 C   0  0  2  0  0  0  0  0  0  0  0  0
  -10.1822   -2.1822    4.5787 O   0  0  0  0  0  0  0  0  0  0  0  0
   -9.3038   -4.3804    4.0727 C   0  0  0  0  0  0  0  0  0  0  0  0
   -9.1774   -2.7632    8.7682 N   0  0  0  0  0  0  0  0  0  0  0  0
   -7.8678   -2.6535    9.4733 C   0  0  2  0  0  0  0  0  0  0  0  0
   -7.0382   -1.6547    8.8471 C   0  0  0  0  0  0  0  0  0  0  0  0
   -6.6447   -1.7963    7.6623 O   0  0  0  0  0  0  0  0  0  0  0  0
   -7.1925   -4.0319    9.2842 C   0  0  2  0  0  0  0  0  0  0  0  0
   -6.4887   -4.3808   10.4347 O   0  0  0  0  0  0  0  0  0  0  0  0
   -6.3241   -4.0416    8.0649 C   0  0  0  0  0  0  0  0  0  0  0  0
   -6.6269   -0.4543    9.5419 N   0  0  0  0  0  0  0  0  0  0  0  0
   -5.5946    0.3684    9.0153 C   0  0  2  0  0  0  0  0  0  0  0  0
   -4.2087    0.0963    9.3172 C   0  0  0  0  0  0  0  0  0  0  0  0
   -3.9398   -0.8483   10.1785 O   0  0  0  0  0  0  0  0  0  0  0  0
   -5.8664    1.8505    9.3224 C   0  0  2  0  0  0  0  0  0  0  0  0
   -5.8733    2.1098   10.6819 O   0  0  0  0  0  0  0  0  0  0  0  0
   -7.1334    2.3497    8.7098 C   0  0  0  0  0  0  0  0  0  0  0  0
   -3.0263    0.7151    8.8090 N   0  0  0  0  0  0  0  0  0  0  0  0
   -1.6588    0.1992    9.0086 C   0  0  2  0  0  0  0  0  0  0  0  0
   -0.9153    1.1459    9.8900 C   0  0  0  0  0  0  0  0  0  0  0  0
    0.4565    1.0892   10.0493 O   0  0  0  0  0  0  0  0  0  0  0  0
   -1.1033    0.3474    7.5886 C   0  0  0  0  0  0  0  0  0  0  0  0
   -1.5368    1.8050    7.3335 C   0  0  0  0  0  0  0  0  0  0  0  0
   -2.9141    1.8834    7.9805 C   0  0  0  0  0  0  0  0  0  0  0  0
   -1.5376    2.0293   10.5149 O   0  0  0  0  0  0  0  0  0  0  0  0
  1  2  1  0
  2  3  1  0
  2  5  1  1
  3  4  2  0
  3  6  1  0
  6  7  1  0
  7  8  1  0
  7 10  1  6
  8  9  2  0
  8 11  1  0
 11 12  1  0
 12 13  1  0
 12 15  1  6
 13 14  2  0
 13 19  1  0
 15 16  1  0
 16 17  2  0
 16 18  1  0
 20 19  1  6
 20 21  1  0
 20 23  1  0
 21 22  2  0
 21 26  1  0
 23 24  1  0
 23 25  1  6
 27 26  1  6
 27 28  1  0
 27 30  1  0
 28 29  2  0
 28 33  1  0
 30 31  1  0
 30 32  1  6
 34 33  1  1
 34 35  1  0
 34 37  1  0
 35 36  2  0
 35 40  1  0
 37 38  1  0
 37 39  1  1
 40 41  1  0
 40 46  1  0
 41 42  1  1
 41 44  1  0
 42 43  1  0
 42 47  2  0
 44 45  1  0
 45 46  1  0
M  CHG  1   1   1
M  END
$$$$
