
     RDKit          3D

 47 47  0  0  0  0  0  0  0  0999 V2000
  -12.7350   -9.1302    0.5728 N   0  0  0  0  0  4  0  0  0  0  0  0
  -14.1035   -8.7009    0.3411 C   0  0  2  0  0  0  0  0  0  0  0  0
  -14.4777   -7.5031    1.1380 C   0  0  0  0  0  0  0  0  0  0  0  0
  -14.2528   -6.3349    0.7525 O   0  0  0  0  0  0  0  0  0  0  0  0
  -15.0190   -9.8688    0.7081 C   0  0  0  0  0  0  0  0  0  0  0  0
  -15.1264   -7.6999    2.3993 N   0  0  0  0  0  0  0  0  0  0  0  0
  -14.4426   -8.2439    3.5218 C   0  0  2  0  0  0  0  0  0  0  0  0
  -14.2971   -7.3264    4.6786 C   0  0  0  0  0  0  0  0  0  0  0  0
  -15.2212   -7.3962    5.5290 O   0  0  0  0  0  0  0  0  0  0  0  0
  -12.9947   -8.6192    3.1401 C   0  0  0  0  0  0  0  0  0  0  0  0
  -13.2150   -6.4288    4.8546 N   0  0  0  0  0  0  0  0  0  0  0  0
  -12.8334   -5.7736    6.0687 C   0  0  2  0  0  0  0  0  0  0  0  0
  -11.5934   -5.0003    5.8629 C   0  0  0  0  0  0  0  0  0  0  0  0
  -10.7477   -5.3943    5.0316 O   0  0  0  0  0  0  0  0  0  0  0  0
  -12.7733   -6.7194    7.2129 C   0  0  0  0  0  0  0  0  0  0  0  0
  -14.0608   -7.1570    7.7490 C   0  0  0  0  0  0  0  0  0  0  0  0
  -15.1527   -6.7756    7.2024 O   0  0  0  0  0  0  0  0  0  0  0  0
  -14.2104   -7.9953    8.8576 O   0  0  0  0  0  0  0  0  0  0  0  0
  -11.2600   -3.7923    6.5585 N   0  0  0  0  0  0  0  0  0  0  0  0
  -10.0185   -3.1699    6.2822 C   0  0  2  0  0  0  0  0  0  0  0  0
   -9.2502   -2.9036    7.5169 C   0  0  0  0  0  0  0  0  0  0  0  0
   -9.8769   -2.3925    8.5168 O   0  0  0  0  0  0  0  0  0  0  0  0
  -10.1519   -1.8635    5.5140 C   0  0  2  0  0  0  0  0  0  0  0  0
   -8.9640   -1.2451    5.2345 O   0  0  0  0  0  0  0  0  0  0  0  0
  -11.1601   -0.9548    6.2105 C   0  0  0  0  0  0  0  0  0  0  0  0
   -7.8858   -3.1739    7.6720 N   0  0  0  0  0  0  0  0  0  0  0  0
   -7.1987   -2.6611    8.8923 C   0  0  2  0  0  0  0  0  0  0  0  0
   -6.6609   -1.3450    8.6547 C   0  0  0  0  0  0  0  0  0  0  0  0
   -6.1900   -1.0359    7.5315 O   0  0  0  0  0  0  0  0  0  0  0  0
   -6.0178   -3.6318    9.1269 C   0  0  2  0  0  0  0  0  0  0  0  0
   -6.3833   -4.9255    8.7619 O   0  0  0  0  0  0  0  0  0  0  0  0
   -5.5352   -3.5581   10.5419 C   0  0  0  0  0  0  0  0  0  0  0  0
   -6.6409   -0.3278    9.6832 N   0  0  0  0  0  0  0  0  0  0  0  0
   -5.8540    0.8451    9.5252 C   0  0  2  0  0  0  0  0  0  0  0  0
   -4.5912    0.9836   10.2122 C   0  0  0  0  0  0  0  0  0  0  0  0
   -4.3843    0.2521   11.2746 O   0  0  0  0  0  0  0  0  0  0  0  0
   -6.6890    2.1056    9.8056 C   0  0  2  0  0  0  0  0  0  0  0  0
   -7.0616    2.2007   11.1350 O   0  0  0  0  0  0  0  0  0  0  0  0
   -7.8991    2.2081    8.9367 C   0  0  0  0  0  0  0  0  0  0  0  0
   -3.4774    1.8254    9.9121 N   0  0  0  0  0  0  0  0  0  0  0  0
   -2.1634    1.7454   10.5778 C   0  0  2  0  0  0  0  0  0  0  0  0
   -1.9643    2.9802   11.3911 C   0  0  0  0  0  0  0  0  0  0  0  0
   -1.4085    2.9534   12.6564 O   0  0  0  0  0  0  0  0  0  0  0  0
   -1.2372    1.8324    9.3606 C   0  0  0  0  0  0  0  0  0  0  0  0
   -1.8807    3.0580    8.6813 C   0  0  0  0  0  0  0  0  0  0  0  0
   -3.3727    2.8442    8.9045 C   0  0  0  0  0  0  0  0  0  0  0  0
   -2.3058    4.0883   10.9290 O   0  0  0  0  0  0  0  0  0  0  0  0
  1  2  1  0
  2  3  1  0
  2  5  1  1
  3  4  2  0
  3  6  1  0
  6  7  1  0
  7  8  1  0
  7 10  1  6
  8  9  2  0
  8 11  1  0
 11 12  1  0
 12 13  1  0
 12 15  1  1
 13 14  2  0
 13 19  1  0
 15 16  1  0
 16 17  2  0
 16 18  1  0
 20 19  1  1
 20 21  1  0
 20 23  1  0
 21 22  2  0
 21 26  1  0
 23 24  1  0
 23 25  1  1
 27 26  1  6
 27 28  1  0
 27 30  1  0
 28 29  2  0
 28 33  1  0
 30 31  1  0
 30 32  1  1
 34 33  1  1
 34 35  1  0
 34 37  1  0
 35 36  2  0
 35 40  1  0
 37 38  1  0
 37 39  1  6
 40 41  1  0
 40 46  1  0
 41 42  1  1
 41 44  1  0
 42 43  1  0
 42 47  2  0
 44 45  1  0
 45 46  1  0
M  CHG  1   1   1
M  END
$$$$
