
     RDKit          3D

 47 47  0  0  0  0  0  0  0  0999 V2000
  -14.8135   -8.6293    1.1016 N   0  0  0  0  0  4  0  0  0  0  0  0
  -14.3222   -9.0213    2.4115 C   0  0  2  0  0  0  0  0  0  0  0  0
  -13.8407   -7.8692    3.2181 C   0  0  0  0  0  0  0  0  0  0  0  0
  -12.8177   -7.2140    2.9211 O   0  0  0  0  0  0  0  0  0  0  0  0
  -13.1775  -10.0109    2.1948 C   0  0  0  0  0  0  0  0  0  0  0  0
  -14.5850   -7.4948    4.3827 N   0  0  0  0  0  0  0  0  0  0  0  0
  -14.2508   -6.3474    5.1542 C   0  0  2  0  0  0  0  0  0  0  0  0
  -13.1049   -6.5206    6.0806 C   0  0  0  0  0  0  0  0  0  0  0  0
  -12.7039   -7.7056    6.2107 O   0  0  0  0  0  0  0  0  0  0  0  0
  -15.4306   -5.9501    6.0668 C   0  0  0  0  0  0  0  0  0  0  0  0
  -12.4772   -5.4608    6.7808 N   0  0  0  0  0  0  0  0  0  0  0  0
  -11.1632   -5.4681    7.3487 C   0  0  2  0  0  0  0  0  0  0  0  0
  -10.4489   -4.2255    6.9974 C   0  0  0  0  0  0  0  0  0  0  0  0
   -9.9908   -4.0784    5.8441 O   0  0  0  0  0  0  0  0  0  0  0  0
  -10.4204   -6.7092    7.0092 C   0  0  0  0  0  0  0  0  0  0  0  0
  -10.6868   -7.8671    7.8606 C   0  0  0  0  0  0  0  0  0  0  0  0
  -11.3310   -7.7293    8.9572 O   0  0  0  0  0  0  0  0  0  0  0  0
  -10.2813   -9.1723    7.5675 O   0  0  0  0  0  0  0  0  0  0  0  0
  -10.2249   -3.1312    7.8955 N   0  0  0  0  0  0  0  0  0  0  0  0
   -9.4580   -2.0292    7.4455 C   0  0  2  0  0  0  0  0  0  0  0  0
   -8.0766   -2.0698    7.9705 C   0  0  0  0  0  0  0  0  0  0  0  0
   -7.8860   -2.6118    9.1210 O   0  0  0  0  0  0  0  0  0  0  0  0
  -10.0639   -0.6806    7.8047 C   0  0  2  0  0  0  0  0  0  0  0  0
  -10.0706   -0.3996    9.1436 O   0  0  0  0  0  0  0  0  0  0  0  0
  -11.4331   -0.5374    7.1475 C   0  0  0  0  0  0  0  0  0  0  0  0
   -6.9604   -1.5605    7.2971 N   0  0  0  0  0  0  0  0  0  0  0  0
   -5.6448   -1.5749    7.9995 C   0  0  2  0  0  0  0  0  0  0  0  0
   -5.3274   -0.2632    8.5061 C   0  0  0  0  0  0  0  0  0  0  0  0
   -6.2374    0.5227    8.8710 O   0  0  0  0  0  0  0  0  0  0  0  0
   -4.6101   -1.9360    6.9083 C   0  0  2  0  0  0  0  0  0  0  0  0
   -4.7706   -1.1028    5.8035 O   0  0  0  0  0  0  0  0  0  0  0  0
   -4.6992   -3.3847    6.5422 C   0  0  0  0  0  0  0  0  0  0  0  0
   -3.9634    0.2048    8.6214 N   0  0  0  0  0  0  0  0  0  0  0  0
   -3.6812    1.4797    9.1826 C   0  0  2  0  0  0  0  0  0  0  0  0
   -2.3178    1.9238    9.3551 C   0  0  0  0  0  0  0  0  0  0  0  0
   -1.3562    1.1021    9.0284 O   0  0  0  0  0  0  0  0  0  0  0  0
   -4.4140    1.6618   10.5222 C   0  0  2  0  0  0  0  0  0  0  0  0
   -4.0410    0.7104   11.4555 O   0  0  0  0  0  0  0  0  0  0  0  0
   -5.9002    1.6670   10.3773 C   0  0  0  0  0  0  0  0  0  0  0  0
   -1.8195    3.1688    9.8460 N   0  0  0  0  0  0  0  0  0  0  0  0
   -0.4172    3.6127    9.7338 C   0  0  2  0  0  0  0  0  0  0  0  0
    0.1820    3.6512   11.0996 C   0  0  0  0  0  0  0  0  0  0  0  0
    1.5480    3.6481   11.3106 O   0  0  0  0  0  0  0  0  0  0  0  0
   -0.6268    5.0589    9.2738 C   0  0  0  0  0  0  0  0  0  0  0  0
   -1.6701    5.4769   10.3295 C   0  0  0  0  0  0  0  0  0  0  0  0
   -2.5466    4.2387   10.4712 C   0  0  0  0  0  0  0  0  0  0  0  0
   -0.5614    3.6883   12.1016 O   0  0  0  0  0  0  0  0  0  0  0  0
  1  2  1  0
  2  3  1  0
  2  5  1  6
  3  4  2  0
  3  6  1  0
  6  7  1  0
  7  8  1  0
  7 10  1  1
  8  9  2  0
  8 11  1  0
 11 12  1  0
 12 13  1  0
 12 15  1  6
 13 14  2  0
 13 19  1  0
 15 16  1  0
 16 17  2  0
 16 18  1  0
 20 19  1  1
 20 21  1  0
 20 23  1  0
 21 22  2  0
 21 26  1  0
 23 24  1  0
 23 25  1  1
 27 26  1  6
 27 28  1  0
 27 30  1  0
 28 29  2  0
 28 33  1  0
 30 31  1  0
 30 32  1  6
 34 33  1  1
 34 35  1  0
 34 37  1  0
 35 36  2  0
 35 40  1  0
 37 38  1  0
 37 39  1  6
 40 41  1  0
 40 46  1  0
 41 42  1  1
 41 44  1  0
 42 43  1  0
 42 47  2  0
 44 45  1  0
 45 46  1  0
M  CHG  1   1   1
M  END
$$$$
