
     RDKit          3D

 47 47  0  0  0  0  0  0  0  0999 V2000
  -16.2762   -9.1940    2.3863 N   0  0  0  0  0  4  0  0  0  0  0  0
  -16.9340   -8.1782    3.1901 C   0  0  2  0  0  0  0  0  0  0  0  0
  -16.0091   -7.1029    3.6353 C   0  0  0  0  0  0  0  0  0  0  0  0
  -16.3364   -6.2286    4.4675 O   0  0  0  0  0  0  0  0  0  0  0  0
  -17.5350   -8.8765    4.4100 C   0  0  0  0  0  0  0  0  0  0  0  0
  -14.6864   -7.0725    3.0876 N   0  0  0  0  0  0  0  0  0  0  0  0
  -13.7528   -6.0548    3.4283 C   0  0  2  0  0  0  0  0  0  0  0  0
  -13.5850   -5.8120    4.8823 C   0  0  0  0  0  0  0  0  0  0  0  0
  -14.4815   -6.3119    5.6093 O   0  0  0  0  0  0  0  0  0  0  0  0
  -14.2076   -4.6943    2.8580 C   0  0  0  0  0  0  0  0  0  0  0  0
  -12.5109   -5.0840    5.4514 N   0  0  0  0  0  0  0  0  0  0  0  0
  -11.9084   -5.3048    6.7311 C   0  0  2  0  0  0  0  0  0  0  0  0
  -10.8391   -4.3160    6.9686 C   0  0  0  0  0  0  0  0  0  0  0  0
  -10.3437   -4.2004    8.1100 O   0  0  0  0  0  0  0  0  0  0  0  0
  -11.4765   -6.7158    6.9035 C   0  0  0  0  0  0  0  0  0  0  0  0
  -10.8842   -7.0497    8.1974 C   0  0  0  0  0  0  0  0  0  0  0  0
  -11.1560   -8.1632    8.7654 O   0  0  0  0  0  0  0  0  0  0  0  0
  -10.0053   -6.2208    8.9006 O   0  0  0  0  0  0  0  0  0  0  0  0
  -10.2981   -3.4428    5.9689 N   0  0  0  0  0  0  0  0  0  0  0  0
   -9.3879   -2.4344    6.3684 C   0  0  2  0  0  0  0  0  0  0  0  0
   -8.6993   -2.7836    7.6292 C   0  0  0  0  0  0  0  0  0  0  0  0
   -9.0515   -3.8663    8.2271 O   0  0  0  0  0  0  0  0  0  0  0  0
  -10.0337   -1.0678    6.5421 C   0  0  2  0  0  0  0  0  0  0  0  0
   -9.1543   -0.0198    6.5409 O   0  0  0  0  0  0  0  0  0  0  0  0
  -10.9580   -1.0832    7.7556 C   0  0  0  0  0  0  0  0  0  0  0  0
   -7.6861   -2.0158    8.2146 N   0  0  0  0  0  0  0  0  0  0  0  0
   -6.9336   -2.5977    9.3633 C   0  0  2  0  0  0  0  0  0  0  0  0
   -5.9536   -1.6606    9.8528 C   0  0  0  0  0  0  0  0  0  0  0  0
   -5.3718   -1.8528   10.9498 O   0  0  0  0  0  0  0  0  0  0  0  0
   -6.1862   -3.8184    8.7777 C   0  0  2  0  0  0  0  0  0  0  0  0
   -5.4848   -4.4772    9.7850 O   0  0  0  0  0  0  0  0  0  0  0  0
   -5.2985   -3.4110    7.6434 C   0  0  0  0  0  0  0  0  0  0  0  0
   -5.5940   -0.4708    9.1127 N   0  0  0  0  0  0  0  0  0  0  0  0
   -4.5357    0.3663    9.5590 C   0  0  2  0  0  0  0  0  0  0  0  0
   -4.5220    1.7735    9.2346 C   0  0  0  0  0  0  0  0  0  0  0  0
   -5.4231    2.2228    8.4023 O   0  0  0  0  0  0  0  0  0  0  0  0
   -3.1702   -0.2248    9.1706 C   0  0  2  0  0  0  0  0  0  0  0  0
   -2.1173    0.4958    9.7068 O   0  0  0  0  0  0  0  0  0  0  0  0
   -2.9897   -0.3535    7.6939 C   0  0  0  0  0  0  0  0  0  0  0  0
   -3.6480    2.8062    9.6918 N   0  0  0  0  0  0  0  0  0  0  0  0
   -3.8415    4.2448    9.4291 C   0  0  2  0  0  0  0  0  0  0  0  0
   -2.7562    4.7141    8.5192 C   0  0  0  0  0  0  0  0  0  0  0  0
   -1.6778    3.9192    8.1792 O   0  0  0  0  0  0  0  0  0  0  0  0
   -3.5622    4.8149   10.8234 C   0  0  0  0  0  0  0  0  0  0  0  0
   -2.2395    4.0737   11.1037 C   0  0  0  0  0  0  0  0  0  0  0  0
   -2.4795    2.6872   10.5193 C   0  0  0  0  0  0  0  0  0  0  0  0
   -2.8063    5.8642    8.0367 O   0  0  0  0  0  0  0  0  0  0  0  0
  1  2  1  0
  2  3  1  0
  2  5  1  1
  3  4  2  0
  3  6  1  0
  6  7  1  0
  7  8  1  0
  7 10  1  6
  8  9  2  0
  8 11  1  0
 11 12  1  0
 12 13  1  0
 12 15  1  6
 13 14  2  0
 13 19  1  0
 15 16  1  0
 16 17  2  0
 16 18  1  0
 20 19  1  1
 20 21  1  0
 20 23  1  0
 21 22  2  0
 21 26  1  0
 23 24  1  0
 23 25  1  1
 27 26  1  6
 27 28  1  0
 27 30  1  0
 28 29  2  0
 28 33  1  0
 30 31  1  0
 30 32  1  6
 34 33  1  6
 34 35  1  0
 34 37  1  0
 35 36  2  0
 35 40  1  0
 37 38  1  0
 37 39  1  6
 40 41  1  0
 40 46  1  0
 41 42  1  6
 41 44  1  0
 42 43  1  0
 42 47  2  0
 44 45  1  0
 45 46  1  0
M  CHG  1   1   1
M  END
$$$$
