
     RDKit          3D

 47 47  0  0  0  0  0  0  0  0999 V2000
  -12.1775  -13.1107    2.4134 N   0  0  0  0  0  4  0  0  0  0  0  0
  -12.8058  -12.1105    3.2593 C   0  0  2  0  0  0  0  0  0  0  0  0
  -13.1455  -10.8626    2.5264 C   0  0  0  0  0  0  0  0  0  0  0  0
  -13.6183  -10.8636    1.3686 O   0  0  0  0  0  0  0  0  0  0  0  0
  -11.8317  -11.7912    4.3933 C   0  0  0  0  0  0  0  0  0  0  0  0
  -12.9232   -9.6076    3.1791 N   0  0  0  0  0  0  0  0  0  0  0  0
  -13.3611   -8.3771    2.6157 C   0  0  2  0  0  0  0  0  0  0  0  0
  -13.1119   -7.1758    3.4500 C   0  0  0  0  0  0  0  0  0  0  0  0
  -13.0185   -6.0970    2.8100 O   0  0  0  0  0  0  0  0  0  0  0  0
  -14.8906   -8.3942    2.4078 C   0  0  0  0  0  0  0  0  0  0  0  0
  -12.9875   -7.1958    4.8613 N   0  0  0  0  0  0  0  0  0  0  0  0
  -13.1927   -6.0970    5.7556 C   0  0  2  0  0  0  0  0  0  0  0  0
  -11.9552   -5.8140    6.5080 C   0  0  0  0  0  0  0  0  0  0  0  0
  -11.5032   -6.6669    7.3017 O   0  0  0  0  0  0  0  0  0  0  0  0
  -14.3893   -6.2973    6.6130 C   0  0  0  0  0  0  0  0  0  0  0  0
  -14.7357   -5.1861    7.4972 C   0  0  0  0  0  0  0  0  0  0  0  0
  -15.7124   -5.2914    8.3166 O   0  0  0  0  0  0  0  0  0  0  0  0
  -14.0616   -3.9619    7.5277 O   0  0  0  0  0  0  0  0  0  0  0  0
  -11.1972   -4.6018    6.4061 N   0  0  0  0  0  0  0  0  0  0  0  0
  -10.0170   -4.4718    7.1775 C   0  0  2  0  0  0  0  0  0  0  0  0
   -9.7781   -3.0709    7.5851 C   0  0  0  0  0  0  0  0  0  0  0  0
   -9.9815   -2.1478    6.7132 O   0  0  0  0  0  0  0  0  0  0  0  0
   -8.7698   -4.9803    6.4696 C   0  0  2  0  0  0  0  0  0  0  0  0
   -8.4787   -4.3355    5.2986 O   0  0  0  0  0  0  0  0  0  0  0  0
   -8.8391   -6.4975    6.3262 C   0  0  0  0  0  0  0  0  0  0  0  0
   -9.3485   -2.6812    8.8588 N   0  0  0  0  0  0  0  0  0  0  0  0
   -8.8164   -1.2987    9.0322 C   0  0  2  0  0  0  0  0  0  0  0  0
   -7.8290   -1.0065    8.0234 C   0  0  0  0  0  0  0  0  0  0  0  0
   -7.7865   -1.6664    6.9550 O   0  0  0  0  0  0  0  0  0  0  0  0
   -8.1135   -1.3080   10.4096 C   0  0  2  0  0  0  0  0  0  0  0  0
   -9.0183   -1.6699   11.4051 O   0  0  0  0  0  0  0  0  0  0  0  0
   -7.4623    0.0106   10.6890 C   0  0  0  0  0  0  0  0  0  0  0  0
   -6.8541    0.0495    8.1881 N   0  0  0  0  0  0  0  0  0  0  0  0
   -5.8983    0.3165    7.1708 C   0  0  2  0  0  0  0  0  0  0  0  0
   -4.9340    1.3804    7.3260 C   0  0  0  0  0  0  0  0  0  0  0  0
   -5.3291    2.4935    7.8840 O   0  0  0  0  0  0  0  0  0  0  0  0
   -6.5864    0.4935    5.8069 C   0  0  2  0  0  0  0  0  0  0  0  0
   -7.4782   -0.5292    5.5349 O   0  0  0  0  0  0  0  0  0  0  0  0
   -5.6176    0.6279    4.6785 C   0  0  0  0  0  0  0  0  0  0  0  0
   -3.5557    1.4231    6.9549 N   0  0  0  0  0  0  0  0  0  0  0  0
   -2.5680    2.3689    7.5082 C   0  0  2  0  0  0  0  0  0  0  0  0
   -2.1501    3.3091    6.4277 C   0  0  0  0  0  0  0  0  0  0  0  0
   -1.7895    2.8757    5.1658 O   0  0  0  0  0  0  0  0  0  0  0  0
   -1.3997    1.4148    7.7759 C   0  0  0  0  0  0  0  0  0  0  0  0
   -1.3708    0.7113    6.4041 C   0  0  0  0  0  0  0  0  0  0  0  0
   -2.8456    0.5594    6.0528 C   0  0  0  0  0  0  0  0  0  0  0  0
   -2.1189    4.5366    6.6524 O   0  0  0  0  0  0  0  0  0  0  0  0
  1  2  1  0
  2  3  1  0
  2  5  1  1
  3  4  2  0
  3  6  1  0
  6  7  1  0
  7  8  1  0
  7 10  1  1
  8  9  2  0
  8 11  1  0
 11 12  1  0
 12 13  1  0
 12 15  1  1
 13 14  2  0
 13 19  1  0
 15 16  1  0
 16 17  2  0
 16 18  1  0
 20 19  1  6
 20 21  1  0
 20 23  1  0
 21 22  2  0
 21 26  1  0
 23 24  1  0
 23 25  1  6
 27 26  1  6
 27 28  1  0
 27 30  1  0
 28 29  2  0
 28 33  1  0
 30 31  1  0
 30 32  1  1
 34 33  1  1
 34 35  1  0
 34 37  1  0
 35 36  2  0
 35 40  1  0
 37 38  1  0
 37 39  1  6
 40 41  1  0
 40 46  1  0
 41 42  1  6
 41 44  1  0
 42 43  1  0
 42 47  2  0
 44 45  1  0
 45 46  1  0
M  CHG  1   1   1
M  END
$$$$
