
     RDKit          3D

 47 47  0  0  0  0  0  0  0  0999 V2000
  -18.5056   -6.9577    1.0565 N   0  0  0  0  0  4  0  0  0  0  0  0
  -18.1388   -7.7226    2.2359 C   0  0  2  0  0  0  0  0  0  0  0  0
  -16.7168   -7.5369    2.6276 C   0  0  0  0  0  0  0  0  0  0  0  0
  -16.2909   -6.4869    3.1569 O   0  0  0  0  0  0  0  0  0  0  0  0
  -18.3978   -9.1969    1.9255 C   0  0  0  0  0  0  0  0  0  0  0  0
  -15.7993   -8.6102    2.3899 N   0  0  0  0  0  0  0  0  0  0  0  0
  -14.4237   -8.5174    2.7400 C   0  0  2  0  0  0  0  0  0  0  0  0
  -14.1397   -7.7834    3.9977 C   0  0  0  0  0  0  0  0  0  0  0  0
  -14.9742   -6.8881    4.2879 O   0  0  0  0  0  0  0  0  0  0  0  0
  -13.6432   -7.7445    1.6553 C   0  0  0  0  0  0  0  0  0  0  0  0
  -13.0297   -8.0416    4.8395 N   0  0  0  0  0  0  0  0  0  0  0  0
  -12.7070   -7.3712    6.0625 C   0  0  2  0  0  0  0  0  0  0  0  0
  -11.7057   -6.3155    5.8165 C   0  0  0  0  0  0  0  0  0  0  0  0
  -10.6317   -6.6007    5.2446 O   0  0  0  0  0  0  0  0  0  0  0  0
  -12.3270   -8.3273    7.1342 C   0  0  0  0  0  0  0  0  0  0  0  0
  -13.4016   -8.7369    8.0364 C   0  0  0  0  0  0  0  0  0  0  0  0
  -13.9244   -7.8942    8.8445 O   0  0  0  0  0  0  0  0  0  0  0  0
  -13.9333  -10.0283    8.0957 O   0  0  0  0  0  0  0  0  0  0  0  0
  -11.8608   -4.9404    6.1898 N   0  0  0  0  0  0  0  0  0  0  0  0
  -10.8145   -4.0338    5.8928 C   0  0  2  0  0  0  0  0  0  0  0  0
  -10.1601   -3.5290    7.1186 C   0  0  0  0  0  0  0  0  0  0  0  0
  -10.5291   -4.0260    8.2458 O   0  0  0  0  0  0  0  0  0  0  0  0
  -11.2636   -2.8378    5.0665 C   0  0  2  0  0  0  0  0  0  0  0  0
  -12.1673   -2.0228    5.6916 O   0  0  0  0  0  0  0  0  0  0  0  0
  -11.7193   -3.3041    3.6873 C   0  0  0  0  0  0  0  0  0  0  0  0
   -9.1623   -2.5478    7.1345 N   0  0  0  0  0  0  0  0  0  0  0  0
   -8.5690   -2.1652    8.4483 C   0  0  2  0  0  0  0  0  0  0  0  0
   -7.6042   -1.1076    8.2789 C   0  0  0  0  0  0  0  0  0  0  0  0
   -6.7511   -1.1570    7.3577 O   0  0  0  0  0  0  0  0  0  0  0  0
   -7.8222   -3.4286    8.9356 C   0  0  2  0  0  0  0  0  0  0  0  0
   -7.1891   -3.1708   10.1494 O   0  0  0  0  0  0  0  0  0  0  0  0
   -6.8682   -3.9238    7.8938 C   0  0  0  0  0  0  0  0  0  0  0  0
   -7.5740    0.0489    9.1474 N   0  0  0  0  0  0  0  0  0  0  0  0
   -6.7086    1.1410    8.8677 C   0  0  2  0  0  0  0  0  0  0  0  0
   -5.2817    1.0172    9.0528 C   0  0  0  0  0  0  0  0  0  0  0  0
   -4.8386    0.0281    9.7822 O   0  0  0  0  0  0  0  0  0  0  0  0
   -7.1751    2.4099    9.6006 C   0  0  2  0  0  0  0  0  0  0  0  0
   -6.2119    2.8971   10.4668 O   0  0  0  0  0  0  0  0  0  0  0  0
   -8.4607    2.2187   10.3359 C   0  0  0  0  0  0  0  0  0  0  0  0
   -4.2227    1.8322    8.5493 N   0  0  0  0  0  0  0  0  0  0  0  0
   -2.7869    1.5387    8.7179 C   0  0  2  0  0  0  0  0  0  0  0  0
   -2.1915    2.5691    9.6178 C   0  0  0  0  0  0  0  0  0  0  0  0
   -2.8041    3.7838    9.8620 O   0  0  0  0  0  0  0  0  0  0  0  0
   -2.2855    1.8128    7.2965 C   0  0  0  0  0  0  0  0  0  0  0  0
   -2.9523    3.1876    7.0889 C   0  0  0  0  0  0  0  0  0  0  0  0
   -4.3135    3.0251    7.7538 C   0  0  0  0  0  0  0  0  0  0  0  0
   -1.1003    2.3443   10.1806 O   0  0  0  0  0  0  0  0  0  0  0  0
  1  2  1  0
  2  3  1  0
  2  5  1  6
  3  4  2  0
  3  6  1  0
  6  7  1  0
  7  8  1  0
  7 10  1  6
  8  9  2  0
  8 11  1  0
 11 12  1  0
 12 13  1  0
 12 15  1  1
 13 14  2  0
 13 19  1  0
 15 16  1  0
 16 17  2  0
 16 18  1  0
 20 19  1  1
 20 21  1  0
 20 23  1  0
 21 22  2  0
 21 26  1  0
 23 24  1  0
 23 25  1  6
 27 26  1  6
 27 28  1  0
 27 30  1  0
 28 29  2  0
 28 33  1  0
 30 31  1  0
 30 32  1  6
 34 33  1  1
 34 35  1  0
 34 37  1  0
 35 36  2  0
 35 40  1  0
 37 38  1  0
 37 39  1  1
 40 41  1  0
 40 46  1  0
 41 42  1  1
 41 44  1  0
 42 43  1  0
 42 47  2  0
 44 45  1  0
 45 46  1  0
M  CHG  1   1   1
M  END
$$$$
