
     RDKit          3D

 47 47  0  0  0  0  0  0  0  0999 V2000
  -13.1973   -9.2788    1.4170 N   0  0  0  0  0  4  0  0  0  0  0  0
  -14.1880   -9.1753    2.4746 C   0  0  2  0  0  0  0  0  0  0  0  0
  -14.4665   -7.7702    2.8720 C   0  0  0  0  0  0  0  0  0  0  0  0
  -15.1820   -7.0023    2.1919 O   0  0  0  0  0  0  0  0  0  0  0  0
  -13.6572   -9.9540    3.6783 C   0  0  0  0  0  0  0  0  0  0  0  0
  -13.8915   -7.2798    4.0883 N   0  0  0  0  0  0  0  0  0  0  0  0
  -14.4548   -6.1849    4.8006 C   0  0  2  0  0  0  0  0  0  0  0  0
  -13.7745   -5.8420    6.0737 C   0  0  0  0  0  0  0  0  0  0  0  0
  -14.2108   -6.4470    7.0865 O   0  0  0  0  0  0  0  0  0  0  0  0
  -15.9091   -6.5007    5.2109 C   0  0  0  0  0  0  0  0  0  0  0  0
  -12.7087   -4.9152    6.1849 N   0  0  0  0  0  0  0  0  0  0  0  0
  -11.3599   -5.2018    6.5694 C   0  0  2  0  0  0  0  0  0  0  0  0
  -10.5391   -3.9773    6.5017 C   0  0  0  0  0  0  0  0  0  0  0  0
  -10.0304   -3.6311    5.4141 O   0  0  0  0  0  0  0  0  0  0  0  0
  -10.7993   -6.3484    5.8089 C   0  0  0  0  0  0  0  0  0  0  0  0
   -9.6585   -7.0259    6.4221 C   0  0  0  0  0  0  0  0  0  0  0  0
   -9.0797   -7.9938    5.8182 O   0  0  0  0  0  0  0  0  0  0  0  0
   -9.1190   -6.6930    7.6679 O   0  0  0  0  0  0  0  0  0  0  0  0
  -10.2625   -3.1176    7.6147 N   0  0  0  0  0  0  0  0  0  0  0  0
   -9.4973   -1.9467    7.3948 C   0  0  2  0  0  0  0  0  0  0  0  0
   -8.0765   -2.2598    7.1323 C   0  0  0  0  0  0  0  0  0  0  0  0
   -7.7588   -3.4895    6.9308 O   0  0  0  0  0  0  0  0  0  0  0  0
   -9.5607   -0.9547    8.5466 C   0  0  2  0  0  0  0  0  0  0  0  0
   -8.9250    0.2332    8.3088 O   0  0  0  0  0  0  0  0  0  0  0  0
   -9.1158   -1.6332    9.8384 C   0  0  0  0  0  0  0  0  0  0  0  0
   -7.0532   -1.3061    7.0849 N   0  0  0  0  0  0  0  0  0  0  0  0
   -6.0851   -1.2523    8.2181 C   0  0  2  0  0  0  0  0  0  0  0  0
   -5.1396   -0.1815    8.0252 C   0  0  0  0  0  0  0  0  0  0  0  0
   -4.5455   -0.0382    6.9274 O   0  0  0  0  0  0  0  0  0  0  0  0
   -5.3175   -2.5934    8.1555 C   0  0  2  0  0  0  0  0  0  0  0  0
   -6.0545   -3.5953    8.7830 O   0  0  0  0  0  0  0  0  0  0  0  0
   -3.9445   -2.4537    8.7350 C   0  0  0  0  0  0  0  0  0  0  0  0
   -4.8354    0.7704    9.0713 N   0  0  0  0  0  0  0  0  0  0  0  0
   -4.9391    2.1672    8.8306 C   0  0  2  0  0  0  0  0  0  0  0  0
   -4.4486    3.1205    9.7982 C   0  0  0  0  0  0  0  0  0  0  0  0
   -5.0169    3.1528   10.9740 O   0  0  0  0  0  0  0  0  0  0  0  0
   -6.3834    2.5544    8.4712 C   0  0  2  0  0  0  0  0  0  0  0  0
   -7.2753    2.2413    9.4820 O   0  0  0  0  0  0  0  0  0  0  0  0
   -6.8468    1.9484    7.1875 C   0  0  0  0  0  0  0  0  0  0  0  0
   -3.3971    4.0796    9.6812 N   0  0  0  0  0  0  0  0  0  0  0  0
   -2.5780    4.5664   10.8074 C   0  0  2  0  0  0  0  0  0  0  0  0
   -2.8966    6.0048   11.0427 C   0  0  0  0  0  0  0  0  0  0  0  0
   -2.6397    6.6341   12.2463 O   0  0  0  0  0  0  0  0  0  0  0  0
   -1.1826    4.4928   10.1793 C   0  0  0  0  0  0  0  0  0  0  0  0
   -1.4983    5.2184    8.8558 C   0  0  0  0  0  0  0  0  0  0  0  0
   -2.8868    4.7063    8.4934 C   0  0  0  0  0  0  0  0  0  0  0  0
   -3.4144    6.6820   10.1309 O   0  0  0  0  0  0  0  0  0  0  0  0
  1  2  1  0
  2  3  1  0
  2  5  1  1
  3  4  2  0
  3  6  1  0
  6  7  1  0
  7  8  1  0
  7 10  1  1
  8  9  2  0
  8 11  1  0
 11 12  1  0
 12 13  1  0
 12 15  1  6
 13 14  2  0
 13 19  1  0
 15 16  1  0
 16 17  2  0
 16 18  1  0
 20 19  1  1
 20 21  1  0
 20 23  1  0
 21 22  2  0
 21 26  1  0
 23 24  1  0
 23 25  1  1
 27 26  1  6
 27 28  1  0
 27 30  1  0
 28 29  2  0
 28 33  1  0
 30 31  1  0
 30 32  1  1
 34 33  1  1
 34 35  1  0
 34 37  1  0
 35 36  2  0
 35 40  1  0
 37 38  1  0
 37 39  1  6
 40 41  1  0
 40 46  1  0
 41 42  1  6
 41 44  1  0
 42 43  1  0
 42 47  2  0
 44 45  1  0
 45 46  1  0
M  CHG  1   1   1
M  END
$$$$
