
     RDKit          3D

 47 47  0  0  0  0  0  0  0  0999 V2000
  -16.1706   -7.6637    8.0751 N   0  0  0  0  0  4  0  0  0  0  0  0
  -16.6066   -8.1121    6.7638 C   0  0  2  0  0  0  0  0  0  0  0  0
  -15.5303   -8.0436    5.7407 C   0  0  0  0  0  0  0  0  0  0  0  0
  -15.7121   -8.3555    4.5434 O   0  0  0  0  0  0  0  0  0  0  0  0
  -17.7755   -7.2228    6.3401 C   0  0  0  0  0  0  0  0  0  0  0  0
  -14.2317   -7.5976    6.1473 N   0  0  0  0  0  0  0  0  0  0  0  0
  -13.1290   -7.5697    5.2492 C   0  0  2  0  0  0  0  0  0  0  0  0
  -12.0506   -6.6138    5.6020 C   0  0  0  0  0  0  0  0  0  0  0  0
  -10.9334   -7.1404    5.8396 O   0  0  0  0  0  0  0  0  0  0  0  0
  -13.5909   -7.1313    3.8430 C   0  0  0  0  0  0  0  0  0  0  0  0
  -12.2206   -5.2089    5.6723 N   0  0  0  0  0  0  0  0  0  0  0  0
  -11.2115   -4.2124    5.4774 C   0  0  2  0  0  0  0  0  0  0  0  0
  -10.4018   -4.0603    6.7017 C   0  0  0  0  0  0  0  0  0  0  0  0
  -10.9682   -3.9504    7.8101 O   0  0  0  0  0  0  0  0  0  0  0  0
  -11.7823   -2.9389    4.9678 C   0  0  0  0  0  0  0  0  0  0  0  0
  -11.9437   -1.8711    5.9527 C   0  0  0  0  0  0  0  0  0  0  0  0
  -13.0189   -1.7820    6.6401 O   0  0  0  0  0  0  0  0  0  0  0  0
  -10.9812   -0.8939    6.2224 O   0  0  0  0  0  0  0  0  0  0  0  0
   -8.9692   -4.0254    6.7336 N   0  0  0  0  0  0  0  0  0  0  0  0
   -8.3236   -3.7601    7.9656 C   0  0  2  0  0  0  0  0  0  0  0  0
   -7.4662   -2.5581    7.8891 C   0  0  0  0  0  0  0  0  0  0  0  0
   -6.8500   -2.3281    6.7841 O   0  0  0  0  0  0  0  0  0  0  0  0
   -7.4749   -4.9185    8.4682 C   0  0  2  0  0  0  0  0  0  0  0  0
   -6.5206   -5.3477    7.5868 O   0  0  0  0  0  0  0  0  0  0  0  0
   -8.3776   -6.0376    8.9781 C   0  0  0  0  0  0  0  0  0  0  0  0
   -7.2827   -1.6508    8.9388 N   0  0  0  0  0  0  0  0  0  0  0  0
   -6.2661   -0.5725    8.7704 C   0  0  2  0  0  0  0  0  0  0  0  0
   -4.9353   -1.1022    8.9328 C   0  0  0  0  0  0  0  0  0  0  0  0
   -4.7502   -2.2219    9.4719 O   0  0  0  0  0  0  0  0  0  0  0  0
   -6.5368    0.4195    9.9254 C   0  0  2  0  0  0  0  0  0  0  0  0
   -6.3688   -0.2185   11.1523 O   0  0  0  0  0  0  0  0  0  0  0  0
   -7.8916    1.0420    9.7921 C   0  0  0  0  0  0  0  0  0  0  0  0
   -3.7634   -0.3816    8.4852 N   0  0  0  0  0  0  0  0  0  0  0  0
   -2.4646   -0.9297    8.6657 C   0  0  2  0  0  0  0  0  0  0  0  0
   -1.4330   -0.1752    9.3382 C   0  0  0  0  0  0  0  0  0  0  0  0
   -1.6238    1.1045    9.5184 O   0  0  0  0  0  0  0  0  0  0  0  0
   -1.8925   -1.4316    7.3294 C   0  0  2  0  0  0  0  0  0  0  0  0
   -0.7097   -2.1304    7.4968 O   0  0  0  0  0  0  0  0  0  0  0  0
   -1.6920   -0.3370    6.3336 C   0  0  0  0  0  0  0  0  0  0  0  0
   -0.1796   -0.6127    9.8646 N   0  0  0  0  0  0  0  0  0  0  0  0
    0.7510    0.2389   10.6293 C   0  0  2  0  0  0  0  0  0  0  0  0
    1.9809    0.4549    9.8128 C   0  0  0  0  0  0  0  0  0  0  0  0
    2.5332   -0.5386    9.0265 O   0  0  0  0  0  0  0  0  0  0  0  0
    1.1108   -0.7132   11.7744 C   0  0  0  0  0  0  0  0  0  0  0  0
    1.4452   -1.9585   10.9288 C   0  0  0  0  0  0  0  0  0  0  0  0
    0.3973   -1.9278    9.8232 C   0  0  0  0  0  0  0  0  0  0  0  0
    2.5464    1.5676    9.8269 O   0  0  0  0  0  0  0  0  0  0  0  0
  1  2  1  0
  2  3  1  0
  2  5  1  6
  3  4  2  0
  3  6  1  0
  6  7  1  0
  7  8  1  0
  7 10  1  6
  8  9  2  0
  8 11  1  0
 11 12  1  0
 12 13  1  0
 12 15  1  1
 13 14  2  0
 13 19  1  0
 15 16  1  0
 16 17  2  0
 16 18  1  0
 20 19  1  6
 20 21  1  0
 20 23  1  0
 21 22  2  0
 21 26  1  0
 23 24  1  0
 23 25  1  6
 27 26  1  1
 27 28  1  0
 27 30  1  0
 28 29  2  0
 28 33  1  0
 30 31  1  0
 30 32  1  6
 34 33  1  6
 34 35  1  0
 34 37  1  0
 35 36  2  0
 35 40  1  0
 37 38  1  0
 37 39  1  6
 40 41  1  0
 40 46  1  0
 41 42  1  6
 41 44  1  0
 42 43  1  0
 42 47  2  0
 44 45  1  0
 45 46  1  0
M  CHG  1   1   1
M  END
$$$$
