
     RDKit          3D

 47 47  0  0  0  0  0  0  0  0999 V2000
  -16.9562  -12.1883    4.1289 N   0  0  0  0  0  4  0  0  0  0  0  0
  -17.4772  -11.6064    2.9038 C   0  0  2  0  0  0  0  0  0  0  0  0
  -17.5836  -10.1250    2.9657 C   0  0  0  0  0  0  0  0  0  0  0  0
  -18.6793   -9.5224    2.9454 O   0  0  0  0  0  0  0  0  0  0  0  0
  -18.8600  -12.2110    2.6607 C   0  0  0  0  0  0  0  0  0  0  0  0
  -16.3772   -9.3589    3.0556 N   0  0  0  0  0  0  0  0  0  0  0  0
  -16.3857   -7.9756    3.3870 C   0  0  2  0  0  0  0  0  0  0  0  0
  -15.0474   -7.3592    3.5612 C   0  0  0  0  0  0  0  0  0  0  0  0
  -14.2549   -8.0115    4.2882 O   0  0  0  0  0  0  0  0  0  0  0  0
  -17.0952   -7.7504    4.7394 C   0  0  0  0  0  0  0  0  0  0  0  0
  -14.6490   -6.1353    2.9690 N   0  0  0  0  0  0  0  0  0  0  0  0
  -13.3251   -5.5919    2.9316 C   0  0  2  0  0  0  0  0  0  0  0  0
  -12.9708   -5.0213    4.2455 C   0  0  0  0  0  0  0  0  0  0  0  0
  -13.8398   -4.4259    4.9178 O   0  0  0  0  0  0  0  0  0  0  0  0
  -13.1446   -4.6518    1.7954 C   0  0  0  0  0  0  0  0  0  0  0  0
  -11.8223   -4.0407    1.6750 C   0  0  0  0  0  0  0  0  0  0  0  0
  -11.5844   -3.1901    0.7495 O   0  0  0  0  0  0  0  0  0  0  0  0
  -10.7452   -4.3163    2.5223 O   0  0  0  0  0  0  0  0  0  0  0  0
  -11.6691   -5.0912    4.8415 N   0  0  0  0  0  0  0  0  0  0  0  0
  -11.4699   -4.4942    6.1099 C   0  0  2  0  0  0  0  0  0  0  0  0
  -10.2072   -3.7272    6.1643 C   0  0  0  0  0  0  0  0  0  0  0  0
   -9.1921   -4.1939    5.5275 O   0  0  0  0  0  0  0  0  0  0  0  0
  -11.4694   -5.4929    7.2577 C   0  0  2  0  0  0  0  0  0  0  0  0
  -11.1317   -4.9619    8.4725 O   0  0  0  0  0  0  0  0  0  0  0  0
  -10.6405   -6.7161    6.8783 C   0  0  0  0  0  0  0  0  0  0  0  0
  -10.0432   -2.5241    6.8601 N   0  0  0  0  0  0  0  0  0  0  0  0
   -8.7253   -1.8313    6.7718 C   0  0  2  0  0  0  0  0  0  0  0  0
   -8.0356   -1.8933    8.0361 C   0  0  0  0  0  0  0  0  0  0  0  0
   -8.5895   -2.3933    9.0470 O   0  0  0  0  0  0  0  0  0  0  0  0
   -9.0674   -0.3519    6.4788 C   0  0  2  0  0  0  0  0  0  0  0  0
  -10.3340   -0.2589    5.9065 O   0  0  0  0  0  0  0  0  0  0  0  0
   -8.0136    0.2843    5.6270 C   0  0  0  0  0  0  0  0  0  0  0  0
   -6.6880   -1.3931    8.1995 N   0  0  0  0  0  0  0  0  0  0  0  0
   -6.0535   -1.4260    9.4708 C   0  0  2  0  0  0  0  0  0  0  0  0
   -4.7308   -0.8742    9.6491 C   0  0  0  0  0  0  0  0  0  0  0  0
   -3.8455   -1.0808    8.7110 O   0  0  0  0  0  0  0  0  0  0  0  0
   -6.0557   -2.8521   10.0462 C   0  0  2  0  0  0  0  0  0  0  0  0
   -5.0999   -3.6571    9.4516 O   0  0  0  0  0  0  0  0  0  0  0  0
   -7.3922   -3.5129    9.9606 C   0  0  0  0  0  0  0  0  0  0  0  0
   -4.2020   -0.1043   10.7293 N   0  0  0  0  0  0  0  0  0  0  0  0
   -3.0306    0.7867   10.6283 C   0  0  2  0  0  0  0  0  0  0  0  0
   -1.9194    0.2080   11.4383 C   0  0  0  0  0  0  0  0  0  0  0  0
   -0.7192    0.8666   11.6285 O   0  0  0  0  0  0  0  0  0  0  0  0
   -3.5607    2.0165   11.3722 C   0  0  0  0  0  0  0  0  0  0  0  0
   -4.0991    1.2999   12.6269 C   0  0  0  0  0  0  0  0  0  0  0  0
   -4.7031    0.0167   12.0703 C   0  0  0  0  0  0  0  0  0  0  0  0
   -2.0598   -0.9115   11.9724 O   0  0  0  0  0  0  0  0  0  0  0  0
  1  2  1  0
  2  3  1  0
  2  5  1  1
  3  4  2  0
  3  6  1  0
  6  7  1  0
  7  8  1  0
  7 10  1  1
  8  9  2  0
  8 11  1  0
 11 12  1  0
 12 13  1  0
 12 15  1  6
 13 14  2  0
 13 19  1  0
 15 16  1  0
 16 17  2  0
 16 18  1  0
 20 19  1  6
 20 21  1  0
 20 23  1  0
 21 22  2  0
 21 26  1  0
 23 24  1  0
 23 25  1  6
 27 26  1  1
 27 28  1  0
 27 30  1  0
 28 29  2  0
 28 33  1  0
 30 31  1  0
 30 32  1  6
 34 33  1  6
 34 35  1  0
 34 37  1  0
 35 36  2  0
 35 40  1  0
 37 38  1  0
 37 39  1  6
 40 41  1  0
 40 46  1  0
 41 42  1  1
 41 44  1  0
 42 43  1  0
 42 47  2  0
 44 45  1  0
 45 46  1  0
M  CHG  1   1   1
M  END
$$$$
