
     RDKit          3D

 22 25  0  0  0  0  0  0  0  0999 V2000
   23.4577   56.8004   84.5697 O   0  0  0  0  0  0  0  0  0  0  0  0
   22.8812   56.9627   86.8442 C   0  0  2  0  0  0  0  0  0  0  0  0
   19.8123   54.7344   88.6186 O   0  0  0  0  0  0  0  0  0  0  0  0
   23.8607   56.8986   85.7566 C   0  0  0  0  0  0  0  0  0  0  0  0
   25.5695   54.5427   82.5585 C   0  0  0  0  0  0  0  0  0  0  0  0
   25.2685   56.9401   85.9488 N   0  0  0  0  0  0  0  0  0  0  0  0
   25.9885   55.7350   86.2553 C   0  0  0  0  0  0  0  0  0  0  0  0
   26.1380   54.8157   85.0744 C   0  0  2  0  0  0  0  0  0  0  0  0
   27.4022   54.9156   84.3154 C   0  0  0  0  0  0  0  0  0  0  0  0
   26.1528   55.3667   83.6889 C   0  0  1  0  0  0  0  0  0  0  0  0
   21.5307   54.6978   91.1768 C   0  0  0  0  0  0  0  0  0  0  0  0
   23.4445   57.5697   88.1316 C   0  0  0  0  0  0  0  0  0  0  0  0
   19.5138   56.0118   89.0225 C   0  0  0  0  0  0  0  0  0  0  0  0
   21.0329   54.7707   87.9422 C   0  0  0  0  0  0  0  0  0  0  0  0
   20.8936   57.3944   90.4883 C   0  0  0  0  0  0  0  0  0  0  0  0
   23.0355   56.1656   88.0841 C   0  0  1  0  0  0  0  0  0  0  0  0
   20.8437   56.7593   89.1463 C   0  0  1  0  0  0  0  0  0  0  0  0
   21.8314   55.7006   88.8714 C   0  0  1  0  0  0  0  0  0  0  0  0
   22.2507   54.8973   89.9714 N   0  0  0  0  0  0  0  0  0  0  0  0
   21.6029   53.6075   91.8633 N   0  0  0  0  0  0  0  0  0  0  0  0
   20.4971   56.0711   91.7009 S   0  0  0  0  0  0  0  0  0  0  0  0
   21.2834   53.6351   92.8486 H   0  0  0  0  0  0  0  0  0  0  0  0
  4  1  2  0
  2  4  1  6
 12  2  1  0
 16  2  1  0
  3 13  1  0
 14  3  1  0
  4  6  1  0
 10  5  1  6
  6  7  1  0
  8  7  1  1
  8  9  1  0
  8 10  1  0
 10  9  1  0
 11 19  1  0
 11 20  2  0
 21 11  1  0
 16 12  1  1
 17 13  1  1
 18 14  1  6
 17 15  1  0
 15 21  1  0
 16 18  1  0
 17 18  1  0
 18 19  1  0
 20 22  1  0
M  END
$$$$
