
     RDKit          3D

 22 25  0  0  0  0  0  0  0  0999 V2000
   23.9637   57.4995   84.9231 O   0  0  0  0  0  0  0  0  0  0  0  0
   23.6612   55.9215   86.6409 C   0  0  2  0  0  0  0  0  0  0  0  0
   19.5307   55.7636   89.1077 O   0  0  0  0  0  0  0  0  0  0  0  0
   24.4754   56.5873   85.6210 C   0  0  0  0  0  0  0  0  0  0  0  0
   29.5717   55.8128   88.6535 C   0  0  0  0  0  0  0  0  0  0  0  0
   25.8354   56.2703   85.3553 N   0  0  0  0  0  0  0  0  0  0  0  0
   26.5466   55.3707   86.2210 C   0  0  0  0  0  0  0  0  0  0  0  0
   27.4310   56.0754   87.2126 C   0  0  2  0  0  0  0  0  0  0  0  0
   28.4605   56.9776   86.6553 C   0  0  0  0  0  0  0  0  0  0  0  0
   28.8785   55.7302   87.3082 C   0  0  1  0  0  0  0  0  0  0  0  0
   22.2642   55.1460   90.3901 C   0  0  0  0  0  0  0  0  0  0  0  0
   22.5740   55.0182   86.0533 C   0  0  0  0  0  0  0  0  0  0  0  0
   19.8391   57.0583   89.4428 C   0  0  0  0  0  0  0  0  0  0  0  0
   20.1646   55.4686   87.8994 C   0  0  0  0  0  0  0  0  0  0  0  0
   22.0915   57.9333   89.7963 C   0  0  0  0  0  0  0  0  0  0  0  0
   22.2192   56.2202   86.8086 C   0  0  1  0  0  0  0  0  0  0  0  0
   21.1724   57.3853   88.7660 C   0  0  1  0  0  0  0  0  0  0  0  0
   21.5451   56.0963   88.1562 C   0  0  1  0  0  0  0  0  0  0  0  0
   22.2566   55.1696   88.9722 N   0  0  0  0  0  0  0  0  0  0  0  0
   22.4013   54.0588   91.0716 N   0  0  0  0  0  0  0  0  0  0  0  0
   22.0693   56.7408   91.1948 S   0  0  0  0  0  0  0  0  0  0  0  0
   23.1730   54.0154   91.7618 H   0  0  0  0  0  0  0  0  0  0  0  0
  4  1  2  0
  2  4  1  6
 12  2  1  0
 16  2  1  0
  3 13  1  0
 14  3  1  0
  4  6  1  0
 10  5  1  1
  6  7  1  0
  8  7  1  6
  8  9  1  0
  8 10  1  0
 10  9  1  0
 11 19  1  0
 11 20  2  0
 21 11  1  0
 16 12  1  6
 17 13  1  1
 18 14  1  6
 17 15  1  0
 15 21  1  0
 16 18  1  0
 17 18  1  0
 18 19  1  0
 20 22  1  0
M  END
$$$$
