
     RDKit          3D

 22 25  0  0  0  0  0  0  0  0999 V2000
   24.5715   58.3225   86.5002 O   0  0  0  0  0  0  0  0  0  0  0  0
   22.6121   57.0661   86.8385 C   0  0  2  0  0  0  0  0  0  0  0  0
   19.7628   54.9337   88.8238 O   0  0  0  0  0  0  0  0  0  0  0  0
   23.8397   57.3803   86.1032 C   0  0  0  0  0  0  0  0  0  0  0  0
   27.9069   54.2358   84.9366 C   0  0  0  0  0  0  0  0  0  0  0  0
   24.2758   56.6810   84.9450 N   0  0  0  0  0  0  0  0  0  0  0  0
   24.1353   55.2529   84.8716 C   0  0  0  0  0  0  0  0  0  0  0  0
   25.3588   54.5111   85.3351 C   0  0  2  0  0  0  0  0  0  0  0  0
   26.0595   55.0635   86.5133 C   0  0  0  0  0  0  0  0  0  0  0  0
   26.7096   55.1275   85.1980 C   0  0  1  0  0  0  0  0  0  0  0  0
   21.9117   54.5660   91.0022 C   0  0  0  0  0  0  0  0  0  0  0  0
   22.0453   58.2609   87.6095 C   0  0  0  0  0  0  0  0  0  0  0  0
   19.3451   55.9651   89.6273 C   0  0  0  0  0  0  0  0  0  0  0  0
   20.8140   55.4017   88.0336 C   0  0  0  0  0  0  0  0  0  0  0  0
   20.7357   57.1564   91.2430 C   0  0  0  0  0  0  0  0  0  0  0  0
   22.5595   57.0893   88.3195 C   0  0  1  0  0  0  0  0  0  0  0  0
   20.5382   56.9096   89.7916 C   0  0  1  0  0  0  0  0  0  0  0  0
   21.6132   56.1914   89.0840 C   0  0  1  0  0  0  0  0  0  0  0  0
   22.3530   55.2264   89.8274 N   0  0  0  0  0  0  0  0  0  0  0  0
   22.2836   53.3705   91.3150 N   0  0  0  0  0  0  0  0  0  0  0  0
   20.7886   55.5036   92.0454 S   0  0  0  0  0  0  0  0  0  0  0  0
   22.7714   53.2376   92.2195 H   0  0  0  0  0  0  0  0  0  0  0  0
  4  1  2  0
  2  4  1  1
 12  2  1  0
 16  2  1  0
  3 13  1  0
 14  3  1  0
  4  6  1  0
 10  5  1  1
  6  7  1  0
  8  7  1  6
  8  9  1  0
  8 10  1  0
 10  9  1  0
 11 19  1  0
 11 20  2  0
 21 11  1  0
 16 12  1  6
 17 13  1  1
 18 14  1  6
 17 15  1  0
 15 21  1  0
 16 18  1  0
 17 18  1  0
 18 19  1  0
 20 22  1  0
M  END
$$$$
