
     RDKit          3D

 22 25  0  0  0  0  0  0  0  0999 V2000
   25.6331   56.2195   85.0201 O   0  0  0  0  0  0  0  0  0  0  0  0
   24.3896   55.4307   86.8542 C   0  0  2  0  0  0  0  0  0  0  0  0
   20.2162   54.4185   88.5582 O   0  0  0  0  0  0  0  0  0  0  0  0
   25.4803   56.2138   86.2681 C   0  0  0  0  0  0  0  0  0  0  0  0
   29.0902   53.4725   87.5311 C   0  0  0  0  0  0  0  0  0  0  0  0
   26.4020   56.9871   87.0251 N   0  0  0  0  0  0  0  0  0  0  0  0
   27.7838   57.0438   86.6354 C   0  0  0  0  0  0  0  0  0  0  0  0
   28.6389   56.0186   87.3280 C   0  0  2  0  0  0  0  0  0  0  0  0
   29.9624   55.7482   86.7282 C   0  0  0  0  0  0  0  0  0  0  0  0
   28.9249   54.7102   86.6723 C   0  0  1  0  0  0  0  0  0  0  0  0
   22.5757   54.6916   90.5219 C   0  0  0  0  0  0  0  0  0  0  0  0
   23.2473   55.1546   85.8733 C   0  0  0  0  0  0  0  0  0  0  0  0
   19.9385   55.7030   88.9543 C   0  0  0  0  0  0  0  0  0  0  0  0
   21.1930   54.4765   87.5626 C   0  0  0  0  0  0  0  0  0  0  0  0
   21.5539   57.2803   89.8851 C   0  0  0  0  0  0  0  0  0  0  0  0
   23.0349   55.9995   87.0490 C   0  0  1  0  0  0  0  0  0  0  0  0
   21.1845   56.5388   88.6520 C   0  0  1  0  0  0  0  0  0  0  0  0
   22.1398   55.5248   88.1711 C   0  0  1  0  0  0  0  0  0  0  0  0
   22.9129   54.8389   89.1524 N   0  0  0  0  0  0  0  0  0  0  0  0
   22.9250   53.6658   91.2226 N   0  0  0  0  0  0  0  0  0  0  0  0
   21.6202   56.0355   91.2358 S   0  0  0  0  0  0  0  0  0  0  0  0
   23.4014   53.8379   92.1266 H   0  0  0  0  0  0  0  0  0  0  0  0
  4  1  2  0
  2  4  1  6
 12  2  1  0
 16  2  1  0
  3 13  1  0
 14  3  1  0
  4  6  1  0
 10  5  1  1
  6  7  1  0
  8  7  1  6
  8  9  1  0
  8 10  1  0
 10  9  1  0
 11 19  1  0
 11 20  2  0
 21 11  1  0
 16 12  1  6
 17 13  1  1
 18 14  1  6
 17 15  1  0
 15 21  1  0
 16 18  1  0
 17 18  1  0
 18 19  1  0
 20 22  1  0
M  END
$$$$
