
     RDKit          3D

 22 25  0  0  0  0  0  0  0  0999 V2000
   24.5579   56.6476   85.2057 O   0  0  0  0  0  0  0  0  0  0  0  0
   23.5834   55.1937   86.7768 C   0  0  2  0  0  0  0  0  0  0  0  0
   19.5307   55.8115   89.1213 O   0  0  0  0  0  0  0  0  0  0  0  0
   24.6935   55.6240   85.9230 C   0  0  0  0  0  0  0  0  0  0  0  0
   28.3338   57.1761   88.5214 C   0  0  0  0  0  0  0  0  0  0  0  0
   25.9440   54.9529   85.8437 N   0  0  0  0  0  0  0  0  0  0  0  0
   27.0581   55.5826   85.1903 C   0  0  0  0  0  0  0  0  0  0  0  0
   27.7701   56.5814   86.0605 C   0  0  2  0  0  0  0  0  0  0  0  0
   29.2213   56.3760   86.2506 C   0  0  0  0  0  0  0  0  0  0  0  0
   28.3138   56.1712   87.3870 C   0  0  1  0  0  0  0  0  0  0  0  0
   22.0956   54.9069   90.5708 C   0  0  0  0  0  0  0  0  0  0  0  0
   22.2680   55.0134   86.0149 C   0  0  0  0  0  0  0  0  0  0  0  0
   19.9345   57.0631   89.5144 C   0  0  0  0  0  0  0  0  0  0  0  0
   20.2189   55.4845   87.9516 C   0  0  0  0  0  0  0  0  0  0  0  0
   22.2280   57.7105   90.0478 C   0  0  0  0  0  0  0  0  0  0  0  0
   22.4076   56.0605   87.0275 C   0  0  1  0  0  0  0  0  0  0  0  0
   21.3375   57.2761   88.9410 C   0  0  1  0  0  0  0  0  0  0  0  0
   21.6302   55.9715   88.3212 C   0  0  1  0  0  0  0  0  0  0  0  0
   22.1916   54.9629   89.1570 N   0  0  0  0  0  0  0  0  0  0  0  0
   22.0811   53.7965   91.2282 N   0  0  0  0  0  0  0  0  0  0  0  0
   21.9941   56.4945   91.4062 S   0  0  0  0  0  0  0  0  0  0  0  0
   22.7605   53.6847   92.0024 H   0  0  0  0  0  0  0  0  0  0  0  0
  4  1  2  0
  2  4  1  6
 12  2  1  0
 16  2  1  0
  3 13  1  0
 14  3  1  0
  4  6  1  0
 10  5  1  1
  6  7  1  0
  8  7  1  6
  8  9  1  0
  8 10  1  0
 10  9  1  0
 11 19  1  0
 11 20  2  0
 21 11  1  0
 16 12  1  6
 17 13  1  1
 18 14  1  6
 17 15  1  0
 15 21  1  0
 16 18  1  0
 17 18  1  0
 18 19  1  0
 20 22  1  0
M  END
$$$$
