
     RDKit          3D

 22 25  0  0  0  0  0  0  0  0999 V2000
   21.7902   56.4390   84.3625 O   0  0  0  0  0  0  0  0  0  0  0  0
   22.2387   55.7567   86.5683 C   0  0  2  0  0  0  0  0  0  0  0  0
   19.1281   55.8129   90.2657 O   0  0  0  0  0  0  0  0  0  0  0  0
   22.6280   56.3736   85.2978 C   0  0  0  0  0  0  0  0  0  0  0  0
   27.6822   54.0807   86.8069 C   0  0  0  0  0  0  0  0  0  0  0  0
   23.9153   56.9173   85.0375 N   0  0  0  0  0  0  0  0  0  0  0  0
   25.0164   56.0454   84.7340 C   0  0  0  0  0  0  0  0  0  0  0  0
   25.6250   55.4102   85.9539 C   0  0  2  0  0  0  0  0  0  0  0  0
   26.3954   56.3003   86.8474 C   0  0  0  0  0  0  0  0  0  0  0  0
   27.1051   55.2743   86.0725 C   0  0  1  0  0  0  0  0  0  0  0  0
   22.0795   54.9858   90.5874 C   0  0  0  0  0  0  0  0  0  0  0  0
   21.0857   54.7594   86.4292 C   0  0  0  0  0  0  0  0  0  0  0  0
   19.6272   57.0820   90.4214 C   0  0  0  0  0  0  0  0  0  0  0  0
   19.2946   55.4454   88.9293 C   0  0  0  0  0  0  0  0  0  0  0  0
   21.9259   57.7677   89.9636 C   0  0  0  0  0  0  0  0  0  0  0  0
   20.9125   56.0016   87.1830 C   0  0  1  0  0  0  0  0  0  0  0  0
   20.6754   57.2832   89.3245 C   0  0  1  0  0  0  0  0  0  0  0  0
   20.7238   55.9575   88.6825 C   0  0  1  0  0  0  0  0  0  0  0  0
   21.5971   54.9869   89.2538 N   0  0  0  0  0  0  0  0  0  0  0  0
   22.3563   53.9021   91.2310 N   0  0  0  0  0  0  0  0  0  0  0  0
   22.2864   56.6043   91.3402 S   0  0  0  0  0  0  0  0  0  0  0  0
   23.0232   53.9667   92.0213 H   0  0  0  0  0  0  0  0  0  0  0  0
  4  1  2  0
  2  4  1  6
 12  2  1  0
 16  2  1  0
  3 13  1  0
 14  3  1  0
  4  6  1  0
 10  5  1  1
  6  7  1  0
  8  7  1  6
  8  9  1  0
  8 10  1  0
 10  9  1  0
 11 19  1  0
 11 20  2  0
 21 11  1  0
 16 12  1  6
 17 13  1  1
 18 14  1  6
 17 15  1  0
 15 21  1  0
 16 18  1  0
 17 18  1  0
 18 19  1  0
 20 22  1  0
M  END
$$$$
