
     RDKit          3D

 22 25  0  0  0  0  0  0  0  0999 V2000
   24.9981   57.4453   85.7122 O   0  0  0  0  0  0  0  0  0  0  0  0
   24.1128   55.4835   86.6608 C   0  0  2  0  0  0  0  0  0  0  0  0
   19.5974   55.1009   88.2875 O   0  0  0  0  0  0  0  0  0  0  0  0
   25.0699   56.1937   85.8087 C   0  0  0  0  0  0  0  0  0  0  0  0
   28.8068   54.8391   88.1683 C   0  0  0  0  0  0  0  0  0  0  0  0
   26.0995   55.5564   85.0643 N   0  0  0  0  0  0  0  0  0  0  0  0
   27.3424   56.2374   84.8271 C   0  0  0  0  0  0  0  0  0  0  0  0
   28.3052   56.1345   85.9779 C   0  0  2  0  0  0  0  0  0  0  0  0
   29.5207   55.3246   85.7519 C   0  0  0  0  0  0  0  0  0  0  0  0
   28.4971   54.8356   86.6847 C   0  0  1  0  0  0  0  0  0  0  0  0
   22.0612   54.6222   90.0761 C   0  0  0  0  0  0  0  0  0  0  0  0
   23.2118   54.5186   85.8860 C   0  0  0  0  0  0  0  0  0  0  0  0
   19.7696   56.4092   88.6652 C   0  0  0  0  0  0  0  0  0  0  0  0
   20.4660   54.8410   87.2259 C   0  0  0  0  0  0  0  0  0  0  0  0
   21.8647   57.3980   89.4376 C   0  0  0  0  0  0  0  0  0  0  0  0
   22.6511   55.6991   86.5440 C   0  0  1  0  0  0  0  0  0  0  0  0
   21.1898   56.8054   88.2544 C   0  0  1  0  0  0  0  0  0  0  0  0
   21.7376   55.5384   87.7380 C   0  0  1  0  0  0  0  0  0  0  0  0
   22.3251   54.6479   88.6830 N   0  0  0  0  0  0  0  0  0  0  0  0
   22.1197   53.5422   90.7800 N   0  0  0  0  0  0  0  0  0  0  0  0
   21.6345   56.2034   90.8155 S   0  0  0  0  0  0  0  0  0  0  0  0
   22.3825   53.6301   91.7785 H   0  0  0  0  0  0  0  0  0  0  0  0
  4  1  2  0
  2  4  1  6
 12  2  1  0
 16  2  1  0
  3 13  1  0
 14  3  1  0
  4  6  1  0
 10  5  1  1
  6  7  1  0
  8  7  1  6
  8  9  1  0
  8 10  1  0
 10  9  1  0
 11 19  1  0
 11 20  2  0
 21 11  1  0
 16 12  1  6
 17 13  1  1
 18 14  1  6
 17 15  1  0
 15 21  1  0
 16 18  1  0
 17 18  1  0
 18 19  1  0
 20 22  1  0
M  END
$$$$
