
     RDKit          3D

 22 25  0  0  0  0  0  0  0  0999 V2000
   24.3179   56.4754   85.1149 O   0  0  0  0  0  0  0  0  0  0  0  0
   23.3348   54.8847   86.5415 C   0  0  2  0  0  0  0  0  0  0  0  0
   19.5644   55.2899   89.2768 O   0  0  0  0  0  0  0  0  0  0  0  0
   24.3893   55.3292   85.6267 C   0  0  0  0  0  0  0  0  0  0  0  0
   28.5442   56.8900   87.4964 C   0  0  0  0  0  0  0  0  0  0  0  0
   25.5155   54.5406   85.2658 N   0  0  0  0  0  0  0  0  0  0  0  0
   26.6239   55.1422   84.5773 C   0  0  0  0  0  0  0  0  0  0  0  0
   27.7890   55.4459   85.4786 C   0  0  2  0  0  0  0  0  0  0  0  0
   27.9877   54.5400   86.6294 C   0  0  0  0  0  0  0  0  0  0  0  0
   27.5580   55.9232   86.8723 C   0  0  1  0  0  0  0  0  0  0  0  0
   22.2991   54.5872   90.5121 C   0  0  0  0  0  0  0  0  0  0  0  0
   21.9490   54.8407   85.8928 C   0  0  0  0  0  0  0  0  0  0  0  0
   19.8954   56.5674   89.6540 C   0  0  0  0  0  0  0  0  0  0  0  0
   20.1834   55.0280   88.0533 C   0  0  0  0  0  0  0  0  0  0  0  0
   22.1638   57.3958   90.0173 C   0  0  0  0  0  0  0  0  0  0  0  0
   22.2398   55.7866   86.9707 C   0  0  1  0  0  0  0  0  0  0  0  0
   21.2276   56.8980   88.9769 C   0  0  1  0  0  0  0  0  0  0  0  0
   21.5754   55.6258   88.3192 C   0  0  1  0  0  0  0  0  0  0  0  0
   22.2797   54.6605   89.0960 N   0  0  0  0  0  0  0  0  0  0  0  0
   22.4255   53.4749   91.1540 N   0  0  0  0  0  0  0  0  0  0  0  0
   22.1353   56.1556   91.3736 S   0  0  0  0  0  0  0  0  0  0  0  0
   23.1364   53.4295   91.9064 H   0  0  0  0  0  0  0  0  0  0  0  0
  4  1  2  0
  2  4  1  6
 12  2  1  0
 16  2  1  0
  3 13  1  0
 14  3  1  0
  4  6  1  0
 10  5  1  1
  6  7  1  0
  8  7  1  6
  8  9  1  0
  8 10  1  0
 10  9  1  0
 11 19  1  0
 11 20  2  0
 21 11  1  0
 16 12  1  6
 17 13  1  1
 18 14  1  6
 17 15  1  0
 15 21  1  0
 16 18  1  0
 17 18  1  0
 18 19  1  0
 20 22  1  0
M  END
$$$$
