
     RDKit          3D

 22 25  0  0  0  0  0  0  0  0999 V2000
   24.7840   57.1320   85.9327 O   0  0  0  0  0  0  0  0  0  0  0  0
   23.6946   55.3125   86.9499 C   0  0  2  0  0  0  0  0  0  0  0  0
   19.3976   55.4845   88.9872 O   0  0  0  0  0  0  0  0  0  0  0  0
   24.7661   55.8913   86.1354 C   0  0  0  0  0  0  0  0  0  0  0  0
   30.1204   56.3192   87.7087 C   0  0  0  0  0  0  0  0  0  0  0  0
   25.8134   55.1349   85.5425 N   0  0  0  0  0  0  0  0  0  0  0  0
   26.8752   54.6138   86.3584 C   0  0  0  0  0  0  0  0  0  0  0  0
   27.7040   55.6860   87.0107 C   0  0  2  0  0  0  0  0  0  0  0  0
   28.1440   56.7996   86.1444 C   0  0  0  0  0  0  0  0  0  0  0  0
   29.1419   55.8487   86.6513 C   0  0  1  0  0  0  0  0  0  0  0  0
   21.9346   54.7566   90.5785 C   0  0  0  0  0  0  0  0  0  0  0  0
   22.4955   54.8385   86.1249 C   0  0  0  0  0  0  0  0  0  0  0  0
   19.6870   56.7590   89.4064 C   0  0  0  0  0  0  0  0  0  0  0  0
   20.1730   55.2159   87.8579 C   0  0  0  0  0  0  0  0  0  0  0  0
   21.8937   57.5661   90.0720 C   0  0  0  0  0  0  0  0  0  0  0  0
   22.3634   55.9543   87.0622 C   0  0  1  0  0  0  0  0  0  0  0  0
   21.1013   57.0765   88.9148 C   0  0  1  0  0  0  0  0  0  0  0  0
   21.5222   55.8006   88.3090 C   0  0  1  0  0  0  0  0  0  0  0  0
   22.1065   54.8292   89.1728 N   0  0  0  0  0  0  0  0  0  0  0  0
   21.9630   53.6435   91.2309 N   0  0  0  0  0  0  0  0  0  0  0  0
   21.6714   56.3270   91.4113 S   0  0  0  0  0  0  0  0  0  0  0  0
   22.4156   53.6413   92.1629 H   0  0  0  0  0  0  0  0  0  0  0  0
  4  1  2  0
  2  4  1  6
 12  2  1  0
 16  2  1  0
  3 13  1  0
 14  3  1  0
  4  6  1  0
 10  5  1  1
  6  7  1  0
  8  7  1  6
  8  9  1  0
  8 10  1  0
 10  9  1  0
 11 19  1  0
 11 20  2  0
 21 11  1  0
 16 12  1  6
 17 13  1  1
 18 14  1  6
 17 15  1  0
 15 21  1  0
 16 18  1  0
 17 18  1  0
 18 19  1  0
 20 22  1  0
M  END
$$$$
