
     RDKit          3D

 22 25  0  0  0  0  0  0  0  0999 V2000
   24.8139   56.3893   84.4996 O   0  0  0  0  0  0  0  0  0  0  0  0
   23.5393   55.3444   86.1776 C   0  0  2  0  0  0  0  0  0  0  0  0
   19.6097   55.0803   88.2969 O   0  0  0  0  0  0  0  0  0  0  0  0
   24.8138   55.7699   85.5938 C   0  0  0  0  0  0  0  0  0  0  0  0
   29.9087   55.6171   88.4187 C   0  0  0  0  0  0  0  0  0  0  0  0
   26.0824   55.5281   86.1877 N   0  0  0  0  0  0  0  0  0  0  0  0
   27.2765   56.0235   85.5605 C   0  0  0  0  0  0  0  0  0  0  0  0
   28.5386   55.5368   86.2179 C   0  0  2  0  0  0  0  0  0  0  0  0
   28.4900   54.1907   86.8260 C   0  0  0  0  0  0  0  0  0  0  0  0
   28.5990   55.3673   87.6981 C   0  0  1  0  0  0  0  0  0  0  0  0
   22.0357   54.9135   90.1904 C   0  0  0  0  0  0  0  0  0  0  0  0
   22.3195   55.8523   85.4047 C   0  0  0  0  0  0  0  0  0  0  0  0
   19.5317   56.3699   88.7605 C   0  0  0  0  0  0  0  0  0  0  0  0
   20.5576   55.0473   87.2726 C   0  0  0  0  0  0  0  0  0  0  0  0
   21.3830   57.6506   89.7073 C   0  0  0  0  0  0  0  0  0  0  0  0
   22.5862   56.3143   86.7672 C   0  0  1  0  0  0  0  0  0  0  0  0
   20.8772   57.0324   88.4548 C   0  0  1  0  0  0  0  0  0  0  0  0
   21.6622   55.9173   87.8961 C   0  0  1  0  0  0  0  0  0  0  0  0
   22.3538   55.0793   88.8184 N   0  0  0  0  0  0  0  0  0  0  0  0
   22.2514   53.8143   90.8312 N   0  0  0  0  0  0  0  0  0  0  0  0
   21.3045   56.3431   90.9968 S   0  0  0  0  0  0  0  0  0  0  0  0
   22.7449   53.8742   91.7404 H   0  0  0  0  0  0  0  0  0  0  0  0
  4  1  2  0
  2  4  1  6
 12  2  1  0
 16  2  1  0
  3 13  1  0
 14  3  1  0
  4  6  1  0
 10  5  1  6
  6  7  1  0
  8  7  1  1
  8  9  1  0
  8 10  1  0
 10  9  1  0
 11 19  1  0
 11 20  2  0
 21 11  1  0
 16 12  1  6
 17 13  1  1
 18 14  1  6
 17 15  1  0
 15 21  1  0
 16 18  1  0
 17 18  1  0
 18 19  1  0
 20 22  1  0
M  END
$$$$
