
     RDKit          3D

 22 25  0  0  0  0  0  0  0  0999 V2000
   24.1187   56.5194   85.0835 O   0  0  0  0  0  0  0  0  0  0  0  0
   23.3584   54.9438   86.6556 C   0  0  2  0  0  0  0  0  0  0  0  0
   19.3246   55.4477   89.1547 O   0  0  0  0  0  0  0  0  0  0  0  0
   24.3375   55.4364   85.6835 C   0  0  0  0  0  0  0  0  0  0  0  0
   27.7275   57.1937   87.9436 C   0  0  0  0  0  0  0  0  0  0  0  0
   25.5473   54.7635   85.3603 N   0  0  0  0  0  0  0  0  0  0  0  0
   26.5825   55.4515   84.6395 C   0  0  0  0  0  0  0  0  0  0  0  0
   27.4147   56.3522   85.5102 C   0  0  2  0  0  0  0  0  0  0  0  0
   28.6833   55.7906   86.0196 C   0  0  0  0  0  0  0  0  0  0  0  0
   27.5855   56.0493   86.9602 C   0  0  1  0  0  0  0  0  0  0  0  0
   21.9800   54.5970   90.4676 C   0  0  0  0  0  0  0  0  0  0  0  0
   22.0632   54.4441   86.0106 C   0  0  0  0  0  0  0  0  0  0  0  0
   19.7486   56.7126   89.4772 C   0  0  0  0  0  0  0  0  0  0  0  0
   19.9376   55.0805   87.9554 C   0  0  0  0  0  0  0  0  0  0  0  0
   22.0694   57.3807   89.8396 C   0  0  0  0  0  0  0  0  0  0  0  0
   22.0607   55.6259   86.8734 C   0  0  1  0  0  0  0  0  0  0  0  0
   21.1114   56.9069   88.8080 C   0  0  1  0  0  0  0  0  0  0  0  0
   21.3681   55.5816   88.2166 C   0  0  1  0  0  0  0  0  0  0  0  0
   21.9851   54.6035   89.0495 N   0  0  0  0  0  0  0  0  0  0  0  0
   22.0111   53.5104   91.1630 N   0  0  0  0  0  0  0  0  0  0  0  0
   21.9270   56.2129   91.2518 S   0  0  0  0  0  0  0  0  0  0  0  0
   22.8430   53.3408   91.7570 H   0  0  0  0  0  0  0  0  0  0  0  0
  4  1  2  0
  2  4  1  6
 12  2  1  0
 16  2  1  0
  3 13  1  0
 14  3  1  0
  4  6  1  0
 10  5  1  1
  6  7  1  0
  8  7  1  6
  8  9  1  0
  8 10  1  0
 10  9  1  0
 11 19  1  0
 11 20  2  0
 21 11  1  0
 16 12  1  6
 17 13  1  1
 18 14  1  6
 17 15  1  0
 15 21  1  0
 16 18  1  0
 17 18  1  0
 18 19  1  0
 20 22  1  0
M  END
$$$$
