
     RDKit          3D

 38 43  0  0  0  0  0  0  0  0999 V2000
   92.7446   51.5669  268.3803 C   0  0  0  0  0  0  0  0  0  0  0  0
   93.1298   52.7691  268.9434 C   0  0  0  0  0  0  0  0  0  0  0  0
   92.6343   53.5204  269.9643 N   0  0  0  0  0  0  0  0  0  0  0  0
   91.4514   53.0997  270.7199 C   0  0  0  0  0  0  0  0  0  0  0  0
   93.3759   54.6283  270.1319 C   0  0  0  0  0  0  0  0  0  0  0  0
   94.3987   54.6350  269.2073 C   0  0  0  0  0  0  0  0  0  0  0  0
   94.2249   53.4634  268.4755 C   0  0  0  0  0  0  0  0  0  0  0  0
   94.9293   52.9086  267.4138 C   0  0  0  0  0  0  0  0  0  0  0  0
   94.5359   51.7046  266.8568 C   0  0  0  0  0  0  0  0  0  0  0  0
   93.4397   51.0113  267.3265 C   0  0  0  0  0  0  0  0  0  0  0  0
   93.0232   49.7327  266.7363 C   0  0  0  0  0  0  0  0  0  0  0  0
   91.7298   49.5218  266.3142 C   0  0  0  0  0  0  0  0  0  0  0  0
   93.9492   48.7197  266.6032 C   0  0  0  0  0  0  0  0  0  0  0  0
   95.2124   48.9459  267.0227 N   0  0  0  0  0  0  0  0  0  0  0  0
   96.1702   47.9851  266.9169 C   0  0  0  0  0  0  0  0  0  0  0  0
   95.8083   46.7625  266.3634 C   0  0  0  0  0  0  0  0  0  0  0  0
   94.5351   46.5627  265.9511 N   0  0  0  0  0  0  0  0  0  0  0  0
   93.5920   47.5009  266.0523 C   0  0  0  0  0  0  0  0  0  0  0  0
   92.2782   47.3299  265.6394 C   0  0  0  0  0  0  0  0  0  0  0  0
   91.3153   48.3083  265.7505 C   0  0  0  0  0  0  0  0  0  0  0  0
   89.9728   48.1432  265.3006 N   0  0  0  0  0  0  0  0  0  0  0  0
   89.5991   47.2663  264.2730 C   0  0  0  0  0  0  0  0  0  0  0  0
   90.4864   46.9624  263.2714 C   0  0  0  0  0  0  0  0  0  0  0  0
   90.1728   46.1271  262.2020 C   0  0  0  0  0  0  0  0  0  0  0  0
   88.9066   45.5986  262.1788 C   0  0  0  0  0  0  0  0  0  0  0  0
   88.0023   45.8982  263.1852 C   0  0  0  0  0  0  0  0  0  0  0  0
   88.3113   46.7259  264.2488 C   0  0  0  0  0  0  0  0  0  0  0  0
   87.1781   47.1376  265.5068 S   0  0  2  0  0  6  0  0  0  0  0  0
   85.8274   46.5283  265.2412 O   0  0  0  0  0  0  0  0  0  0  0  0
   86.9998   48.6402  265.5757 O   0  0  0  0  0  0  0  0  0  0  0  0
   87.7276   46.5481  267.0130 N   0  0  0  0  0  0  0  0  0  0  0  0
   87.8888   45.1205  267.0748 C   0  0  0  0  0  0  0  0  0  0  0  0
   89.0771   44.8699  267.9478 C   0  0  0  0  0  0  0  0  0  0  0  0
   89.0824   45.2272  269.2689 C   0  0  0  0  0  0  0  0  0  0  0  0
   90.1723   44.9897  270.0421 N   0  0  0  0  0  0  0  0  0  0  0  0
   91.2469   44.4023  269.5064 C   0  0  0  0  0  0  0  0  0  0  0  0
   91.2357   44.0558  268.2162 N   0  0  0  0  0  0  0  0  0  0  0  0
   90.1851   44.2687  267.4116 C   0  0  0  0  0  0  0  0  0  0  0  0
  1  2  2  0
  1 10  1  0
  2  3  1  0
  2  7  1  0
  3  4  1  0
  3  5  1  0
  5  6  2  0
  6  7  1  0
  7  8  2  0
  8  9  1  0
  9 10  2  0
 10 11  1  0
 11 12  2  0
 11 13  1  0
 12 20  1  0
 13 14  2  0
 13 18  1  0
 14 15  1  0
 15 16  2  0
 16 17  1  0
 17 18  2  0
 18 19  1  0
 19 20  2  0
 20 21  1  0
 21 22  1  0
 22 23  2  0
 22 27  1  0
 23 24  1  0
 24 25  2  0
 25 26  1  0
 26 27  2  0
 27 28  1  0
 28 29  2  0
 28 30  2  0
 28 31  1  1
 31 32  1  0
 32 33  1  0
 33 34  2  0
 33 38  1  0
 34 35  1  0
 35 36  2  0
 36 37  1  0
 37 38  2  0
M  END
$$$$
