
     RDKit          3D

 38 43  0  0  0  0  0  0  0  0999 V2000
   92.3816   51.8707  271.0683 C   0  0  0  0  0  0  0  0  0  0  0  0
   92.0355   52.6904  272.1262 C   0  0  0  0  0  0  0  0  0  0  0  0
   91.8853   52.4741  273.4615 N   0  0  0  0  0  0  0  0  0  0  0  0
   92.1003   51.1501  274.0511 C   0  0  0  0  0  0  0  0  0  0  0  0
   91.5317   53.6121  274.0823 C   0  0  0  0  0  0  0  0  0  0  0  0
   91.4383   54.6268  273.1534 C   0  0  0  0  0  0  0  0  0  0  0  0
   91.7575   54.0274  271.9380 C   0  0  0  0  0  0  0  0  0  0  0  0
   91.8381   54.5221  270.6418 C   0  0  0  0  0  0  0  0  0  0  0  0
   92.1853   53.6935  269.5894 C   0  0  0  0  0  0  0  0  0  0  0  0
   92.4632   52.3559  269.7799 C   0  0  0  0  0  0  0  0  0  0  0  0
   92.8333   51.4770  268.6630 C   0  0  0  0  0  0  0  0  0  0  0  0
   92.4700   50.1493  268.6406 C   0  0  0  0  0  0  0  0  0  0  0  0
   93.5627   51.9940  267.6133 C   0  0  0  0  0  0  0  0  0  0  0  0
   93.9091   53.2983  267.6534 N   0  0  0  0  0  0  0  0  0  0  0  0
   94.6280   53.8652  266.6466 C   0  0  0  0  0  0  0  0  0  0  0  0
   94.9953   53.0601  265.5748 C   0  0  0  0  0  0  0  0  0  0  0  0
   94.6348   51.7560  265.5601 N   0  0  0  0  0  0  0  0  0  0  0  0
   93.9300   51.1947  266.5442 C   0  0  0  0  0  0  0  0  0  0  0  0
   93.5433   49.8621  266.5608 C   0  0  0  0  0  0  0  0  0  0  0  0
   92.8156   49.2967  267.5843 C   0  0  0  0  0  0  0  0  0  0  0  0
   92.3938   47.9351  267.5886 N   0  0  0  0  0  0  0  0  0  0  0  0
   92.9198   46.9552  266.7357 C   0  0  0  0  0  0  0  0  0  0  0  0
   94.2332   47.0176  266.3435 C   0  0  0  0  0  0  0  0  0  0  0  0
   94.8137   46.0991  265.4722 C   0  0  0  0  0  0  0  0  0  0  0  0
   94.0054   45.0952  265.0012 C   0  0  0  0  0  0  0  0  0  0  0  0
   92.6776   45.0219  265.3907 C   0  0  0  0  0  0  0  0  0  0  0  0
   92.0990   45.9314  266.2568 C   0  0  0  0  0  0  0  0  0  0  0  0
   90.4242   45.8726  266.7339 S   0  0  2  0  0  6  0  0  0  0  0  0
   90.1633   46.7736  267.9112 O   0  0  0  0  0  0  0  0  0  0  0  0
   90.0478   44.4630  267.1407 O   0  0  0  0  0  0  0  0  0  0  0  0
   89.4254   46.3927  265.4493 N   0  0  0  0  0  0  0  0  0  0  0  0
   89.8247   47.6352  264.8454 C   0  0  0  0  0  0  0  0  0  0  0  0
   88.9225   48.6855  265.4109 C   0  0  0  0  0  0  0  0  0  0  0  0
   89.3664   49.5838  266.3431 C   0  0  0  0  0  0  0  0  0  0  0  0
   88.5294   50.5286  266.8421 N   0  0  0  0  0  0  0  0  0  0  0  0
   87.2627   50.5794  266.4180 C   0  0  0  0  0  0  0  0  0  0  0  0
   86.8353   49.6998  265.5079 N   0  0  0  0  0  0  0  0  0  0  0  0
   87.6220   48.7489  264.9850 C   0  0  0  0  0  0  0  0  0  0  0  0
  1  2  2  0
  1 10  1  0
  2  3  1  0
  2  7  1  0
  3  4  1  0
  3  5  1  0
  5  6  2  0
  6  7  1  0
  7  8  2  0
  8  9  1  0
  9 10  2  0
 10 11  1  0
 11 12  2  0
 11 13  1  0
 12 20  1  0
 13 14  2  0
 13 18  1  0
 14 15  1  0
 15 16  2  0
 16 17  1  0
 17 18  2  0
 18 19  1  0
 19 20  2  0
 20 21  1  0
 21 22  1  0
 22 23  2  0
 22 27  1  0
 23 24  1  0
 24 25  2  0
 25 26  1  0
 26 27  2  0
 27 28  1  0
 28 29  2  0
 28 30  2  0
 28 31  1  6
 31 32  1  0
 32 33  1  0
 33 34  2  0
 33 38  1  0
 34 35  1  0
 35 36  2  0
 36 37  1  0
 37 38  2  0
M  END
$$$$
