
     RDKit          3D

 38 43  0  0  0  0  0  0  0  0999 V2000
   93.0012   51.7267  268.6554 C   0  0  0  0  0  0  0  0  0  0  0  0
   93.3009   52.9783  269.1597 C   0  0  0  0  0  0  0  0  0  0  0  0
   92.7649   53.7331  270.1573 N   0  0  0  0  0  0  0  0  0  0  0  0
   91.6302   53.2563  270.9524 C   0  0  0  0  0  0  0  0  0  0  0  0
   93.4210   54.9009  270.2636 C   0  0  0  0  0  0  0  0  0  0  0  0
   94.4255   54.9457  269.3203 C   0  0  0  0  0  0  0  0  0  0  0  0
   94.3314   53.7335  268.6420 C   0  0  0  0  0  0  0  0  0  0  0  0
   95.0598   53.1886  267.5914 C   0  0  0  0  0  0  0  0  0  0  0  0
   94.7520   51.9347  267.0935 C   0  0  0  0  0  0  0  0  0  0  0  0
   93.7204   51.1806  267.6129 C   0  0  0  0  0  0  0  0  0  0  0  0
   93.3949   49.8493  267.0854 C   0  0  0  0  0  0  0  0  0  0  0  0
   92.0911   49.4352  266.9301 C   0  0  0  0  0  0  0  0  0  0  0  0
   94.4194   48.9940  266.7387 C   0  0  0  0  0  0  0  0  0  0  0  0
   95.6912   49.4184  266.8979 N   0  0  0  0  0  0  0  0  0  0  0  0
   96.7439   48.6197  266.5729 C   0  0  0  0  0  0  0  0  0  0  0  0
   96.4700   47.3526  266.0717 C   0  0  0  0  0  0  0  0  0  0  0  0
   95.1860   46.9527  265.9223 N   0  0  0  0  0  0  0  0  0  0  0  0
   94.1500   47.7313  266.2392 C   0  0  0  0  0  0  0  0  0  0  0  0
   92.8222   47.3535  266.0982 C   0  0  0  0  0  0  0  0  0  0  0  0
   91.7629   48.1687  266.4298 C   0  0  0  0  0  0  0  0  0  0  0  0
   90.3987   47.7921  266.2587 N   0  0  0  0  0  0  0  0  0  0  0  0
   89.8813   46.5476  266.6435 C   0  0  0  0  0  0  0  0  0  0  0  0
   90.6766   45.6472  267.3067 C   0  0  0  0  0  0  0  0  0  0  0  0
   90.2404   44.3810  267.6890 C   0  0  0  0  0  0  0  0  0  0  0  0
   88.9473   44.0489  267.3719 C   0  0  0  0  0  0  0  0  0  0  0  0
   88.1349   44.9503  266.7027 C   0  0  0  0  0  0  0  0  0  0  0  0
   88.5646   46.2086  266.3233 C   0  0  0  0  0  0  0  0  0  0  0  0
   87.5673   47.3433  265.4552 S   0  0  2  0  0  6  0  0  0  0  0  0
   87.6270   48.7099  266.0836 O   0  0  0  0  0  0  0  0  0  0  0  0
   86.1224   46.8896  265.4767 O   0  0  0  0  0  0  0  0  0  0  0  0
   88.1064   47.4892  263.8408 N   0  0  0  0  0  0  0  0  0  0  0  0
   88.2440   46.2409  263.1402 C   0  0  0  0  0  0  0  0  0  0  0  0
   89.4589   46.3754  262.2782 C   0  0  0  0  0  0  0  0  0  0  0  0
   89.3876   46.2518  260.9171 C   0  0  0  0  0  0  0  0  0  0  0  0
   90.5035   46.3779  260.1549 N   0  0  0  0  0  0  0  0  0  0  0  0
   91.6794   46.6247  260.7409 C   0  0  0  0  0  0  0  0  0  0  0  0
   91.7426   46.7443  262.0699 N   0  0  0  0  0  0  0  0  0  0  0  0
   90.6702   46.6283  262.8658 C   0  0  0  0  0  0  0  0  0  0  0  0
  1  2  2  0
  1 10  1  0
  2  3  1  0
  2  7  1  0
  3  4  1  0
  3  5  1  0
  5  6  2  0
  6  7  1  0
  7  8  2  0
  8  9  1  0
  9 10  2  0
 10 11  1  0
 11 12  2  0
 11 13  1  0
 12 20  1  0
 13 14  2  0
 13 18  1  0
 14 15  1  0
 15 16  2  0
 16 17  1  0
 17 18  2  0
 18 19  1  0
 19 20  2  0
 20 21  1  0
 21 22  1  0
 22 23  2  0
 22 27  1  0
 23 24  1  0
 24 25  2  0
 25 26  1  0
 26 27  2  0
 27 28  1  0
 28 29  2  0
 28 30  2  0
 28 31  1  6
 31 32  1  0
 32 33  1  0
 33 34  2  0
 33 38  1  0
 34 35  1  0
 35 36  2  0
 36 37  1  0
 37 38  2  0
M  END
$$$$
