
     RDKit          3D

 38 43  0  0  0  0  0  0  0  0999 V2000
   92.8952   51.0525  268.4088 C   0  0  0  0  0  0  0  0  0  0  0  0
   93.1694   52.2740  268.9948 C   0  0  0  0  0  0  0  0  0  0  0  0
   92.7622   52.8642  270.1516 N   0  0  0  0  0  0  0  0  0  0  0  0
   91.8426   52.1902  271.0721 C   0  0  0  0  0  0  0  0  0  0  0  0
   93.3187   54.0808  270.2766 C   0  0  0  0  0  0  0  0  0  0  0  0
   94.1223   54.3277  269.1838 C   0  0  0  0  0  0  0  0  0  0  0  0
   94.0135   53.1847  268.3963 C   0  0  0  0  0  0  0  0  0  0  0  0
   94.5802   52.8285  267.1784 C   0  0  0  0  0  0  0  0  0  0  0  0
   94.2996   51.6033  266.5997 C   0  0  0  0  0  0  0  0  0  0  0  0
   93.4546   50.6934  267.2003 C   0  0  0  0  0  0  0  0  0  0  0  0
   93.1581   49.3925  266.5868 C   0  0  0  0  0  0  0  0  0  0  0  0
   91.8637   48.9783  266.3668 C   0  0  0  0  0  0  0  0  0  0  0  0
   94.2008   48.5665  266.2238 C   0  0  0  0  0  0  0  0  0  0  0  0
   95.4630   48.9905  266.4474 N   0  0  0  0  0  0  0  0  0  0  0  0
   96.5327   48.2199  266.1102 C   0  0  0  0  0  0  0  0  0  0  0  0
   96.2864   46.9819  265.5282 C   0  0  0  0  0  0  0  0  0  0  0  0
   95.0115   46.5817  265.3155 N   0  0  0  0  0  0  0  0  0  0  0  0
   93.9588   47.3329  265.6439 C   0  0  0  0  0  0  0  0  0  0  0  0
   92.6397   46.9539  265.4395 C   0  0  0  0  0  0  0  0  0  0  0  0
   91.5630   47.7405  265.7841 C   0  0  0  0  0  0  0  0  0  0  0  0
   90.2084   47.3642  265.5486 N   0  0  0  0  0  0  0  0  0  0  0  0
   89.7669   46.7438  264.3718 C   0  0  0  0  0  0  0  0  0  0  0  0
   90.3622   47.0418  263.1720 C   0  0  0  0  0  0  0  0  0  0  0  0
   89.9539   46.4902  261.9600 C   0  0  0  0  0  0  0  0  0  0  0  0
   88.9025   45.6096  262.0027 C   0  0  0  0  0  0  0  0  0  0  0  0
   88.2939   45.3008  263.2087 C   0  0  0  0  0  0  0  0  0  0  0  0
   88.6980   45.8456  264.4136 C   0  0  0  0  0  0  0  0  0  0  0  0
   87.9257   45.4923  265.9351 S   0  0  2  0  0  6  0  0  0  0  0  0
   88.9037   44.9034  266.9163 O   0  0  0  0  0  0  0  0  0  0  0  0
   86.8132   44.4845  265.7328 O   0  0  0  0  0  0  0  0  0  0  0  0
   87.2954   46.9229  266.6238 N   0  0  0  0  0  0  0  0  0  0  0  0
   85.8950   46.8662  266.9455 C   0  0  0  0  0  0  0  0  0  0  0  0
   85.4441   48.2831  267.1074 C   0  0  0  0  0  0  0  0  0  0  0  0
   85.7537   49.2426  266.1819 C   0  0  0  0  0  0  0  0  0  0  0  0
   85.3335   50.5222  266.3498 N   0  0  0  0  0  0  0  0  0  0  0  0
   84.6121   50.8445  267.4280 C   0  0  0  0  0  0  0  0  0  0  0  0
   84.3131   49.9035  268.3279 N   0  0  0  0  0  0  0  0  0  0  0  0
   84.7042   48.6270  268.2077 C   0  0  0  0  0  0  0  0  0  0  0  0
  1  2  2  0
  1 10  1  0
  2  3  1  0
  2  7  1  0
  3  4  1  0
  3  5  1  0
  5  6  2  0
  6  7  1  0
  7  8  2  0
  8  9  1  0
  9 10  2  0
 10 11  1  0
 11 12  2  0
 11 13  1  0
 12 20  1  0
 13 14  2  0
 13 18  1  0
 14 15  1  0
 15 16  2  0
 16 17  1  0
 17 18  2  0
 18 19  1  0
 19 20  2  0
 20 21  1  0
 21 22  1  0
 22 23  2  0
 22 27  1  0
 23 24  1  0
 24 25  2  0
 25 26  1  0
 26 27  2  0
 27 28  1  0
 28 29  2  0
 28 30  2  0
 28 31  1  1
 31 32  1  0
 32 33  1  0
 33 34  2  0
 33 38  1  0
 34 35  1  0
 35 36  2  0
 36 37  1  0
 37 38  2  0
M  END
$$$$
