
     RDKit          3D

 38 43  0  0  0  0  0  0  0  0999 V2000
   93.2896   51.8985  267.1588 C   0  0  0  0  0  0  0  0  0  0  0  0
   93.6825   53.0227  267.8606 C   0  0  0  0  0  0  0  0  0  0  0  0
   93.6229   54.3557  267.5926 N   0  0  0  0  0  0  0  0  0  0  0  0
   93.0511   54.8599  266.3413 C   0  0  0  0  0  0  0  0  0  0  0  0
   94.1453   55.0607  268.6103 C   0  0  0  0  0  0  0  0  0  0  0  0
   94.5705   54.1928  269.5937 C   0  0  0  0  0  0  0  0  0  0  0  0
   94.2711   52.9247  269.1032 C   0  0  0  0  0  0  0  0  0  0  0  0
   94.4554   51.6503  269.6259 C   0  0  0  0  0  0  0  0  0  0  0  0
   94.0587   50.5310  268.9157 C   0  0  0  0  0  0  0  0  0  0  0  0
   93.4699   50.6312  267.6723 C   0  0  0  0  0  0  0  0  0  0  0  0
   93.0475   49.4431  266.9195 C   0  0  0  0  0  0  0  0  0  0  0  0
   91.7617   49.3105  266.4454 C   0  0  0  0  0  0  0  0  0  0  0  0
   93.9600   48.4368  266.6832 C   0  0  0  0  0  0  0  0  0  0  0  0
   95.2159   48.5854  267.1558 N   0  0  0  0  0  0  0  0  0  0  0  0
   96.1603   47.6268  266.9537 C   0  0  0  0  0  0  0  0  0  0  0  0
   95.7925   46.4888  266.2455 C   0  0  0  0  0  0  0  0  0  0  0  0
   94.5268   46.3656  265.7831 N   0  0  0  0  0  0  0  0  0  0  0  0
   93.5968   47.3021  265.9781 C   0  0  0  0  0  0  0  0  0  0  0  0
   92.2911   47.2083  265.5176 C   0  0  0  0  0  0  0  0  0  0  0  0
   91.3417   48.1838  265.7270 C   0  0  0  0  0  0  0  0  0  0  0  0
   90.0082   48.1011  265.2300 N   0  0  0  0  0  0  0  0  0  0  0  0
   89.6292   47.2911  264.1508 C   0  0  0  0  0  0  0  0  0  0  0  0
   90.4648   47.1472  263.0719 C   0  0  0  0  0  0  0  0  0  0  0  0
   90.1397   46.3868  261.9512 C   0  0  0  0  0  0  0  0  0  0  0  0
   88.9169   45.7642  261.9581 C   0  0  0  0  0  0  0  0  0  0  0  0
   88.0650   45.9019  263.0424 C   0  0  0  0  0  0  0  0  0  0  0  0
   88.3857   46.6549  264.1569 C   0  0  0  0  0  0  0  0  0  0  0  0
   87.3154   46.8639  265.5158 S   0  0  2  0  0  6  0  0  0  0  0  0
   85.9138   47.1708  265.0605 O   0  0  0  0  0  0  0  0  0  0  0  0
   87.7839   48.0201  266.3748 O   0  0  0  0  0  0  0  0  0  0  0  0
   87.2579   45.4336  266.4481 N   0  0  0  0  0  0  0  0  0  0  0  0
   88.5283   44.7836  266.6267 C   0  0  0  0  0  0  0  0  0  0  0  0
   88.6663   44.5286  268.0940 C   0  0  0  0  0  0  0  0  0  0  0  0
   88.5793   43.2648  268.6118 C   0  0  0  0  0  0  0  0  0  0  0  0
   88.7079   43.0574  269.9469 N   0  0  0  0  0  0  0  0  0  0  0  0
   88.9209   44.0972  270.7595 C   0  0  0  0  0  0  0  0  0  0  0  0
   89.0049   45.3285  270.2481 N   0  0  0  0  0  0  0  0  0  0  0  0
   88.8848   45.5853  268.9380 C   0  0  0  0  0  0  0  0  0  0  0  0
  1  2  2  0
  1 10  1  0
  2  3  1  0
  2  7  1  0
  3  4  1  0
  3  5  1  0
  5  6  2  0
  6  7  1  0
  7  8  2  0
  8  9  1  0
  9 10  2  0
 10 11  1  0
 11 12  2  0
 11 13  1  0
 12 20  1  0
 13 14  2  0
 13 18  1  0
 14 15  1  0
 15 16  2  0
 16 17  1  0
 17 18  2  0
 18 19  1  0
 19 20  2  0
 20 21  1  0
 21 22  1  0
 22 23  2  0
 22 27  1  0
 23 24  1  0
 24 25  2  0
 25 26  1  0
 26 27  2  0
 27 28  1  0
 28 29  2  0
 28 30  2  0
 28 31  1  1
 31 32  1  0
 32 33  1  0
 33 34  2  0
 33 38  1  0
 34 35  1  0
 35 36  2  0
 36 37  1  0
 37 38  2  0
M  END
$$$$
