
     RDKit          3D

 38 43  0  0  0  0  0  0  0  0999 V2000
   91.9264   52.2600  269.8715 C   0  0  0  0  0  0  0  0  0  0  0  0
   92.1092   52.9011  271.0824 C   0  0  0  0  0  0  0  0  0  0  0  0
   91.2630   53.2439  272.0917 N   0  0  0  0  0  0  0  0  0  0  0  0
   89.8316   52.9371  272.0276 C   0  0  0  0  0  0  0  0  0  0  0  0
   91.9358   53.8652  273.0749 C   0  0  0  0  0  0  0  0  0  0  0  0
   93.2685   53.9490  272.7314 C   0  0  0  0  0  0  0  0  0  0  0  0
   93.3532   53.3400  271.4823 C   0  0  0  0  0  0  0  0  0  0  0  0
   94.4199   53.1135  270.6208 C   0  0  0  0  0  0  0  0  0  0  0  0
   94.2267   52.4708  269.4107 C   0  0  0  0  0  0  0  0  0  0  0  0
   92.9810   52.0324  269.0123 C   0  0  0  0  0  0  0  0  0  0  0  0
   92.7765   51.3488  267.7287 C   0  0  0  0  0  0  0  0  0  0  0  0
   91.7247   50.4821  267.5339 C   0  0  0  0  0  0  0  0  0  0  0  0
   93.6596   51.5799  266.6953 C   0  0  0  0  0  0  0  0  0  0  0  0
   94.6844   52.4333  266.9056 N   0  0  0  0  0  0  0  0  0  0  0  0
   95.5877   52.7016  265.9238 C   0  0  0  0  0  0  0  0  0  0  0  0
   95.4232   52.0699  264.6967 C   0  0  0  0  0  0  0  0  0  0  0  0
   94.3871   51.2192  264.5130 N   0  0  0  0  0  0  0  0  0  0  0  0
   93.4985   50.9523  265.4718 C   0  0  0  0  0  0  0  0  0  0  0  0
   92.4251   50.0866  265.3173 C   0  0  0  0  0  0  0  0  0  0  0  0
   91.5156   49.8209  266.3169 C   0  0  0  0  0  0  0  0  0  0  0  0
   90.3967   48.9537  266.1501 N   0  0  0  0  0  0  0  0  0  0  0  0
   90.3217   47.9618  265.1626 C   0  0  0  0  0  0  0  0  0  0  0  0
   91.2774   47.8956  264.1801 C   0  0  0  0  0  0  0  0  0  0  0  0
   91.2481   46.9596  263.1493 C   0  0  0  0  0  0  0  0  0  0  0  0
   90.1991   46.0749  263.1449 C   0  0  0  0  0  0  0  0  0  0  0  0
   89.2284   46.1320  264.1323 C   0  0  0  0  0  0  0  0  0  0  0  0
   89.2558   47.0592  265.1577 C   0  0  0  0  0  0  0  0  0  0  0  0
   88.0285   47.1653  266.3901 S   0  0  2  0  0  6  0  0  0  0  0  0
   86.7140   46.6238  265.8951 O   0  0  0  0  0  0  0  0  0  0  0  0
   87.8112   48.6112  266.7855 O   0  0  0  0  0  0  0  0  0  0  0  0
   88.4853   46.2511  267.7589 N   0  0  0  0  0  0  0  0  0  0  0  0
   89.5049   46.8580  268.5715 C   0  0  0  0  0  0  0  0  0  0  0  0
   90.7458   46.0502  268.3600 C   0  0  0  0  0  0  0  0  0  0  0  0
   91.0999   45.5944  267.1192 C   0  0  0  0  0  0  0  0  0  0  0  0
   92.2309   44.8632  266.9512 N   0  0  0  0  0  0  0  0  0  0  0  0
   93.0025   44.5879  268.0074 C   0  0  0  0  0  0  0  0  0  0  0  0
   92.6516   45.0356  269.2162 N   0  0  0  0  0  0  0  0  0  0  0  0
   91.5455   45.7609  269.4339 C   0  0  0  0  0  0  0  0  0  0  0  0
  1  2  2  0
  1 10  1  0
  2  3  1  0
  2  7  1  0
  3  4  1  0
  3  5  1  0
  5  6  2  0
  6  7  1  0
  7  8  2  0
  8  9  1  0
  9 10  2  0
 10 11  1  0
 11 12  2  0
 11 13  1  0
 12 20  1  0
 13 14  2  0
 13 18  1  0
 14 15  1  0
 15 16  2  0
 16 17  1  0
 17 18  2  0
 18 19  1  0
 19 20  2  0
 20 21  1  0
 21 22  1  0
 22 23  2  0
 22 27  1  0
 23 24  1  0
 24 25  2  0
 25 26  1  0
 26 27  2  0
 27 28  1  0
 28 29  2  0
 28 30  2  0
 28 31  1  1
 31 32  1  0
 32 33  1  0
 33 34  2  0
 33 38  1  0
 34 35  1  0
 35 36  2  0
 36 37  1  0
 37 38  2  0
M  END
$$$$
