
     RDKit          3D

 38 43  0  0  0  0  0  0  0  0999 V2000
   93.0801   51.0412  268.6578 C   0  0  0  0  0  0  0  0  0  0  0  0
   93.4420   52.2690  269.1798 C   0  0  0  0  0  0  0  0  0  0  0  0
   93.0913   52.9400  270.3107 N   0  0  0  0  0  0  0  0  0  0  0  0
   92.1434   52.3734  271.2738 C   0  0  0  0  0  0  0  0  0  0  0  0
   93.7278   54.1219  270.3691 C   0  0  0  0  0  0  0  0  0  0  0  0
   94.5295   54.2621  269.2562 C   0  0  0  0  0  0  0  0  0  0  0  0
   94.3347   53.0920  268.5273 C   0  0  0  0  0  0  0  0  0  0  0  0
   94.8591   52.6407  267.3221 C   0  0  0  0  0  0  0  0  0  0  0  0
   94.4905   51.4101  266.8077 C   0  0  0  0  0  0  0  0  0  0  0  0
   93.5969   50.5879  267.4622 C   0  0  0  0  0  0  0  0  0  0  0  0
   93.2072   49.2812  266.9169 C   0  0  0  0  0  0  0  0  0  0  0  0
   91.8847   48.9298  266.7650 C   0  0  0  0  0  0  0  0  0  0  0  0
   94.1890   48.3853  266.5500 C   0  0  0  0  0  0  0  0  0  0  0  0
   95.4800   48.7485  266.7063 N   0  0  0  0  0  0  0  0  0  0  0  0
   96.4927   47.9075  266.3616 C   0  0  0  0  0  0  0  0  0  0  0  0
   96.1576   46.6621  265.8433 C   0  0  0  0  0  0  0  0  0  0  0  0
   94.8557   46.3238  265.6972 N   0  0  0  0  0  0  0  0  0  0  0  0
   93.8586   47.1442  266.0333 C   0  0  0  0  0  0  0  0  0  0  0  0
   92.5139   46.8298  265.8963 C   0  0  0  0  0  0  0  0  0  0  0  0
   91.4954   47.6875  266.2480 C   0  0  0  0  0  0  0  0  0  0  0  0
   90.1143   47.3765  266.0811 N   0  0  0  0  0  0  0  0  0  0  0  0
   89.5830   46.7922  264.9232 C   0  0  0  0  0  0  0  0  0  0  0  0
   90.1650   47.0298  263.7036 C   0  0  0  0  0  0  0  0  0  0  0  0
   89.6719   46.5108  262.5089 C   0  0  0  0  0  0  0  0  0  0  0  0
   88.5480   45.7278  262.5903 C   0  0  0  0  0  0  0  0  0  0  0  0
   87.9519   45.4806  263.8167 C   0  0  0  0  0  0  0  0  0  0  0  0
   88.4401   45.9932  265.0045 C   0  0  0  0  0  0  0  0  0  0  0  0
   87.6869   45.7179  266.5514 S   0  0  2  0  0  6  0  0  0  0  0  0
   88.7015   45.3018  267.5827 O   0  0  0  0  0  0  0  0  0  0  0  0
   86.6612   44.6089  266.4412 O   0  0  0  0  0  0  0  0  0  0  0  0
   86.9377   47.1491  267.1067 N   0  0  0  0  0  0  0  0  0  0  0  0
   85.6805   47.4502  266.4768 C   0  0  0  0  0  0  0  0  0  0  0  0
   85.2052   48.7332  267.0811 C   0  0  0  0  0  0  0  0  0  0  0  0
   83.9683   49.2440  266.7945 C   0  0  0  0  0  0  0  0  0  0  0  0
   83.5582   50.4101  267.3550 N   0  0  0  0  0  0  0  0  0  0  0  0
   84.3706   51.0620  268.1927 C   0  0  0  0  0  0  0  0  0  0  0  0
   85.5769   50.5584  268.4686 N   0  0  0  0  0  0  0  0  0  0  0  0
   86.0277   49.4115  267.9413 C   0  0  0  0  0  0  0  0  0  0  0  0
  1  2  2  0
  1 10  1  0
  2  3  1  0
  2  7  1  0
  3  4  1  0
  3  5  1  0
  5  6  2  0
  6  7  1  0
  7  8  2  0
  8  9  1  0
  9 10  2  0
 10 11  1  0
 11 12  2  0
 11 13  1  0
 12 20  1  0
 13 14  2  0
 13 18  1  0
 14 15  1  0
 15 16  2  0
 16 17  1  0
 17 18  2  0
 18 19  1  0
 19 20  2  0
 20 21  1  0
 21 22  1  0
 22 23  2  0
 22 27  1  0
 23 24  1  0
 24 25  2  0
 25 26  1  0
 26 27  2  0
 27 28  1  0
 28 29  2  0
 28 30  2  0
 28 31  1  1
 31 32  1  0
 32 33  1  0
 33 34  2  0
 33 38  1  0
 34 35  1  0
 35 36  2  0
 36 37  1  0
 37 38  2  0
M  END
$$$$
