
     RDKit          3D

 38 43  0  0  0  0  0  0  0  0999 V2000
   92.9502   52.0294  267.3561 C   0  0  0  0  0  0  0  0  0  0  0  0
   93.3062   53.1806  268.0334 C   0  0  0  0  0  0  0  0  0  0  0  0
   92.9050   54.4777  267.9401 N   0  0  0  0  0  0  0  0  0  0  0  0
   91.8925   54.8975  266.9677 C   0  0  0  0  0  0  0  0  0  0  0  0
   93.5607   55.2351  268.8356 C   0  0  0  0  0  0  0  0  0  0  0  0
   94.4274   54.4405  269.5555 C   0  0  0  0  0  0  0  0  0  0  0  0
   94.2511   53.1606  269.0368 C   0  0  0  0  0  0  0  0  0  0  0  0
   94.8343   51.9368  269.3433 C   0  0  0  0  0  0  0  0  0  0  0  0
   94.4711   50.7900  268.6595 C   0  0  0  0  0  0  0  0  0  0  0  0
   93.5253   50.8122  267.6556 C   0  0  0  0  0  0  0  0  0  0  0  0
   93.1389   49.5946  266.9311 C   0  0  0  0  0  0  0  0  0  0  0  0
   91.8591   49.4145  266.4566 C   0  0  0  0  0  0  0  0  0  0  0  0
   94.0799   48.6086  266.7226 C   0  0  0  0  0  0  0  0  0  0  0  0
   95.3295   48.8038  267.1951 N   0  0  0  0  0  0  0  0  0  0  0  0
   96.3009   47.8672  267.0197 C   0  0  0  0  0  0  0  0  0  0  0  0
   95.9675   46.7023  266.3387 C   0  0  0  0  0  0  0  0  0  0  0  0
   94.7075   46.5324  265.8757 N   0  0  0  0  0  0  0  0  0  0  0  0
   93.7510   47.4471  266.0446 C   0  0  0  0  0  0  0  0  0  0  0  0
   92.4502   47.3057  265.5827 C   0  0  0  0  0  0  0  0  0  0  0  0
   91.4732   48.2592  265.7650 C   0  0  0  0  0  0  0  0  0  0  0  0
   90.1444   48.1271  265.2662 N   0  0  0  0  0  0  0  0  0  0  0  0
   89.7857   47.2536  264.2303 C   0  0  0  0  0  0  0  0  0  0  0  0
   90.5913   47.1277  263.1267 C   0  0  0  0  0  0  0  0  0  0  0  0
   90.2814   46.3059  262.0458 C   0  0  0  0  0  0  0  0  0  0  0  0
   89.1061   45.6015  262.1196 C   0  0  0  0  0  0  0  0  0  0  0  0
   88.2849   45.7204  263.2295 C   0  0  0  0  0  0  0  0  0  0  0  0
   88.5907   46.5342  264.3047 C   0  0  0  0  0  0  0  0  0  0  0  0
   87.5562   46.7193  265.6945 S   0  0  2  0  0  6  0  0  0  0  0  0
   86.2910   45.9185  265.5398 O   0  0  0  0  0  0  0  0  0  0  0  0
   87.1637   48.1726  265.8617 O   0  0  0  0  0  0  0  0  0  0  0  0
   88.3525   46.1672  267.1014 N   0  0  0  0  0  0  0  0  0  0  0  0
   88.7413   44.7831  267.0655 C   0  0  0  0  0  0  0  0  0  0  0  0
   89.7925   44.6154  268.1161 C   0  0  0  0  0  0  0  0  0  0  0  0
   90.4149   43.4137  268.3199 C   0  0  0  0  0  0  0  0  0  0  0  0
   91.3663   43.2849  269.2793 N   0  0  0  0  0  0  0  0  0  0  0  0
   91.6955   44.3415  270.0290 C   0  0  0  0  0  0  0  0  0  0  0  0
   91.0845   45.5119  269.8253 N   0  0  0  0  0  0  0  0  0  0  0  0
   90.1395   45.6900  268.8915 C   0  0  0  0  0  0  0  0  0  0  0  0
  1  2  2  0
  1 10  1  0
  2  3  1  0
  2  7  1  0
  3  4  1  0
  3  5  1  0
  5  6  2  0
  6  7  1  0
  7  8  2  0
  8  9  1  0
  9 10  2  0
 10 11  1  0
 11 12  2  0
 11 13  1  0
 12 20  1  0
 13 14  2  0
 13 18  1  0
 14 15  1  0
 15 16  2  0
 16 17  1  0
 17 18  2  0
 18 19  1  0
 19 20  2  0
 20 21  1  0
 21 22  1  0
 22 23  2  0
 22 27  1  0
 23 24  1  0
 24 25  2  0
 25 26  1  0
 26 27  2  0
 27 28  1  0
 28 29  2  0
 28 30  2  0
 28 31  1  1
 31 32  1  0
 32 33  1  0
 33 34  2  0
 33 38  1  0
 34 35  1  0
 35 36  2  0
 36 37  1  0
 37 38  2  0
M  END
$$$$
