
     RDKit          3D

 38 43  0  0  0  0  0  0  0  0999 V2000
   93.0827   51.4896  269.0677 C   0  0  0  0  0  0  0  0  0  0  0  0
   93.2529   52.6625  269.7791 C   0  0  0  0  0  0  0  0  0  0  0  0
   92.7055   53.1417  270.9294 N   0  0  0  0  0  0  0  0  0  0  0  0
   91.7153   52.3701  271.6851 C   0  0  0  0  0  0  0  0  0  0  0  0
   93.2057   54.3558  271.2144 C   0  0  0  0  0  0  0  0  0  0  0  0
   94.1129   54.7141  270.2400 C   0  0  0  0  0  0  0  0  0  0  0  0
   94.1260   53.6406  269.3536 C   0  0  0  0  0  0  0  0  0  0  0  0
   94.8309   53.4033  268.1796 C   0  0  0  0  0  0  0  0  0  0  0  0
   94.6535   52.2260  267.4745 C   0  0  0  0  0  0  0  0  0  0  0  0
   93.7793   51.2484  267.9021 C   0  0  0  0  0  0  0  0  0  0  0  0
   93.5925   49.9983  267.1544 C   0  0  0  0  0  0  0  0  0  0  0  0
   92.3481   49.5955  266.7244 C   0  0  0  0  0  0  0  0  0  0  0  0
   94.6890   49.2094  266.8780 C   0  0  0  0  0  0  0  0  0  0  0  0
   95.9007   49.6215  267.3077 N   0  0  0  0  0  0  0  0  0  0  0  0
   97.0195   48.8860  267.0647 C   0  0  0  0  0  0  0  0  0  0  0  0
   96.8769   47.6964  266.3601 C   0  0  0  0  0  0  0  0  0  0  0  0
   95.6507   47.3070  265.9411 N   0  0  0  0  0  0  0  0  0  0  0  0
   94.5503   48.0240  266.1764 C   0  0  0  0  0  0  0  0  0  0  0  0
   93.2788   47.6549  265.7610 C   0  0  0  0  0  0  0  0  0  0  0  0
   92.1518   48.4058  266.0116 C   0  0  0  0  0  0  0  0  0  0  0  0
   90.8494   48.0416  265.5607 N   0  0  0  0  0  0  0  0  0  0  0  0
   90.5853   46.9075  264.7806 C   0  0  0  0  0  0  0  0  0  0  0  0
   91.5472   45.9417  264.6230 C   0  0  0  0  0  0  0  0  0  0  0  0
   91.3670   44.8068  263.8360 C   0  0  0  0  0  0  0  0  0  0  0  0
   90.1574   44.6785  263.2010 C   0  0  0  0  0  0  0  0  0  0  0  0
   89.1783   45.6474  263.3533 C   0  0  0  0  0  0  0  0  0  0  0  0
   89.3538   46.7743  264.1350 C   0  0  0  0  0  0  0  0  0  0  0  0
   88.1459   48.0172  264.3141 S   0  0  2  0  0  6  0  0  0  0  0  0
   86.9763   47.7733  263.3984 O   0  0  0  0  0  0  0  0  0  0  0  0
   88.7327   49.3684  263.9612 O   0  0  0  0  0  0  0  0  0  0  0  0
   87.5556   48.0409  265.9169 N   0  0  0  0  0  0  0  0  0  0  0  0
   87.5777   46.7662  266.5822 C   0  0  0  0  0  0  0  0  0  0  0  0
   86.3072   46.6805  267.3666 C   0  0  0  0  0  0  0  0  0  0  0  0
   85.2250   45.9835  266.9018 C   0  0  0  0  0  0  0  0  0  0  0  0
   84.0822   45.9193  267.6312 N   0  0  0  0  0  0  0  0  0  0  0  0
   84.0163   46.5425  268.8120 C   0  0  0  0  0  0  0  0  0  0  0  0
   85.0760   47.2213  269.2604 N   0  0  0  0  0  0  0  0  0  0  0  0
   86.2261   47.3145  268.5783 C   0  0  0  0  0  0  0  0  0  0  0  0
  1  2  2  0
  1 10  1  0
  2  3  1  0
  2  7  1  0
  3  4  1  0
  3  5  1  0
  5  6  2  0
  6  7  1  0
  7  8  2  0
  8  9  1  0
  9 10  2  0
 10 11  1  0
 11 12  2  0
 11 13  1  0
 12 20  1  0
 13 14  2  0
 13 18  1  0
 14 15  1  0
 15 16  2  0
 16 17  1  0
 17 18  2  0
 18 19  1  0
 19 20  2  0
 20 21  1  0
 21 22  1  0
 22 23  2  0
 22 27  1  0
 23 24  1  0
 24 25  2  0
 25 26  1  0
 26 27  2  0
 27 28  1  0
 28 29  2  0
 28 30  2  0
 28 31  1  1
 31 32  1  0
 32 33  1  0
 33 34  2  0
 33 38  1  0
 34 35  1  0
 35 36  2  0
 36 37  1  0
 37 38  2  0
M  END
$$$$
