
     RDKit          3D

 38 43  0  0  0  0  0  0  0  0999 V2000
   92.5943   51.6293  268.2254 C   0  0  0  0  0  0  0  0  0  0  0  0
   92.9503   52.8206  268.8293 C   0  0  0  0  0  0  0  0  0  0  0  0
   92.3928   53.5634  269.8242 N   0  0  0  0  0  0  0  0  0  0  0  0
   91.1577   53.1441  270.4920 C   0  0  0  0  0  0  0  0  0  0  0  0
   93.1305   54.6621  270.0565 C   0  0  0  0  0  0  0  0  0  0  0  0
   94.2139   54.6711  269.2037 C   0  0  0  0  0  0  0  0  0  0  0  0
   94.0804   53.5107  268.4462 C   0  0  0  0  0  0  0  0  0  0  0  0
   94.8508   52.9629  267.4275 C   0  0  0  0  0  0  0  0  0  0  0  0
   94.4861   51.7698  266.8291 C   0  0  0  0  0  0  0  0  0  0  0  0
   93.3547   51.0808  267.2140 C   0  0  0  0  0  0  0  0  0  0  0  0
   92.9687   49.8137  266.5798 C   0  0  0  0  0  0  0  0  0  0  0  0
   91.6961   49.6091  266.0957 C   0  0  0  0  0  0  0  0  0  0  0  0
   93.9025   48.8054  266.4680 C   0  0  0  0  0  0  0  0  0  0  0  0
   95.1449   49.0252  266.9483 N   0  0  0  0  0  0  0  0  0  0  0  0
   96.1091   48.0685  266.8661 C   0  0  0  0  0  0  0  0  0  0  0  0
   95.7758   46.8568  266.2723 C   0  0  0  0  0  0  0  0  0  0  0  0
   94.5229   46.6631  265.7992 N   0  0  0  0  0  0  0  0  0  0  0  0
   93.5736   47.5974  265.8769 C   0  0  0  0  0  0  0  0  0  0  0  0
   92.2803   47.4324  265.4019 C   0  0  0  0  0  0  0  0  0  0  0  0
   91.3106   48.4066  265.4894 C   0  0  0  0  0  0  0  0  0  0  0  0
   89.9901   48.2483  264.9764 N   0  0  0  0  0  0  0  0  0  0  0  0
   89.6323   47.2706  264.0380 C   0  0  0  0  0  0  0  0  0  0  0  0
   90.4908   46.9506  263.0165 C   0  0  0  0  0  0  0  0  0  0  0  0
   90.1878   46.0150  262.0303 C   0  0  0  0  0  0  0  0  0  0  0  0
   88.9632   45.4015  262.1131 C   0  0  0  0  0  0  0  0  0  0  0  0
   88.0883   45.7164  263.1406 C   0  0  0  0  0  0  0  0  0  0  0  0
   88.3869   46.6436  264.1219 C   0  0  0  0  0  0  0  0  0  0  0  0
   87.2878   47.0741  265.4036 S   0  0  2  0  0  6  0  0  0  0  0  0
   85.9005   46.5610  265.1241 O   0  0  0  0  0  0  0  0  0  0  0  0
   87.2038   48.5808  265.5335 O   0  0  0  0  0  0  0  0  0  0  0  0
   87.8069   46.3917  266.8811 N   0  0  0  0  0  0  0  0  0  0  0  0
   87.6351   44.9671  266.9760 C   0  0  0  0  0  0  0  0  0  0  0  0
   88.5453   44.5068  268.0699 C   0  0  0  0  0  0  0  0  0  0  0  0
   88.5850   43.1967  268.4638 C   0  0  0  0  0  0  0  0  0  0  0  0
   89.4193   42.8019  269.4589 N   0  0  0  0  0  0  0  0  0  0  0  0
   90.2068   43.7015  270.0566 C   0  0  0  0  0  0  0  0  0  0  0  0
   90.1636   44.9789  269.6677 N   0  0  0  0  0  0  0  0  0  0  0  0
   89.3577   45.4183  268.6910 C   0  0  0  0  0  0  0  0  0  0  0  0
  1  2  2  0
  1 10  1  0
  2  3  1  0
  2  7  1  0
  3  4  1  0
  3  5  1  0
  5  6  2  0
  6  7  1  0
  7  8  2  0
  8  9  1  0
  9 10  2  0
 10 11  1  0
 11 12  2  0
 11 13  1  0
 12 20  1  0
 13 14  2  0
 13 18  1  0
 14 15  1  0
 15 16  2  0
 16 17  1  0
 17 18  2  0
 18 19  1  0
 19 20  2  0
 20 21  1  0
 21 22  1  0
 22 23  2  0
 22 27  1  0
 23 24  1  0
 24 25  2  0
 25 26  1  0
 26 27  2  0
 27 28  1  0
 28 29  2  0
 28 30  2  0
 28 31  1  1
 31 32  1  0
 32 33  1  0
 33 34  2  0
 33 38  1  0
 34 35  1  0
 35 36  2  0
 36 37  1  0
 37 38  2  0
M  END
$$$$
