
     RDKit          3D

 38 43  0  0  0  0  0  0  0  0999 V2000
   93.6134   51.2108  268.2953 C   0  0  0  0  0  0  0  0  0  0  0  0
   93.7769   52.5177  268.7150 C   0  0  0  0  0  0  0  0  0  0  0  0
   94.5000   53.0910  269.7153 N   0  0  0  0  0  0  0  0  0  0  0  0
   95.3269   52.2872  270.6194 C   0  0  0  0  0  0  0  0  0  0  0  0
   94.3246   54.4232  269.7144 C   0  0  0  0  0  0  0  0  0  0  0  0
   93.4646   54.7679  268.6933 C   0  0  0  0  0  0  0  0  0  0  0  0
   93.1353   53.5609  268.0824 C   0  0  0  0  0  0  0  0  0  0  0  0
   92.3157   53.2494  267.0042 C   0  0  0  0  0  0  0  0  0  0  0  0
   92.1585   51.9380  266.5917 C   0  0  0  0  0  0  0  0  0  0  0  0
   92.8014   50.8955  267.2261 C   0  0  0  0  0  0  0  0  0  0  0  0
   92.6357   49.5039  266.7871 C   0  0  0  0  0  0  0  0  0  0  0  0
   91.3946   48.9836  266.4960 C   0  0  0  0  0  0  0  0  0  0  0  0
   93.7490   48.6997  266.6651 C   0  0  0  0  0  0  0  0  0  0  0  0
   94.9572   49.2281  266.9548 N   0  0  0  0  0  0  0  0  0  0  0  0
   96.0919   48.4841  266.8525 C   0  0  0  0  0  0  0  0  0  0  0  0
   95.9695   47.1623  266.4405 C   0  0  0  0  0  0  0  0  0  0  0  0
   94.7463   46.6581  266.1565 N   0  0  0  0  0  0  0  0  0  0  0  0
   93.6304   47.3827  266.2549 C   0  0  0  0  0  0  0  0  0  0  0  0
   92.3615   46.8980  265.9711 C   0  0  0  0  0  0  0  0  0  0  0  0
   91.2183   47.6585  266.0775 C   0  0  0  0  0  0  0  0  0  0  0  0
   89.9177   47.1697  265.7589 N   0  0  0  0  0  0  0  0  0  0  0  0
   89.6143   46.4780  264.5782 C   0  0  0  0  0  0  0  0  0  0  0  0
   90.4983   46.4878  263.5288 C   0  0  0  0  0  0  0  0  0  0  0  0
   90.2486   45.8519  262.3151 C   0  0  0  0  0  0  0  0  0  0  0  0
   89.0510   45.1926  262.1956 C   0  0  0  0  0  0  0  0  0  0  0  0
   88.1507   45.1757  263.2490 C   0  0  0  0  0  0  0  0  0  0  0  0
   88.3967   45.8047  264.4555 C   0  0  0  0  0  0  0  0  0  0  0  0
   87.2643   45.8195  265.7798 S   0  0  2  0  0  6  0  0  0  0  0  0
   85.8500   45.6703  265.2862 O   0  0  0  0  0  0  0  0  0  0  0  0
   87.3546   47.1337  266.5275 O   0  0  0  0  0  0  0  0  0  0  0  0
   87.5833   44.5222  266.8444 N   0  0  0  0  0  0  0  0  0  0  0  0
   88.9746   44.1830  266.9752 C   0  0  0  0  0  0  0  0  0  0  0  0
   89.1223   43.5256  268.3105 C   0  0  0  0  0  0  0  0  0  0  0  0
   88.0425   43.3023  269.1213 C   0  0  0  0  0  0  0  0  0  0  0  0
   88.2006   42.7038  270.3291 N   0  0  0  0  0  0  0  0  0  0  0  0
   89.4211   42.3308  270.7269 C   0  0  0  0  0  0  0  0  0  0  0  0
   90.4712   42.5514  269.9310 N   0  0  0  0  0  0  0  0  0  0  0  0
   90.3673   43.1384  268.7304 C   0  0  0  0  0  0  0  0  0  0  0  0
  1  2  2  0
  1 10  1  0
  2  3  1  0
  2  7  1  0
  3  4  1  0
  3  5  1  0
  5  6  2  0
  6  7  1  0
  7  8  2  0
  8  9  1  0
  9 10  2  0
 10 11  1  0
 11 12  2  0
 11 13  1  0
 12 20  1  0
 13 14  2  0
 13 18  1  0
 14 15  1  0
 15 16  2  0
 16 17  1  0
 17 18  2  0
 18 19  1  0
 19 20  2  0
 20 21  1  0
 21 22  1  0
 22 23  2  0
 22 27  1  0
 23 24  1  0
 24 25  2  0
 25 26  1  0
 26 27  2  0
 27 28  1  0
 28 29  2  0
 28 30  2  0
 28 31  1  1
 31 32  1  0
 32 33  1  0
 33 34  2  0
 33 38  1  0
 34 35  1  0
 35 36  2  0
 36 37  1  0
 37 38  2  0
M  END
$$$$
