
     RDKit          3D

 38 43  0  0  0  0  0  0  0  0999 V2000
   92.8034   52.0415  267.4561 C   0  0  0  0  0  0  0  0  0  0  0  0
   93.1411   53.1879  268.1507 C   0  0  0  0  0  0  0  0  0  0  0  0
   92.6692   54.4643  268.1266 N   0  0  0  0  0  0  0  0  0  0  0  0
   91.5790   54.8604  267.2313 C   0  0  0  0  0  0  0  0  0  0  0  0
   93.3390   55.2267  269.0074 C   0  0  0  0  0  0  0  0  0  0  0  0
   94.2875   54.4567  269.6464 C   0  0  0  0  0  0  0  0  0  0  0  0
   94.1453   53.1863  269.0949 C   0  0  0  0  0  0  0  0  0  0  0  0
   94.8078   51.9861  269.3233 C   0  0  0  0  0  0  0  0  0  0  0  0
   94.4625   50.8439  268.6228 C   0  0  0  0  0  0  0  0  0  0  0  0
   93.4572   50.8477  267.6783 C   0  0  0  0  0  0  0  0  0  0  0  0
   93.0898   49.6348  266.9361 C   0  0  0  0  0  0  0  0  0  0  0  0
   91.7988   49.4135  266.5121 C   0  0  0  0  0  0  0  0  0  0  0  0
   94.0606   48.6957  266.6589 C   0  0  0  0  0  0  0  0  0  0  0  0
   95.3207   48.9310  267.0828 N   0  0  0  0  0  0  0  0  0  0  0  0
   96.3213   48.0417  266.8388 C   0  0  0  0  0  0  0  0  0  0  0  0
   96.0066   46.8826  266.1393 C   0  0  0  0  0  0  0  0  0  0  0  0
   94.7355   46.6719  265.7261 N   0  0  0  0  0  0  0  0  0  0  0  0
   93.7504   47.5402  265.9624 C   0  0  0  0  0  0  0  0  0  0  0  0
   92.4374   47.3561  265.5529 C   0  0  0  0  0  0  0  0  0  0  0  0
   91.4309   48.2619  265.8044 C   0  0  0  0  0  0  0  0  0  0  0  0
   90.0879   48.0870  265.3596 N   0  0  0  0  0  0  0  0  0  0  0  0
   89.7096   47.1685  264.3708 C   0  0  0  0  0  0  0  0  0  0  0  0
   90.5260   46.9450  263.2908 C   0  0  0  0  0  0  0  0  0  0  0  0
   90.1992   46.0733  262.2548 C   0  0  0  0  0  0  0  0  0  0  0  0
   88.9950   45.4221  262.3493 C   0  0  0  0  0  0  0  0  0  0  0  0
   88.1626   45.6397  263.4357 C   0  0  0  0  0  0  0  0  0  0  0  0
   88.4851   46.5032  264.4663 C   0  0  0  0  0  0  0  0  0  0  0  0
   87.4380   46.8119  265.8244 S   0  0  2  0  0  6  0  0  0  0  0  0
   86.0217   47.0517  265.3743 O   0  0  0  0  0  0  0  0  0  0  0  0
   87.9003   48.0479  266.5679 O   0  0  0  0  0  0  0  0  0  0  0  0
   87.4281   45.4688  266.8800 N   0  0  0  0  0  0  0  0  0  0  0  0
   86.8681   44.2694  266.3179 C   0  0  0  0  0  0  0  0  0  0  0  0
   85.8011   43.8209  267.2651 C   0  0  0  0  0  0  0  0  0  0  0  0
   84.4751   44.0351  267.0026 C   0  0  0  0  0  0  0  0  0  0  0  0
   83.5241   43.6190  267.8769 N   0  0  0  0  0  0  0  0  0  0  0  0
   83.8883   42.9956  269.0018 C   0  0  0  0  0  0  0  0  0  0  0  0
   85.1842   42.7893  269.2525 N   0  0  0  0  0  0  0  0  0  0  0  0
   86.1605   43.1807  268.4217 C   0  0  0  0  0  0  0  0  0  0  0  0
  1  2  2  0
  1 10  1  0
  2  3  1  0
  2  7  1  0
  3  4  1  0
  3  5  1  0
  5  6  2  0
  6  7  1  0
  7  8  2  0
  8  9  1  0
  9 10  2  0
 10 11  1  0
 11 12  2  0
 11 13  1  0
 12 20  1  0
 13 14  2  0
 13 18  1  0
 14 15  1  0
 15 16  2  0
 16 17  1  0
 17 18  2  0
 18 19  1  0
 19 20  2  0
 20 21  1  0
 21 22  1  0
 22 23  2  0
 22 27  1  0
 23 24  1  0
 24 25  2  0
 25 26  1  0
 26 27  2  0
 27 28  1  0
 28 29  2  0
 28 30  2  0
 28 31  1  1
 31 32  1  0
 32 33  1  0
 33 34  2  0
 33 38  1  0
 34 35  1  0
 35 36  2  0
 36 37  1  0
 37 38  2  0
M  END
$$$$
