
     RDKit          3D

 38 43  0  0  0  0  0  0  0  0999 V2000
   94.0278   52.4204  267.5356 C   0  0  0  0  0  0  0  0  0  0  0  0
   94.1863   53.6192  268.2052 C   0  0  0  0  0  0  0  0  0  0  0  0
   94.7504   54.8096  267.8628 N   0  0  0  0  0  0  0  0  0  0  0  0
   95.3569   55.0182  266.5453 C   0  0  0  0  0  0  0  0  0  0  0  0
   94.6523   55.6827  268.8795 C   0  0  0  0  0  0  0  0  0  0  0  0
   94.0085   55.0777  269.9380 C   0  0  0  0  0  0  0  0  0  0  0  0
   93.7268   53.7887  269.4937 C   0  0  0  0  0  0  0  0  0  0  0  0
   93.0964   52.7067  270.0964 C   0  0  0  0  0  0  0  0  0  0  0  0
   92.9425   51.5106  269.4178 C   0  0  0  0  0  0  0  0  0  0  0  0
   93.4032   51.3431  268.1284 C   0  0  0  0  0  0  0  0  0  0  0  0
   93.2383   50.0741  267.4079 C   0  0  0  0  0  0  0  0  0  0  0  0
   91.9943   49.5253  267.1915 C   0  0  0  0  0  0  0  0  0  0  0  0
   94.3558   49.4168  266.9385 C   0  0  0  0  0  0  0  0  0  0  0  0
   95.5668   49.9711  267.1603 N   0  0  0  0  0  0  0  0  0  0  0  0
   96.7055   49.3697  266.7208 C   0  0  0  0  0  0  0  0  0  0  0  0
   96.5843   48.1663  266.0359 C   0  0  0  0  0  0  0  0  0  0  0  0
   95.3583   47.6330  265.8274 N   0  0  0  0  0  0  0  0  0  0  0  0
   94.2384   48.2181  266.2559 C   0  0  0  0  0  0  0  0  0  0  0  0
   92.9664   47.6997  266.0590 C   0  0  0  0  0  0  0  0  0  0  0  0
   91.8190   48.3154  266.5076 C   0  0  0  0  0  0  0  0  0  0  0  0
   90.5103   47.7980  266.2810 N   0  0  0  0  0  0  0  0  0  0  0  0
   90.2386   46.4419  266.0539 C   0  0  0  0  0  0  0  0  0  0  0  0
   91.0328   45.4769  266.6205 C   0  0  0  0  0  0  0  0  0  0  0  0
   90.8430   44.1131  266.4113 C   0  0  0  0  0  0  0  0  0  0  0  0
   89.8025   43.7503  265.5935 C   0  0  0  0  0  0  0  0  0  0  0  0
   88.9936   44.7161  265.0162 C   0  0  0  0  0  0  0  0  0  0  0  0
   89.1786   46.0706  265.2234 C   0  0  0  0  0  0  0  0  0  0  0  0
   88.1908   47.2998  264.4822 S   0  0  2  0  0  6  0  0  0  0  0  0
   87.6718   46.8453  263.1442 O   0  0  0  0  0  0  0  0  0  0  0  0
   89.0052   48.5569  264.2572 O   0  0  0  0  0  0  0  0  0  0  0  0
   86.8428   47.6503  265.4713 N   0  0  0  0  0  0  0  0  0  0  0  0
   87.0469   47.3999  266.8726 C   0  0  0  0  0  0  0  0  0  0  0  0
   85.7698   46.8130  267.3842 C   0  0  0  0  0  0  0  0  0  0  0  0
   85.6143   46.4765  268.7016 C   0  0  0  0  0  0  0  0  0  0  0  0
   84.4460   45.9453  269.1432 N   0  0  0  0  0  0  0  0  0  0  0  0
   83.4418   45.7506  268.2827 C   0  0  0  0  0  0  0  0  0  0  0  0
   83.5996   46.0812  266.9980 N   0  0  0  0  0  0  0  0  0  0  0  0
   84.7326   46.6082  266.5131 C   0  0  0  0  0  0  0  0  0  0  0  0
  1  2  2  0
  1 10  1  0
  2  3  1  0
  2  7  1  0
  3  4  1  0
  3  5  1  0
  5  6  2  0
  6  7  1  0
  7  8  2  0
  8  9  1  0
  9 10  2  0
 10 11  1  0
 11 12  2  0
 11 13  1  0
 12 20  1  0
 13 14  2  0
 13 18  1  0
 14 15  1  0
 15 16  2  0
 16 17  1  0
 17 18  2  0
 18 19  1  0
 19 20  2  0
 20 21  1  0
 21 22  1  0
 22 23  2  0
 22 27  1  0
 23 24  1  0
 24 25  2  0
 25 26  1  0
 26 27  2  0
 27 28  1  0
 28 29  2  0
 28 30  2  0
 28 31  1  1
 31 32  1  0
 32 33  1  0
 33 34  2  0
 33 38  1  0
 34 35  1  0
 35 36  2  0
 36 37  1  0
 37 38  2  0
M  END
$$$$
