
     RDKit          3D

 38 43  0  0  0  0  0  0  0  0999 V2000
   93.2898   51.5010  268.6971 C   0  0  0  0  0  0  0  0  0  0  0  0
   93.6036   52.7326  269.2405 C   0  0  0  0  0  0  0  0  0  0  0  0
   93.1200   53.4321  270.3031 N   0  0  0  0  0  0  0  0  0  0  0  0
   92.0426   52.9011  271.1424 C   0  0  0  0  0  0  0  0  0  0  0  0
   93.7661   54.6040  270.4243 C   0  0  0  0  0  0  0  0  0  0  0  0
   94.7102   54.7082  269.4248 C   0  0  0  0  0  0  0  0  0  0  0  0
   94.5904   53.5272  268.6974 C   0  0  0  0  0  0  0  0  0  0  0  0
   95.2601   53.0429  267.5800 C   0  0  0  0  0  0  0  0  0  0  0  0
   94.9387   51.8087  267.0434 C   0  0  0  0  0  0  0  0  0  0  0  0
   93.9508   51.0151  267.5884 C   0  0  0  0  0  0  0  0  0  0  0  0
   93.6110   49.7045  267.0196 C   0  0  0  0  0  0  0  0  0  0  0  0
   92.3095   49.3603  266.7310 C   0  0  0  0  0  0  0  0  0  0  0  0
   94.6191   48.7975  266.7700 C   0  0  0  0  0  0  0  0  0  0  0  0
   95.8889   49.1537  267.0593 N   0  0  0  0  0  0  0  0  0  0  0  0
   96.9258   48.3016  266.8346 C   0  0  0  0  0  0  0  0  0  0  0  0
   96.6379   47.0523  266.2976 C   0  0  0  0  0  0  0  0  0  0  0  0
   95.3563   46.7212  266.0170 N   0  0  0  0  0  0  0  0  0  0  0  0
   94.3357   47.5524  266.2352 C   0  0  0  0  0  0  0  0  0  0  0  0
   93.0109   47.2456  265.9588 C   0  0  0  0  0  0  0  0  0  0  0  0
   91.9676   48.1145  266.1897 C   0  0  0  0  0  0  0  0  0  0  0  0
   90.6098   47.8109  265.8796 N   0  0  0  0  0  0  0  0  0  0  0  0
   89.5571   48.7260  266.0175 C   0  0  0  0  0  0  0  0  0  0  0  0
   89.7645   50.0573  265.7579 C   0  0  0  0  0  0  0  0  0  0  0  0
   88.7755   51.0266  265.9063 C   0  0  0  0  0  0  0  0  0  0  0  0
   87.5450   50.5961  266.3345 C   0  0  0  0  0  0  0  0  0  0  0  0
   87.3238   49.2539  266.5993 C   0  0  0  0  0  0  0  0  0  0  0  0
   88.3033   48.2892  266.4514 C   0  0  0  0  0  0  0  0  0  0  0  0
   88.0522   46.6023  266.8082 S   0  0  2  0  0  6  0  0  0  0  0  0
   86.7279   46.3830  267.4897 O   0  0  0  0  0  0  0  0  0  0  0  0
   89.1372   46.0996  267.7380 O   0  0  0  0  0  0  0  0  0  0  0  0
   88.0530   45.6869  265.3660 N   0  0  0  0  0  0  0  0  0  0  0  0
   87.3785   46.3112  264.2599 C   0  0  0  0  0  0  0  0  0  0  0  0
   87.2218   45.2541  263.2135 C   0  0  0  0  0  0  0  0  0  0  0  0
   87.7055   43.9873  263.3983 C   0  0  0  0  0  0  0  0  0  0  0  0
   87.5514   43.0441  262.4345 N   0  0  0  0  0  0  0  0  0  0  0  0
   86.9221   43.3579  261.2978 C   0  0  0  0  0  0  0  0  0  0  0  0
   86.4521   44.5962  261.1232 N   0  0  0  0  0  0  0  0  0  0  0  0
   86.5789   45.5622  262.0438 C   0  0  0  0  0  0  0  0  0  0  0  0
  1  2  2  0
  1 10  1  0
  2  3  1  0
  2  7  1  0
  3  4  1  0
  3  5  1  0
  5  6  2  0
  6  7  1  0
  7  8  2  0
  8  9  1  0
  9 10  2  0
 10 11  1  0
 11 12  2  0
 11 13  1  0
 12 20  1  0
 13 14  2  0
 13 18  1  0
 14 15  1  0
 15 16  2  0
 16 17  1  0
 17 18  2  0
 18 19  1  0
 19 20  2  0
 20 21  1  0
 21 22  1  0
 22 23  2  0
 22 27  1  0
 23 24  1  0
 24 25  2  0
 25 26  1  0
 26 27  2  0
 27 28  1  0
 28 29  2  0
 28 30  2  0
 28 31  1  6
 31 32  1  0
 32 33  1  0
 33 34  2  0
 33 38  1  0
 34 35  1  0
 35 36  2  0
 36 37  1  0
 37 38  2  0
M  END
$$$$
