
     RDKit          3D

 38 43  0  0  0  0  0  0  0  0999 V2000
   92.6892   51.2629  268.1055 C   0  0  0  0  0  0  0  0  0  0  0  0
   93.0032   52.4587  268.7237 C   0  0  0  0  0  0  0  0  0  0  0  0
   92.3089   53.2927  269.5451 N   0  0  0  0  0  0  0  0  0  0  0  0
   90.9314   52.9978  269.9483 C   0  0  0  0  0  0  0  0  0  0  0  0
   93.0659   54.3492  269.8863 C   0  0  0  0  0  0  0  0  0  0  0  0
   94.3021   54.2356  269.2865 C   0  0  0  0  0  0  0  0  0  0  0  0
   94.2399   53.0465  268.5650 C   0  0  0  0  0  0  0  0  0  0  0  0
   95.1620   52.3907  267.7582 C   0  0  0  0  0  0  0  0  0  0  0  0
   94.8383   51.1939  267.1437 C   0  0  0  0  0  0  0  0  0  0  0  0
   93.6001   50.6073  267.3038 C   0  0  0  0  0  0  0  0  0  0  0  0
   93.2573   49.3364  266.6527 C   0  0  0  0  0  0  0  0  0  0  0  0
   91.9488   48.9748  266.4233 C   0  0  0  0  0  0  0  0  0  0  0  0
   94.2698   48.4853  266.2634 C   0  0  0  0  0  0  0  0  0  0  0  0
   95.5464   48.8578  266.4966 N   0  0  0  0  0  0  0  0  0  0  0  0
   96.5879   48.0603  266.1345 C   0  0  0  0  0  0  0  0  0  0  0  0
   96.2975   46.8495  265.5168 C   0  0  0  0  0  0  0  0  0  0  0  0
   95.0090   46.5010  265.2951 N   0  0  0  0  0  0  0  0  0  0  0  0
   93.9838   47.2787  265.6478 C   0  0  0  0  0  0  0  0  0  0  0  0
   92.6519   46.9526  265.4351 C   0  0  0  0  0  0  0  0  0  0  0  0
   91.6040   47.7661  265.8050 C   0  0  0  0  0  0  0  0  0  0  0  0
   90.2367   47.4448  265.5613 N   0  0  0  0  0  0  0  0  0  0  0  0
   89.7940   46.7268  264.4420 C   0  0  0  0  0  0  0  0  0  0  0  0
   90.3756   46.9354  263.2168 C   0  0  0  0  0  0  0  0  0  0  0  0
   89.9649   46.2835  262.0565 C   0  0  0  0  0  0  0  0  0  0  0  0
   88.9257   45.3959  262.1790 C   0  0  0  0  0  0  0  0  0  0  0  0
   88.3310   45.1768  263.4114 C   0  0  0  0  0  0  0  0  0  0  0  0
   88.7376   45.8213  264.5652 C   0  0  0  0  0  0  0  0  0  0  0  0
   87.9824   45.5812  266.1170 S   0  0  2  0  0  6  0  0  0  0  0  0
   89.0031   45.2435  267.1708 O   0  0  0  0  0  0  0  0  0  0  0  0
   86.9979   44.4323  266.0449 O   0  0  0  0  0  0  0  0  0  0  0  0
   87.1780   47.0054  266.6094 N   0  0  0  0  0  0  0  0  0  0  0  0
   85.8709   47.1834  266.0370 C   0  0  0  0  0  0  0  0  0  0  0  0
   85.3109   48.4279  266.6491 C   0  0  0  0  0  0  0  0  0  0  0  0
   84.0770   48.4414  267.2410 C   0  0  0  0  0  0  0  0  0  0  0  0
   83.5892   49.5827  267.7902 N   0  0  0  0  0  0  0  0  0  0  0  0
   84.3218   50.7001  267.7512 C   0  0  0  0  0  0  0  0  0  0  0  0
   85.5255   50.6807  267.1720 N   0  0  0  0  0  0  0  0  0  0  0  0
   86.0510   49.5801  266.6160 C   0  0  0  0  0  0  0  0  0  0  0  0
  1  2  2  0
  1 10  1  0
  2  3  1  0
  2  7  1  0
  3  4  1  0
  3  5  1  0
  5  6  2  0
  6  7  1  0
  7  8  2  0
  8  9  1  0
  9 10  2  0
 10 11  1  0
 11 12  2  0
 11 13  1  0
 12 20  1  0
 13 14  2  0
 13 18  1  0
 14 15  1  0
 15 16  2  0
 16 17  1  0
 17 18  2  0
 18 19  1  0
 19 20  2  0
 20 21  1  0
 21 22  1  0
 22 23  2  0
 22 27  1  0
 23 24  1  0
 24 25  2  0
 25 26  1  0
 26 27  2  0
 27 28  1  0
 28 29  2  0
 28 30  2  0
 28 31  1  1
 31 32  1  0
 32 33  1  0
 33 34  2  0
 33 38  1  0
 34 35  1  0
 35 36  2  0
 36 37  1  0
 37 38  2  0
M  END
$$$$
