
     RDKit          3D

 38 43  0  0  0  0  0  0  0  0999 V2000
   94.1152   51.9222  267.1930 C   0  0  0  0  0  0  0  0  0  0  0  0
   94.3691   53.0984  267.8733 C   0  0  0  0  0  0  0  0  0  0  0  0
   94.9944   54.2571  267.5286 N   0  0  0  0  0  0  0  0  0  0  0  0
   95.5698   54.4487  266.1948 C   0  0  0  0  0  0  0  0  0  0  0  0
   94.9833   55.1186  268.5597 C   0  0  0  0  0  0  0  0  0  0  0  0
   94.3378   54.5378  269.6307 C   0  0  0  0  0  0  0  0  0  0  0  0
   93.9626   53.2756  269.1785 C   0  0  0  0  0  0  0  0  0  0  0  0
   93.2863   52.2251  269.7870 C   0  0  0  0  0  0  0  0  0  0  0  0
   93.0369   51.0515  269.0976 C   0  0  0  0  0  0  0  0  0  0  0  0
   93.4445   50.8762  267.7915 C   0  0  0  0  0  0  0  0  0  0  0  0
   93.1783   49.6311  267.0596 C   0  0  0  0  0  0  0  0  0  0  0  0
   91.8938   49.2009  266.8137 C   0  0  0  0  0  0  0  0  0  0  0  0
   94.2400   48.8751  266.6095 C   0  0  0  0  0  0  0  0  0  0  0  0
   95.4920   49.3138  266.8602 N   0  0  0  0  0  0  0  0  0  0  0  0
   96.5794   48.6113  266.4407 C   0  0  0  0  0  0  0  0  0  0  0  0
   96.3619   47.4274  265.7458 C   0  0  0  0  0  0  0  0  0  0  0  0
   95.0966   47.0109  265.5083 N   0  0  0  0  0  0  0  0  0  0  0  0
   94.0267   47.6954  265.9171 C   0  0  0  0  0  0  0  0  0  0  0  0
   92.7167   47.2980  265.6902 C   0  0  0  0  0  0  0  0  0  0  0  0
   91.6220   48.0156  266.1187 C   0  0  0  0  0  0  0  0  0  0  0  0
   90.2761   47.6227  265.8614 N   0  0  0  0  0  0  0  0  0  0  0  0
   89.8838   46.8786  264.7403 C   0  0  0  0  0  0  0  0  0  0  0  0
   90.4349   47.1432  263.5118 C   0  0  0  0  0  0  0  0  0  0  0  0
   90.0687   46.4680  262.3500 C   0  0  0  0  0  0  0  0  0  0  0  0
   89.1073   45.4969  262.4744 C   0  0  0  0  0  0  0  0  0  0  0  0
   88.5440   45.2207  263.7101 C   0  0  0  0  0  0  0  0  0  0  0  0
   88.9067   45.8883  264.8654 C   0  0  0  0  0  0  0  0  0  0  0  0
   88.1881   45.5756  266.4216 S   0  0  2  0  0  6  0  0  0  0  0  0
   89.2435   45.3562  267.4724 O   0  0  0  0  0  0  0  0  0  0  0  0
   87.3340   44.3262  266.3593 O   0  0  0  0  0  0  0  0  0  0  0  0
   87.2357   46.9066  266.9108 N   0  0  0  0  0  0  0  0  0  0  0  0
   86.1668   47.2419  266.0091 C   0  0  0  0  0  0  0  0  0  0  0  0
   85.3786   48.3234  266.6767 C   0  0  0  0  0  0  0  0  0  0  0  0
   85.7181   48.7956  267.9156 C   0  0  0  0  0  0  0  0  0  0  0  0
   84.9880   49.7780  268.5020 N   0  0  0  0  0  0  0  0  0  0  0  0
   83.9299   50.2860  267.8623 C   0  0  0  0  0  0  0  0  0  0  0  0
   83.6034   49.8211  266.6532 N   0  0  0  0  0  0  0  0  0  0  0  0
   84.2919   48.8530  266.0323 C   0  0  0  0  0  0  0  0  0  0  0  0
  1  2  2  0
  1 10  1  0
  2  3  1  0
  2  7  1  0
  3  4  1  0
  3  5  1  0
  5  6  2  0
  6  7  1  0
  7  8  2  0
  8  9  1  0
  9 10  2  0
 10 11  1  0
 11 12  2  0
 11 13  1  0
 12 20  1  0
 13 14  2  0
 13 18  1  0
 14 15  1  0
 15 16  2  0
 16 17  1  0
 17 18  2  0
 18 19  1  0
 19 20  2  0
 20 21  1  0
 21 22  1  0
 22 23  2  0
 22 27  1  0
 23 24  1  0
 24 25  2  0
 25 26  1  0
 26 27  2  0
 27 28  1  0
 28 29  2  0
 28 30  2  0
 28 31  1  1
 31 32  1  0
 32 33  1  0
 33 34  2  0
 33 38  1  0
 34 35  1  0
 35 36  2  0
 36 37  1  0
 37 38  2  0
M  END
$$$$
