
     RDKit          3D

 38 43  0  0  0  0  0  0  0  0999 V2000
   92.7416   51.3016  268.2887 C   0  0  0  0  0  0  0  0  0  0  0  0
   93.0053   52.5142  268.8975 C   0  0  0  0  0  0  0  0  0  0  0  0
   92.2604   53.3479  269.6737 N   0  0  0  0  0  0  0  0  0  0  0  0
   90.8732   53.0316  270.0241 C   0  0  0  0  0  0  0  0  0  0  0  0
   92.9811   54.4256  270.0270 C   0  0  0  0  0  0  0  0  0  0  0  0
   94.2436   54.3271  269.4818 C   0  0  0  0  0  0  0  0  0  0  0  0
   94.2356   53.1246  268.7801 C   0  0  0  0  0  0  0  0  0  0  0  0
   95.2039   52.4740  268.0249 C   0  0  0  0  0  0  0  0  0  0  0  0
   94.9303   51.2603  267.4192 C   0  0  0  0  0  0  0  0  0  0  0  0
   93.6984   50.6512  267.5379 C   0  0  0  0  0  0  0  0  0  0  0  0
   93.4088   49.3623  266.8964 C   0  0  0  0  0  0  0  0  0  0  0  0
   92.1188   48.9711  266.6163 C   0  0  0  0  0  0  0  0  0  0  0  0
   94.4535   48.5243  266.5683 C   0  0  0  0  0  0  0  0  0  0  0  0
   95.7112   48.9257  266.8506 N   0  0  0  0  0  0  0  0  0  0  0  0
   96.7825   48.1424  266.5500 C   0  0  0  0  0  0  0  0  0  0  0  0
   96.5426   46.9153  265.9430 C   0  0  0  0  0  0  0  0  0  0  0  0
   95.2720   46.5377  265.6711 N   0  0  0  0  0  0  0  0  0  0  0  0
   94.2178   47.3014  265.9635 C   0  0  0  0  0  0  0  0  0  0  0  0
   92.9030   46.9456  265.6983 C   0  0  0  0  0  0  0  0  0  0  0  0
   91.8246   47.7450  266.0062 C   0  0  0  0  0  0  0  0  0  0  0  0
   90.4758   47.3927  265.7084 N   0  0  0  0  0  0  0  0  0  0  0  0
   90.0917   46.6871  264.5599 C   0  0  0  0  0  0  0  0  0  0  0  0
   90.7822   46.8553  263.3861 C   0  0  0  0  0  0  0  0  0  0  0  0
   90.4366   46.2138  262.1991 C   0  0  0  0  0  0  0  0  0  0  0  0
   89.3476   45.3799  262.2395 C   0  0  0  0  0  0  0  0  0  0  0  0
   88.6430   45.2020  263.4195 C   0  0  0  0  0  0  0  0  0  0  0  0
   88.9846   45.8362  264.5997 C   0  0  0  0  0  0  0  0  0  0  0  0
   88.0928   45.6481  266.0847 S   0  0  2  0  0  6  0  0  0  0  0  0
   88.9408   46.0055  267.2761 O   0  0  0  0  0  0  0  0  0  0  0  0
   87.6521   44.2083  266.2487 O   0  0  0  0  0  0  0  0  0  0  0  0
   86.7292   46.6772  266.0893 N   0  0  0  0  0  0  0  0  0  0  0  0
   86.8803   47.8752  265.3084 C   0  0  0  0  0  0  0  0  0  0  0  0
   86.5547   49.0145  266.2209 C   0  0  0  0  0  0  0  0  0  0  0  0
   85.8184   48.8310  267.3599 C   0  0  0  0  0  0  0  0  0  0  0  0
   85.5352   49.8800  268.1732 N   0  0  0  0  0  0  0  0  0  0  0  0
   85.9802   51.1002  267.8568 C   0  0  0  0  0  0  0  0  0  0  0  0
   86.6984   51.2730  266.7437 N   0  0  0  0  0  0  0  0  0  0  0  0
   87.0044   50.2702  265.9086 C   0  0  0  0  0  0  0  0  0  0  0  0
  1  2  2  0
  1 10  1  0
  2  3  1  0
  2  7  1  0
  3  4  1  0
  3  5  1  0
  5  6  2  0
  6  7  1  0
  7  8  2  0
  8  9  1  0
  9 10  2  0
 10 11  1  0
 11 12  2  0
 11 13  1  0
 12 20  1  0
 13 14  2  0
 13 18  1  0
 14 15  1  0
 15 16  2  0
 16 17  1  0
 17 18  2  0
 18 19  1  0
 19 20  2  0
 20 21  1  0
 21 22  1  0
 22 23  2  0
 22 27  1  0
 23 24  1  0
 24 25  2  0
 25 26  1  0
 26 27  2  0
 27 28  1  0
 28 29  2  0
 28 30  2  0
 28 31  1  6
 31 32  1  0
 32 33  1  0
 33 34  2  0
 33 38  1  0
 34 35  1  0
 35 36  2  0
 36 37  1  0
 37 38  2  0
M  END
$$$$
