
     RDKit          3D

 38 43  0  0  0  0  0  0  0  0999 V2000
   92.8877   51.4606  268.4326 C   0  0  0  0  0  0  0  0  0  0  0  0
   93.2711   52.6558  269.0116 C   0  0  0  0  0  0  0  0  0  0  0  0
   92.7190   53.4433  269.9746 N   0  0  0  0  0  0  0  0  0  0  0  0
   91.4580   53.0828  270.6280 C   0  0  0  0  0  0  0  0  0  0  0  0
   93.4880   54.5234  270.1925 C   0  0  0  0  0  0  0  0  0  0  0  0
   94.5876   54.4739  269.3622 C   0  0  0  0  0  0  0  0  0  0  0  0
   94.4306   53.2980  268.6333 C   0  0  0  0  0  0  0  0  0  0  0  0
   95.2023   52.6978  267.6456 C   0  0  0  0  0  0  0  0  0  0  0  0
   94.8101   51.5012  267.0720 C   0  0  0  0  0  0  0  0  0  0  0  0
   93.6493   50.8602  267.4519 C   0  0  0  0  0  0  0  0  0  0  0  0
   93.2341   49.5894  266.8441 C   0  0  0  0  0  0  0  0  0  0  0  0
   91.9577   49.4048  266.3622 C   0  0  0  0  0  0  0  0  0  0  0  0
   94.1438   48.5570  266.7554 C   0  0  0  0  0  0  0  0  0  0  0  0
   95.3905   48.7575  267.2333 N   0  0  0  0  0  0  0  0  0  0  0  0
   96.3317   47.7766  267.1733 C   0  0  0  0  0  0  0  0  0  0  0  0
   95.9705   46.5608  266.6046 C   0  0  0  0  0  0  0  0  0  0  0  0
   94.7140   46.3869  266.1335 N   0  0  0  0  0  0  0  0  0  0  0  0
   93.7871   47.3449  266.1896 C   0  0  0  0  0  0  0  0  0  0  0  0
   92.4908   47.2007  265.7158 C   0  0  0  0  0  0  0  0  0  0  0  0
   91.5445   48.1992  265.7808 C   0  0  0  0  0  0  0  0  0  0  0  0
   90.2213   48.0615  265.2688 N   0  0  0  0  0  0  0  0  0  0  0  0
   89.8672   47.1514  264.2634 C   0  0  0  0  0  0  0  0  0  0  0  0
   90.6948   46.9605  263.1857 C   0  0  0  0  0  0  0  0  0  0  0  0
   90.3917   46.0990  262.1342 C   0  0  0  0  0  0  0  0  0  0  0  0
   89.1997   45.4234  262.2103 C   0  0  0  0  0  0  0  0  0  0  0  0
   88.3562   45.6079  263.2942 C   0  0  0  0  0  0  0  0  0  0  0  0
   88.6552   46.4613  264.3403 C   0  0  0  0  0  0  0  0  0  0  0  0
   87.5936   46.7286  265.6958 S   0  0  2  0  0  6  0  0  0  0  0  0
   86.1511   46.5723  265.2946 O   0  0  0  0  0  0  0  0  0  0  0  0
   87.7733   48.1350  266.2286 O   0  0  0  0  0  0  0  0  0  0  0  0
   87.9158   45.5938  266.9313 N   0  0  0  0  0  0  0  0  0  0  0  0
   89.2400   45.0338  266.8998 C   0  0  0  0  0  0  0  0  0  0  0  0
   89.6351   44.8108  268.3250 C   0  0  0  0  0  0  0  0  0  0  0  0
   90.5103   43.8196  268.6781 C   0  0  0  0  0  0  0  0  0  0  0  0
   90.8545   43.6360  269.9780 N   0  0  0  0  0  0  0  0  0  0  0  0
   90.3333   44.4307  270.9180 C   0  0  0  0  0  0  0  0  0  0  0  0
   89.4797   45.3965  270.5672 N   0  0  0  0  0  0  0  0  0  0  0  0
   89.1084   45.6181  269.2984 C   0  0  0  0  0  0  0  0  0  0  0  0
  1  2  2  0
  1 10  1  0
  2  3  1  0
  2  7  1  0
  3  4  1  0
  3  5  1  0
  5  6  2  0
  6  7  1  0
  7  8  2  0
  8  9  1  0
  9 10  2  0
 10 11  1  0
 11 12  2  0
 11 13  1  0
 12 20  1  0
 13 14  2  0
 13 18  1  0
 14 15  1  0
 15 16  2  0
 16 17  1  0
 17 18  2  0
 18 19  1  0
 19 20  2  0
 20 21  1  0
 21 22  1  0
 22 23  2  0
 22 27  1  0
 23 24  1  0
 24 25  2  0
 25 26  1  0
 26 27  2  0
 27 28  1  0
 28 29  2  0
 28 30  2  0
 28 31  1  1
 31 32  1  0
 32 33  1  0
 33 34  2  0
 33 38  1  0
 34 35  1  0
 35 36  2  0
 36 37  1  0
 37 38  2  0
M  END
$$$$
