
     RDKit          3D

 46 53  0  0  0  0  0  0  0  0999 V2000
  -13.3843  224.8621   78.7230 O   0  0  0  0  0  0  0  0  0  0  0  0
  -13.1808  223.7213   79.1968 C   0  0  0  0  0  0  0  0  0  0  0  0
  -13.8096  223.1582   80.3485 N   0  0  0  0  0  0  0  0  0  0  0  0
  -14.9732  223.5861   81.1259 C   0  0  0  0  0  0  0  0  0  0  0  0
  -15.2738  222.7586   82.3080 C   0  0  0  0  0  0  0  0  0  0  0  0
  -14.8450  221.3388   82.2947 C   0  0  0  0  0  0  0  0  0  0  0  0
  -14.0481  220.8792   81.1178 C   0  0  0  0  0  0  0  0  0  0  0  0
  -13.1007  221.9624   80.6880 C   0  0  1  0  0  0  0  0  0  0  0  0
  -12.3124  221.6192   79.4933 C   0  0  0  0  0  0  0  0  0  0  0  0
  -12.2533  222.7206   78.6859 C   0  0  0  0  0  0  0  0  0  0  0  0
  -11.4603  222.6461   77.5435 C   0  0  0  0  0  0  0  0  0  0  0  0
  -10.7680  221.4915   77.2482 C   0  0  0  0  0  0  0  0  0  0  0  0
  -10.8564  220.3958   78.0827 C   0  0  0  0  0  0  0  0  0  0  0  0
  -11.6335  220.4471   79.2210 C   0  0  0  0  0  0  0  0  0  0  0  0
  -11.6856  219.2904   80.0272 N   0  0  0  0  0  0  0  0  0  0  0  0
  -10.9461  219.0794   81.2272 C   0  0  0  0  0  0  0  0  0  0  0  0
  -10.9914  219.9411   82.0944 O   0  0  0  0  0  0  0  0  0  0  0  0
  -10.1759  217.9187   81.4309 N   0  0  0  0  0  0  0  0  0  0  0  0
   -9.7459  216.9789   80.4787 C   0  0  0  0  0  0  0  0  0  0  0  0
   -9.0342  215.8396   80.7745 C   0  0  0  0  0  0  0  0  0  0  0  0
  -10.0411  217.1945   79.1673 N   0  0  0  0  0  0  0  0  0  0  0  0
   -9.6759  216.3683   78.1851 C   0  0  0  0  0  0  0  0  0  0  0  0
   -8.9557  215.2166   78.4765 C   0  0  0  0  0  0  0  0  0  0  0  0
   -8.6286  214.9439   79.7781 C   0  0  0  0  0  0  0  0  0  0  0  0
   -7.8519  213.7533   80.1147 C   0  0  0  0  0  0  0  0  0  0  0  0
   -7.4525  213.4159   81.3987 C   0  0  0  0  0  0  0  0  0  0  0  0
   -7.4125  212.7554   79.3420 N   0  0  0  0  0  0  0  0  0  0  0  0
   -6.7786  211.8512   80.0978 N   0  0  0  0  0  0  0  0  0  0  0  0
   -6.7889  212.2335   81.3767 N   0  0  0  0  0  0  0  0  0  0  0  0
   -6.2446  211.5197   82.5044 C   0  0  0  0  0  0  0  0  0  0  0  0
   -4.8401  211.8801   82.7954 C   0  0  0  0  0  0  0  0  0  0  0  0
   -4.0491  210.8535   83.4388 N   0  0  0  0  0  0  0  0  0  0  0  0
   -3.0617  210.1721   82.6653 C   0  0  0  0  0  0  0  0  0  0  0  0
   -1.7479  210.1463   83.0615 C   0  0  0  0  0  0  0  0  0  0  0  0
   -1.2895  210.8348   84.2923 C   0  0  0  0  0  0  0  0  0  0  0  0
   -0.4051  209.9406   85.0917 C   0  0  0  0  0  0  0  0  0  0  0  0
    0.5964  209.1658   84.2965 C   0  0  0  0  0  0  0  0  0  0  0  0
    0.6149  209.5155   82.8334 C   0  0  0  0  0  0  0  0  0  0  0  0
   -0.7653  209.4776   82.3211 C   0  0  0  0  0  0  0  0  0  0  0  0
   -1.1248  208.8461   81.1922 N   0  0  0  0  0  0  0  0  0  0  0  0
   -2.3961  208.8518   80.7777 C   0  0  0  0  0  0  0  0  0  0  0  0
   -3.4013  209.5136   81.5004 C   0  0  0  0  0  0  0  0  0  0  0  0
   -4.7005  209.5104   81.0637 C   0  0  0  0  0  0  0  0  0  0  0  0
   -5.0713  208.8671   79.9128 C   0  0  0  0  0  0  0  0  0  0  0  0
   -4.0824  208.2101   79.1918 C   0  0  0  0  0  0  0  0  0  0  0  0
   -2.7579  208.2054   79.6239 C   0  0  0  0  0  0  0  0  0  0  0  0
  1  2  2  0
  2  3  1  0
  2 10  1  0
  3  4  1  0
  3  8  1  0
  4  5  1  0
  5  6  1  0
  6  7  1  0
  8  7  1  6
  8  9  1  0
  9 10  2  0
  9 14  1  0
 10 11  1  0
 11 12  2  0
 12 13  1  0
 13 14  2  0
 14 15  1  0
 15 16  1  0
 16 17  2  0
 16 18  1  0
 18 19  1  0
 19 20  2  0
 19 21  1  0
 20 24  1  0
 21 22  2  0
 22 23  1  0
 23 24  2  0
 24 25  1  0
 25 26  2  0
 25 27  1  0
 26 29  1  0
 27 28  2  0
 28 29  1  0
 29 30  1  0
 30 31  1  0
 31 32  1  0
 32 33  1  0
 33 34  1  0
 33 42  2  0
 34 35  1  0
 34 39  2  0
 35 36  1  0
 36 37  1  0
 37 38  1  0
 38 39  1  0
 39 40  1  0
 40 41  2  0
 41 42  1  0
 41 46  1  0
 42 43  1  0
 43 44  2  0
 44 45  1  0
 45 46  2  0
M  END
$$$$
