
     RDKit          3D

 46 53  0  0  0  0  0  0  0  0999 V2000
  -15.1446  222.7278   80.6339 O   0  0  0  0  0  0  0  0  0  0  0  0
  -14.2634  222.1960   79.9211 C   0  0  0  0  0  0  0  0  0  0  0  0
  -14.0308  222.4466   78.5348 N   0  0  0  0  0  0  0  0  0  0  0  0
  -14.5264  223.4940   77.6411 C   0  0  0  0  0  0  0  0  0  0  0  0
  -14.1020  223.3685   76.2352 C   0  0  0  0  0  0  0  0  0  0  0  0
  -12.8307  222.6600   75.9493 C   0  0  0  0  0  0  0  0  0  0  0  0
  -12.1232  222.0368   77.1080 C   0  0  0  0  0  0  0  0  0  0  0  0
  -13.1236  221.4468   78.0601 C   0  0  1  0  0  0  0  0  0  0  0  0
  -12.5177  220.8601   79.2665 C   0  0  0  0  0  0  0  0  0  0  0  0
  -13.2882  221.1993   80.3433 C   0  0  0  0  0  0  0  0  0  0  0  0
  -12.9512  220.6547   81.5799 C   0  0  0  0  0  0  0  0  0  0  0  0
  -11.8709  219.8071   81.6984 C   0  0  0  0  0  0  0  0  0  0  0  0
  -11.1106  219.4915   80.5906 C   0  0  0  0  0  0  0  0  0  0  0  0
  -11.4268  220.0170   79.3552 C   0  0  0  0  0  0  0  0  0  0  0  0
  -10.6052  219.6595   78.2653 N   0  0  0  0  0  0  0  0  0  0  0  0
   -9.9606  218.4008   78.0878 C   0  0  0  0  0  0  0  0  0  0  0  0
   -9.8896  217.9410   76.9564 O   0  0  0  0  0  0  0  0  0  0  0  0
   -9.4139  217.6868   79.1709 N   0  0  0  0  0  0  0  0  0  0  0  0
   -8.2425  216.9111   79.2021 C   0  0  0  0  0  0  0  0  0  0  0  0
   -7.8687  216.1061   80.2530 C   0  0  0  0  0  0  0  0  0  0  0  0
   -7.4048  216.9480   78.1296 N   0  0  0  0  0  0  0  0  0  0  0  0
   -6.2666  216.2548   78.0603 C   0  0  0  0  0  0  0  0  0  0  0  0
   -5.8823  215.4408   79.1186 C   0  0  0  0  0  0  0  0  0  0  0  0
   -6.6838  215.3611   80.2261 C   0  0  0  0  0  0  0  0  0  0  0  0
   -6.2961  214.5326   81.3652 C   0  0  0  0  0  0  0  0  0  0  0  0
   -5.0219  214.0251   81.5668 C   0  0  0  0  0  0  0  0  0  0  0  0
   -7.0003  214.1325   82.4282 N   0  0  0  0  0  0  0  0  0  0  0  0
   -6.2134  213.4198   83.2428 N   0  0  0  0  0  0  0  0  0  0  0  0
   -4.9815  213.3378   82.7352 N   0  0  0  0  0  0  0  0  0  0  0  0
   -3.8371  212.6895   83.3246 C   0  0  0  0  0  0  0  0  0  0  0  0
   -4.2037  211.5972   84.2518 C   0  0  0  0  0  0  0  0  0  0  0  0
   -4.4053  210.2995   83.6443 N   0  0  0  0  0  0  0  0  0  0  0  0
   -3.2994  209.6754   82.9925 C   0  0  0  0  0  0  0  0  0  0  0  0
   -3.4613  209.0223   81.7963 C   0  0  0  0  0  0  0  0  0  0  0  0
   -4.7852  208.9173   81.1365 C   0  0  0  0  0  0  0  0  0  0  0  0
   -4.6732  209.2449   79.6870 C   0  0  0  0  0  0  0  0  0  0  0  0
   -3.4862  208.6553   78.9950 C   0  0  0  0  0  0  0  0  0  0  0  0
   -2.6725  207.7324   79.8607 C   0  0  0  0  0  0  0  0  0  0  0  0
   -2.3884  208.4098   81.1371 C   0  0  0  0  0  0  0  0  0  0  0  0
   -1.1692  208.4661   81.6965 N   0  0  0  0  0  0  0  0  0  0  0  0
   -0.9769  209.0942   82.8611 C   0  0  0  0  0  0  0  0  0  0  0  0
   -2.0341  209.7169   83.5431 C   0  0  0  0  0  0  0  0  0  0  0  0
   -1.8218  210.3578   84.7359 C   0  0  0  0  0  0  0  0  0  0  0  0
   -0.5796  210.4177   85.3097 C   0  0  0  0  0  0  0  0  0  0  0  0
    0.4718  209.8037   84.6411 C   0  0  0  0  0  0  0  0  0  0  0  0
    0.2704  209.1487   83.4281 C   0  0  0  0  0  0  0  0  0  0  0  0
  1  2  2  0
  2  3  1  0
  2 10  1  0
  3  4  1  0
  3  8  1  0
  4  5  1  0
  5  6  1  0
  6  7  1  0
  8  7  1  6
  8  9  1  0
  9 10  2  0
  9 14  1  0
 10 11  1  0
 11 12  2  0
 12 13  1  0
 13 14  2  0
 14 15  1  0
 15 16  1  0
 16 17  2  0
 16 18  1  0
 18 19  1  0
 19 20  2  0
 19 21  1  0
 20 24  1  0
 21 22  2  0
 22 23  1  0
 23 24  2  0
 24 25  1  0
 25 26  2  0
 25 27  1  0
 26 29  1  0
 27 28  2  0
 28 29  1  0
 29 30  1  0
 30 31  1  0
 31 32  1  0
 32 33  1  0
 33 34  1  0
 33 42  2  0
 34 35  1  0
 34 39  2  0
 35 36  1  0
 36 37  1  0
 37 38  1  0
 38 39  1  0
 39 40  1  0
 40 41  2  0
 41 42  1  0
 41 46  1  0
 42 43  1  0
 43 44  2  0
 44 45  1  0
 45 46  2  0
M  END
$$$$
