
     RDKit          3D

 46 53  0  0  0  0  0  0  0  0999 V2000
  -12.1313  222.5178   79.2843 O   0  0  0  0  0  0  0  0  0  0  0  0
  -11.6870  221.3480   79.3238 C   0  0  0  0  0  0  0  0  0  0  0  0
  -11.4194  220.5832   80.4995 N   0  0  0  0  0  0  0  0  0  0  0  0
  -11.7842  220.7968   81.9004 C   0  0  0  0  0  0  0  0  0  0  0  0
  -11.2528  219.7971   82.8441 C   0  0  0  0  0  0  0  0  0  0  0  0
  -10.9613  218.4366   82.3304 C   0  0  0  0  0  0  0  0  0  0  0  0
  -11.1357  218.2106   80.8641 C   0  0  0  0  0  0  0  0  0  0  0  0
  -10.6815  219.4230   80.1029 C   0  0  1  0  0  0  0  0  0  0  0  0
  -10.8720  219.3135   78.6475 C   0  0  0  0  0  0  0  0  0  0  0  0
  -11.3363  220.5122   78.1831 C   0  0  0  0  0  0  0  0  0  0  0  0
  -11.4846  220.6616   76.8064 C   0  0  0  0  0  0  0  0  0  0  0  0
  -11.1735  219.6241   75.9541 C   0  0  0  0  0  0  0  0  0  0  0  0
  -10.7135  218.4246   76.4586 C   0  0  0  0  0  0  0  0  0  0  0  0
  -10.5563  218.2545   77.8183 C   0  0  0  0  0  0  0  0  0  0  0  0
  -10.0884  217.0019   78.2685 N   0  0  0  0  0  0  0  0  0  0  0  0
   -9.2452  216.1169   77.5354 C   0  0  0  0  0  0  0  0  0  0  0  0
   -9.5802  215.8049   76.4010 O   0  0  0  0  0  0  0  0  0  0  0  0
   -8.0547  215.6017   78.0822 N   0  0  0  0  0  0  0  0  0  0  0  0
   -7.7186  214.2603   78.3324 C   0  0  0  0  0  0  0  0  0  0  0  0
   -7.2375  213.7881   79.5314 C   0  0  0  0  0  0  0  0  0  0  0  0
   -7.8690  213.3506   77.3308 N   0  0  0  0  0  0  0  0  0  0  0  0
   -7.5746  212.0556   77.4623 C   0  0  0  0  0  0  0  0  0  0  0  0
   -7.0870  211.5722   78.6700 C   0  0  0  0  0  0  0  0  0  0  0  0
   -6.9143  212.4387   79.7163 C   0  0  0  0  0  0  0  0  0  0  0  0
   -6.3814  211.9659   80.9917 C   0  0  0  0  0  0  0  0  0  0  0  0
   -5.8638  212.7909   81.9783 C   0  0  0  0  0  0  0  0  0  0  0  0
   -6.3103  210.7319   81.4998 N   0  0  0  0  0  0  0  0  0  0  0  0
   -5.7816  210.7843   82.7280 N   0  0  0  0  0  0  0  0  0  0  0  0
   -5.4963  212.0477   83.0514 N   0  0  0  0  0  0  0  0  0  0  0  0
   -4.9500  212.5267   84.2962 C   0  0  0  0  0  0  0  0  0  0  0  0
   -4.1331  211.5135   84.9986 C   0  0  0  0  0  0  0  0  0  0  0  0
   -3.9199  210.2737   84.2837 N   0  0  0  0  0  0  0  0  0  0  0  0
   -2.8063  210.1848   83.3951 C   0  0  0  0  0  0  0  0  0  0  0  0
   -1.5887  210.7204   83.7328 C   0  0  0  0  0  0  0  0  0  0  0  0
   -1.3761  211.4283   85.0184 C   0  0  0  0  0  0  0  0  0  0  0  0
   -0.1184  210.9630   85.6685 C   0  0  0  0  0  0  0  0  0  0  0  0
    1.0474  210.7996   84.7466 C   0  0  0  0  0  0  0  0  0  0  0  0
    0.7769  211.2494   83.3367 C   0  0  0  0  0  0  0  0  0  0  0  0
   -0.4820  210.6376   82.8788 C   0  0  0  0  0  0  0  0  0  0  0  0
   -0.6227  210.0159   81.6972 N   0  0  0  0  0  0  0  0  0  0  0  0
   -1.7951  209.4833   81.3373 C   0  0  0  0  0  0  0  0  0  0  0  0
   -2.9204  209.5513   82.1738 C   0  0  0  0  0  0  0  0  0  0  0  0
   -4.1158  209.0001   81.7919 C   0  0  0  0  0  0  0  0  0  0  0  0
   -4.2633  208.3648   80.5875 C   0  0  0  0  0  0  0  0  0  0  0  0
   -3.1545  208.2936   79.7539 C   0  0  0  0  0  0  0  0  0  0  0  0
   -1.9335  208.8496   80.1293 C   0  0  0  0  0  0  0  0  0  0  0  0
  1  2  2  0
  2  3  1  0
  2 10  1  0
  3  4  1  0
  3  8  1  0
  4  5  1  0
  5  6  1  0
  6  7  1  0
  8  7  1  1
  8  9  1  0
  9 10  2  0
  9 14  1  0
 10 11  1  0
 11 12  2  0
 12 13  1  0
 13 14  2  0
 14 15  1  0
 15 16  1  0
 16 17  2  0
 16 18  1  0
 18 19  1  0
 19 20  2  0
 19 21  1  0
 20 24  1  0
 21 22  2  0
 22 23  1  0
 23 24  2  0
 24 25  1  0
 25 26  2  0
 25 27  1  0
 26 29  1  0
 27 28  2  0
 28 29  1  0
 29 30  1  0
 30 31  1  0
 31 32  1  0
 32 33  1  0
 33 34  1  0
 33 42  2  0
 34 35  1  0
 34 39  2  0
 35 36  1  0
 36 37  1  0
 37 38  1  0
 38 39  1  0
 39 40  1  0
 40 41  2  0
 41 42  1  0
 41 46  1  0
 42 43  1  0
 43 44  2  0
 44 45  1  0
 45 46  2  0
M  END
$$$$
