
     RDKit          3D

 46 53  0  0  0  0  0  0  0  0999 V2000
  -12.8120  225.1147   78.6034 O   0  0  0  0  0  0  0  0  0  0  0  0
  -12.5837  223.8913   78.7405 C   0  0  0  0  0  0  0  0  0  0  0  0
  -12.0837  223.0058   77.7382 N   0  0  0  0  0  0  0  0  0  0  0  0
  -11.4866  223.2618   76.4270 C   0  0  0  0  0  0  0  0  0  0  0  0
  -11.1529  222.0571   75.6462 C   0  0  0  0  0  0  0  0  0  0  0  0
  -10.8646  220.8033   76.3843 C   0  0  0  0  0  0  0  0  0  0  0  0
  -11.0331  220.8328   77.8683 C   0  0  0  0  0  0  0  0  0  0  0  0
  -12.2265  221.6696   78.2303 C   0  0  1  0  0  0  0  0  0  0  0  0
  -12.4364  221.8045   79.6810 C   0  0  0  0  0  0  0  0  0  0  0  0
  -12.7853  223.0992   79.9466 C   0  0  0  0  0  0  0  0  0  0  0  0
  -13.1356  223.4216   81.2553 C   0  0  0  0  0  0  0  0  0  0  0  0
  -13.1214  222.4570   82.2396 C   0  0  0  0  0  0  0  0  0  0  0  0
  -12.7570  221.1607   81.9369 C   0  0  0  0  0  0  0  0  0  0  0  0
  -12.4086  220.8174   80.6473 C   0  0  0  0  0  0  0  0  0  0  0  0
  -12.0400  219.4770   80.4066 N   0  0  0  0  0  0  0  0  0  0  0  0
  -12.1656  218.4011   81.3330 C   0  0  0  0  0  0  0  0  0  0  0  0
  -12.9218  218.5414   82.2843 O   0  0  0  0  0  0  0  0  0  0  0  0
  -11.4474  217.2002   81.1787 N   0  0  0  0  0  0  0  0  0  0  0  0
  -10.2406  216.9877   80.4905 C   0  0  0  0  0  0  0  0  0  0  0  0
   -9.3878  215.9333   80.7204 C   0  0  0  0  0  0  0  0  0  0  0  0
   -9.8707  217.8774   79.5289 N   0  0  0  0  0  0  0  0  0  0  0  0
   -8.7441  217.7709   78.8216 C   0  0  0  0  0  0  0  0  0  0  0  0
   -7.8775  216.7093   79.0495 C   0  0  0  0  0  0  0  0  0  0  0  0
   -8.1947  215.7802   80.0042 C   0  0  0  0  0  0  0  0  0  0  0  0
   -7.2931  214.6653   80.2840 C   0  0  0  0  0  0  0  0  0  0  0  0
   -7.5121  213.7072   81.2617 C   0  0  0  0  0  0  0  0  0  0  0  0
   -6.1556  214.2969   79.6869 N   0  0  0  0  0  0  0  0  0  0  0  0
   -5.6943  213.1775   80.2568 N   0  0  0  0  0  0  0  0  0  0  0  0
   -6.5151  212.7883   81.2349 N   0  0  0  0  0  0  0  0  0  0  0  0
   -6.3903  211.6150   82.0626 C   0  0  0  0  0  0  0  0  0  0  0  0
   -5.2217  211.6658   82.9676 C   0  0  0  0  0  0  0  0  0  0  0  0
   -4.6926  210.3844   83.3820 N   0  0  0  0  0  0  0  0  0  0  0  0
   -3.8733  209.6592   82.4653 C   0  0  0  0  0  0  0  0  0  0  0  0
   -2.5707  210.0272   82.2384 C   0  0  0  0  0  0  0  0  0  0  0  0
   -1.9606  211.1976   82.9144 C   0  0  0  0  0  0  0  0  0  0  0  0
   -0.6152  210.8473   83.4511 C   0  0  0  0  0  0  0  0  0  0  0  0
    0.2391  210.0317   82.5342 C   0  0  0  0  0  0  0  0  0  0  0  0
   -0.3672  209.8065   81.1760 C   0  0  0  0  0  0  0  0  0  0  0  0
   -1.7482  209.3250   81.3489 C   0  0  0  0  0  0  0  0  0  0  0  0
   -2.2542  208.2628   80.7022 N   0  0  0  0  0  0  0  0  0  0  0  0
   -3.5192  207.8776   80.9001 C   0  0  0  0  0  0  0  0  0  0  0  0
   -4.3656  208.5627   81.7861 C   0  0  0  0  0  0  0  0  0  0  0  0
   -5.6601  208.1559   81.9795 C   0  0  0  0  0  0  0  0  0  0  0  0
   -6.1799  207.0726   81.3220 C   0  0  0  0  0  0  0  0  0  0  0  0
   -5.3489  206.3896   80.4433 C   0  0  0  0  0  0  0  0  0  0  0  0
   -4.0312  206.7922   80.2369 C   0  0  0  0  0  0  0  0  0  0  0  0
  1  2  2  0
  2  3  1  0
  2 10  1  0
  3  4  1  0
  3  8  1  0
  4  5  1  0
  5  6  1  0
  6  7  1  0
  8  7  1  1
  8  9  1  0
  9 10  2  0
  9 14  1  0
 10 11  1  0
 11 12  2  0
 12 13  1  0
 13 14  2  0
 14 15  1  0
 15 16  1  0
 16 17  2  0
 16 18  1  0
 18 19  1  0
 19 20  2  0
 19 21  1  0
 20 24  1  0
 21 22  2  0
 22 23  1  0
 23 24  2  0
 24 25  1  0
 25 26  2  0
 25 27  1  0
 26 29  1  0
 27 28  2  0
 28 29  1  0
 29 30  1  0
 30 31  1  0
 31 32  1  0
 32 33  1  0
 33 34  1  0
 33 42  2  0
 34 35  1  0
 34 39  2  0
 35 36  1  0
 36 37  1  0
 37 38  1  0
 38 39  1  0
 39 40  1  0
 40 41  2  0
 41 42  1  0
 41 46  1  0
 42 43  1  0
 43 44  2  0
 44 45  1  0
 45 46  2  0
M  END
$$$$
