
     RDKit          3D

 46 53  0  0  0  0  0  0  0  0999 V2000
  -12.8616  224.4163   78.3477 O   0  0  0  0  0  0  0  0  0  0  0  0
  -12.7188  223.2009   78.6119 C   0  0  0  0  0  0  0  0  0  0  0  0
  -12.0278  222.2371   77.8166 N   0  0  0  0  0  0  0  0  0  0  0  0
  -11.1259  222.3882   76.6742 C   0  0  0  0  0  0  0  0  0  0  0  0
  -10.6612  221.1251   76.0734 C   0  0  0  0  0  0  0  0  0  0  0  0
  -10.6047  219.9199   76.9360 C   0  0  0  0  0  0  0  0  0  0  0  0
  -11.1211  220.0563   78.3311 C   0  0  0  0  0  0  0  0  0  0  0  0
  -12.3341  220.9418   78.3424 C   0  0  1  0  0  0  0  0  0  0  0  0
  -12.8788  221.1819   79.6886 C   0  0  0  0  0  0  0  0  0  0  0  0
  -13.2320  222.4991   79.7810 C   0  0  0  0  0  0  0  0  0  0  0  0
  -13.8720  222.9194   80.9443 C   0  0  0  0  0  0  0  0  0  0  0  0
  -14.1293  222.0256   81.9614 C   0  0  0  0  0  0  0  0  0  0  0  0
  -13.7523  220.7039   81.8368 C   0  0  0  0  0  0  0  0  0  0  0  0
  -13.1194  220.2642   80.6929 C   0  0  0  0  0  0  0  0  0  0  0  0
  -12.7548  218.9026   80.6322 N   0  0  0  0  0  0  0  0  0  0  0  0
  -12.3341  218.1046   81.7357 C   0  0  0  0  0  0  0  0  0  0  0  0
  -12.8117  218.3412   82.8368 O   0  0  0  0  0  0  0  0  0  0  0  0
  -11.3940  217.0674   81.5869 N   0  0  0  0  0  0  0  0  0  0  0  0
  -10.3911  216.9324   80.6117 C   0  0  0  0  0  0  0  0  0  0  0  0
   -9.1655  216.3475   80.8303 C   0  0  0  0  0  0  0  0  0  0  0  0
  -10.6280  217.4102   79.3592 N   0  0  0  0  0  0  0  0  0  0  0  0
   -9.7424  217.3371   78.3637 C   0  0  0  0  0  0  0  0  0  0  0  0
   -8.5021  216.7490   78.5777 C   0  0  0  0  0  0  0  0  0  0  0  0
   -8.2043  216.2487   79.8173 C   0  0  0  0  0  0  0  0  0  0  0  0
   -6.9002  215.6454   80.0809 C   0  0  0  0  0  0  0  0  0  0  0  0
   -6.5766  214.9541   81.2381 C   0  0  0  0  0  0  0  0  0  0  0  0
   -5.8053  215.5750   79.3178 N   0  0  0  0  0  0  0  0  0  0  0  0
   -4.8574  214.8819   79.9596 N   0  0  0  0  0  0  0  0  0  0  0  0
   -5.3077  214.4835   81.1515 N   0  0  0  0  0  0  0  0  0  0  0  0
   -4.6068  213.6854   82.1258 C   0  0  0  0  0  0  0  0  0  0  0  0
   -4.8076  212.2324   81.9373 C   0  0  0  0  0  0  0  0  0  0  0  0
   -4.0968  211.3755   82.8615 N   0  0  0  0  0  0  0  0  0  0  0  0
   -3.4784  210.1935   82.3535 C   0  0  0  0  0  0  0  0  0  0  0  0
   -2.1119  210.0836   82.2880 C   0  0  0  0  0  0  0  0  0  0  0  0
   -1.2180  211.1849   82.7204 C   0  0  0  0  0  0  0  0  0  0  0  0
   -0.1200  210.6588   83.5798 C   0  0  0  0  0  0  0  0  0  0  0  0
    0.5016  209.3853   83.1031 C   0  0  0  0  0  0  0  0  0  0  0  0
   -0.0131  208.9180   81.7690 C   0  0  0  0  0  0  0  0  0  0  0  0
   -1.4854  208.9302   81.7999 C   0  0  0  0  0  0  0  0  0  0  0  0
   -2.2487  207.9065   81.3853 N   0  0  0  0  0  0  0  0  0  0  0  0
   -3.5828  207.9809   81.4355 C   0  0  0  0  0  0  0  0  0  0  0  0
   -4.2370  209.1244   81.9204 C   0  0  0  0  0  0  0  0  0  0  0  0
   -5.6054  209.1862   81.9666 C   0  0  0  0  0  0  0  0  0  0  0  0
   -6.3876  208.1439   81.5450 C   0  0  0  0  0  0  0  0  0  0  0  0
   -5.7479  207.0089   81.0635 C   0  0  0  0  0  0  0  0  0  0  0  0
   -4.3578  206.9325   81.0106 C   0  0  0  0  0  0  0  0  0  0  0  0
  1  2  2  0
  2  3  1  0
  2 10  1  0
  3  4  1  0
  3  8  1  0
  4  5  1  0
  5  6  1  0
  6  7  1  0
  8  7  1  1
  8  9  1  0
  9 10  2  0
  9 14  1  0
 10 11  1  0
 11 12  2  0
 12 13  1  0
 13 14  2  0
 14 15  1  0
 15 16  1  0
 16 17  2  0
 16 18  1  0
 18 19  1  0
 19 20  2  0
 19 21  1  0
 20 24  1  0
 21 22  2  0
 22 23  1  0
 23 24  2  0
 24 25  1  0
 25 26  2  0
 25 27  1  0
 26 29  1  0
 27 28  2  0
 28 29  1  0
 29 30  1  0
 30 31  1  0
 31 32  1  0
 32 33  1  0
 33 34  1  0
 33 42  2  0
 34 35  1  0
 34 39  2  0
 35 36  1  0
 36 37  1  0
 37 38  1  0
 38 39  1  0
 39 40  1  0
 40 41  2  0
 41 42  1  0
 41 46  1  0
 42 43  1  0
 43 44  2  0
 44 45  1  0
 45 46  2  0
M  END
$$$$
