
     RDKit          3D

 46 53  0  0  0  0  0  0  0  0999 V2000
  -13.9180  224.1309   80.8447 O   0  0  0  0  0  0  0  0  0  0  0  0
  -13.3967  222.9927   80.8559 C   0  0  0  0  0  0  0  0  0  0  0  0
  -13.2345  222.1468   81.9947 N   0  0  0  0  0  0  0  0  0  0  0  0
  -13.8010  222.2138   83.3423 C   0  0  0  0  0  0  0  0  0  0  0  0
  -13.3291  221.1713   84.2712 C   0  0  0  0  0  0  0  0  0  0  0  0
  -12.8694  219.8821   83.7000 C   0  0  0  0  0  0  0  0  0  0  0  0
  -12.8257  219.7743   82.2107 C   0  0  0  0  0  0  0  0  0  0  0  0
  -12.3646  221.0748   81.6177 C   0  0  1  0  0  0  0  0  0  0  0  0
  -12.3471  221.0808   80.1459 C   0  0  0  0  0  0  0  0  0  0  0  0
  -12.8328  222.2836   79.7148 C   0  0  0  0  0  0  0  0  0  0  0  0
  -12.8036  222.5427   78.3468 C   0  0  0  0  0  0  0  0  0  0  0  0
  -12.3028  221.6054   77.4692 C   0  0  0  0  0  0  0  0  0  0  0  0
  -11.8268  220.3981   77.9392 C   0  0  0  0  0  0  0  0  0  0  0  0
  -11.8433  220.1203   79.2901 C   0  0  0  0  0  0  0  0  0  0  0  0
  -11.3482  218.8655   79.7034 N   0  0  0  0  0  0  0  0  0  0  0  0
  -11.1405  217.7350   78.8606 C   0  0  0  0  0  0  0  0  0  0  0  0
  -11.7405  217.6888   77.7955 O   0  0  0  0  0  0  0  0  0  0  0  0
  -10.2740  216.6867   79.2239 N   0  0  0  0  0  0  0  0  0  0  0  0
   -8.9006  216.7512   79.5147 C   0  0  0  0  0  0  0  0  0  0  0  0
   -8.2173  215.8186   80.2599 C   0  0  0  0  0  0  0  0  0  0  0  0
   -8.1799  217.8033   79.0383 N   0  0  0  0  0  0  0  0  0  0  0  0
   -6.8737  217.9618   79.2611 C   0  0  0  0  0  0  0  0  0  0  0  0
   -6.1776  217.0245   80.0140 C   0  0  0  0  0  0  0  0  0  0  0  0
   -6.8475  215.9428   80.5205 C   0  0  0  0  0  0  0  0  0  0  0  0
   -6.1491  214.9519   81.3358 C   0  0  0  0  0  0  0  0  0  0  0  0
   -6.7673  213.8911   81.9794 C   0  0  0  0  0  0  0  0  0  0  0  0
   -4.8474  214.8071   81.6014 N   0  0  0  0  0  0  0  0  0  0  0  0
   -4.6651  213.7222   82.3634 N   0  0  0  0  0  0  0  0  0  0  0  0
   -5.8372  213.1339   82.6124 N   0  0  0  0  0  0  0  0  0  0  0  0
   -6.0635  211.9242   83.3627 C   0  0  0  0  0  0  0  0  0  0  0  0
   -5.9839  210.7034   82.5317 C   0  0  0  0  0  0  0  0  0  0  0  0
   -4.7409  210.5112   81.8163 N   0  0  0  0  0  0  0  0  0  0  0  0
   -4.0344  209.2845   81.9995 C   0  0  0  0  0  0  0  0  0  0  0  0
   -2.6740  209.2731   82.1806 C   0  0  0  0  0  0  0  0  0  0  0  0
   -1.8749  210.5223   82.1761 C   0  0  0  0  0  0  0  0  0  0  0  0
   -0.9234  210.5371   83.3231 C   0  0  0  0  0  0  0  0  0  0  0  0
   -0.2177  209.2435   83.5764 C   0  0  0  0  0  0  0  0  0  0  0  0
   -0.5050  208.1815   82.5503 C   0  0  0  0  0  0  0  0  0  0  0  0
   -1.9631  208.0815   82.3692 C   0  0  0  0  0  0  0  0  0  0  0  0
   -2.6371  206.9204   82.3715 N   0  0  0  0  0  0  0  0  0  0  0  0
   -3.9626  206.8960   82.1978 C   0  0  0  0  0  0  0  0  0  0  0  0
   -4.7002  208.0751   82.0071 C   0  0  0  0  0  0  0  0  0  0  0  0
   -6.0589  208.0349   81.8309 C   0  0  0  0  0  0  0  0  0  0  0  0
   -6.7502  206.8524   81.8330 C   0  0  0  0  0  0  0  0  0  0  0  0
   -6.0275  205.6812   82.0208 C   0  0  0  0  0  0  0  0  0  0  0  0
   -4.6462  205.7074   82.2008 C   0  0  0  0  0  0  0  0  0  0  0  0
  1  2  2  0
  2  3  1  0
  2 10  1  0
  3  4  1  0
  3  8  1  0
  4  5  1  0
  5  6  1  0
  6  7  1  0
  8  7  1  6
  8  9  1  0
  9 10  2  0
  9 14  1  0
 10 11  1  0
 11 12  2  0
 12 13  1  0
 13 14  2  0
 14 15  1  0
 15 16  1  0
 16 17  2  0
 16 18  1  0
 18 19  1  0
 19 20  2  0
 19 21  1  0
 20 24  1  0
 21 22  2  0
 22 23  1  0
 23 24  2  0
 24 25  1  0
 25 26  2  0
 25 27  1  0
 26 29  1  0
 27 28  2  0
 28 29  1  0
 29 30  1  0
 30 31  1  0
 31 32  1  0
 32 33  1  0
 33 34  1  0
 33 42  2  0
 34 35  1  0
 34 39  2  0
 35 36  1  0
 36 37  1  0
 37 38  1  0
 38 39  1  0
 39 40  1  0
 40 41  2  0
 41 42  1  0
 41 46  1  0
 42 43  1  0
 43 44  2  0
 44 45  1  0
 45 46  2  0
M  END
$$$$
