
     RDKit          3D

 46 53  0  0  0  0  0  0  0  0999 V2000
  -10.3534  224.7043   75.6659 O   0  0  0  0  0  0  0  0  0  0  0  0
  -10.8773  223.9091   76.4788 C   0  0  0  0  0  0  0  0  0  0  0  0
  -12.0726  224.1295   77.2281 N   0  0  0  0  0  0  0  0  0  0  0  0
  -13.1174  225.1474   77.1119 C   0  0  0  0  0  0  0  0  0  0  0  0
  -14.1762  225.0759   78.1346 C   0  0  0  0  0  0  0  0  0  0  0  0
  -14.4591  223.7597   78.7571 C   0  0  0  0  0  0  0  0  0  0  0  0
  -13.5757  222.6193   78.3693 C   0  0  0  0  0  0  0  0  0  0  0  0
  -12.1606  223.0983   78.2165 C   0  0  1  0  0  0  0  0  0  0  0  0
  -11.2254  222.0502   77.7766 C   0  0  0  0  0  0  0  0  0  0  0  0
  -10.3807  222.5899   76.8472 C   0  0  0  0  0  0  0  0  0  0  0  0
   -9.3411  221.7929   76.3746 C   0  0  0  0  0  0  0  0  0  0  0  0
   -9.1853  220.5032   76.8351 C   0  0  0  0  0  0  0  0  0  0  0  0
  -10.0614  219.9883   77.7690 C   0  0  0  0  0  0  0  0  0  0  0  0
  -11.0970  220.7599   78.2533 C   0  0  0  0  0  0  0  0  0  0  0  0
  -11.9603  220.1711   79.2012 N   0  0  0  0  0  0  0  0  0  0  0  0
  -11.8808  218.8303   79.6783 C   0  0  0  0  0  0  0  0  0  0  0  0
  -12.9244  218.2273   79.8875 O   0  0  0  0  0  0  0  0  0  0  0  0
  -10.6455  218.1967   79.9113 N   0  0  0  0  0  0  0  0  0  0  0  0
  -10.4010  216.9731   80.5579 C   0  0  0  0  0  0  0  0  0  0  0  0
   -9.3815  216.1093   80.2314 C   0  0  0  0  0  0  0  0  0  0  0  0
  -11.2205  216.5971   81.5779 N   0  0  0  0  0  0  0  0  0  0  0  0
  -11.0788  215.4549   82.2531 C   0  0  0  0  0  0  0  0  0  0  0  0
  -10.0522  214.5772   81.9278 C   0  0  0  0  0  0  0  0  0  0  0  0
   -9.1938  214.8998   80.9107 C   0  0  0  0  0  0  0  0  0  0  0  0
   -8.1187  213.9874   80.5289 C   0  0  0  0  0  0  0  0  0  0  0  0
   -8.0969  212.6339   80.8280 C   0  0  0  0  0  0  0  0  0  0  0  0
   -7.0084  214.2025   79.8168 N   0  0  0  0  0  0  0  0  0  0  0  0
   -6.3360  213.0537   79.6799 N   0  0  0  0  0  0  0  0  0  0  0  0
   -6.9875  212.0643   80.2952 N   0  0  0  0  0  0  0  0  0  0  0  0
   -6.6121  210.6737   80.3480 C   0  0  0  0  0  0  0  0  0  0  0  0
   -5.6984  210.3623   81.4684 C   0  0  0  0  0  0  0  0  0  0  0  0
   -4.3215  210.1079   81.1033 N   0  0  0  0  0  0  0  0  0  0  0  0
   -3.2893  210.6343   81.9369 C   0  0  0  0  0  0  0  0  0  0  0  0
   -2.0141  210.1294   81.8862 C   0  0  0  0  0  0  0  0  0  0  0  0
   -1.6528  209.0092   80.9842 C   0  0  0  0  0  0  0  0  0  0  0  0
   -0.3848  209.3098   80.2611 C   0  0  0  0  0  0  0  0  0  0  0  0
    0.6915  209.9224   81.0990 C   0  0  0  0  0  0  0  0  0  0  0  0
    0.3454  210.0195   82.5598 C   0  0  0  0  0  0  0  0  0  0  0  0
   -0.9856  210.6362   82.6901 C   0  0  0  0  0  0  0  0  0  0  0  0
   -1.2613  211.6444   83.5328 N   0  0  0  0  0  0  0  0  0  0  0  0
   -2.4931  212.1593   83.6071 C   0  0  0  0  0  0  0  0  0  0  0  0
   -3.5425  211.6709   82.8128 C   0  0  0  0  0  0  0  0  0  0  0  0
   -4.8001  212.2091   82.8992 C   0  0  0  0  0  0  0  0  0  0  0  0
   -5.0853  213.2378   83.7574 C   0  0  0  0  0  0  0  0  0  0  0  0
   -4.0523  213.7265   84.5470 C   0  0  0  0  0  0  0  0  0  0  0  0
   -2.7693  213.1888   84.4696 C   0  0  0  0  0  0  0  0  0  0  0  0
  1  2  2  0
  2  3  1  0
  2 10  1  0
  3  4  1  0
  3  8  1  0
  4  5  1  0
  5  6  1  0
  6  7  1  0
  8  7  1  6
  8  9  1  0
  9 10  2  0
  9 14  1  0
 10 11  1  0
 11 12  2  0
 12 13  1  0
 13 14  2  0
 14 15  1  0
 15 16  1  0
 16 17  2  0
 16 18  1  0
 18 19  1  0
 19 20  2  0
 19 21  1  0
 20 24  1  0
 21 22  2  0
 22 23  1  0
 23 24  2  0
 24 25  1  0
 25 26  2  0
 25 27  1  0
 26 29  1  0
 27 28  2  0
 28 29  1  0
 29 30  1  0
 30 31  1  0
 31 32  1  0
 32 33  1  0
 33 34  1  0
 33 42  2  0
 34 35  1  0
 34 39  2  0
 35 36  1  0
 36 37  1  0
 37 38  1  0
 38 39  1  0
 39 40  1  0
 40 41  2  0
 41 42  1  0
 41 46  1  0
 42 43  1  0
 43 44  2  0
 44 45  1  0
 45 46  2  0
M  END
$$$$
