
     RDKit          3D

 46 53  0  0  0  0  0  0  0  0999 V2000
  -12.6837  222.4646   74.8850 O   0  0  0  0  0  0  0  0  0  0  0  0
  -12.0114  221.7649   75.6761 C   0  0  0  0  0  0  0  0  0  0  0  0
  -10.6353  221.4112   75.5337 N   0  0  0  0  0  0  0  0  0  0  0  0
   -9.5912  221.9140   74.6403 C   0  0  0  0  0  0  0  0  0  0  0  0
   -8.2889  221.2335   74.7556 C   0  0  0  0  0  0  0  0  0  0  0  0
   -7.9442  220.5985   76.0509 C   0  0  0  0  0  0  0  0  0  0  0  0
   -8.9920  220.6111   77.1155 C   0  0  0  0  0  0  0  0  0  0  0  0
  -10.3462  220.3979   76.5020 C   0  0  1  0  0  0  0  0  0  0  0  0
  -11.4511  220.4541   77.4729 C   0  0  0  0  0  0  0  0  0  0  0  0
  -12.4839  221.1498   76.9094 C   0  0  0  0  0  0  0  0  0  0  0  0
  -13.6774  221.2306   77.6224 C   0  0  0  0  0  0  0  0  0  0  0  0
  -13.7959  220.6276   78.8560 C   0  0  0  0  0  0  0  0  0  0  0  0
  -12.7298  219.9387   79.3979 C   0  0  0  0  0  0  0  0  0  0  0  0
  -11.5388  219.8432   78.7090 C   0  0  0  0  0  0  0  0  0  0  0  0
  -10.4867  219.1305   79.3221 N   0  0  0  0  0  0  0  0  0  0  0  0
  -10.6382  218.0567   80.2470 C   0  0  0  0  0  0  0  0  0  0  0  0
  -11.7175  217.9228   80.8070 O   0  0  0  0  0  0  0  0  0  0  0  0
   -9.5873  217.1624   80.5257 N   0  0  0  0  0  0  0  0  0  0  0  0
   -9.1141  216.7357   81.7783 C   0  0  0  0  0  0  0  0  0  0  0  0
   -7.9567  216.0179   81.9708 C   0  0  0  0  0  0  0  0  0  0  0  0
   -9.8387  217.0406   82.8898 N   0  0  0  0  0  0  0  0  0  0  0  0
   -9.4813  216.6792   84.1236 C   0  0  0  0  0  0  0  0  0  0  0  0
   -8.3142  215.9530   84.3251 C   0  0  0  0  0  0  0  0  0  0  0  0
   -7.5416  215.6160   83.2459 C   0  0  0  0  0  0  0  0  0  0  0  0
   -6.3210  214.8327   83.4220 C   0  0  0  0  0  0  0  0  0  0  0  0
   -5.9066  214.2891   84.6280 C   0  0  0  0  0  0  0  0  0  0  0  0
   -5.4050  214.4394   82.5319 N   0  0  0  0  0  0  0  0  0  0  0  0
   -4.4768  213.6958   83.1452 N   0  0  0  0  0  0  0  0  0  0  0  0
   -4.7624  213.5846   84.4444 N   0  0  0  0  0  0  0  0  0  0  0  0
   -4.0309  212.8384   85.4371 C   0  0  0  0  0  0  0  0  0  0  0  0
   -3.3924  211.6205   84.8925 C   0  0  0  0  0  0  0  0  0  0  0  0
   -4.1927  210.8554   83.9609 N   0  0  0  0  0  0  0  0  0  0  0  0
   -3.6301  210.5297   82.6901 C   0  0  0  0  0  0  0  0  0  0  0  0
   -2.2793  210.6291   82.4692 C   0  0  0  0  0  0  0  0  0  0  0  0
   -1.3472  211.0938   83.5249 C   0  0  0  0  0  0  0  0  0  0  0  0
   -0.1573  210.1997   83.6006 C   0  0  0  0  0  0  0  0  0  0  0  0
    0.4124  209.7913   82.2799 C   0  0  0  0  0  0  0  0  0  0  0  0
   -0.2471  210.4534   81.1009 C   0  0  0  0  0  0  0  0  0  0  0  0
   -1.7066  210.3076   81.2324 C   0  0  0  0  0  0  0  0  0  0  0  0
   -2.5072  209.8913   80.2383 N   0  0  0  0  0  0  0  0  0  0  0  0
   -3.8275  209.7833   80.4200 C   0  0  0  0  0  0  0  0  0  0  0  0
   -4.4280  210.0985   81.6492 C   0  0  0  0  0  0  0  0  0  0  0  0
   -5.7828  209.9824   81.8211 C   0  0  0  0  0  0  0  0  0  0  0  0
   -6.6028  209.5577   80.8096 C   0  0  0  0  0  0  0  0  0  0  0  0
   -6.0164  209.2442   79.5902 C   0  0  0  0  0  0  0  0  0  0  0  0
   -4.6407  209.3578   79.4013 C   0  0  0  0  0  0  0  0  0  0  0  0
  1  2  2  0
  2  3  1  0
  2 10  1  0
  3  4  1  0
  3  8  1  0
  4  5  1  0
  5  6  1  0
  6  7  1  0
  8  7  1  1
  8  9  1  0
  9 10  2  0
  9 14  1  0
 10 11  1  0
 11 12  2  0
 12 13  1  0
 13 14  2  0
 14 15  1  0
 15 16  1  0
 16 17  2  0
 16 18  1  0
 18 19  1  0
 19 20  2  0
 19 21  1  0
 20 24  1  0
 21 22  2  0
 22 23  1  0
 23 24  2  0
 24 25  1  0
 25 26  2  0
 25 27  1  0
 26 29  1  0
 27 28  2  0
 28 29  1  0
 29 30  1  0
 30 31  1  0
 31 32  1  0
 32 33  1  0
 33 34  1  0
 33 42  2  0
 34 35  1  0
 34 39  2  0
 35 36  1  0
 36 37  1  0
 37 38  1  0
 38 39  1  0
 39 40  1  0
 40 41  2  0
 41 42  1  0
 41 46  1  0
 42 43  1  0
 43 44  2  0
 44 45  1  0
 45 46  2  0
M  END
$$$$
