
     RDKit          3D

 46 53  0  0  0  0  0  0  0  0999 V2000
   -0.0349  210.8460   85.7402 O   0  0  0  0  0  0  0  0  0  0  0  0
   -0.8319  211.1071   84.8106 C   0  0  0  0  0  0  0  0  0  0  0  0
   -0.5621  211.0105   83.4118 N   0  0  0  0  0  0  0  0  0  0  0  0
    0.5393  210.3883   82.6763 C   0  0  0  0  0  0  0  0  0  0  0  0
    0.4923  210.5641   81.2137 C   0  0  0  0  0  0  0  0  0  0  0  0
   -0.8311  210.7693   80.5764 C   0  0  0  0  0  0  0  0  0  0  0  0
   -2.0131  210.8822   81.4829 C   0  0  0  0  0  0  0  0  0  0  0  0
   -1.6380  211.6500   82.7180 C   0  0  1  0  0  0  0  0  0  0  0  0
   -2.7291  211.7610   83.6998 C   0  0  0  0  0  0  0  0  0  0  0  0
   -2.2048  211.5751   84.9483 C   0  0  0  0  0  0  0  0  0  0  0  0
   -3.0522  211.7456   86.0402 C   0  0  0  0  0  0  0  0  0  0  0  0
   -4.3743  212.0862   85.8513 C   0  0  0  0  0  0  0  0  0  0  0  0
   -4.8717  212.2593   84.5756 C   0  0  0  0  0  0  0  0  0  0  0  0
   -4.0506  212.0981   83.4792 C   0  0  0  0  0  0  0  0  0  0  0  0
   -4.6234  212.2832   82.2031 N   0  0  0  0  0  0  0  0  0  0  0  0
   -5.4745  213.3612   81.8223 C   0  0  0  0  0  0  0  0  0  0  0  0
   -6.5029  213.5403   82.4602 O   0  0  0  0  0  0  0  0  0  0  0  0
   -5.1613  214.2095   80.7434 N   0  0  0  0  0  0  0  0  0  0  0  0
   -5.9994  214.6404   79.7008 C   0  0  0  0  0  0  0  0  0  0  0  0
   -7.1918  215.3017   79.8822 C   0  0  0  0  0  0  0  0  0  0  0  0
   -5.6248  214.3928   78.4156 N   0  0  0  0  0  0  0  0  0  0  0  0
   -6.3492  214.7544   77.3549 C   0  0  0  0  0  0  0  0  0  0  0  0
   -7.5552  215.4214   77.5309 C   0  0  0  0  0  0  0  0  0  0  0  0
   -7.9861  215.7001   78.8006 C   0  0  0  0  0  0  0  0  0  0  0  0
   -9.2609  216.3792   79.0198 C   0  0  0  0  0  0  0  0  0  0  0  0
   -9.9153  216.4416   80.2403 C   0  0  0  0  0  0  0  0  0  0  0  0
  -10.0231  217.0880   78.1816 N   0  0  0  0  0  0  0  0  0  0  0  0
  -11.0870  217.5636   78.8392 N   0  0  0  0  0  0  0  0  0  0  0  0
  -11.0460  217.1801   80.1172 N   0  0  0  0  0  0  0  0  0  0  0  0
  -11.9850  217.5143   81.1583 C   0  0  0  0  0  0  0  0  0  0  0  0
  -12.0487  218.9654   81.4372 C   0  0  0  0  0  0  0  0  0  0  0  0
  -13.1346  219.6796   80.8012 N   0  0  0  0  0  0  0  0  0  0  0  0
  -12.8152  220.6873   79.8420 C   0  0  0  0  0  0  0  0  0  0  0  0
  -12.7771  222.0127   80.1961 C   0  0  0  0  0  0  0  0  0  0  0  0
  -13.0815  222.4617   81.5762 C   0  0  0  0  0  0  0  0  0  0  0  0
  -12.0596  223.4405   82.0438 C   0  0  0  0  0  0  0  0  0  0  0  0
  -11.6599  224.4687   81.0345 C   0  0  0  0  0  0  0  0  0  0  0  0
  -12.4504  224.4070   79.7559 C   0  0  0  0  0  0  0  0  0  0  0  0
  -12.4590  223.0160   79.2724 C   0  0  0  0  0  0  0  0  0  0  0  0
  -12.1850  222.6649   78.0058 N   0  0  0  0  0  0  0  0  0  0  0  0
  -12.2134  221.3827   77.6277 C   0  0  0  0  0  0  0  0  0  0  0  0
  -12.5286  220.3568   78.5326 C   0  0  0  0  0  0  0  0  0  0  0  0
  -12.5531  219.0466   78.1309 C   0  0  0  0  0  0  0  0  0  0  0  0
  -12.2739  218.6844   76.8399 C   0  0  0  0  0  0  0  0  0  0  0  0
  -11.9613  219.6936   75.9382 C   0  0  0  0  0  0  0  0  0  0  0  0
  -11.9329  221.0295   76.3328 C   0  0  0  0  0  0  0  0  0  0  0  0
  1  2  2  0
  2  3  1  0
  2 10  1  0
  3  4  1  0
  3  8  1  0
  4  5  1  0
  5  6  1  0
  6  7  1  0
  8  7  1  6
  8  9  1  0
  9 10  2  0
  9 14  1  0
 10 11  1  0
 11 12  2  0
 12 13  1  0
 13 14  2  0
 14 15  1  0
 15 16  1  0
 16 17  2  0
 16 18  1  0
 18 19  1  0
 19 20  2  0
 19 21  1  0
 20 24  1  0
 21 22  2  0
 22 23  1  0
 23 24  2  0
 24 25  1  0
 25 26  2  0
 25 27  1  0
 26 29  1  0
 27 28  2  0
 28 29  1  0
 29 30  1  0
 30 31  1  0
 31 32  1  0
 32 33  1  0
 33 34  1  0
 33 42  2  0
 34 35  1  0
 34 39  2  0
 35 36  1  0
 36 37  1  0
 37 38  1  0
 38 39  1  0
 39 40  1  0
 40 41  2  0
 41 42  1  0
 41 46  1  0
 42 43  1  0
 43 44  2  0
 44 45  1  0
 45 46  2  0
M  END
$$$$
