
     RDKit          3D

 46 53  0  0  0  0  0  0  0  0999 V2000
   -9.2258  224.3948   76.5326 O   0  0  0  0  0  0  0  0  0  0  0  0
   -9.6596  223.2934   76.9403 C   0  0  0  0  0  0  0  0  0  0  0  0
   -9.2531  222.0025   76.4853 N   0  0  0  0  0  0  0  0  0  0  0  0
   -8.1223  221.5756   75.6604 C   0  0  0  0  0  0  0  0  0  0  0  0
   -8.0840  220.1354   75.3495 C   0  0  0  0  0  0  0  0  0  0  0  0
   -8.7336  219.1980   76.2978 C   0  0  0  0  0  0  0  0  0  0  0  0
   -9.4683  219.7975   77.4520 C   0  0  0  0  0  0  0  0  0  0  0  0
  -10.1778  221.0462   77.0128 C   0  0  1  0  0  0  0  0  0  0  0  0
  -10.8834  221.7402   78.1024 C   0  0  0  0  0  0  0  0  0  0  0  0
  -10.6791  223.0842   77.9598 C   0  0  0  0  0  0  0  0  0  0  0  0
  -11.3511  223.9388   78.8301 C   0  0  0  0  0  0  0  0  0  0  0  0
  -12.1871  223.4305   79.8009 C   0  0  0  0  0  0  0  0  0  0  0  0
  -12.3645  222.0670   79.9206 C   0  0  0  0  0  0  0  0  0  0  0  0
  -11.7114  221.2014   79.0682 C   0  0  0  0  0  0  0  0  0  0  0  0
  -11.9314  219.8195   79.2486 N   0  0  0  0  0  0  0  0  0  0  0  0
  -11.8207  219.1141   80.4822 C   0  0  0  0  0  0  0  0  0  0  0  0
  -12.7501  219.1840   81.2746 O   0  0  0  0  0  0  0  0  0  0  0  0
  -10.6813  218.3520   80.8026 N   0  0  0  0  0  0  0  0  0  0  0  0
  -10.6189  217.1059   81.4493 C   0  0  0  0  0  0  0  0  0  0  0  0
   -9.4554  216.4181   81.7051 C   0  0  0  0  0  0  0  0  0  0  0  0
  -11.7791  216.5207   81.8551 N   0  0  0  0  0  0  0  0  0  0  0  0
  -11.8308  215.3386   82.4722 C   0  0  0  0  0  0  0  0  0  0  0  0
  -10.6598  214.6379   82.7324 C   0  0  0  0  0  0  0  0  0  0  0  0
   -9.4599  215.1751   82.3488 C   0  0  0  0  0  0  0  0  0  0  0  0
   -8.2128  214.4524   82.5870 C   0  0  0  0  0  0  0  0  0  0  0  0
   -8.1292  213.2221   83.2203 C   0  0  0  0  0  0  0  0  0  0  0  0
   -6.9566  214.7497   82.2409 N   0  0  0  0  0  0  0  0  0  0  0  0
   -6.1402  213.7650   82.6339 N   0  0  0  0  0  0  0  0  0  0  0  0
   -6.8392  212.8044   83.2425 N   0  0  0  0  0  0  0  0  0  0  0  0
   -6.3350  211.5638   83.7756 C   0  0  0  0  0  0  0  0  0  0  0  0
   -5.5877  210.7662   82.7793 C   0  0  0  0  0  0  0  0  0  0  0  0
   -4.1486  210.7633   82.9295 N   0  0  0  0  0  0  0  0  0  0  0  0
   -3.3820  209.8796   82.1115 C   0  0  0  0  0  0  0  0  0  0  0  0
   -2.0749  210.1600   81.8010 C   0  0  0  0  0  0  0  0  0  0  0  0
   -1.4054  211.3934   82.2800 C   0  0  0  0  0  0  0  0  0  0  0  0
   -0.0575  211.0752   82.8303 C   0  0  0  0  0  0  0  0  0  0  0  0
    0.7410  210.1009   82.0248 C   0  0  0  0  0  0  0  0  0  0  0  0
    0.0874  209.7005   80.7303 C   0  0  0  0  0  0  0  0  0  0  0  0
   -1.3035  209.3030   81.0063 C   0  0  0  0  0  0  0  0  0  0  0  0
   -1.8644  208.1769   80.5375 N   0  0  0  0  0  0  0  0  0  0  0  0
   -3.1355  207.8738   80.8211 C   0  0  0  0  0  0  0  0  0  0  0  0
   -3.9314  208.7143   81.6153 C   0  0  0  0  0  0  0  0  0  0  0  0
   -5.2327  208.3903   81.8984 C   0  0  0  0  0  0  0  0  0  0  0  0
   -5.8085  207.2424   81.4223 C   0  0  0  0  0  0  0  0  0  0  0  0
   -5.0276  206.4055   80.6354 C   0  0  0  0  0  0  0  0  0  0  0  0
   -3.7036  206.7225   80.3396 C   0  0  0  0  0  0  0  0  0  0  0  0
  1  2  2  0
  2  3  1  0
  2 10  1  0
  3  4  1  0
  3  8  1  0
  4  5  1  0
  5  6  1  0
  6  7  1  0
  8  7  1  1
  8  9  1  0
  9 10  2  0
  9 14  1  0
 10 11  1  0
 11 12  2  0
 12 13  1  0
 13 14  2  0
 14 15  1  0
 15 16  1  0
 16 17  2  0
 16 18  1  0
 18 19  1  0
 19 20  2  0
 19 21  1  0
 20 24  1  0
 21 22  2  0
 22 23  1  0
 23 24  2  0
 24 25  1  0
 25 26  2  0
 25 27  1  0
 26 29  1  0
 27 28  2  0
 28 29  1  0
 29 30  1  0
 30 31  1  0
 31 32  1  0
 32 33  1  0
 33 34  1  0
 33 42  2  0
 34 35  1  0
 34 39  2  0
 35 36  1  0
 36 37  1  0
 37 38  1  0
 38 39  1  0
 39 40  1  0
 40 41  2  0
 41 42  1  0
 41 46  1  0
 42 43  1  0
 43 44  2  0
 44 45  1  0
 45 46  2  0
M  END
$$$$
