
     RDKit          3D

 46 53  0  0  0  0  0  0  0  0999 V2000
  -13.5539  223.7023   76.2989 O   0  0  0  0  0  0  0  0  0  0  0  0
  -13.3914  222.6892   77.0163 C   0  0  0  0  0  0  0  0  0  0  0  0
  -14.3177  221.6163   77.1885 N   0  0  0  0  0  0  0  0  0  0  0  0
  -15.5314  221.2545   76.4555 C   0  0  0  0  0  0  0  0  0  0  0  0
  -16.2630  220.0930   76.9922 C   0  0  0  0  0  0  0  0  0  0  0  0
  -15.4971  219.0740   77.7504 C   0  0  0  0  0  0  0  0  0  0  0  0
  -14.0512  219.3547   77.9991 C   0  0  0  0  0  0  0  0  0  0  0  0
  -13.8560  220.8167   78.2819 C   0  0  1  0  0  0  0  0  0  0  0  0
  -12.4484  221.1980   78.4819 C   0  0  0  0  0  0  0  0  0  0  0  0
  -12.2288  222.3845   77.8398 C   0  0  0  0  0  0  0  0  0  0  0  0
  -10.9805  222.9831   77.9913 C   0  0  0  0  0  0  0  0  0  0  0  0
  -10.0080  222.3841   78.7626 C   0  0  0  0  0  0  0  0  0  0  0  0
  -10.2623  221.1821   79.3913 C   0  0  0  0  0  0  0  0  0  0  0  0
  -11.4920  220.5718   79.2577 C   0  0  0  0  0  0  0  0  0  0  0  0
  -11.6844  219.3414   79.9209 N   0  0  0  0  0  0  0  0  0  0  0  0
  -10.8312  218.7950   80.9233 C   0  0  0  0  0  0  0  0  0  0  0  0
  -10.4517  219.5302   81.8245 O   0  0  0  0  0  0  0  0  0  0  0  0
  -10.4216  217.4484   80.8971 N   0  0  0  0  0  0  0  0  0  0  0  0
   -9.3108  216.8870   80.2445 C   0  0  0  0  0  0  0  0  0  0  0  0
   -8.3952  216.0528   80.8426 C   0  0  0  0  0  0  0  0  0  0  0  0
   -9.1073  217.1797   78.9306 N   0  0  0  0  0  0  0  0  0  0  0  0
   -8.0824  216.7039   78.2207 C   0  0  0  0  0  0  0  0  0  0  0  0
   -7.1532  215.8620   78.8188 C   0  0  0  0  0  0  0  0  0  0  0  0
   -7.3039  215.5299   80.1388 C   0  0  0  0  0  0  0  0  0  0  0  0
   -6.3311  214.6658   80.8029 C   0  0  0  0  0  0  0  0  0  0  0  0
   -6.4762  214.1658   82.0877 C   0  0  0  0  0  0  0  0  0  0  0  0
   -5.1819  214.1488   80.3579 N   0  0  0  0  0  0  0  0  0  0  0  0
   -4.6439  213.3735   81.3067 N   0  0  0  0  0  0  0  0  0  0  0  0
   -5.4248  213.3642   82.3894 N   0  0  0  0  0  0  0  0  0  0  0  0
   -5.2156  212.6248   83.6088 C   0  0  0  0  0  0  0  0  0  0  0  0
   -5.3566  211.1633   83.4317 C   0  0  0  0  0  0  0  0  0  0  0  0
   -4.2177  210.3690   83.8389 N   0  0  0  0  0  0  0  0  0  0  0  0
   -3.5535  209.5785   82.8533 C   0  0  0  0  0  0  0  0  0  0  0  0
   -2.1867  209.6022   82.7324 C   0  0  0  0  0  0  0  0  0  0  0  0
   -1.3404  210.4570   83.5997 C   0  0  0  0  0  0  0  0  0  0  0  0
   -0.1817  209.6813   84.1257 C   0  0  0  0  0  0  0  0  0  0  0  0
    0.4920  208.7953   83.1274 C   0  0  0  0  0  0  0  0  0  0  0  0
   -0.0470  208.9321   81.7296 C   0  0  0  0  0  0  0  0  0  0  0  0
   -1.5153  208.8291   81.7771 C   0  0  0  0  0  0  0  0  0  0  0  0
   -2.2349  208.0448   80.9589 N   0  0  0  0  0  0  0  0  0  0  0  0
   -3.5681  207.9983   81.0499 C   0  0  0  0  0  0  0  0  0  0  0  0
   -4.2666  208.7621   81.9982 C   0  0  0  0  0  0  0  0  0  0  0  0
   -5.6336  208.7038   82.0805 C   0  0  0  0  0  0  0  0  0  0  0  0
   -6.3712  207.9047   81.2478 C   0  0  0  0  0  0  0  0  0  0  0  0
   -5.6874  207.1460   80.3065 C   0  0  0  0  0  0  0  0  0  0  0  0
   -4.2983  207.1957   80.2117 C   0  0  0  0  0  0  0  0  0  0  0  0
  1  2  2  0
  2  3  1  0
  2 10  1  0
  3  4  1  0
  3  8  1  0
  4  5  1  0
  5  6  1  0
  6  7  1  0
  8  7  1  6
  8  9  1  0
  9 10  2  0
  9 14  1  0
 10 11  1  0
 11 12  2  0
 12 13  1  0
 13 14  2  0
 14 15  1  0
 15 16  1  0
 16 17  2  0
 16 18  1  0
 18 19  1  0
 19 20  2  0
 19 21  1  0
 20 24  1  0
 21 22  2  0
 22 23  1  0
 23 24  2  0
 24 25  1  0
 25 26  2  0
 25 27  1  0
 26 29  1  0
 27 28  2  0
 28 29  1  0
 29 30  1  0
 30 31  1  0
 31 32  1  0
 32 33  1  0
 33 34  1  0
 33 42  2  0
 34 35  1  0
 34 39  2  0
 35 36  1  0
 36 37  1  0
 37 38  1  0
 38 39  1  0
 39 40  1  0
 40 41  2  0
 41 42  1  0
 41 46  1  0
 42 43  1  0
 43 44  2  0
 44 45  1  0
 45 46  2  0
M  END
$$$$
