
     RDKit          3D

 46 53  0  0  0  0  0  0  0  0999 V2000
  -12.4368  223.1004   79.6970 O   0  0  0  0  0  0  0  0  0  0  0  0
  -12.2027  221.9281   80.0689 C   0  0  0  0  0  0  0  0  0  0  0  0
  -12.7456  221.2807   81.2200 N   0  0  0  0  0  0  0  0  0  0  0  0
  -13.8459  221.6481   82.1119 C   0  0  0  0  0  0  0  0  0  0  0  0
  -14.0602  220.7353   83.2491 C   0  0  0  0  0  0  0  0  0  0  0  0
  -13.6392  219.3211   83.0992 C   0  0  0  0  0  0  0  0  0  0  0  0
  -12.9345  218.9508   81.8352 C   0  0  0  0  0  0  0  0  0  0  0  0
  -12.0178  220.0642   81.4164 C   0  0  1  0  0  0  0  0  0  0  0  0
  -11.3226  219.8113   80.1439 C   0  0  0  0  0  0  0  0  0  0  0  0
  -11.3200  220.9693   79.4176 C   0  0  0  0  0  0  0  0  0  0  0  0
  -10.6152  220.9805   78.2166 C   0  0  0  0  0  0  0  0  0  0  0  0
   -9.9514  219.8520   77.7860 C   0  0  0  0  0  0  0  0  0  0  0  0
   -9.9812  218.6976   78.5418 C   0  0  0  0  0  0  0  0  0  0  0  0
  -10.6706  218.6636   79.7359 C   0  0  0  0  0  0  0  0  0  0  0  0
  -10.6666  217.4505   80.4564 N   0  0  0  0  0  0  0  0  0  0  0  0
   -9.9592  216.2685   80.0905 C   0  0  0  0  0  0  0  0  0  0  0  0
  -10.5783  215.3721   79.5340 O   0  0  0  0  0  0  0  0  0  0  0  0
   -8.5850  216.1136   80.3536 N   0  0  0  0  0  0  0  0  0  0  0  0
   -7.7827  214.9760   80.1604 C   0  0  0  0  0  0  0  0  0  0  0  0
   -6.4159  214.9516   80.3128 C   0  0  0  0  0  0  0  0  0  0  0  0
   -8.3799  213.8090   79.7935 N   0  0  0  0  0  0  0  0  0  0  0  0
   -7.7102  212.6747   79.5802 C   0  0  0  0  0  0  0  0  0  0  0  0
   -6.3295  212.6431   79.7309 C   0  0  0  0  0  0  0  0  0  0  0  0
   -5.6708  213.7858   80.0993 C   0  0  0  0  0  0  0  0  0  0  0  0
   -4.2170  213.7912   80.2433 C   0  0  0  0  0  0  0  0  0  0  0  0
   -3.3486  213.0585   79.4490 C   0  0  0  0  0  0  0  0  0  0  0  0
   -3.4287  214.4809   81.0733 N   0  0  0  0  0  0  0  0  0  0  0  0
   -2.1475  214.1961   80.8122 N   0  0  0  0  0  0  0  0  0  0  0  0
   -2.0674  213.3185   79.8096 N   0  0  0  0  0  0  0  0  0  0  0  0
   -0.8694  212.7887   79.2083 C   0  0  0  0  0  0  0  0  0  0  0  0
   -0.3578  211.5853   79.8991 C   0  0  0  0  0  0  0  0  0  0  0  0
   -1.3327  210.5477   80.1574 N   0  0  0  0  0  0  0  0  0  0  0  0
   -1.8804  210.4422   81.4714 C   0  0  0  0  0  0  0  0  0  0  0  0
   -3.1932  210.0911   81.6633 C   0  0  0  0  0  0  0  0  0  0  0  0
   -4.1051  209.8246   80.5246 C   0  0  0  0  0  0  0  0  0  0  0  0
   -4.8803  208.5735   80.7588 C   0  0  0  0  0  0  0  0  0  0  0  0
   -5.4106  208.4082   82.1470 C   0  0  0  0  0  0  0  0  0  0  0  0
   -5.1681  209.5964   83.0373 C   0  0  0  0  0  0  0  0  0  0  0  0
   -3.7480  209.9750   82.9438 C   0  0  0  0  0  0  0  0  0  0  0  0
   -2.9684  210.2157   84.0100 N   0  0  0  0  0  0  0  0  0  0  0  0
   -1.6853  210.5600   83.8583 C   0  0  0  0  0  0  0  0  0  0  0  0
   -1.1034  210.6832   82.5868 C   0  0  0  0  0  0  0  0  0  0  0  0
    0.2136  211.0362   82.4465 C   0  0  0  0  0  0  0  0  0  0  0  0
    1.0122  211.2823   83.5317 C   0  0  0  0  0  0  0  0  0  0  0  0
    0.4437  211.1627   84.7934 C   0  0  0  0  0  0  0  0  0  0  0  0
   -0.8935  210.8049   84.9506 C   0  0  0  0  0  0  0  0  0  0  0  0
  1  2  2  0
  2  3  1  0
  2 10  1  0
  3  4  1  0
  3  8  1  0
  4  5  1  0
  5  6  1  0
  6  7  1  0
  8  7  1  6
  8  9  1  0
  9 10  2  0
  9 14  1  0
 10 11  1  0
 11 12  2  0
 12 13  1  0
 13 14  2  0
 14 15  1  0
 15 16  1  0
 16 17  2  0
 16 18  1  0
 18 19  1  0
 19 20  2  0
 19 21  1  0
 20 24  1  0
 21 22  2  0
 22 23  1  0
 23 24  2  0
 24 25  1  0
 25 26  2  0
 25 27  1  0
 26 29  1  0
 27 28  2  0
 28 29  1  0
 29 30  1  0
 30 31  1  0
 31 32  1  0
 32 33  1  0
 33 34  1  0
 33 42  2  0
 34 35  1  0
 34 39  2  0
 35 36  1  0
 36 37  1  0
 37 38  1  0
 38 39  1  0
 39 40  1  0
 40 41  2  0
 41 42  1  0
 41 46  1  0
 42 43  1  0
 43 44  2  0
 44 45  1  0
 45 46  2  0
M  END
$$$$
