
     RDKit          3D

 46 53  0  0  0  0  0  0  0  0999 V2000
   -7.8773  219.2662   81.3859 O   0  0  0  0  0  0  0  0  0  0  0  0
   -8.2666  218.0844   81.2475 C   0  0  0  0  0  0  0  0  0  0  0  0
   -7.9729  216.9891   82.1152 N   0  0  0  0  0  0  0  0  0  0  0  0
   -7.3941  216.9429   83.4584 C   0  0  0  0  0  0  0  0  0  0  0  0
   -7.1844  215.5892   84.0024 C   0  0  0  0  0  0  0  0  0  0  0  0
   -8.0551  214.4948   83.5086 C   0  0  0  0  0  0  0  0  0  0  0  0
   -9.0182  214.8307   82.4173 C   0  0  0  0  0  0  0  0  0  0  0  0
   -8.3820  215.7890   81.4517 C   0  0  1  0  0  0  0  0  0  0  0  0
   -9.2812  216.2237   80.3704 C   0  0  0  0  0  0  0  0  0  0  0  0
   -9.0956  217.5628   80.1688 C   0  0  0  0  0  0  0  0  0  0  0  0
   -9.7758  218.1604   79.1107 C   0  0  0  0  0  0  0  0  0  0  0  0
  -10.6084  217.4136   78.3054 C   0  0  0  0  0  0  0  0  0  0  0  0
  -10.7776  216.0645   78.5424 C   0  0  0  0  0  0  0  0  0  0  0  0
  -10.1124  215.4505   79.5829 C   0  0  0  0  0  0  0  0  0  0  0  0
  -10.3345  214.0704   79.7744 N   0  0  0  0  0  0  0  0  0  0  0  0
  -11.5697  213.4728   80.1599 C   0  0  0  0  0  0  0  0  0  0  0  0
  -12.5232  214.2061   80.3824 O   0  0  0  0  0  0  0  0  0  0  0  0
  -11.7119  212.0782   80.2893 N   0  0  0  0  0  0  0  0  0  0  0  0
  -10.7624  211.0764   80.0252 C   0  0  0  0  0  0  0  0  0  0  0  0
   -9.4660  211.3155   79.6323 C   0  0  0  0  0  0  0  0  0  0  0  0
  -11.1325  209.7730   80.1581 N   0  0  0  0  0  0  0  0  0  0  0  0
  -10.3108  208.7473   79.9271 C   0  0  0  0  0  0  0  0  0  0  0  0
   -9.0007  208.9814   79.5287 C   0  0  0  0  0  0  0  0  0  0  0  0
   -8.5682  210.2720   79.3778 C   0  0  0  0  0  0  0  0  0  0  0  0
   -7.2035  210.5512   78.9375 C   0  0  0  0  0  0  0  0  0  0  0  0
   -6.7111  211.8189   78.6688 C   0  0  0  0  0  0  0  0  0  0  0  0
   -6.1669  209.7295   78.7469 N   0  0  0  0  0  0  0  0  0  0  0  0
   -5.0940  210.4414   78.3823 N   0  0  0  0  0  0  0  0  0  0  0  0
   -5.4012  211.7392   78.3269 N   0  0  0  0  0  0  0  0  0  0  0  0
   -4.5163  212.8318   78.0099 C   0  0  0  0  0  0  0  0  0  0  0  0
   -4.0998  213.6043   79.2004 C   0  0  0  0  0  0  0  0  0  0  0  0
   -2.7795  213.3061   79.7117 N   0  0  0  0  0  0  0  0  0  0  0  0
   -2.6563  212.8843   81.0698 C   0  0  0  0  0  0  0  0  0  0  0  0
   -1.7526  211.9161   81.4295 C   0  0  0  0  0  0  0  0  0  0  0  0
   -0.8799  211.2523   80.4311 C   0  0  0  0  0  0  0  0  0  0  0  0
    0.5260  211.1960   80.9224 C   0  0  0  0  0  0  0  0  0  0  0  0
    0.6787  210.8189   82.3612 C   0  0  0  0  0  0  0  0  0  0  0  0
   -0.6141  210.4452   83.0337 C   0  0  0  0  0  0  0  0  0  0  0  0
   -1.6109  211.4933   82.7570 C   0  0  0  0  0  0  0  0  0  0  0  0
   -2.3845  212.0546   83.6999 N   0  0  0  0  0  0  0  0  0  0  0  0
   -3.2750  213.0005   83.3835 C   0  0  0  0  0  0  0  0  0  0  0  0
   -3.4376  213.4433   82.0613 C   0  0  0  0  0  0  0  0  0  0  0  0
   -4.3541  214.4144   81.7518 C   0  0  0  0  0  0  0  0  0  0  0  0
   -5.1448  214.9896   82.7108 C   0  0  0  0  0  0  0  0  0  0  0  0
   -4.9902  214.5566   84.0215 C   0  0  0  0  0  0  0  0  0  0  0  0
   -4.0627  213.5704   84.3503 C   0  0  0  0  0  0  0  0  0  0  0  0
  1  2  2  0
  2  3  1  0
  2 10  1  0
  3  4  1  0
  3  8  1  0
  4  5  1  0
  5  6  1  0
  6  7  1  0
  8  7  1  1
  8  9  1  0
  9 10  2  0
  9 14  1  0
 10 11  1  0
 11 12  2  0
 12 13  1  0
 13 14  2  0
 14 15  1  0
 15 16  1  0
 16 17  2  0
 16 18  1  0
 18 19  1  0
 19 20  2  0
 19 21  1  0
 20 24  1  0
 21 22  2  0
 22 23  1  0
 23 24  2  0
 24 25  1  0
 25 26  2  0
 25 27  1  0
 26 29  1  0
 27 28  2  0
 28 29  1  0
 29 30  1  0
 30 31  1  0
 31 32  1  0
 32 33  1  0
 33 34  1  0
 33 42  2  0
 34 35  1  0
 34 39  2  0
 35 36  1  0
 36 37  1  0
 37 38  1  0
 38 39  1  0
 39 40  1  0
 40 41  2  0
 41 42  1  0
 41 46  1  0
 42 43  1  0
 43 44  2  0
 44 45  1  0
 45 46  2  0
M  END
$$$$
