
     RDKit          3D

 46 53  0  0  0  0  0  0  0  0999 V2000
  -13.2163  221.2398   82.1089 O   0  0  0  0  0  0  0  0  0  0  0  0
  -12.4461  220.6565   81.3127 C   0  0  0  0  0  0  0  0  0  0  0  0
  -12.2717  220.9594   79.9282 N   0  0  0  0  0  0  0  0  0  0  0  0
  -12.6993  222.1045   79.1237 C   0  0  0  0  0  0  0  0  0  0  0  0
  -12.3785  222.0143   77.6880 C   0  0  0  0  0  0  0  0  0  0  0  0
  -11.2153  221.1884   77.2822 C   0  0  0  0  0  0  0  0  0  0  0  0
  -10.5134  220.4258   78.3578 C   0  0  0  0  0  0  0  0  0  0  0  0
  -11.5141  219.8951   79.3440 C   0  0  1  0  0  0  0  0  0  0  0  0
  -10.9059  219.1771   80.4759 C   0  0  0  0  0  0  0  0  0  0  0  0
  -11.5659  219.5363   81.6178 C   0  0  0  0  0  0  0  0  0  0  0  0
  -11.2178  218.8878   82.8000 C   0  0  0  0  0  0  0  0  0  0  0  0
  -10.2351  217.9214   82.8029 C   0  0  0  0  0  0  0  0  0  0  0  0
   -9.5844  217.5887   81.6321 C   0  0  0  0  0  0  0  0  0  0  0  0
   -9.9140  218.2158   80.4487 C   0  0  0  0  0  0  0  0  0  0  0  0
   -9.2062  217.8338   79.2896 N   0  0  0  0  0  0  0  0  0  0  0  0
   -8.6307  216.5517   79.0515 C   0  0  0  0  0  0  0  0  0  0  0  0
   -8.4895  215.7949   80.0022 O   0  0  0  0  0  0  0  0  0  0  0  0
   -8.2268  216.1458   77.7655 N   0  0  0  0  0  0  0  0  0  0  0  0
   -7.2186  215.2313   77.4159 C   0  0  0  0  0  0  0  0  0  0  0  0
   -6.9788  214.0470   78.0732 C   0  0  0  0  0  0  0  0  0  0  0  0
   -6.4108  215.5207   76.3591 N   0  0  0  0  0  0  0  0  0  0  0  0
   -5.4221  214.7241   75.9485 C   0  0  0  0  0  0  0  0  0  0  0  0
   -5.1734  213.5272   76.6085 C   0  0  0  0  0  0  0  0  0  0  0  0
   -5.9529  213.1797   77.6795 C   0  0  0  0  0  0  0  0  0  0  0  0
   -5.7019  211.9393   78.4092 C   0  0  0  0  0  0  0  0  0  0  0  0
   -6.4493  211.5027   79.4921 C   0  0  0  0  0  0  0  0  0  0  0  0
   -4.7977  210.9772   78.2022 N   0  0  0  0  0  0  0  0  0  0  0  0
   -4.9710  210.0006   79.1005 N   0  0  0  0  0  0  0  0  0  0  0  0
   -5.9883  210.2984   79.9119 N   0  0  0  0  0  0  0  0  0  0  0  0
   -6.5134  209.4910   80.9841 C   0  0  0  0  0  0  0  0  0  0  0  0
   -5.4629  208.9712   81.8861 C   0  0  0  0  0  0  0  0  0  0  0  0
   -5.1036  209.8317   82.9925 N   0  0  0  0  0  0  0  0  0  0  0  0
   -4.1475  210.8669   82.7652 C   0  0  0  0  0  0  0  0  0  0  0  0
   -2.8006  210.6089   82.8193 C   0  0  0  0  0  0  0  0  0  0  0  0
   -2.2761  209.2576   83.1325 C   0  0  0  0  0  0  0  0  0  0  0  0
   -1.1943  208.8838   82.1781 C   0  0  0  0  0  0  0  0  0  0  0  0
   -0.2156  209.9723   81.8731 C   0  0  0  0  0  0  0  0  0  0  0  0
   -0.4272  211.2252   82.6786 C   0  0  0  0  0  0  0  0  0  0  0  0
   -1.8465  211.6084   82.5924 C   0  0  0  0  0  0  0  0  0  0  0  0
   -2.2676  212.8526   82.3148 N   0  0  0  0  0  0  0  0  0  0  0  0
   -3.5725  213.1380   82.2545 C   0  0  0  0  0  0  0  0  0  0  0  0
   -4.5503  212.1557   82.4773 C   0  0  0  0  0  0  0  0  0  0  0  0
   -5.8845  212.4626   82.4115 C   0  0  0  0  0  0  0  0  0  0  0  0
   -6.3180  213.7307   82.1283 C   0  0  0  0  0  0  0  0  0  0  0  0
   -5.3567  214.7085   81.9069 C   0  0  0  0  0  0  0  0  0  0  0  0
   -3.9973  214.4105   81.9708 C   0  0  0  0  0  0  0  0  0  0  0  0
  1  2  2  0
  2  3  1  0
  2 10  1  0
  3  4  1  0
  3  8  1  0
  4  5  1  0
  5  6  1  0
  6  7  1  0
  8  7  1  6
  8  9  1  0
  9 10  2  0
  9 14  1  0
 10 11  1  0
 11 12  2  0
 12 13  1  0
 13 14  2  0
 14 15  1  0
 15 16  1  0
 16 17  2  0
 16 18  1  0
 18 19  1  0
 19 20  2  0
 19 21  1  0
 20 24  1  0
 21 22  2  0
 22 23  1  0
 23 24  2  0
 24 25  1  0
 25 26  2  0
 25 27  1  0
 26 29  1  0
 27 28  2  0
 28 29  1  0
 29 30  1  0
 30 31  1  0
 31 32  1  0
 32 33  1  0
 33 34  1  0
 33 42  2  0
 34 35  1  0
 34 39  2  0
 35 36  1  0
 36 37  1  0
 37 38  1  0
 38 39  1  0
 39 40  1  0
 40 41  2  0
 41 42  1  0
 41 46  1  0
 42 43  1  0
 43 44  2  0
 44 45  1  0
 45 46  2  0
M  END
$$$$
