
     RDKit          3D

 71 72  0  0  0  0  0  0  0  0999 V2000
  -57.7067  -30.4122  209.2964 C   0  0  1  0  0  0  0  0  0  0  0  0
  -59.6004  -31.7332  210.4388 C   0  0  1  0  0  0  0  0  0  0  0  0
  -60.3622  -30.4870  209.9577 C   0  0  2  0  0  0  0  0  0  0  0  0
  -59.9829  -30.3218  208.4616 C   0  0  1  0  0  0  0  0  0  0  0  0
  -60.7874  -29.2530  207.7059 C   0  0  0  0  0  0  0  0  0  0  0  0
  -58.1017  -31.6974  210.0730 C   0  0  1  0  0  0  0  0  0  0  0  0
  -59.9583  -29.4024  210.7999 O   0  0  0  0  0  0  0  0  0  0  0  0
  -56.3707  -30.5402  208.7954 O   0  0  0  0  0  0  0  0  0  0  0  0
  -59.7738  -31.9307  211.8432 O   0  0  0  0  0  0  0  0  0  0  0  0
  -43.5014  -34.1059  195.2619 C   0  0  0  0  0  0  0  0  0  0  0  0
  -43.9846  -32.6693  195.3830 C   0  0  0  0  0  0  0  0  0  0  0  0
  -44.3667  -32.2327  196.7954 C   0  0  0  0  0  0  0  0  0  0  0  0
  -44.9193  -30.7905  196.7878 C   0  0  0  0  0  0  0  0  0  0  0  0
  -45.4484  -30.3756  198.1675 C   0  0  0  0  0  0  0  0  0  0  0  0
  -45.9754  -31.5701  198.9823 C   0  0  0  0  0  0  0  0  0  0  0  0
  -46.4603  -31.1607  200.3832 C   0  0  0  0  0  0  0  0  0  0  0  0
  -47.9620  -30.8354  200.4869 C   0  0  0  0  0  0  0  0  0  0  0  0
  -48.3073  -29.8461  201.5958 C   0  0  0  0  0  0  0  0  0  0  0  0
  -49.6530  -30.1451  202.2909 C   0  0  0  0  0  0  0  0  0  0  0  0
  -49.5260  -29.8944  203.7953 C   0  0  0  0  0  0  0  0  0  0  0  0
  -50.7844  -30.0331  204.6506 C   0  0  0  0  0  0  0  0  0  0  0  0
  -50.4908  -30.8376  205.9517 C   0  0  0  0  0  0  0  0  0  0  0  0
  -51.7472  -31.4552  206.6135 C   0  0  0  0  0  0  0  0  0  0  0  0
  -53.0906  -30.7712  206.2466 C   0  0  1  0  0  0  0  0  0  0  0  0
  -53.6316  -31.4438  205.1082 O   0  0  0  0  0  0  0  0  0  0  0  0
  -54.0919  -30.8331  207.4483 C   0  0  1  0  0  0  0  0  0  0  0  0
  -53.7818  -31.9559  208.2867 O   0  0  0  0  0  0  0  0  0  0  0  0
  -54.2288  -29.5238  208.2869 C   0  0  2  0  0  0  0  0  0  0  0  0
  -55.6083  -29.3473  208.9536 C   0  0  0  0  0  0  0  0  0  0  0  0
  -57.7988  -32.8931  209.3043 O   0  0  0  0  0  0  0  0  0  0  0  0
  -58.5909  -30.0918  208.2145 O   0  0  0  0  0  0  0  0  0  0  0  0
  -60.0202  -28.0985  207.4194 O   0  0  0  0  0  0  0  0  0  0  0  0
  -61.0238  -28.6871  211.4297 C   0  0  0  0  0  0  0  0  0  0  0  0
  -60.4388  -27.6253  212.3235 C   0  0  0  0  0  0  0  0  0  0  0  0
  -59.3687  -26.8286  211.8836 C   0  0  0  0  0  0  0  0  0  0  0  0
  -58.8146  -25.8625  212.7235 C   0  0  0  0  0  0  0  0  0  0  0  0
  -59.3232  -25.6575  214.0163 C   0  0  0  0  0  0  0  0  0  0  0  0
  -58.7006  -24.6417  214.9380 C   0  0  2  0  0  0  0  0  0  0  0  0
  -57.3993  -24.9312  215.2485 F   0  0  0  0  0  0  0  0  0  0  0  0
  -59.3502  -24.5381  216.1323 F   0  0  0  0  0  0  0  0  0  0  0  0
  -58.6706  -23.3815  214.4170 F   0  0  0  0  0  0  0  0  0  0  0  0
  -60.3921  -26.4541  214.4538 C   0  0  0  0  0  0  0  0  0  0  0  0
  -60.9483  -27.4214  213.6126 C   0  0  0  0  0  0  0  0  0  0  0  0
  -53.8657  -28.3415  207.4753 N   0  0  0  0  0  0  0  0  0  0  0  0
  -52.8465  -27.4852  207.8609 C   0  0  0  0  0  0  0  0  0  0  0  0
  -52.4221  -27.4195  209.0083 O   0  0  0  0  0  0  0  0  0  0  0  0
  -52.2960  -26.5885  206.7636 C   0  0  0  0  0  0  0  0  0  0  0  0
  -51.3243  -25.5187  207.2916 C   0  0  0  0  0  0  0  0  0  0  0  0
  -51.9854  -24.5757  208.3144 C   0  0  0  0  0  0  0  0  0  0  0  0
  -51.1083  -24.2335  209.5234 C   0  0  0  0  0  0  0  0  0  0  0  0
  -49.7110  -23.6897  209.2321 C   0  0  0  0  0  0  0  0  0  0  0  0
  -48.7422  -23.7843  210.4239 C   0  0  0  0  0  0  0  0  0  0  0  0
  -47.3807  -23.1477  210.0869 C   0  0  0  0  0  0  0  0  0  0  0  0
  -47.4477  -22.0251  209.0435 C   0  0  0  0  0  0  0  0  0  0  0  0
  -46.4900  -20.8762  209.3963 C   0  0  0  0  0  0  0  0  0  0  0  0
  -45.3960  -20.6044  208.3459 C   0  0  0  0  0  0  0  0  0  0  0  0
  -44.0225  -20.3094  208.9679 C   0  0  0  0  0  0  0  0  0  0  0  0
  -42.8555  -20.8457  208.1209 C   0  0  0  0  0  0  0  0  0  0  0  0
  -41.4627  -20.5839  208.7341 C   0  0  0  0  0  0  0  0  0  0  0  0
  -40.3249  -21.1395  207.8735 C   0  0  0  0  0  0  0  0  0  0  0  0
  -39.5694  -22.3357  208.4820 C   0  0  0  0  0  0  0  0  0  0  0  0
  -39.9258  -23.6154  207.7125 C   0  0  0  0  0  0  0  0  0  0  0  0
  -38.7550  -24.5831  207.4941 C   0  0  0  0  0  0  0  0  0  0  0  0
  -39.2572  -26.0373  207.3748 C   0  0  0  0  0  0  0  0  0  0  0  0
  -40.1760  -26.2181  206.1565 C   0  0  0  0  0  0  0  0  0  0  0  0
  -40.5722  -27.6831  205.8875 C   0  0  0  0  0  0  0  0  0  0  0  0
  -40.7563  -28.4343  207.2095 C   0  0  0  0  0  0  0  0  0  0  0  0
  -41.0856  -29.9190  207.0580 C   0  0  0  0  0  0  0  0  0  0  0  0
  -41.2757  -30.5732  208.4419 C   0  0  0  0  0  0  0  0  0  0  0  0
  -42.6032  -31.3108  208.5917 C   0  0  0  0  0  0  0  0  0  0  0  0
  -42.7290  -31.9651  209.9642 C   0  0  0  0  0  0  0  0  0  0  0  0
  1  6  1  0
  1  8  1  6
  1 31  1  0
  2  3  1  0
  6  2  1  0
  2  9  1  1
  4  3  1  0
  3  7  1  1
  4  5  1  1
 31  4  1  0
  5 32  1  0
  6 30  1  6
  7 33  1  0
 29  8  1  0
 11 10  1  0
 12 11  1  0
 13 12  1  0
 14 13  1  0
 15 14  1  0
 16 15  1  0
 17 16  1  0
 18 17  1  0
 19 18  1  0
 20 19  1  0
 21 20  1  0
 22 21  1  0
 23 22  1  0
 24 23  1  0
 24 25  1  6
 26 24  1  0
 26 27  1  1
 28 26  1  0
 28 29  1  6
 28 44  1  0
 33 34  1  0
 34 35  2  0
 34 43  1  0
 35 36  1  0
 36 37  2  0
 37 38  1  0
 37 42  1  0
 38 39  1  1
 38 40  1  0
 38 41  1  0
 42 43  2  0
 44 45  1  0
 45 46  2  0
 45 47  1  0
 47 48  1  0
 48 49  1  0
 49 50  1  0
 50 51  1  0
 51 52  1  0
 52 53  1  0
 53 54  1  0
 54 55  1  0
 55 56  1  0
 56 57  1  0
 57 58  1  0
 58 59  1  0
 59 60  1  0
 60 61  1  0
 61 62  1  0
 62 63  1  0
 63 64  1  0
 64 65  1  0
 65 66  1  0
 66 67  1  0
 67 68  1  0
 68 69  1  0
 69 70  1  0
 70 71  1  0
M  END
$$$$
