
     RDKit          3D

 71 72  0  0  0  0  0  0  0  0999 V2000
  -55.2091  -32.8000  209.1227 C   0  0  1  0  0  0  0  0  0  0  0  0
  -55.4916  -35.1308  208.0626 C   0  0  1  0  0  0  0  0  0  0  0  0
  -56.6842  -35.1044  209.0329 C   0  0  2  0  0  0  0  0  0  0  0  0
  -57.4086  -33.7585  208.7623 C   0  0  1  0  0  0  0  0  0  0  0  0
  -58.7592  -33.5972  209.4767 C   0  0  0  0  0  0  0  0  0  0  0  0
  -54.6525  -33.8366  208.1093 C   0  0  1  0  0  0  0  0  0  0  0  0
  -56.1485  -35.2398  210.3533 O   0  0  0  0  0  0  0  0  0  0  0  0
  -54.5295  -31.5495  208.9590 O   0  0  0  0  0  0  0  0  0  0  0  0
  -54.6685  -36.2760  208.2916 O   0  0  0  0  0  0  0  0  0  0  0  0
  -46.1228  -13.7437  206.9365 C   0  0  0  0  0  0  0  0  0  0  0  0
  -47.4271  -14.4361  206.5739 C   0  0  0  0  0  0  0  0  0  0  0  0
  -47.7988  -15.6209  207.4625 C   0  0  0  0  0  0  0  0  0  0  0  0
  -47.8262  -16.9287  206.6413 C   0  0  0  0  0  0  0  0  0  0  0  0
  -48.0799  -18.1543  207.5297 C   0  0  0  0  0  0  0  0  0  0  0  0
  -49.4369  -18.8215  207.2433 C   0  0  0  0  0  0  0  0  0  0  0  0
  -49.7020  -20.0333  208.1523 C   0  0  0  0  0  0  0  0  0  0  0  0
  -51.1248  -20.6165  208.0673 C   0  0  0  0  0  0  0  0  0  0  0  0
  -51.1723  -22.1413  208.0842 C   0  0  0  0  0  0  0  0  0  0  0  0
  -51.6126  -22.7288  209.4424 C   0  0  0  0  0  0  0  0  0  0  0  0
  -51.1128  -24.1696  209.5702 C   0  0  0  0  0  0  0  0  0  0  0  0
  -51.4301  -24.9231  210.8609 C   0  0  0  0  0  0  0  0  0  0  0  0
  -52.5173  -26.0123  210.6201 C   0  0  0  0  0  0  0  0  0  0  0  0
  -52.0768  -27.4455  211.0071 C   0  0  0  0  0  0  0  0  0  0  0  0
  -53.2306  -28.4700  211.1693 C   0  0  1  0  0  0  0  0  0  0  0  0
  -53.6756  -28.4221  212.5261 O   0  0  0  0  0  0  0  0  0  0  0  0
  -54.4087  -28.1390  210.1931 C   0  0  1  0  0  0  0  0  0  0  0  0
  -54.2975  -26.7841  209.7331 O   0  0  0  0  0  0  0  0  0  0  0  0
  -54.5997  -29.1261  208.9992 C   0  0  2  0  0  0  0  0  0  0  0  0
  -55.3159  -30.4383  209.3786 C   0  0  0  0  0  0  0  0  0  0  0  0
  -54.6014  -33.2863  206.7652 O   0  0  0  0  0  0  0  0  0  0  0  0
  -56.6233  -32.5888  209.0207 O   0  0  0  0  0  0  0  0  0  0  0  0
  -58.6320  -32.9794  210.7438 O   0  0  0  0  0  0  0  0  0  0  0  0
  -56.5603  -36.4100  211.0638 C   0  0  0  0  0  0  0  0  0  0  0  0
  -55.4837  -36.7899  212.0462 C   0  0  0  0  0  0  0  0  0  0  0  0
  -55.3239  -36.0758  213.2453 C   0  0  0  0  0  0  0  0  0  0  0  0
  -54.3103  -36.4162  214.1411 C   0  0  0  0  0  0  0  0  0  0  0  0
  -53.4412  -37.4855  213.8701 C   0  0  0  0  0  0  0  0  0  0  0  0
  -52.3220  -37.8291  214.8180 C   0  0  2  0  0  0  0  0  0  0  0  0
  -51.4635  -38.7667  214.3107 F   0  0  0  0  0  0  0  0  0  0  0  0
  -52.7656  -38.3379  216.0027 F   0  0  0  0  0  0  0  0  0  0  0  0
  -51.5353  -36.7623  215.1393 F   0  0  0  0  0  0  0  0  0  0  0  0
  -53.6026  -38.1975  212.6720 C   0  0  0  0  0  0  0  0  0  0  0  0
  -54.6184  -37.8577  211.7747 C   0  0  0  0  0  0  0  0  0  0  0  0
  -53.3090  -29.3902  208.3262 N   0  0  0  0  0  0  0  0  0  0  0  0
  -53.0537  -28.9275  207.0451 C   0  0  0  0  0  0  0  0  0  0  0  0
  -53.7514  -28.0938  206.4803 O   0  0  0  0  0  0  0  0  0  0  0  0
  -51.8527  -29.5511  206.3523 C   0  0  0  0  0  0  0  0  0  0  0  0
  -51.6259  -29.0035  204.9323 C   0  0  0  0  0  0  0  0  0  0  0  0
  -50.1924  -28.4799  204.7247 C   0  0  0  0  0  0  0  0  0  0  0  0
  -50.0333  -27.5112  203.5481 C   0  0  0  0  0  0  0  0  0  0  0  0
  -48.6466  -26.9087  203.3313 C   0  0  0  0  0  0  0  0  0  0  0  0
  -48.3377  -26.5626  201.8641 C   0  0  0  0  0  0  0  0  0  0  0  0
  -47.1999  -27.4420  201.3121 C   0  0  0  0  0  0  0  0  0  0  0  0
  -46.0666  -26.6601  200.6356 C   0  0  0  0  0  0  0  0  0  0  0  0
  -44.9020  -27.5855  200.2494 C   0  0  0  0  0  0  0  0  0  0  0  0
  -43.6198  -27.3878  201.0806 C   0  0  0  0  0  0  0  0  0  0  0  0
  -42.6950  -28.6145  201.0638 C   0  0  0  0  0  0  0  0  0  0  0  0
  -41.3494  -28.3578  201.7642 C   0  0  0  0  0  0  0  0  0  0  0  0
  -41.2425  -26.9679  202.4282 C   0  0  0  0  0  0  0  0  0  0  0  0
  -40.1805  -26.9200  203.5298 C   0  0  0  0  0  0  0  0  0  0  0  0
  -40.7110  -27.1386  204.9590 C   0  0  0  0  0  0  0  0  0  0  0  0
  -39.8293  -28.1647  205.6845 C   0  0  0  0  0  0  0  0  0  0  0  0
  -40.3386  -28.5876  207.0690 C   0  0  0  0  0  0  0  0  0  0  0  0
  -39.6069  -27.8132  208.1853 C   0  0  0  0  0  0  0  0  0  0  0  0
  -40.5976  -27.1066  209.1235 C   0  0  0  0  0  0  0  0  0  0  0  0
  -39.9228  -26.3379  210.2765 C   0  0  0  0  0  0  0  0  0  0  0  0
  -40.8943  -25.3141  210.8718 C   0  0  0  0  0  0  0  0  0  0  0  0
  -42.1379  -25.0483  210.0243 C   0  0  0  0  0  0  0  0  0  0  0  0
  -43.0497  -24.0131  210.7144 C   0  0  0  0  0  0  0  0  0  0  0  0
  -43.1604  -24.2071  212.2240 C   0  0  0  0  0  0  0  0  0  0  0  0
  -44.4341  -23.5760  212.7782 C   0  0  0  0  0  0  0  0  0  0  0  0
  1  6  1  0
  1  8  1  6
  1 31  1  0
  2  3  1  0
  6  2  1  0
  2  9  1  1
  4  3  1  0
  3  7  1  1
  4  5  1  1
 31  4  1  0
  5 32  1  0
  6 30  1  6
  7 33  1  0
 29  8  1  0
 11 10  1  0
 12 11  1  0
 13 12  1  0
 14 13  1  0
 15 14  1  0
 16 15  1  0
 17 16  1  0
 18 17  1  0
 19 18  1  0
 20 19  1  0
 21 20  1  0
 22 21  1  0
 23 22  1  0
 24 23  1  0
 24 25  1  1
 26 24  1  0
 26 27  1  6
 28 26  1  0
 28 29  1  1
 28 44  1  0
 33 34  1  0
 34 35  2  0
 34 43  1  0
 35 36  1  0
 36 37  2  0
 37 38  1  0
 37 42  1  0
 38 39  1  6
 38 40  1  0
 38 41  1  0
 42 43  2  0
 44 45  1  0
 45 46  2  0
 45 47  1  0
 47 48  1  0
 48 49  1  0
 49 50  1  0
 50 51  1  0
 51 52  1  0
 52 53  1  0
 53 54  1  0
 54 55  1  0
 55 56  1  0
 56 57  1  0
 57 58  1  0
 58 59  1  0
 59 60  1  0
 60 61  1  0
 61 62  1  0
 62 63  1  0
 63 64  1  0
 64 65  1  0
 65 66  1  0
 66 67  1  0
 67 68  1  0
 68 69  1  0
 69 70  1  0
 70 71  1  0
M  END
$$$$
