
     RDKit          3D

 71 72  0  0  0  0  0  0  0  0999 V2000
  -56.8617  -27.0217  211.8700 C   0  0  1  0  0  0  0  0  0  0  0  0
  -58.1979  -27.1531  214.0685 C   0  0  1  0  0  0  0  0  0  0  0  0
  -59.3365  -27.1297  213.0352 C   0  0  2  0  0  0  0  0  0  0  0  0
  -58.9696  -28.2169  211.9900 C   0  0  1  0  0  0  0  0  0  0  0  0
  -60.0697  -28.5209  210.9613 C   0  0  0  0  0  0  0  0  0  0  0  0
  -56.7991  -27.0891  213.4200 C   0  0  1  0  0  0  0  0  0  0  0  0
  -59.3984  -25.7975  212.5154 O   0  0  0  0  0  0  0  0  0  0  0  0
  -55.5478  -27.1897  211.3243 O   0  0  0  0  0  0  0  0  0  0  0  0
  -58.3571  -26.1100  215.0319 O   0  0  0  0  0  0  0  0  0  0  0  0
  -50.0081  -32.4472  193.9995 C   0  0  0  0  0  0  0  0  0  0  0  0
  -50.6109  -31.0531  193.9273 C   0  0  0  0  0  0  0  0  0  0  0  0
  -49.9913  -30.0310  194.8776 C   0  0  0  0  0  0  0  0  0  0  0  0
  -50.3888  -30.3363  196.3385 C   0  0  0  0  0  0  0  0  0  0  0  0
  -49.7724  -29.3293  197.3191 C   0  0  0  0  0  0  0  0  0  0  0  0
  -50.2414  -29.5518  198.7679 C   0  0  0  0  0  0  0  0  0  0  0  0
  -49.5820  -28.5769  199.7578 C   0  0  0  0  0  0  0  0  0  0  0  0
  -49.8274  -28.8891  201.2457 C   0  0  0  0  0  0  0  0  0  0  0  0
  -48.8764  -28.1678  202.1960 C   0  0  0  0  0  0  0  0  0  0  0  0
  -49.5604  -27.6590  203.4831 C   0  0  0  0  0  0  0  0  0  0  0  0
  -50.9964  -28.1840  203.5490 C   0  0  0  0  0  0  0  0  0  0  0  0
  -51.6705  -28.2485  204.9186 C   0  0  0  0  0  0  0  0  0  0  0  0
  -52.5962  -27.0163  205.1452 C   0  0  0  0  0  0  0  0  0  0  0  0
  -53.1982  -26.9278  206.5691 C   0  0  0  0  0  0  0  0  0  0  0  0
  -53.4975  -28.2917  207.2455 C   0  0  1  0  0  0  0  0  0  0  0  0
  -52.2830  -28.7734  207.8234 O   0  0  0  0  0  0  0  0  0  0  0  0
  -54.6039  -28.1371  208.3421 C   0  0  1  0  0  0  0  0  0  0  0  0
  -55.7730  -28.8800  207.9662 O   0  0  0  0  0  0  0  0  0  0  0  0
  -54.1661  -28.4749  209.8016 C   0  0  2  0  0  0  0  0  0  0  0  0
  -55.3285  -28.5019  210.8148 C   0  0  0  0  0  0  0  0  0  0  0  0
  -56.0434  -28.2467  213.8682 O   0  0  0  0  0  0  0  0  0  0  0  0
  -57.7468  -27.9837  211.2815 O   0  0  0  0  0  0  0  0  0  0  0  0
  -60.2344  -29.9089  210.7377 O   0  0  0  0  0  0  0  0  0  0  0  0
  -60.4017  -24.9603  213.0951 C   0  0  0  0  0  0  0  0  0  0  0  0
  -60.3549  -23.6092  212.4308 C   0  0  0  0  0  0  0  0  0  0  0  0
  -61.4091  -23.1786  211.6084 C   0  0  0  0  0  0  0  0  0  0  0  0
  -61.3506  -21.9364  210.9764 C   0  0  0  0  0  0  0  0  0  0  0  0
  -60.2469  -21.0879  211.1606 C   0  0  0  0  0  0  0  0  0  0  0  0
  -60.1648  -19.7634  210.4478 C   0  0  2  0  0  0  0  0  0  0  0  0
  -61.2325  -18.9489  210.7128 F   0  0  0  0  0  0  0  0  0  0  0  0
  -60.1264  -19.8910  209.0909 F   0  0  0  0  0  0  0  0  0  0  0  0
  -59.0652  -19.0312  210.7869 F   0  0  0  0  0  0  0  0  0  0  0  0
  -59.1951  -21.5198  211.9825 C   0  0  0  0  0  0  0  0  0  0  0  0
  -59.2535  -22.7636  212.6168 C   0  0  0  0  0  0  0  0  0  0  0  0
  -53.0828  -27.5708  210.2461 N   0  0  0  0  0  0  0  0  0  0  0  0
  -51.7642  -27.9941  210.2999 C   0  0  0  0  0  0  0  0  0  0  0  0
  -51.4403  -29.1675  210.4375 O   0  0  0  0  0  0  0  0  0  0  0  0
  -50.7202  -26.8927  210.2105 C   0  0  0  0  0  0  0  0  0  0  0  0
  -49.5053  -27.2836  209.3509 C   0  0  0  0  0  0  0  0  0  0  0  0
  -48.6515  -28.3864  210.0045 C   0  0  0  0  0  0  0  0  0  0  0  0
  -47.4208  -28.8031  209.1922 C   0  0  0  0  0  0  0  0  0  0  0  0
  -47.5303  -28.7051  207.6719 C   0  0  0  0  0  0  0  0  0  0  0  0
  -47.6766  -30.0649  206.9665 C   0  0  0  0  0  0  0  0  0  0  0  0
  -47.8918  -29.8864  205.4518 C   0  0  0  0  0  0  0  0  0  0  0  0
  -47.8563  -31.1932  204.6490 C   0  0  0  0  0  0  0  0  0  0  0  0
  -46.9178  -31.0795  203.4374 C   0  0  0  0  0  0  0  0  0  0  0  0
  -47.5904  -31.3387  202.0756 C   0  0  0  0  0  0  0  0  0  0  0  0
  -46.7336  -30.8853  200.8836 C   0  0  0  0  0  0  0  0  0  0  0  0
  -46.5478  -31.9885  199.8276 C   0  0  0  0  0  0  0  0  0  0  0  0
  -45.4361  -31.6910  198.7980 C   0  0  0  0  0  0  0  0  0  0  0  0
  -44.5651  -32.9141  198.4996 C   0  0  0  0  0  0  0  0  0  0  0  0
  -43.4441  -32.6825  197.4693 C   0  0  0  0  0  0  0  0  0  0  0  0
  -42.1638  -33.3915  197.9328 C   0  0  0  0  0  0  0  0  0  0  0  0
  -41.0310  -33.4178  196.8979 C   0  0  0  0  0  0  0  0  0  0  0  0
  -40.0670  -34.5925  197.1660 C   0  0  0  0  0  0  0  0  0  0  0  0
  -38.6043  -34.1234  197.2056 C   0  0  0  0  0  0  0  0  0  0  0  0
  -37.9385  -34.0430  195.8178 C   0  0  0  0  0  0  0  0  0  0  0  0
  -36.4135  -34.0428  195.9601 C   0  0  0  0  0  0  0  0  0  0  0  0
  -35.6616  -33.4729  194.7578 C   0  0  0  0  0  0  0  0  0  0  0  0
  -34.3316  -32.8337  195.2071 C   0  0  0  0  0  0  0  0  0  0  0  0
  -33.1142  -33.7208  194.9624 C   0  0  0  0  0  0  0  0  0  0  0  0
  -31.8149  -32.9933  195.2941 C   0  0  0  0  0  0  0  0  0  0  0  0
  1  6  1  0
  1  8  1  6
  1 31  1  0
  2  3  1  0
  6  2  1  0
  2  9  1  1
  4  3  1  0
  3  7  1  6
  4  5  1  6
 31  4  1  0
  5 32  1  0
  6 30  1  6
  7 33  1  0
 29  8  1  0
 11 10  1  0
 12 11  1  0
 13 12  1  0
 14 13  1  0
 15 14  1  0
 16 15  1  0
 17 16  1  0
 18 17  1  0
 19 18  1  0
 20 19  1  0
 21 20  1  0
 22 21  1  0
 23 22  1  0
 24 23  1  0
 24 25  1  1
 26 24  1  0
 26 27  1  6
 28 26  1  0
 28 29  1  1
 28 44  1  0
 33 34  1  0
 34 35  2  0
 34 43  1  0
 35 36  1  0
 36 37  2  0
 37 38  1  0
 37 42  1  0
 38 39  1  6
 38 40  1  0
 38 41  1  0
 42 43  2  0
 44 45  1  0
 45 46  2  0
 45 47  1  0
 47 48  1  0
 48 49  1  0
 49 50  1  0
 50 51  1  0
 51 52  1  0
 52 53  1  0
 53 54  1  0
 54 55  1  0
 55 56  1  0
 56 57  1  0
 57 58  1  0
 58 59  1  0
 59 60  1  0
 60 61  1  0
 61 62  1  0
 62 63  1  0
 63 64  1  0
 64 65  1  0
 65 66  1  0
 66 67  1  0
 67 68  1  0
 68 69  1  0
 69 70  1  0
 70 71  1  0
M  END
$$$$
