
     RDKit          3D

 71 72  0  0  0  0  0  0  0  0999 V2000
  -56.8105  -29.4710  210.0838 C   0  0  1  0  0  0  0  0  0  0  0  0
  -58.5027  -30.6936  211.5929 C   0  0  1  0  0  0  0  0  0  0  0  0
  -59.0292  -29.2510  211.6723 C   0  0  2  0  0  0  0  0  0  0  0  0
  -59.1287  -28.7650  210.2015 C   0  0  1  0  0  0  0  0  0  0  0  0
  -59.8294  -27.4104  210.0152 C   0  0  0  0  0  0  0  0  0  0  0  0
  -57.2498  -30.8259  210.7020 C   0  0  1  0  0  0  0  0  0  0  0  0
  -58.1067  -28.5162  212.4834 O   0  0  0  0  0  0  0  0  0  0  0  0
  -55.7920  -29.6943  209.1013 O   0  0  0  0  0  0  0  0  0  0  0  0
  -58.2543  -31.2221  212.8970 O   0  0  0  0  0  0  0  0  0  0  0  0
  -46.8559  -37.4178  196.6993 C   0  0  0  0  0  0  0  0  0  0  0  0
  -47.2134  -36.0975  197.3636 C   0  0  0  0  0  0  0  0  0  0  0  0
  -46.0846  -35.0702  197.4087 C   0  0  0  0  0  0  0  0  0  0  0  0
  -46.6194  -33.6948  197.8644 C   0  0  0  0  0  0  0  0  0  0  0  0
  -45.5379  -32.6086  197.7866 C   0  0  0  0  0  0  0  0  0  0  0  0
  -45.4424  -31.7757  199.0772 C   0  0  0  0  0  0  0  0  0  0  0  0
  -46.8195  -31.4958  199.7021 C   0  0  0  0  0  0  0  0  0  0  0  0
  -46.8116  -30.5200  200.8934 C   0  0  0  0  0  0  0  0  0  0  0  0
  -48.0782  -29.6781  201.0140 C   0  0  0  0  0  0  0  0  0  0  0  0
  -48.3907  -29.2394  202.4609 C   0  0  0  0  0  0  0  0  0  0  0  0
  -49.3643  -30.2298  203.1038 C   0  0  0  0  0  0  0  0  0  0  0  0
  -49.6355  -30.0939  204.6012 C   0  0  0  0  0  0  0  0  0  0  0  0
  -50.6598  -31.1637  205.0837 C   0  0  0  0  0  0  0  0  0  0  0  0
  -51.5074  -30.7264  206.3036 C   0  0  0  0  0  0  0  0  0  0  0  0
  -53.0330  -30.9760  206.1713 C   0  0  1  0  0  0  0  0  0  0  0  0
  -53.2196  -32.1991  205.4570 O   0  0  0  0  0  0  0  0  0  0  0  0
  -53.7074  -31.0553  207.5818 C   0  0  1  0  0  0  0  0  0  0  0  0
  -53.3707  -32.2979  208.2163 O   0  0  0  0  0  0  0  0  0  0  0  0
  -53.4400  -29.8462  208.5319 C   0  0  2  0  0  0  0  0  0  0  0  0
  -54.4812  -29.6920  209.6591 C   0  0  0  0  0  0  0  0  0  0  0  0
  -57.5345  -31.8094  209.6706 O   0  0  0  0  0  0  0  0  0  0  0  0
  -57.8838  -28.7257  209.4941 O   0  0  0  0  0  0  0  0  0  0  0  0
  -59.0244  -26.3221  210.4289 O   0  0  0  0  0  0  0  0  0  0  0  0
  -58.1856  -28.7746  213.8872 C   0  0  0  0  0  0  0  0  0  0  0  0
  -59.1335  -27.7860  214.5139 C   0  0  0  0  0  0  0  0  0  0  0  0
  -60.4678  -28.1397  214.7748 C   0  0  0  0  0  0  0  0  0  0  0  0
  -61.3483  -27.2133  215.3336 C   0  0  0  0  0  0  0  0  0  0  0  0
  -60.9164  -25.9172  215.6589 C   0  0  0  0  0  0  0  0  0  0  0  0
  -61.8760  -24.9040  216.2260 C   0  0  2  0  0  0  0  0  0  0  0  0
  -62.0092  -23.7953  215.4343 F   0  0  0  0  0  0  0  0  0  0  0  0
  -61.4970  -24.4393  217.4504 F   0  0  0  0  0  0  0  0  0  0  0  0
  -63.1431  -25.3840  216.3829 F   0  0  0  0  0  0  0  0  0  0  0  0
  -59.5834  -25.5661  215.3977 C   0  0  0  0  0  0  0  0  0  0  0  0
  -58.7005  -26.4939  214.8390 C   0  0  0  0  0  0  0  0  0  0  0  0
  -53.2924  -28.5943  207.7577 N   0  0  0  0  0  0  0  0  0  0  0  0
  -52.1523  -27.8127  207.8573 C   0  0  0  0  0  0  0  0  0  0  0  0
  -51.1975  -28.1046  208.5672 O   0  0  0  0  0  0  0  0  0  0  0  0
  -52.1674  -26.5282  207.0444 C   0  0  0  0  0  0  0  0  0  0  0  0
  -51.1291  -25.4995  207.5254 C   0  0  0  0  0  0  0  0  0  0  0  0
  -49.7124  -25.8043  207.0038 C   0  0  0  0  0  0  0  0  0  0  0  0
  -48.8012  -24.5781  206.8845 C   0  0  0  0  0  0  0  0  0  0  0  0
  -47.3766  -24.8209  206.3899 C   0  0  0  0  0  0  0  0  0  0  0  0
  -46.3197  -24.8314  207.5083 C   0  0  0  0  0  0  0  0  0  0  0  0
  -45.5925  -23.4767  207.6002 C   0  0  0  0  0  0  0  0  0  0  0  0
  -44.3667  -23.3530  206.6861 C   0  0  0  0  0  0  0  0  0  0  0  0
  -44.1419  -21.8977  206.2465 C   0  0  0  0  0  0  0  0  0  0  0  0
  -43.8947  -21.7121  204.7371 C   0  0  0  0  0  0  0  0  0  0  0  0
  -44.8614  -22.5256  203.8630 C   0  0  0  0  0  0  0  0  0  0  0  0
  -44.5563  -22.4017  202.3602 C   0  0  0  0  0  0  0  0  0  0  0  0
  -45.0395  -23.6040  201.5204 C   0  0  0  0  0  0  0  0  0  0  0  0
  -44.5616  -23.5393  200.0674 C   0  0  0  0  0  0  0  0  0  0  0  0
  -45.0875  -24.6637  199.1558 C   0  0  0  0  0  0  0  0  0  0  0  0
  -44.0804  -25.8221  199.1332 C   0  0  0  0  0  0  0  0  0  0  0  0
  -44.6705  -27.1959  199.4785 C   0  0  0  0  0  0  0  0  0  0  0  0
  -43.5914  -28.2958  199.3953 C   0  0  0  0  0  0  0  0  0  0  0  0
  -43.7798  -29.1772  198.1509 C   0  0  0  0  0  0  0  0  0  0  0  0
  -44.0503  -30.6599  198.4734 C   0  0  0  0  0  0  0  0  0  0  0  0
  -44.2484  -31.4567  197.1804 C   0  0  0  0  0  0  0  0  0  0  0  0
  -43.8665  -32.9334  197.2772 C   0  0  0  0  0  0  0  0  0  0  0  0
  -44.9986  -33.8208  196.7203 C   0  0  0  0  0  0  0  0  0  0  0  0
  -44.5442  -35.2297  196.3501 C   0  0  0  0  0  0  0  0  0  0  0  0
  -45.7268  -36.1229  195.9878 C   0  0  0  0  0  0  0  0  0  0  0  0
  1  6  1  0
  1  8  1  6
  1 31  1  0
  2  3  1  0
  6  2  1  0
  2  9  1  1
  4  3  1  0
  3  7  1  1
  4  5  1  1
 31  4  1  0
  5 32  1  0
  6 30  1  6
  7 33  1  0
 29  8  1  0
 11 10  1  0
 12 11  1  0
 13 12  1  0
 14 13  1  0
 15 14  1  0
 16 15  1  0
 17 16  1  0
 18 17  1  0
 19 18  1  0
 20 19  1  0
 21 20  1  0
 22 21  1  0
 23 22  1  0
 24 23  1  0
 24 25  1  1
 26 24  1  0
 26 27  1  1
 28 26  1  0
 28 29  1  1
 28 44  1  0
 33 34  1  0
 34 35  2  0
 34 43  1  0
 35 36  1  0
 36 37  2  0
 37 38  1  0
 37 42  1  0
 38 39  1  6
 38 40  1  0
 38 41  1  0
 42 43  2  0
 44 45  1  0
 45 46  2  0
 45 47  1  0
 47 48  1  0
 48 49  1  0
 49 50  1  0
 50 51  1  0
 51 52  1  0
 52 53  1  0
 53 54  1  0
 54 55  1  0
 55 56  1  0
 56 57  1  0
 57 58  1  0
 58 59  1  0
 59 60  1  0
 60 61  1  0
 61 62  1  0
 62 63  1  0
 63 64  1  0
 64 65  1  0
 65 66  1  0
 66 67  1  0
 67 68  1  0
 68 69  1  0
 69 70  1  0
 70 71  1  0
M  END
$$$$
