
     RDKit          3D

 71 72  0  0  0  0  0  0  0  0999 V2000
  -51.5092  -27.5506  207.8781 C   0  0  1  0  0  0  0  0  0  0  0  0
  -50.2610  -27.3757  210.1247 C   0  0  1  0  0  0  0  0  0  0  0  0
  -50.6294  -25.9030  209.8795 C   0  0  2  0  0  0  0  0  0  0  0  0
  -52.1450  -25.9056  209.5443 C   0  0  1  0  0  0  0  0  0  0  0  0
  -52.7898  -24.5136  209.4596 C   0  0  0  0  0  0  0  0  0  0  0  0
  -50.7504  -28.3110  208.9992 C   0  0  1  0  0  0  0  0  0  0  0  0
  -49.7846  -25.4337  208.8237 O   0  0  0  0  0  0  0  0  0  0  0  0
  -52.1257  -28.4888  206.9881 O   0  0  0  0  0  0  0  0  0  0  0  0
  -48.8553  -27.5258  210.3319 O   0  0  0  0  0  0  0  0  0  0  0  0
  -55.6650  -19.3757  216.9391 C   0  0  0  0  0  0  0  0  0  0  0  0
  -56.9754  -20.1423  217.0231 C   0  0  0  0  0  0  0  0  0  0  0  0
  -57.5356  -20.6135  215.6831 C   0  0  0  0  0  0  0  0  0  0  0  0
  -58.8551  -21.3897  215.8884 C   0  0  0  0  0  0  0  0  0  0  0  0
  -59.6695  -21.4822  214.5908 C   0  0  0  0  0  0  0  0  0  0  0  0
  -59.9420  -22.9361  214.1660 C   0  0  0  0  0  0  0  0  0  0  0  0
  -59.1486  -23.3432  212.9130 C   0  0  0  0  0  0  0  0  0  0  0  0
  -59.5240  -24.7127  212.3169 C   0  0  0  0  0  0  0  0  0  0  0  0
  -58.9221  -24.9759  210.9399 C   0  0  0  0  0  0  0  0  0  0  0  0
  -58.2222  -26.3472  210.8256 C   0  0  0  0  0  0  0  0  0  0  0  0
  -57.6501  -26.5211  209.4169 C   0  0  0  0  0  0  0  0  0  0  0  0
  -57.0235  -27.8688  209.0625 C   0  0  0  0  0  0  0  0  0  0  0  0
  -56.5924  -27.9092  207.5662 C   0  0  0  0  0  0  0  0  0  0  0  0
  -55.9578  -29.2508  207.1243 C   0  0  0  0  0  0  0  0  0  0  0  0
  -55.7454  -30.2866  208.2598 C   0  0  1  0  0  0  0  0  0  0  0  0
  -56.3627  -31.5116  207.8607 O   0  0  0  0  0  0  0  0  0  0  0  0
  -54.2198  -30.5045  208.5348 C   0  0  1  0  0  0  0  0  0  0  0  0
  -54.0337  -31.6455  209.3852 O   0  0  0  0  0  0  0  0  0  0  0  0
  -53.3067  -30.5874  207.2718 C   0  0  2  0  0  0  0  0  0  0  0  0
  -51.9665  -29.8381  207.4164 C   0  0  0  0  0  0  0  0  0  0  0  0
  -51.5858  -29.3372  209.6002 O   0  0  0  0  0  0  0  0  0  0  0  0
  -52.5000  -26.6356  208.3642 O   0  0  0  0  0  0  0  0  0  0  0  0
  -51.9280  -23.5510  208.8814 O   0  0  0  0  0  0  0  0  0  0  0  0
  -48.4908  -24.9816  209.2302 C   0  0  0  0  0  0  0  0  0  0  0  0
  -48.6387  -23.6798  209.9732 C   0  0  0  0  0  0  0  0  0  0  0  0
  -49.1097  -22.5303  209.3172 C   0  0  0  0  0  0  0  0  0  0  0  0
  -49.2227  -21.3211  210.0034 C   0  0  0  0  0  0  0  0  0  0  0  0
  -48.8829  -21.2322  211.3631 C   0  0  0  0  0  0  0  0  0  0  0  0
  -48.9673  -19.9182  212.0948 C   0  0  2  0  0  0  0  0  0  0  0  0
  -47.8989  -19.0999  211.8449 F   0  0  0  0  0  0  0  0  0  0  0  0
  -49.0098  -20.0656  213.4496 F   0  0  0  0  0  0  0  0  0  0  0  0
  -50.0659  -19.1811  211.7632 F   0  0  0  0  0  0  0  0  0  0  0  0
  -48.4128  -22.3814  212.0164 C   0  0  0  0  0  0  0  0  0  0  0  0
  -48.3004  -23.5933  211.3299 C   0  0  0  0  0  0  0  0  0  0  0  0
  -54.0419  -30.1515  206.0643 N   0  0  0  0  0  0  0  0  0  0  0  0
  -53.4556  -30.1863  204.8090 C   0  0  0  0  0  0  0  0  0  0  0  0
  -53.2291  -31.2259  204.2018 O   0  0  0  0  0  0  0  0  0  0  0  0
  -53.0703  -28.8345  204.2300 C   0  0  0  0  0  0  0  0  0  0  0  0
  -52.7839  -28.8866  202.7191 C   0  0  0  0  0  0  0  0  0  0  0  0
  -51.4896  -29.6543  202.3909 C   0  0  0  0  0  0  0  0  0  0  0  0
  -51.0685  -29.5907  200.9189 C   0  0  0  0  0  0  0  0  0  0  0  0
  -49.7590  -30.2818  200.5441 C   0  0  0  0  0  0  0  0  0  0  0  0
  -49.8974  -31.3089  199.4065 C   0  0  0  0  0  0  0  0  0  0  0  0
  -48.6392  -32.1907  199.2962 C   0  0  0  0  0  0  0  0  0  0  0  0
  -48.4380  -32.8372  197.9196 C   0  0  0  0  0  0  0  0  0  0  0  0
  -47.0074  -32.6181  197.4030 C   0  0  0  0  0  0  0  0  0  0  0  0
  -46.7482  -33.1500  195.9803 C   0  0  0  0  0  0  0  0  0  0  0  0
  -45.2878  -33.5676  195.7492 C   0  0  0  0  0  0  0  0  0  0  0  0
  -45.0950  -35.0939  195.7542 C   0  0  0  0  0  0  0  0  0  0  0  0
  -44.6184  -35.6708  194.4035 C   0  0  0  0  0  0  0  0  0  0  0  0
  -44.0838  -37.1000  194.5276 C   0  0  0  0  0  0  0  0  0  0  0  0
  -43.7255  -37.7818  193.1940 C   0  0  0  0  0  0  0  0  0  0  0  0
  -42.5496  -37.0446  192.5379 C   0  0  0  0  0  0  0  0  0  0  0  0
  -41.2004  -37.7693  192.6339 C   0  0  0  0  0  0  0  0  0  0  0  0
  -40.0408  -36.7596  192.7642 C   0  0  0  0  0  0  0  0  0  0  0  0
  -38.6797  -37.4302  192.5219 C   0  0  0  0  0  0  0  0  0  0  0  0
  -37.8084  -37.5459  193.7880 C   0  0  0  0  0  0  0  0  0  0  0  0
  -38.6146  -37.1404  195.0257 C   0  0  0  0  0  0  0  0  0  0  0  0
  -37.8414  -37.2145  196.3419 C   0  0  0  0  0  0  0  0  0  0  0  0
  -38.4076  -36.2012  197.3577 C   0  0  0  0  0  0  0  0  0  0  0  0
  -39.4729  -36.7897  198.2784 C   0  0  0  0  0  0  0  0  0  0  0  0
  -40.0378  -35.7366  199.2268 C   0  0  0  0  0  0  0  0  0  0  0  0
  1  6  1  0
  1  8  1  6
  1 31  1  0
  2  3  1  0
  6  2  1  0
  2  9  1  6
  4  3  1  0
  3  7  1  6
  4  5  1  6
 31  4  1  0
  5 32  1  0
  6 30  1  1
  7 33  1  0
 29  8  1  0
 11 10  1  0
 12 11  1  0
 13 12  1  0
 14 13  1  0
 15 14  1  0
 16 15  1  0
 17 16  1  0
 18 17  1  0
 19 18  1  0
 20 19  1  0
 21 20  1  0
 22 21  1  0
 23 22  1  0
 24 23  1  0
 24 25  1  6
 26 24  1  0
 26 27  1  6
 28 26  1  0
 28 29  1  1
 28 44  1  0
 33 34  1  0
 34 35  2  0
 34 43  1  0
 35 36  1  0
 36 37  2  0
 37 38  1  0
 37 42  1  0
 38 39  1  1
 38 40  1  0
 38 41  1  0
 42 43  2  0
 44 45  1  0
 45 46  2  0
 45 47  1  0
 47 48  1  0
 48 49  1  0
 49 50  1  0
 50 51  1  0
 51 52  1  0
 52 53  1  0
 53 54  1  0
 54 55  1  0
 55 56  1  0
 56 57  1  0
 57 58  1  0
 58 59  1  0
 59 60  1  0
 60 61  1  0
 61 62  1  0
 62 63  1  0
 63 64  1  0
 64 65  1  0
 65 66  1  0
 66 67  1  0
 67 68  1  0
 68 69  1  0
 69 70  1  0
 70 71  1  0
M  END
$$$$
