
     RDKit          3D

 71 72  0  0  0  0  0  0  0  0999 V2000
  -56.6041  -31.9973  207.5960 C   0  0  1  0  0  0  0  0  0  0  0  0
  -59.0322  -31.1405  207.5184 C   0  0  1  0  0  0  0  0  0  0  0  0
  -58.8864  -31.4708  209.0131 C   0  0  2  0  0  0  0  0  0  0  0  0
  -57.5689  -30.7840  209.4624 C   0  0  1  0  0  0  0  0  0  0  0  0
  -57.3147  -30.8036  210.9775 C   0  0  0  0  0  0  0  0  0  0  0  0
  -57.7509  -31.4376  206.7114 C   0  0  1  0  0  0  0  0  0  0  0  0
  -58.8847  -32.8978  209.1249 O   0  0  0  0  0  0  0  0  0  0  0  0
  -55.3870  -32.0400  206.8415 O   0  0  0  0  0  0  0  0  0  0  0  0
  -60.1559  -31.8160  206.9504 O   0  0  0  0  0  0  0  0  0  0  0  0
  -44.0704  -29.9791  195.7244 C   0  0  0  0  0  0  0  0  0  0  0  0
  -42.6650  -30.4150  196.1077 C   0  0  0  0  0  0  0  0  0  0  0  0
  -42.5644  -31.1940  197.4171 C   0  0  0  0  0  0  0  0  0  0  0  0
  -42.9097  -30.2858  198.6178 C   0  0  0  0  0  0  0  0  0  0  0  0
  -42.7436  -31.0211  199.9547 C   0  0  0  0  0  0  0  0  0  0  0  0
  -42.9698  -30.1011  201.1676 C   0  0  0  0  0  0  0  0  0  0  0  0
  -44.0249  -29.0156  200.8961 C   0  0  0  0  0  0  0  0  0  0  0  0
  -45.2414  -29.0344  201.8403 C   0  0  0  0  0  0  0  0  0  0  0  0
  -46.5617  -28.6900  201.1579 C   0  0  0  0  0  0  0  0  0  0  0  0
  -47.7507  -29.5421  201.6515 C   0  0  0  0  0  0  0  0  0  0  0  0
  -47.6969  -29.6732  203.1753 C   0  0  0  0  0  0  0  0  0  0  0  0
  -48.7605  -28.9415  203.9925 C   0  0  0  0  0  0  0  0  0  0  0  0
  -49.6994  -29.9497  204.7195 C   0  0  0  0  0  0  0  0  0  0  0  0
  -50.8807  -29.2884  205.4711 C   0  0  0  0  0  0  0  0  0  0  0  0
  -51.0426  -29.7162  206.9537 C   0  0  1  0  0  0  0  0  0  0  0  0
  -51.6406  -28.6300  207.6635 O   0  0  0  0  0  0  0  0  0  0  0  0
  -51.9295  -31.0011  207.0675 C   0  0  1  0  0  0  0  0  0  0  0  0
  -51.3048  -31.9513  207.9432 O   0  0  0  0  0  0  0  0  0  0  0  0
  -53.4206  -30.7648  207.4633 C   0  0  2  0  0  0  0  0  0  0  0  0
  -54.2281  -32.0625  207.6696 C   0  0  0  0  0  0  0  0  0  0  0  0
  -57.3499  -30.2131  206.0392 O   0  0  0  0  0  0  0  0  0  0  0  0
  -56.3878  -31.2571  208.8045 O   0  0  0  0  0  0  0  0  0  0  0  0
  -56.5286  -31.9093  211.3812 O   0  0  0  0  0  0  0  0  0  0  0  0
  -60.0978  -33.4748  209.6139 C   0  0  0  0  0  0  0  0  0  0  0  0
  -59.7907  -34.2918  210.8415 C   0  0  0  0  0  0  0  0  0  0  0  0
  -58.7948  -35.2822  210.8120 C   0  0  0  0  0  0  0  0  0  0  0  0
  -58.5301  -36.0525  211.9444 C   0  0  0  0  0  0  0  0  0  0  0  0
  -59.2415  -35.8443  213.1372 C   0  0  0  0  0  0  0  0  0  0  0  0
  -58.9837  -36.7016  214.3487 C   0  0  2  0  0  0  0  0  0  0  0  0
  -60.0807  -37.4242  214.7330 F   0  0  0  0  0  0  0  0  0  0  0  0
  -58.6167  -35.9777  215.4443 F   0  0  0  0  0  0  0  0  0  0  0  0
  -57.9969  -37.6244  214.1613 F   0  0  0  0  0  0  0  0  0  0  0  0
  -60.2356  -34.8546  213.1646 C   0  0  0  0  0  0  0  0  0  0  0  0
  -60.5005  -34.0818  212.0309 C   0  0  0  0  0  0  0  0  0  0  0  0
  -54.0834  -29.8643  206.4946 N   0  0  0  0  0  0  0  0  0  0  0  0
  -53.8756  -28.4944  206.5217 C   0  0  0  0  0  0  0  0  0  0  0  0
  -53.3449  -27.9137  207.4609 O   0  0  0  0  0  0  0  0  0  0  0  0
  -54.3847  -27.7320  205.3090 C   0  0  0  0  0  0  0  0  0  0  0  0
  -54.6252  -26.2392  205.5941 C   0  0  0  0  0  0  0  0  0  0  0  0
  -53.7420  -25.7084  206.7389 C   0  0  0  0  0  0  0  0  0  0  0  0
  -52.5306  -24.8897  206.2802 C   0  0  0  0  0  0  0  0  0  0  0  0
  -51.8124  -24.0622  207.3443 C   0  0  0  0  0  0  0  0  0  0  0  0
  -51.3315  -24.8819  208.5546 C   0  0  0  0  0  0  0  0  0  0  0  0
  -50.6759  -23.9772  209.6150 C   0  0  0  0  0  0  0  0  0  0  0  0
  -49.3086  -24.4678  210.1079 C   0  0  0  0  0  0  0  0  0  0  0  0
  -48.7274  -23.5252  211.1735 C   0  0  0  0  0  0  0  0  0  0  0  0
  -48.5214  -22.0722  210.7043 C   0  0  0  0  0  0  0  0  0  0  0  0
  -47.9162  -21.1681  211.7891 C   0  0  0  0  0  0  0  0  0  0  0  0
  -46.6060  -20.4958  211.3439 C   0  0  0  0  0  0  0  0  0  0  0  0
  -46.2850  -19.1864  212.0967 C   0  0  0  0  0  0  0  0  0  0  0  0
  -44.8219  -18.7620  211.9456 C   0  0  0  0  0  0  0  0  0  0  0  0
  -43.7870  -19.8481  212.2938 C   0  0  0  0  0  0  0  0  0  0  0  0
  -42.4195  -19.4619  211.7128 C   0  0  0  0  0  0  0  0  0  0  0  0
  -41.2754  -20.4222  212.0647 C   0  0  0  0  0  0  0  0  0  0  0  0
  -40.0070  -20.0894  211.2514 C   0  0  0  0  0  0  0  0  0  0  0  0
  -39.7859  -21.0987  210.1141 C   0  0  0  0  0  0  0  0  0  0  0  0
  -39.0774  -22.3930  210.5594 C   0  0  0  0  0  0  0  0  0  0  0  0
  -37.7129  -22.5139  209.8742 C   0  0  0  0  0  0  0  0  0  0  0  0
  -37.7515  -22.3885  208.3515 C   0  0  0  0  0  0  0  0  0  0  0  0
  -36.7915  -23.4063  207.7021 C   0  0  0  0  0  0  0  0  0  0  0  0
  -37.4343  -24.2274  206.5880 C   0  0  0  0  0  0  0  0  0  0  0  0
  -36.7599  -25.5872  206.4334 C   0  0  0  0  0  0  0  0  0  0  0  0
  1  6  1  0
  1  8  1  6
  1 31  1  0
  2  3  1  0
  6  2  1  0
  2  9  1  6
  4  3  1  0
  3  7  1  6
  4  5  1  1
 31  4  1  0
  5 32  1  0
  6 30  1  1
  7 33  1  0
 29  8  1  0
 11 10  1  0
 12 11  1  0
 13 12  1  0
 14 13  1  0
 15 14  1  0
 16 15  1  0
 17 16  1  0
 18 17  1  0
 19 18  1  0
 20 19  1  0
 21 20  1  0
 22 21  1  0
 23 22  1  0
 24 23  1  0
 24 25  1  1
 26 24  1  0
 26 27  1  1
 28 26  1  0
 28 29  1  6
 28 44  1  0
 33 34  1  0
 34 35  2  0
 34 43  1  0
 35 36  1  0
 36 37  2  0
 37 38  1  0
 37 42  1  0
 38 39  1  1
 38 40  1  0
 38 41  1  0
 42 43  2  0
 44 45  1  0
 45 46  2  0
 45 47  1  0
 47 48  1  0
 48 49  1  0
 49 50  1  0
 50 51  1  0
 51 52  1  0
 52 53  1  0
 53 54  1  0
 54 55  1  0
 55 56  1  0
 56 57  1  0
 57 58  1  0
 58 59  1  0
 59 60  1  0
 60 61  1  0
 61 62  1  0
 62 63  1  0
 63 64  1  0
 64 65  1  0
 65 66  1  0
 66 67  1  0
 67 68  1  0
 68 69  1  0
 69 70  1  0
 70 71  1  0
M  END
$$$$
