
     RDKit          3D

 71 72  0  0  0  0  0  0  0  0999 V2000
  -54.8341  -29.2266  206.7876 C   0  0  1  0  0  0  0  0  0  0  0  0
  -53.6637  -31.5214  206.7739 C   0  0  1  0  0  0  0  0  0  0  0  0
  -53.4102  -31.0552  205.3307 C   0  0  2  0  0  0  0  0  0  0  0  0
  -52.8449  -29.6149  205.4540 C   0  0  1  0  0  0  0  0  0  0  0  0
  -52.3211  -29.0123  204.1413 C   0  0  0  0  0  0  0  0  0  0  0  0
  -54.4690  -30.4977  207.6014 C   0  0  1  0  0  0  0  0  0  0  0  0
  -54.6592  -31.1498  204.6381 O   0  0  0  0  0  0  0  0  0  0  0  0
  -55.3775  -28.2308  207.6626 O   0  0  0  0  0  0  0  0  0  0  0  0
  -54.2985  -32.8013  206.7961 O   0  0  0  0  0  0  0  0  0  0  0  0
  -46.4360  -18.8021  217.0735 C   0  0  0  0  0  0  0  0  0  0  0  0
  -45.6818  -18.0440  215.9925 C   0  0  0  0  0  0  0  0  0  0  0  0
  -46.4790  -17.7696  214.7194 C   0  0  0  0  0  0  0  0  0  0  0  0
  -45.5502  -17.2585  213.5961 C   0  0  0  0  0  0  0  0  0  0  0  0
  -45.6664  -18.1142  212.3273 C   0  0  0  0  0  0  0  0  0  0  0  0
  -44.8482  -19.4148  212.4143 C   0  0  0  0  0  0  0  0  0  0  0  0
  -45.5064  -20.5779  211.6533 C   0  0  0  0  0  0  0  0  0  0  0  0
  -46.9052  -20.9807  212.1561 C   0  0  0  0  0  0  0  0  0  0  0  0
  -47.3760  -22.3427  211.6553 C   0  0  0  0  0  0  0  0  0  0  0  0
  -48.3897  -23.0283  212.5965 C   0  0  0  0  0  0  0  0  0  0  0  0
  -49.1941  -24.0728  211.8193 C   0  0  0  0  0  0  0  0  0  0  0  0
  -50.4169  -24.6843  212.5014 C   0  0  0  0  0  0  0  0  0  0  0  0
  -50.6715  -26.1359  211.9971 C   0  0  0  0  0  0  0  0  0  0  0  0
  -52.0005  -26.3150  211.2227 C   0  0  0  0  0  0  0  0  0  0  0  0
  -52.0997  -27.6084  210.3715 C   0  0  1  0  0  0  0  0  0  0  0  0
  -52.0101  -28.7266  211.2562 O   0  0  0  0  0  0  0  0  0  0  0  0
  -53.4456  -27.6462  209.5732 C   0  0  1  0  0  0  0  0  0  0  0  0
  -54.5296  -27.2396  210.4213 O   0  0  0  0  0  0  0  0  0  0  0  0
  -53.4585  -26.8595  208.2252 C   0  0  2  0  0  0  0  0  0  0  0  0
  -54.7954  -26.9463  207.4610 C   0  0  0  0  0  0  0  0  0  0  0  0
  -53.6904  -30.1633  208.7821 O   0  0  0  0  0  0  0  0  0  0  0  0
  -53.7343  -28.6679  206.0573 O   0  0  0  0  0  0  0  0  0  0  0  0
  -51.7168  -27.7461  204.3290 O   0  0  0  0  0  0  0  0  0  0  0  0
  -54.7727  -32.2460  203.7275 C   0  0  0  0  0  0  0  0  0  0  0  0
  -53.8689  -31.9979  202.5484 C   0  0  0  0  0  0  0  0  0  0  0  0
  -54.3150  -31.2439  201.4503 C   0  0  0  0  0  0  0  0  0  0  0  0
  -53.4828  -31.0366  200.3502 C   0  0  0  0  0  0  0  0  0  0  0  0
  -52.1813  -31.5635  200.3246 C   0  0  0  0  0  0  0  0  0  0  0  0
  -51.2958  -31.3735  199.1209 C   0  0  2  0  0  0  0  0  0  0  0  0
  -50.1887  -32.1782  199.1418 F   0  0  0  0  0  0  0  0  0  0  0  0
  -50.8236  -30.0998  199.0035 F   0  0  0  0  0  0  0  0  0  0  0  0
  -51.9174  -31.6533  197.9395 F   0  0  0  0  0  0  0  0  0  0  0  0
  -51.7376  -32.3162  201.4224 C   0  0  0  0  0  0  0  0  0  0  0  0
  -52.5704  -32.5233  202.5252 C   0  0  0  0  0  0  0  0  0  0  0  0
  -52.3207  -27.2650  207.3711 N   0  0  0  0  0  0  0  0  0  0  0  0
  -51.4188  -26.3350  206.8788 C   0  0  0  0  0  0  0  0  0  0  0  0
  -51.1550  -25.2856  207.4531 O   0  0  0  0  0  0  0  0  0  0  0  0
  -50.7869  -26.6824  205.5405 C   0  0  0  0  0  0  0  0  0  0  0  0
  -49.8580  -27.9070  205.6134 C   0  0  0  0  0  0  0  0  0  0  0  0
  -48.9726  -28.0502  204.3612 C   0  0  0  0  0  0  0  0  0  0  0  0
  -47.4757  -28.1967  204.6543 C   0  0  0  0  0  0  0  0  0  0  0  0
  -46.5450  -28.3263  203.4503 C   0  0  0  0  0  0  0  0  0  0  0  0
  -45.1017  -28.7165  203.8147 C   0  0  0  0  0  0  0  0  0  0  0  0
  -44.4753  -29.6108  202.7283 C   0  0  0  0  0  0  0  0  0  0  0  0
  -43.2265  -30.3776  203.1820 C   0  0  0  0  0  0  0  0  0  0  0  0
  -43.0748  -31.7016  202.4166 C   0  0  0  0  0  0  0  0  0  0  0  0
  -43.7887  -32.9043  203.0629 C   0  0  0  0  0  0  0  0  0  0  0  0
  -43.4962  -34.2336  202.3502 C   0  0  0  0  0  0  0  0  0  0  0  0
  -43.1313  -34.0486  200.8671 C   0  0  0  0  0  0  0  0  0  0  0  0
  -44.2663  -34.4243  199.8899 C   0  0  0  0  0  0  0  0  0  0  0  0
  -43.7518  -35.1210  198.6275 C   0  0  0  0  0  0  0  0  0  0  0  0
  -44.3853  -34.6373  197.3097 C   0  0  0  0  0  0  0  0  0  0  0  0
  -44.3425  -35.7677  196.2720 C   0  0  0  0  0  0  0  0  0  0  0  0
  -43.9283  -35.3313  194.8604 C   0  0  0  0  0  0  0  0  0  0  0  0
  -42.5886  -35.9804  194.4539 C   0  0  0  0  0  0  0  0  0  0  0  0
  -41.9930  -35.3097  193.2063 C   0  0  0  0  0  0  0  0  0  0  0  0
  -42.9092  -35.3729  191.9684 C   0  0  0  0  0  0  0  0  0  0  0  0
  -42.4105  -34.4068  190.8893 C   0  0  0  0  0  0  0  0  0  0  0  0
  -42.3506  -34.9997  189.4820 C   0  0  0  0  0  0  0  0  0  0  0  0
  -41.1342  -34.4434  188.7138 C   0  0  0  0  0  0  0  0  0  0  0  0
  -41.2527  -34.5829  187.1988 C   0  0  0  0  0  0  0  0  0  0  0  0
  -40.8983  -35.9929  186.7364 C   0  0  0  0  0  0  0  0  0  0  0  0
  1  6  1  0
  1  8  1  1
  1 31  1  0
  2  3  1  0
  6  2  1  0
  2  9  1  6
  4  3  1  0
  3  7  1  6
  4  5  1  6
 31  4  1  0
  5 32  1  0
  6 30  1  1
  7 33  1  0
 29  8  1  0
 11 10  1  0
 12 11  1  0
 13 12  1  0
 14 13  1  0
 15 14  1  0
 16 15  1  0
 17 16  1  0
 18 17  1  0
 19 18  1  0
 20 19  1  0
 21 20  1  0
 22 21  1  0
 23 22  1  0
 24 23  1  0
 24 25  1  1
 26 24  1  0
 26 27  1  1
 28 26  1  0
 28 29  1  6
 28 44  1  0
 33 34  1  0
 34 35  2  0
 34 43  1  0
 35 36  1  0
 36 37  2  0
 37 38  1  0
 37 42  1  0
 38 39  1  1
 38 40  1  0
 38 41  1  0
 42 43  2  0
 44 45  1  0
 45 46  2  0
 45 47  1  0
 47 48  1  0
 48 49  1  0
 49 50  1  0
 50 51  1  0
 51 52  1  0
 52 53  1  0
 53 54  1  0
 54 55  1  0
 55 56  1  0
 56 57  1  0
 57 58  1  0
 58 59  1  0
 59 60  1  0
 60 61  1  0
 61 62  1  0
 62 63  1  0
 63 64  1  0
 64 65  1  0
 65 66  1  0
 66 67  1  0
 67 68  1  0
 68 69  1  0
 69 70  1  0
 70 71  1  0
M  END
$$$$
