
     RDKit          3D

 71 72  0  0  0  0  0  0  0  0999 V2000
  -56.1184  -28.6924  211.3444 C   0  0  1  0  0  0  0  0  0  0  0  0
  -58.1977  -29.4794  212.6456 C   0  0  1  0  0  0  0  0  0  0  0  0
  -58.8335  -28.5048  211.6402 C   0  0  2  0  0  0  0  0  0  0  0  0
  -58.2733  -28.9174  210.2526 C   0  0  1  0  0  0  0  0  0  0  0  0
  -58.9282  -28.2105  209.0559 C   0  0  0  0  0  0  0  0  0  0  0  0
  -56.6666  -29.5885  212.4879 C   0  0  1  0  0  0  0  0  0  0  0  0
  -58.4767  -27.1837  212.0599 O   0  0  0  0  0  0  0  0  0  0  0  0
  -54.7410  -29.0038  211.1029 O   0  0  0  0  0  0  0  0  0  0  0  0
  -58.5447  -29.1319  213.9873 O   0  0  0  0  0  0  0  0  0  0  0  0
  -41.4627  -27.2664  199.1683 C   0  0  0  0  0  0  0  0  0  0  0  0
  -42.9590  -27.4608  198.9809 C   0  0  0  0  0  0  0  0  0  0  0  0
  -43.5731  -28.5876  199.8085 C   0  0  0  0  0  0  0  0  0  0  0  0
  -45.0948  -28.6774  199.5599 C   0  0  0  0  0  0  0  0  0  0  0  0
  -45.7283  -29.8497  200.3215 C   0  0  0  0  0  0  0  0  0  0  0  0
  -47.2663  -29.8265  200.2695 C   0  0  0  0  0  0  0  0  0  0  0  0
  -47.9055  -30.7877  201.2858 C   0  0  0  0  0  0  0  0  0  0  0  0
  -48.5709  -32.0360  200.6770 C   0  0  0  0  0  0  0  0  0  0  0  0
  -49.9998  -32.2733  201.1563 C   0  0  0  0  0  0  0  0  0  0  0  0
  -50.3230  -31.5794  202.4971 C   0  0  0  0  0  0  0  0  0  0  0  0
  -51.8380  -31.4254  202.6488 C   0  0  0  0  0  0  0  0  0  0  0  0
  -52.3735  -30.9222  203.9884 C   0  0  0  0  0  0  0  0  0  0  0  0
  -53.6349  -31.7256  204.4241 C   0  0  0  0  0  0  0  0  0  0  0  0
  -54.2232  -31.2923  205.7894 C   0  0  0  0  0  0  0  0  0  0  0  0
  -53.2299  -31.3362  206.9804 C   0  0  1  0  0  0  0  0  0  0  0  0
  -52.4306  -30.1530  206.9321 O   0  0  0  0  0  0  0  0  0  0  0  0
  -53.9981  -31.4247  208.3415 C   0  0  1  0  0  0  0  0  0  0  0  0
  -53.8610  -32.7412  208.8964 O   0  0  0  0  0  0  0  0  0  0  0  0
  -53.6431  -30.3290  209.3948 C   0  0  2  0  0  0  0  0  0  0  0  0
  -54.5527  -30.3379  210.6402 C   0  0  0  0  0  0  0  0  0  0  0  0
  -56.3367  -30.9866  212.2675 O   0  0  0  0  0  0  0  0  0  0  0  0
  -56.8520  -28.8015  210.1176 O   0  0  0  0  0  0  0  0  0  0  0  0
  -58.0230  -28.0014  207.9879 O   0  0  0  0  0  0  0  0  0  0  0  0
  -59.5263  -26.4324  212.6745 C   0  0  0  0  0  0  0  0  0  0  0  0
  -60.4308  -25.8871  211.6006 C   0  0  0  0  0  0  0  0  0  0  0  0
  -61.8266  -25.9932  211.7179 C   0  0  0  0  0  0  0  0  0  0  0  0
  -62.6597  -25.5079  210.7098 C   0  0  0  0  0  0  0  0  0  0  0  0
  -62.1220  -24.8924  209.5678 C   0  0  0  0  0  0  0  0  0  0  0  0
  -63.0188  -24.4032  208.4608 C   0  0  2  0  0  0  0  0  0  0  0  0
  -64.3344  -24.3341  208.8324 F   0  0  0  0  0  0  0  0  0  0  0  0
  -62.9888  -25.2049  207.3583 F   0  0  0  0  0  0  0  0  0  0  0  0
  -62.7062  -23.1502  208.0219 F   0  0  0  0  0  0  0  0  0  0  0  0
  -60.7276  -24.7872  209.4527 C   0  0  0  0  0  0  0  0  0  0  0  0
  -59.8926  -25.2722  210.4626 C   0  0  0  0  0  0  0  0  0  0  0  0
  -53.6021  -28.9909  208.7652 N   0  0  0  0  0  0  0  0  0  0  0  0
  -53.2844  -28.8315  207.4256 C   0  0  0  0  0  0  0  0  0  0  0  0
  -52.6357  -29.6512  206.7868 O   0  0  0  0  0  0  0  0  0  0  0  0
  -53.7677  -27.5386  206.7887 C   0  0  0  0  0  0  0  0  0  0  0  0
  -52.9453  -26.3115  207.2194 C   0  0  0  0  0  0  0  0  0  0  0  0
  -51.8090  -25.9875  206.2315 C   0  0  0  0  0  0  0  0  0  0  0  0
  -51.0000  -24.7341  206.5817 C   0  0  0  0  0  0  0  0  0  0  0  0
  -50.0481  -24.2042  205.5112 C   0  0  0  0  0  0  0  0  0  0  0  0
  -49.4629  -22.8163  205.8264 C   0  0  0  0  0  0  0  0  0  0  0  0
  -48.4836  -22.3621  204.7277 C   0  0  0  0  0  0  0  0  0  0  0  0
  -47.0063  -22.6213  205.0499 C   0  0  0  0  0  0  0  0  0  0  0  0
  -46.4225  -23.7215  204.1496 C   0  0  0  0  0  0  0  0  0  0  0  0
  -45.2907  -24.5462  204.7923 C   0  0  0  0  0  0  0  0  0  0  0  0
  -44.3988  -25.2533  203.7603 C   0  0  0  0  0  0  0  0  0  0  0  0
  -42.8976  -25.0725  204.0445 C   0  0  0  0  0  0  0  0  0  0  0  0
  -42.5562  -24.9219  205.5428 C   0  0  0  0  0  0  0  0  0  0  0  0
  -41.1364  -25.3889  205.8746 C   0  0  0  0  0  0  0  0  0  0  0  0
  -40.7944  -25.4252  207.3758 C   0  0  0  0  0  0  0  0  0  0  0  0
  -41.4432  -26.6571  208.0224 C   0  0  0  0  0  0  0  0  0  0  0  0
  -41.1572  -26.8243  209.5208 C   0  0  0  0  0  0  0  0  0  0  0  0
  -41.9235  -28.0337  210.0963 C   0  0  0  0  0  0  0  0  0  0  0  0
  -41.7285  -28.1532  211.6158 C   0  0  0  0  0  0  0  0  0  0  0  0
  -42.4676  -29.3499  212.2461 C   0  0  0  0  0  0  0  0  0  0  0  0
  -42.1498  -29.4421  213.7416 C   0  0  0  0  0  0  0  0  0  0  0  0
  -42.6409  -28.2564  214.5714 C   0  0  0  0  0  0  0  0  0  0  0  0
  -44.0610  -28.5263  215.1097 C   0  0  0  0  0  0  0  0  0  0  0  0
  -44.6079  -27.3998  215.9819 C   0  0  0  0  0  0  0  0  0  0  0  0
  -45.0336  -26.1983  215.1435 C   0  0  0  0  0  0  0  0  0  0  0  0
  1  6  1  0
  1  8  1  6
  1 31  1  0
  2  3  1  0
  6  2  1  0
  2  9  1  1
  4  3  1  0
  3  7  1  1
  4  5  1  6
 31  4  1  0
  5 32  1  0
  6 30  1  6
  7 33  1  0
 29  8  1  0
 11 10  1  0
 12 11  1  0
 13 12  1  0
 14 13  1  0
 15 14  1  0
 16 15  1  0
 17 16  1  0
 18 17  1  0
 19 18  1  0
 20 19  1  0
 21 20  1  0
 22 21  1  0
 23 22  1  0
 24 23  1  0
 24 25  1  1
 26 24  1  0
 26 27  1  1
 28 26  1  0
 28 29  1  1
 28 44  1  0
 33 34  1  0
 34 35  2  0
 34 43  1  0
 35 36  1  0
 36 37  2  0
 37 38  1  0
 37 42  1  0
 38 39  1  1
 38 40  1  0
 38 41  1  0
 42 43  2  0
 44 45  1  0
 45 46  2  0
 45 47  1  0
 47 48  1  0
 48 49  1  0
 49 50  1  0
 50 51  1  0
 51 52  1  0
 52 53  1  0
 53 54  1  0
 54 55  1  0
 55 56  1  0
 56 57  1  0
 57 58  1  0
 58 59  1  0
 59 60  1  0
 60 61  1  0
 61 62  1  0
 62 63  1  0
 63 64  1  0
 64 65  1  0
 65 66  1  0
 66 67  1  0
 67 68  1  0
 68 69  1  0
 69 70  1  0
 70 71  1  0
M  END
$$$$
