
     RDKit          3D

 71 72  0  0  0  0  0  0  0  0999 V2000
  -57.7992  -27.7274  211.2805 C   0  0  1  0  0  0  0  0  0  0  0  0
  -60.1084  -28.8057  211.6556 C   0  0  1  0  0  0  0  0  0  0  0  0
  -60.3779  -27.3666  212.1255 C   0  0  2  0  0  0  0  0  0  0  0  0
  -59.8433  -26.4533  210.9900 C   0  0  1  0  0  0  0  0  0  0  0  0
  -60.1884  -24.9639  211.1428 C   0  0  0  0  0  0  0  0  0  0  0  0
  -58.6557  -29.0187  211.1807 C   0  0  1  0  0  0  0  0  0  0  0  0
  -59.7124  -27.2086  213.3828 O   0  0  0  0  0  0  0  0  0  0  0  0
  -56.5420  -27.9280  210.6233 O   0  0  0  0  0  0  0  0  0  0  0  0
  -60.4523  -29.7504  212.6709 O   0  0  0  0  0  0  0  0  0  0  0  0
  -47.9193  -35.7941  196.4602 C   0  0  0  0  0  0  0  0  0  0  0  0
  -48.2655  -36.0714  197.9147 C   0  0  0  0  0  0  0  0  0  0  0  0
  -48.3378  -34.8358  198.8088 C   0  0  0  0  0  0  0  0  0  0  0  0
  -48.9836  -33.6544  198.0521 C   0  0  0  0  0  0  0  0  0  0  0  0
  -50.4159  -33.3843  198.5332 C   0  0  0  0  0  0  0  0  0  0  0  0
  -50.5757  -31.9877  199.1597 C   0  0  0  0  0  0  0  0  0  0  0  0
  -50.6195  -32.0319  200.6964 C   0  0  0  0  0  0  0  0  0  0  0  0
  -52.0255  -31.9198  201.3146 C   0  0  0  0  0  0  0  0  0  0  0  0
  -52.0428  -32.0138  202.8373 C   0  0  0  0  0  0  0  0  0  0  0  0
  -53.2915  -31.3722  203.4797 C   0  0  0  0  0  0  0  0  0  0  0  0
  -53.5150  -31.9582  204.8757 C   0  0  0  0  0  0  0  0  0  0  0  0
  -54.9381  -31.9540  205.4319 C   0  0  0  0  0  0  0  0  0  0  0  0
  -54.9674  -32.4801  206.8978 C   0  0  0  0  0  0  0  0  0  0  0  0
  -54.0950  -31.6638  207.8829 C   0  0  0  0  0  0  0  0  0  0  0  0
  -54.8770  -30.7055  208.8195 C   0  0  1  0  0  0  0  0  0  0  0  0
  -56.0484  -31.3880  209.2704 O   0  0  0  0  0  0  0  0  0  0  0  0
  -53.9917  -30.2721  210.0356 C   0  0  1  0  0  0  0  0  0  0  0  0
  -52.6021  -30.3908  209.6966 O   0  0  0  0  0  0  0  0  0  0  0  0
  -54.3069  -28.8678  210.6394 C   0  0  2  0  0  0  0  0  0  0  0  0
  -55.6703  -28.7845  211.3554 C   0  0  0  0  0  0  0  0  0  0  0  0
  -58.6983  -29.5201  209.8173 O   0  0  0  0  0  0  0  0  0  0  0  0
  -58.4373  -26.5632  210.7396 O   0  0  0  0  0  0  0  0  0  0  0  0
  -59.1727  -24.2376  211.8094 O   0  0  0  0  0  0  0  0  0  0  0  0
  -60.4310  -27.6914  214.5205 C   0  0  0  0  0  0  0  0  0  0  0  0
  -59.8415  -27.0826  215.7657 C   0  0  0  0  0  0  0  0  0  0  0  0
  -59.2404  -27.8926  216.7435 C   0  0  0  0  0  0  0  0  0  0  0  0
  -58.7169  -27.3268  217.9060 C   0  0  0  0  0  0  0  0  0  0  0  0
  -58.7669  -25.9390  218.1151 C   0  0  0  0  0  0  0  0  0  0  0  0
  -58.2372  -25.3311  219.3875 C   0  0  2  0  0  0  0  0  0  0  0  0
  -58.4819  -23.9874  219.4779 F   0  0  0  0  0  0  0  0  0  0  0  0
  -56.8875  -25.4699  219.5217 F   0  0  0  0  0  0  0  0  0  0  0  0
  -58.7835  -25.8695  220.5154 F   0  0  0  0  0  0  0  0  0  0  0  0
  -59.3675  -25.1318  217.1373 C   0  0  0  0  0  0  0  0  0  0  0  0
  -59.8912  -25.6978  215.9720 C   0  0  0  0  0  0  0  0  0  0  0  0
  -54.1714  -27.8130  209.6109 N   0  0  0  0  0  0  0  0  0  0  0  0
  -52.9505  -27.2122  209.3479 C   0  0  0  0  0  0  0  0  0  0  0  0
  -52.0103  -27.2291  210.1331 O   0  0  0  0  0  0  0  0  0  0  0  0
  -52.8528  -26.4864  208.0158 C   0  0  0  0  0  0  0  0  0  0  0  0
  -51.6749  -25.4983  207.9538 C   0  0  0  0  0  0  0  0  0  0  0  0
  -50.7254  -25.7867  206.7759 C   0  0  0  0  0  0  0  0  0  0  0  0
  -50.7460  -27.2375  206.2830 C   0  0  0  0  0  0  0  0  0  0  0  0
  -49.9277  -27.5546  205.0329 C   0  0  0  0  0  0  0  0  0  0  0  0
  -49.2016  -28.9103  205.0882 C   0  0  0  0  0  0  0  0  0  0  0  0
  -47.6835  -28.7374  204.8934 C   0  0  0  0  0  0  0  0  0  0  0  0
  -47.0709  -29.6663  203.8374 C   0  0  0  0  0  0  0  0  0  0  0  0
  -45.6221  -29.2675  203.5150 C   0  0  0  0  0  0  0  0  0  0  0  0
  -44.8077  -30.3450  202.7736 C   0  0  0  0  0  0  0  0  0  0  0  0
  -43.9409  -29.7732  201.6412 C   0  0  0  0  0  0  0  0  0  0  0  0
  -44.2318  -30.4255  200.2787 C   0  0  0  0  0  0  0  0  0  0  0  0
  -43.4630  -29.7884  199.1008 C   0  0  0  0  0  0  0  0  0  0  0  0
  -43.7299  -30.4962  197.7698 C   0  0  0  0  0  0  0  0  0  0  0  0
  -42.4778  -31.0383  197.0553 C   0  0  0  0  0  0  0  0  0  0  0  0
  -42.4069  -30.4640  195.6334 C   0  0  0  0  0  0  0  0  0  0  0  0
  -41.0245  -29.9446  195.2164 C   0  0  0  0  0  0  0  0  0  0  0  0
  -40.8315  -30.0566  193.6895 C   0  0  0  0  0  0  0  0  0  0  0  0
  -39.7806  -31.1187  193.3306 C   0  0  0  0  0  0  0  0  0  0  0  0
  -38.9136  -30.7494  192.1110 C   0  0  0  0  0  0  0  0  0  0  0  0
  -38.5369  -32.0099  191.3266 C   0  0  0  0  0  0  0  0  0  0  0  0
  -37.6683  -31.7576  190.0946 C   0  0  0  0  0  0  0  0  0  0  0  0
  -37.2953  -33.0915  189.4155 C   0  0  0  0  0  0  0  0  0  0  0  0
  -36.5915  -32.9173  188.0728 C   0  0  0  0  0  0  0  0  0  0  0  0
  -36.2326  -34.2628  187.4495 C   0  0  0  0  0  0  0  0  0  0  0  0
  1  6  1  0
  1  8  1  6
  1 31  1  0
  2  3  1  0
  6  2  1  0
  2  9  1  1
  4  3  1  0
  3  7  1  1
  4  5  1  1
 31  4  1  0
  5 32  1  0
  6 30  1  6
  7 33  1  0
 29  8  1  0
 11 10  1  0
 12 11  1  0
 13 12  1  0
 14 13  1  0
 15 14  1  0
 16 15  1  0
 17 16  1  0
 18 17  1  0
 19 18  1  0
 20 19  1  0
 21 20  1  0
 22 21  1  0
 23 22  1  0
 24 23  1  0
 24 25  1  1
 26 24  1  0
 26 27  1  6
 28 26  1  0
 28 29  1  6
 28 44  1  0
 33 34  1  0
 34 35  2  0
 34 43  1  0
 35 36  1  0
 36 37  2  0
 37 38  1  0
 37 42  1  0
 38 39  1  6
 38 40  1  0
 38 41  1  0
 42 43  2  0
 44 45  1  0
 45 46  2  0
 45 47  1  0
 47 48  1  0
 48 49  1  0
 49 50  1  0
 50 51  1  0
 51 52  1  0
 52 53  1  0
 53 54  1  0
 54 55  1  0
 55 56  1  0
 56 57  1  0
 57 58  1  0
 58 59  1  0
 59 60  1  0
 60 61  1  0
 61 62  1  0
 62 63  1  0
 63 64  1  0
 64 65  1  0
 65 66  1  0
 66 67  1  0
 67 68  1  0
 68 69  1  0
 69 70  1  0
 70 71  1  0
M  END
$$$$
