
     RDKit          3D

 71 72  0  0  0  0  0  0  0  0999 V2000
  -56.6291  -29.8678  209.7806 C   0  0  1  0  0  0  0  0  0  0  0  0
  -58.2545  -30.0253  207.7883 C   0  0  1  0  0  0  0  0  0  0  0  0
  -59.1950  -29.5168  208.8936 C   0  0  2  0  0  0  0  0  0  0  0  0
  -58.4667  -28.3035  209.5313 C   0  0  1  0  0  0  0  0  0  0  0  0
  -59.3092  -27.4980  210.5323 C   0  0  0  0  0  0  0  0  0  0  0  0
  -56.8065  -30.2292  208.2809 C   0  0  1  0  0  0  0  0  0  0  0  0
  -59.4206  -30.6142  209.7844 O   0  0  0  0  0  0  0  0  0  0  0  0
  -55.2363  -29.8622  210.1161 O   0  0  0  0  0  0  0  0  0  0  0  0
  -58.7601  -31.2224  207.1943 O   0  0  0  0  0  0  0  0  0  0  0  0
  -46.1589  -31.3621  196.2444 C   0  0  0  0  0  0  0  0  0  0  0  0
  -46.2473  -31.0667  197.7334 C   0  0  0  0  0  0  0  0  0  0  0  0
  -47.3880  -31.7703  198.4652 C   0  0  0  0  0  0  0  0  0  0  0  0
  -47.4151  -31.3579  199.9534 C   0  0  0  0  0  0  0  0  0  0  0  0
  -48.6204  -31.9589  200.6893 C   0  0  0  0  0  0  0  0  0  0  0  0
  -48.9235  -31.2380  202.0148 C   0  0  0  0  0  0  0  0  0  0  0  0
  -50.0390  -30.1887  201.8741 C   0  0  0  0  0  0  0  0  0  0  0  0
  -51.1577  -30.2772  202.9288 C   0  0  0  0  0  0  0  0  0  0  0  0
  -50.7825  -31.0896  204.1645 C   0  0  0  0  0  0  0  0  0  0  0  0
  -51.8995  -31.1432  205.2289 C   0  0  0  0  0  0  0  0  0  0  0  0
  -51.4561  -32.0211  206.4014 C   0  0  0  0  0  0  0  0  0  0  0  0
  -50.7480  -31.3426  207.5730 C   0  0  0  0  0  0  0  0  0  0  0  0
  -51.0245  -32.0976  208.9071 C   0  0  0  0  0  0  0  0  0  0  0  0
  -52.0710  -31.4119  209.8195 C   0  0  0  0  0  0  0  0  0  0  0  0
  -51.5125  -30.2979  210.7437 C   0  0  1  0  0  0  0  0  0  0  0  0
  -51.3644  -29.1104  209.9633 O   0  0  0  0  0  0  0  0  0  0  0  0
  -52.4745  -30.0444  211.9523 C   0  0  1  0  0  0  0  0  0  0  0  0
  -51.7134  -29.7087  213.1219 O   0  0  0  0  0  0  0  0  0  0  0  0
  -53.6166  -29.0095  211.7063 C   0  0  2  0  0  0  0  0  0  0  0  0
  -55.0071  -29.6457  211.5054 C   0  0  0  0  0  0  0  0  0  0  0  0
  -55.9297  -29.4330  207.4386 O   0  0  0  0  0  0  0  0  0  0  0  0
  -57.2111  -28.6104  210.1485 O   0  0  0  0  0  0  0  0  0  0  0  0
  -59.4565  -28.1610  211.7742 O   0  0  0  0  0  0  0  0  0  0  0  0
  -60.7760  -31.0592  209.8763 C   0  0  0  0  0  0  0  0  0  0  0  0
  -61.1926  -31.0626  211.3238 C   0  0  0  0  0  0  0  0  0  0  0  0
  -60.2309  -31.0029  212.3460 C   0  0  0  0  0  0  0  0  0  0  0  0
  -60.6201  -31.0302  213.6852 C   0  0  0  0  0  0  0  0  0  0  0  0
  -61.9776  -31.1030  214.0375 C   0  0  0  0  0  0  0  0  0  0  0  0
  -62.3967  -31.1720  215.4827 C   0  0  2  0  0  0  0  0  0  0  0  0
  -62.7589  -32.4331  215.8726 F   0  0  0  0  0  0  0  0  0  0  0  0
  -63.4681  -30.3771  215.7645 F   0  0  0  0  0  0  0  0  0  0  0  0
  -61.4141  -30.7987  216.3519 F   0  0  0  0  0  0  0  0  0  0  0  0
  -62.9365  -31.1624  213.0150 C   0  0  0  0  0  0  0  0  0  0  0  0
  -62.5474  -31.1340  211.6733 C   0  0  0  0  0  0  0  0  0  0  0  0
  -53.2707  -28.1031  210.5895 N   0  0  0  0  0  0  0  0  0  0  0  0
  -52.3382  -27.0894  210.7433 C   0  0  0  0  0  0  0  0  0  0  0  0
  -52.0851  -26.5672  211.8222 O   0  0  0  0  0  0  0  0  0  0  0  0
  -51.6566  -26.6289  209.4648 C   0  0  0  0  0  0  0  0  0  0  0  0
  -52.3038  -27.2095  208.1953 C   0  0  0  0  0  0  0  0  0  0  0  0
  -52.4594  -26.1586  207.0800 C   0  0  0  0  0  0  0  0  0  0  0  0
  -52.0923  -26.6592  205.6790 C   0  0  0  0  0  0  0  0  0  0  0  0
  -52.1748  -25.6457  204.5392 C   0  0  0  0  0  0  0  0  0  0  0  0
  -51.9756  -26.2588  203.1418 C   0  0  0  0  0  0  0  0  0  0  0  0
  -50.5406  -26.0282  202.6318 C   0  0  0  0  0  0  0  0  0  0  0  0
  -50.0896  -27.0116  201.5442 C   0  0  0  0  0  0  0  0  0  0  0  0
  -48.6786  -26.6752  201.0367 C   0  0  0  0  0  0  0  0  0  0  0  0
  -48.4646  -26.9069  199.5286 C   0  0  0  0  0  0  0  0  0  0  0  0
  -47.1881  -27.7026  199.2158 C   0  0  0  0  0  0  0  0  0  0  0  0
  -47.4612  -29.1959  198.9658 C   0  0  0  0  0  0  0  0  0  0  0  0
  -46.3174  -29.9289  198.2319 C   0  0  0  0  0  0  0  0  0  0  0  0
  -46.2506  -31.4180  198.5811 C   0  0  0  0  0  0  0  0  0  0  0  0
  -44.8298  -31.9836  198.7629 C   0  0  0  0  0  0  0  0  0  0  0  0
  -44.8788  -33.5178  198.7378 C   0  0  0  0  0  0  0  0  0  0  0  0
  -43.5169  -34.2086  198.8887 C   0  0  0  0  0  0  0  0  0  0  0  0
  -43.6845  -35.7387  198.9980 C   0  0  0  0  0  0  0  0  0  0  0  0
  -42.5841  -36.4828  198.2257 C   0  0  0  0  0  0  0  0  0  0  0  0
  -43.1214  -37.5306  197.2312 C   0  0  0  0  0  0  0  0  0  0  0  0
  -42.1932  -37.6351  196.0173 C   0  0  0  0  0  0  0  0  0  0  0  0
  -42.6328  -38.6523  194.9648 C   0  0  0  0  0  0  0  0  0  0  0  0
  -43.7384  -38.0574  194.0687 C   0  0  0  0  0  0  0  0  0  0  0  0
  -43.9546  -38.8305  192.7709 C   0  0  0  0  0  0  0  0  0  0  0  0
  -45.0490  -38.1974  191.9171 C   0  0  0  0  0  0  0  0  0  0  0  0
  1  6  1  0
  1  8  1  6
  1 31  1  0
  2  3  1  0
  6  2  1  0
  2  9  1  1
  4  3  1  0
  3  7  1  1
  4  5  1  1
 31  4  1  0
  5 32  1  0
  6 30  1  6
  7 33  1  0
 29  8  1  0
 11 10  1  0
 12 11  1  0
 13 12  1  0
 14 13  1  0
 15 14  1  0
 16 15  1  0
 17 16  1  0
 18 17  1  0
 19 18  1  0
 20 19  1  0
 21 20  1  0
 22 21  1  0
 23 22  1  0
 24 23  1  0
 24 25  1  6
 26 24  1  0
 26 27  1  1
 28 26  1  0
 28 29  1  6
 28 44  1  0
 33 34  1  0
 34 35  2  0
 34 43  1  0
 35 36  1  0
 36 37  2  0
 37 38  1  0
 37 42  1  0
 38 39  1  1
 38 40  1  0
 38 41  1  0
 42 43  2  0
 44 45  1  0
 45 46  2  0
 45 47  1  0
 47 48  1  0
 48 49  1  0
 49 50  1  0
 50 51  1  0
 51 52  1  0
 52 53  1  0
 53 54  1  0
 54 55  1  0
 55 56  1  0
 56 57  1  0
 57 58  1  0
 58 59  1  0
 59 60  1  0
 60 61  1  0
 61 62  1  0
 62 63  1  0
 63 64  1  0
 64 65  1  0
 65 66  1  0
 66 67  1  0
 67 68  1  0
 68 69  1  0
 69 70  1  0
 70 71  1  0
M  END
$$$$
