
     RDKit          3D

 71 72  0  0  0  0  0  0  0  0999 V2000
  -58.5154  -31.1166  207.1488 C   0  0  1  0  0  0  0  0  0  0  0  0
  -58.8567  -29.5413  205.1394 C   0  0  1  0  0  0  0  0  0  0  0  0
  -59.6045  -28.7742  206.2426 C   0  0  2  0  0  0  0  0  0  0  0  0
  -58.6212  -28.7106  207.4420 C   0  0  1  0  0  0  0  0  0  0  0  0
  -59.0734  -27.8081  208.6004 C   0  0  0  0  0  0  0  0  0  0  0  0
  -58.2425  -30.8650  205.6411 C   0  0  1  0  0  0  0  0  0  0  0  0
  -60.8155  -29.4923  206.5002 O   0  0  0  0  0  0  0  0  0  0  0  0
  -57.7396  -32.2326  207.6019 O   0  0  0  0  0  0  0  0  0  0  0  0
  -59.7021  -29.7715  204.0108 O   0  0  0  0  0  0  0  0  0  0  0  0
  -42.3143  -32.3715  202.0465 C   0  0  0  0  0  0  0  0  0  0  0  0
  -41.8579  -32.2251  203.4896 C   0  0  0  0  0  0  0  0  0  0  0  0
  -42.4766  -31.0526  204.2473 C   0  0  0  0  0  0  0  0  0  0  0  0
  -42.4395  -31.3092  205.7699 C   0  0  0  0  0  0  0  0  0  0  0  0
  -42.7408  -30.0345  206.5700 C   0  0  0  0  0  0  0  0  0  0  0  0
  -43.0511  -30.3245  208.0493 C   0  0  0  0  0  0  0  0  0  0  0  0
  -44.5522  -30.5382  208.3063 C   0  0  0  0  0  0  0  0  0  0  0  0
  -45.3838  -29.2488  208.4383 C   0  0  0  0  0  0  0  0  0  0  0  0
  -46.4999  -29.3338  209.4750 C   0  0  0  0  0  0  0  0  0  0  0  0
  -47.4529  -30.5288  209.2574 C   0  0  0  0  0  0  0  0  0  0  0  0
  -48.8145  -30.0243  208.7740 C   0  0  0  0  0  0  0  0  0  0  0  0
  -49.8869  -31.0634  208.4509 C   0  0  0  0  0  0  0  0  0  0  0  0
  -51.2293  -30.3784  208.0569 C   0  0  0  0  0  0  0  0  0  0  0  0
  -52.4702  -30.9451  208.7894 C   0  0  0  0  0  0  0  0  0  0  0  0
  -52.8786  -32.3848  208.3798 C   0  0  1  0  0  0  0  0  0  0  0  0
  -53.3869  -33.0461  209.5397 O   0  0  0  0  0  0  0  0  0  0  0  0
  -53.9588  -32.3548  207.2472 C   0  0  1  0  0  0  0  0  0  0  0  0
  -54.0780  -33.6543  206.6497 O   0  0  0  0  0  0  0  0  0  0  0  0
  -55.3560  -31.7914  207.6553 C   0  0  2  0  0  0  0  0  0  0  0  0
  -56.5325  -32.3979  206.8638 C   0  0  0  0  0  0  0  0  0  0  0  0
  -56.8169  -30.8328  205.3606 O   0  0  0  0  0  0  0  0  0  0  0  0
  -58.2496  -29.9829  207.9850 O   0  0  0  0  0  0  0  0  0  0  0  0
  -59.7773  -28.5211  209.6003 O   0  0  0  0  0  0  0  0  0  0  0  0
  -61.7963  -29.4304  205.4620 C   0  0  0  0  0  0  0  0  0  0  0  0
  -63.1393  -29.1316  206.0751 C   0  0  0  0  0  0  0  0  0  0  0  0
  -63.5860  -29.8413  207.2020 C   0  0  0  0  0  0  0  0  0  0  0  0
  -64.8405  -29.5775  207.7521 C   0  0  0  0  0  0  0  0  0  0  0  0
  -65.6733  -28.5901  207.2010 C   0  0  0  0  0  0  0  0  0  0  0  0
  -67.0438  -28.3315  207.7702 C   0  0  2  0  0  0  0  0  0  0  0  0
  -67.3293  -26.9979  207.8861 F   0  0  0  0  0  0  0  0  0  0  0  0
  -67.2086  -28.8537  209.0188 F   0  0  0  0  0  0  0  0  0  0  0  0
  -68.0533  -28.8474  207.0118 F   0  0  0  0  0  0  0  0  0  0  0  0
  -65.2251  -27.8823  206.0756 C   0  0  0  0  0  0  0  0  0  0  0  0
  -63.9682  -28.1453  205.5247 C   0  0  0  0  0  0  0  0  0  0  0  0
  -55.3648  -30.3136  207.5887 N   0  0  0  0  0  0  0  0  0  0  0  0
  -54.3282  -29.5599  208.1160 C   0  0  0  0  0  0  0  0  0  0  0  0
  -53.1466  -29.8521  207.9770 O   0  0  0  0  0  0  0  0  0  0  0  0
  -54.7501  -28.3424  208.9227 C   0  0  0  0  0  0  0  0  0  0  0  0
  -53.5582  -27.4941  209.3996 C   0  0  0  0  0  0  0  0  0  0  0  0
  -53.6050  -26.0539  208.8555 C   0  0  0  0  0  0  0  0  0  0  0  0
  -52.4167  -25.1791  209.2687 C   0  0  0  0  0  0  0  0  0  0  0  0
  -52.4702  -23.7062  208.8681 C   0  0  0  0  0  0  0  0  0  0  0  0
  -51.3966  -22.8350  209.5438 C   0  0  0  0  0  0  0  0  0  0  0  0
  -51.4712  -21.3774  209.0515 C   0  0  0  0  0  0  0  0  0  0  0  0
  -50.4706  -20.4297  209.7253 C   0  0  0  0  0  0  0  0  0  0  0  0
  -50.7226  -20.3345  211.2383 C   0  0  0  0  0  0  0  0  0  0  0  0
  -49.5789  -19.6864  212.0419 C   0  0  0  0  0  0  0  0  0  0  0  0
  -48.8307  -18.5986  211.2562 C   0  0  0  0  0  0  0  0  0  0  0  0
  -47.7664  -17.8768  212.1008 C   0  0  0  0  0  0  0  0  0  0  0  0
  -47.0020  -16.7733  211.3378 C   0  0  0  0  0  0  0  0  0  0  0  0
  -45.8849  -16.1432  212.1738 C   0  0  0  0  0  0  0  0  0  0  0  0
  -44.7436  -15.5021  211.3623 C   0  0  0  0  0  0  0  0  0  0  0  0
  -43.8386  -14.6898  212.2991 C   0  0  0  0  0  0  0  0  0  0  0  0
  -42.3593  -15.0976  212.2797 C   0  0  0  0  0  0  0  0  0  0  0  0
  -42.1212  -16.2594  211.2924 C   0  0  0  0  0  0  0  0  0  0  0  0
  -40.7225  -16.8709  211.4684 C   0  0  0  0  0  0  0  0  0  0  0  0
  -40.5537  -18.2445  210.7900 C   0  0  0  0  0  0  0  0  0  0  0  0
  -39.1922  -18.8488  211.1467 C   0  0  0  0  0  0  0  0  0  0  0  0
  -39.0849  -20.3562  210.9187 C   0  0  0  0  0  0  0  0  0  0  0  0
  -40.1086  -21.1081  211.7939 C   0  0  0  0  0  0  0  0  0  0  0  0
  -40.0821  -22.6216  211.6007 C   0  0  0  0  0  0  0  0  0  0  0  0
  -41.1796  -23.3089  212.4076 C   0  0  0  0  0  0  0  0  0  0  0  0
  1  6  1  0
  1  8  1  1
  1 31  1  0
  2  3  1  0
  6  2  1  0
  2  9  1  6
  4  3  1  0
  3  7  1  1
  4  5  1  1
 31  4  1  0
  5 32  1  0
  6 30  1  1
  7 33  1  0
 29  8  1  0
 11 10  1  0
 12 11  1  0
 13 12  1  0
 14 13  1  0
 15 14  1  0
 16 15  1  0
 17 16  1  0
 18 17  1  0
 19 18  1  0
 20 19  1  0
 21 20  1  0
 22 21  1  0
 23 22  1  0
 24 23  1  0
 24 25  1  1
 26 24  1  0
 26 27  1  1
 28 26  1  0
 28 29  1  6
 28 44  1  0
 33 34  1  0
 34 35  2  0
 34 43  1  0
 35 36  1  0
 36 37  2  0
 37 38  1  0
 37 42  1  0
 38 39  1  1
 38 40  1  0
 38 41  1  0
 42 43  2  0
 44 45  1  0
 45 46  2  0
 45 47  1  0
 47 48  1  0
 48 49  1  0
 49 50  1  0
 50 51  1  0
 51 52  1  0
 52 53  1  0
 53 54  1  0
 54 55  1  0
 55 56  1  0
 56 57  1  0
 57 58  1  0
 58 59  1  0
 59 60  1  0
 60 61  1  0
 61 62  1  0
 62 63  1  0
 63 64  1  0
 64 65  1  0
 65 66  1  0
 66 67  1  0
 67 68  1  0
 68 69  1  0
 69 70  1  0
 70 71  1  0
M  END
$$$$
