
     RDKit          3D

 71 72  0  0  0  0  0  0  0  0999 V2000
  -56.3933  -28.9715  210.2506 C   0  0  1  0  0  0  0  0  0  0  0  0
  -58.1812  -27.7550  211.6504 C   0  0  1  0  0  0  0  0  0  0  0  0
  -57.3461  -28.4203  212.7570 C   0  0  2  0  0  0  0  0  0  0  0  0
  -55.8710  -28.0586  212.4368 C   0  0  1  0  0  0  0  0  0  0  0  0
  -54.8601  -28.4455  213.5273 C   0  0  0  0  0  0  0  0  0  0  0  0
  -57.6527  -28.0635  210.2338 C   0  0  1  0  0  0  0  0  0  0  0  0
  -57.6408  -29.8203  212.7149 O   0  0  0  0  0  0  0  0  0  0  0  0
  -55.8252  -29.0363  208.9369 O   0  0  0  0  0  0  0  0  0  0  0  0
  -59.5605  -28.1098  211.7642 O   0  0  0  0  0  0  0  0  0  0  0  0
  -44.3686  -18.6474  211.2141 C   0  0  0  0  0  0  0  0  0  0  0  0
  -44.7576  -17.1996  211.4685 C   0  0  0  0  0  0  0  0  0  0  0  0
  -46.1495  -16.8085  210.9773 C   0  0  0  0  0  0  0  0  0  0  0  0
  -46.9414  -18.0589  210.5358 C   0  0  0  0  0  0  0  0  0  0  0  0
  -46.6234  -18.4526  209.0869 C   0  0  0  0  0  0  0  0  0  0  0  0
  -47.8152  -19.1235  208.3812 C   0  0  0  0  0  0  0  0  0  0  0  0
  -48.3865  -20.3051  209.1829 C   0  0  0  0  0  0  0  0  0  0  0  0
  -49.3784  -21.1985  208.4150 C   0  0  0  0  0  0  0  0  0  0  0  0
  -49.7270  -22.4984  209.1335 C   0  0  0  0  0  0  0  0  0  0  0  0
  -50.9928  -22.3965  210.0114 C   0  0  0  0  0  0  0  0  0  0  0  0
  -51.9099  -23.5910  209.7389 C   0  0  0  0  0  0  0  0  0  0  0  0
  -51.2647  -24.9689  209.5997 C   0  0  0  0  0  0  0  0  0  0  0  0
  -51.0521  -25.6307  210.9938 C   0  0  0  0  0  0  0  0  0  0  0  0
  -52.1720  -26.6178  211.4053 C   0  0  0  0  0  0  0  0  0  0  0  0
  -53.3554  -26.7270  210.4080 C   0  0  1  0  0  0  0  0  0  0  0  0
  -54.0285  -25.4671  210.3825 O   0  0  0  0  0  0  0  0  0  0  0  0
  -52.8436  -27.1053  208.9778 C   0  0  1  0  0  0  0  0  0  0  0  0
  -51.5612  -27.7431  209.0695 O   0  0  0  0  0  0  0  0  0  0  0  0
  -53.8285  -27.9423  208.1029 C   0  0  2  0  0  0  0  0  0  0  0  0
  -55.3104  -27.7823  208.4990 C   0  0  0  0  0  0  0  0  0  0  0  0
  -57.3833  -26.7989  209.5701 O   0  0  0  0  0  0  0  0  0  0  0  0
  -55.3876  -28.5536  211.1827 O   0  0  0  0  0  0  0  0  0  0  0  0
  -53.5602  -28.6603  213.0100 O   0  0  0  0  0  0  0  0  0  0  0  0
  -57.3196  -30.5494  213.9019 C   0  0  0  0  0  0  0  0  0  0  0  0
  -58.2044  -30.0721  215.0235 C   0  0  0  0  0  0  0  0  0  0  0  0
  -57.6473  -29.5419  216.1991 C   0  0  0  0  0  0  0  0  0  0  0  0
  -58.4701  -29.1229  217.2447 C   0  0  0  0  0  0  0  0  0  0  0  0
  -59.8677  -29.2090  217.1379 C   0  0  0  0  0  0  0  0  0  0  0  0
  -60.7557  -28.7934  218.2815 C   0  0  2  0  0  0  0  0  0  0  0  0
  -60.3140  -29.2528  219.4928 F   0  0  0  0  0  0  0  0  0  0  0  0
  -62.0335  -29.2523  218.1568 F   0  0  0  0  0  0  0  0  0  0  0  0
  -60.8556  -27.4411  218.4282 F   0  0  0  0  0  0  0  0  0  0  0  0
  -60.4220  -29.7387  215.9629 C   0  0  0  0  0  0  0  0  0  0  0  0
  -59.5985  -30.1575  214.9146 C   0  0  0  0  0  0  0  0  0  0  0  0
  -53.4266  -29.3658  208.0779 N   0  0  0  0  0  0  0  0  0  0  0  0
  -52.2463  -29.7734  207.4768 C   0  0  0  0  0  0  0  0  0  0  0  0
  -51.1785  -29.1929  207.6308 O   0  0  0  0  0  0  0  0  0  0  0  0
  -52.3604  -30.9877  206.5693 C   0  0  0  0  0  0  0  0  0  0  0  0
  -51.0129  -31.6927  206.3353 C   0  0  0  0  0  0  0  0  0  0  0  0
  -49.9442  -30.7449  205.7593 C   0  0  0  0  0  0  0  0  0  0  0  0
  -48.6910  -31.4480  205.2270 C   0  0  0  0  0  0  0  0  0  0  0  0
  -48.0758  -30.8884  203.9460 C   0  0  0  0  0  0  0  0  0  0  0  0
  -46.8286  -31.6515  203.4661 C   0  0  0  0  0  0  0  0  0  0  0  0
  -46.5455  -31.3758  201.9773 C   0  0  0  0  0  0  0  0  0  0  0  0
  -45.3509  -32.1503  201.4061 C   0  0  0  0  0  0  0  0  0  0  0  0
  -45.1629  -31.8627  199.9082 C   0  0  0  0  0  0  0  0  0  0  0  0
  -45.2575  -33.1022  198.9979 C   0  0  0  0  0  0  0  0  0  0  0  0
  -43.8860  -33.6153  198.5331 C   0  0  0  0  0  0  0  0  0  0  0  0
  -43.4153  -32.9596  197.2234 C   0  0  0  0  0  0  0  0  0  0  0  0
  -43.0621  -33.9676  196.1083 C   0  0  0  0  0  0  0  0  0  0  0  0
  -44.1475  -34.0627  195.0328 C   0  0  0  0  0  0  0  0  0  0  0  0
  -43.8794  -35.0964  193.9232 C   0  0  0  0  0  0  0  0  0  0  0  0
  -45.0030  -35.0346  192.8790 C   0  0  0  0  0  0  0  0  0  0  0  0
  -44.8121  -35.9619  191.6713 C   0  0  0  0  0  0  0  0  0  0  0  0
  -46.0899  -36.7834  191.4001 C   0  0  0  0  0  0  0  0  0  0  0  0
  -46.7005  -36.4408  190.0322 C   0  0  0  0  0  0  0  0  0  0  0  0
  -46.4765  -37.5262  188.9611 C   0  0  0  0  0  0  0  0  0  0  0  0
  -46.3990  -38.9091  189.6151 C   0  0  0  0  0  0  0  0  0  0  0  0
  -45.7947  -39.9991  188.7306 C   0  0  0  0  0  0  0  0  0  0  0  0
  -46.7194  -40.2952  187.5320 C   0  0  0  0  0  0  0  0  0  0  0  0
  -45.9788  -40.8150  186.3031 C   0  0  0  0  0  0  0  0  0  0  0  0
  -46.9141  -41.5686  185.3623 C   0  0  0  0  0  0  0  0  0  0  0  0
  1  6  1  0
  1  8  1  6
  1 31  1  0
  2  3  1  0
  6  2  1  0
  2  9  1  6
  4  3  1  0
  3  7  1  6
  4  5  1  1
 31  4  1  0
  5 32  1  0
  6 30  1  1
  7 33  1  0
 29  8  1  0
 11 10  1  0
 12 11  1  0
 13 12  1  0
 14 13  1  0
 15 14  1  0
 16 15  1  0
 17 16  1  0
 18 17  1  0
 19 18  1  0
 20 19  1  0
 21 20  1  0
 22 21  1  0
 23 22  1  0
 24 23  1  0
 24 25  1  6
 26 24  1  0
 26 27  1  1
 28 26  1  0
 28 29  1  1
 28 44  1  0
 33 34  1  0
 34 35  2  0
 34 43  1  0
 35 36  1  0
 36 37  2  0
 37 38  1  0
 37 42  1  0
 38 39  1  1
 38 40  1  0
 38 41  1  0
 42 43  2  0
 44 45  1  0
 45 46  2  0
 45 47  1  0
 47 48  1  0
 48 49  1  0
 49 50  1  0
 50 51  1  0
 51 52  1  0
 52 53  1  0
 53 54  1  0
 54 55  1  0
 55 56  1  0
 56 57  1  0
 57 58  1  0
 58 59  1  0
 59 60  1  0
 60 61  1  0
 61 62  1  0
 62 63  1  0
 63 64  1  0
 64 65  1  0
 65 66  1  0
 66 67  1  0
 67 68  1  0
 68 69  1  0
 69 70  1  0
 70 71  1  0
M  END
$$$$
