
     RDKit          3D

 71 72  0  0  0  0  0  0  0  0999 V2000
  -55.8242  -30.6191  209.6285 C   0  0  1  0  0  0  0  0  0  0  0  0
  -58.0193  -29.8311  208.5346 C   0  0  1  0  0  0  0  0  0  0  0  0
  -57.7868  -28.7118  209.5630 C   0  0  2  0  0  0  0  0  0  0  0  0
  -56.3165  -28.2590  209.3570 C   0  0  1  0  0  0  0  0  0  0  0  0
  -55.9127  -27.0005  210.1405 C   0  0  0  0  0  0  0  0  0  0  0  0
  -56.9190  -30.9125  208.5672 C   0  0  1  0  0  0  0  0  0  0  0  0
  -58.0660  -29.2676  210.8521 O   0  0  0  0  0  0  0  0  0  0  0  0
  -54.7286  -31.5264  209.4580 O   0  0  0  0  0  0  0  0  0  0  0  0
  -59.3113  -30.4188  208.6984 O   0  0  0  0  0  0  0  0  0  0  0  0
  -42.5641  -21.5082  211.4469 C   0  0  0  0  0  0  0  0  0  0  0  0
  -42.4814  -21.6195  209.9327 C   0  0  0  0  0  0  0  0  0  0  0  0
  -42.3578  -23.0434  209.3951 C   0  0  0  0  0  0  0  0  0  0  0  0
  -42.2939  -23.0380  207.8519 C   0  0  0  0  0  0  0  0  0  0  0  0
  -43.1896  -24.1242  207.2407 C   0  0  0  0  0  0  0  0  0  0  0  0
  -44.6466  -23.6600  207.0663 C   0  0  0  0  0  0  0  0  0  0  0  0
  -45.3456  -24.3440  205.8794 C   0  0  0  0  0  0  0  0  0  0  0  0
  -46.8492  -24.0408  205.7421 C   0  0  0  0  0  0  0  0  0  0  0  0
  -47.5357  -24.8050  204.6141 C   0  0  0  0  0  0  0  0  0  0  0  0
  -49.0432  -24.4963  204.4894 C   0  0  0  0  0  0  0  0  0  0  0  0
  -49.8316  -25.3545  205.4813 C   0  0  0  0  0  0  0  0  0  0  0  0
  -50.5763  -26.5725  204.9367 C   0  0  0  0  0  0  0  0  0  0  0  0
  -50.9434  -27.5621  206.0822 C   0  0  0  0  0  0  0  0  0  0  0  0
  -50.4263  -29.0054  205.8643 C   0  0  0  0  0  0  0  0  0  0  0  0
  -51.5052  -30.1158  205.9654 C   0  0  1  0  0  0  0  0  0  0  0  0
  -51.0439  -31.2477  205.2259 O   0  0  0  0  0  0  0  0  0  0  0  0
  -51.7643  -30.5044  207.4595 C   0  0  1  0  0  0  0  0  0  0  0  0
  -50.8475  -29.8044  208.3136 O   0  0  0  0  0  0  0  0  0  0  0  0
  -53.2344  -30.3440  207.9584 C   0  0  2  0  0  0  0  0  0  0  0  0
  -53.4704  -30.8616  209.3919 C   0  0  0  0  0  0  0  0  0  0  0  0
  -56.3489  -31.0129  207.2341 O   0  0  0  0  0  0  0  0  0  0  0  0
  -55.3340  -29.2722  209.6010 O   0  0  0  0  0  0  0  0  0  0  0  0
  -54.8774  -27.2509  211.0726 O   0  0  0  0  0  0  0  0  0  0  0  0
  -59.3174  -28.8832  211.4264 C   0  0  0  0  0  0  0  0  0  0  0  0
  -59.0725  -28.3235  212.8032 C   0  0  0  0  0  0  0  0  0  0  0  0
  -59.4235  -26.9986  213.1106 C   0  0  0  0  0  0  0  0  0  0  0  0
  -59.1731  -26.4772  214.3800 C   0  0  0  0  0  0  0  0  0  0  0  0
  -58.5803  -27.2683  215.3774 C   0  0  0  0  0  0  0  0  0  0  0  0
  -58.2737  -26.6947  216.7361 C   0  0  2  0  0  0  0  0  0  0  0  0
  -57.0002  -26.2022  216.8313 F   0  0  0  0  0  0  0  0  0  0  0  0
  -58.3906  -27.6110  217.7390 F   0  0  0  0  0  0  0  0  0  0  0  0
  -59.0849  -25.6543  217.0823 F   0  0  0  0  0  0  0  0  0  0  0  0
  -58.2305  -28.5914  215.0683 C   0  0  0  0  0  0  0  0  0  0  0  0
  -58.4820  -29.1146  213.7973 C   0  0  0  0  0  0  0  0  0  0  0  0
  -54.1822  -30.9547  207.0006 N   0  0  0  0  0  0  0  0  0  0  0  0
  -54.0196  -30.8116  205.6318 C   0  0  0  0  0  0  0  0  0  0  0  0
  -54.1542  -29.7435  205.0471 O   0  0  0  0  0  0  0  0  0  0  0  0
  -53.6910  -32.0889  204.8757 C   0  0  0  0  0  0  0  0  0  0  0  0
  -54.7580  -32.4615  203.8316 C   0  0  0  0  0  0  0  0  0  0  0  0
  -54.1416  -32.9682  202.5142 C   0  0  0  0  0  0  0  0  0  0  0  0
  -53.3813  -31.9031  201.7169 C   0  0  0  0  0  0  0  0  0  0  0  0
  -52.2392  -32.3898  200.8271 C   0  0  0  0  0  0  0  0  0  0  0  0
  -51.5083  -31.2632  200.0757 C   0  0  0  0  0  0  0  0  0  0  0  0
  -50.7016  -31.8187  198.8869 C   0  0  0  0  0  0  0  0  0  0  0  0
  -49.4863  -30.9689  198.4942 C   0  0  0  0  0  0  0  0  0  0  0  0
  -48.7311  -31.5881  197.3076 C   0  0  0  0  0  0  0  0  0  0  0  0
  -47.5599  -30.7395  196.7764 C   0  0  0  0  0  0  0  0  0  0  0  0
  -46.5414  -30.3685  197.8653 C   0  0  0  0  0  0  0  0  0  0  0  0
  -47.1837  -30.2069  199.2539 C   0  0  0  0  0  0  0  0  0  0  0  0
  -46.1698  -29.9381  200.3870 C   0  0  0  0  0  0  0  0  0  0  0  0
  -44.7170  -30.0191  199.9108 C   0  0  0  0  0  0  0  0  0  0  0  0
  -43.7321  -29.1009  200.6582 C   0  0  0  0  0  0  0  0  0  0  0  0
  -42.3367  -29.2220  200.0297 C   0  0  0  0  0  0  0  0  0  0  0  0
  -41.2580  -29.7921  200.9604 C   0  0  0  0  0  0  0  0  0  0  0  0
  -41.7657  -31.0585  201.6813 C   0  0  0  0  0  0  0  0  0  0  0  0
  -41.7495  -30.8827  203.2077 C   0  0  0  0  0  0  0  0  0  0  0  0
  -43.1526  -30.7841  203.8379 C   0  0  0  0  0  0  0  0  0  0  0  0
  -43.3257  -31.8561  204.9182 C   0  0  0  0  0  0  0  0  0  0  0  0
  -43.2572  -31.3323  206.3522 C   0  0  0  0  0  0  0  0  0  0  0  0
  -44.6400  -31.4302  207.0287 C   0  0  0  0  0  0  0  0  0  0  0  0
  -44.6362  -30.9969  208.4919 C   0  0  0  0  0  0  0  0  0  0  0  0
  -46.0451  -30.9876  209.0773 C   0  0  0  0  0  0  0  0  0  0  0  0
  1  6  1  0
  1  8  1  6
  1 31  1  0
  2  3  1  0
  6  2  1  0
  2  9  1  1
  4  3  1  0
  3  7  1  1
  4  5  1  1
 31  4  1  0
  5 32  1  0
  6 30  1  6
  7 33  1  0
 29  8  1  0
 11 10  1  0
 12 11  1  0
 13 12  1  0
 14 13  1  0
 15 14  1  0
 16 15  1  0
 17 16  1  0
 18 17  1  0
 19 18  1  0
 20 19  1  0
 21 20  1  0
 22 21  1  0
 23 22  1  0
 24 23  1  0
 24 25  1  6
 26 24  1  0
 26 27  1  1
 28 26  1  0
 28 29  1  1
 28 44  1  0
 33 34  1  0
 34 35  2  0
 34 43  1  0
 35 36  1  0
 36 37  2  0
 37 38  1  0
 37 42  1  0
 38 39  1  6
 38 40  1  0
 38 41  1  0
 42 43  2  0
 44 45  1  0
 45 46  2  0
 45 47  1  0
 47 48  1  0
 48 49  1  0
 49 50  1  0
 50 51  1  0
 51 52  1  0
 52 53  1  0
 53 54  1  0
 54 55  1  0
 55 56  1  0
 56 57  1  0
 57 58  1  0
 58 59  1  0
 59 60  1  0
 60 61  1  0
 61 62  1  0
 62 63  1  0
 63 64  1  0
 64 65  1  0
 65 66  1  0
 66 67  1  0
 67 68  1  0
 68 69  1  0
 69 70  1  0
 70 71  1  0
M  END
$$$$
