
     RDKit          3D

 71 72  0  0  0  0  0  0  0  0999 V2000
  -56.2339  -30.2759  210.4512 C   0  0  1  0  0  0  0  0  0  0  0  0
  -58.7739  -30.1257  210.8534 C   0  0  1  0  0  0  0  0  0  0  0  0
  -58.2379  -29.3802  212.0870 C   0  0  2  0  0  0  0  0  0  0  0  0
  -57.2225  -28.3438  211.5356 C   0  0  1  0  0  0  0  0  0  0  0  0
  -56.7028  -27.3350  212.5715 C   0  0  0  0  0  0  0  0  0  0  0  0
  -57.6504  -30.6371  209.9276 C   0  0  1  0  0  0  0  0  0  0  0  0
  -57.6724  -30.3673  212.9556 O   0  0  0  0  0  0  0  0  0  0  0  0
  -55.2556  -30.5761  209.4485 O   0  0  0  0  0  0  0  0  0  0  0  0
  -59.6403  -31.1955  211.2362 O   0  0  0  0  0  0  0  0  0  0  0  0
  -50.4909  -19.2078  205.1729 C   0  0  0  0  0  0  0  0  0  0  0  0
  -49.2822  -19.9237  204.5911 C   0  0  0  0  0  0  0  0  0  0  0  0
  -49.3609  -21.4485  204.6147 C   0  0  0  0  0  0  0  0  0  0  0  0
  -48.0619  -22.0685  204.0548 C   0  0  0  0  0  0  0  0  0  0  0  0
  -47.1567  -22.6018  205.1737 C   0  0  0  0  0  0  0  0  0  0  0  0
  -45.8493  -23.2109  204.6368 C   0  0  0  0  0  0  0  0  0  0  0  0
  -44.9514  -23.7619  205.7572 C   0  0  0  0  0  0  0  0  0  0  0  0
  -45.1427  -25.2569  206.0737 C   0  0  0  0  0  0  0  0  0  0  0  0
  -45.8249  -25.5254  207.4117 C   0  0  0  0  0  0  0  0  0  0  0  0
  -46.5162  -26.9038  207.4849 C   0  0  0  0  0  0  0  0  0  0  0  0
  -47.8804  -26.8365  206.7947 C   0  0  0  0  0  0  0  0  0  0  0  0
  -48.7039  -28.1210  206.7148 C   0  0  0  0  0  0  0  0  0  0  0  0
  -50.0279  -27.8889  205.9276 C   0  0  0  0  0  0  0  0  0  0  0  0
  -51.2874  -28.4658  206.6195 C   0  0  0  0  0  0  0  0  0  0  0  0
  -51.3126  -30.0104  206.7637 C   0  0  1  0  0  0  0  0  0  0  0  0
  -50.0061  -30.4387  207.1517 O   0  0  0  0  0  0  0  0  0  0  0  0
  -52.3735  -30.4519  207.8267 C   0  0  1  0  0  0  0  0  0  0  0  0
  -51.7785  -30.4734  209.1326 O   0  0  0  0  0  0  0  0  0  0  0  0
  -53.7097  -29.6452  207.8290 C   0  0  2  0  0  0  0  0  0  0  0  0
  -54.3515  -29.4985  209.2237 C   0  0  0  0  0  0  0  0  0  0  0  0
  -57.8784  -30.0896  208.6007 O   0  0  0  0  0  0  0  0  0  0  0  0
  -56.0949  -28.9076  210.8556 O   0  0  0  0  0  0  0  0  0  0  0  0
  -55.3658  -27.5940  212.9573 O   0  0  0  0  0  0  0  0  0  0  0  0
  -58.4100  -30.6236  214.1532 C   0  0  0  0  0  0  0  0  0  0  0  0
  -58.3593  -29.3999  215.0300 C   0  0  0  0  0  0  0  0  0  0  0  0
  -57.1492  -28.9835  215.6092 C   0  0  0  0  0  0  0  0  0  0  0  0
  -57.1115  -27.8634  216.4397 C   0  0  0  0  0  0  0  0  0  0  0  0
  -58.2760  -27.1232  216.7009 C   0  0  0  0  0  0  0  0  0  0  0  0
  -58.2440  -25.9368  217.6285 C   0  0  2  0  0  0  0  0  0  0  0  0
  -57.2360  -26.0095  218.5515 F   0  0  0  0  0  0  0  0  0  0  0  0
  -59.3932  -25.7930  218.3481 F   0  0  0  0  0  0  0  0  0  0  0  0
  -58.0534  -24.7492  216.9853 F   0  0  0  0  0  0  0  0  0  0  0  0
  -59.4836  -27.5408  216.1212 C   0  0  0  0  0  0  0  0  0  0  0  0
  -59.5218  -28.6621  215.2884 C   0  0  0  0  0  0  0  0  0  0  0  0
  -54.6651  -30.2114  206.8516 N   0  0  0  0  0  0  0  0  0  0  0  0
  -54.3355  -30.3440  205.5120 C   0  0  0  0  0  0  0  0  0  0  0  0
  -53.9694  -29.4062  204.8140 O   0  0  0  0  0  0  0  0  0  0  0  0
  -54.4897  -31.7426  204.9364 C   0  0  0  0  0  0  0  0  0  0  0  0
  -53.5124  -32.0298  203.7832 C   0  0  0  0  0  0  0  0  0  0  0  0
  -52.4624  -30.9164  203.6097 C   0  0  0  0  0  0  0  0  0  0  0  0
  -51.4908  -31.1345  202.4450 C   0  0  0  0  0  0  0  0  0  0  0  0
  -51.0287  -29.8911  201.6880 C   0  0  0  0  0  0  0  0  0  0  0  0
  -49.6349  -30.0292  201.0504 C   0  0  0  0  0  0  0  0  0  0  0  0
  -49.5306  -29.2022  199.7551 C   0  0  0  0  0  0  0  0  0  0  0  0
  -48.4788  -28.0863  199.7994 C   0  0  0  0  0  0  0  0  0  0  0  0
  -47.4371  -28.2553  198.6824 C   0  0  0  0  0  0  0  0  0  0  0  0
  -46.0648  -27.6215  198.9806 C   0  0  0  0  0  0  0  0  0  0  0  0
  -44.9389  -28.1756  198.0941 C   0  0  0  0  0  0  0  0  0  0  0  0
  -43.6592  -28.4974  198.8851 C   0  0  0  0  0  0  0  0  0  0  0  0
  -42.8692  -29.7053  198.3364 C   0  0  0  0  0  0  0  0  0  0  0  0
  -43.1086  -30.9836  199.1442 C   0  0  0  0  0  0  0  0  0  0  0  0
  -44.3375  -31.8070  198.7157 C   0  0  0  0  0  0  0  0  0  0  0  0
  -44.4661  -33.0457  199.6133 C   0  0  0  0  0  0  0  0  0  0  0  0
  -44.4159  -34.3877  198.8707 C   0  0  0  0  0  0  0  0  0  0  0  0
  -44.4420  -35.5683  199.8639 C   0  0  0  0  0  0  0  0  0  0  0  0
  -44.3949  -36.9198  199.1344 C   0  0  0  0  0  0  0  0  0  0  0  0
  -44.8497  -36.8493  197.6633 C   0  0  0  0  0  0  0  0  0  0  0  0
  -46.2318  -37.4901  197.5039 C   0  0  0  0  0  0  0  0  0  0  0  0
  -46.7806  -37.4741  196.0777 C   0  0  0  0  0  0  0  0  0  0  0  0
  -48.2941  -37.1765  196.0856 C   0  0  0  0  0  0  0  0  0  0  0  0
  -48.7885  -36.4909  194.8151 C   0  0  0  0  0  0  0  0  0  0  0  0
  -50.2829  -36.1918  194.8848 C   0  0  0  0  0  0  0  0  0  0  0  0
  1  6  1  0
  1  8  1  6
  1 31  1  0
  2  3  1  0
  6  2  1  0
  2  9  1  1
  4  3  1  0
  3  7  1  1
  4  5  1  1
 31  4  1  0
  5 32  1  0
  6 30  1  6
  7 33  1  0
 29  8  1  0
 11 10  1  0
 12 11  1  0
 13 12  1  0
 14 13  1  0
 15 14  1  0
 16 15  1  0
 17 16  1  0
 18 17  1  0
 19 18  1  0
 20 19  1  0
 21 20  1  0
 22 21  1  0
 23 22  1  0
 24 23  1  0
 24 25  1  1
 26 24  1  0
 26 27  1  1
 28 26  1  0
 28 29  1  1
 28 44  1  0
 33 34  1  0
 34 35  2  0
 34 43  1  0
 35 36  1  0
 36 37  2  0
 37 38  1  0
 37 42  1  0
 38 39  1  1
 38 40  1  0
 38 41  1  0
 42 43  2  0
 44 45  1  0
 45 46  2  0
 45 47  1  0
 47 48  1  0
 48 49  1  0
 49 50  1  0
 50 51  1  0
 51 52  1  0
 52 53  1  0
 53 54  1  0
 54 55  1  0
 55 56  1  0
 56 57  1  0
 57 58  1  0
 58 59  1  0
 59 60  1  0
 60 61  1  0
 61 62  1  0
 62 63  1  0
 63 64  1  0
 64 65  1  0
 65 66  1  0
 66 67  1  0
 67 68  1  0
 68 69  1  0
 69 70  1  0
 70 71  1  0
M  END
$$$$
