
     RDKit          3D

 71 72  0  0  0  0  0  0  0  0999 V2000
  -53.5415  -31.2678  203.5343 C   0  0  1  0  0  0  0  0  0  0  0  0
  -51.8671  -32.2146  201.8207 C   0  0  1  0  0  0  0  0  0  0  0  0
  -52.7699  -31.3665  200.9095 C   0  0  2  0  0  0  0  0  0  0  0  0
  -52.8623  -29.9771  201.5955 C   0  0  1  0  0  0  0  0  0  0  0  0
  -53.5521  -28.8886  200.7588 C   0  0  0  0  0  0  0  0  0  0  0  0
  -52.2972  -32.1673  203.3019 C   0  0  1  0  0  0  0  0  0  0  0  0
  -54.0162  -32.0613  200.7966 O   0  0  0  0  0  0  0  0  0  0  0  0
  -53.7526  -31.0867  204.9397 O   0  0  0  0  0  0  0  0  0  0  0  0
  -51.7936  -33.5644  201.3581 O   0  0  0  0  0  0  0  0  0  0  0  0
  -49.6760  -28.6701  199.3631 C   0  0  0  0  0  0  0  0  0  0  0  0
  -48.2900  -28.9314  198.7949 C   0  0  0  0  0  0  0  0  0  0  0  0
  -47.6058  -30.1937  199.3143 C   0  0  0  0  0  0  0  0  0  0  0  0
  -46.1918  -30.3339  198.7088 C   0  0  0  0  0  0  0  0  0  0  0  0
  -45.4795  -31.5972  199.2112 C   0  0  0  0  0  0  0  0  0  0  0  0
  -43.9466  -31.4632  199.1809 C   0  0  0  0  0  0  0  0  0  0  0  0
  -43.2827  -31.9914  200.4637 C   0  0  0  0  0  0  0  0  0  0  0  0
  -44.2026  -32.8121  201.3866 C   0  0  0  0  0  0  0  0  0  0  0  0
  -45.1085  -31.9634  202.2736 C   0  0  0  0  0  0  0  0  0  0  0  0
  -45.3431  -32.5699  203.6738 C   0  0  0  0  0  0  0  0  0  0  0  0
  -46.2775  -31.6653  204.4804 C   0  0  0  0  0  0  0  0  0  0  0  0
  -47.0449  -32.2892  205.6450 C   0  0  0  0  0  0  0  0  0  0  0  0
  -47.6408  -31.1907  206.5749 C   0  0  0  0  0  0  0  0  0  0  0  0
  -49.1639  -30.9708  206.4025 C   0  0  0  0  0  0  0  0  0  0  0  0
  -50.0648  -31.8494  207.3101 C   0  0  1  0  0  0  0  0  0  0  0  0
  -50.0525  -31.2851  208.6226 O   0  0  0  0  0  0  0  0  0  0  0  0
  -51.5260  -31.9090  206.7516 C   0  0  1  0  0  0  0  0  0  0  0  0
  -52.2352  -33.0030  207.3517 O   0  0  0  0  0  0  0  0  0  0  0  0
  -52.3455  -30.5843  206.8493 C   0  0  2  0  0  0  0  0  0  0  0  0
  -52.9021  -30.0900  205.4986 C   0  0  0  0  0  0  0  0  0  0  0  0
  -51.1613  -31.7099  204.0846 O   0  0  0  0  0  0  0  0  0  0  0  0
  -53.4595  -29.9862  202.8974 O   0  0  0  0  0  0  0  0  0  0  0  0
  -54.6142  -28.2621  201.4537 O   0  0  0  0  0  0  0  0  0  0  0  0
  -54.3954  -32.4258  199.4674 C   0  0  0  0  0  0  0  0  0  0  0  0
  -53.1537  -32.7260  198.6694 C   0  0  0  0  0  0  0  0  0  0  0  0
  -52.0831  -31.8170  198.6415 C   0  0  0  0  0  0  0  0  0  0  0  0
  -50.9449  -32.0884  197.8822 C   0  0  0  0  0  0  0  0  0  0  0  0
  -50.8405  -33.2787  197.1444 C   0  0  0  0  0  0  0  0  0  0  0  0
  -49.6287  -33.5548  196.2933 C   0  0  2  0  0  0  0  0  0  0  0  0
  -48.8685  -34.5891  196.7685 F   0  0  0  0  0  0  0  0  0  0  0  0
  -48.7852  -32.4871  196.2062 F   0  0  0  0  0  0  0  0  0  0  0  0
  -49.9335  -33.8975  195.0088 F   0  0  0  0  0  0  0  0  0  0  0  0
  -51.9108  -34.1854  197.1738 C   0  0  0  0  0  0  0  0  0  0  0  0
  -53.0508  -33.9146  197.9350 C   0  0  0  0  0  0  0  0  0  0  0  0
  -51.5592  -29.5307  207.5278 N   0  0  0  0  0  0  0  0  0  0  0  0
  -51.7710  -29.2158  208.8607 C   0  0  0  0  0  0  0  0  0  0  0  0
  -52.6047  -29.7787  209.5599 O   0  0  0  0  0  0  0  0  0  0  0  0
  -50.9156  -28.0850  209.4090 C   0  0  0  0  0  0  0  0  0  0  0  0
  -51.6689  -27.1913  210.4097 C   0  0  0  0  0  0  0  0  0  0  0  0
  -50.8243  -26.8580  211.6538 C   0  0  0  0  0  0  0  0  0  0  0  0
  -49.6270  -25.9408  211.3824 C   0  0  0  0  0  0  0  0  0  0  0  0
  -48.4004  -26.1233  212.2740 C   0  0  0  0  0  0  0  0  0  0  0  0
  -47.8053  -24.8038  212.7965 C   0  0  0  0  0  0  0  0  0  0  0  0
  -46.2929  -24.9387  213.0550 C   0  0  0  0  0  0  0  0  0  0  0  0
  -45.6076  -23.6390  213.4962 C   0  0  0  0  0  0  0  0  0  0  0  0
  -44.0943  -23.6879  213.2332 C   0  0  0  0  0  0  0  0  0  0  0  0
  -43.2970  -22.5183  213.8418 C   0  0  0  0  0  0  0  0  0  0  0  0
  -43.3362  -21.2478  212.9788 C   0  0  0  0  0  0  0  0  0  0  0  0
  -43.0328  -19.9709  213.7814 C   0  0  0  0  0  0  0  0  0  0  0  0
  -43.0418  -18.6800  212.9342 C   0  0  0  0  0  0  0  0  0  0  0  0
  -44.4523  -18.1257  212.7176 C   0  0  0  0  0  0  0  0  0  0  0  0
  -45.3969  -18.2518  213.9274 C   0  0  0  0  0  0  0  0  0  0  0  0
  -45.7484  -16.8535  214.4546 C   0  0  0  0  0  0  0  0  0  0  0  0
  -44.7488  -15.7522  214.0766 C   0  0  0  0  0  0  0  0  0  0  0  0
  -45.4800  -14.4337  213.7481 C   0  0  0  0  0  0  0  0  0  0  0  0
  -46.9594  -14.6781  213.4124 C   0  0  0  0  0  0  0  0  0  0  0  0
  -47.8963  -13.5404  213.8632 C   0  0  0  0  0  0  0  0  0  0  0  0
  -49.0027  -13.3220  212.8268 C   0  0  0  0  0  0  0  0  0  0  0  0
  -49.4888  -14.5956  212.1359 C   0  0  0  0  0  0  0  0  0  0  0  0
  -48.6296  -14.8950  210.8903 C   0  0  0  0  0  0  0  0  0  0  0  0
  -49.3357  -15.7677  209.8567 C   0  0  0  0  0  0  0  0  0  0  0  0
  -48.3585  -16.7041  209.1525 C   0  0  0  0  0  0  0  0  0  0  0  0
  1  6  1  0
  1  8  1  1
  1 31  1  0
  2  3  1  0
  6  2  1  0
  2  9  1  6
  4  3  1  0
  3  7  1  1
  4  5  1  6
 31  4  1  0
  5 32  1  0
  6 30  1  1
  7 33  1  0
 29  8  1  0
 11 10  1  0
 12 11  1  0
 13 12  1  0
 14 13  1  0
 15 14  1  0
 16 15  1  0
 17 16  1  0
 18 17  1  0
 19 18  1  0
 20 19  1  0
 21 20  1  0
 22 21  1  0
 23 22  1  0
 24 23  1  0
 24 25  1  1
 26 24  1  0
 26 27  1  1
 28 26  1  0
 28 29  1  6
 28 44  1  0
 33 34  1  0
 34 35  2  0
 34 43  1  0
 35 36  1  0
 36 37  2  0
 37 38  1  0
 37 42  1  0
 38 39  1  1
 38 40  1  0
 38 41  1  0
 42 43  2  0
 44 45  1  0
 45 46  2  0
 45 47  1  0
 47 48  1  0
 48 49  1  0
 49 50  1  0
 50 51  1  0
 51 52  1  0
 52 53  1  0
 53 54  1  0
 54 55  1  0
 55 56  1  0
 56 57  1  0
 57 58  1  0
 58 59  1  0
 59 60  1  0
 60 61  1  0
 61 62  1  0
 62 63  1  0
 63 64  1  0
 64 65  1  0
 65 66  1  0
 66 67  1  0
 67 68  1  0
 68 69  1  0
 69 70  1  0
 70 71  1  0
M  END
$$$$
