
     RDKit          3D

 71 72  0  0  0  0  0  0  0  0999 V2000
  -55.7641  -29.6138  209.2510 C   0  0  1  0  0  0  0  0  0  0  0  0
  -57.6390  -30.9418  208.0861 C   0  0  1  0  0  0  0  0  0  0  0  0
  -58.4355  -29.7642  208.6722 C   0  0  2  0  0  0  0  0  0  0  0  0
  -57.6627  -28.4879  208.2442 C   0  0  1  0  0  0  0  0  0  0  0  0
  -58.3848  -27.1651  208.5438 C   0  0  0  0  0  0  0  0  0  0  0  0
  -56.1324  -30.8666  208.4108 C   0  0  1  0  0  0  0  0  0  0  0  0
  -58.5068  -29.9737  210.0863 O   0  0  0  0  0  0  0  0  0  0  0  0
  -54.3394  -29.4832  209.3271 O   0  0  0  0  0  0  0  0  0  0  0  0
  -58.1858  -32.1925  208.5086 O   0  0  0  0  0  0  0  0  0  0  0  0
  -45.1972  -31.1193  192.5747 C   0  0  0  0  0  0  0  0  0  0  0  0
  -44.8980  -31.6760  193.9577 C   0  0  0  0  0  0  0  0  0  0  0  0
  -46.0985  -31.7496  194.8985 C   0  0  0  0  0  0  0  0  0  0  0  0
  -45.6704  -32.2770  196.2856 C   0  0  0  0  0  0  0  0  0  0  0  0
  -46.8705  -32.4403  197.2283 C   0  0  0  0  0  0  0  0  0  0  0  0
  -46.7980  -31.5018  198.4459 C   0  0  0  0  0  0  0  0  0  0  0  0
  -47.6044  -30.2082  198.2426 C   0  0  0  0  0  0  0  0  0  0  0  0
  -48.2254  -29.6162  199.5215 C   0  0  0  0  0  0  0  0  0  0  0  0
  -48.1883  -30.5570  200.7220 C   0  0  0  0  0  0  0  0  0  0  0  0
  -49.2963  -30.2753  201.7596 C   0  0  0  0  0  0  0  0  0  0  0  0
  -49.1805  -31.2635  202.9224 C   0  0  0  0  0  0  0  0  0  0  0  0
  -50.2326  -31.1911  204.0280 C   0  0  0  0  0  0  0  0  0  0  0  0
  -50.0504  -32.3517  205.0508 C   0  0  0  0  0  0  0  0  0  0  0  0
  -51.0989  -32.3642  206.1902 C   0  0  0  0  0  0  0  0  0  0  0  0
  -52.4686  -31.7284  205.8343 C   0  0  1  0  0  0  0  0  0  0  0  0
  -53.2797  -32.7375  205.2301 O   0  0  0  0  0  0  0  0  0  0  0  0
  -53.1655  -31.1573  207.1144 C   0  0  1  0  0  0  0  0  0  0  0  0
  -53.1002  -32.1190  208.1778 O   0  0  0  0  0  0  0  0  0  0  0  0
  -52.6697  -29.7559  207.5901 C   0  0  2  0  0  0  0  0  0  0  0  0
  -53.7828  -28.8612  208.1727 C   0  0  0  0  0  0  0  0  0  0  0  0
  -55.4009  -30.8941  207.1552 O   0  0  0  0  0  0  0  0  0  0  0  0
  -56.3269  -28.3933  208.7524 O   0  0  0  0  0  0  0  0  0  0  0  0
  -58.5680  -26.9493  209.9306 O   0  0  0  0  0  0  0  0  0  0  0  0
  -59.8085  -29.8347  210.6607 C   0  0  0  0  0  0  0  0  0  0  0  0
  -60.7045  -30.9120  210.1082 C   0  0  0  0  0  0  0  0  0  0  0  0
  -60.6243  -32.2283  210.5923 C   0  0  0  0  0  0  0  0  0  0  0  0
  -61.4396  -33.2277  210.0611 C   0  0  0  0  0  0  0  0  0  0  0  0
  -62.3643  -32.9361  209.0452 C   0  0  0  0  0  0  0  0  0  0  0  0
  -63.2174  -34.0222  208.4437 C   0  0  2  0  0  0  0  0  0  0  0  0
  -62.9292  -34.2579  207.1266 F   0  0  0  0  0  0  0  0  0  0  0  0
  -64.5498  -33.7358  208.4840 F   0  0  0  0  0  0  0  0  0  0  0  0
  -63.0747  -35.2299  209.0613 F   0  0  0  0  0  0  0  0  0  0  0  0
  -62.4429  -31.6208  208.5632 C   0  0  0  0  0  0  0  0  0  0  0  0
  -61.6272  -30.6189  209.0956 C   0  0  0  0  0  0  0  0  0  0  0  0
  -51.9327  -29.0661  206.5087 N   0  0  0  0  0  0  0  0  0  0  0  0
  -51.9355  -27.6846  206.3989 C   0  0  0  0  0  0  0  0  0  0  0  0
  -51.5516  -26.9388  207.2917 O   0  0  0  0  0  0  0  0  0  0  0  0
  -52.4854  -27.1340  205.0929 C   0  0  0  0  0  0  0  0  0  0  0  0
  -51.7508  -25.8685  204.6168 C   0  0  0  0  0  0  0  0  0  0  0  0
  -50.3528  -25.7264  205.2474 C   0  0  0  0  0  0  0  0  0  0  0  0
  -49.6089  -24.4433  204.8622 C   0  0  0  0  0  0  0  0  0  0  0  0
  -48.2766  -24.1802  205.5612 C   0  0  0  0  0  0  0  0  0  0  0  0
  -47.6687  -22.8013  205.2498 C   0  0  0  0  0  0  0  0  0  0  0  0
  -46.5135  -22.4713  206.2138 C   0  0  0  0  0  0  0  0  0  0  0  0
  -45.9390  -21.0579  206.0532 C   0  0  0  0  0  0  0  0  0  0  0  0
  -44.4345  -21.0981  205.7425 C   0  0  0  0  0  0  0  0  0  0  0  0
  -43.5648  -21.7223  206.8506 C   0  0  0  0  0  0  0  0  0  0  0  0
  -43.0412  -20.6892  207.8602 C   0  0  0  0  0  0  0  0  0  0  0  0
  -42.2940  -21.3333  209.0408 C   0  0  0  0  0  0  0  0  0  0  0  0
  -42.9698  -21.1061  210.4104 C   0  0  0  0  0  0  0  0  0  0  0  0
  -43.0564  -22.3862  211.2456 C   0  0  0  0  0  0  0  0  0  0  0  0
  -43.4576  -22.1799  212.7181 C   0  0  0  0  0  0  0  0  0  0  0  0
  -44.9769  -21.9826  212.8154 C   0  0  0  0  0  0  0  0  0  0  0  0
  -45.4391  -21.1045  213.9860 C   0  0  0  0  0  0  0  0  0  0  0  0
  -44.4561  -21.2045  215.1712 C   0  0  0  0  0  0  0  0  0  0  0  0
  -44.9944  -20.4765  216.4128 C   0  0  0  0  0  0  0  0  0  0  0  0
  -44.0753  -20.5851  217.6453 C   0  0  0  0  0  0  0  0  0  0  0  0
  -44.6770  -19.8158  218.8253 C   0  0  0  0  0  0  0  0  0  0  0  0
  -45.0140  -20.6772  220.0419 C   0  0  0  0  0  0  0  0  0  0  0  0
  -46.3413  -21.4307  219.8181 C   0  0  0  0  0  0  0  0  0  0  0  0
  -46.6974  -22.3899  220.9502 C   0  0  0  0  0  0  0  0  0  0  0  0
  -47.7102  -23.4379  220.4990 C   0  0  0  0  0  0  0  0  0  0  0  0
  1  6  1  0
  1  8  1  6
  1 31  1  0
  2  3  1  0
  6  2  1  0
  2  9  1  1
  4  3  1  0
  3  7  1  1
  4  5  1  1
 31  4  1  0
  5 32  1  0
  6 30  1  6
  7 33  1  0
 29  8  1  0
 11 10  1  0
 12 11  1  0
 13 12  1  0
 14 13  1  0
 15 14  1  0
 16 15  1  0
 17 16  1  0
 18 17  1  0
 19 18  1  0
 20 19  1  0
 21 20  1  0
 22 21  1  0
 23 22  1  0
 24 23  1  0
 24 25  1  1
 26 24  1  0
 26 27  1  1
 28 26  1  0
 28 29  1  6
 28 44  1  0
 33 34  1  0
 34 35  2  0
 34 43  1  0
 35 36  1  0
 36 37  2  0
 37 38  1  0
 37 42  1  0
 38 39  1  6
 38 40  1  0
 38 41  1  0
 42 43  2  0
 44 45  1  0
 45 46  2  0
 45 47  1  0
 47 48  1  0
 48 49  1  0
 49 50  1  0
 50 51  1  0
 51 52  1  0
 52 53  1  0
 53 54  1  0
 54 55  1  0
 55 56  1  0
 56 57  1  0
 57 58  1  0
 58 59  1  0
 59 60  1  0
 60 61  1  0
 61 62  1  0
 62 63  1  0
 63 64  1  0
 64 65  1  0
 65 66  1  0
 66 67  1  0
 67 68  1  0
 68 69  1  0
 69 70  1  0
 70 71  1  0
M  END
$$$$
