
     RDKit          3D

 71 72  0  0  0  0  0  0  0  0999 V2000
  -53.7751  -33.2828  205.3697 C   0  0  1  0  0  0  0  0  0  0  0  0
  -53.2834  -35.5665  204.2840 C   0  0  1  0  0  0  0  0  0  0  0  0
  -53.2923  -34.6512  203.0484 C   0  0  2  0  0  0  0  0  0  0  0  0
  -52.3606  -33.4625  203.4068 C   0  0  1  0  0  0  0  0  0  0  0  0
  -52.0492  -32.5119  202.2406 C   0  0  0  0  0  0  0  0  0  0  0  0
  -53.5582  -34.8034  205.5968 C   0  0  1  0  0  0  0  0  0  0  0  0
  -54.6564  -34.2901  202.8088 O   0  0  0  0  0  0  0  0  0  0  0  0
  -53.8011  -32.6035  206.6308 O   0  0  0  0  0  0  0  0  0  0  0  0
  -54.2012  -36.6501  204.1270 O   0  0  0  0  0  0  0  0  0  0  0  0
  -41.2381  -19.5249  212.9751 C   0  0  0  0  0  0  0  0  0  0  0  0
  -41.7553  -20.8889  212.5461 C   0  0  0  0  0  0  0  0  0  0  0  0
  -43.1652  -20.8905  211.9599 C   0  0  0  0  0  0  0  0  0  0  0  0
  -43.8403  -22.2634  212.1716 C   0  0  0  0  0  0  0  0  0  0  0  0
  -45.2668  -22.2903  211.6059 C   0  0  0  0  0  0  0  0  0  0  0  0
  -45.4865  -23.4433  210.6106 C   0  0  0  0  0  0  0  0  0  0  0  0
  -45.0589  -24.8056  211.1820 C   0  0  0  0  0  0  0  0  0  0  0  0
  -43.8573  -25.4627  210.4778 C   0  0  0  0  0  0  0  0  0  0  0  0
  -44.1794  -26.8015  209.8207 C   0  0  0  0  0  0  0  0  0  0  0  0
  -45.4894  -27.4390  210.3316 C   0  0  0  0  0  0  0  0  0  0  0  0
  -46.2495  -28.0689  209.1623 C   0  0  0  0  0  0  0  0  0  0  0  0
  -47.4597  -28.9435  209.4862 C   0  0  0  0  0  0  0  0  0  0  0  0
  -48.0881  -29.5322  208.1882 C   0  0  0  0  0  0  0  0  0  0  0  0
  -49.5945  -29.8703  208.3088 C   0  0  0  0  0  0  0  0  0  0  0  0
  -50.2262  -30.5286  207.0539 C   0  0  1  0  0  0  0  0  0  0  0  0
  -49.2699  -31.4359  206.5031 O   0  0  0  0  0  0  0  0  0  0  0  0
  -51.5466  -31.2820  207.4270 C   0  0  1  0  0  0  0  0  0  0  0  0
  -51.4359  -31.8412  208.7441 O   0  0  0  0  0  0  0  0  0  0  0  0
  -52.8647  -30.4607  207.2719 C   0  0  2  0  0  0  0  0  0  0  0  0
  -53.9742  -31.1962  206.4930 C   0  0  0  0  0  0  0  0  0  0  0  0
  -52.4463  -35.0492  206.4998 O   0  0  0  0  0  0  0  0  0  0  0  0
  -52.7906  -32.6750  204.5233 O   0  0  0  0  0  0  0  0  0  0  0  0
  -53.0108  -31.4816  202.1092 O   0  0  0  0  0  0  0  0  0  0  0  0
  -55.3771  -35.1648  201.9376 C   0  0  0  0  0  0  0  0  0  0  0  0
  -54.6832  -35.2049  200.6013 C   0  0  0  0  0  0  0  0  0  0  0  0
  -55.0680  -34.3343  199.5681 C   0  0  0  0  0  0  0  0  0  0  0  0
  -54.4384  -34.3912  198.3246 C   0  0  0  0  0  0  0  0  0  0  0  0
  -53.4008  -35.3069  198.0859 C   0  0  0  0  0  0  0  0  0  0  0  0
  -52.7470  -35.3959  196.7318 C   0  0  2  0  0  0  0  0  0  0  0  0
  -51.8888  -34.3584  196.4856 F   0  0  0  0  0  0  0  0  0  0  0  0
  -53.6447  -35.3832  195.7057 F   0  0  0  0  0  0  0  0  0  0  0  0
  -51.9998  -36.5243  196.5623 F   0  0  0  0  0  0  0  0  0  0  0  0
  -53.0180  -36.1754  199.1192 C   0  0  0  0  0  0  0  0  0  0  0  0
  -53.6475  -36.1183  200.3654 C   0  0  0  0  0  0  0  0  0  0  0  0
  -52.5870  -29.1296  206.6891 N   0  0  0  0  0  0  0  0  0  0  0  0
  -51.7842  -28.2077  207.3420 C   0  0  0  0  0  0  0  0  0  0  0  0
  -51.1807  -28.4572  208.3785 O   0  0  0  0  0  0  0  0  0  0  0  0
  -51.7200  -26.8293  206.7040 C   0  0  0  0  0  0  0  0  0  0  0  0
  -50.7824  -25.8640  207.4501 C   0  0  0  0  0  0  0  0  0  0  0  0
  -49.4020  -25.7456  206.7772 C   0  0  0  0  0  0  0  0  0  0  0  0
  -49.1085  -24.3715  206.1657 C   0  0  0  0  0  0  0  0  0  0  0  0
  -48.2169  -24.3428  204.9259 C   0  0  0  0  0  0  0  0  0  0  0  0
  -46.9986  -23.4114  205.0534 C   0  0  0  0  0  0  0  0  0  0  0  0
  -47.2542  -22.0614  204.3571 C   0  0  0  0  0  0  0  0  0  0  0  0
  -45.9815  -21.2884  203.9880 C   0  0  0  0  0  0  0  0  0  0  0  0
  -44.8441  -21.5782  204.9800 C   0  0  0  0  0  0  0  0  0  0  0  0
  -45.1082  -21.0986  206.4202 C   0  0  0  0  0  0  0  0  0  0  0  0
  -44.3158  -19.8354  206.7903 C   0  0  0  0  0  0  0  0  0  0  0  0
  -44.6186  -19.3358  208.2135 C   0  0  0  0  0  0  0  0  0  0  0  0
  -45.9861  -19.7966  208.7628 C   0  0  0  0  0  0  0  0  0  0  0  0
  -46.8751  -18.6262  209.1913 C   0  0  0  0  0  0  0  0  0  0  0  0
  -47.2965  -18.6337  210.6726 C   0  0  0  0  0  0  0  0  0  0  0  0
  -47.7167  -17.2192  211.0959 C   0  0  0  0  0  0  0  0  0  0  0  0
  -48.6753  -17.1628  212.2929 C   0  0  0  0  0  0  0  0  0  0  0  0
  -47.9625  -16.6073  213.5437 C   0  0  0  0  0  0  0  0  0  0  0  0
  -48.5180  -15.2319  213.9447 C   0  0  0  0  0  0  0  0  0  0  0  0
  -49.3950  -15.2601  215.2119 C   0  0  0  0  0  0  0  0  0  0  0  0
  -48.5436  -14.9760  216.4530 C   0  0  0  0  0  0  0  0  0  0  0  0
  -49.2954  -14.3032  217.6009 C   0  0  0  0  0  0  0  0  0  0  0  0
  -48.3935  -14.1976  218.8477 C   0  0  0  0  0  0  0  0  0  0  0  0
  -49.1173  -13.6669  220.0819 C   0  0  0  0  0  0  0  0  0  0  0  0
  -48.4591  -12.3980  220.6152 C   0  0  0  0  0  0  0  0  0  0  0  0
  1  6  1  0
  1  8  1  1
  1 31  1  0
  2  3  1  0
  6  2  1  0
  2  9  1  6
  4  3  1  0
  3  7  1  1
  4  5  1  6
 31  4  1  0
  5 32  1  0
  6 30  1  1
  7 33  1  0
 29  8  1  0
 11 10  1  0
 12 11  1  0
 13 12  1  0
 14 13  1  0
 15 14  1  0
 16 15  1  0
 17 16  1  0
 18 17  1  0
 19 18  1  0
 20 19  1  0
 21 20  1  0
 22 21  1  0
 23 22  1  0
 24 23  1  0
 24 25  1  1
 26 24  1  0
 26 27  1  1
 28 26  1  0
 28 29  1  6
 28 44  1  0
 33 34  1  0
 34 35  2  0
 34 43  1  0
 35 36  1  0
 36 37  2  0
 37 38  1  0
 37 42  1  0
 38 39  1  6
 38 40  1  0
 38 41  1  0
 42 43  2  0
 44 45  1  0
 45 46  2  0
 45 47  1  0
 47 48  1  0
 48 49  1  0
 49 50  1  0
 50 51  1  0
 51 52  1  0
 52 53  1  0
 53 54  1  0
 54 55  1  0
 55 56  1  0
 56 57  1  0
 57 58  1  0
 58 59  1  0
 59 60  1  0
 60 61  1  0
 61 62  1  0
 62 63  1  0
 63 64  1  0
 64 65  1  0
 65 66  1  0
 66 67  1  0
 67 68  1  0
 68 69  1  0
 69 70  1  0
 70 71  1  0
M  END
$$$$
