
     RDKit          3D

 30 33  0  0  0  0  0  0  0  0999 V2000
  -21.1541    7.8918    0.4303 C   0  0  0  0  0  0  0  0  0  0  0  0
  -14.9472    9.0706   -0.1797 C   0  0  0  0  0  0  0  0  0  0  0  0
  -11.3729    9.4242    0.8200 C   0  0  0  0  0  0  0  0  0  0  0  0
  -11.2072    8.2488    1.5134 C   0  0  0  0  0  0  0  0  0  0  0  0
  -13.4604    7.6289    1.0987 C   0  0  0  0  0  0  0  0  0  0  0  0
  -27.1139    6.8527   -3.5753 C   0  0  0  0  0  0  0  0  0  0  0  0
  -25.8049    7.5197   -3.2882 C   0  0  0  0  0  0  0  0  0  0  0  0
  -24.7862    7.5134   -4.2172 C   0  0  0  0  0  0  0  0  0  0  0  0
  -23.5828    8.1302   -3.9456 C   0  0  0  0  0  0  0  0  0  0  0  0
  -23.3383    8.7722   -2.7569 C   0  0  0  0  0  0  0  0  0  0  0  0
  -20.4137    8.4317   -2.3996 C   0  0  1  0  0  0  0  0  0  0  0  0
  -20.2640    7.1020   -0.5066 C   0  0  2  0  0  0  0  0  0  0  0  0
  -18.8117    7.3685   -0.2948 C   0  0  1  0  0  0  0  0  0  0  0  0
  -18.1849    8.1399   -1.4405 C   0  0  1  0  0  0  0  0  0  0  0  0
  -15.9159    8.1435   -0.4822 C   0  0  0  0  0  0  0  0  0  0  0  0
  -13.6433    8.7993    0.4024 C   0  0  0  0  0  0  0  0  0  0  0  0
  -12.6074    9.6966    0.2606 C   0  0  0  0  0  0  0  0  0  0  0  0
  -12.2252    7.3302    1.6727 C   0  0  0  0  0  0  0  0  0  0  0  0
  -19.1985    9.1417   -1.9138 C   0  0  1  0  0  0  0  0  0  0  0  0
  -24.3575    8.7778   -1.8290 C   0  0  0  0  0  0  0  0  0  0  0  0
  -25.5792    8.1596   -2.0873 C   0  0  0  0  0  0  0  0  0  0  0  0
  -10.0112    7.9143    2.0937 F   0  0  0  0  0  0  0  0  0  0  0  0
  -16.9649    8.8042   -1.0016 N   0  0  0  0  0  0  0  0  0  0  0  0
  -15.4587   10.2848   -0.5358 N   0  0  0  0  0  0  0  0  0  0  0  0
  -16.6649   10.0821   -1.0221 N   0  0  0  0  0  0  0  0  0  0  0  0
  -20.6866    7.2405   -1.7992 O   0  0  0  0  0  0  0  0  0  0  0  0
  -21.7434    7.0806    1.3928 O   0  0  0  0  0  0  0  0  0  0  0  0
  -18.5580    8.1042    0.8651 O   0  0  0  0  0  0  0  0  0  0  0  0
  -18.6832    9.9121   -2.9791 O   0  0  0  0  0  0  0  0  0  0  0  0
  -21.8245    9.5833   -2.3382 S   0  0  0  0  0  0  0  0  0  0  0  0
 12  1  1  1
  1 27  1  0
 15  2  2  0
  2 16  1  0
  2 24  1  0
  4  3  2  0
  3 17  1  0
 18  4  1  0
  4 22  1  0
 16  5  1  0
  5 18  2  0
  7  6  1  0
  8  7  2  0
  7 21  1  0
  9  8  1  0
 10  9  2  0
 10 20  1  0
 30 10  1  0
 19 11  1  0
 11 26  1  0
 11 30  1  1
 13 12  1  0
 12 26  1  0
 14 13  1  0
 13 28  1  1
 14 19  1  0
 14 23  1  1
 15 23  1  0
 16 17  2  0
 19 29  1  6
 20 21  2  0
 23 25  1  0
 24 25  2  0
M  END
$$$$
