
     RDKit          3D

 30 33  0  0  0  0  0  0  0  0999 V2000
  -20.3001    8.6527   -3.6614 C   0  0  0  0  0  0  0  0  0  0  0  0
  -14.7899    8.0522   -0.1207 C   0  0  0  0  0  0  0  0  0  0  0  0
  -11.6485    9.6953    1.0335 C   0  0  0  0  0  0  0  0  0  0  0  0
  -10.9769    8.5989    1.5202 C   0  0  0  0  0  0  0  0  0  0  0  0
  -12.7821    7.1727    0.9370 C   0  0  0  0  0  0  0  0  0  0  0  0
  -27.3115   10.0529    0.2197 C   0  0  0  0  0  0  0  0  0  0  0  0
  -25.9890    9.4195   -0.0813 C   0  0  0  0  0  0  0  0  0  0  0  0
  -25.9117    8.1229   -0.5436 C   0  0  0  0  0  0  0  0  0  0  0  0
  -24.6896    7.5460   -0.8189 C   0  0  0  0  0  0  0  0  0  0  0  0
  -23.5050    8.2192   -0.6505 C   0  0  0  0  0  0  0  0  0  0  0  0
  -20.5936    8.7827   -0.7041 C   0  0  1  0  0  0  0  0  0  0  0  0
  -19.7850    9.6853   -2.6804 C   0  0  2  0  0  0  0  0  0  0  0  0
  -18.3518    9.4837   -2.3197 C   0  0  1  0  0  0  0  0  0  0  0  0
  -18.1682    9.0210   -0.8870 C   0  0  1  0  0  0  0  0  0  0  0  0
  -15.8386    8.9402   -0.0911 C   0  0  0  0  0  0  0  0  0  0  0  0
  -13.4673    8.2579    0.4459 C   0  0  0  0  0  0  0  0  0  0  0  0
  -12.9076    9.5159    0.4915 C   0  0  0  0  0  0  0  0  0  0  0  0
  -11.5108    7.3263    1.4888 C   0  0  0  0  0  0  0  0  0  0  0  0
  -19.2907    8.0736   -0.5747 C   0  0  1  0  0  0  0  0  0  0  0  0
  -23.5835    9.5153   -0.1883 C   0  0  0  0  0  0  0  0  0  0  0  0
  -24.8098   10.1132    0.0946 C   0  0  0  0  0  0  0  0  0  0  0  0
   -9.7260    8.7032    2.0709 F   0  0  0  0  0  0  0  0  0  0  0  0
  -16.8768    8.3667   -0.7235 N   0  0  0  0  0  0  0  0  0  0  0  0
  -15.2438    6.9499   -0.7851 N   0  0  0  0  0  0  0  0  0  0  0  0
  -16.4940    7.1779   -1.1281 N   0  0  0  0  0  0  0  0  0  0  0  0
  -20.6316    9.7960   -1.6128 O   0  0  0  0  0  0  0  0  0  0  0  0
  -20.4019    9.1659   -4.9490 O   0  0  0  0  0  0  0  0  0  0  0  0
  -17.7164    8.5375   -3.1273 O   0  0  0  0  0  0  0  0  0  0  0  0
  -19.1837    7.5867    0.7464 O   0  0  0  0  0  0  0  0  0  0  0  0
  -21.9039    7.5472   -0.9816 S   0  0  0  0  0  0  0  0  0  0  0  0
 12  1  1  6
  1 27  1  0
 15  2  2  0
  2 16  1  0
  2 24  1  0
  4  3  2  0
  3 17  1  0
 18  4  1  0
  4 22  1  0
 16  5  1  0
  5 18  2  0
  7  6  1  0
  8  7  2  0
  7 21  1  0
  9  8  1  0
 10  9  2  0
 10 20  1  0
 30 10  1  0
 19 11  1  0
 11 26  1  0
 11 30  1  6
 13 12  1  0
 12 26  1  0
 14 13  1  0
 13 28  1  6
 14 19  1  0
 14 23  1  6
 15 23  1  0
 16 17  2  0
 19 29  1  1
 20 21  2  0
 23 25  1  0
 24 25  2  0
M  END
$$$$
