
     RDKit          3D

 30 33  0  0  0  0  0  0  0  0999 V2000
  -20.8378    6.3651   -0.0110 C   0  0  0  0  0  0  0  0  0  0  0  0
  -14.7687    8.8037    0.5570 C   0  0  0  0  0  0  0  0  0  0  0  0
  -11.2844    9.1928    1.8252 C   0  0  0  0  0  0  0  0  0  0  0  0
  -10.5935    9.1046    0.6400 C   0  0  0  0  0  0  0  0  0  0  0  0
  -12.6136    8.8239   -0.5738 C   0  0  0  0  0  0  0  0  0  0  0  0
  -26.2992    7.9268   -4.9999 C   0  0  0  0  0  0  0  0  0  0  0  0
  -25.1737    8.2509   -4.0678 C   0  0  0  0  0  0  0  0  0  0  0  0
  -24.8793    7.4318   -2.9985 C   0  0  0  0  0  0  0  0  0  0  0  0
  -23.8407    7.7369   -2.1438 C   0  0  0  0  0  0  0  0  0  0  0  0
  -23.0577    8.8525   -2.3083 C   0  0  0  0  0  0  0  0  0  0  0  0
  -20.1391    8.6010   -1.8444 C   0  0  1  0  0  0  0  0  0  0  0  0
  -19.8192    6.4186   -1.1307 C   0  0  2  0  0  0  0  0  0  0  0  0
  -18.4299    6.6603   -0.6447 C   0  0  1  0  0  0  0  0  0  0  0  0
  -17.9096    8.0350   -1.0186 C   0  0  1  0  0  0  0  0  0  0  0  0
  -15.5236    8.3694   -0.5064 C   0  0  0  0  0  0  0  0  0  0  0  0
  -13.3198    8.9099    0.6018 C   0  0  0  0  0  0  0  0  0  0  0  0
  -12.6631    9.0935    1.7989 C   0  0  0  0  0  0  0  0  0  0  0  0
  -11.2226    8.9209   -0.5749 C   0  0  0  0  0  0  0  0  0  0  0  0
  -19.0575    8.9960   -0.9004 C   0  0  1  0  0  0  0  0  0  0  0  0
  -23.3530    9.6706   -3.3776 C   0  0  0  0  0  0  0  0  0  0  0  0
  -24.3986    9.3771   -4.2504 C   0  0  0  0  0  0  0  0  0  0  0  0
   -9.2266    9.1945    0.5917 F   0  0  0  0  0  0  0  0  0  0  0  0
  -16.8154    8.4234   -0.1387 N   0  0  0  0  0  0  0  0  0  0  0  0
  -15.6526    9.1111    1.5504 N   0  0  0  0  0  0  0  0  0  0  0  0
  -16.8639    8.8700    1.0949 N   0  0  0  0  0  0  0  0  0  0  0  0
  -20.2348    7.2702   -2.1160 O   0  0  0  0  0  0  0  0  0  0  0  0
  -21.7677    5.3504   -0.2038 O   0  0  0  0  0  0  0  0  0  0  0  0
  -18.3142    6.5558    0.7434 O   0  0  0  0  0  0  0  0  0  0  0  0
  -18.6487   10.3084   -1.2234 O   0  0  0  0  0  0  0  0  0  0  0  0
  -21.7122    9.3080   -1.2562 S   0  0  0  0  0  0  0  0  0  0  0  0
 12  1  1  1
  1 27  1  0
 15  2  2  0
  2 16  1  0
  2 24  1  0
  4  3  2  0
  3 17  1  0
 18  4  1  0
  4 22  1  0
 16  5  1  0
  5 18  2  0
  7  6  1  0
  8  7  2  0
  7 21  1  0
  9  8  1  0
 10  9  2  0
 10 20  1  0
 30 10  1  0
 19 11  1  0
 11 26  1  0
 11 30  1  1
 13 12  1  0
 12 26  1  0
 14 13  1  0
 13 28  1  1
 14 19  1  0
 14 23  1  1
 15 23  1  0
 16 17  2  0
 19 29  1  6
 20 21  2  0
 23 25  1  0
 24 25  2  0
M  END
$$$$
