
     RDKit          3D

 30 33  0  0  0  0  0  0  0  0999 V2000
  -20.7574    6.3266    0.3553 C   0  0  0  0  0  0  0  0  0  0  0  0
  -14.7383    8.8938    0.5258 C   0  0  0  0  0  0  0  0  0  0  0  0
  -11.2729    9.3320   -0.7777 C   0  0  0  0  0  0  0  0  0  0  0  0
  -10.5604    9.1250    0.3796 C   0  0  0  0  0  0  0  0  0  0  0  0
  -12.5611    8.7732    1.6069 C   0  0  0  0  0  0  0  0  0  0  0  0
  -26.5131    8.6389   -4.4097 C   0  0  0  0  0  0  0  0  0  0  0  0
  -25.3774    8.8078   -3.4492 C   0  0  0  0  0  0  0  0  0  0  0  0
  -25.6089    9.0331   -2.1088 C   0  0  0  0  0  0  0  0  0  0  0  0
  -24.5574    9.1877   -1.2298 C   0  0  0  0  0  0  0  0  0  0  0  0
  -23.2469    9.1268   -1.6343 C   0  0  0  0  0  0  0  0  0  0  0  0
  -20.3221    8.7166   -1.3614 C   0  0  1  0  0  0  0  0  0  0  0  0
  -19.8602    6.5026   -0.8522 C   0  0  2  0  0  0  0  0  0  0  0  0
  -18.4373    6.7638   -0.4889 C   0  0  1  0  0  0  0  0  0  0  0  0
  -18.0030    8.1820   -0.8060 C   0  0  1  0  0  0  0  0  0  0  0  0
  -15.5796    8.4768   -0.4779 C   0  0  0  0  0  0  0  0  0  0  0  0
  -13.2887    8.9774    0.4593 C   0  0  0  0  0  0  0  0  0  0  0  0
  -12.6525    9.2559   -0.7305 C   0  0  0  0  0  0  0  0  0  0  0  0
  -11.1687    8.8443    1.5865 C   0  0  0  0  0  0  0  0  0  0  0  0
  -19.1637    9.0848   -0.5016 C   0  0  1  0  0  0  0  0  0  0  0  0
  -23.0167    8.9016   -2.9744 C   0  0  0  0  0  0  0  0  0  0  0  0
  -24.0673    8.7432   -3.8758 C   0  0  0  0  0  0  0  0  0  0  0  0
   -9.1912    9.1852    0.4062 F   0  0  0  0  0  0  0  0  0  0  0  0
  -16.8383    8.5488   -0.0115 N   0  0  0  0  0  0  0  0  0  0  0  0
  -15.5381    9.2095    1.5857 N   0  0  0  0  0  0  0  0  0  0  0  0
  -16.7845    8.9896    1.2239 N   0  0  0  0  0  0  0  0  0  0  0  0
  -20.4015    7.4064   -1.7234 O   0  0  0  0  0  0  0  0  0  0  0  0
  -21.5632    5.1999    0.2430 O   0  0  0  0  0  0  0  0  0  0  0  0
  -18.1777    6.5631    0.8688 O   0  0  0  0  0  0  0  0  0  0  0  0
  -18.8329   10.4327   -0.7619 O   0  0  0  0  0  0  0  0  0  0  0  0
  -21.8495    9.3149   -0.5681 S   0  0  0  0  0  0  0  0  0  0  0  0
 12  1  1  1
  1 27  1  0
 15  2  2  0
  2 16  1  0
  2 24  1  0
  4  3  2  0
  3 17  1  0
 18  4  1  0
  4 22  1  0
 16  5  1  0
  5 18  2  0
  7  6  1  0
  8  7  2  0
  7 21  1  0
  9  8  1  0
 10  9  2  0
 10 20  1  0
 30 10  1  0
 19 11  1  0
 11 26  1  0
 11 30  1  1
 13 12  1  0
 12 26  1  0
 14 13  1  0
 13 28  1  1
 14 19  1  0
 14 23  1  1
 15 23  1  0
 16 17  2  0
 19 29  1  6
 20 21  2  0
 23 25  1  0
 24 25  2  0
M  END
$$$$
