
     RDKit          3D

 30 33  0  0  0  0  0  0  0  0999 V2000
  -20.8030    6.0995    0.2919 C   0  0  0  0  0  0  0  0  0  0  0  0
  -14.8141    8.7763    0.3206 C   0  0  0  0  0  0  0  0  0  0  0  0
  -11.4128    9.2042   -1.1452 C   0  0  0  0  0  0  0  0  0  0  0  0
  -10.6631    9.2248    0.0070 C   0  0  0  0  0  0  0  0  0  0  0  0
  -12.6100    8.9555    1.3373 C   0  0  0  0  0  0  0  0  0  0  0  0
  -26.6441    8.8629   -4.3970 C   0  0  0  0  0  0  0  0  0  0  0  0
  -25.5008    8.9283   -3.4330 C   0  0  0  0  0  0  0  0  0  0  0  0
  -25.6614    9.4742   -2.1772 C   0  0  0  0  0  0  0  0  0  0  0  0
  -24.6034    9.5310   -1.2943 C   0  0  0  0  0  0  0  0  0  0  0  0
  -23.3552    9.0556   -1.6122 C   0  0  0  0  0  0  0  0  0  0  0  0
  -20.4451    8.5290   -1.3867 C   0  0  1  0  0  0  0  0  0  0  0  0
  -19.9448    6.3103   -0.9382 C   0  0  2  0  0  0  0  0  0  0  0  0
  -18.5143    6.5797   -0.6126 C   0  0  1  0  0  0  0  0  0  0  0  0
  -18.1047    8.0089   -0.9128 C   0  0  1  0  0  0  0  0  0  0  0  0
  -15.6836    8.3933   -0.6725 C   0  0  0  0  0  0  0  0  0  0  0  0
  -13.3744    8.9327    0.1957 C   0  0  0  0  0  0  0  0  0  0  0  0
  -12.7835    9.0561   -1.0428 C   0  0  0  0  0  0  0  0  0  0  0  0
  -11.2256    9.1036    1.2617 C   0  0  0  0  0  0  0  0  0  0  0  0
  -19.2650    8.8923   -0.5547 C   0  0  1  0  0  0  0  0  0  0  0  0
  -23.1958    8.5101   -2.8679 C   0  0  0  0  0  0  0  0  0  0  0  0
  -24.2541    8.4450   -3.7718 C   0  0  0  0  0  0  0  0  0  0  0  0
   -9.3002    9.3683   -0.0199 F   0  0  0  0  0  0  0  0  0  0  0  0
  -16.9203    8.3721   -0.1462 N   0  0  0  0  0  0  0  0  0  0  0  0
  -15.5750    8.9768    1.4357 N   0  0  0  0  0  0  0  0  0  0  0  0
  -16.8265    8.7249    1.1148 N   0  0  0  0  0  0  0  0  0  0  0  0
  -20.5217    7.2258   -1.7735 O   0  0  0  0  0  0  0  0  0  0  0  0
  -21.6557    5.0113    0.1491 O   0  0  0  0  0  0  0  0  0  0  0  0
  -18.2116    6.3539    0.7322 O   0  0  0  0  0  0  0  0  0  0  0  0
  -18.9564   10.2488   -0.7965 O   0  0  0  0  0  0  0  0  0  0  0  0
  -21.9539    9.0939   -0.5353 S   0  0  0  0  0  0  0  0  0  0  0  0
 12  1  1  1
  1 27  1  0
 15  2  2  0
  2 16  1  0
  2 24  1  0
  4  3  2  0
  3 17  1  0
 18  4  1  0
  4 22  1  0
 16  5  1  0
  5 18  2  0
  7  6  1  0
  8  7  2  0
  7 21  1  0
  9  8  1  0
 10  9  2  0
 10 20  1  0
 30 10  1  0
 19 11  1  0
 11 26  1  0
 11 30  1  1
 13 12  1  0
 12 26  1  0
 14 13  1  0
 13 28  1  1
 14 19  1  0
 14 23  1  1
 15 23  1  0
 16 17  2  0
 19 29  1  6
 20 21  2  0
 23 25  1  0
 24 25  2  0
M  END
$$$$
