
     RDKit          3D

 30 33  0  0  0  0  0  0  0  0999 V2000
  -20.6447    8.5127   -3.3301 C   0  0  0  0  0  0  0  0  0  0  0  0
  -14.9691    8.5627    0.0914 C   0  0  0  0  0  0  0  0  0  0  0  0
  -12.5615    9.4552    2.7946 C   0  0  0  0  0  0  0  0  0  0  0  0
  -11.3836    9.0875    2.1887 C   0  0  0  0  0  0  0  0  0  0  0  0
  -12.5461    8.3885    0.2411 C   0  0  0  0  0  0  0  0  0  0  0  0
  -27.5882    9.4784    0.9552 C   0  0  0  0  0  0  0  0  0  0  0  0
  -26.2058    9.0288    0.5980 C   0  0  0  0  0  0  0  0  0  0  0  0
  -25.5149    9.6152   -0.4411 C   0  0  0  0  0  0  0  0  0  0  0  0
  -24.2415    9.1957   -0.7644 C   0  0  0  0  0  0  0  0  0  0  0  0
  -23.6041    8.1895   -0.0816 C   0  0  0  0  0  0  0  0  0  0  0  0
  -20.7537    8.9495   -0.3897 C   0  0  1  0  0  0  0  0  0  0  0  0
  -20.1509    9.6827   -2.5047 C   0  0  2  0  0  0  0  0  0  0  0  0
  -18.6856    9.6268   -2.2313 C   0  0  1  0  0  0  0  0  0  0  0  0
  -18.3724    9.3409   -0.7750 C   0  0  1  0  0  0  0  0  0  0  0  0
  -16.1219    9.2991    0.2253 C   0  0  0  0  0  0  0  0  0  0  0  0
  -13.7326    8.7508    0.8320 C   0  0  0  0  0  0  0  0  0  0  0  0
  -13.7460    9.2823    2.1030 C   0  0  0  0  0  0  0  0  0  0  0  0
  -11.3376    8.5525    0.9170 C   0  0  0  0  0  0  0  0  0  0  0  0
  -19.3927    8.3555   -0.2822 C   0  0  1  0  0  0  0  0  0  0  0  0
  -24.2958    7.6040    0.9569 C   0  0  0  0  0  0  0  0  0  0  0  0
  -25.5828    8.0157    1.2966 C   0  0  0  0  0  0  0  0  0  0  0  0
  -10.1729    9.2307    2.8153 F   0  0  0  0  0  0  0  0  0  0  0  0
  -17.0249    8.8042   -0.6387 N   0  0  0  0  0  0  0  0  0  0  0  0
  -15.2242    7.6287   -0.8705 N   0  0  0  0  0  0  0  0  0  0  0  0
  -16.4622    7.8068   -1.2807 N   0  0  0  0  0  0  0  0  0  0  0  0
  -20.9320    9.8499   -1.3954 O   0  0  0  0  0  0  0  0  0  0  0  0
  -21.1809    8.9242   -4.5445 O   0  0  0  0  0  0  0  0  0  0  0  0
  -18.0308    8.6451   -2.9786 O   0  0  0  0  0  0  0  0  0  0  0  0
  -19.1609    8.0277    1.0716 O   0  0  0  0  0  0  0  0  0  0  0  0
  -21.9763    7.5992   -0.4374 S   0  0  0  0  0  0  0  0  0  0  0  0
 12  1  1  1
  1 27  1  0
 15  2  2  0
  2 16  1  0
  2 24  1  0
  4  3  2  0
  3 17  1  0
 18  4  1  0
  4 22  1  0
 16  5  1  0
  5 18  2  0
  7  6  1  0
  8  7  2  0
  7 21  1  0
  9  8  1  0
 10  9  2  0
 10 20  1  0
 30 10  1  0
 19 11  1  0
 11 26  1  0
 11 30  1  6
 13 12  1  0
 12 26  1  0
 14 13  1  0
 13 28  1  6
 14 19  1  0
 14 23  1  6
 15 23  1  0
 16 17  2  0
 19 29  1  1
 20 21  2  0
 23 25  1  0
 24 25  2  0
M  END
$$$$
