
     RDKit          3D

 30 33  0  0  0  0  0  0  0  0999 V2000
  -21.3376    7.1543    0.0663 C   0  0  0  0  0  0  0  0  0  0  0  0
  -15.0782    9.0950    0.3048 C   0  0  0  0  0  0  0  0  0  0  0  0
  -11.5746    7.8353    0.4990 C   0  0  0  0  0  0  0  0  0  0  0  0
  -10.9040    9.0289    0.6240 C   0  0  0  0  0  0  0  0  0  0  0  0
  -12.9435   10.2400    0.5401 C   0  0  0  0  0  0  0  0  0  0  0  0
  -26.0138    8.9974   -6.3544 C   0  0  0  0  0  0  0  0  0  0  0  0
  -24.9997    9.1579   -5.2651 C   0  0  0  0  0  0  0  0  0  0  0  0
  -24.6465    8.0945   -4.4617 C   0  0  0  0  0  0  0  0  0  0  0  0
  -23.7113    8.2499   -3.4600 C   0  0  0  0  0  0  0  0  0  0  0  0
  -23.0924    9.4502   -3.2128 C   0  0  0  0  0  0  0  0  0  0  0  0
  -20.3750    8.7531   -2.2501 C   0  0  1  0  0  0  0  0  0  0  0  0
  -20.2891    6.8195   -0.9742 C   0  0  2  0  0  0  0  0  0  0  0  0
  -18.8963    7.0595   -0.4973 C   0  0  1  0  0  0  0  0  0  0  0  0
  -18.2344    8.2348   -1.1910 C   0  0  1  0  0  0  0  0  0  0  0  0
  -15.8440    8.4505   -0.6372 C   0  0  0  0  0  0  0  0  0  0  0  0
  -13.6294    9.0559    0.4145 C   0  0  0  0  0  0  0  0  0  0  0  0
  -12.9528    7.8560    0.3935 C   0  0  0  0  0  0  0  0  0  0  0  0
  -11.5533   10.2468    0.6482 C   0  0  0  0  0  0  0  0  0  0  0  0
  -19.2856    9.2889   -1.3880 C   0  0  1  0  0  0  0  0  0  0  0  0
  -23.4463   10.5125   -4.0165 C   0  0  0  0  0  0  0  0  0  0  0  0
  -24.3891   10.3727   -5.0328 C   0  0  0  0  0  0  0  0  0  0  0  0
   -9.5387    9.0831    0.7331 F   0  0  0  0  0  0  0  0  0  0  0  0
  -17.1314    8.7461   -0.3882 N   0  0  0  0  0  0  0  0  0  0  0  0
  -15.9513    9.7716    1.1064 N   0  0  0  0  0  0  0  0  0  0  0  0
  -17.1669    9.5371    0.6590 N   0  0  0  0  0  0  0  0  0  0  0  0
  -20.5930    7.4116   -2.1682 O   0  0  0  0  0  0  0  0  0  0  0  0
  -22.2643    6.1296    0.2172 O   0  0  0  0  0  0  0  0  0  0  0  0
  -18.8285    7.3179    0.8737 O   0  0  0  0  0  0  0  0  0  0  0  0
  -18.7420   10.4275   -2.0220 O   0  0  0  0  0  0  0  0  0  0  0  0
  -21.8866    9.7252   -1.9497 S   0  0  0  0  0  0  0  0  0  0  0  0
 12  1  1  1
  1 27  1  0
 15  2  2  0
  2 16  1  0
  2 24  1  0
  4  3  2  0
  3 17  1  0
 18  4  1  0
  4 22  1  0
 16  5  1  0
  5 18  2  0
  7  6  1  0
  8  7  2  0
  7 21  1  0
  9  8  1  0
 10  9  2  0
 10 20  1  0
 30 10  1  0
 19 11  1  0
 11 26  1  0
 11 30  1  1
 13 12  1  0
 12 26  1  0
 14 13  1  0
 13 28  1  1
 14 19  1  0
 14 23  1  1
 15 23  1  0
 16 17  2  0
 19 29  1  6
 20 21  2  0
 23 25  1  0
 24 25  2  0
M  END
$$$$
