
     RDKit          3D

 30 33  0  0  0  0  0  0  0  0999 V2000
  -20.9957    6.4502    0.2120 C   0  0  0  0  0  0  0  0  0  0  0  0
  -15.0851    9.2306    0.2391 C   0  0  0  0  0  0  0  0  0  0  0  0
  -11.6061   10.5004    0.6685 C   0  0  0  0  0  0  0  0  0  0  0  0
  -10.9052    9.4466    0.1319 C   0  0  0  0  0  0  0  0  0  0  0  0
  -12.9185    8.2755   -0.3241 C   0  0  0  0  0  0  0  0  0  0  0  0
  -26.9252    8.2763   -4.6870 C   0  0  0  0  0  0  0  0  0  0  0  0
  -25.7528    8.5388   -3.7940 C   0  0  0  0  0  0  0  0  0  0  0  0
  -24.7999    9.4766   -4.1308 C   0  0  0  0  0  0  0  0  0  0  0  0
  -23.7224    9.7131   -3.3031 C   0  0  0  0  0  0  0  0  0  0  0  0
  -23.5433    9.0398   -2.1201 C   0  0  0  0  0  0  0  0  0  0  0  0
  -20.6263    8.6813   -1.7203 C   0  0  1  0  0  0  0  0  0  0  0  0
  -20.0849    6.5473   -0.9942 C   0  0  2  0  0  0  0  0  0  0  0  0
  -18.6803    6.9013   -0.6379 C   0  0  1  0  0  0  0  0  0  0  0  0
  -18.2979    8.2996   -1.0838 C   0  0  1  0  0  0  0  0  0  0  0  0
  -15.8890    8.6654   -0.7218 C   0  0  0  0  0  0  0  0  0  0  0  0
  -13.6346    9.3201    0.2089 C   0  0  0  0  0  0  0  0  0  0  0  0
  -12.9863   10.4301    0.7044 C   0  0  0  0  0  0  0  0  0  0  0  0
  -11.5257    8.3213   -0.3723 C   0  0  0  0  0  0  0  0  0  0  0  0
  -19.4992    9.1781   -0.8838 C   0  0  1  0  0  0  0  0  0  0  0  0
  -24.4965    8.1026   -1.7844 C   0  0  0  0  0  0  0  0  0  0  0  0
  -25.5911    7.8514   -2.6092 C   0  0  0  0  0  0  0  0  0  0  0  0
   -9.5361    9.4487    0.0640 F   0  0  0  0  0  0  0  0  0  0  0  0
  -17.1633    8.7890   -0.3121 N   0  0  0  0  0  0  0  0  0  0  0  0
  -15.9226    9.6852    1.2161 N   0  0  0  0  0  0  0  0  0  0  0  0
  -17.1545    9.4021    0.8488 N   0  0  0  0  0  0  0  0  0  0  0  0
  -20.6463    7.3404   -1.9557 O   0  0  0  0  0  0  0  0  0  0  0  0
  -21.8105    5.3256    0.1575 O   0  0  0  0  0  0  0  0  0  0  0  0
  -18.4373    6.8422    0.7364 O   0  0  0  0  0  0  0  0  0  0  0  0
  -19.2184   10.5076   -1.2680 O   0  0  0  0  0  0  0  0  0  0  0  0
  -22.1905    9.2883   -1.0096 S   0  0  0  0  0  0  0  0  0  0  0  0
 12  1  1  1
  1 27  1  0
 15  2  2  0
  2 16  1  0
  2 24  1  0
  4  3  2  0
  3 17  1  0
 18  4  1  0
  4 22  1  0
 16  5  1  0
  5 18  2  0
  7  6  1  0
  8  7  2  0
  7 21  1  0
  9  8  1  0
 10  9  2  0
 10 20  1  0
 30 10  1  0
 19 11  1  0
 11 26  1  0
 11 30  1  1
 13 12  1  0
 12 26  1  0
 14 13  1  0
 13 28  1  1
 14 19  1  0
 14 23  1  1
 15 23  1  0
 16 17  2  0
 19 29  1  6
 20 21  2  0
 23 25  1  0
 24 25  2  0
M  END
$$$$
