
     RDKit          3D

 30 33  0  0  0  0  0  0  0  0999 V2000
  -21.0381    7.7196   -2.8529 C   0  0  0  0  0  0  0  0  0  0  0  0
  -15.0971    8.2116    0.0551 C   0  0  0  0  0  0  0  0  0  0  0  0
  -11.4364    8.4916    0.7037 C   0  0  0  0  0  0  0  0  0  0  0  0
  -11.4620    8.8769    2.0231 C   0  0  0  0  0  0  0  0  0  0  0  0
  -13.8347    8.8245    2.0436 C   0  0  0  0  0  0  0  0  0  0  0  0
  -27.6365   10.2348    0.8329 C   0  0  0  0  0  0  0  0  0  0  0  0
  -26.2733    9.6291    0.7084 C   0  0  0  0  0  0  0  0  0  0  0  0
  -25.2065   10.1286    1.4249 C   0  0  0  0  0  0  0  0  0  0  0  0
  -23.9532    9.5653    1.3051 C   0  0  0  0  0  0  0  0  0  0  0  0
  -23.7044    8.4961    0.4807 C   0  0  0  0  0  0  0  0  0  0  0  0
  -20.8397    8.9396   -0.1472 C   0  0  1  0  0  0  0  0  0  0  0  0
  -20.4079    9.0281   -2.4232 C   0  0  2  0  0  0  0  0  0  0  0  0
  -18.9278    8.9378   -2.2619 C   0  0  1  0  0  0  0  0  0  0  0  0
  -18.4901    9.0322   -0.8127 C   0  0  1  0  0  0  0  0  0  0  0  0
  -16.2090    9.0172    0.1168 C   0  0  0  0  0  0  0  0  0  0  0  0
  -13.8272    8.4389    0.7247 C   0  0  0  0  0  0  0  0  0  0  0  0
  -12.6361    8.2717    0.0529 C   0  0  0  0  0  0  0  0  0  0  0  0
  -12.6387    9.0527    2.7231 C   0  0  0  0  0  0  0  0  0  0  0  0
  -19.5066    8.2958    0.0114 C   0  0  1  0  0  0  0  0  0  0  0  0
  -24.7716    7.9976   -0.2351 C   0  0  0  0  0  0  0  0  0  0  0  0
  -26.0440    8.5548   -0.1257 C   0  0  0  0  0  0  0  0  0  0  0  0
  -10.3113    9.1120    2.7300 F   0  0  0  0  0  0  0  0  0  0  0  0
  -17.1647    8.4522   -0.6411 N   0  0  0  0  0  0  0  0  0  0  0  0
  -15.4298    7.1659   -0.7564 N   0  0  0  0  0  0  0  0  0  0  0  0
  -16.6723    7.3472   -1.1511 N   0  0  0  0  0  0  0  0  0  0  0  0
  -21.0685    9.5464   -1.3444 O   0  0  0  0  0  0  0  0  0  0  0  0
  -21.7050    7.8389   -4.0664 O   0  0  0  0  0  0  0  0  0  0  0  0
  -18.3991    7.7446   -2.7596 O   0  0  0  0  0  0  0  0  0  0  0  0
  -19.1619    8.3285    1.3804 O   0  0  0  0  0  0  0  0  0  0  0  0
  -22.1282    7.7225    0.2756 S   0  0  0  0  0  0  0  0  0  0  0  0
 12  1  1  1
  1 27  1  0
 15  2  2  0
  2 16  1  0
  2 24  1  0
  4  3  2  0
  3 17  1  0
 18  4  1  0
  4 22  1  0
 16  5  1  0
  5 18  2  0
  7  6  1  0
  8  7  2  0
  7 21  1  0
  9  8  1  0
 10  9  2  0
 10 20  1  0
 30 10  1  0
 19 11  1  0
 11 26  1  0
 11 30  1  6
 13 12  1  0
 12 26  1  0
 14 13  1  0
 13 28  1  1
 14 19  1  0
 14 23  1  6
 15 23  1  0
 16 17  2  0
 19 29  1  1
 20 21  2  0
 23 25  1  0
 24 25  2  0
M  END
$$$$
