
     RDKit          3D

 30 33  0  0  0  0  0  0  0  0999 V2000
  -21.0947    6.4123    0.1860 C   0  0  0  0  0  0  0  0  0  0  0  0
  -15.0417    8.9587    0.4045 C   0  0  0  0  0  0  0  0  0  0  0  0
  -11.5184    9.2340   -0.7833 C   0  0  0  0  0  0  0  0  0  0  0  0
  -10.8757    9.3752    0.4237 C   0  0  0  0  0  0  0  0  0  0  0  0
  -12.9370    9.2446    1.5928 C   0  0  0  0  0  0  0  0  0  0  0  0
  -26.7798    7.9200   -4.8162 C   0  0  0  0  0  0  0  0  0  0  0  0
  -25.5991    8.2352   -3.9518 C   0  0  0  0  0  0  0  0  0  0  0  0
  -24.3469    7.7432   -4.2535 C   0  0  0  0  0  0  0  0  0  0  0  0
  -23.2636    8.0379   -3.4524 C   0  0  0  0  0  0  0  0  0  0  0  0
  -23.3712    8.8230   -2.3312 C   0  0  0  0  0  0  0  0  0  0  0  0
  -20.4650    8.5069   -1.8301 C   0  0  1  0  0  0  0  0  0  0  0  0
  -20.1045    6.3887   -0.9599 C   0  0  2  0  0  0  0  0  0  0  0  0
  -18.7064    6.6791   -0.5289 C   0  0  1  0  0  0  0  0  0  0  0  0
  -18.2102    8.0256   -1.0199 C   0  0  1  0  0  0  0  0  0  0  0  0
  -15.8186    8.4463   -0.6070 C   0  0  0  0  0  0  0  0  0  0  0  0
  -13.5953    9.1024    0.3950 C   0  0  0  0  0  0  0  0  0  0  0  0
  -12.8940    9.0964   -0.7908 C   0  0  0  0  0  0  0  0  0  0  0  0
  -11.5502    9.3851    1.6280 C   0  0  0  0  0  0  0  0  0  0  0  0
  -19.3650    8.9827   -0.9467 C   0  0  1  0  0  0  0  0  0  0  0  0
  -24.6235    9.3142   -2.0306 C   0  0  0  0  0  0  0  0  0  0  0  0
  -25.7283    9.0262   -2.8292 C   0  0  0  0  0  0  0  0  0  0  0  0
   -9.5146    9.5161    0.5058 F   0  0  0  0  0  0  0  0  0  0  0  0
  -17.0989    8.4899   -0.2001 N   0  0  0  0  0  0  0  0  0  0  0  0
  -15.9012    9.3007    1.4080 N   0  0  0  0  0  0  0  0  0  0  0  0
  -17.1197    9.0049    1.0073 N   0  0  0  0  0  0  0  0  0  0  0  0
  -20.5532    7.1585   -1.9966 O   0  0  0  0  0  0  0  0  0  0  0  0
  -22.0349    5.3942    0.0801 O   0  0  0  0  0  0  0  0  0  0  0  0
  -18.5556    6.6825    0.8597 O   0  0  0  0  0  0  0  0  0  0  0  0
  -18.9782   10.2700   -1.3793 O   0  0  0  0  0  0  0  0  0  0  0  0
  -22.0307    9.2431   -1.2582 S   0  0  0  0  0  0  0  0  0  0  0  0
 12  1  1  1
  1 27  1  0
 15  2  2  0
  2 16  1  0
  2 24  1  0
  4  3  2  0
  3 17  1  0
 18  4  1  0
  4 22  1  0
 16  5  1  0
  5 18  2  0
  7  6  1  0
  8  7  2  0
  7 21  1  0
  9  8  1  0
 10  9  2  0
 10 20  1  0
 30 10  1  0
 19 11  1  0
 11 26  1  0
 11 30  1  1
 13 12  1  0
 12 26  1  0
 14 13  1  0
 13 28  1  1
 14 19  1  0
 14 23  1  1
 15 23  1  0
 16 17  2  0
 19 29  1  6
 20 21  2  0
 23 25  1  0
 24 25  2  0
M  END
$$$$
