
     RDKit          3D

 43 46  0  0  0  0  0  0  0  0999 V2000
   73.9048   54.5704   12.2930 C   0  0  0  0  0  0  0  0  0  0  0  0
   71.9468   56.1756   15.3261 C   0  0  0  0  0  0  0  0  0  0  0  0
   72.2838   57.8858   17.9592 C   0  0  0  0  0  0  0  0  0  0  0  0
   74.3631   60.1206   18.2910 C   0  0  0  0  0  0  0  0  0  0  0  0
   73.7835   60.0700   20.5633 C   0  0  1  0  0  0  0  0  0  0  0  0
   72.5461   60.8931   20.7229 C   0  0  0  0  0  0  0  0  0  0  0  0
   68.6112   50.3715   13.9799 C   0  0  0  0  0  0  0  0  0  0  0  0
   69.8144   50.4924   14.6294 C   0  0  0  0  0  0  0  0  0  0  0  0
   70.2439   51.7058   15.1133 C   0  0  0  0  0  0  0  0  0  0  0  0
   69.4787   52.8628   14.9659 C   0  0  0  0  0  0  0  0  0  0  0  0
   68.2789   52.6954   14.3086 C   0  0  0  0  0  0  0  0  0  0  0  0
   67.8382   51.4916   13.8208 C   0  0  0  0  0  0  0  0  0  0  0  0
   71.9950   54.2822   13.8579 C   0  0  0  0  0  0  0  0  0  0  0  0
   72.3994   54.7345   12.4861 C   0  0  2  0  0  0  0  0  0  0  0  0
   71.7406   54.0347   11.3491 C   0  0  0  0  0  0  0  0  0  0  0  0
   71.2000   57.4324   15.2332 C   0  0  2  0  0  0  0  0  0  0  0  0
   70.3411   57.9032   16.3150 C   0  0  2  0  0  0  0  0  0  0  0  0
   73.7604   59.1999   19.3342 C   0  0  1  0  0  0  0  0  0  0  0  0
   74.8362   61.0851   20.2305 C   0  0  1  0  0  0  0  0  0  0  0  0
   73.1165   62.2800   20.9921 C   0  0  0  0  0  0  0  0  0  0  0  0
   70.0516   59.3320   16.5065 C   0  0  0  0  0  0  0  0  0  0  0  0
   69.4786   59.6614   17.8261 C   0  0  0  0  0  0  0  0  0  0  0  0
   68.9082   60.9249   18.0265 C   0  0  0  0  0  0  0  0  0  0  0  0
   68.3329   61.3214   19.1904 C   0  0  0  0  0  0  0  0  0  0  0  0
   68.2938   60.4469   20.2576 C   0  0  0  0  0  0  0  0  0  0  0  0
   68.8453   59.1964   20.0960 C   0  0  0  0  0  0  0  0  0  0  0  0
   69.4248   58.8147   18.9042 C   0  0  0  0  0  0  0  0  0  0  0  0
   67.2321   48.3656   14.4171 C   0  0  0  0  0  0  0  0  0  0  0  0
   72.7795   53.9681   10.2187 C   0  0  0  0  0  0  0  0  0  0  0  0
   74.2474   53.1116   12.5195 C   0  0  0  0  0  0  0  0  0  0  0  0
   68.1151   49.0736   13.4424 C   0  0  1  0  0  0  0  0  0  0  0  0
   71.1541   55.1595   14.5871 N   0  0  0  0  0  0  0  0  0  0  0  0
   71.0132   57.4649   17.5701 N   0  0  0  0  0  0  0  0  0  0  0  0
   68.7603   55.2410   15.8214 O   0  0  0  0  0  0  0  0  0  0  0  0
   70.5518   54.1314   16.9721 O   0  0  0  0  0  0  0  0  0  0  0  0
   70.5967   57.6033   13.9833 O   0  0  0  0  0  0  0  0  0  0  0  0
   73.2887   57.3536   17.4254 O   0  0  0  0  0  0  0  0  0  0  0  0
   72.4352   58.8799   18.9235 O   0  0  0  0  0  0  0  0  0  0  0  0
   75.3899   60.7246   19.0159 O   0  0  0  0  0  0  0  0  0  0  0  0
   74.1890   62.3115   20.1031 O   0  0  0  0  0  0  0  0  0  0  0  0
   67.3879   49.3768   12.2791 O   0  0  0  0  0  0  0  0  0  0  0  0
   66.8881   47.1285   13.8296 O   0  0  0  0  0  0  0  0  0  0  0  0
   70.0078   54.4109   15.5877 S   0  0  1  0  0  6  0  0  0  0  0  0
 14  1  1  6
  1 30  1  0
  2 16  1  0
 32  2  1  0
 33  3  1  0
  3 37  2  0
  3 38  1  0
 18  4  1  0
  4 39  1  0
  5  6  1  6
 18  5  1  0
  5 19  1  0
  6 20  1  0
  8  7  2  0
 12  7  1  0
  7 31  1  0
  9  8  1  0
 10  9  2  0
 10 11  1  0
 43 10  1  0
 11 12  2  0
 13 14  1  0
 32 13  1  0
 14 15  1  0
 15 29  1  0
 16 17  1  0
 16 36  1  6
 17 21  1  1
 17 33  1  0
 18 38  1  6
 19 39  1  6
 19 40  1  0
 40 20  1  0
 21 22  1  0
 22 23  2  0
 22 27  1  0
 23 24  1  0
 24 25  2  0
 26 25  1  0
 27 26  2  0
 31 28  1  0
 28 42  1  0
 31 41  1  6
 43 32  1  6
 43 34  2  0
 43 35  2  0
M  END
$$$$
