
     RDKit          3D

 43 46  0  0  0  0  0  0  0  0999 V2000
   75.5653   58.7564   17.3787 C   0  0  0  0  0  0  0  0  0  0  0  0
   72.2219   57.7596   16.8981 C   0  0  0  0  0  0  0  0  0  0  0  0
   69.7589   54.3075   15.0906 C   0  0  0  0  0  0  0  0  0  0  0  0
   69.8115   54.1359   12.3362 C   0  0  0  0  0  0  0  0  0  0  0  0
   68.8756   52.1684   13.2049 C   0  0  1  0  0  0  0  0  0  0  0  0
   69.6527   51.8125   14.4312 C   0  0  0  0  0  0  0  0  0  0  0  0
   71.3191   62.0289   22.2011 C   0  0  0  0  0  0  0  0  0  0  0  0
   70.5315   60.9559   21.8659 C   0  0  0  0  0  0  0  0  0  0  0  0
   70.6351   60.3535   20.6341 C   0  0  0  0  0  0  0  0  0  0  0  0
   71.5416   60.8047   19.6746 C   0  0  0  0  0  0  0  0  0  0  0  0
   72.3117   61.8831   20.0534 C   0  0  0  0  0  0  0  0  0  0  0  0
   72.2189   62.4936   21.2782 C   0  0  0  0  0  0  0  0  0  0  0  0
   73.5709   58.3213   18.7974 C   0  0  0  0  0  0  0  0  0  0  0  0
   74.6318   57.6898   17.9455 C   0  0  2  0  0  0  0  0  0  0  0  0
   75.4920   56.6788   18.6196 C   0  0  0  0  0  0  0  0  0  0  0  0
   71.6722   56.4278   17.1629 C   0  0  2  0  0  0  0  0  0  0  0  0
   70.2928   56.0816   16.8357 C   0  0  2  0  0  0  0  0  0  0  0  0
   68.5925   53.6432   13.0916 C   0  0  1  0  0  0  0  0  0  0  0  0
   69.8536   51.9326   12.0926 C   0  0  1  0  0  0  0  0  0  0  0  0
   70.7579   50.9297   13.8651 C   0  0  0  0  0  0  0  0  0  0  0  0
   69.5320   55.1044   17.6283 C   0  0  0  0  0  0  0  0  0  0  0  0
   68.0736   55.3311   17.6297 C   0  0  0  0  0  0  0  0  0  0  0  0
   67.5837   56.6246   17.4087 C   0  0  0  0  0  0  0  0  0  0  0  0
   66.2637   56.9385   17.3651 C   0  0  0  0  0  0  0  0  0  0  0  0
   65.3255   55.9425   17.5463 C   0  0  0  0  0  0  0  0  0  0  0  0
   65.7715   54.6592   17.7660 C   0  0  0  0  0  0  0  0  0  0  0  0
   67.1178   54.3629   17.8063 C   0  0  0  0  0  0  0  0  0  0  0  0
   72.4396   63.5409   23.8057 C   0  0  0  0  0  0  0  0  0  0  0  0
   76.2014   57.4094   19.7705 C   0  0  0  0  0  0  0  0  0  0  0  0
   76.1964   58.2008   16.1178 C   0  0  0  0  0  0  0  0  0  0  0  0
   71.2333   62.7061   23.5254 C   0  0  1  0  0  0  0  0  0  0  0  0
   72.2887   58.4554   18.2089 N   0  0  0  0  0  0  0  0  0  0  0  0
   70.3450   55.5177   15.4579 N   0  0  0  0  0  0  0  0  0  0  0  0
   70.3372   60.1444   17.4347 O   0  0  0  0  0  0  0  0  0  0  0  0
   72.5978   60.9417   17.2974 O   0  0  0  0  0  0  0  0  0  0  0  0
   72.0437   55.9373   18.4186 O   0  0  0  0  0  0  0  0  0  0  0  0
   70.3187   53.2353   15.4295 O   0  0  0  0  0  0  0  0  0  0  0  0
   68.5725   54.2888   14.3605 O   0  0  0  0  0  0  0  0  0  0  0  0
   69.9832   53.1201   11.3963 O   0  0  0  0  0  0  0  0  0  0  0  0
   71.0697   51.6045   12.6865 O   0  0  0  0  0  0  0  0  0  0  0  0
   70.0919   63.5242   23.4805 O   0  0  0  0  0  0  0  0  0  0  0  0
   72.3095   64.0107   25.1310 O   0  0  0  0  0  0  0  0  0  0  0  0
   71.6922   60.0396   18.1077 S   0  0  1  0  0  6  0  0  0  0  0  0
 14  1  1  1
  1 30  1  0
  2 16  1  0
 32  2  1  0
 33  3  1  0
  3 37  2  0
  3 38  1  0
 18  4  1  0
  4 39  1  0
  5  6  1  1
 18  5  1  0
  5 19  1  0
  6 20  1  0
  8  7  2  0
 12  7  1  0
  7 31  1  0
  9  8  1  0
 10  9  2  0
 10 11  1  0
 43 10  1  0
 11 12  2  0
 13 14  1  0
 32 13  1  0
 14 15  1  0
 15 29  1  0
 16 17  1  0
 16 36  1  1
 17 21  1  1
 17 33  1  0
 18 38  1  1
 19 39  1  1
 19 40  1  0
 40 20  1  0
 21 22  1  0
 22 23  2  0
 22 27  1  0
 23 24  1  0
 24 25  2  0
 26 25  1  0
 27 26  2  0
 31 28  1  0
 28 42  1  0
 31 41  1  6
 43 32  1  1
 43 34  2  0
 43 35  2  0
M  END
$$$$
