
     RDKit          3D

 43 46  0  0  0  0  0  0  0  0999 V2000
   68.5565   57.5094   14.1106 C   0  0  0  0  0  0  0  0  0  0  0  0
   70.7152   57.1477   15.7573 C   0  0  0  0  0  0  0  0  0  0  0  0
   72.8723   59.2897   18.3454 C   0  0  0  0  0  0  0  0  0  0  0  0
   74.1994   61.7529   19.4798 C   0  0  0  0  0  0  0  0  0  0  0  0
   75.5157   59.9087   18.8733 C   0  0  1  0  0  0  0  0  0  0  0  0
   74.7833   58.6801   19.3074 C   0  0  0  0  0  0  0  0  0  0  0  0
   71.7884   50.3967   14.9443 C   0  0  0  0  0  0  0  0  0  0  0  0
   71.7380   51.2838   13.8979 C   0  0  0  0  0  0  0  0  0  0  0  0
   71.8214   52.6400   14.1092 C   0  0  0  0  0  0  0  0  0  0  0  0
   71.9601   53.1721   15.3913 C   0  0  0  0  0  0  0  0  0  0  0  0
   72.0066   52.2461   16.4110 C   0  0  0  0  0  0  0  0  0  0  0  0
   71.9246   50.8910   16.2149 C   0  0  0  0  0  0  0  0  0  0  0  0
   69.8354   55.3949   14.3802 C   0  0  0  0  0  0  0  0  0  0  0  0
   69.5558   56.5515   13.4670 C   0  0  2  0  0  0  0  0  0  0  0  0
   70.7365   57.3656   13.0671 C   0  0  0  0  0  0  0  0  0  0  0  0
   69.9775   57.4609   16.9836 C   0  0  2  0  0  0  0  0  0  0  0  0
   70.5620   58.2622   18.0541 C   0  0  2  0  0  0  0  0  0  0  0  0
   74.6146   60.9495   18.2627 C   0  0  1  0  0  0  0  0  0  0  0  0
   75.9263   60.5447   20.1680 C   0  0  1  0  0  0  0  0  0  0  0  0
   75.3100   58.4764   20.7225 C   0  0  0  0  0  0  0  0  0  0  0  0
   70.0683   59.6112   18.3680 C   0  0  0  0  0  0  0  0  0  0  0  0
   69.6067   59.7774   19.7600 C   0  0  0  0  0  0  0  0  0  0  0  0
   68.2383   59.9408   20.0104 C   0  0  0  0  0  0  0  0  0  0  0  0
   67.7053   60.0768   21.2515 C   0  0  0  0  0  0  0  0  0  0  0  0
   68.5390   60.0565   22.3513 C   0  0  0  0  0  0  0  0  0  0  0  0
   69.8899   59.8977   22.1422 C   0  0  0  0  0  0  0  0  0  0  0  0
   70.4098   59.7613   20.8722 C   0  0  0  0  0  0  0  0  0  0  0  0
   72.7690   48.1958   15.5020 C   0  0  0  0  0  0  0  0  0  0  0  0
   70.4029   57.9702   11.6942 C   0  0  0  0  0  0  0  0  0  0  0  0
   67.9616   58.3687   13.0130 C   0  0  0  0  0  0  0  0  0  0  0  0
   71.7004   48.9219   14.7524 C   0  0  1  0  0  0  0  0  0  0  0  0
   70.5828   55.6827   15.5493 N   0  0  0  0  0  0  0  0  0  0  0  0
   71.9911   58.4431   17.6747 N   0  0  0  0  0  0  0  0  0  0  0  0
   72.7597   55.0754   17.0166 O   0  0  0  0  0  0  0  0  0  0  0  0
   73.0812   55.4068   14.6604 O   0  0  0  0  0  0  0  0  0  0  0  0
   69.2837   56.3557   17.4859 O   0  0  0  0  0  0  0  0  0  0  0  0
   73.1442   59.0516   19.5485 O   0  0  0  0  0  0  0  0  0  0  0  0
   73.4410   60.3805   17.6916 O   0  0  0  0  0  0  0  0  0  0  0  0
   75.3992   61.8228   20.1871 O   0  0  0  0  0  0  0  0  0  0  0  0
   75.3553   59.7887   21.1886 O   0  0  0  0  0  0  0  0  0  0  0  0
   70.4384   48.5330   15.2321 O   0  0  0  0  0  0  0  0  0  0  0  0
   73.2454   47.1783   14.6468 O   0  0  0  0  0  0  0  0  0  0  0  0
   72.0796   54.8952   15.6731 S   0  0  1  0  0  6  0  0  0  0  0  0
 14  1  1  1
  1 30  1  0
  2 16  1  0
 32  2  1  0
 33  3  1  0
  3 37  2  0
  3 38  1  0
 18  4  1  0
  4 39  1  0
  5  6  1  1
 18  5  1  0
  5 19  1  0
  6 20  1  0
  8  7  2  0
 12  7  1  0
  7 31  1  0
  9  8  1  0
 10  9  2  0
 10 11  1  0
 43 10  1  0
 11 12  2  0
 13 14  1  0
 32 13  1  0
 14 15  1  0
 15 29  1  0
 16 17  1  0
 16 36  1  1
 17 21  1  6
 17 33  1  0
 18 38  1  1
 19 39  1  6
 19 40  1  0
 40 20  1  0
 21 22  1  0
 22 23  2  0
 22 27  1  0
 23 24  1  0
 24 25  2  0
 26 25  1  0
 27 26  2  0
 31 28  1  0
 28 42  1  0
 31 41  1  1
 43 32  1  1
 43 34  2  0
 43 35  2  0
M  END
$$$$
