
     RDKit          3D

 43 46  0  0  0  0  0  0  0  0999 V2000
   72.4323   53.2460   13.2921 C   0  0  0  0  0  0  0  0  0  0  0  0
   70.3611   56.4879   14.1792 C   0  0  0  0  0  0  0  0  0  0  0  0
   72.6346   58.8721   17.6938 C   0  0  0  0  0  0  0  0  0  0  0  0
   75.6398   60.7520   18.7073 C   0  0  0  0  0  0  0  0  0  0  0  0
   73.7309   60.4666   20.0400 C   0  0  1  0  0  0  0  0  0  0  0  0
   72.6996   61.4304   19.5482 C   0  0  0  0  0  0  0  0  0  0  0  0
   66.8291   51.3825   13.2903 C   0  0  0  0  0  0  0  0  0  0  0  0
   66.8396   52.7013   12.9099 C   0  0  0  0  0  0  0  0  0  0  0  0
   67.6031   53.6293   13.5783 C   0  0  0  0  0  0  0  0  0  0  0  0
   68.3974   53.2728   14.6682 C   0  0  0  0  0  0  0  0  0  0  0  0
   68.3567   51.9396   15.0151 C   0  0  0  0  0  0  0  0  0  0  0  0
   67.6000   51.0034   14.3577 C   0  0  0  0  0  0  0  0  0  0  0  0
   71.9378   54.9161   15.0657 C   0  0  0  0  0  0  0  0  0  0  0  0
   72.6169   53.6136   14.7622 C   0  0  2  0  0  0  0  0  0  0  0  0
   74.0788   53.5614   15.0388 C   0  0  0  0  0  0  0  0  0  0  0  0
   71.2211   57.3120   15.0319 C   0  0  2  0  0  0  0  0  0  0  0  0
   70.7625   57.8393   16.3131 C   0  0  2  0  0  0  0  0  0  0  0  0
   74.4875   59.7912   18.9267 C   0  0  1  0  0  0  0  0  0  0  0  0
   74.7710   61.3543   20.6561 C   0  0  1  0  0  0  0  0  0  0  0  0
   72.9909   62.6676   20.3885 C   0  0  0  0  0  0  0  0  0  0  0  0
   69.4222   58.4218   16.4744 C   0  0  0  0  0  0  0  0  0  0  0  0
   69.1802   59.0243   17.7998 C   0  0  0  0  0  0  0  0  0  0  0  0
   69.3422   60.4063   17.9613 C   0  0  0  0  0  0  0  0  0  0  0  0
   69.1223   61.0644   19.1280 C   0  0  0  0  0  0  0  0  0  0  0  0
   68.7138   60.3539   20.2386 C   0  0  0  0  0  0  0  0  0  0  0  0
   68.5445   58.9937   20.1160 C   0  0  0  0  0  0  0  0  0  0  0  0
   68.7737   58.3454   18.9205 C   0  0  0  0  0  0  0  0  0  0  0  0
   66.8417   49.5123   11.6720 C   0  0  0  0  0  0  0  0  0  0  0  0
   74.3228   54.4623   16.2597 C   0  0  0  0  0  0  0  0  0  0  0  0
   73.2129   54.2441   12.4607 C   0  0  0  0  0  0  0  0  0  0  0  0
   66.0139   50.3507   12.5900 C   0  0  1  0  0  0  0  0  0  0  0  0
   70.6254   55.0753   14.5551 N   0  0  0  0  0  0  0  0  0  0  0  0
   71.7129   58.9358   16.6501 N   0  0  0  0  0  0  0  0  0  0  0  0
   68.4400   55.4912   16.0756 O   0  0  0  0  0  0  0  0  0  0  0  0
   69.9164   53.7171   16.7372 O   0  0  0  0  0  0  0  0  0  0  0  0
   71.9329   58.2707   14.3041 O   0  0  0  0  0  0  0  0  0  0  0  0
   72.4575   58.0296   18.6085 O   0  0  0  0  0  0  0  0  0  0  0  0
   73.7330   59.7287   17.7208 O   0  0  0  0  0  0  0  0  0  0  0  0
   75.9697   61.0918   20.0188 O   0  0  0  0  0  0  0  0  0  0  0  0
   74.3843   62.6675   20.4008 O   0  0  0  0  0  0  0  0  0  0  0  0
   65.4512   49.5414   13.5913 O   0  0  0  0  0  0  0  0  0  0  0  0
   65.9576   48.6169   11.0314 O   0  0  0  0  0  0  0  0  0  0  0  0
   69.3832   54.4415   15.5200 S   0  0  1  0  0  6  0  0  0  0  0  0
 14  1  1  6
  1 30  1  0
  2 16  1  0
 32  2  1  0
 33  3  1  0
  3 37  2  0
  3 38  1  0
 18  4  1  0
  4 39  1  0
  5  6  1  6
 18  5  1  0
  5 19  1  0
  6 20  1  0
  8  7  2  0
 12  7  1  0
  7 31  1  0
  9  8  1  0
 10  9  2  0
 10 11  1  0
 43 10  1  0
 11 12  2  0
 13 14  1  0
 32 13  1  0
 14 15  1  0
 15 29  1  0
 16 17  1  0
 16 36  1  6
 17 21  1  6
 17 33  1  0
 18 38  1  6
 19 39  1  6
 19 40  1  0
 40 20  1  0
 21 22  1  0
 22 23  2  0
 22 27  1  0
 23 24  1  0
 24 25  2  0
 26 25  1  0
 27 26  2  0
 31 28  1  0
 28 42  1  0
 31 41  1  1
 43 32  1  6
 43 34  2  0
 43 35  2  0
M  END
$$$$
