
     RDKit          3D

 43 46  0  0  0  0  0  0  0  0999 V2000
   74.2833   53.9671   14.9089 C   0  0  0  0  0  0  0  0  0  0  0  0
   71.6423   56.1879   14.7407 C   0  0  0  0  0  0  0  0  0  0  0  0
   72.6408   58.5374   17.9416 C   0  0  0  0  0  0  0  0  0  0  0  0
   75.4266   60.9058   18.3657 C   0  0  0  0  0  0  0  0  0  0  0  0
   73.9183   60.1967   20.0161 C   0  0  1  0  0  0  0  0  0  0  0  0
   72.6238   60.9004   19.7646 C   0  0  0  0  0  0  0  0  0  0  0  0
   66.6340   51.6976   13.5440 C   0  0  0  0  0  0  0  0  0  0  0  0
   67.7815   51.3276   14.2001 C   0  0  0  0  0  0  0  0  0  0  0  0
   68.6356   52.2678   14.7268 C   0  0  0  0  0  0  0  0  0  0  0  0
   68.3746   53.6338   14.6179 C   0  0  0  0  0  0  0  0  0  0  0  0
   67.2126   53.9598   13.9524 C   0  0  0  0  0  0  0  0  0  0  0  0
   66.3518   53.0329   13.4222 C   0  0  0  0  0  0  0  0  0  0  0  0
   71.8083   53.7973   14.7522 C   0  0  0  0  0  0  0  0  0  0  0  0
   73.0914   53.7698   13.9758 C   0  0  2  0  0  0  0  0  0  0  0  0
   73.3549   52.5286   13.1971 C   0  0  0  0  0  0  0  0  0  0  0  0
   70.6227   57.1276   15.2133 C   0  0  2  0  0  0  0  0  0  0  0  0
   70.6756   57.7202   16.5459 C   0  0  2  0  0  0  0  0  0  0  0  0
   74.5809   59.7089   18.7547 C   0  0  1  0  0  0  0  0  0  0  0  0
   74.8317   61.2982   20.4652 C   0  0  1  0  0  0  0  0  0  0  0  0
   72.7858   62.1727   20.5870 C   0  0  0  0  0  0  0  0  0  0  0  0
   70.1557   59.0693   16.8134 C   0  0  0  0  0  0  0  0  0  0  0  0
   69.7043   59.2789   18.2029 C   0  0  0  0  0  0  0  0  0  0  0  0
   69.7001   60.5763   18.7308 C   0  0  0  0  0  0  0  0  0  0  0  0
   69.2824   60.8832   19.9855 C   0  0  0  0  0  0  0  0  0  0  0  0
   68.8294   59.8754   20.8127 C   0  0  0  0  0  0  0  0  0  0  0  0
   68.8197   58.5880   20.3265 C   0  0  0  0  0  0  0  0  0  0  0  0
   69.2488   58.2990   19.0481 C   0  0  0  0  0  0  0  0  0  0  0  0
   64.8531   50.0457   14.0092 C   0  0  0  0  0  0  0  0  0  0  0  0
   73.0251   51.3522   14.1292 C   0  0  0  0  0  0  0  0  0  0  0  0
   75.4979   54.2721   14.0552 C   0  0  0  0  0  0  0  0  0  0  0  0
   65.6867   50.7067   12.9607 C   0  0  1  0  0  0  0  0  0  0  0  0
   70.9475   54.8960   14.5063 N   0  0  0  0  0  0  0  0  0  0  0  0
   72.1230   57.7787   16.8932 N   0  0  0  0  0  0  0  0  0  0  0  0
   68.6945   56.1570   15.2770 O   0  0  0  0  0  0  0  0  0  0  0  0
   69.5827   54.4911   16.7606 O   0  0  0  0  0  0  0  0  0  0  0  0
   69.3269   56.7208   14.8803 O   0  0  0  0  0  0  0  0  0  0  0  0
   72.1869   58.3608   19.0995 O   0  0  0  0  0  0  0  0  0  0  0  0
   73.6445   59.4748   17.7080 O   0  0  0  0  0  0  0  0  0  0  0  0
   75.9153   61.3137   19.6065 O   0  0  0  0  0  0  0  0  0  0  0  0
   74.1204   62.4890   20.3409 O   0  0  0  0  0  0  0  0  0  0  0  0
   64.8584   51.4201   12.0781 O   0  0  0  0  0  0  0  0  0  0  0  0
   64.8900   48.6594   13.7434 O   0  0  0  0  0  0  0  0  0  0  0  0
   69.4469   54.8404   15.2942 S   0  0  1  0  0  6  0  0  0  0  0  0
 14  1  1  1
  1 30  1  0
  2 16  1  0
 32  2  1  0
 33  3  1  0
  3 37  2  0
  3 38  1  0
 18  4  1  0
  4 39  1  0
  5  6  1  6
 18  5  1  0
  5 19  1  0
  6 20  1  0
  8  7  2  0
 12  7  1  0
  7 31  1  0
  9  8  1  0
 10  9  2  0
 10 11  1  0
 43 10  1  0
 11 12  2  0
 13 14  1  0
 32 13  1  0
 14 15  1  0
 15 29  1  0
 16 17  1  0
 16 36  1  1
 17 21  1  6
 17 33  1  0
 18 38  1  6
 19 39  1  6
 19 40  1  0
 40 20  1  0
 21 22  1  0
 22 23  2  0
 22 27  1  0
 23 24  1  0
 24 25  2  0
 26 25  1  0
 27 26  2  0
 31 28  1  0
 28 42  1  0
 31 41  1  6
 43 32  1  6
 43 34  2  0
 43 35  2  0
M  END
$$$$
