
     RDKit          3D

 43 46  0  0  0  0  0  0  0  0999 V2000
   68.6797   52.9071   13.6831 C   0  0  0  0  0  0  0  0  0  0  0  0
   71.5166   56.6224   14.7627 C   0  0  0  0  0  0  0  0  0  0  0  0
   72.2485   58.7811   17.6881 C   0  0  0  0  0  0  0  0  0  0  0  0
   73.4122   61.2925   20.1103 C   0  0  0  0  0  0  0  0  0  0  0  0
   74.5715   60.4786   18.2408 C   0  0  1  0  0  0  0  0  0  0  0  0
   75.0421   59.1003   18.5773 C   0  0  0  0  0  0  0  0  0  0  0  0
   73.1748   50.5943   13.7268 C   0  0  0  0  0  0  0  0  0  0  0  0
   72.3580   50.4834   14.8245 C   0  0  0  0  0  0  0  0  0  0  0  0
   71.9365   51.5960   15.5139 C   0  0  0  0  0  0  0  0  0  0  0  0
   72.3190   52.8814   15.1299 C   0  0  0  0  0  0  0  0  0  0  0  0
   73.1383   52.9458   14.0235 C   0  0  0  0  0  0  0  0  0  0  0  0
   73.5663   51.8448   13.3264 C   0  0  0  0  0  0  0  0  0  0  0  0
   70.3321   54.7582   13.8330 C   0  0  0  0  0  0  0  0  0  0  0  0
   68.8719   54.4155   13.8180 C   0  0  2  0  0  0  0  0  0  0  0  0
   68.0901   54.8443   15.0102 C   0  0  0  0  0  0  0  0  0  0  0  0
   70.5286   57.6752   15.0105 C   0  0  2  0  0  0  0  0  0  0  0  0
   70.1836   58.1096   16.3603 C   0  0  2  0  0  0  0  0  0  0  0  0
   73.1686   60.7561   18.7131 C   0  0  1  0  0  0  0  0  0  0  0  0
   75.4002   61.3562   19.1309 C   0  0  1  0  0  0  0  0  0  0  0  0
   76.4087   59.3703   19.1945 C   0  0  0  0  0  0  0  0  0  0  0  0
   68.9190   58.8014   16.6505 C   0  0  0  0  0  0  0  0  0  0  0  0
   68.7837   59.2526   18.0492 C   0  0  0  0  0  0  0  0  0  0  0  0
   68.9717   60.6076   18.3505 C   0  0  0  0  0  0  0  0  0  0  0  0
   68.8470   61.1319   19.5964 C   0  0  0  0  0  0  0  0  0  0  0  0
   68.5158   60.3026   20.6489 C   0  0  0  0  0  0  0  0  0  0  0  0
   68.3237   58.9648   20.3891 C   0  0  0  0  0  0  0  0  0  0  0  0
   68.4556   58.4536   19.1150 C   0  0  0  0  0  0  0  0  0  0  0  0
   72.5178   48.6164   12.3954 C   0  0  0  0  0  0  0  0  0  0  0  0
   66.7114   54.1762   14.8894 C   0  0  0  0  0  0  0  0  0  0  0  0
   68.7930   52.5525   12.2139 C   0  0  0  0  0  0  0  0  0  0  0  0
   73.6509   49.4112   12.9568 C   0  0  1  0  0  0  0  0  0  0  0  0
   70.8316   55.3314   15.0290 N   0  0  0  0  0  0  0  0  0  0  0  0
   71.2560   59.0665   16.7518 N   0  0  0  0  0  0  0  0  0  0  0  0
   71.0819   53.8233   17.2479 O   0  0  0  0  0  0  0  0  0  0  0  0
   73.0386   54.9867   16.4845 O   0  0  0  0  0  0  0  0  0  0  0  0
   69.3933   57.5417   14.2051 O   0  0  0  0  0  0  0  0  0  0  0  0
   73.0101   57.8030   17.4852 O   0  0  0  0  0  0  0  0  0  0  0  0
   72.3923   59.5681   18.8286 O   0  0  0  0  0  0  0  0  0  0  0  0
   74.5296   62.1010   19.9049 O   0  0  0  0  0  0  0  0  0  0  0  0
   76.1470   60.5122   19.9489 O   0  0  0  0  0  0  0  0  0  0  0  0
   74.4429   49.9108   11.9094 O   0  0  0  0  0  0  0  0  0  0  0  0
   73.0905   47.5702   11.6394 O   0  0  0  0  0  0  0  0  0  0  0  0
   71.7799   54.3064   15.9912 S   0  0  1  0  0  6  0  0  0  0  0  0
 14  1  1  1
  1 30  1  0
  2 16  1  0
 32  2  1  0
 33  3  1  0
  3 37  2  0
  3 38  1  0
 18  4  1  0
  4 39  1  0
  5  6  1  1
 18  5  1  0
  5 19  1  0
  6 20  1  0
  8  7  2  0
 12  7  1  0
  7 31  1  0
  9  8  1  0
 10  9  2  0
 10 11  1  0
 43 10  1  0
 11 12  2  0
 13 14  1  0
 32 13  1  0
 14 15  1  0
 15 29  1  0
 16 17  1  0
 16 36  1  1
 17 21  1  6
 17 33  1  0
 18 38  1  1
 19 39  1  1
 19 40  1  0
 40 20  1  0
 21 22  1  0
 22 23  2  0
 22 27  1  0
 23 24  1  0
 24 25  2  0
 26 25  1  0
 27 26  2  0
 31 28  1  0
 28 42  1  0
 31 41  1  6
 43 32  1  6
 43 34  2  0
 43 35  2  0
M  END
$$$$
