
     RDKit          3D

 43 46  0  0  0  0  0  0  0  0999 V2000
   73.7726   54.7649   15.0926 C   0  0  0  0  0  0  0  0  0  0  0  0
   71.9195   56.0643   15.4640 C   0  0  0  0  0  0  0  0  0  0  0  0
   72.9131   58.3261   18.0104 C   0  0  0  0  0  0  0  0  0  0  0  0
   74.5833   60.2273   18.3418 C   0  0  0  0  0  0  0  0  0  0  0  0
   73.7585   60.6295   20.5004 C   0  0  1  0  0  0  0  0  0  0  0  0
   72.2883   60.8689   20.3750 C   0  0  0  0  0  0  0  0  0  0  0  0
   66.9954   51.6556   13.6023 C   0  0  0  0  0  0  0  0  0  0  0  0
   68.2245   51.3355   14.1228 C   0  0  0  0  0  0  0  0  0  0  0  0
   69.0141   52.2882   14.7227 C   0  0  0  0  0  0  0  0  0  0  0  0
   68.6024   53.6169   14.8282 C   0  0  0  0  0  0  0  0  0  0  0  0
   67.3628   53.8933   14.2930 C   0  0  0  0  0  0  0  0  0  0  0  0
   66.5649   52.9534   13.6919 C   0  0  0  0  0  0  0  0  0  0  0  0
   71.6051   54.1692   14.0313 C   0  0  0  0  0  0  0  0  0  0  0  0
   73.0809   54.3168   13.8077 C   0  0  2  0  0  0  0  0  0  0  0  0
   73.7935   53.0970   13.3379 C   0  0  0  0  0  0  0  0  0  0  0  0
   71.3163   57.3911   15.6117 C   0  0  2  0  0  0  0  0  0  0  0  0
   70.6984   57.8248   16.8607 C   0  0  2  0  0  0  0  0  0  0  0  0
   74.2501   59.5022   19.6312 C   0  0  1  0  0  0  0  0  0  0  0  0
   74.3645   61.8375   19.8501 C   0  0  1  0  0  0  0  0  0  0  0  0
   72.2260   62.3771   20.1678 C   0  0  0  0  0  0  0  0  0  0  0  0
   69.4225   58.5555   16.8793 C   0  0  0  0  0  0  0  0  0  0  0  0
   69.0249   59.0440   18.2140 C   0  0  0  0  0  0  0  0  0  0  0  0
   68.7226   58.1157   19.2185 C   0  0  0  0  0  0  0  0  0  0  0  0
   68.3708   58.4560   20.4847 C   0  0  0  0  0  0  0  0  0  0  0  0
   68.2987   59.7902   20.8310 C   0  0  0  0  0  0  0  0  0  0  0  0
   68.5893   60.7300   19.8685 C   0  0  0  0  0  0  0  0  0  0  0  0
   68.9446   60.3615   18.5880 C   0  0  0  0  0  0  0  0  0  0  0  0
   65.7856   51.0286   11.5384 C   0  0  0  0  0  0  0  0  0  0  0  0
   73.1428   52.7001   12.0034 C   0  0  0  0  0  0  0  0  0  0  0  0
   74.1150   53.5252   15.8942 C   0  0  0  0  0  0  0  0  0  0  0  0
   66.1143   50.6499   12.9453 C   0  0  1  0  0  0  0  0  0  0  0  0
   70.9561   55.2490   14.6804 N   0  0  0  0  0  0  0  0  0  0  0  0
   71.6882   58.7423   17.4913 N   0  0  0  0  0  0  0  0  0  0  0  0
   68.6825   56.0098   15.9102 O   0  0  0  0  0  0  0  0  0  0  0  0
   69.9638   54.2668   16.9518 O   0  0  0  0  0  0  0  0  0  0  0  0
   70.5470   57.7540   14.5018 O   0  0  0  0  0  0  0  0  0  0  0  0
   73.7271   57.7445   17.2508 O   0  0  0  0  0  0  0  0  0  0  0  0
   73.2279   58.5522   19.3485 O   0  0  0  0  0  0  0  0  0  0  0  0
   75.1790   61.3915   18.8257 O   0  0  0  0  0  0  0  0  0  0  0  0
   73.3132   62.5816   19.3206 O   0  0  0  0  0  0  0  0  0  0  0  0
   66.8206   49.4354   12.9555 O   0  0  0  0  0  0  0  0  0  0  0  0
   65.0413   49.9596   10.9932 O   0  0  0  0  0  0  0  0  0  0  0  0
   69.5921   54.8367   15.5999 S   0  0  1  0  0  6  0  0  0  0  0  0
 14  1  1  1
  1 30  1  0
  2 16  1  0
 32  2  1  0
 33  3  1  0
  3 37  2  0
  3 38  1  0
 18  4  1  0
  4 39  1  0
  5  6  1  6
 18  5  1  0
  5 19  1  0
  6 20  1  0
  8  7  2  0
 12  7  1  0
  7 31  1  0
  9  8  1  0
 10  9  2  0
 10 11  1  0
 43 10  1  0
 11 12  2  0
 13 14  1  0
 32 13  1  0
 14 15  1  0
 15 29  1  0
 16 17  1  0
 16 36  1  6
 17 21  1  6
 17 33  1  0
 18 38  1  6
 19 39  1  6
 19 40  1  0
 40 20  1  0
 21 22  1  0
 22 23  2  0
 22 27  1  0
 23 24  1  0
 24 25  2  0
 26 25  1  0
 27 26  2  0
 31 28  1  0
 28 42  1  0
 31 41  1  6
 43 32  1  6
 43 34  2  0
 43 35  2  0
M  END
$$$$
