
     RDKit          3D

 43 46  0  0  0  0  0  0  0  0999 V2000
   73.9150   54.8826   14.6855 C   0  0  0  0  0  0  0  0  0  0  0  0
   71.8790   55.7922   15.5439 C   0  0  0  0  0  0  0  0  0  0  0  0
   72.4382   57.7272   18.4956 C   0  0  0  0  0  0  0  0  0  0  0  0
   74.5866   59.3602   20.8292 C   0  0  0  0  0  0  0  0  0  0  0  0
   74.2656   60.5742   18.8481 C   0  0  1  0  0  0  0  0  0  0  0  0
   75.2742   60.0836   17.8600 C   0  0  0  0  0  0  0  0  0  0  0  0
   67.0259   51.4275   13.3712 C   0  0  0  0  0  0  0  0  0  0  0  0
   68.0291   51.0220   14.2157 C   0  0  0  0  0  0  0  0  0  0  0  0
   68.8091   51.9353   14.8853 C   0  0  0  0  0  0  0  0  0  0  0  0
   68.6162   53.3088   14.7362 C   0  0  0  0  0  0  0  0  0  0  0  0
   67.5989   53.6708   13.8797 C   0  0  0  0  0  0  0  0  0  0  0  0
   66.8133   52.7710   13.2055 C   0  0  0  0  0  0  0  0  0  0  0  0
   71.7206   53.8332   14.1726 C   0  0  0  0  0  0  0  0  0  0  0  0
   73.0814   54.1580   13.6317 C   0  0  2  0  0  0  0  0  0  0  0  0
   73.8904   52.9986   13.1651 C   0  0  0  0  0  0  0  0  0  0  0  0
   71.2811   57.1289   15.5030 C   0  0  2  0  0  0  0  0  0  0  0  0
   70.6585   57.7337   16.6762 C   0  0  2  0  0  0  0  0  0  0  0  0
   73.6374   59.4660   19.6515 C   0  0  1  0  0  0  0  0  0  0  0  0
   75.0985   61.2916   19.8684 C   0  0  1  0  0  0  0  0  0  0  0  0
   76.4581   61.0050   18.1264 C   0  0  0  0  0  0  0  0  0  0  0  0
   69.6396   58.7868   16.5545 C   0  0  0  0  0  0  0  0  0  0  0  0
   69.1773   59.3328   17.8453 C   0  0  0  0  0  0  0  0  0  0  0  0
   68.1655   60.3015   17.8536 C   0  0  0  0  0  0  0  0  0  0  0  0
   67.6506   60.8507   18.9832 C   0  0  0  0  0  0  0  0  0  0  0  0
   68.1347   60.4491   20.2118 C   0  0  0  0  0  0  0  0  0  0  0  0
   69.1296   59.4986   20.2412 C   0  0  0  0  0  0  0  0  0  0  0  0
   69.6381   58.9539   19.0807 C   0  0  0  0  0  0  0  0  0  0  0  0
   65.7921   49.2862   13.4668 C   0  0  0  0  0  0  0  0  0  0  0  0
   73.0594   52.2973   12.0792 C   0  0  0  0  0  0  0  0  0  0  0  0
   74.2726   53.8817   15.7658 C   0  0  0  0  0  0  0  0  0  0  0  0
   66.1623   50.4664   12.6295 C   0  0  1  0  0  0  0  0  0  0  0  0
   70.9949   54.9111   14.7384 N   0  0  0  0  0  0  0  0  0  0  0  0
   71.7774   58.3531   17.4399 N   0  0  0  0  0  0  0  0  0  0  0  0
   68.6892   55.6543   15.9181 O   0  0  0  0  0  0  0  0  0  0  0  0
   69.9096   53.8517   16.9312 O   0  0  0  0  0  0  0  0  0  0  0  0
   70.5195   57.3377   14.3490 O   0  0  0  0  0  0  0  0  0  0  0  0
   71.9177   56.7109   19.0192 O   0  0  0  0  0  0  0  0  0  0  0  0
   73.6550   58.2210   18.9609 O   0  0  0  0  0  0  0  0  0  0  0  0
   74.8483   60.7039   21.0947 O   0  0  0  0  0  0  0  0  0  0  0  0
   76.4308   61.0897   19.5169 O   0  0  0  0  0  0  0  0  0  0  0  0
   65.0024   51.1717   12.2671 O   0  0  0  0  0  0  0  0  0  0  0  0
   64.7396   48.6261   12.7957 O   0  0  0  0  0  0  0  0  0  0  0  0
   69.5938   54.4816   15.5918 S   0  0  1  0  0  6  0  0  0  0  0  0
 14  1  1  1
  1 30  1  0
  2 16  1  0
 32  2  1  0
 33  3  1  0
  3 37  2  0
  3 38  1  0
 18  4  1  0
  4 39  1  0
  5  6  1  6
 18  5  1  0
  5 19  1  0
  6 20  1  0
  8  7  2  0
 12  7  1  0
  7 31  1  0
  9  8  1  0
 10  9  2  0
 10 11  1  0
 43 10  1  0
 11 12  2  0
 13 14  1  0
 32 13  1  0
 14 15  1  0
 15 29  1  0
 16 17  1  0
 16 36  1  6
 17 21  1  6
 17 33  1  0
 18 38  1  6
 19 39  1  1
 19 40  1  0
 40 20  1  0
 21 22  1  0
 22 23  2  0
 22 27  1  0
 23 24  1  0
 24 25  2  0
 26 25  1  0
 27 26  2  0
 31 28  1  0
 28 42  1  0
 31 41  1  1
 43 32  1  6
 43 34  2  0
 43 35  2  0
M  END
$$$$
