
     RDKit          3D

 43 46  0  0  0  0  0  0  0  0999 V2000
   74.5127   53.4956   16.0935 C   0  0  0  0  0  0  0  0  0  0  0  0
   72.1009   56.6139   14.9301 C   0  0  0  0  0  0  0  0  0  0  0  0
   72.7302   58.3401   17.8705 C   0  0  0  0  0  0  0  0  0  0  0  0
   74.5224   60.0417   18.4714 C   0  0  0  0  0  0  0  0  0  0  0  0
   73.4177   60.4694   20.4959 C   0  0  1  0  0  0  0  0  0  0  0  0
   71.9964   60.7929   20.1648 C   0  0  0  0  0  0  0  0  0  0  0  0
   67.0511   52.5488   13.1856 C   0  0  0  0  0  0  0  0  0  0  0  0
   67.2445   53.8372   12.7532 C   0  0  0  0  0  0  0  0  0  0  0  0
   68.0763   54.6982   13.4297 C   0  0  0  0  0  0  0  0  0  0  0  0
   68.7574   54.3020   14.5808 C   0  0  0  0  0  0  0  0  0  0  0  0
   68.5343   53.0014   14.9785 C   0  0  0  0  0  0  0  0  0  0  0  0
   67.7076   52.1319   14.3137 C   0  0  0  0  0  0  0  0  0  0  0  0
   72.2296   54.2951   15.5211 C   0  0  0  0  0  0  0  0  0  0  0  0
   73.6465   54.1837   15.0416 C   0  0  2  0  0  0  0  0  0  0  0  0
   73.8460   53.4412   13.7667 C   0  0  0  0  0  0  0  0  0  0  0  0
   71.0714   57.5903   15.2946 C   0  0  2  0  0  0  0  0  0  0  0  0
   70.5780   57.7197   16.6619 C   0  0  2  0  0  0  0  0  0  0  0  0
   73.9674   59.3244   19.6866 C   0  0  1  0  0  0  0  0  0  0  0  0
   74.1764   61.6473   19.9607 C   0  0  1  0  0  0  0  0  0  0  0  0
   72.0472   62.3041   19.9773 C   0  0  0  0  0  0  0  0  0  0  0  0
   69.2221   58.2094   16.9516 C   0  0  0  0  0  0  0  0  0  0  0  0
   69.0708   58.8146   18.2891 C   0  0  0  0  0  0  0  0  0  0  0  0
   68.9396   57.9789   19.4056 C   0  0  0  0  0  0  0  0  0  0  0  0
   68.8197   58.4297   20.6804 C   0  0  0  0  0  0  0  0  0  0  0  0
   68.8241   59.7889   20.9202 C   0  0  0  0  0  0  0  0  0  0  0  0
   68.9513   60.6398   19.8460 C   0  0  0  0  0  0  0  0  0  0  0  0
   69.0719   60.1597   18.5588 C   0  0  0  0  0  0  0  0  0  0  0  0
   66.4803   50.1709   12.8164 C   0  0  0  0  0  0  0  0  0  0  0  0
   73.6129   51.9565   14.0870 C   0  0  0  0  0  0  0  0  0  0  0  0
   75.9433   53.4983   15.5934 C   0  0  0  0  0  0  0  0  0  0  0  0
   66.1573   51.5895   12.4783 C   0  0  1  0  0  0  0  0  0  0  0  0
   71.4315   55.2881   14.9001 N   0  0  0  0  0  0  0  0  0  0  0  0
   71.4972   58.6885   17.3217 N   0  0  0  0  0  0  0  0  0  0  0  0
   69.2267   56.7724   15.3427 O   0  0  0  0  0  0  0  0  0  0  0  0
   69.6961   55.0106   16.9051 O   0  0  0  0  0  0  0  0  0  0  0  0
   70.0298   57.6403   14.3629 O   0  0  0  0  0  0  0  0  0  0  0  0
   73.6421   57.9380   17.1058 O   0  0  0  0  0  0  0  0  0  0  0  0
   72.9462   58.4366   19.2434 O   0  0  0  0  0  0  0  0  0  0  0  0
   75.1047   61.1657   19.0562 O   0  0  0  0  0  0  0  0  0  0  0  0
   73.2549   62.4547   19.2988 O   0  0  0  0  0  0  0  0  0  0  0  0
   64.8478   51.8877   12.8909 O   0  0  0  0  0  0  0  0  0  0  0  0
   65.7806   49.3637   11.8929 O   0  0  0  0  0  0  0  0  0  0  0  0
   69.8283   55.3840   15.4443 S   0  0  1  0  0  6  0  0  0  0  0  0
 14  1  1  1
  1 30  1  0
  2 16  1  0
 32  2  1  0
 33  3  1  0
  3 37  2  0
  3 38  1  0
 18  4  1  0
  4 39  1  0
  5  6  1  6
 18  5  1  0
  5 19  1  0
  6 20  1  0
  8  7  2  0
 12  7  1  0
  7 31  1  0
  9  8  1  0
 10  9  2  0
 10 11  1  0
 43 10  1  0
 11 12  2  0
 13 14  1  0
 32 13  1  0
 14 15  1  0
 15 29  1  0
 16 17  1  0
 16 36  1  6
 17 21  1  6
 17 33  1  0
 18 38  1  6
 19 39  1  6
 19 40  1  0
 40 20  1  0
 21 22  1  0
 22 23  2  0
 22 27  1  0
 23 24  1  0
 24 25  2  0
 26 25  1  0
 27 26  2  0
 31 28  1  0
 28 42  1  0
 31 41  1  1
 43 32  1  6
 43 34  2  0
 43 35  2  0
M  END
$$$$
