
     RDKit          3D

 43 46  0  0  0  0  0  0  0  0999 V2000
   73.9011   52.4626   13.9159 C   0  0  0  0  0  0  0  0  0  0  0  0
   71.9799   56.0704   14.6098 C   0  0  0  0  0  0  0  0  0  0  0  0
   72.0989   59.0149   17.8899 C   0  0  0  0  0  0  0  0  0  0  0  0
   75.0084   61.0784   18.6854 C   0  0  0  0  0  0  0  0  0  0  0  0
   73.4841   60.5259   20.3803 C   0  0  1  0  0  0  0  0  0  0  0  0
   72.3576   61.5051   20.2990 C   0  0  0  0  0  0  0  0  0  0  0  0
   66.6144   51.9462   13.3942 C   0  0  0  0  0  0  0  0  0  0  0  0
   67.6747   51.4820   14.1322 C   0  0  0  0  0  0  0  0  0  0  0  0
   68.6134   52.3432   14.6501 C   0  0  0  0  0  0  0  0  0  0  0  0
   68.5299   53.7211   14.4490 C   0  0  0  0  0  0  0  0  0  0  0  0
   67.4503   54.1428   13.7033 C   0  0  0  0  0  0  0  0  0  0  0  0
   66.5068   53.2954   13.1807 C   0  0  0  0  0  0  0  0  0  0  0  0
   71.8021   53.7940   13.8825 C   0  0  0  0  0  0  0  0  0  0  0  0
   73.2555   53.8041   14.2532 C   0  0  2  0  0  0  0  0  0  0  0  0
   74.0855   54.8566   13.6052 C   0  0  0  0  0  0  0  0  0  0  0  0
   71.1403   57.2569   14.7925 C   0  0  2  0  0  0  0  0  0  0  0  0
   70.7797   57.7524   16.1169 C   0  0  2  0  0  0  0  0  0  0  0  0
   73.9508   60.0481   19.0304 C   0  0  1  0  0  0  0  0  0  0  0  0
   74.6371   61.3604   20.8530 C   0  0  1  0  0  0  0  0  0  0  0  0
   72.8368   62.6216   21.2183 C   0  0  0  0  0  0  0  0  0  0  0  0
   69.7414   58.7769   16.3029 C   0  0  0  0  0  0  0  0  0  0  0  0
   69.5957   59.2442   17.6953 C   0  0  0  0  0  0  0  0  0  0  0  0
   68.7714   58.5282   18.5728 C   0  0  0  0  0  0  0  0  0  0  0  0
   68.5867   58.8559   19.8772 C   0  0  0  0  0  0  0  0  0  0  0  0
   69.2380   59.9564   20.3967 C   0  0  0  0  0  0  0  0  0  0  0  0
   70.0562   60.6834   19.5624 C   0  0  0  0  0  0  0  0  0  0  0  0
   70.2293   60.3322   18.2401 C   0  0  0  0  0  0  0  0  0  0  0  0
   65.6480   49.6697   13.4021 C   0  0  0  0  0  0  0  0  0  0  0  0
   75.5299   54.6215   14.0744 C   0  0  0  0  0  0  0  0  0  0  0  0
   72.8607   51.3800   14.1219 C   0  0  0  0  0  0  0  0  0  0  0  0
   65.5798   51.0426   12.8177 C   0  0  1  0  0  0  0  0  0  0  0  0
   71.0819   54.9897   14.1277 N   0  0  0  0  0  0  0  0  0  0  0  0
   72.0282   58.3512   16.6662 N   0  0  0  0  0  0  0  0  0  0  0  0
   68.9882   56.1357   15.3780 O   0  0  0  0  0  0  0  0  0  0  0  0
   70.0519   54.2897   16.4851 O   0  0  0  0  0  0  0  0  0  0  0  0
   70.0488   57.2777   13.9186 O   0  0  0  0  0  0  0  0  0  0  0  0
   71.4050   58.5942   18.8487 O   0  0  0  0  0  0  0  0  0  0  0  0
   72.9254   60.1255   18.0456 O   0  0  0  0  0  0  0  0  0  0  0  0
   75.6459   61.2422   19.9148 O   0  0  0  0  0  0  0  0  0  0  0  0
   74.1911   62.6789   20.8955 O   0  0  0  0  0  0  0  0  0  0  0  0
   64.3350   51.6221   13.1154 O   0  0  0  0  0  0  0  0  0  0  0  0
   64.6226   48.9161   12.7900 O   0  0  0  0  0  0  0  0  0  0  0  0
   69.7110   54.8291   15.1127 S   0  0  1  0  0  6  0  0  0  0  0  0
 14  1  1  6
  1 30  1  0
  2 16  1  0
 32  2  1  0
 33  3  1  0
  3 37  2  0
  3 38  1  0
 18  4  1  0
  4 39  1  0
  5  6  1  6
 18  5  1  0
  5 19  1  0
  6 20  1  0
  8  7  2  0
 12  7  1  0
  7 31  1  0
  9  8  1  0
 10  9  2  0
 10 11  1  0
 43 10  1  0
 11 12  2  0
 13 14  1  0
 32 13  1  0
 14 15  1  0
 15 29  1  0
 16 17  1  0
 16 36  1  6
 17 21  1  6
 17 33  1  0
 18 38  1  6
 19 39  1  6
 19 40  1  0
 40 20  1  0
 21 22  1  0
 22 23  2  0
 22 27  1  0
 23 24  1  0
 24 25  2  0
 26 25  1  0
 27 26  2  0
 31 28  1  0
 28 42  1  0
 31 41  1  1
 43 32  1  6
 43 34  2  0
 43 35  2  0
M  END
$$$$
