
     RDKit          3D

 43 46  0  0  0  0  0  0  0  0999 V2000
   73.5970   54.4371   15.1164 C   0  0  0  0  0  0  0  0  0  0  0  0
   71.7882   55.9449   15.2428 C   0  0  0  0  0  0  0  0  0  0  0  0
   72.4558   58.9657   18.3906 C   0  0  0  0  0  0  0  0  0  0  0  0
   74.7406   60.5192   18.1149 C   0  0  0  0  0  0  0  0  0  0  0  0
   73.8032   60.8574   20.2383 C   0  0  1  0  0  0  0  0  0  0  0  0
   72.3185   60.8851   20.0674 C   0  0  0  0  0  0  0  0  0  0  0  0
   67.0780   51.4342   13.1249 C   0  0  0  0  0  0  0  0  0  0  0  0
   68.2193   51.1348   13.8263 C   0  0  0  0  0  0  0  0  0  0  0  0
   68.9440   52.1167   14.4600 C   0  0  0  0  0  0  0  0  0  0  0  0
   68.5529   53.4551   14.4180 C   0  0  0  0  0  0  0  0  0  0  0  0
   67.4022   53.7099   13.7036 C   0  0  0  0  0  0  0  0  0  0  0  0
   66.6696   52.7408   13.0667 C   0  0  0  0  0  0  0  0  0  0  0  0
   71.5505   54.0855   13.7498 C   0  0  0  0  0  0  0  0  0  0  0  0
   73.0471   54.1802   13.7157 C   0  0  2  0  0  0  0  0  0  0  0  0
   73.7630   52.9881   13.1840 C   0  0  0  0  0  0  0  0  0  0  0  0
   71.1939   57.2785   15.3622 C   0  0  2  0  0  0  0  0  0  0  0  0
   70.9294   57.8939   16.6588 C   0  0  2  0  0  0  0  0  0  0  0  0
   74.4732   59.7881   19.4161 C   0  0  1  0  0  0  0  0  0  0  0  0
   74.2542   62.1212   19.5684 C   0  0  1  0  0  0  0  0  0  0  0  0
   72.0528   62.3638   19.8138 C   0  0  0  0  0  0  0  0  0  0  0  0
   70.0370   59.0543   16.7963 C   0  0  0  0  0  0  0  0  0  0  0  0
   69.5509   59.2838   18.1708 C   0  0  0  0  0  0  0  0  0  0  0  0
   69.3950   60.5983   18.6292 C   0  0  0  0  0  0  0  0  0  0  0  0
   68.9327   60.9210   19.8641 C   0  0  0  0  0  0  0  0  0  0  0  0
   68.5881   59.9131   20.7418 C   0  0  0  0  0  0  0  0  0  0  0  0
   68.7286   58.6092   20.3246 C   0  0  0  0  0  0  0  0  0  0  0  0
   69.2004   58.3042   19.0650 C   0  0  0  0  0  0  0  0  0  0  0  0
   64.8803   50.8678   12.1420 C   0  0  0  0  0  0  0  0  0  0  0  0
   72.7616   52.2438   12.2867 C   0  0  0  0  0  0  0  0  0  0  0  0
   75.0674   54.7796   14.9841 C   0  0  0  0  0  0  0  0  0  0  0  0
   66.2689   50.3966   12.4260 C   0  0  1  0  0  0  0  0  0  0  0  0
   70.8674   55.1486   14.3915 N   0  0  0  0  0  0  0  0  0  0  0  0
   72.2566   58.3555   17.1532 N   0  0  0  0  0  0  0  0  0  0  0  0
   68.5013   55.8651   15.4632 O   0  0  0  0  0  0  0  0  0  0  0  0
   69.7596   54.1734   16.6119 O   0  0  0  0  0  0  0  0  0  0  0  0
   70.1319   57.4708   14.4731 O   0  0  0  0  0  0  0  0  0  0  0  0
   71.5842   59.7608   18.8217 O   0  0  0  0  0  0  0  0  0  0  0  0
   73.6022   58.6973   19.1352 O   0  0  0  0  0  0  0  0  0  0  0  0
   75.1534   61.7676   18.5794 O   0  0  0  0  0  0  0  0  0  0  0  0
   73.1259   62.6967   18.9897 O   0  0  0  0  0  0  0  0  0  0  0  0
   66.9317   50.1223   11.2180 O   0  0  0  0  0  0  0  0  0  0  0  0
   64.2195   49.8096   11.4805 O   0  0  0  0  0  0  0  0  0  0  0  0
   69.4593   54.7128   15.2301 S   0  0  1  0  0  6  0  0  0  0  0  0
 14  1  1  1
  1 30  1  0
  2 16  1  0
 32  2  1  0
 33  3  1  0
  3 37  2  0
  3 38  1  0
 18  4  1  0
  4 39  1  0
  5  6  1  6
 18  5  1  0
  5 19  1  0
  6 20  1  0
  8  7  2  0
 12  7  1  0
  7 31  1  0
  9  8  1  0
 10  9  2  0
 10 11  1  0
 43 10  1  0
 11 12  2  0
 13 14  1  0
 32 13  1  0
 14 15  1  0
 15 29  1  0
 16 17  1  0
 16 36  1  1
 17 21  1  6
 17 33  1  0
 18 38  1  6
 19 39  1  6
 19 40  1  0
 40 20  1  0
 21 22  1  0
 22 23  2  0
 22 27  1  0
 23 24  1  0
 24 25  2  0
 26 25  1  0
 27 26  2  0
 31 28  1  0
 28 42  1  0
 31 41  1  6
 43 32  1  6
 43 34  2  0
 43 35  2  0
M  END
$$$$
