
     RDKit          3D

 43 46  0  0  0  0  0  0  0  0999 V2000
   72.7601   53.5683   13.9421 C   0  0  0  0  0  0  0  0  0  0  0  0
   69.7103   56.7298   15.0102 C   0  0  0  0  0  0  0  0  0  0  0  0
   73.1546   58.5398   17.9165 C   0  0  0  0  0  0  0  0  0  0  0  0
   75.8017   60.8592   18.5312 C   0  0  0  0  0  0  0  0  0  0  0  0
   73.8813   60.3767   19.7887 C   0  0  1  0  0  0  0  0  0  0  0  0
   72.6994   60.7423   18.9497 C   0  0  0  0  0  0  0  0  0  0  0  0
   67.0334   51.2928   13.5682 C   0  0  0  0  0  0  0  0  0  0  0  0
   68.2950   50.9646   13.9983 C   0  0  0  0  0  0  0  0  0  0  0  0
   69.0589   51.8576   14.7124 C   0  0  0  0  0  0  0  0  0  0  0  0
   68.5873   53.1315   15.0298 C   0  0  0  0  0  0  0  0  0  0  0  0
   67.3169   53.4182   14.5788 C   0  0  0  0  0  0  0  0  0  0  0  0
   66.5441   52.5376   13.8657 C   0  0  0  0  0  0  0  0  0  0  0  0
   71.7521   55.4846   15.1633 C   0  0  0  0  0  0  0  0  0  0  0  0
   72.4917   54.1880   15.3112 C   0  0  2  0  0  0  0  0  0  0  0  0
   73.8016   54.2621   16.0147 C   0  0  0  0  0  0  0  0  0  0  0  0
   70.7889   57.7001   15.2131 C   0  0  2  0  0  0  0  0  0  0  0  0
   71.0436   58.3125   16.5130 C   0  0  2  0  0  0  0  0  0  0  0  0
   74.9688   59.6856   19.0090 C   0  0  1  0  0  0  0  0  0  0  0  0
   74.5000   61.7034   20.1151 C   0  0  1  0  0  0  0  0  0  0  0  0
   72.4739   62.1998   19.3320 C   0  0  0  0  0  0  0  0  0  0  0  0
   70.7855   59.7388   16.7597 C   0  0  0  0  0  0  0  0  0  0  0  0
   70.1607   60.0231   18.0663 C   0  0  0  0  0  0  0  0  0  0  0  0
   69.6835   58.9580   18.8408 C   0  0  0  0  0  0  0  0  0  0  0  0
   69.1154   59.1054   20.0649 C   0  0  0  0  0  0  0  0  0  0  0  0
   68.9874   60.3699   20.6032 C   0  0  0  0  0  0  0  0  0  0  0  0
   69.4457   61.4401   19.8692 C   0  0  0  0  0  0  0  0  0  0  0  0
   70.0197   61.2671   18.6273 C   0  0  0  0  0  0  0  0  0  0  0  0
   65.8791   50.8667   11.4228 C   0  0  0  0  0  0  0  0  0  0  0  0
   74.6776   55.2285   15.2021 C   0  0  0  0  0  0  0  0  0  0  0  0
   73.4139   52.2188   14.1617 C   0  0  0  0  0  0  0  0  0  0  0  0
   66.1787   50.3511   12.7923 C   0  0  1  0  0  0  0  0  0  0  0  0
   70.3524   55.3910   14.9617 N   0  0  0  0  0  0  0  0  0  0  0  0
   72.5015   58.1270   16.7563 N   0  0  0  0  0  0  0  0  0  0  0  0
   68.6153   54.9092   16.9644 O   0  0  0  0  0  0  0  0  0  0  0  0
   70.5019   53.4370   16.7695 O   0  0  0  0  0  0  0  0  0  0  0  0
   70.8661   58.6363   14.1773 O   0  0  0  0  0  0  0  0  0  0  0  0
   72.5413   58.4804   19.0112 O   0  0  0  0  0  0  0  0  0  0  0  0
   74.4650   59.0095   17.8617 O   0  0  0  0  0  0  0  0  0  0  0  0
   75.8064   61.6735   19.6632 O   0  0  0  0  0  0  0  0  0  0  0  0
   73.7840   62.6676   19.4103 O   0  0  0  0  0  0  0  0  0  0  0  0
   66.8973   49.1475   12.6978 O   0  0  0  0  0  0  0  0  0  0  0  0
   65.1827   49.8416   10.7461 O   0  0  0  0  0  0  0  0  0  0  0  0
   69.5443   54.2733   15.9483 S   0  0  1  0  0  6  0  0  0  0  0  0
 14  1  1  6
  1 30  1  0
  2 16  1  0
 32  2  1  0
 33  3  1  0
  3 37  2  0
  3 38  1  0
 18  4  1  0
  4 39  1  0
  5  6  1  6
 18  5  1  0
  5 19  1  0
  6 20  1  0
  8  7  2  0
 12  7  1  0
  7 31  1  0
  9  8  1  0
 10  9  2  0
 10 11  1  0
 43 10  1  0
 11 12  2  0
 13 14  1  0
 32 13  1  0
 14 15  1  0
 15 29  1  0
 16 17  1  0
 16 36  1  6
 17 21  1  6
 17 33  1  0
 18 38  1  6
 19 39  1  6
 19 40  1  0
 40 20  1  0
 21 22  1  0
 22 23  2  0
 22 27  1  0
 23 24  1  0
 24 25  2  0
 26 25  1  0
 27 26  2  0
 31 28  1  0
 28 42  1  0
 31 41  1  6
 43 32  1  6
 43 34  2  0
 43 35  2  0
M  END
$$$$
