
     RDKit          3D

 43 46  0  0  0  0  0  0  0  0999 V2000
   73.4788   53.8699   15.0861 C   0  0  0  0  0  0  0  0  0  0  0  0
   71.5476   55.4071   15.8406 C   0  0  0  0  0  0  0  0  0  0  0  0
   73.2958   59.1457   17.8085 C   0  0  0  0  0  0  0  0  0  0  0  0
   75.5434   61.4900   18.3898 C   0  0  0  0  0  0  0  0  0  0  0  0
   73.9197   60.6790   19.8756 C   0  0  1  0  0  0  0  0  0  0  0  0
   72.6175   60.6615   19.1418 C   0  0  0  0  0  0  0  0  0  0  0  0
   66.7386   51.2813   13.2502 C   0  0  0  0  0  0  0  0  0  0  0  0
   66.6125   52.6375   13.0801 C   0  0  0  0  0  0  0  0  0  0  0  0
   67.3505   53.5213   13.8319 C   0  0  0  0  0  0  0  0  0  0  0  0
   68.2561   53.0803   14.7970 C   0  0  0  0  0  0  0  0  0  0  0  0
   68.3507   51.7121   14.9338 C   0  0  0  0  0  0  0  0  0  0  0  0
   67.6210   50.8192   14.1911 C   0  0  0  0  0  0  0  0  0  0  0  0
   71.2099   53.8263   14.0714 C   0  0  0  0  0  0  0  0  0  0  0  0
   72.6688   54.0512   13.8050 C   0  0  2  0  0  0  0  0  0  0  0  0
   73.2864   53.1695   12.7766 C   0  0  0  0  0  0  0  0  0  0  0  0
   71.4653   56.8485   15.5926 C   0  0  2  0  0  0  0  0  0  0  0  0
   71.4385   57.8201   16.6812 C   0  0  2  0  0  0  0  0  0  0  0  0
   75.0767   60.2012   19.0382 C   0  0  1  0  0  0  0  0  0  0  0  0
   74.2090   62.1418   20.0360 C   0  0  1  0  0  0  0  0  0  0  0  0
   72.0646   62.0502   19.4373 C   0  0  0  0  0  0  0  0  0  0  0  0
   70.5544   58.9945   16.6479 C   0  0  0  0  0  0  0  0  0  0  0  0
   69.7607   59.1889   17.8769 C   0  0  0  0  0  0  0  0  0  0  0  0
   70.3186   58.8366   19.1125 C   0  0  0  0  0  0  0  0  0  0  0  0
   69.6865   58.9965   20.3032 C   0  0  0  0  0  0  0  0  0  0  0  0
   68.4164   59.5362   20.3274 C   0  0  0  0  0  0  0  0  0  0  0  0
   67.8373   59.8938   19.1312 C   0  0  0  0  0  0  0  0  0  0  0  0
   68.4981   59.7225   17.9329 C   0  0  0  0  0  0  0  0  0  0  0  0
   66.1083   48.9052   12.9787 C   0  0  0  0  0  0  0  0  0  0  0  0
   72.8690   51.7329   13.1280 C   0  0  0  0  0  0  0  0  0  0  0  0
   74.9226   54.2115   14.7768 C   0  0  0  0  0  0  0  0  0  0  0  0
   65.9550   50.2953   12.4543 C   0  0  1  0  0  0  0  0  0  0  0  0
   70.5734   54.7656   14.9207 N   0  0  0  0  0  0  0  0  0  0  0  0
   72.8215   58.3688   16.7528 N   0  0  0  0  0  0  0  0  0  0  0  0
   68.2714   55.2893   16.2194 O   0  0  0  0  0  0  0  0  0  0  0  0
   69.5818   53.4394   17.0103 O   0  0  0  0  0  0  0  0  0  0  0  0
   70.5391   57.1660   14.5942 O   0  0  0  0  0  0  0  0  0  0  0  0
   72.4677   59.6906   18.5799 O   0  0  0  0  0  0  0  0  0  0  0  0
   74.6650   59.3139   18.0036 O   0  0  0  0  0  0  0  0  0  0  0  0
   75.4379   62.3875   19.4518 O   0  0  0  0  0  0  0  0  0  0  0  0
   73.2163   62.8287   19.3418 O   0  0  0  0  0  0  0  0  0  0  0  0
   64.6096   50.6897   12.5458 O   0  0  0  0  0  0  0  0  0  0  0  0
   65.2617   48.0829   12.2035 O   0  0  0  0  0  0  0  0  0  0  0  0
   69.2104   54.1940   15.7520 S   0  0  1  0  0  6  0  0  0  0  0  0
 14  1  1  1
  1 30  1  0
  2 16  1  0
 32  2  1  0
 33  3  1  0
  3 37  2  0
  3 38  1  0
 18  4  1  0
  4 39  1  0
  5  6  1  6
 18  5  1  0
  5 19  1  0
  6 20  1  0
  8  7  2  0
 12  7  1  0
  7 31  1  0
  9  8  1  0
 10  9  2  0
 10 11  1  0
 43 10  1  0
 11 12  2  0
 13 14  1  0
 32 13  1  0
 14 15  1  0
 15 29  1  0
 16 17  1  0
 16 36  1  1
 17 21  1  6
 17 33  1  0
 18 38  1  6
 19 39  1  6
 19 40  1  0
 40 20  1  0
 21 22  1  0
 22 23  2  0
 22 27  1  0
 23 24  1  0
 24 25  2  0
 26 25  1  0
 27 26  2  0
 31 28  1  0
 28 42  1  0
 31 41  1  1
 43 32  1  6
 43 34  2  0
 43 35  2  0
M  END
$$$$
