
     RDKit          3D

 43 46  0  0  0  0  0  0  0  0999 V2000
   73.8853   54.4193   15.7215 C   0  0  0  0  0  0  0  0  0  0  0  0
   70.8906   56.4342   15.3942 C   0  0  0  0  0  0  0  0  0  0  0  0
   73.0235   58.9927   18.1593 C   0  0  0  0  0  0  0  0  0  0  0  0
   74.4364   61.5156   18.1064 C   0  0  0  0  0  0  0  0  0  0  0  0
   74.3580   60.4763   20.2077 C   0  0  1  0  0  0  0  0  0  0  0  0
   72.9954   59.8799   20.3560 C   0  0  0  0  0  0  0  0  0  0  0  0
   67.1354   51.1288   13.2109 C   0  0  0  0  0  0  0  0  0  0  0  0
   67.6625   50.9649   14.4677 C   0  0  0  0  0  0  0  0  0  0  0  0
   68.2118   52.0228   15.1532 C   0  0  0  0  0  0  0  0  0  0  0  0
   68.2575   53.3043   14.6038 C   0  0  0  0  0  0  0  0  0  0  0  0
   67.7172   53.4231   13.3415 C   0  0  0  0  0  0  0  0  0  0  0  0
   67.1663   52.3769   12.6463 C   0  0  0  0  0  0  0  0  0  0  0  0
   71.4988   54.1369   15.0856 C   0  0  0  0  0  0  0  0  0  0  0  0
   72.8647   54.5090   14.5898 C   0  0  2  0  0  0  0  0  0  0  0  0
   73.3951   53.6897   13.4656 C   0  0  0  0  0  0  0  0  0  0  0  0
   70.7978   56.3761   16.8550 C   0  0  2  0  0  0  0  0  0  0  0  0
   70.9724   57.5611   17.6887 C   0  0  2  0  0  0  0  0  0  0  0  0
   74.9411   60.2838   18.8325 C   0  0  1  0  0  0  0  0  0  0  0  0
   74.0986   61.9527   20.2537 C   0  0  1  0  0  0  0  0  0  0  0  0
   72.2133   61.0223   20.9922 C   0  0  0  0  0  0  0  0  0  0  0  0
   70.3747   58.8552   17.3279 C   0  0  0  0  0  0  0  0  0  0  0  0
   69.7914   59.5904   18.4671 C   0  0  0  0  0  0  0  0  0  0  0  0
   68.5986   59.1290   19.0384 C   0  0  0  0  0  0  0  0  0  0  0  0
   67.9912   59.7142   20.1021 C   0  0  0  0  0  0  0  0  0  0  0  0
   68.5613   60.8329   20.6751 C   0  0  0  0  0  0  0  0  0  0  0  0
   69.7341   61.3139   20.1391 C   0  0  0  0  0  0  0  0  0  0  0  0
   70.3340   60.7033   19.0578 C   0  0  0  0  0  0  0  0  0  0  0  0
   66.2557   48.8193   13.3033 C   0  0  0  0  0  0  0  0  0  0  0  0
   72.5830   54.0814   12.2211 C   0  0  0  0  0  0  0  0  0  0  0  0
   75.2540   54.7088   15.1386 C   0  0  0  0  0  0  0  0  0  0  0  0
   66.5333   50.0056   12.4393 C   0  0  1  0  0  0  0  0  0  0  0  0
   70.4760   55.0987   14.8928 N   0  0  0  0  0  0  0  0  0  0  0  0
   72.4420   57.8019   17.7272 N   0  0  0  0  0  0  0  0  0  0  0  0
   67.9217   55.7817   15.4120 O   0  0  0  0  0  0  0  0  0  0  0  0
   68.9762   54.2439   16.9246 O   0  0  0  0  0  0  0  0  0  0  0  0
   71.4624   55.2673   17.3881 O   0  0  0  0  0  0  0  0  0  0  0  0
   72.2769   59.9309   18.5338 O   0  0  0  0  0  0  0  0  0  0  0  0
   74.4088   59.1385   18.1752 O   0  0  0  0  0  0  0  0  0  0  0  0
   74.5959   62.4972   19.0840 O   0  0  0  0  0  0  0  0  0  0  0  0
   72.7166   62.1191   20.2955 O   0  0  0  0  0  0  0  0  0  0  0  0
   65.3293   50.4920   11.9027 O   0  0  0  0  0  0  0  0  0  0  0  0
   65.5944   47.8715   12.4919 O   0  0  0  0  0  0  0  0  0  0  0  0
   68.9426   54.6618   15.4704 S   0  0  1  0  0  6  0  0  0  0  0  0
 14  1  1  1
  1 30  1  0
  2 16  1  0
 32  2  1  0
 33  3  1  0
  3 37  2  0
  3 38  1  0
 18  4  1  0
  4 39  1  0
  5  6  1  6
 18  5  1  0
  5 19  1  0
  6 20  1  0
  8  7  2  0
 12  7  1  0
  7 31  1  0
  9  8  1  0
 10  9  2  0
 10 11  1  0
 43 10  1  0
 11 12  2  0
 13 14  1  0
 32 13  1  0
 14 15  1  0
 15 29  1  0
 16 17  1  0
 16 36  1  1
 17 21  1  6
 17 33  1  0
 18 38  1  6
 19 39  1  6
 19 40  1  0
 40 20  1  0
 21 22  1  0
 22 23  2  0
 22 27  1  0
 23 24  1  0
 24 25  2  0
 26 25  1  0
 27 26  2  0
 31 28  1  0
 28 42  1  0
 31 41  1  1
 43 32  1  6
 43 34  2  0
 43 35  2  0
M  END
$$$$
