
     RDKit          3D

 43 46  0  0  0  0  0  0  0  0999 V2000
   73.1340   53.8599   14.9755 C   0  0  0  0  0  0  0  0  0  0  0  0
   71.8746   56.1425   14.7804 C   0  0  0  0  0  0  0  0  0  0  0  0
   72.7909   58.4697   18.1578 C   0  0  0  0  0  0  0  0  0  0  0  0
   75.3745   60.9946   18.8935 C   0  0  0  0  0  0  0  0  0  0  0  0
   73.6654   60.3708   20.3740 C   0  0  1  0  0  0  0  0  0  0  0  0
   72.4209   61.0723   19.9341 C   0  0  0  0  0  0  0  0  0  0  0  0
   66.9628   51.5865   13.2071 C   0  0  0  0  0  0  0  0  0  0  0  0
   67.7757   51.1485   14.2228 C   0  0  0  0  0  0  0  0  0  0  0  0
   68.6749   51.9932   14.8300 C   0  0  0  0  0  0  0  0  0  0  0  0
   68.8004   53.3273   14.4420 C   0  0  0  0  0  0  0  0  0  0  0  0
   67.9654   53.7240   13.4198 C   0  0  0  0  0  0  0  0  0  0  0  0
   67.0641   52.8925   12.8052 C   0  0  0  0  0  0  0  0  0  0  0  0
   71.5586   54.4263   13.1379 C   0  0  0  0  0  0  0  0  0  0  0  0
   72.9569   53.9931   13.4651 C   0  0  2  0  0  0  0  0  0  0  0  0
   73.3965   52.7037   12.8645 C   0  0  0  0  0  0  0  0  0  0  0  0
   71.1554   57.3900   15.0500 C   0  0  2  0  0  0  0  0  0  0  0  0
   71.0315   57.9351   16.3981 C   0  0  2  0  0  0  0  0  0  0  0  0
   74.4720   59.8224   19.2264 C   0  0  1  0  0  0  0  0  0  0  0  0
   74.5306   61.4845   20.8844 C   0  0  1  0  0  0  0  0  0  0  0  0
   72.4968   62.3788   20.7145 C   0  0  0  0  0  0  0  0  0  0  0  0
   70.6327   59.3305   16.6342 C   0  0  0  0  0  0  0  0  0  0  0  0
   69.8878   59.5422   17.8906 C   0  0  0  0  0  0  0  0  0  0  0  0
   69.5634   58.4360   18.6864 C   0  0  0  0  0  0  0  0  0  0  0  0
   68.9039   58.5205   19.8699 C   0  0  0  0  0  0  0  0  0  0  0  0
   68.5174   59.7587   20.3417 C   0  0  0  0  0  0  0  0  0  0  0  0
   68.8197   60.8678   19.5852 C   0  0  0  0  0  0  0  0  0  0  0  0
   69.4909   60.7586   18.3854 C   0  0  0  0  0  0  0  0  0  0  0  0
   66.4708   49.2932   12.4229 C   0  0  0  0  0  0  0  0  0  0  0  0
   72.1352   51.8371   12.7238 C   0  0  0  0  0  0  0  0  0  0  0  0
   74.6041   54.0507   15.2908 C   0  0  0  0  0  0  0  0  0  0  0  0
   65.9782   50.6994   12.5266 C   0  0  1  0  0  0  0  0  0  0  0  0
   70.9104   55.2396   14.1007 N   0  0  0  0  0  0  0  0  0  0  0  0
   72.3872   57.8043   17.0014 N   0  0  0  0  0  0  0  0  0  0  0  0
   69.1206   55.3295   16.1130 O   0  0  0  0  0  0  0  0  0  0  0  0
   70.7416   53.5589   16.1636 O   0  0  0  0  0  0  0  0  0  0  0  0
   69.9499   57.4736   14.3465 O   0  0  0  0  0  0  0  0  0  0  0  0
   72.3497   58.0792   19.2672 O   0  0  0  0  0  0  0  0  0  0  0  0
   73.6686   59.5490   18.0831 O   0  0  0  0  0  0  0  0  0  0  0  0
   75.7118   61.4536   20.1663 O   0  0  0  0  0  0  0  0  0  0  0  0
   73.8554   62.6738   20.6218 O   0  0  0  0  0  0  0  0  0  0  0  0
   64.8080   50.7346   13.3033 O   0  0  0  0  0  0  0  0  0  0  0  0
   65.5343   48.4835   13.1020 O   0  0  0  0  0  0  0  0  0  0  0  0
   69.9321   54.4161   15.2146 S   0  0  1  0  0  6  0  0  0  0  0  0
 14  1  1  1
  1 30  1  0
  2 16  1  0
 32  2  1  0
 33  3  1  0
  3 37  2  0
  3 38  1  0
 18  4  1  0
  4 39  1  0
  5  6  1  6
 18  5  1  0
  5 19  1  0
  6 20  1  0
  8  7  2  0
 12  7  1  0
  7 31  1  0
  9  8  1  0
 10  9  2  0
 10 11  1  0
 43 10  1  0
 11 12  2  0
 13 14  1  0
 32 13  1  0
 14 15  1  0
 15 29  1  0
 16 17  1  0
 16 36  1  1
 17 21  1  6
 17 33  1  0
 18 38  1  6
 19 39  1  6
 19 40  1  0
 40 20  1  0
 21 22  1  0
 22 23  2  0
 22 27  1  0
 23 24  1  0
 24 25  2  0
 26 25  1  0
 27 26  2  0
 31 28  1  0
 28 42  1  0
 31 41  1  1
 43 32  1  6
 43 34  2  0
 43 35  2  0
M  END
$$$$
