
     RDKit          3D

 43 46  0  0  0  0  0  0  0  0999 V2000
   74.8967   54.9795   14.5587 C   0  0  0  0  0  0  0  0  0  0  0  0
   71.0866   56.0541   14.3555 C   0  0  0  0  0  0  0  0  0  0  0  0
   72.7778   58.7346   18.0939 C   0  0  0  0  0  0  0  0  0  0  0  0
   75.1513   61.0437   19.2738 C   0  0  0  0  0  0  0  0  0  0  0  0
   73.1649   60.2721   20.2538 C   0  0  1  0  0  0  0  0  0  0  0  0
   72.0502   60.6029   19.3144 C   0  0  0  0  0  0  0  0  0  0  0  0
   67.1357   52.4489   14.6108 C   0  0  0  0  0  0  0  0  0  0  0  0
   67.9808   51.5705   13.9797 C   0  0  0  0  0  0  0  0  0  0  0  0
   69.1820   51.9886   13.4571 C   0  0  0  0  0  0  0  0  0  0  0  0
   69.5931   53.3187   13.5448 C   0  0  0  0  0  0  0  0  0  0  0  0
   68.7147   54.1652   14.1862 C   0  0  0  0  0  0  0  0  0  0  0  0
   67.5137   53.7620   14.7120 C   0  0  0  0  0  0  0  0  0  0  0  0
   72.5592   54.3014   15.0642 C   0  0  0  0  0  0  0  0  0  0  0  0
   73.9633   53.8118   14.8680 C   0  0  2  0  0  0  0  0  0  0  0  0
   74.5619   53.0739   16.0141 C   0  0  0  0  0  0  0  0  0  0  0  0
   71.8810   56.8526   15.2922 C   0  0  2  0  0  0  0  0  0  0  0  0
   71.2696   57.5806   16.3994 C   0  0  2  0  0  0  0  0  0  0  0  0
   74.3956   59.7592   19.5536 C   0  0  1  0  0  0  0  0  0  0  0  0
   73.6056   61.6143   20.7573 C   0  0  1  0  0  0  0  0  0  0  0  0
   71.6366   61.9919   19.7847 C   0  0  0  0  0  0  0  0  0  0  0  0
   70.0074   58.3172   16.2373 C   0  0  0  0  0  0  0  0  0  0  0  0
   69.3200   58.6257   17.5064 C   0  0  0  0  0  0  0  0  0  0  0  0
   69.0937   59.9641   17.8522 C   0  0  0  0  0  0  0  0  0  0  0  0
   68.4506   60.3573   18.9812 C   0  0  0  0  0  0  0  0  0  0  0  0
   67.9808   59.4017   19.8594 C   0  0  0  0  0  0  0  0  0  0  0  0
   68.1858   58.0762   19.5512 C   0  0  0  0  0  0  0  0  0  0  0  0
   68.8419   57.6993   18.3982 C   0  0  0  0  0  0  0  0  0  0  0  0
   65.8207   52.1169   16.6790 C   0  0  0  0  0  0  0  0  0  0  0  0
   73.5481   51.9889   16.4099 C   0  0  0  0  0  0  0  0  0  0  0  0
   76.2778   54.6197   15.0684 C   0  0  0  0  0  0  0  0  0  0  0  0
   65.8272   52.0312   15.1878 C   0  0  1  0  0  0  0  0  0  0  0  0
   71.9437   54.9128   13.9436 N   0  0  0  0  0  0  0  0  0  0  0  0
   72.2752   58.6039   16.8003 N   0  0  0  0  0  0  0  0  0  0  0  0
   71.9136   52.6187   12.5306 O   0  0  0  0  0  0  0  0  0  0  0  0
   70.7979   54.5150   11.5692 O   0  0  0  0  0  0  0  0  0  0  0  0
   72.8561   57.6190   14.6462 O   0  0  0  0  0  0  0  0  0  0  0  0
   72.0260   58.4730   19.0656 O   0  0  0  0  0  0  0  0  0  0  0  0
   74.0914   59.1483   18.3040 O   0  0  0  0  0  0  0  0  0  0  0  0
   74.9496   61.7469   20.4609 O   0  0  0  0  0  0  0  0  0  0  0  0
   72.8758   62.5693   20.0539 O   0  0  0  0  0  0  0  0  0  0  0  0
   64.8624   52.9052   14.6596 O   0  0  0  0  0  0  0  0  0  0  0  0
   64.5459   51.6844   17.1053 O   0  0  0  0  0  0  0  0  0  0  0  0
   71.1247   53.8617   12.8947 S   0  0  1  0  0  6  0  0  0  0  0  0
 14  1  1  1
  1 30  1  0
  2 16  1  0
 32  2  1  0
 33  3  1  0
  3 37  2  0
  3 38  1  0
 18  4  1  0
  4 39  1  0
  5  6  1  6
 18  5  1  0
  5 19  1  0
  6 20  1  0
  8  7  2  0
 12  7  1  0
  7 31  1  0
  9  8  1  0
 10  9  2  0
 10 11  1  0
 43 10  1  0
 11 12  2  0
 13 14  1  0
 32 13  1  0
 14 15  1  0
 15 29  1  0
 16 17  1  0
 16 36  1  6
 17 21  1  6
 17 33  1  0
 18 38  1  6
 19 39  1  6
 19 40  1  0
 40 20  1  0
 21 22  1  0
 22 23  2  0
 22 27  1  0
 23 24  1  0
 24 25  2  0
 26 25  1  0
 27 26  2  0
 31 28  1  0
 28 42  1  0
 31 41  1  6
 43 32  1  1
 43 34  2  0
 43 35  2  0
M  END
$$$$
