
     RDKit          3D

 31 34  0  0  0  0  0  0  0  0999 V2000
  -14.7290    9.3444    0.1968 C   0  0  0  0  0  0  0  0  0  0  0  0
  -13.9225    8.2534    0.4340 C   0  0  0  0  0  0  0  0  0  0  0  0
  -12.8036    8.3305    1.2566 C   0  0  0  0  0  0  0  0  0  0  0  0
  -13.2811   10.6247    1.6274 C   0  0  0  0  0  0  0  0  0  0  0  0
  -19.8186    8.0327   -2.7038 C   0  0  1  0  0  0  0  0  0  0  0  0
  -26.2064   11.4171    1.0236 C   0  0  0  0  0  0  0  0  0  0  0  0
  -24.8557   10.9682    0.5960 C   0  0  0  0  0  0  0  0  0  0  0  0
  -24.0234   11.8476   -0.0499 C   0  0  0  0  0  0  0  0  0  0  0  0
  -22.7718   11.4507   -0.4531 C   0  0  0  0  0  0  0  0  0  0  0  0
  -24.4027    9.6820    0.8278 C   0  0  0  0  0  0  0  0  0  0  0  0
  -23.1319    9.2817    0.4175 C   0  0  0  0  0  0  0  0  0  0  0  0
  -22.3014   10.1629   -0.2283 C   0  0  0  0  0  0  0  0  0  0  0  0
  -20.6240    8.0103   -1.4635 C   0  0  1  0  0  0  0  0  0  0  0  0
  -19.4435    6.1441   -0.6290 C   0  0  2  0  0  0  0  0  0  0  0  0
  -18.6066    6.0176    0.6588 C   0  0  0  0  0  0  0  0  0  0  0  0
  -18.5854    6.1305   -1.8442 C   0  0  1  0  0  0  0  0  0  0  0  0
  -18.4441    7.4596   -2.5233 C   0  0  2  0  0  0  0  0  0  0  0  0
  -16.4939    8.0712   -1.1007 C   0  0  0  0  0  0  0  0  0  0  0  0
  -15.9006    9.2575   -0.6622 C   0  0  0  0  0  0  0  0  0  0  0  0
  -12.4808    9.5278    1.8584 C   0  0  0  0  0  0  0  0  0  0  0  0
  -14.4048   10.5372    0.7980 C   0  0  0  0  0  0  0  0  0  0  0  0
  -12.9202   11.9049    2.2854 C   0  0  0  0  0  0  0  0  0  0  0  0
  -11.3719    9.5866    2.6685 F   0  0  0  0  0  0  0  0  0  0  0  0
  -17.5507    8.3559   -1.8698 N   0  0  0  0  0  0  0  0  0  0  0  0
  -16.6593   10.2166   -1.2110 N   0  0  0  0  0  0  0  0  0  0  0  0
  -17.6341    9.6733   -1.9242 N   0  0  0  0  0  0  0  0  0  0  0  0
  -20.4065    7.0762   -0.5338 O   0  0  0  0  0  0  0  0  0  0  0  0
  -19.2895    5.4072    1.6757 O   0  0  0  0  0  0  0  0  0  0  0  0
  -17.3373    5.5830   -1.5000 O   0  0  0  0  0  0  0  0  0  0  0  0
  -20.4466    7.3866   -3.7779 O   0  0  0  0  0  0  0  0  0  0  0  0
  -20.6765    9.7111   -0.7807 S   0  0  0  0  0  0  0  0  0  0  0  0
  1  2  2  0
 19  1  1  0
  1 21  1  0
  2  3  1  0
  3 20  2  0
  4 20  1  0
 21  4  2  0
  4 22  1  0
  5 13  1  0
 17  5  1  0
  5 30  1  6
  7  6  1  0
  8  7  2  0
 10  7  1  0
  9  8  1  0
 12  9  2  0
 11 10  2  0
 12 11  1  0
 31 12  1  0
 13 27  1  0
 13 31  1  1
 14 15  1  1
 16 14  1  0
 14 27  1  0
 15 28  1  0
 17 16  1  0
 16 29  1  1
 17 24  1  1
 18 19  2  0
 18 24  1  0
 19 25  1  0
 20 23  1  0
 24 26  1  0
 25 26  2  0
M  END
$$$$
