
     RDKit          3D

 31 34  0  0  0  0  0  0  0  0999 V2000
  -14.1911    9.2413   -0.0036 C   0  0  0  0  0  0  0  0  0  0  0  0
  -13.2001    9.4968   -0.9252 C   0  0  0  0  0  0  0  0  0  0  0  0
  -11.9020    9.8153   -0.5405 C   0  0  0  0  0  0  0  0  0  0  0  0
  -12.5685    9.6270    1.7286 C   0  0  0  0  0  0  0  0  0  0  0  0
  -19.2200    7.9898   -2.9653 C   0  0  1  0  0  0  0  0  0  0  0  0
  -26.1198   11.4319   -0.5039 C   0  0  0  0  0  0  0  0  0  0  0  0
  -24.7016   11.0090   -0.6403 C   0  0  0  0  0  0  0  0  0  0  0  0
  -24.3814    9.9782   -1.4878 C   0  0  0  0  0  0  0  0  0  0  0  0
  -23.0763    9.5730   -1.6266 C   0  0  0  0  0  0  0  0  0  0  0  0
  -23.6820   11.6232    0.0642 C   0  0  0  0  0  0  0  0  0  0  0  0
  -22.3583   11.2100   -0.0783 C   0  0  0  0  0  0  0  0  0  0  0  0
  -22.0405   10.1790   -0.9265 C   0  0  0  0  0  0  0  0  0  0  0  0
  -20.3112    7.9655   -1.9672 C   0  0  1  0  0  0  0  0  0  0  0  0
  -19.5588    5.9164   -1.0682 C   0  0  2  0  0  0  0  0  0  0  0  0
  -19.0901    5.5951    0.3642 C   0  0  0  0  0  0  0  0  0  0  0  0
  -18.4266    5.8971   -2.0331 C   0  0  1  0  0  0  0  0  0  0  0  0
  -17.9952    7.2491   -2.5163 C   0  0  2  0  0  0  0  0  0  0  0  0
  -15.8855    8.0806   -1.4874 C   0  0  0  0  0  0  0  0  0  0  0  0
  -15.5471    8.9051   -0.4115 C   0  0  0  0  0  0  0  0  0  0  0  0
  -11.5843    9.8807    0.7992 C   0  0  0  0  0  0  0  0  0  0  0  0
  -13.8719    9.3073    1.3317 C   0  0  0  0  0  0  0  0  0  0  0  0
  -12.2083    9.6993    3.1664 C   0  0  0  0  0  0  0  0  0  0  0  0
  -10.2968   10.1967    1.1622 F   0  0  0  0  0  0  0  0  0  0  0  0
  -17.2166    7.9829   -1.5761 N   0  0  0  0  0  0  0  0  0  0  0  0
  -16.7323    9.2665    0.0997 N   0  0  0  0  0  0  0  0  0  0  0  0
  -17.7152    8.7155   -0.5963 N   0  0  0  0  0  0  0  0  0  0  0  0
  -20.4236    6.9437   -1.1142 O   0  0  0  0  0  0  0  0  0  0  0  0
  -20.1083    5.1611    1.1691 O   0  0  0  0  0  0  0  0  0  0  0  0
  -17.3626    5.1837   -1.4543 O   0  0  0  0  0  0  0  0  0  0  0  0
  -19.6135    7.5054   -4.2207 O   0  0  0  0  0  0  0  0  0  0  0  0
  -20.3761    9.6033   -1.1455 S   0  0  0  0  0  0  0  0  0  0  0  0
  1  2  2  0
 19  1  1  0
  1 21  1  0
  2  3  1  0
  3 20  2  0
  4 20  1  0
 21  4  2  0
  4 22  1  0
  5 13  1  0
 17  5  1  0
  5 30  1  6
  7  6  1  0
  8  7  2  0
 10  7  1  0
  9  8  1  0
 12  9  2  0
 11 10  2  0
 12 11  1  0
 31 12  1  0
 13 27  1  0
 13 31  1  1
 14 15  1  1
 16 14  1  0
 14 27  1  0
 15 28  1  0
 17 16  1  0
 16 29  1  1
 17 24  1  1
 18 19  2  0
 18 24  1  0
 19 25  1  0
 20 23  1  0
 24 26  1  0
 25 26  2  0
M  END
$$$$
