
     RDKit          3D

 31 34  0  0  0  0  0  0  0  0999 V2000
  -14.2789    9.1572   -0.0978 C   0  0  0  0  0  0  0  0  0  0  0  0
  -13.6263   10.2595   -0.6035 C   0  0  0  0  0  0  0  0  0  0  0  0
  -12.3468   10.6121   -0.1874 C   0  0  0  0  0  0  0  0  0  0  0  0
  -12.3458    8.7403    1.2703 C   0  0  0  0  0  0  0  0  0  0  0  0
  -19.1214    6.9282   -2.8097 C   0  0  1  0  0  0  0  0  0  0  0  0
  -25.1804   11.9139   -4.6699 C   0  0  0  0  0  0  0  0  0  0  0  0
  -23.9389   11.2800   -4.1545 C   0  0  0  0  0  0  0  0  0  0  0  0
  -23.5485   11.5114   -2.8593 C   0  0  0  0  0  0  0  0  0  0  0  0
  -22.4039   10.9347   -2.3654 C   0  0  0  0  0  0  0  0  0  0  0  0
  -23.1543   10.4567   -4.9417 C   0  0  0  0  0  0  0  0  0  0  0  0
  -21.9930    9.8726   -4.4380 C   0  0  0  0  0  0  0  0  0  0  0  0
  -21.6046   10.1055   -3.1426 C   0  0  0  0  0  0  0  0  0  0  0  0
  -20.2904    7.5883   -2.1889 C   0  0  1  0  0  0  0  0  0  0  0  0
  -20.0167    6.3762   -0.1817 C   0  0  2  0  0  0  0  0  0  0  0  0
  -19.7561    6.8995    1.2441 C   0  0  0  0  0  0  0  0  0  0  0  0
  -18.8188    5.6961   -0.7437 C   0  0  1  0  0  0  0  0  0  0  0  0
  -18.1024    6.4720   -1.8078 C   0  0  2  0  0  0  0  0  0  0  0  0
  -15.9995    7.5246   -0.9888 C   0  0  0  0  0  0  0  0  0  0  0  0
  -15.6164    8.7907   -0.5391 C   0  0  0  0  0  0  0  0  0  0  0  0
  -11.7014    9.8447    0.7583 C   0  0  0  0  0  0  0  0  0  0  0  0
  -13.6333    8.3936    0.8453 C   0  0  0  0  0  0  0  0  0  0  0  0
  -11.6353    7.9241    2.2857 C   0  0  0  0  0  0  0  0  0  0  0  0
  -10.4373   10.2071    1.1583 F   0  0  0  0  0  0  0  0  0  0  0  0
  -17.2978    7.5370   -1.3106 N   0  0  0  0  0  0  0  0  0  0  0  0
  -16.7426    9.5131   -0.6197 N   0  0  0  0  0  0  0  0  0  0  0  0
  -17.7330    8.7623   -1.0774 N   0  0  0  0  0  0  0  0  0  0  0  0
  -20.6702    7.2637   -0.9501 O   0  0  0  0  0  0  0  0  0  0  0  0
  -20.8960    6.9700    1.9983 O   0  0  0  0  0  0  0  0  0  0  0  0
  -17.9647    5.3522    0.3184 O   0  0  0  0  0  0  0  0  0  0  0  0
  -19.4731    5.8470   -3.6299 O   0  0  0  0  0  0  0  0  0  0  0  0
  -20.1340    9.3969   -2.4463 S   0  0  0  0  0  0  0  0  0  0  0  0
  1  2  2  0
 19  1  1  0
  1 21  1  0
  2  3  1  0
  3 20  2  0
  4 20  1  0
 21  4  2  0
  4 22  1  0
  5 13  1  0
 17  5  1  0
  5 30  1  1
  7  6  1  0
  8  7  2  0
 10  7  1  0
  9  8  1  0
 12  9  2  0
 11 10  2  0
 12 11  1  0
 31 12  1  0
 13 27  1  0
 13 31  1  1
 14 15  1  1
 16 14  1  0
 14 27  1  0
 15 28  1  0
 17 16  1  0
 16 29  1  1
 17 24  1  1
 18 19  2  0
 18 24  1  0
 19 25  1  0
 20 23  1  0
 24 26  1  0
 25 26  2  0
M  END
$$$$
