
     RDKit          3D

 31 34  0  0  0  0  0  0  0  0999 V2000
  -14.3202    9.3331   -0.0257 C   0  0  0  0  0  0  0  0  0  0  0  0
  -13.3208    9.3618   -0.9729 C   0  0  0  0  0  0  0  0  0  0  0  0
  -12.0091    9.6917   -0.6487 C   0  0  0  0  0  0  0  0  0  0  0  0
  -12.6785    9.9756    1.6096 C   0  0  0  0  0  0  0  0  0  0  0  0
  -19.4904    7.9859   -2.7052 C   0  0  1  0  0  0  0  0  0  0  0  0
  -26.2609   11.6219   -0.3998 C   0  0  0  0  0  0  0  0  0  0  0  0
  -24.8592   11.1424   -0.5182 C   0  0  0  0  0  0  0  0  0  0  0  0
  -24.5098    9.9322    0.0264 C   0  0  0  0  0  0  0  0  0  0  0  0
  -23.2191    9.4727   -0.0726 C   0  0  0  0  0  0  0  0  0  0  0  0
  -23.8837   11.8802   -1.1641 C   0  0  0  0  0  0  0  0  0  0  0  0
  -22.5745   11.4117   -1.2631 C   0  0  0  0  0  0  0  0  0  0  0  0
  -22.2274   10.2011   -0.7177 C   0  0  0  0  0  0  0  0  0  0  0  0
  -20.5146    7.9232   -1.6399 C   0  0  1  0  0  0  0  0  0  0  0  0
  -19.6441    5.8942   -0.8042 C   0  0  2  0  0  0  0  0  0  0  0  0
  -19.0754    5.5808    0.5933 C   0  0  0  0  0  0  0  0  0  0  0  0
  -18.5756    5.9144   -1.8392 C   0  0  1  0  0  0  0  0  0  0  0  0
  -18.2175    7.2814   -2.3399 C   0  0  2  0  0  0  0  0  0  0  0  0
  -16.0701    8.1398   -1.4161 C   0  0  0  0  0  0  0  0  0  0  0  0
  -15.6905    8.9839   -0.3696 C   0  0  0  0  0  0  0  0  0  0  0  0
  -11.6859   10.0013    0.6550 C   0  0  0  0  0  0  0  0  0  0  0  0
  -13.9955    9.6424    1.2737 C   0  0  0  0  0  0  0  0  0  0  0  0
  -12.3124   10.3091    3.0085 C   0  0  0  0  0  0  0  0  0  0  0  0
  -10.3850   10.3250    0.9583 F   0  0  0  0  0  0  0  0  0  0  0  0
  -17.4033    8.0346   -1.4462 N   0  0  0  0  0  0  0  0  0  0  0  0
  -16.8547    9.3486    0.1857 N   0  0  0  0  0  0  0  0  0  0  0  0
  -17.8635    8.7814   -0.4583 N   0  0  0  0  0  0  0  0  0  0  0  0
  -20.5411    6.8944   -0.7883 O   0  0  0  0  0  0  0  0  0  0  0  0
  -20.0072    5.0335    1.4330 O   0  0  0  0  0  0  0  0  0  0  0  0
  -17.4555    5.2317   -1.3340 O   0  0  0  0  0  0  0  0  0  0  0  0
  -19.9481    7.4955   -3.9362 O   0  0  0  0  0  0  0  0  0  0  0  0
  -20.5770    9.5544   -0.8049 S   0  0  0  0  0  0  0  0  0  0  0  0
  1  2  2  0
 19  1  1  0
  1 21  1  0
  2  3  1  0
  3 20  2  0
  4 20  1  0
 21  4  2  0
  4 22  1  0
  5 13  1  0
 17  5  1  0
  5 30  1  6
  7  6  1  0
  8  7  2  0
 10  7  1  0
  9  8  1  0
 12  9  2  0
 11 10  2  0
 12 11  1  0
 31 12  1  0
 13 27  1  0
 13 31  1  1
 14 15  1  1
 16 14  1  0
 14 27  1  0
 15 28  1  0
 17 16  1  0
 16 29  1  1
 17 24  1  1
 18 19  2  0
 18 24  1  0
 19 25  1  0
 20 23  1  0
 24 26  1  0
 25 26  2  0
M  END
$$$$
