
     RDKit          3D

 31 34  0  0  0  0  0  0  0  0999 V2000
  -14.4545    9.1559    0.1836 C   0  0  0  0  0  0  0  0  0  0  0  0
  -13.4237    8.9091   -0.6959 C   0  0  0  0  0  0  0  0  0  0  0  0
  -12.0908    9.0601   -0.3281 C   0  0  0  0  0  0  0  0  0  0  0  0
  -12.8020    9.7177    1.8376 C   0  0  0  0  0  0  0  0  0  0  0  0
  -19.7426    8.8981   -2.5984 C   0  0  1  0  0  0  0  0  0  0  0  0
  -26.3189   11.0978    1.6628 C   0  0  0  0  0  0  0  0  0  0  0  0
  -24.9315   10.8057    1.2172 C   0  0  0  0  0  0  0  0  0  0  0  0
  -24.7090   10.3822   -0.0690 C   0  0  0  0  0  0  0  0  0  0  0  0
  -23.4337   10.1069   -0.4988 C   0  0  0  0  0  0  0  0  0  0  0  0
  -23.8449   10.9465    2.0615 C   0  0  0  0  0  0  0  0  0  0  0  0
  -22.5517   10.6664    1.6229 C   0  0  0  0  0  0  0  0  0  0  0  0
  -22.3316   10.2430    0.3362 C   0  0  0  0  0  0  0  0  0  0  0  0
  -20.7441    8.5578   -1.5645 C   0  0  1  0  0  0  0  0  0  0  0  0
  -19.9515    6.3398   -1.4051 C   0  0  2  0  0  0  0  0  0  0  0  0
  -19.3666    5.6000   -0.1864 C   0  0  0  0  0  0  0  0  0  0  0  0
  -18.9070    6.6289   -2.4244 C   0  0  1  0  0  0  0  0  0  0  0  0
  -18.4963    8.0684   -2.5062 C   0  0  2  0  0  0  0  0  0  0  0  0
  -16.2901    8.5093   -1.4388 C   0  0  0  0  0  0  0  0  0  0  0  0
  -15.8475    8.9932   -0.2052 C   0  0  0  0  0  0  0  0  0  0  0  0
  -11.7781    9.4682    0.9507 C   0  0  0  0  0  0  0  0  0  0  0  0
  -14.1401    9.5629    1.4583 C   0  0  0  0  0  0  0  0  0  0  0  0
  -12.4472   10.1537    3.2109 C   0  0  0  0  0  0  0  0  0  0  0  0
  -10.4560    9.6122    1.2978 F   0  0  0  0  0  0  0  0  0  0  0  0
  -17.6274    8.4869   -1.4581 N   0  0  0  0  0  0  0  0  0  0  0  0
  -16.9807    9.2416    0.4662 N   0  0  0  0  0  0  0  0  0  0  0  0
  -18.0296    8.9386   -0.2835 N   0  0  0  0  0  0  0  0  0  0  0  0
  -20.7997    7.3227   -1.0589 O   0  0  0  0  0  0  0  0  0  0  0  0
  -20.2301    4.6754    0.3356 O   0  0  0  0  0  0  0  0  0  0  0  0
  -17.8093    5.7837   -2.1867 O   0  0  0  0  0  0  0  0  0  0  0  0
  -20.2508    8.8176   -3.9025 O   0  0  0  0  0  0  0  0  0  0  0  0
  -20.7104    9.8644   -0.2786 S   0  0  0  0  0  0  0  0  0  0  0  0
  1  2  2  0
 19  1  1  0
  1 21  1  0
  2  3  1  0
  3 20  2  0
  4 20  1  0
 21  4  2  0
  4 22  1  0
  5 13  1  0
 17  5  1  0
  5 30  1  6
  7  6  1  0
  8  7  2  0
 10  7  1  0
  9  8  1  0
 12  9  2  0
 11 10  2  0
 12 11  1  0
 31 12  1  0
 13 27  1  0
 13 31  1  1
 14 15  1  1
 16 14  1  0
 14 27  1  0
 15 28  1  0
 17 16  1  0
 16 29  1  1
 17 24  1  1
 18 19  2  0
 18 24  1  0
 19 25  1  0
 20 23  1  0
 24 26  1  0
 25 26  2  0
M  END
$$$$
