
     RDKit          3D

 31 34  0  0  0  0  0  0  0  0999 V2000
  -14.5169    9.0358    0.0560 C   0  0  0  0  0  0  0  0  0  0  0  0
  -13.4419    8.3012   -0.3928 C   0  0  0  0  0  0  0  0  0  0  0  0
  -12.1566    8.5021    0.0993 C   0  0  0  0  0  0  0  0  0  0  0  0
  -13.0068   10.2015    1.5199 C   0  0  0  0  0  0  0  0  0  0  0  0
  -19.6370    7.7283   -2.8452 C   0  0  1  0  0  0  0  0  0  0  0  0
  -26.4392   11.3319   -0.3214 C   0  0  0  0  0  0  0  0  0  0  0  0
  -25.0592   10.8086   -0.4966 C   0  0  0  0  0  0  0  0  0  0  0  0
  -23.9919   11.5596   -0.0719 C   0  0  0  0  0  0  0  0  0  0  0  0
  -22.7093   11.0927   -0.2258 C   0  0  0  0  0  0  0  0  0  0  0  0
  -24.8093    9.5791   -1.0787 C   0  0  0  0  0  0  0  0  0  0  0  0
  -23.5066    9.1076   -1.2338 C   0  0  0  0  0  0  0  0  0  0  0  0
  -22.4409    9.8603   -0.8085 C   0  0  0  0  0  0  0  0  0  0  0  0
  -20.6436    7.6624   -1.7635 C   0  0  1  0  0  0  0  0  0  0  0  0
  -19.6816    5.6999   -0.8713 C   0  0  2  0  0  0  0  0  0  0  0  0
  -19.0824    5.4582    0.5277 C   0  0  0  0  0  0  0  0  0  0  0  0
  -18.6285    5.7261   -1.9219 C   0  0  1  0  0  0  0  0  0  0  0  0
  -18.3321    7.0879   -2.4745 C   0  0  2  0  0  0  0  0  0  0  0  0
  -16.2273    7.8169   -1.3611 C   0  0  0  0  0  0  0  0  0  0  0  0
  -15.8605    8.8193   -0.4598 C   0  0  0  0  0  0  0  0  0  0  0  0
  -11.9380    9.4614    1.0647 C   0  0  0  0  0  0  0  0  0  0  0  0
  -14.2964    9.9920    1.0186 C   0  0  0  0  0  0  0  0  0  0  0  0
  -12.7538   11.2281    2.5611 C   0  0  0  0  0  0  0  0  0  0  0  0
  -10.6619    9.6470    1.5403 F   0  0  0  0  0  0  0  0  0  0  0  0
  -17.5370    7.9034   -1.6192 N   0  0  0  0  0  0  0  0  0  0  0  0
  -17.0075    9.4707   -0.2214 N   0  0  0  0  0  0  0  0  0  0  0  0
  -17.9949    8.9211   -0.9122 N   0  0  0  0  0  0  0  0  0  0  0  0
  -20.6176    6.6638   -0.8768 O   0  0  0  0  0  0  0  0  0  0  0  0
  -19.9955    4.9556    1.4146 O   0  0  0  0  0  0  0  0  0  0  0  0
  -17.4755    5.1063   -1.4099 O   0  0  0  0  0  0  0  0  0  0  0  0
  -20.0909    7.1774   -4.0518 O   0  0  0  0  0  0  0  0  0  0  0  0
  -20.7602    9.3180   -0.9843 S   0  0  0  0  0  0  0  0  0  0  0  0
  1  2  2  0
 19  1  1  0
  1 21  1  0
  2  3  1  0
  3 20  2  0
  4 20  1  0
 21  4  2  0
  4 22  1  0
  5 13  1  0
 17  5  1  0
  5 30  1  6
  7  6  1  0
  8  7  2  0
 10  7  1  0
  9  8  1  0
 12  9  2  0
 11 10  2  0
 12 11  1  0
 31 12  1  0
 13 27  1  0
 13 31  1  1
 14 15  1  1
 16 14  1  0
 14 27  1  0
 15 28  1  0
 17 16  1  0
 16 29  1  1
 17 24  1  1
 18 19  2  0
 18 24  1  0
 19 25  1  0
 20 23  1  0
 24 26  1  0
 25 26  2  0
M  END
$$$$
