
     RDKit          3D

 31 34  0  0  0  0  0  0  0  0999 V2000
  -14.8044    9.5215    0.4180 C   0  0  0  0  0  0  0  0  0  0  0  0
  -14.5727   10.6913    1.1070 C   0  0  0  0  0  0  0  0  0  0  0  0
  -13.3354   10.9787    1.6735 C   0  0  0  0  0  0  0  0  0  0  0  0
  -12.5238    8.9022    0.8624 C   0  0  0  0  0  0  0  0  0  0  0  0
  -19.6880    7.8084   -2.6810 C   0  0  1  0  0  0  0  0  0  0  0  0
  -26.8512   10.9179   -0.6289 C   0  0  0  0  0  0  0  0  0  0  0  0
  -25.4063   10.5755   -0.6895 C   0  0  0  0  0  0  0  0  0  0  0  0
  -24.8568   10.1680   -1.8792 C   0  0  0  0  0  0  0  0  0  0  0  0
  -23.5234    9.8468   -1.9544 C   0  0  0  0  0  0  0  0  0  0  0  0
  -24.5868   10.6531    0.4221 C   0  0  0  0  0  0  0  0  0  0  0  0
  -23.2339   10.3265    0.3431 C   0  0  0  0  0  0  0  0  0  0  0  0
  -22.6866    9.9193   -0.8477 C   0  0  0  0  0  0  0  0  0  0  0  0
  -20.7493    7.7806   -1.6512 C   0  0  1  0  0  0  0  0  0  0  0  0
  -19.7611    5.9348   -0.5603 C   0  0  2  0  0  0  0  0  0  0  0  0
  -19.2308    5.8260    0.8825 C   0  0  0  0  0  0  0  0  0  0  0  0
  -18.6536    5.9276   -1.5537 C   0  0  1  0  0  0  0  0  0  0  0  0
  -18.3812    7.2553   -2.1944 C   0  0  2  0  0  0  0  0  0  0  0  0
  -16.3809    8.1341   -0.9996 C   0  0  0  0  0  0  0  0  0  0  0  0
  -16.1000    9.2271   -0.1759 C   0  0  0  0  0  0  0  0  0  0  0  0
  -12.3020   10.0751    1.5495 C   0  0  0  0  0  0  0  0  0  0  0  0
  -13.7723    8.6220    0.2958 C   0  0  0  0  0  0  0  0  0  0  0  0
  -11.3995    7.9420    0.7363 C   0  0  0  0  0  0  0  0  0  0  0  0
  -11.0857   10.3748    2.1152 F   0  0  0  0  0  0  0  0  0  0  0  0
  -17.6673    8.1670   -1.3651 N   0  0  0  0  0  0  0  0  0  0  0  0
  -17.2711    9.8738   -0.0921 N   0  0  0  0  0  0  0  0  0  0  0  0
  -18.1934    9.2386   -0.7992 N   0  0  0  0  0  0  0  0  0  0  0  0
  -20.7327    6.8539   -0.6893 O   0  0  0  0  0  0  0  0  0  0  0  0
  -20.0691    5.1203    1.7024 O   0  0  0  0  0  0  0  0  0  0  0  0
  -17.5070    5.3990   -0.9359 O   0  0  0  0  0  0  0  0  0  0  0  0
  -20.0527    7.1486   -3.8630 O   0  0  0  0  0  0  0  0  0  0  0  0
  -20.9739    9.4836   -1.0102 S   0  0  0  0  0  0  0  0  0  0  0  0
  1  2  2  0
 19  1  1  0
  1 21  1  0
  2  3  1  0
  3 20  2  0
  4 20  1  0
 21  4  2  0
  4 22  1  0
  5 13  1  0
 17  5  1  0
  5 30  1  6
  7  6  1  0
  8  7  2  0
 10  7  1  0
  9  8  1  0
 12  9  2  0
 11 10  2  0
 12 11  1  0
 31 12  1  0
 13 27  1  0
 13 31  1  1
 14 15  1  1
 16 14  1  0
 14 27  1  0
 15 28  1  0
 17 16  1  0
 16 29  1  1
 17 24  1  1
 18 19  2  0
 18 24  1  0
 19 25  1  0
 20 23  1  0
 24 26  1  0
 25 26  2  0
M  END
$$$$
