
     RDKit          3D

 31 34  0  0  0  0  0  0  0  0999 V2000
  -14.8267    8.9367   -0.2091 C   0  0  0  0  0  0  0  0  0  0  0  0
  -13.6661    8.8896   -0.9491 C   0  0  0  0  0  0  0  0  0  0  0  0
  -12.4106    8.9204   -0.3514 C   0  0  0  0  0  0  0  0  0  0  0  0
  -13.4653    9.0481    1.7699 C   0  0  0  0  0  0  0  0  0  0  0  0
  -20.0480    8.0498   -3.1214 C   0  0  1  0  0  0  0  0  0  0  0  0
  -26.4485   10.6227    1.3919 C   0  0  0  0  0  0  0  0  0  0  0  0
  -25.1335   10.3312    0.7639 C   0  0  0  0  0  0  0  0  0  0  0  0
  -23.9899   10.4162    1.5177 C   0  0  0  0  0  0  0  0  0  0  0  0
  -22.7655   10.1509    0.9545 C   0  0  0  0  0  0  0  0  0  0  0  0
  -25.0196    9.9738   -0.5675 C   0  0  0  0  0  0  0  0  0  0  0  0
  -23.7757    9.7051   -1.1367 C   0  0  0  0  0  0  0  0  0  0  0  0
  -22.6335    9.7908   -0.3809 C   0  0  0  0  0  0  0  0  0  0  0  0
  -20.9562    7.8813   -1.9662 C   0  0  1  0  0  0  0  0  0  0  0  0
  -19.9004    5.8710   -1.3203 C   0  0  2  0  0  0  0  0  0  0  0  0
  -19.1796    5.5297   -0.0017 C   0  0  0  0  0  0  0  0  0  0  0  0
  -18.9428    5.9983   -2.4517 C   0  0  1  0  0  0  0  0  0  0  0  0
  -18.7094    7.4044   -2.9166 C   0  0  2  0  0  0  0  0  0  0  0  0
  -16.6080    7.8782   -1.6671 C   0  0  0  0  0  0  0  0  0  0  0  0
  -16.1380    8.9007   -0.8393 C   0  0  0  0  0  0  0  0  0  0  0  0
  -12.3103    9.0004    1.0210 C   0  0  0  0  0  0  0  0  0  0  0  0
  -14.7241    9.0166    1.1593 C   0  0  0  0  0  0  0  0  0  0  0  0
  -13.3388    9.1315    3.2461 C   0  0  0  0  0  0  0  0  0  0  0  0
  -11.0620    9.0297    1.5956 F   0  0  0  0  0  0  0  0  0  0  0  0
  -17.8514    8.1632   -2.0698 N   0  0  0  0  0  0  0  0  0  0  0  0
  -17.1587    9.7683   -0.7915 N   0  0  0  0  0  0  0  0  0  0  0  0
  -18.1690    9.3231   -1.5230 N   0  0  0  0  0  0  0  0  0  0  0  0
  -20.8431    6.8162   -1.1681 O   0  0  0  0  0  0  0  0  0  0  0  0
  -19.9806    4.8557    0.8799 O   0  0  0  0  0  0  0  0  0  0  0  0
  -17.7435    5.3597   -2.0919 O   0  0  0  0  0  0  0  0  0  0  0  0
  -20.5993    7.5884   -4.3250 O   0  0  0  0  0  0  0  0  0  0  0  0
  -21.0216    9.4678   -1.0494 S   0  0  0  0  0  0  0  0  0  0  0  0
  1  2  2  0
 19  1  1  0
  1 21  1  0
  2  3  1  0
  3 20  2  0
  4 20  1  0
 21  4  2  0
  4 22  1  0
  5 13  1  0
 17  5  1  0
  5 30  1  6
  7  6  1  0
  8  7  2  0
 10  7  1  0
  9  8  1  0
 12  9  2  0
 11 10  2  0
 12 11  1  0
 31 12  1  0
 13 27  1  0
 13 31  1  1
 14 15  1  1
 16 14  1  0
 14 27  1  0
 15 28  1  0
 17 16  1  0
 16 29  1  1
 17 24  1  1
 18 19  2  0
 18 24  1  0
 19 25  1  0
 20 23  1  0
 24 26  1  0
 25 26  2  0
M  END
$$$$
