
     RDKit          3D

 31 34  0  0  0  0  0  0  0  0999 V2000
  -14.3823    9.2097   -0.1634 C   0  0  0  0  0  0  0  0  0  0  0  0
  -13.5891    9.5674   -1.2310 C   0  0  0  0  0  0  0  0  0  0  0  0
  -12.2387    9.8631   -1.0777 C   0  0  0  0  0  0  0  0  0  0  0  0
  -12.4496    9.4439    1.2479 C   0  0  0  0  0  0  0  0  0  0  0  0
  -19.7013    6.6229   -0.9716 C   0  0  1  0  0  0  0  0  0  0  0  0
  -24.8835    9.9805   -6.1975 C   0  0  0  0  0  0  0  0  0  0  0  0
  -23.7254    9.7043   -5.3080 C   0  0  0  0  0  0  0  0  0  0  0  0
  -23.2525    8.4213   -5.1916 C   0  0  0  0  0  0  0  0  0  0  0  0
  -22.1835    8.1466   -4.3740 C   0  0  0  0  0  0  0  0  0  0  0  0
  -23.1007   10.7045   -4.5852 C   0  0  0  0  0  0  0  0  0  0  0  0
  -22.0159   10.4231   -3.7561 C   0  0  0  0  0  0  0  0  0  0  0  0
  -21.5448    9.1394   -3.6412 C   0  0  0  0  0  0  0  0  0  0  0  0
  -20.6850    7.7126   -1.1516 C   0  0  1  0  0  0  0  0  0  0  0  0
  -20.5845    8.2965    1.1336 C   0  0  2  0  0  0  0  0  0  0  0  0
  -20.1656    9.6311    1.7801 C   0  0  0  0  0  0  0  0  0  0  0  0
  -19.5741    7.2307    1.3720 C   0  0  1  0  0  0  0  0  0  0  0  0
  -18.7576    6.8645    0.1692 C   0  0  2  0  0  0  0  0  0  0  0  0
  -16.4395    7.7740    0.1919 C   0  0  0  0  0  0  0  0  0  0  0  0
  -15.7941    8.8979   -0.3297 C   0  0  0  0  0  0  0  0  0  0  0  0
  -11.6646    9.8005    0.1738 C   0  0  0  0  0  0  0  0  0  0  0  0
  -13.8075    9.1481    1.0836 C   0  0  0  0  0  0  0  0  0  0  0  0
  -11.8145    9.3789    2.5875 C   0  0  0  0  0  0  0  0  0  0  0  0
  -10.3288   10.0956    0.3077 F   0  0  0  0  0  0  0  0  0  0  0  0
  -17.7332    7.8022   -0.1472 N   0  0  0  0  0  0  0  0  0  0  0  0
  -16.7685    9.5568   -0.9726 N   0  0  0  0  0  0  0  0  0  0  0  0
  -17.9133    8.9005   -0.8589 N   0  0  0  0  0  0  0  0  0  0  0  0
  -21.0732    8.4511   -0.1084 O   0  0  0  0  0  0  0  0  0  0  0  0
  -21.1725   10.2053    2.5079 O   0  0  0  0  0  0  0  0  0  0  0  0
  -18.7665    7.6193    2.4548 O   0  0  0  0  0  0  0  0  0  0  0  0
  -20.2988    5.3647   -0.8130 O   0  0  0  0  0  0  0  0  0  0  0  0
  -20.1729    8.7172   -2.5975 S   0  0  0  0  0  0  0  0  0  0  0  0
  1  2  2  0
 19  1  1  0
  1 21  1  0
  2  3  1  0
  3 20  2  0
  4 20  1  0
 21  4  2  0
  4 22  1  0
  5 13  1  0
 17  5  1  0
  5 30  1  1
  7  6  1  0
  8  7  2  0
 10  7  1  0
  9  8  1  0
 12  9  2  0
 11 10  2  0
 12 11  1  0
 31 12  1  0
 13 27  1  0
 13 31  1  6
 14 15  1  6
 16 14  1  0
 14 27  1  0
 15 28  1  0
 17 16  1  0
 16 29  1  1
 17 24  1  6
 18 19  2  0
 18 24  1  0
 19 25  1  0
 20 23  1  0
 24 26  1  0
 25 26  2  0
M  END
$$$$
