
     RDKit          3D

 31 34  0  0  0  0  0  0  0  0999 V2000
  -14.4815    9.6553    0.1543 C   0  0  0  0  0  0  0  0  0  0  0  0
  -13.8163   10.8064   -0.2055 C   0  0  0  0  0  0  0  0  0  0  0  0
  -12.5462   11.1036    0.2773 C   0  0  0  0  0  0  0  0  0  0  0  0
  -12.5805    9.0755    1.5079 C   0  0  0  0  0  0  0  0  0  0  0  0
  -19.4727    7.9835   -2.7703 C   0  0  1  0  0  0  0  0  0  0  0  0
  -26.4477   11.5183   -0.5027 C   0  0  0  0  0  0  0  0  0  0  0  0
  -25.0449   11.0606   -0.6799 C   0  0  0  0  0  0  0  0  0  0  0  0
  -24.1284   11.2865    0.3162 C   0  0  0  0  0  0  0  0  0  0  0  0
  -22.8273   10.8713    0.1702 C   0  0  0  0  0  0  0  0  0  0  0  0
  -24.6252   10.4085   -1.8253 C   0  0  0  0  0  0  0  0  0  0  0  0
  -23.3041    9.9882   -1.9711 C   0  0  0  0  0  0  0  0  0  0  0  0
  -22.3894   10.2152   -0.9736 C   0  0  0  0  0  0  0  0  0  0  0  0
  -20.5252    7.9963   -1.7312 C   0  0  1  0  0  0  0  0  0  0  0  0
  -19.5834    6.1307   -0.6332 C   0  0  2  0  0  0  0  0  0  0  0  0
  -19.0440    6.0179    0.8059 C   0  0  0  0  0  0  0  0  0  0  0  0
  -18.4855    6.0818   -1.6359 C   0  0  1  0  0  0  0  0  0  0  0  0
  -18.1789    7.3954   -2.2902 C   0  0  2  0  0  0  0  0  0  0  0  0
  -16.1203    8.2827   -1.2058 C   0  0  0  0  0  0  0  0  0  0  0  0
  -15.8091    9.3473   -0.3564 C   0  0  0  0  0  0  0  0  0  0  0  0
  -11.9234   10.2294    1.1419 C   0  0  0  0  0  0  0  0  0  0  0  0
  -13.8584    8.7852    1.0168 C   0  0  0  0  0  0  0  0  0  0  0  0
  -11.8942    8.1445    2.4375 C   0  0  0  0  0  0  0  0  0  0  0  0
  -10.6683   10.5382    1.6095 F   0  0  0  0  0  0  0  0  0  0  0  0
  -17.4306    8.2920   -1.4748 N   0  0  0  0  0  0  0  0  0  0  0  0
  -16.9879    9.9539   -0.1585 N   0  0  0  0  0  0  0  0  0  0  0  0
  -17.9423    9.3219   -0.8246 N   0  0  0  0  0  0  0  0  0  0  0  0
  -20.5281    7.0775   -0.7616 O   0  0  0  0  0  0  0  0  0  0  0  0
  -19.9902    5.5808    1.6928 O   0  0  0  0  0  0  0  0  0  0  0  0
  -17.3498    5.5241   -1.0234 O   0  0  0  0  0  0  0  0  0  0  0  0
  -19.8675    7.3253   -3.9435 O   0  0  0  0  0  0  0  0  0  0  0  0
  -20.6929    9.7106   -1.1029 S   0  0  0  0  0  0  0  0  0  0  0  0
  1  2  2  0
 19  1  1  0
  1 21  1  0
  2  3  1  0
  3 20  2  0
  4 20  1  0
 21  4  2  0
  4 22  1  0
  5 13  1  0
 17  5  1  0
  5 30  1  6
  7  6  1  0
  8  7  2  0
 10  7  1  0
  9  8  1  0
 12  9  2  0
 11 10  2  0
 12 11  1  0
 31 12  1  0
 13 27  1  0
 13 31  1  1
 14 15  1  1
 16 14  1  0
 14 27  1  0
 15 28  1  0
 17 16  1  0
 16 29  1  1
 17 24  1  1
 18 19  2  0
 18 24  1  0
 19 25  1  0
 20 23  1  0
 24 26  1  0
 25 26  2  0
M  END
$$$$
