
     RDKit          3D

 31 34  0  0  0  0  0  0  0  0999 V2000
  -14.7076    9.3085    0.2903 C   0  0  0  0  0  0  0  0  0  0  0  0
  -14.4490   10.5675    0.7851 C   0  0  0  0  0  0  0  0  0  0  0  0
  -13.2129   10.9062    1.3253 C   0  0  0  0  0  0  0  0  0  0  0  0
  -12.4570    8.7017    0.8809 C   0  0  0  0  0  0  0  0  0  0  0  0
  -19.4934    7.4131   -2.8280 C   0  0  1  0  0  0  0  0  0  0  0  0
  -26.5047   11.3514   -1.7425 C   0  0  0  0  0  0  0  0  0  0  0  0
  -25.1192   10.8189   -1.6680 C   0  0  0  0  0  0  0  0  0  0  0  0
  -24.0645   11.6901   -1.5581 C   0  0  0  0  0  0  0  0  0  0  0  0
  -22.7770   11.2166   -1.4886 C   0  0  0  0  0  0  0  0  0  0  0  0
  -24.8516    9.4624   -1.7064 C   0  0  0  0  0  0  0  0  0  0  0  0
  -23.5439    8.9845   -1.6357 C   0  0  0  0  0  0  0  0  0  0  0  0
  -22.4909    9.8575   -1.5259 C   0  0  0  0  0  0  0  0  0  0  0  0
  -20.6251    7.5417   -1.8845 C   0  0  1  0  0  0  0  0  0  0  0  0
  -19.8156    5.7783   -0.5397 C   0  0  2  0  0  0  0  0  0  0  0  0
  -19.3955    5.7981    0.9428 C   0  0  0  0  0  0  0  0  0  0  0  0
  -18.6423    5.6166   -1.4401 C   0  0  1  0  0  0  0  0  0  0  0  0
  -18.2555    6.8559   -2.1898 C   0  0  2  0  0  0  0  0  0  0  0  0
  -16.2648    7.8287   -1.0532 C   0  0  0  0  0  0  0  0  0  0  0  0
  -16.0017    8.9602   -0.2771 C   0  0  0  0  0  0  0  0  0  0  0  0
  -12.2082    9.9638    1.3732 C   0  0  0  0  0  0  0  0  0  0  0  0
  -13.7041    8.3704    0.3392 C   0  0  0  0  0  0  0  0  0  0  0  0
  -11.3632    7.7005    0.9380 C   0  0  0  0  0  0  0  0  0  0  0  0
  -10.9926   10.3151    1.9101 F   0  0  0  0  0  0  0  0  0  0  0  0
  -17.5551    7.8167   -1.4055 N   0  0  0  0  0  0  0  0  0  0  0  0
  -17.1870    9.5822   -0.2063 N   0  0  0  0  0  0  0  0  0  0  0  0
  -18.1009    8.8977   -0.8772 N   0  0  0  0  0  0  0  0  0  0  0  0
  -20.7258    6.7215   -0.8349 O   0  0  0  0  0  0  0  0  0  0  0  0
  -20.3620    5.2987    1.7732 O   0  0  0  0  0  0  0  0  0  0  0  0
  -17.5718    5.1049   -0.6863 O   0  0  0  0  0  0  0  0  0  0  0  0
  -19.8076    6.6497   -3.9612 O   0  0  0  0  0  0  0  0  0  0  0  0
  -20.8046    9.3111   -1.4388 S   0  0  0  0  0  0  0  0  0  0  0  0
  1  2  2  0
 19  1  1  0
  1 21  1  0
  2  3  1  0
  3 20  2  0
  4 20  1  0
 21  4  2  0
  4 22  1  0
  5 13  1  0
 17  5  1  0
  5 30  1  6
  7  6  1  0
  8  7  2  0
 10  7  1  0
  9  8  1  0
 12  9  2  0
 11 10  2  0
 12 11  1  0
 31 12  1  0
 13 27  1  0
 13 31  1  1
 14 15  1  1
 16 14  1  0
 14 27  1  0
 15 28  1  0
 17 16  1  0
 16 29  1  1
 17 24  1  1
 18 19  2  0
 18 24  1  0
 19 25  1  0
 20 23  1  0
 24 26  1  0
 25 26  2  0
M  END
$$$$
