
     RDKit          3D

 31 34  0  0  0  0  0  0  0  0999 V2000
  -14.4404    8.9518   -0.0113 C   0  0  0  0  0  0  0  0  0  0  0  0
  -13.8565    8.1342    0.9307 C   0  0  0  0  0  0  0  0  0  0  0  0
  -12.5919    8.3942    1.4481 C   0  0  0  0  0  0  0  0  0  0  0  0
  -12.4667   10.3228    0.0721 C   0  0  0  0  0  0  0  0  0  0  0  0
  -19.5017    6.9998   -2.6333 C   0  0  1  0  0  0  0  0  0  0  0  0
  -25.2563   12.0942   -4.6242 C   0  0  0  0  0  0  0  0  0  0  0  0
  -24.0651   11.4309   -4.0329 C   0  0  0  0  0  0  0  0  0  0  0  0
  -23.5382   11.9076   -2.8588 C   0  0  0  0  0  0  0  0  0  0  0  0
  -22.4373   11.3079   -2.2976 C   0  0  0  0  0  0  0  0  0  0  0  0
  -23.4617   10.3389   -4.6300 C   0  0  0  0  0  0  0  0  0  0  0  0
  -22.3444    9.7321   -4.0584 C   0  0  0  0  0  0  0  0  0  0  0  0
  -21.8192   10.2106   -2.8843 C   0  0  0  0  0  0  0  0  0  0  0  0
  -20.5785    7.6766   -1.8782 C   0  0  1  0  0  0  0  0  0  0  0  0
  -20.1320    6.4081    0.0621 C   0  0  2  0  0  0  0  0  0  0  0  0
  -19.7072    6.8887    1.4633 C   0  0  0  0  0  0  0  0  0  0  0  0
  -19.0209    5.7091   -0.6381 C   0  0  1  0  0  0  0  0  0  0  0  0
  -18.3973    6.4908   -1.7550 C   0  0  2  0  0  0  0  0  0  0  0  0
  -16.2643    7.4094   -0.8561 C   0  0  0  0  0  0  0  0  0  0  0  0
  -15.7654    8.6772   -0.5470 C   0  0  0  0  0  0  0  0  0  0  0  0
  -11.8913    9.4990    1.0141 C   0  0  0  0  0  0  0  0  0  0  0  0
  -13.7397   10.0529   -0.4426 C   0  0  0  0  0  0  0  0  0  0  0  0
  -11.6995   11.5091   -0.3819 C   0  0  0  0  0  0  0  0  0  0  0  0
  -10.6429    9.7415    1.5357 F   0  0  0  0  0  0  0  0  0  0  0  0
  -17.5130    7.5204   -1.3229 N   0  0  0  0  0  0  0  0  0  0  0  0
  -16.7754    9.5025   -0.8561 N   0  0  0  0  0  0  0  0  0  0  0  0
  -17.8061    8.8086   -1.3146 N   0  0  0  0  0  0  0  0  0  0  0  0
  -20.8355    7.3322   -0.6134 O   0  0  0  0  0  0  0  0  0  0  0  0
  -20.5938    6.5224    2.4394 O   0  0  0  0  0  0  0  0  0  0  0  0
  -18.0706    5.3156    0.3201 O   0  0  0  0  0  0  0  0  0  0  0  0
  -19.9702    5.9493   -3.4349 O   0  0  0  0  0  0  0  0  0  0  0  0
  -20.3954    9.4859   -2.1116 S   0  0  0  0  0  0  0  0  0  0  0  0
  1  2  2  0
 19  1  1  0
  1 21  1  0
  2  3  1  0
  3 20  2  0
  4 20  1  0
 21  4  2  0
  4 22  1  0
  5 13  1  0
 17  5  1  0
  5 30  1  1
  7  6  1  0
  8  7  2  0
 10  7  1  0
  9  8  1  0
 12  9  2  0
 11 10  2  0
 12 11  1  0
 31 12  1  0
 13 27  1  0
 13 31  1  1
 14 15  1  1
 16 14  1  0
 14 27  1  0
 15 28  1  0
 17 16  1  0
 16 29  1  1
 17 24  1  1
 18 19  2  0
 18 24  1  0
 19 25  1  0
 20 23  1  0
 24 26  1  0
 25 26  2  0
M  END
$$$$
