
     RDKit          3D

 31 34  0  0  0  0  0  0  0  0999 V2000
  -14.3543    9.4021    0.2956 C   0  0  0  0  0  0  0  0  0  0  0  0
  -13.2940    8.9237    1.0331 C   0  0  0  0  0  0  0  0  0  0  0  0
  -12.1732    9.7026    1.3007 C   0  0  0  0  0  0  0  0  0  0  0  0
  -13.1638   11.4803    0.0812 C   0  0  0  0  0  0  0  0  0  0  0  0
  -19.0015    8.2583   -2.6075 C   0  0  1  0  0  0  0  0  0  0  0  0
  -24.7961   13.3631   -0.0980 C   0  0  0  0  0  0  0  0  0  0  0  0
  -23.5417   12.5799   -0.2449 C   0  0  0  0  0  0  0  0  0  0  0  0
  -23.5709   11.3709   -0.8937 C   0  0  0  0  0  0  0  0  0  0  0  0
  -22.4217   10.6326   -1.0387 C   0  0  0  0  0  0  0  0  0  0  0  0
  -22.3330   13.0303    0.2544 C   0  0  0  0  0  0  0  0  0  0  0  0
  -21.1681   12.2790    0.1059 C   0  0  0  0  0  0  0  0  0  0  0  0
  -21.1997   11.0703   -0.5432 C   0  0  0  0  0  0  0  0  0  0  0  0
  -20.1139    8.5149   -1.6672 C   0  0  1  0  0  0  0  0  0  0  0  0
  -20.0475    6.3009   -0.8506 C   0  0  2  0  0  0  0  0  0  0  0  0
  -19.7843    5.7990    0.5825 C   0  0  0  0  0  0  0  0  0  0  0  0
  -18.9106    5.9893   -1.7582 C   0  0  1  0  0  0  0  0  0  0  0  0
  -18.0755    7.1738   -2.1418 C   0  0  2  0  0  0  0  0  0  0  0  0
  -16.1291    8.4311   -1.2298 C   0  0  0  0  0  0  0  0  0  0  0  0
  -15.5263    8.5840    0.0212 C   0  0  0  0  0  0  0  0  0  0  0  0
  -12.1085   10.9927    0.8199 C   0  0  0  0  0  0  0  0  0  0  0  0
  -14.2874   10.6889   -0.1829 C   0  0  0  0  0  0  0  0  0  0  0  0
  -13.0785   12.8720   -0.4265 C   0  0  0  0  0  0  0  0  0  0  0  0
  -10.9938   11.7489    1.0936 F   0  0  0  0  0  0  0  0  0  0  0  0
  -17.1789    7.6089   -1.1242 N   0  0  0  0  0  0  0  0  0  0  0  0
  -16.2731    7.8208    0.8315 N   0  0  0  0  0  0  0  0  0  0  0  0
  -17.2492    7.2471    0.1445 N   0  0  0  0  0  0  0  0  0  0  0  0
  -20.5721    7.5374   -0.8804 O   0  0  0  0  0  0  0  0  0  0  0  0
  -20.2440    4.5268    0.7902 O   0  0  0  0  0  0  0  0  0  0  0  0
  -18.1385    4.9728   -1.1694 O   0  0  0  0  0  0  0  0  0  0  0  0
  -19.4379    7.9613   -3.9062 O   0  0  0  0  0  0  0  0  0  0  0  0
  -19.7528   10.0654   -0.7577 S   0  0  0  0  0  0  0  0  0  0  0  0
  1  2  2  0
 19  1  1  0
  1 21  1  0
  2  3  1  0
  3 20  2  0
  4 20  1  0
 21  4  2  0
  4 22  1  0
  5 13  1  0
 17  5  1  0
  5 30  1  6
  7  6  1  0
  8  7  2  0
 10  7  1  0
  9  8  1  0
 12  9  2  0
 11 10  2  0
 12 11  1  0
 31 12  1  0
 13 27  1  0
 13 31  1  1
 14 15  1  1
 16 14  1  0
 14 27  1  0
 15 28  1  0
 17 16  1  0
 16 29  1  1
 17 24  1  1
 18 19  2  0
 18 24  1  0
 19 25  1  0
 20 23  1  0
 24 26  1  0
 25 26  2  0
M  END
$$$$
