
     RDKit          3D

 31 34  0  0  0  0  0  0  0  0999 V2000
  -14.6911    8.9110    0.8699 C   0  0  0  0  0  0  0  0  0  0  0  0
  -14.5323    9.2821    2.1867 C   0  0  0  0  0  0  0  0  0  0  0  0
  -13.2750    9.4465    2.7582 C   0  0  0  0  0  0  0  0  0  0  0  0
  -12.2947    8.8635    0.6779 C   0  0  0  0  0  0  0  0  0  0  0  0
  -19.6266    8.0258   -2.4641 C   0  0  1  0  0  0  0  0  0  0  0  0
  -26.6715   11.0719   -0.2156 C   0  0  0  0  0  0  0  0  0  0  0  0
  -25.2456   10.6539   -0.2430 C   0  0  0  0  0  0  0  0  0  0  0  0
  -24.7369   10.0574   -1.3694 C   0  0  0  0  0  0  0  0  0  0  0  0
  -23.4217    9.6639   -1.4131 C   0  0  0  0  0  0  0  0  0  0  0  0
  -24.4039   10.8463    0.8376 C   0  0  0  0  0  0  0  0  0  0  0  0
  -23.0694   10.4459    0.7907 C   0  0  0  0  0  0  0  0  0  0  0  0
  -22.5630    9.8496   -0.3368 C   0  0  0  0  0  0  0  0  0  0  0  0
  -20.7001    7.7972   -1.4727 C   0  0  1  0  0  0  0  0  0  0  0  0
  -19.7863    5.7156   -0.8363 C   0  0  2  0  0  0  0  0  0  0  0  0
  -19.2768    5.2568    0.5438 C   0  0  0  0  0  0  0  0  0  0  0  0
  -18.6682    5.9001   -1.8002 C   0  0  1  0  0  0  0  0  0  0  0  0
  -18.3446    7.3298   -2.1143 C   0  0  2  0  0  0  0  0  0  0  0  0
  -16.3058    7.9167   -0.8105 C   0  0  0  0  0  0  0  0  0  0  0  0
  -16.0091    8.7437    0.2757 C   0  0  0  0  0  0  0  0  0  0  0  0
  -12.1463    9.2350    1.9959 C   0  0  0  0  0  0  0  0  0  0  0  0
  -13.5641    8.7006    0.1118 C   0  0  0  0  0  0  0  0  0  0  0  0
  -11.0689    8.6424   -0.1287 C   0  0  0  0  0  0  0  0  0  0  0  0
  -10.9115    9.4020    2.5762 F   0  0  0  0  0  0  0  0  0  0  0  0
  -17.6106    7.9990   -1.0935 N   0  0  0  0  0  0  0  0  0  0  0  0
  -17.1904    9.2925    0.5920 N   0  0  0  0  0  0  0  0  0  0  0  0
  -18.1329    8.8455   -0.2240 N   0  0  0  0  0  0  0  0  0  0  0  0
  -20.7255    6.6728   -0.7520 O   0  0  0  0  0  0  0  0  0  0  0  0
  -20.2429    4.6294    1.2826 O   0  0  0  0  0  0  0  0  0  0  0  0
  -17.5469    5.2031   -1.3177 O   0  0  0  0  0  0  0  0  0  0  0  0
  -19.9991    7.6711   -3.7682 O   0  0  0  0  0  0  0  0  0  0  0  0
  -20.8758    9.3121   -0.4549 S   0  0  0  0  0  0  0  0  0  0  0  0
  1  2  2  0
 19  1  1  0
  1 21  1  0
  2  3  1  0
  3 20  2  0
  4 20  1  0
 21  4  2  0
  4 22  1  0
  5 13  1  0
 17  5  1  0
  5 30  1  6
  7  6  1  0
  8  7  2  0
 10  7  1  0
  9  8  1  0
 12  9  2  0
 11 10  2  0
 12 11  1  0
 31 12  1  0
 13 27  1  0
 13 31  1  1
 14 15  1  1
 16 14  1  0
 14 27  1  0
 15 28  1  0
 17 16  1  0
 16 29  1  1
 17 24  1  1
 18 19  2  0
 18 24  1  0
 19 25  1  0
 20 23  1  0
 24 26  1  0
 25 26  2  0
M  END
$$$$
