
     RDKit          3D

 31 34  0  0  0  0  0  0  0  0999 V2000
  -14.6105    9.6565    0.1457 C   0  0  0  0  0  0  0  0  0  0  0  0
  -13.9403   10.8320   -0.1109 C   0  0  0  0  0  0  0  0  0  0  0  0
  -12.6893   11.0999    0.4348 C   0  0  0  0  0  0  0  0  0  0  0  0
  -12.7535    8.9916    1.5211 C   0  0  0  0  0  0  0  0  0  0  0  0
  -19.6756    7.8212   -2.5892 C   0  0  1  0  0  0  0  0  0  0  0  0
  -26.6386   11.0946   -0.0918 C   0  0  0  0  0  0  0  0  0  0  0  0
  -25.2031   10.7778   -0.3098 C   0  0  0  0  0  0  0  0  0  0  0  0
  -24.8313    9.4894   -0.6016 C   0  0  0  0  0  0  0  0  0  0  0  0
  -23.5093    9.1774   -0.8058 C   0  0  0  0  0  0  0  0  0  0  0  0
  -24.2178   11.7450   -0.2278 C   0  0  0  0  0  0  0  0  0  0  0  0
  -22.8767   11.4258   -0.4354 C   0  0  0  0  0  0  0  0  0  0  0  0
  -22.5073   10.1367   -0.7271 C   0  0  0  0  0  0  0  0  0  0  0  0
  -20.6555    7.9074   -1.4847 C   0  0  1  0  0  0  0  0  0  0  0  0
  -19.6019    6.1587   -0.2994 C   0  0  2  0  0  0  0  0  0  0  0  0
  -18.9641    6.1791    1.1033 C   0  0  0  0  0  0  0  0  0  0  0  0
  -18.5734    6.0403   -1.3679 C   0  0  1  0  0  0  0  0  0  0  0  0
  -18.3400    7.2969   -2.1515 C   0  0  2  0  0  0  0  0  0  0  0  0
  -16.2863    8.1890   -1.0616 C   0  0  0  0  0  0  0  0  0  0  0  0
  -15.9180    9.3797   -0.4305 C   0  0  0  0  0  0  0  0  0  0  0  0
  -12.0912   10.1704    1.2583 C   0  0  0  0  0  0  0  0  0  0  0  0
  -14.0121    8.7312    0.9673 C   0  0  0  0  0  0  0  0  0  0  0  0
  -12.0938    8.0012    2.4075 C   0  0  0  0  0  0  0  0  0  0  0  0
  -10.8547   10.4507    1.7890 F   0  0  0  0  0  0  0  0  0  0  0  0
  -17.5577    8.2722   -1.4692 N   0  0  0  0  0  0  0  0  0  0  0  0
  -17.0245   10.1332   -0.4981 N   0  0  0  0  0  0  0  0  0  0  0  0
  -17.9903    9.4691   -1.1147 N   0  0  0  0  0  0  0  0  0  0  0  0
  -20.5731    7.0760   -0.4425 O   0  0  0  0  0  0  0  0  0  0  0  0
  -19.5847    5.3301    1.9790 O   0  0  0  0  0  0  0  0  0  0  0  0
  -17.3873    5.5553   -0.7902 O   0  0  0  0  0  0  0  0  0  0  0  0
  -20.1346    7.0579   -3.6719 O   0  0  0  0  0  0  0  0  0  0  0  0
  -20.8170    9.6669   -0.9948 S   0  0  0  0  0  0  0  0  0  0  0  0
  1  2  2  0
 19  1  1  0
  1 21  1  0
  2  3  1  0
  3 20  2  0
  4 20  1  0
 21  4  2  0
  4 22  1  0
  5 13  1  0
 17  5  1  0
  5 30  1  6
  7  6  1  0
  8  7  2  0
 10  7  1  0
  9  8  1  0
 12  9  2  0
 11 10  2  0
 12 11  1  0
 31 12  1  0
 13 27  1  0
 13 31  1  1
 14 15  1  1
 16 14  1  0
 14 27  1  0
 15 28  1  0
 17 16  1  0
 16 29  1  1
 17 24  1  1
 18 19  2  0
 18 24  1  0
 19 25  1  0
 20 23  1  0
 24 26  1  0
 25 26  2  0
M  END
$$$$
