
     RDKit          3D

 31 34  0  0  0  0  0  0  0  0999 V2000
  -14.5793    9.5367    0.5668 C   0  0  0  0  0  0  0  0  0  0  0  0
  -14.2810   10.8544    0.8344 C   0  0  0  0  0  0  0  0  0  0  0  0
  -13.0277   11.2465    1.2926 C   0  0  0  0  0  0  0  0  0  0  0  0
  -12.3347    8.9785    1.2243 C   0  0  0  0  0  0  0  0  0  0  0  0
  -19.3940    7.7053   -2.4983 C   0  0  1  0  0  0  0  0  0  0  0  0
  -26.5222   11.1940   -1.1470 C   0  0  0  0  0  0  0  0  0  0  0  0
  -25.1035   10.7608   -1.0569 C   0  0  0  0  0  0  0  0  0  0  0  0
  -24.3476   10.6773   -2.1994 C   0  0  0  0  0  0  0  0  0  0  0  0
  -23.0348   10.2783   -2.1359 C   0  0  0  0  0  0  0  0  0  0  0  0
  -24.5112   10.4350    0.1498 C   0  0  0  0  0  0  0  0  0  0  0  0
  -23.1786   10.0302    0.2115 C   0  0  0  0  0  0  0  0  0  0  0  0
  -22.4248    9.9475   -0.9323 C   0  0  0  0  0  0  0  0  0  0  0  0
  -20.5168    7.7184   -1.5356 C   0  0  1  0  0  0  0  0  0  0  0  0
  -19.6561    5.8512   -0.3755 C   0  0  2  0  0  0  0  0  0  0  0  0
  -19.2190    5.7370    1.0978 C   0  0  0  0  0  0  0  0  0  0  0  0
  -18.4906    5.8019   -1.2988 C   0  0  1  0  0  0  0  0  0  0  0  0
  -18.1377    7.1155   -1.9291 C   0  0  2  0  0  0  0  0  0  0  0  0
  -16.1314    8.1217   -0.8504 C   0  0  0  0  0  0  0  0  0  0  0  0
  -15.8913    9.1320    0.0842 C   0  0  0  0  0  0  0  0  0  0  0  0
  -12.0461   10.2990    1.4891 C   0  0  0  0  0  0  0  0  0  0  0  0
  -13.5988    8.5937    0.7636 C   0  0  0  0  0  0  0  0  0  0  0  0
  -11.2655    7.9722    1.4389 C   0  0  0  0  0  0  0  0  0  0  0  0
  -10.8130   10.7036    1.9421 F   0  0  0  0  0  0  0  0  0  0  0  0
  -17.4475    8.0109   -1.0627 N   0  0  0  0  0  0  0  0  0  0  0  0
  -17.1160    9.5840    0.3885 N   0  0  0  0  0  0  0  0  0  0  0  0
  -18.0312    8.9140   -0.2953 N   0  0  0  0  0  0  0  0  0  0  0  0
  -20.5885    6.7990   -0.5692 O   0  0  0  0  0  0  0  0  0  0  0  0
  -20.1206    5.0508    1.8654 O   0  0  0  0  0  0  0  0  0  0  0  0
  -17.4012    5.2426   -0.6086 O   0  0  0  0  0  0  0  0  0  0  0  0
  -19.7063    7.0482   -3.6967 O   0  0  0  0  0  0  0  0  0  0  0  0
  -20.7265    9.4325   -0.9194 S   0  0  0  0  0  0  0  0  0  0  0  0
  1  2  2  0
 19  1  1  0
  1 21  1  0
  2  3  1  0
  3 20  2  0
  4 20  1  0
 21  4  2  0
  4 22  1  0
  5 13  1  0
 17  5  1  0
  5 30  1  6
  7  6  1  0
  8  7  2  0
 10  7  1  0
  9  8  1  0
 12  9  2  0
 11 10  2  0
 12 11  1  0
 31 12  1  0
 13 27  1  0
 13 31  1  1
 14 15  1  1
 16 14  1  0
 14 27  1  0
 15 28  1  0
 17 16  1  0
 16 29  1  1
 17 24  1  1
 18 19  2  0
 18 24  1  0
 19 25  1  0
 20 23  1  0
 24 26  1  0
 25 26  2  0
M  END
$$$$
