
     RDKit          3D

 31 34  0  0  0  0  0  0  0  0999 V2000
  -14.4255    9.2384   -0.1800 C   0  0  0  0  0  0  0  0  0  0  0  0
  -13.6771   10.1789   -0.8525 C   0  0  0  0  0  0  0  0  0  0  0  0
  -12.3820   10.5040   -0.4635 C   0  0  0  0  0  0  0  0  0  0  0  0
  -12.5589    8.9321    1.3047 C   0  0  0  0  0  0  0  0  0  0  0  0
  -19.4950    7.2646   -2.7285 C   0  0  1  0  0  0  0  0  0  0  0  0
  -26.0930   11.7540   -2.7547 C   0  0  0  0  0  0  0  0  0  0  0  0
  -24.7408   11.2145   -2.4562 C   0  0  0  0  0  0  0  0  0  0  0  0
  -24.0966   10.4464   -3.3934 C   0  0  0  0  0  0  0  0  0  0  0  0
  -22.8467    9.9388   -3.1352 C   0  0  0  0  0  0  0  0  0  0  0  0
  -24.1015   11.4611   -1.2546 C   0  0  0  0  0  0  0  0  0  0  0  0
  -22.8330   10.9446   -0.9950 C   0  0  0  0  0  0  0  0  0  0  0  0
  -22.1908   10.1768   -1.9338 C   0  0  0  0  0  0  0  0  0  0  0  0
  -20.5758    7.6576   -1.7985 C   0  0  1  0  0  0  0  0  0  0  0  0
  -19.8802    6.0784   -0.1875 C   0  0  2  0  0  0  0  0  0  0  0  0
  -19.4068    6.3086    1.2609 C   0  0  0  0  0  0  0  0  0  0  0  0
  -18.7594    5.6563   -1.0702 C   0  0  1  0  0  0  0  0  0  0  0  0
  -18.2900    6.7087   -2.0292 C   0  0  2  0  0  0  0  0  0  0  0  0
  -16.1635    7.6963   -1.1903 C   0  0  0  0  0  0  0  0  0  0  0  0
  -15.7791    8.8995   -0.5933 C   0  0  0  0  0  0  0  0  0  0  0  0
  -11.8185    9.8741    0.6254 C   0  0  0  0  0  0  0  0  0  0  0  0
  -13.8614    8.6118    0.9056 C   0  0  0  0  0  0  0  0  0  0  0  0
  -11.9358    8.2620    2.4730 C   0  0  0  0  0  0  0  0  0  0  0  0
  -10.5376   10.2070    0.9964 F   0  0  0  0  0  0  0  0  0  0  0  0
  -17.4782    7.7175   -1.4358 N   0  0  0  0  0  0  0  0  0  0  0  0
  -16.9216    9.5958   -0.5125 N   0  0  0  0  0  0  0  0  0  0  0  0
  -17.9224    8.8879   -1.0137 N   0  0  0  0  0  0  0  0  0  0  0  0
  -20.7119    7.0400   -0.6219 O   0  0  0  0  0  0  0  0  0  0  0  0
  -20.2291    5.7238    2.1854 O   0  0  0  0  0  0  0  0  0  0  0  0
  -17.7128    5.1803   -0.2615 O   0  0  0  0  0  0  0  0  0  0  0  0
  -19.9172    6.3539   -3.7072 O   0  0  0  0  0  0  0  0  0  0  0  0
  -20.5792    9.4859   -1.6597 S   0  0  0  0  0  0  0  0  0  0  0  0
  1  2  2  0
 19  1  1  0
  1 21  1  0
  2  3  1  0
  3 20  2  0
  4 20  1  0
 21  4  2  0
  4 22  1  0
  5 13  1  0
 17  5  1  0
  5 30  1  6
  7  6  1  0
  8  7  2  0
 10  7  1  0
  9  8  1  0
 12  9  2  0
 11 10  2  0
 12 11  1  0
 31 12  1  0
 13 27  1  0
 13 31  1  1
 14 15  1  1
 16 14  1  0
 14 27  1  0
 15 28  1  0
 17 16  1  0
 16 29  1  1
 17 24  1  1
 18 19  2  0
 18 24  1  0
 19 25  1  0
 20 23  1  0
 24 26  1  0
 25 26  2  0
M  END
$$$$
