
     RDKit          3D

 31 34  0  0  0  0  0  0  0  0999 V2000
  -14.8351    9.7750    0.2013 C   0  0  0  0  0  0  0  0  0  0  0  0
  -14.5496   11.0737    0.5603 C   0  0  0  0  0  0  0  0  0  0  0  0
  -13.3307   11.4290    1.1282 C   0  0  0  0  0  0  0  0  0  0  0  0
  -12.6473    9.1614    0.9880 C   0  0  0  0  0  0  0  0  0  0  0  0
  -19.7008    7.6163   -2.6546 C   0  0  1  0  0  0  0  0  0  0  0  0
  -26.9021   10.7567   -0.8577 C   0  0  0  0  0  0  0  0  0  0  0  0
  -25.4586   10.4039   -0.8816 C   0  0  0  0  0  0  0  0  0  0  0  0
  -24.6898   10.7718   -1.9573 C   0  0  0  0  0  0  0  0  0  0  0  0
  -23.3541   10.4542   -1.9973 C   0  0  0  0  0  0  0  0  0  0  0  0
  -24.8558    9.7103    0.1521 C   0  0  0  0  0  0  0  0  0  0  0  0
  -23.4999    9.3890    0.1090 C   0  0  0  0  0  0  0  0  0  0  0  0
  -22.7332    9.7580   -0.9677 C   0  0  0  0  0  0  0  0  0  0  0  0
  -20.7144    7.6307   -1.5776 C   0  0  1  0  0  0  0  0  0  0  0  0
  -19.5813    5.9471   -0.3716 C   0  0  2  0  0  0  0  0  0  0  0  0
  -18.9852    6.0001    1.0485 C   0  0  0  0  0  0  0  0  0  0  0  0
  -18.5181    5.9035   -1.4114 C   0  0  1  0  0  0  0  0  0  0  0  0
  -18.3462    7.1779   -2.1821 C   0  0  2  0  0  0  0  0  0  0  0  0
  -16.3795    8.2052   -1.0517 C   0  0  0  0  0  0  0  0  0  0  0  0
  -16.1109    9.4091   -0.3957 C   0  0  0  0  0  0  0  0  0  0  0  0
  -12.3712   10.4631    1.3436 C   0  0  0  0  0  0  0  0  0  0  0  0
  -13.8768    8.8136    0.4173 C   0  0  0  0  0  0  0  0  0  0  0  0
  -11.6020    8.1350    1.2247 C   0  0  0  0  0  0  0  0  0  0  0  0
  -11.1720   10.8312    1.9055 F   0  0  0  0  0  0  0  0  0  0  0  0
  -17.6489    8.1979   -1.4735 N   0  0  0  0  0  0  0  0  0  0  0  0
  -17.2714   10.0764   -0.4639 N   0  0  0  0  0  0  0  0  0  0  0  0
  -18.1764    9.3513   -1.1037 N   0  0  0  0  0  0  0  0  0  0  0  0
  -20.6064    6.7996   -0.5374 O   0  0  0  0  0  0  0  0  0  0  0  0
  -19.7457    5.3282    1.9667 O   0  0  0  0  0  0  0  0  0  0  0  0
  -17.3190    5.4936   -0.8030 O   0  0  0  0  0  0  0  0  0  0  0  0
  -20.0784    6.8317   -3.7534 O   0  0  0  0  0  0  0  0  0  0  0  0
  -21.0048    9.3725   -1.0840 S   0  0  0  0  0  0  0  0  0  0  0  0
  1  2  2  0
 19  1  1  0
  1 21  1  0
  2  3  1  0
  3 20  2  0
  4 20  1  0
 21  4  2  0
  4 22  1  0
  5 13  1  0
 17  5  1  0
  5 30  1  6
  7  6  1  0
  8  7  2  0
 10  7  1  0
  9  8  1  0
 12  9  2  0
 11 10  2  0
 12 11  1  0
 31 12  1  0
 13 27  1  0
 13 31  1  1
 14 15  1  1
 16 14  1  0
 14 27  1  0
 15 28  1  0
 17 16  1  0
 16 29  1  1
 17 24  1  1
 18 19  2  0
 18 24  1  0
 19 25  1  0
 20 23  1  0
 24 26  1  0
 25 26  2  0
M  END
$$$$
