
     RDKit          3D

 31 34  0  0  0  0  0  0  0  0999 V2000
  -14.3028    8.9434    0.4626 C   0  0  0  0  0  0  0  0  0  0  0  0
  -13.8604    8.1227    1.4763 C   0  0  0  0  0  0  0  0  0  0  0  0
  -12.6413    8.3311    2.1126 C   0  0  0  0  0  0  0  0  0  0  0  0
  -12.2759   10.2125    0.7142 C   0  0  0  0  0  0  0  0  0  0  0  0
  -19.2789    7.2817   -2.5327 C   0  0  1  0  0  0  0  0  0  0  0  0
  -26.0047   11.5891   -1.0402 C   0  0  0  0  0  0  0  0  0  0  0  0
  -24.6149   11.0704   -1.1283 C   0  0  0  0  0  0  0  0  0  0  0  0
  -24.1513   10.2101   -0.1647 C   0  0  0  0  0  0  0  0  0  0  0  0
  -22.8695    9.7207   -0.2291 C   0  0  0  0  0  0  0  0  0  0  0  0
  -23.7624   11.4276   -2.1573 C   0  0  0  0  0  0  0  0  0  0  0  0
  -22.4619   10.9295   -2.2203 C   0  0  0  0  0  0  0  0  0  0  0  0
  -22.0006   10.0694   -1.2557 C   0  0  0  0  0  0  0  0  0  0  0  0
  -20.3391    7.5944   -1.5499 C   0  0  1  0  0  0  0  0  0  0  0  0
  -19.5899    5.9085   -0.0771 C   0  0  2  0  0  0  0  0  0  0  0  0
  -19.0820    6.0367    1.3722 C   0  0  0  0  0  0  0  0  0  0  0  0
  -18.4884    5.5636   -1.0157 C   0  0  1  0  0  0  0  0  0  0  0  0
  -18.0521    6.6881   -1.9060 C   0  0  2  0  0  0  0  0  0  0  0  0
  -16.0139    7.5074   -0.7331 C   0  0  0  0  0  0  0  0  0  0  0  0
  -15.5809    8.7230   -0.1976 C   0  0  0  0  0  0  0  0  0  0  0  0
  -11.8423    9.3861    1.7272 C   0  0  0  0  0  0  0  0  0  0  0  0
  -13.5042    9.9947    0.0800 C   0  0  0  0  0  0  0  0  0  0  0  0
  -11.4044   11.3448    0.3138 C   0  0  0  0  0  0  0  0  0  0  0  0
  -10.6407    9.5779    2.3664 F   0  0  0  0  0  0  0  0  0  0  0  0
  -17.2339    7.6589   -1.2603 N   0  0  0  0  0  0  0  0  0  0  0  0
  -16.5983    9.5608   -0.4422 N   0  0  0  0  0  0  0  0  0  0  0  0
  -17.5727    8.9218   -1.0716 N   0  0  0  0  0  0  0  0  0  0  0  0
  -20.4403    6.8909   -0.4189 O   0  0  0  0  0  0  0  0  0  0  0  0
  -19.6288    5.1021    2.2090 O   0  0  0  0  0  0  0  0  0  0  0  0
  -17.4178    5.0402   -0.2702 O   0  0  0  0  0  0  0  0  0  0  0  0
  -19.7182    6.4409   -3.5650 O   0  0  0  0  0  0  0  0  0  0  0  0
  -20.3541    9.4075   -1.2771 S   0  0  0  0  0  0  0  0  0  0  0  0
  1  2  2  0
 19  1  1  0
  1 21  1  0
  2  3  1  0
  3 20  2  0
  4 20  1  0
 21  4  2  0
  4 22  1  0
  5 13  1  0
 17  5  1  0
  5 30  1  6
  7  6  1  0
  8  7  2  0
 10  7  1  0
  9  8  1  0
 12  9  2  0
 11 10  2  0
 12 11  1  0
 31 12  1  0
 13 27  1  0
 13 31  1  1
 14 15  1  1
 16 14  1  0
 14 27  1  0
 15 28  1  0
 17 16  1  0
 16 29  1  1
 17 24  1  1
 18 19  2  0
 18 24  1  0
 19 25  1  0
 20 23  1  0
 24 26  1  0
 25 26  2  0
M  END
$$$$
