
     RDKit          3D

 29 31  0  0  0  0  0  0  0  0999 V2000
  -11.6161   12.7718   20.3623 C   0  0  0  0  0  0  0  0  0  0  0  0
   -8.2302    7.1100   22.0103 C   0  0  0  0  0  0  0  0  0  0  0  0
   -9.4333    7.8305   24.0033 C   0  0  0  0  0  0  0  0  0  0  0  0
   -6.9275   11.7989   20.6005 C   0  0  2  0  0  0  0  0  0  0  0  0
   -6.7625   12.4348   19.2473 C   0  0  0  0  0  0  0  0  0  0  0  0
   -6.9020   12.9248   21.6368 C   0  0  0  0  0  0  0  0  0  0  0  0
  -14.5872   11.2800   22.0290 C   0  0  0  0  0  0  0  0  0  0  0  0
  -15.0206   10.3903   22.9864 C   0  0  0  0  0  0  0  0  0  0  0  0
  -14.0599    9.8302   23.8125 C   0  0  0  0  0  0  0  0  0  0  0  0
  -12.7260   10.1359   23.6977 C   0  0  0  0  0  0  0  0  0  0  0  0
  -12.3514   11.0466   22.7048 C   0  0  0  0  0  0  0  0  0  0  0  0
  -13.2692   11.6305   21.8598 C   0  0  0  0  0  0  0  0  0  0  0  0
   -7.4899   14.4168   17.9192 C   0  0  0  0  0  0  0  0  0  0  0  0
   -5.8435   10.8278   20.9017 C   0  0  0  0  0  0  0  0  0  0  0  0
  -11.3699   13.7820   19.5106 N   0  0  0  0  0  0  0  0  0  0  0  0
  -10.5721   11.9634   20.6979 N   0  0  0  0  0  0  0  0  0  0  0  0
   -9.3293   12.1255   20.2252 C   0  0  0  0  0  0  0  0  0  0  0  0
   -9.1215   13.1871   19.3453 C   0  0  0  0  0  0  0  0  0  0  0  0
  -10.1582   14.0256   18.9840 C   0  0  0  0  0  0  0  0  0  0  0  0
   -8.2580   11.2365   20.5992 N   0  0  0  0  0  0  0  0  0  0  0  0
   -8.5987    9.8825   20.9081 C   0  0  0  0  0  0  0  0  0  0  0  0
   -8.6036    9.5682   22.3909 C   0  0  0  0  0  0  0  0  0  0  0  0
   -9.1632    8.1617   22.5403 C   0  0  1  0  0  0  0  0  0  0  0  0
   -7.7999   13.3463   18.8403 N   0  0  0  0  0  0  0  0  0  0  0  0
   -5.8132   12.2257   18.4836 O   0  0  0  0  0  0  0  0  0  0  0  0
  -14.4621    8.9329   24.7845 O   0  0  0  0  0  0  0  0  0  0  0  0
  -12.9169   12.5703   20.8622 N   0  0  0  0  0  0  0  0  0  0  0  0
  -11.8351    9.5597   24.5293 F   0  0  0  0  0  0  0  0  0  0  0  0
  -16.3401   10.0664   23.1273 F   0  0  0  0  0  0  0  0  0  0  0  0
  1 15  2  0
 16  1  1  0
  1 27  1  0
 23  2  1  1
 23  3  1  0
  4  5  1  0
  4  6  1  1
  4 14  1  0
 20  4  1  0
  5 24  1  0
  5 25  2  0
  7  8  2  0
 12  7  1  0
  8  9  1  0
  8 29  1  0
 10  9  2  0
  9 26  1  0
 11 10  1  0
 10 28  1  0
 12 11  2  0
 27 12  1  0
 24 13  1  0
 19 15  1  0
 17 16  2  0
 17 18  1  0
 20 17  1  0
 18 19  2  0
 18 24  1  0
 21 20  1  0
 22 21  1  0
 22 23  1  0
M  END
$$$$
