
     RDKit          3D

 29 31  0  0  0  0  0  0  0  0999 V2000
  -12.0400   12.7552   20.2917 C   0  0  0  0  0  0  0  0  0  0  0  0
   -9.1775    8.0388   23.1723 C   0  0  0  0  0  0  0  0  0  0  0  0
   -9.4427    7.2248   20.8907 C   0  0  0  0  0  0  0  0  0  0  0  0
   -7.3690   11.9431   21.0051 C   0  0  2  0  0  0  0  0  0  0  0  0
   -7.0733   12.7883   19.7964 C   0  0  0  0  0  0  0  0  0  0  0  0
   -7.5411   12.8937   22.1920 C   0  0  0  0  0  0  0  0  0  0  0  0
  -15.1351   11.4339   21.8993 C   0  0  0  0  0  0  0  0  0  0  0  0
  -15.6728   10.9124   23.0547 C   0  0  0  0  0  0  0  0  0  0  0  0
  -14.8479   10.8498   24.1659 C   0  0  0  0  0  0  0  0  0  0  0  0
  -13.5454   11.2841   24.1372 C   0  0  0  0  0  0  0  0  0  0  0  0
  -13.0600   11.8029   22.9327 C   0  0  0  0  0  0  0  0  0  0  0  0
  -13.8412   11.8866   21.8012 C   0  0  0  0  0  0  0  0  0  0  0  0
   -7.7446   14.9228   18.6944 C   0  0  0  0  0  0  0  0  0  0  0  0
   -6.2756   10.9805   21.2996 C   0  0  0  0  0  0  0  0  0  0  0  0
  -11.7492   13.8948   19.6410 N   0  0  0  0  0  0  0  0  0  0  0  0
  -11.0002   11.9463   20.6389 N   0  0  0  0  0  0  0  0  0  0  0  0
   -9.7197   12.2290   20.3658 C   0  0  0  0  0  0  0  0  0  0  0  0
   -9.4665   13.4222   19.6901 C   0  0  0  0  0  0  0  0  0  0  0  0
  -10.4976   14.2652   19.3232 C   0  0  0  0  0  0  0  0  0  0  0  0
   -8.6529   11.3357   20.7423 N   0  0  0  0  0  0  0  0  0  0  0  0
   -8.9486    9.9376   20.7970 C   0  0  0  0  0  0  0  0  0  0  0  0
   -7.8159    9.0860   21.3348 C   0  0  0  0  0  0  0  0  0  0  0  0
   -8.4441    7.8127   21.8807 C   0  0  1  0  0  0  0  0  0  0  0  0
   -8.1037   13.7103   19.3955 N   0  0  0  0  0  0  0  0  0  0  0  0
   -6.0248   12.7385   19.1435 O   0  0  0  0  0  0  0  0  0  0  0  0
  -15.3573   10.3314   25.3421 O   0  0  0  0  0  0  0  0  0  0  0  0
  -13.3790   12.4270   20.5778 N   0  0  0  0  0  0  0  0  0  0  0  0
  -12.7885   11.1986   25.2495 F   0  0  0  0  0  0  0  0  0  0  0  0
  -16.9649   10.4733   23.1163 F   0  0  0  0  0  0  0  0  0  0  0  0
  1 15  2  0
 16  1  1  0
  1 27  1  0
 23  2  1  1
 23  3  1  0
  4  5  1  0
  4  6  1  1
  4 14  1  0
 20  4  1  0
  5 24  1  0
  5 25  2  0
  7  8  2  0
 12  7  1  0
  8  9  1  0
  8 29  1  0
 10  9  2  0
  9 26  1  0
 11 10  1  0
 10 28  1  0
 12 11  2  0
 27 12  1  0
 24 13  1  0
 19 15  1  0
 17 16  2  0
 17 18  1  0
 20 17  1  0
 18 19  2  0
 18 24  1  0
 21 20  1  0
 22 21  1  0
 22 23  1  0
M  END
$$$$
