
     RDKit          3D

 29 31  0  0  0  0  0  0  0  0999 V2000
  -11.6924   12.7715   20.4292 C   0  0  0  0  0  0  0  0  0  0  0  0
   -7.9581    7.1514   22.3827 C   0  0  0  0  0  0  0  0  0  0  0  0
   -9.0153    8.2485   24.2847 C   0  0  0  0  0  0  0  0  0  0  0  0
   -6.9599   12.0594   20.7175 C   0  0  2  0  0  0  0  0  0  0  0  0
   -6.8199   12.6724   19.3510 C   0  0  0  0  0  0  0  0  0  0  0  0
   -7.0027   13.2083   21.7276 C   0  0  0  0  0  0  0  0  0  0  0  0
  -14.5761   11.0229   21.9585 C   0  0  0  0  0  0  0  0  0  0  0  0
  -14.9759   10.0831   22.8821 C   0  0  0  0  0  0  0  0  0  0  0  0
  -14.0259    9.6402   23.7879 C   0  0  0  0  0  0  0  0  0  0  0  0
  -12.7341   10.1061   23.7817 C   0  0  0  0  0  0  0  0  0  0  0  0
  -12.3919   11.0597   22.8177 C   0  0  0  0  0  0  0  0  0  0  0  0
  -13.3008   11.5315   21.8965 C   0  0  0  0  0  0  0  0  0  0  0  0
   -7.6436   14.5815   17.9733 C   0  0  0  0  0  0  0  0  0  0  0  0
   -5.8272   11.1554   21.0474 C   0  0  0  0  0  0  0  0  0  0  0  0
  -11.4950   13.7740   19.5559 N   0  0  0  0  0  0  0  0  0  0  0  0
  -10.6087   12.0286   20.7895 N   0  0  0  0  0  0  0  0  0  0  0  0
   -9.3731   12.2469   20.3205 C   0  0  0  0  0  0  0  0  0  0  0  0
   -9.2167   13.2979   19.4176 C   0  0  0  0  0  0  0  0  0  0  0  0
  -10.2945   14.0707   19.0310 C   0  0  0  0  0  0  0  0  0  0  0  0
   -8.2581   11.4260   20.7213 N   0  0  0  0  0  0  0  0  0  0  0  0
   -8.5275   10.0628   21.0593 C   0  0  0  0  0  0  0  0  0  0  0  0
   -8.0579    9.6640   22.4442 C   0  0  0  0  0  0  0  0  0  0  0  0
   -8.7578    8.3576   22.7865 C   0  0  1  0  0  0  0  0  0  0  0  0
   -7.9020   13.5169   18.9170 N   0  0  0  0  0  0  0  0  0  0  0  0
   -5.8552   12.4976   18.5979 O   0  0  0  0  0  0  0  0  0  0  0  0
  -14.3952    8.6967   24.7286 O   0  0  0  0  0  0  0  0  0  0  0  0
  -12.9840   12.5113   20.9259 N   0  0  0  0  0  0  0  0  0  0  0  0
  -11.8516    9.6388   24.6873 F   0  0  0  0  0  0  0  0  0  0  0  0
  -16.2535    9.6009   22.9155 F   0  0  0  0  0  0  0  0  0  0  0  0
  1 15  2  0
 16  1  1  0
  1 27  1  0
 23  2  1  1
 23  3  1  0
  4  5  1  0
  4  6  1  1
  4 14  1  0
 20  4  1  0
  5 24  1  0
  5 25  2  0
  7  8  2  0
 12  7  1  0
  8  9  1  0
  8 29  1  0
 10  9  2  0
  9 26  1  0
 11 10  1  0
 10 28  1  0
 12 11  2  0
 27 12  1  0
 24 13  1  0
 19 15  1  0
 17 16  2  0
 17 18  1  0
 20 17  1  0
 18 19  2  0
 18 24  1  0
 21 20  1  0
 22 21  1  0
 22 23  1  0
M  END
$$$$
