
     RDKit          3D

 29 31  0  0  0  0  0  0  0  0999 V2000
  -11.9074   12.9414   20.4758 C   0  0  0  0  0  0  0  0  0  0  0  0
   -9.0475    7.0663   22.5658 C   0  0  0  0  0  0  0  0  0  0  0  0
   -9.1138    8.8376   24.2382 C   0  0  0  0  0  0  0  0  0  0  0  0
   -7.2269   11.9098   20.6006 C   0  0  2  0  0  0  0  0  0  0  0  0
   -7.0692   12.6290   19.2889 C   0  0  0  0  0  0  0  0  0  0  0  0
   -7.1791   12.9671   21.7061 C   0  0  0  0  0  0  0  0  0  0  0  0
  -12.5669   11.1837   22.7211 C   0  0  0  0  0  0  0  0  0  0  0  0
  -12.8101   10.2180   23.6720 C   0  0  0  0  0  0  0  0  0  0  0  0
  -14.1231    9.8089   23.8387 C   0  0  0  0  0  0  0  0  0  0  0  0
  -15.1536   10.3322   23.0970 C   0  0  0  0  0  0  0  0  0  0  0  0
  -14.8397   11.3100   22.1478 C   0  0  0  0  0  0  0  0  0  0  0  0
  -13.5499   11.7490   21.9446 C   0  0  0  0  0  0  0  0  0  0  0  0
   -7.7895   14.6986   18.0976 C   0  0  0  0  0  0  0  0  0  0  0  0
   -6.1500   10.9109   20.8276 C   0  0  0  0  0  0  0  0  0  0  0  0
  -11.6594   14.0014   19.6874 N   0  0  0  0  0  0  0  0  0  0  0  0
  -10.8684   12.1032   20.7479 N   0  0  0  0  0  0  0  0  0  0  0  0
   -9.6289   12.2830   20.2730 C   0  0  0  0  0  0  0  0  0  0  0  0
   -9.4191   13.3964   19.4601 C   0  0  0  0  0  0  0  0  0  0  0  0
  -10.4507   14.2663   19.1643 C   0  0  0  0  0  0  0  0  0  0  0  0
   -8.5631   11.3616   20.5780 N   0  0  0  0  0  0  0  0  0  0  0  0
   -8.9147    9.9940   20.8038 C   0  0  0  0  0  0  0  0  0  0  0  0
   -8.1812    9.3496   21.9632 C   0  0  0  0  0  0  0  0  0  0  0  0
   -9.2116    8.5490   22.7449 C   0  0  1  0  0  0  0  0  0  0  0  0
   -8.1012   13.5746   18.9520 N   0  0  0  0  0  0  0  0  0  0  0  0
   -6.1300   12.4597   18.5031 O   0  0  0  0  0  0  0  0  0  0  0  0
  -14.4013    8.8405   24.7855 O   0  0  0  0  0  0  0  0  0  0  0  0
  -13.2050   12.7212   20.9759 N   0  0  0  0  0  0  0  0  0  0  0  0
  -16.4126    9.8962   23.3025 F   0  0  0  0  0  0  0  0  0  0  0  0
  -11.8072    9.6766   24.4249 F   0  0  0  0  0  0  0  0  0  0  0  0
  1 15  2  0
 16  1  1  0
  1 27  1  0
 23  2  1  1
 23  3  1  0
  4  5  1  0
  4  6  1  1
  4 14  1  0
 20  4  1  0
  5 24  1  0
  5 25  2  0
  7  8  2  0
 12  7  1  0
  8  9  1  0
  8 29  1  0
 10  9  2  0
  9 26  1  0
 11 10  1  0
 10 28  1  0
 12 11  2  0
 27 12  1  0
 24 13  1  0
 19 15  1  0
 17 16  2  0
 17 18  1  0
 20 17  1  0
 18 19  2  0
 18 24  1  0
 21 20  1  0
 22 21  1  0
 22 23  1  0
M  END
$$$$
