
     RDKit          3D

 29 31  0  0  0  0  0  0  0  0999 V2000
  -11.1172   13.0543   19.9771 C   0  0  0  0  0  0  0  0  0  0  0  0
   -6.8576   10.0678   24.8087 C   0  0  0  0  0  0  0  0  0  0  0  0
   -6.8061    8.6953   22.7957 C   0  0  0  0  0  0  0  0  0  0  0  0
  -11.7684    8.8153   22.1206 C   0  0  2  0  0  0  0  0  0  0  0  0
  -12.7882    9.4643   23.0159 C   0  0  0  0  0  0  0  0  0  0  0  0
  -12.4812    8.4390   20.8196 C   0  0  0  0  0  0  0  0  0  0  0  0
   -8.3067   12.6091   19.3585 C   0  0  0  0  0  0  0  0  0  0  0  0
   -6.9569   12.3942   19.1915 C   0  0  0  0  0  0  0  0  0  0  0  0
   -6.2405   13.3629   18.5077 C   0  0  0  0  0  0  0  0  0  0  0  0
   -6.8328   14.4972   18.0091 C   0  0  0  0  0  0  0  0  0  0  0  0
   -8.2074   14.6552   18.2124 C   0  0  0  0  0  0  0  0  0  0  0  0
   -8.9624   13.7208   18.8863 C   0  0  0  0  0  0  0  0  0  0  0  0
  -14.7016   11.0633   22.9585 C   0  0  0  0  0  0  0  0  0  0  0  0
  -11.1798    7.5945   22.7306 C   0  0  0  0  0  0  0  0  0  0  0  0
  -12.3529   13.4364   20.3429 N   0  0  0  0  0  0  0  0  0  0  0  0
  -10.6506   11.8749   20.4745 N   0  0  0  0  0  0  0  0  0  0  0  0
  -11.3552   11.0894   21.2997 C   0  0  0  0  0  0  0  0  0  0  0  0
  -12.6319   11.5265   21.6509 C   0  0  0  0  0  0  0  0  0  0  0  0
  -13.1355   12.7174   21.1646 C   0  0  0  0  0  0  0  0  0  0  0  0
  -10.8145    9.8549   21.8110 N   0  0  0  0  0  0  0  0  0  0  0  0
   -9.3979    9.7766   21.9901 C   0  0  0  0  0  0  0  0  0  0  0  0
   -8.9532    9.8289   23.4382 C   0  0  0  0  0  0  0  0  0  0  0  0
   -7.4356    9.9307   23.4287 C   0  0  1  0  0  0  0  0  0  0  0  0
  -13.3701   10.6904   22.5357 N   0  0  0  0  0  0  0  0  0  0  0  0
  -13.1463    9.0183   24.1119 O   0  0  0  0  0  0  0  0  0  0  0  0
   -4.8830   13.1774   18.3228 O   0  0  0  0  0  0  0  0  0  0  0  0
  -10.3497   13.8688   19.1227 N   0  0  0  0  0  0  0  0  0  0  0  0
   -6.0859   15.4063   17.3513 F   0  0  0  0  0  0  0  0  0  0  0  0
   -6.3376   11.2774   19.6764 F   0  0  0  0  0  0  0  0  0  0  0  0
  1 15  2  0
 16  1  1  0
  1 27  1  0
 23  2  1  1
 23  3  1  0
  4  5  1  0
  4  6  1  6
  4 14  1  0
 20  4  1  0
  5 24  1  0
  5 25  2  0
  7  8  2  0
 12  7  1  0
  8  9  1  0
  8 29  1  0
 10  9  2  0
  9 26  1  0
 11 10  1  0
 10 28  1  0
 12 11  2  0
 27 12  1  0
 24 13  1  0
 19 15  1  0
 17 16  2  0
 17 18  1  0
 20 17  1  0
 18 19  2  0
 18 24  1  0
 21 20  1  0
 22 21  1  0
 22 23  1  0
M  END
$$$$
