
     RDKit          3D

 29 31  0  0  0  0  0  0  0  0999 V2000
  -11.8473   12.8655   20.0562 C   0  0  0  0  0  0  0  0  0  0  0  0
   -8.8267    7.9222   23.5001 C   0  0  0  0  0  0  0  0  0  0  0  0
   -7.1692    8.4741   21.8011 C   0  0  0  0  0  0  0  0  0  0  0  0
   -7.1181   12.2421   20.5390 C   0  0  2  0  0  0  0  0  0  0  0  0
   -6.9235   12.9868   19.2467 C   0  0  0  0  0  0  0  0  0  0  0  0
   -7.2480   13.2872   21.6495 C   0  0  0  0  0  0  0  0  0  0  0  0
  -14.8019   11.3790   21.7894 C   0  0  0  0  0  0  0  0  0  0  0  0
  -15.2111   10.5614   22.8189 C   0  0  0  0  0  0  0  0  0  0  0  0
  -14.2248   10.0010   23.6139 C   0  0  0  0  0  0  0  0  0  0  0  0
  -12.8890   10.2381   23.4009 C   0  0  0  0  0  0  0  0  0  0  0  0
  -12.5396   11.0775   22.3383 C   0  0  0  0  0  0  0  0  0  0  0  0
  -13.4834   11.6587   21.5205 C   0  0  0  0  0  0  0  0  0  0  0  0
   -7.7279   14.9993   18.0122 C   0  0  0  0  0  0  0  0  0  0  0  0
   -5.9788   11.3379   20.8444 C   0  0  0  0  0  0  0  0  0  0  0  0
  -11.6329   13.9517   19.2941 N   0  0  0  0  0  0  0  0  0  0  0  0
  -10.7632   12.1175   20.4043 N   0  0  0  0  0  0  0  0  0  0  0  0
   -9.5112   12.4093   20.0278 C   0  0  0  0  0  0  0  0  0  0  0  0
   -9.3376   13.5457   19.2386 C   0  0  0  0  0  0  0  0  0  0  0  0
  -10.4153   14.3261   18.8674 C   0  0  0  0  0  0  0  0  0  0  0  0
   -8.3957   11.5804   20.4105 N   0  0  0  0  0  0  0  0  0  0  0  0
   -8.6429   10.1851   20.6022 C   0  0  0  0  0  0  0  0  0  0  0  0
   -9.2686    9.8455   21.9405 C   0  0  0  0  0  0  0  0  0  0  0  0
   -8.2280    9.0624   22.7262 C   0  0  1  0  0  0  0  0  0  0  0  0
   -8.0051   13.8431   18.8350 N   0  0  0  0  0  0  0  0  0  0  0  0
   -5.9154   12.9084   18.5354 O   0  0  0  0  0  0  0  0  0  0  0  0
  -14.6023    9.1751   24.6565 O   0  0  0  0  0  0  0  0  0  0  0  0
  -13.1554   12.5280   20.4532 N   0  0  0  0  0  0  0  0  0  0  0  0
  -11.9724    9.6653   24.2065 F   0  0  0  0  0  0  0  0  0  0  0  0
  -16.5317   10.3069   23.0581 F   0  0  0  0  0  0  0  0  0  0  0  0
  1 15  2  0
 16  1  1  0
  1 27  1  0
 23  2  1  6
 23  3  1  0
  4  5  1  0
  4  6  1  1
  4 14  1  0
 20  4  1  0
  5 24  1  0
  5 25  2  0
  7  8  2  0
 12  7  1  0
  8  9  1  0
  8 29  1  0
 10  9  2  0
  9 26  1  0
 11 10  1  0
 10 28  1  0
 12 11  2  0
 27 12  1  0
 24 13  1  0
 19 15  1  0
 17 16  2  0
 17 18  1  0
 20 17  1  0
 18 19  2  0
 18 24  1  0
 21 20  1  0
 22 21  1  0
 22 23  1  0
M  END
$$$$
