
     RDKit          3D

 29 31  0  0  0  0  0  0  0  0999 V2000
  -11.7938   12.8959   20.4645 C   0  0  0  0  0  0  0  0  0  0  0  0
   -7.0607    6.7328   21.3168 C   0  0  0  0  0  0  0  0  0  0  0  0
   -8.6661    7.6612   22.8978 C   0  0  0  0  0  0  0  0  0  0  0  0
   -7.0867   12.0934   20.8968 C   0  0  2  0  0  0  0  0  0  0  0  0
   -6.9053   12.6123   19.4966 C   0  0  0  0  0  0  0  0  0  0  0  0
   -7.1205   13.3066   21.8292 C   0  0  0  0  0  0  0  0  0  0  0  0
  -14.8042   11.5370   22.2005 C   0  0  0  0  0  0  0  0  0  0  0  0
  -15.2554   10.6318   23.1349 C   0  0  0  0  0  0  0  0  0  0  0  0
  -14.3011    9.8869   23.8083 C   0  0  0  0  0  0  0  0  0  0  0  0
  -12.9564   10.0298   23.5686 C   0  0  0  0  0  0  0  0  0  0  0  0
  -12.5639   10.9662   22.6069 C   0  0  0  0  0  0  0  0  0  0  0  0
  -13.4746   11.7308   21.9117 C   0  0  0  0  0  0  0  0  0  0  0  0
   -7.6549   14.4459   17.9810 C   0  0  0  0  0  0  0  0  0  0  0  0
   -5.9834   11.1866   21.3082 C   0  0  0  0  0  0  0  0  0  0  0  0
  -11.5548   13.8342   19.5322 N   0  0  0  0  0  0  0  0  0  0  0  0
  -10.7359   12.1530   20.8947 N   0  0  0  0  0  0  0  0  0  0  0  0
   -9.4865   12.3111   20.4384 C   0  0  0  0  0  0  0  0  0  0  0  0
   -9.2867   13.2969   19.4726 C   0  0  0  0  0  0  0  0  0  0  0  0
  -10.3374   14.0678   19.0143 C   0  0  0  0  0  0  0  0  0  0  0  0
   -8.4000   11.4922   20.9147 N   0  0  0  0  0  0  0  0  0  0  0  0
   -8.7095   10.1608   21.3348 C   0  0  0  0  0  0  0  0  0  0  0  0
   -7.5373    9.2021   21.2671 C   0  0  0  0  0  0  0  0  0  0  0  0
   -8.0978    7.8059   21.4910 C   0  0  1  0  0  0  0  0  0  0  0  0
   -7.9576   13.4517   18.9862 N   0  0  0  0  0  0  0  0  0  0  0  0
   -5.9309   12.3661   18.7767 O   0  0  0  0  0  0  0  0  0  0  0  0
  -14.7211    8.9691   24.7532 O   0  0  0  0  0  0  0  0  0  0  0  0
  -13.1007   12.6991   20.9500 N   0  0  0  0  0  0  0  0  0  0  0  0
  -12.0724    9.2775   24.2541 F   0  0  0  0  0  0  0  0  0  0  0  0
  -16.5857   10.4669   23.3976 F   0  0  0  0  0  0  0  0  0  0  0  0
  1 15  2  0
 16  1  1  0
  1 27  1  0
 23  2  1  1
 23  3  1  0
  4  5  1  0
  4  6  1  1
  4 14  1  0
 20  4  1  0
  5 24  1  0
  5 25  2  0
  7  8  2  0
 12  7  1  0
  8  9  1  0
  8 29  1  0
 10  9  2  0
  9 26  1  0
 11 10  1  0
 10 28  1  0
 12 11  2  0
 27 12  1  0
 24 13  1  0
 19 15  1  0
 17 16  2  0
 17 18  1  0
 20 17  1  0
 18 19  2  0
 18 24  1  0
 21 20  1  0
 22 21  1  0
 22 23  1  0
M  END
$$$$
