
     RDKit          3D

 29 31  0  0  0  0  0  0  0  0999 V2000
  -11.9719   12.7214   20.1965 C   0  0  0  0  0  0  0  0  0  0  0  0
   -7.7598    7.4661   22.7619 C   0  0  0  0  0  0  0  0  0  0  0  0
  -10.1299    7.8291   23.1972 C   0  0  0  0  0  0  0  0  0  0  0  0
   -7.2278   12.1075   20.5189 C   0  0  2  0  0  0  0  0  0  0  0  0
   -7.0829   12.8040   19.1936 C   0  0  0  0  0  0  0  0  0  0  0  0
   -7.3142   13.1928   21.5945 C   0  0  0  0  0  0  0  0  0  0  0  0
  -14.8391   10.9678   21.7874 C   0  0  0  0  0  0  0  0  0  0  0  0
  -15.2172   10.0556   22.7470 C   0  0  0  0  0  0  0  0  0  0  0  0
  -14.2378    9.6109   23.6200 C   0  0  0  0  0  0  0  0  0  0  0  0
  -12.9382   10.0490   23.5482 C   0  0  0  0  0  0  0  0  0  0  0  0
  -12.6192   10.9755   22.5504 C   0  0  0  0  0  0  0  0  0  0  0  0
  -13.5577   11.4479   21.6596 C   0  0  0  0  0  0  0  0  0  0  0  0
   -7.9337   14.7713   17.9180 C   0  0  0  0  0  0  0  0  0  0  0  0
   -6.0779   11.2130   20.8131 C   0  0  0  0  0  0  0  0  0  0  0  0
  -11.7866   13.7785   19.3873 N   0  0  0  0  0  0  0  0  0  0  0  0
  -10.8754   11.9847   20.5297 N   0  0  0  0  0  0  0  0  0  0  0  0
   -9.6388   12.2602   20.0946 C   0  0  0  0  0  0  0  0  0  0  0  0
   -9.4953   13.3666   19.2582 C   0  0  0  0  0  0  0  0  0  0  0  0
  -10.5863   14.1348   18.9005 C   0  0  0  0  0  0  0  0  0  0  0  0
   -8.5096   11.4439   20.4642 N   0  0  0  0  0  0  0  0  0  0  0  0
   -8.7498   10.0569   20.7164 C   0  0  0  0  0  0  0  0  0  0  0  0
   -8.7812    9.6917   22.1872 C   0  0  0  0  0  0  0  0  0  0  0  0
   -8.9804    8.1855   22.2620 C   0  0  1  0  0  0  0  0  0  0  0  0
   -8.1793   13.6465   18.7927 N   0  0  0  0  0  0  0  0  0  0  0  0
   -6.1032   12.6976   18.4472 O   0  0  0  0  0  0  0  0  0  0  0  0
  -14.5847    8.6945   24.5954 O   0  0  0  0  0  0  0  0  0  0  0  0
  -13.2637   12.4010   20.6559 N   0  0  0  0  0  0  0  0  0  0  0  0
  -12.0267    9.5815   24.4244 F   0  0  0  0  0  0  0  0  0  0  0  0
  -16.5017    9.6013   22.8458 F   0  0  0  0  0  0  0  0  0  0  0  0
  1 15  2  0
 16  1  1  0
  1 27  1  0
 23  2  1  1
 23  3  1  0
  4  5  1  0
  4  6  1  1
  4 14  1  0
 20  4  1  0
  5 24  1  0
  5 25  2  0
  7  8  2  0
 12  7  1  0
  8  9  1  0
  8 29  1  0
 10  9  2  0
  9 26  1  0
 11 10  1  0
 10 28  1  0
 12 11  2  0
 27 12  1  0
 24 13  1  0
 19 15  1  0
 17 16  2  0
 17 18  1  0
 20 17  1  0
 18 19  2  0
 18 24  1  0
 21 20  1  0
 22 21  1  0
 22 23  1  0
M  END
$$$$
