
     RDKit          3D

 29 31  0  0  0  0  0  0  0  0999 V2000
  -11.7767   12.6566   20.3208 C   0  0  0  0  0  0  0  0  0  0  0  0
   -8.9277    7.3473   22.5800 C   0  0  0  0  0  0  0  0  0  0  0  0
   -6.6005    7.6438   23.2395 C   0  0  0  0  0  0  0  0  0  0  0  0
   -7.0736   11.8028   20.6946 C   0  0  2  0  0  0  0  0  0  0  0  0
   -6.8855   12.4458   19.3478 C   0  0  0  0  0  0  0  0  0  0  0  0
   -7.1072   12.9266   21.7329 C   0  0  0  0  0  0  0  0  0  0  0  0
  -12.4749   10.7555   22.4158 C   0  0  0  0  0  0  0  0  0  0  0  0
  -12.7399    9.7620   23.3316 C   0  0  0  0  0  0  0  0  0  0  0  0
  -14.0692    9.4382   23.5490 C   0  0  0  0  0  0  0  0  0  0  0  0
  -15.0947   10.0698   22.8891 C   0  0  0  0  0  0  0  0  0  0  0  0
  -14.7583   11.0702   21.9718 C   0  0  0  0  0  0  0  0  0  0  0  0
  -13.4518   11.4273   21.7207 C   0  0  0  0  0  0  0  0  0  0  0  0
   -7.6241   14.4116   18.0021 C   0  0  0  0  0  0  0  0  0  0  0  0
   -5.9745   10.8588   21.0259 C   0  0  0  0  0  0  0  0  0  0  0  0
  -11.5315   13.6747   19.4781 N   0  0  0  0  0  0  0  0  0  0  0  0
  -10.7226   11.8743   20.6855 N   0  0  0  0  0  0  0  0  0  0  0  0
   -9.4710   12.0690   20.2496 C   0  0  0  0  0  0  0  0  0  0  0  0
   -9.2648   13.1375   19.3778 C   0  0  0  0  0  0  0  0  0  0  0  0
  -10.3115   13.9503   18.9877 C   0  0  0  0  0  0  0  0  0  0  0  0
   -8.3888   11.2067   20.6535 N   0  0  0  0  0  0  0  0  0  0  0  0
   -8.7038    9.8438   20.9501 C   0  0  0  0  0  0  0  0  0  0  0  0
   -7.5031    8.9989   21.3271 C   0  0  0  0  0  0  0  0  0  0  0  0
   -7.8202    8.3586   22.6700 C   0  0  1  0  0  0  0  0  0  0  0  0
   -7.9335   13.3315   18.9120 N   0  0  0  0  0  0  0  0  0  0  0  0
   -5.9093   12.2626   18.6119 O   0  0  0  0  0  0  0  0  0  0  0  0
  -14.3694    8.4448   24.4625 O   0  0  0  0  0  0  0  0  0  0  0  0
  -13.0859   12.4210   20.7820 N   0  0  0  0  0  0  0  0  0  0  0  0
  -16.3702    9.7135   23.1410 F   0  0  0  0  0  0  0  0  0  0  0  0
  -11.7426    9.1137   24.0033 F   0  0  0  0  0  0  0  0  0  0  0  0
  1 15  2  0
 16  1  1  0
  1 27  1  0
 23  2  1  6
 23  3  1  0
  4  5  1  0
  4  6  1  1
  4 14  1  0
 20  4  1  0
  5 24  1  0
  5 25  2  0
  7  8  2  0
 12  7  1  0
  8  9  1  0
  8 29  1  0
 10  9  2  0
  9 26  1  0
 11 10  1  0
 10 28  1  0
 12 11  2  0
 27 12  1  0
 24 13  1  0
 19 15  1  0
 17 16  2  0
 17 18  1  0
 20 17  1  0
 18 19  2  0
 18 24  1  0
 21 20  1  0
 22 21  1  0
 22 23  1  0
M  END
$$$$
