
     RDKit          3D

 29 31  0  0  0  0  0  0  0  0999 V2000
  -11.8649   12.6364   20.2914 C   0  0  0  0  0  0  0  0  0  0  0  0
   -8.4550    7.8795   24.0930 C   0  0  0  0  0  0  0  0  0  0  0  0
   -9.6392    7.3609   22.0273 C   0  0  0  0  0  0  0  0  0  0  0  0
   -7.1288   11.9193   20.4978 C   0  0  2  0  0  0  0  0  0  0  0  0
   -7.0145   12.5115   19.1198 C   0  0  0  0  0  0  0  0  0  0  0  0
   -7.1499   13.0833   21.4912 C   0  0  0  0  0  0  0  0  0  0  0  0
  -12.5115   11.0131   22.6951 C   0  0  0  0  0  0  0  0  0  0  0  0
  -12.7196   10.0357   23.6424 C   0  0  0  0  0  0  0  0  0  0  0  0
  -13.9538    9.4066   23.6437 C   0  0  0  0  0  0  0  0  0  0  0  0
  -14.9420    9.7295   22.7464 C   0  0  0  0  0  0  0  0  0  0  0  0
  -14.6673   10.7311   21.8100 C   0  0  0  0  0  0  0  0  0  0  0  0
  -13.4556   11.3850   21.7682 C   0  0  0  0  0  0  0  0  0  0  0  0
   -7.8618   14.4012   17.7298 C   0  0  0  0  0  0  0  0  0  0  0  0
   -5.9915   11.0182   20.8191 C   0  0  0  0  0  0  0  0  0  0  0  0
  -11.6829   13.6252   19.3993 N   0  0  0  0  0  0  0  0  0  0  0  0
  -10.7756   11.8969   20.6415 N   0  0  0  0  0  0  0  0  0  0  0  0
   -9.5490   12.1056   20.1453 C   0  0  0  0  0  0  0  0  0  0  0  0
   -9.4085   13.1427   19.2238 C   0  0  0  0  0  0  0  0  0  0  0  0
  -10.4923   13.9117   18.8467 C   0  0  0  0  0  0  0  0  0  0  0  0
   -8.4277   11.2886   20.5365 N   0  0  0  0  0  0  0  0  0  0  0  0
   -8.6928    9.9312   20.9002 C   0  0  0  0  0  0  0  0  0  0  0  0
   -8.8047    9.7012   22.3942 C   0  0  0  0  0  0  0  0  0  0  0  0
   -8.5376    8.2229   22.6327 C   0  0  1  0  0  0  0  0  0  0  0  0
   -8.1035   13.3515   18.6943 N   0  0  0  0  0  0  0  0  0  0  0  0
   -6.0650   12.3235   18.3507 O   0  0  0  0  0  0  0  0  0  0  0  0
  -14.1949    8.4204   24.5823 O   0  0  0  0  0  0  0  0  0  0  0  0
  -13.1469   12.3862   20.8170 N   0  0  0  0  0  0  0  0  0  0  0  0
  -16.1245    9.0840   22.7946 F   0  0  0  0  0  0  0  0  0  0  0  0
  -11.7568    9.6903   24.5477 F   0  0  0  0  0  0  0  0  0  0  0  0
  1 15  2  0
 16  1  1  0
  1 27  1  0
 23  2  1  1
 23  3  1  0
  4  5  1  0
  4  6  1  1
  4 14  1  0
 20  4  1  0
  5 24  1  0
  5 25  2  0
  7  8  2  0
 12  7  1  0
  8  9  1  0
  8 29  1  0
 10  9  2  0
  9 26  1  0
 11 10  1  0
 10 28  1  0
 12 11  2  0
 27 12  1  0
 24 13  1  0
 19 15  1  0
 17 16  2  0
 17 18  1  0
 20 17  1  0
 18 19  2  0
 18 24  1  0
 21 20  1  0
 22 21  1  0
 22 23  1  0
M  END
$$$$
