
     RDKit          3D

 29 31  0  0  0  0  0  0  0  0999 V2000
  -11.8600   12.8664   20.3463 C   0  0  0  0  0  0  0  0  0  0  0  0
   -9.8405    7.8026   21.6913 C   0  0  0  0  0  0  0  0  0  0  0  0
   -7.8476    7.7098   23.0908 C   0  0  0  0  0  0  0  0  0  0  0  0
   -7.1468   12.1086   20.7920 C   0  0  2  0  0  0  0  0  0  0  0  0
   -6.9608   12.6743   19.4106 C   0  0  0  0  0  0  0  0  0  0  0  0
   -7.2033   13.2909   21.7623 C   0  0  0  0  0  0  0  0  0  0  0  0
  -12.5724   11.2927   22.7253 C   0  0  0  0  0  0  0  0  0  0  0  0
  -12.8236   10.3800   23.7252 C   0  0  0  0  0  0  0  0  0  0  0  0
  -14.1085    9.8690   23.8090 C   0  0  0  0  0  0  0  0  0  0  0  0
  -15.1045   10.2440   22.9411 C   0  0  0  0  0  0  0  0  0  0  0  0
  -14.7842   11.1751   21.9480 C   0  0  0  0  0  0  0  0  0  0  0  0
  -13.5214   11.7112   21.8236 C   0  0  0  0  0  0  0  0  0  0  0  0
   -7.7214   14.5461   17.9481 C   0  0  0  0  0  0  0  0  0  0  0  0
   -6.0354   11.2029   21.1834 C   0  0  0  0  0  0  0  0  0  0  0  0
  -11.6255   13.8369   19.4464 N   0  0  0  0  0  0  0  0  0  0  0  0
  -10.7963   12.1232   20.7614 N   0  0  0  0  0  0  0  0  0  0  0  0
   -9.5454   12.3113   20.3208 C   0  0  0  0  0  0  0  0  0  0  0  0
   -9.3504   13.3298   19.3886 C   0  0  0  0  0  0  0  0  0  0  0  0
  -10.4071   14.1020   18.9464 C   0  0  0  0  0  0  0  0  0  0  0  0
   -8.4525   11.4910   20.7798 N   0  0  0  0  0  0  0  0  0  0  0  0
   -8.7485   10.1431   21.1545 C   0  0  0  0  0  0  0  0  0  0  0  0
   -8.9173    9.9384   22.6469 C   0  0  0  0  0  0  0  0  0  0  0  0
   -9.1590    8.4521   22.8623 C   0  0  1  0  0  0  0  0  0  0  0  0
   -8.0196   13.5166   18.9186 N   0  0  0  0  0  0  0  0  0  0  0  0
   -5.9778   12.4633   18.6914 O   0  0  0  0  0  0  0  0  0  0  0  0
  -14.3938    8.9503   24.8020 O   0  0  0  0  0  0  0  0  0  0  0  0
  -13.1682   12.6380   20.8144 N   0  0  0  0  0  0  0  0  0  0  0  0
  -16.3372    9.7139   23.0702 F   0  0  0  0  0  0  0  0  0  0  0  0
  -11.8546    9.9852   24.6033 F   0  0  0  0  0  0  0  0  0  0  0  0
  1 15  2  0
 16  1  1  0
  1 27  1  0
 23  2  1  6
 23  3  1  0
  4  5  1  0
  4  6  1  1
  4 14  1  0
 20  4  1  0
  5 24  1  0
  5 25  2  0
  7  8  2  0
 12  7  1  0
  8  9  1  0
  8 29  1  0
 10  9  2  0
  9 26  1  0
 11 10  1  0
 10 28  1  0
 12 11  2  0
 27 12  1  0
 24 13  1  0
 19 15  1  0
 17 16  2  0
 17 18  1  0
 20 17  1  0
 18 19  2  0
 18 24  1  0
 21 20  1  0
 22 21  1  0
 22 23  1  0
M  END
$$$$
