
     RDKit          3D

 29 31  0  0  0  0  0  0  0  0999 V2000
  -11.6765   12.5336   20.3633 C   0  0  0  0  0  0  0  0  0  0  0  0
   -7.6121    7.0607   23.0986 C   0  0  0  0  0  0  0  0  0  0  0  0
   -9.8561    7.9803   23.3382 C   0  0  0  0  0  0  0  0  0  0  0  0
   -6.9368   11.9003   20.7110 C   0  0  2  0  0  0  0  0  0  0  0  0
   -6.7821   12.5948   19.3857 C   0  0  0  0  0  0  0  0  0  0  0  0
   -7.0243   12.9871   21.7850 C   0  0  0  0  0  0  0  0  0  0  0  0
  -12.2842   10.8870   22.7053 C   0  0  0  0  0  0  0  0  0  0  0  0
  -12.4841    9.9738   23.7163 C   0  0  0  0  0  0  0  0  0  0  0  0
  -13.7578    9.4461   23.8513 C   0  0  0  0  0  0  0  0  0  0  0  0
  -14.7918    9.8055   23.0221 C   0  0  0  0  0  0  0  0  0  0  0  0
  -14.5230   10.7381   22.0153 C   0  0  0  0  0  0  0  0  0  0  0  0
  -13.2733   11.2905   21.8405 C   0  0  0  0  0  0  0  0  0  0  0  0
   -7.6180   14.5644   18.1038 C   0  0  0  0  0  0  0  0  0  0  0  0
   -5.7922   11.0014   21.0121 C   0  0  0  0  0  0  0  0  0  0  0  0
  -11.4827   13.5892   19.5540 N   0  0  0  0  0  0  0  0  0  0  0  0
  -10.5849   11.7927   20.7030 N   0  0  0  0  0  0  0  0  0  0  0  0
   -9.3449   12.0626   20.2741 C   0  0  0  0  0  0  0  0  0  0  0  0
   -9.1925   13.1675   19.4372 C   0  0  0  0  0  0  0  0  0  0  0  0
  -10.2783   13.9400   19.0731 C   0  0  0  0  0  0  0  0  0  0  0  0
   -8.2211   11.2420   20.6503 N   0  0  0  0  0  0  0  0  0  0  0  0
   -8.4684    9.8564   20.9027 C   0  0  0  0  0  0  0  0  0  0  0  0
   -8.0675    9.3990   22.2912 C   0  0  0  0  0  0  0  0  0  0  0  0
   -8.6087    7.9878   22.4624 C   0  0  1  0  0  0  0  0  0  0  0  0
   -7.8729   13.4416   18.9784 N   0  0  0  0  0  0  0  0  0  0  0  0
   -5.7989   12.4837   18.6446 O   0  0  0  0  0  0  0  0  0  0  0  0
  -13.9918    8.5263   24.8568 O   0  0  0  0  0  0  0  0  0  0  0  0
  -12.9721   12.2192   20.8162 N   0  0  0  0  0  0  0  0  0  0  0  0
  -16.0113    9.2594   23.2005 F   0  0  0  0  0  0  0  0  0  0  0  0
  -11.4763    9.5944   24.5568 F   0  0  0  0  0  0  0  0  0  0  0  0
  1 15  2  0
 16  1  1  0
  1 27  1  0
 23  2  1  1
 23  3  1  0
  4  5  1  0
  4  6  1  1
  4 14  1  0
 20  4  1  0
  5 24  1  0
  5 25  2  0
  7  8  2  0
 12  7  1  0
  8  9  1  0
  8 29  1  0
 10  9  2  0
  9 26  1  0
 11 10  1  0
 10 28  1  0
 12 11  2  0
 27 12  1  0
 24 13  1  0
 19 15  1  0
 17 16  2  0
 17 18  1  0
 20 17  1  0
 18 19  2  0
 18 24  1  0
 21 20  1  0
 22 21  1  0
 22 23  1  0
M  END
$$$$
