
     RDKit          3D

 29 31  0  0  0  0  0  0  0  0999 V2000
  -12.0639   12.9562   20.2799 C   0  0  0  0  0  0  0  0  0  0  0  0
   -7.8170    8.5116   23.7419 C   0  0  0  0  0  0  0  0  0  0  0  0
   -9.7560    7.3937   22.7778 C   0  0  0  0  0  0  0  0  0  0  0  0
   -7.3721   11.9772   20.4042 C   0  0  2  0  0  0  0  0  0  0  0  0
   -7.2354   12.6328   19.0572 C   0  0  0  0  0  0  0  0  0  0  0  0
   -7.3237   13.0879   21.4560 C   0  0  0  0  0  0  0  0  0  0  0  0
  -12.7102   11.2797   22.6058 C   0  0  0  0  0  0  0  0  0  0  0  0
  -12.9434   10.3243   23.5695 C   0  0  0  0  0  0  0  0  0  0  0  0
  -14.2415    9.8583   23.6991 C   0  0  0  0  0  0  0  0  0  0  0  0
  -15.2673   10.3171   22.9096 C   0  0  0  0  0  0  0  0  0  0  0  0
  -14.9640   11.2879   21.9498 C   0  0  0  0  0  0  0  0  0  0  0  0
  -13.6891   11.7819   21.7823 C   0  0  0  0  0  0  0  0  0  0  0  0
   -7.9891   14.6343   17.7740 C   0  0  0  0  0  0  0  0  0  0  0  0
   -6.2828   11.0012   20.6681 C   0  0  0  0  0  0  0  0  0  0  0  0
  -11.8350   13.9786   19.4379 N   0  0  0  0  0  0  0  0  0  0  0  0
  -11.0137   12.1424   20.5814 N   0  0  0  0  0  0  0  0  0  0  0  0
   -9.7811   12.3106   20.0848 C   0  0  0  0  0  0  0  0  0  0  0  0
   -9.5911   13.3849   19.2162 C   0  0  0  0  0  0  0  0  0  0  0  0
  -10.6345   14.2292   18.8894 C   0  0  0  0  0  0  0  0  0  0  0  0
   -8.7028   11.4157   20.4230 N   0  0  0  0  0  0  0  0  0  0  0  0
   -9.0382   10.0575   20.7192 C   0  0  0  0  0  0  0  0  0  0  0  0
   -9.3194    9.7950   22.1853 C   0  0  0  0  0  0  0  0  0  0  0  0
   -8.6895    8.4515   22.5201 C   0  0  1  0  0  0  0  0  0  0  0  0
   -8.2804   13.5507   18.6857 N   0  0  0  0  0  0  0  0  0  0  0  0
   -6.3027   12.4342   18.2705 O   0  0  0  0  0  0  0  0  0  0  0  0
  -14.5094    8.8984   24.6576 O   0  0  0  0  0  0  0  0  0  0  0  0
  -13.3540   12.7482   20.8043 N   0  0  0  0  0  0  0  0  0  0  0  0
  -16.5116    9.8275   23.0805 F   0  0  0  0  0  0  0  0  0  0  0  0
  -11.9448    9.8463   24.3697 F   0  0  0  0  0  0  0  0  0  0  0  0
  1 15  2  0
 16  1  1  0
  1 27  1  0
 23  2  1  1
 23  3  1  0
  4  5  1  0
  4  6  1  1
  4 14  1  0
 20  4  1  0
  5 24  1  0
  5 25  2  0
  7  8  2  0
 12  7  1  0
  8  9  1  0
  8 29  1  0
 10  9  2  0
  9 26  1  0
 11 10  1  0
 10 28  1  0
 12 11  2  0
 27 12  1  0
 24 13  1  0
 19 15  1  0
 17 16  2  0
 17 18  1  0
 20 17  1  0
 18 19  2  0
 18 24  1  0
 21 20  1  0
 22 21  1  0
 22 23  1  0
M  END
$$$$
