
     RDKit          3D

 34 38  0  0  0  0  0  0  0  0999 V2000
   27.8195  -12.2508   11.7821 O   0  0  0  0  0  0  0  0  0  0  0  0
   26.9416  -11.7687   10.9749 C   0  0  0  0  0  0  0  0  0  0  0  0
   25.6507  -12.3109   10.8998 N   0  0  0  0  0  0  0  0  0  0  0  0
   25.4516  -13.6271   11.5057 C   0  0  0  0  0  0  0  0  0  0  0  0
   24.4676  -13.3364   12.6520 C   0  0  0  0  0  0  0  0  0  0  0  0
   23.2384  -12.9683   11.9518 N   0  0  0  0  0  0  0  0  0  0  0  0
   22.1416  -13.8328   12.1329 C   0  0  0  0  0  0  0  0  0  0  0  0
   21.0364  -13.7310   11.3287 N   0  0  0  0  0  0  0  0  0  0  0  0
   19.9838  -14.5404   11.4378 C   0  0  0  0  0  0  0  0  0  0  0  0
   20.0281  -15.5276   12.4163 C   0  0  0  0  0  0  0  0  0  0  0  0
   21.1231  -15.6541   13.2340 C   0  0  0  0  0  0  0  0  0  0  0  0
   22.1468  -14.7857   13.0516 N   0  0  0  0  0  0  0  0  0  0  0  0
   23.2652  -11.7778   11.1410 C   0  0  0  0  0  0  0  0  0  0  0  0
   24.5438  -11.6582   10.2977 C   0  0  0  0  0  0  0  0  0  0  0  0
   27.3144  -10.6393   10.1311 C   0  0  0  0  0  0  0  0  0  0  0  0
   28.4268   -9.9040   10.4372 C   0  0  0  0  0  0  0  0  0  0  0  0
   28.8239   -8.8707    9.6245 C   0  0  0  0  0  0  0  0  0  0  0  0
   26.5639  -10.3609    9.0049 C   0  0  0  0  0  0  0  0  0  0  0  0
   26.9751   -9.3209    8.1979 C   0  0  0  0  0  0  0  0  0  0  0  0
   28.1159   -8.5588    8.4968 C   0  0  0  0  0  0  0  0  0  0  0  0
   28.5024   -7.4781    7.5410 C   0  0  0  0  0  0  0  0  0  0  0  0
   27.7304   -6.2264    7.9096 C   0  0  2  0  0  0  0  0  0  0  0  0
   28.5420   -4.9979    7.9128 C   0  0  0  0  0  0  0  0  0  0  0  0
   29.4067   -4.5598    7.1031 O   0  0  0  0  0  0  0  0  0  0  0  0
   27.2099   -6.2970    9.2053 O   0  0  0  0  0  0  0  0  0  0  0  0
   27.3605   -5.0930    9.8610 C   0  0  0  0  0  0  0  0  0  0  0  0
   26.8411   -4.6398   11.0854 C   0  0  0  0  0  0  0  0  0  0  0  0
   25.9953   -5.5378   11.8568 C   0  0  0  0  0  0  0  0  0  0  0  0
   25.3651   -5.1426   12.8648 O   0  0  0  0  0  0  0  0  0  0  0  0
   25.9075   -6.8865   11.4306 N   0  0  0  0  0  0  0  0  0  0  0  0
   28.1618   -4.2609    9.1257 C   0  0  0  0  0  0  0  0  0  0  0  0
   28.4867   -2.9823    9.5379 C   0  0  0  0  0  0  0  0  0  0  0  0
   27.9811   -2.5252   10.7448 C   0  0  0  0  0  0  0  0  0  0  0  0
   27.1766   -3.3564   11.4864 C   0  0  0  0  0  0  0  0  0  0  0  0
  1  2  2  0
  2  3  1  0
  2 15  1  0
  3  4  1  0
  3 14  1  0
  4  5  1  0
  5  6  1  0
  6  7  1  0
  6 13  1  0
  7  8  2  0
  7 12  1  0
  8  9  1  0
  9 10  2  0
 10 11  1  0
 11 12  2  0
 13 14  1  0
 15 16  2  0
 15 18  1  0
 16 17  1  0
 17 20  2  0
 18 19  2  0
 19 20  1  0
 20 21  1  0
 22 21  1  1
 22 23  1  0
 22 25  1  0
 23 24  2  0
 23 31  1  0
 25 26  1  0
 26 27  2  0
 26 31  1  0
 27 28  1  0
 27 34  1  0
 28 29  2  0
 28 30  1  0
 31 32  2  0
 32 33  1  0
 33 34  2  0
M  END
$$$$
