
     RDKit          3D

 34 38  0  0  0  0  0  0  0  0999 V2000
   25.3569   -9.9510   12.7551 O   0  0  0  0  0  0  0  0  0  0  0  0
   25.3811  -10.4615   11.5746 C   0  0  0  0  0  0  0  0  0  0  0  0
   24.8604  -11.7394   11.3266 N   0  0  0  0  0  0  0  0  0  0  0  0
   25.0488  -12.2790    9.9804 C   0  0  0  0  0  0  0  0  0  0  0  0
   25.9562  -13.4983   10.2188 C   0  0  0  0  0  0  0  0  0  0  0  0
   25.0936  -14.4170   10.9594 N   0  0  0  0  0  0  0  0  0  0  0  0
   24.7790  -15.6270   10.3114 C   0  0  0  0  0  0  0  0  0  0  0  0
   25.3099  -15.9148    9.0810 N   0  0  0  0  0  0  0  0  0  0  0  0
   25.0684  -17.0555    8.4364 C   0  0  0  0  0  0  0  0  0  0  0  0
   24.2395  -17.9838    9.0569 C   0  0  0  0  0  0  0  0  0  0  0  0
   23.6960  -17.7230   10.2899 C   0  0  0  0  0  0  0  0  0  0  0  0
   23.9957  -16.5361   10.8701 N   0  0  0  0  0  0  0  0  0  0  0  0
   24.6397  -14.0001   12.2616 C   0  0  0  0  0  0  0  0  0  0  0  0
   24.1909  -12.5311   12.2956 C   0  0  0  0  0  0  0  0  0  0  0  0
   25.9649   -9.6824   10.4888 C   0  0  0  0  0  0  0  0  0  0  0  0
   25.1550   -8.9240    9.6885 C   0  0  0  0  0  0  0  0  0  0  0  0
   25.6921   -8.1421    8.6954 C   0  0  0  0  0  0  0  0  0  0  0  0
   27.3360   -9.6843   10.3177 C   0  0  0  0  0  0  0  0  0  0  0  0
   27.8611   -8.8938    9.3170 C   0  0  0  0  0  0  0  0  0  0  0  0
   27.0435   -8.1076    8.4892 C   0  0  0  0  0  0  0  0  0  0  0  0
   27.7089   -7.2554    7.4589 C   0  0  0  0  0  0  0  0  0  0  0  0
   27.4759   -5.8035    7.8278 C   0  0  2  0  0  0  0  0  0  0  0  0
   28.7035   -4.9925    7.8846 C   0  0  0  0  0  0  0  0  0  0  0  0
   29.7019   -4.9240    7.1140 O   0  0  0  0  0  0  0  0  0  0  0  0
   26.9188   -5.6723    9.1035 O   0  0  0  0  0  0  0  0  0  0  0  0
   27.5037   -4.6285    9.7895 C   0  0  0  0  0  0  0  0  0  0  0  0
   27.1559   -4.0155   11.0051 C   0  0  0  0  0  0  0  0  0  0  0  0
   25.9960   -4.5142   11.7282 C   0  0  0  0  0  0  0  0  0  0  0  0
   25.4837   -3.8696   12.6724 O   0  0  0  0  0  0  0  0  0  0  0  0
   25.4603   -5.7642   11.3298 N   0  0  0  0  0  0  0  0  0  0  0  0
   28.5954   -4.1732    9.0995 C   0  0  0  0  0  0  0  0  0  0  0  0
   29.3793   -3.1276    9.5497 C   0  0  0  0  0  0  0  0  0  0  0  0
   29.0464   -2.5164   10.7483 C   0  0  0  0  0  0  0  0  0  0  0  0
   27.9519   -2.9696   11.4445 C   0  0  0  0  0  0  0  0  0  0  0  0
  1  2  2  0
  2  3  1  0
  2 15  1  0
  3  4  1  0
  3 14  1  0
  4  5  1  0
  5  6  1  0
  6  7  1  0
  6 13  1  0
  7  8  2  0
  7 12  1  0
  8  9  1  0
  9 10  2  0
 10 11  1  0
 11 12  2  0
 13 14  1  0
 15 16  2  0
 15 18  1  0
 16 17  1  0
 17 20  2  0
 18 19  2  0
 19 20  1  0
 20 21  1  0
 22 21  1  1
 22 23  1  0
 22 25  1  0
 23 24  2  0
 23 31  1  0
 25 26  1  0
 26 27  2  0
 26 31  1  0
 27 28  1  0
 27 34  1  0
 28 29  2  0
 28 30  1  0
 31 32  2  0
 32 33  1  0
 33 34  2  0
M  END
$$$$
