
     RDKit          3D

 34 38  0  0  0  0  0  0  0  0999 V2000
   24.3493  -11.3158    6.9733 O   0  0  0  0  0  0  0  0  0  0  0  0
   25.1295  -10.9588    7.9317 C   0  0  0  0  0  0  0  0  0  0  0  0
   25.1176  -11.6282    9.1636 N   0  0  0  0  0  0  0  0  0  0  0  0
   24.5645  -10.9001   10.3050 C   0  0  0  0  0  0  0  0  0  0  0  0
   23.3223  -11.7282   10.6764 C   0  0  0  0  0  0  0  0  0  0  0  0
   23.8913  -12.9810   11.1697 N   0  0  0  0  0  0  0  0  0  0  0  0
   23.6584  -13.2731   12.5274 C   0  0  0  0  0  0  0  0  0  0  0  0
   23.6230  -14.5723   12.9625 N   0  0  0  0  0  0  0  0  0  0  0  0
   23.4346  -14.9041   14.2391 C   0  0  0  0  0  0  0  0  0  0  0  0
   23.2701  -13.8718   15.1562 C   0  0  0  0  0  0  0  0  0  0  0  0
   23.3034  -12.5615   14.7488 C   0  0  0  0  0  0  0  0  0  0  0  0
   23.4990  -12.3185   13.4305 N   0  0  0  0  0  0  0  0  0  0  0  0
   24.6394  -13.7850   10.2373 C   0  0  0  0  0  0  0  0  0  0  0  0
   25.5853  -12.9540    9.3569 C   0  0  0  0  0  0  0  0  0  0  0  0
   26.0341   -9.8359    7.7141 C   0  0  0  0  0  0  0  0  0  0  0  0
   25.6459   -8.8002    6.9090 C   0  0  0  0  0  0  0  0  0  0  0  0
   26.4620   -7.7095    6.7352 C   0  0  0  0  0  0  0  0  0  0  0  0
   27.2518   -9.8135    8.3668 C   0  0  0  0  0  0  0  0  0  0  0  0
   28.0605   -8.7115    8.1834 C   0  0  0  0  0  0  0  0  0  0  0  0
   27.6751   -7.6392    7.3626 C   0  0  0  0  0  0  0  0  0  0  0  0
   28.6026   -6.4732    7.2579 C   0  0  0  0  0  0  0  0  0  0  0  0
   27.9104   -5.2664    7.8603 C   0  0  2  0  0  0  0  0  0  0  0  0
   28.8248   -4.1796    8.2484 C   0  0  0  0  0  0  0  0  0  0  0  0
   29.8148   -3.6632    7.6580 O   0  0  0  0  0  0  0  0  0  0  0  0
   27.2375   -5.5873    9.0431 O   0  0  0  0  0  0  0  0  0  0  0  0
   27.4197   -4.6046    9.9935 C   0  0  0  0  0  0  0  0  0  0  0  0
   26.8042   -4.4039   11.2406 C   0  0  0  0  0  0  0  0  0  0  0  0
   25.7954   -5.3562   11.6792 C   0  0  0  0  0  0  0  0  0  0  0  0
   25.1840   -5.2129   12.7632 O   0  0  0  0  0  0  0  0  0  0  0  0
   25.5251   -6.4627   10.8360 N   0  0  0  0  0  0  0  0  0  0  0  0
   28.3742   -3.7193    9.5690 C   0  0  0  0  0  0  0  0  0  0  0  0
   28.7642   -2.6262   10.3196 C   0  0  0  0  0  0  0  0  0  0  0  0
   28.1646   -2.4191   11.5520 C   0  0  0  0  0  0  0  0  0  0  0  0
   27.2063   -3.3047   11.9826 C   0  0  0  0  0  0  0  0  0  0  0  0
  1  2  2  0
  2  3  1  0
  2 15  1  0
  3  4  1  0
  3 14  1  0
  4  5  1  0
  5  6  1  0
  6  7  1  0
  6 13  1  0
  7  8  2  0
  7 12  1  0
  8  9  1  0
  9 10  2  0
 10 11  1  0
 11 12  2  0
 13 14  1  0
 15 16  2  0
 15 18  1  0
 16 17  1  0
 17 20  2  0
 18 19  2  0
 19 20  1  0
 20 21  1  0
 22 21  1  1
 22 23  1  0
 22 25  1  0
 23 24  2  0
 23 31  1  0
 25 26  1  0
 26 27  2  0
 26 31  1  0
 27 28  1  0
 27 34  1  0
 28 29  2  0
 28 30  1  0
 31 32  2  0
 32 33  1  0
 33 34  2  0
M  END
$$$$
