
     RDKit          3D

 34 38  0  0  0  0  0  0  0  0999 V2000
   25.0656  -11.0265    4.5166 O   0  0  0  0  0  0  0  0  0  0  0  0
   25.2728  -10.9394    5.7832 C   0  0  0  0  0  0  0  0  0  0  0  0
   24.9044  -11.9771    6.6511 N   0  0  0  0  0  0  0  0  0  0  0  0
   24.0893  -13.0519    6.0860 C   0  0  0  0  0  0  0  0  0  0  0  0
   25.0108  -14.2793    6.1925 C   0  0  0  0  0  0  0  0  0  0  0  0
   25.1123  -14.4967    7.6344 N   0  0  0  0  0  0  0  0  0  0  0  0
   24.5718  -15.7043    8.1167 C   0  0  0  0  0  0  0  0  0  0  0  0
   24.0692  -15.7812    9.3895 N   0  0  0  0  0  0  0  0  0  0  0  0
   23.5213  -16.8894    9.8865 C   0  0  0  0  0  0  0  0  0  0  0  0
   23.4646  -18.0069    9.0609 C   0  0  0  0  0  0  0  0  0  0  0  0
   23.9581  -17.9576    7.7811 C   0  0  0  0  0  0  0  0  0  0  0  0
   24.4985  -16.7885    7.3610 N   0  0  0  0  0  0  0  0  0  0  0  0
   25.7359  -13.4634    8.4211 C   0  0  0  0  0  0  0  0  0  0  0  0
   25.2870  -12.0511    8.0156 C   0  0  0  0  0  0  0  0  0  0  0  0
   25.9024   -9.7324    6.3063 C   0  0  0  0  0  0  0  0  0  0  0  0
   27.2589   -9.6976    6.4799 C   0  0  0  0  0  0  0  0  0  0  0  0
   27.8754   -8.5522    6.9204 C   0  0  0  0  0  0  0  0  0  0  0  0
   25.1212   -8.6240    6.5713 C   0  0  0  0  0  0  0  0  0  0  0  0
   25.7542   -7.4807    7.0123 C   0  0  0  0  0  0  0  0  0  0  0  0
   27.1458   -7.4281    7.1928 C   0  0  0  0  0  0  0  0  0  0  0  0
   27.7426   -6.1330    7.6368 C   0  0  0  0  0  0  0  0  0  0  0  0
   27.6953   -6.0883    9.1514 C   0  0  2  0  0  0  0  0  0  0  0  0
   28.5235   -7.1122    9.8099 C   0  0  0  0  0  0  0  0  0  0  0  0
   29.6984   -7.5164    9.5827 O   0  0  0  0  0  0  0  0  0  0  0  0
   26.4066   -6.3231    9.6404 O   0  0  0  0  0  0  0  0  0  0  0  0
   26.4433   -7.1500   10.7436 C   0  0  0  0  0  0  0  0  0  0  0  0
   25.4401   -7.5081   11.6600 C   0  0  0  0  0  0  0  0  0  0  0  0
   24.1049   -6.9592   11.4787 C   0  0  0  0  0  0  0  0  0  0  0  0
   23.2562   -6.9786   12.4000 O   0  0  0  0  0  0  0  0  0  0  0  0
   23.7901   -6.3992   10.2155 N   0  0  0  0  0  0  0  0  0  0  0  0
   27.7038   -7.6620   10.8984 C   0  0  0  0  0  0  0  0  0  0  0  0
   28.0375   -8.5246   11.9256 C   0  0  0  0  0  0  0  0  0  0  0  0
   27.0555   -8.8857   12.8346 C   0  0  0  0  0  0  0  0  0  0  0  0
   25.7890   -8.3747   12.6836 C   0  0  0  0  0  0  0  0  0  0  0  0
  1  2  2  0
  2  3  1  0
  2 15  1  0
  3  4  1  0
  3 14  1  0
  4  5  1  0
  5  6  1  0
  6  7  1  0
  6 13  1  0
  7  8  2  0
  7 12  1  0
  8  9  1  0
  9 10  2  0
 10 11  1  0
 11 12  2  0
 13 14  1  0
 15 16  2  0
 15 18  1  0
 16 17  1  0
 17 20  2  0
 18 19  2  0
 19 20  1  0
 20 21  1  0
 22 21  1  6
 22 23  1  0
 22 25  1  0
 23 24  2  0
 23 31  1  0
 25 26  1  0
 26 27  2  0
 26 31  1  0
 27 28  1  0
 27 34  1  0
 28 29  2  0
 28 30  1  0
 31 32  2  0
 32 33  1  0
 33 34  2  0
M  END
$$$$
