
     RDKit          3D

 34 38  0  0  0  0  0  0  0  0999 V2000
   23.4846   -9.9471   11.2127 O   0  0  0  0  0  0  0  0  0  0  0  0
   24.5080  -10.5610   10.7325 C   0  0  0  0  0  0  0  0  0  0  0  0
   24.6948  -11.9343   10.9444 N   0  0  0  0  0  0  0  0  0  0  0  0
   23.4974  -12.7738   10.9258 C   0  0  0  0  0  0  0  0  0  0  0  0
   23.7268  -13.6789    9.7030 C   0  0  0  0  0  0  0  0  0  0  0  0
   24.8579  -14.5104   10.1104 N   0  0  0  0  0  0  0  0  0  0  0  0
   24.5981  -15.8888   10.2350 C   0  0  0  0  0  0  0  0  0  0  0  0
   23.6620  -16.4943    9.4378 N   0  0  0  0  0  0  0  0  0  0  0  0
   23.3968  -17.7987    9.4941 C   0  0  0  0  0  0  0  0  0  0  0  0
   24.1134  -18.5636   10.4081 C   0  0  0  0  0  0  0  0  0  0  0  0
   25.0584  -17.9840   11.2173 C   0  0  0  0  0  0  0  0  0  0  0  0
   25.2604  -16.6503   11.0915 N   0  0  0  0  0  0  0  0  0  0  0  0
   26.1147  -13.8504   10.3564 C   0  0  0  0  0  0  0  0  0  0  0  0
   25.9584  -12.5459   11.1526 C   0  0  0  0  0  0  0  0  0  0  0  0
   25.4797   -9.7980    9.9576 C   0  0  0  0  0  0  0  0  0  0  0  0
   25.2067   -9.4793    8.6555 C   0  0  0  0  0  0  0  0  0  0  0  0
   26.0852   -8.7158    7.9266 C   0  0  0  0  0  0  0  0  0  0  0  0
   26.6411   -9.3658   10.5687 C   0  0  0  0  0  0  0  0  0  0  0  0
   27.5135   -8.5995    9.8246 C   0  0  0  0  0  0  0  0  0  0  0  0
   27.2464   -8.2614    8.4881 C   0  0  0  0  0  0  0  0  0  0  0  0
   28.2338   -7.3950    7.7776 C   0  0  0  0  0  0  0  0  0  0  0  0
   27.8402   -5.9488    8.0060 C   0  0  2  0  0  0  0  0  0  0  0  0
   28.9754   -5.0113    8.0211 C   0  0  0  0  0  0  0  0  0  0  0  0
   29.9886   -4.9063    7.2743 O   0  0  0  0  0  0  0  0  0  0  0  0
   27.2270   -5.7650    9.2490 O   0  0  0  0  0  0  0  0  0  0  0  0
   27.6768   -4.6091    9.8521 C   0  0  0  0  0  0  0  0  0  0  0  0
   27.2246   -3.9314   10.9969 C   0  0  0  0  0  0  0  0  0  0  0  0
   26.0966   -4.4837   11.7314 C   0  0  0  0  0  0  0  0  0  0  0  0
   25.5175   -3.8333   12.6320 O   0  0  0  0  0  0  0  0  0  0  0  0
   25.6709   -5.7930   11.3956 N   0  0  0  0  0  0  0  0  0  0  0  0
   28.7403   -4.1041    9.1527 C   0  0  0  0  0  0  0  0  0  0  0  0
   29.3964   -2.9462    9.5261 C   0  0  0  0  0  0  0  0  0  0  0  0
   28.9597   -2.2702   10.6546 C   0  0  0  0  0  0  0  0  0  0  0  0
   27.8929   -2.7729   11.3599 C   0  0  0  0  0  0  0  0  0  0  0  0
  1  2  2  0
  2  3  1  0
  2 15  1  0
  3  4  1  0
  3 14  1  0
  4  5  1  0
  5  6  1  0
  6  7  1  0
  6 13  1  0
  7  8  2  0
  7 12  1  0
  8  9  1  0
  9 10  2  0
 10 11  1  0
 11 12  2  0
 13 14  1  0
 15 16  2  0
 15 18  1  0
 16 17  1  0
 17 20  2  0
 18 19  2  0
 19 20  1  0
 20 21  1  0
 22 21  1  1
 22 23  1  0
 22 25  1  0
 23 24  2  0
 23 31  1  0
 25 26  1  0
 26 27  2  0
 26 31  1  0
 27 28  1  0
 27 34  1  0
 28 29  2  0
 28 30  1  0
 31 32  2  0
 32 33  1  0
 33 34  2  0
M  END
$$$$
