
     RDKit          3D

 34 38  0  0  0  0  0  0  0  0999 V2000
   23.5128  -11.9968    7.0423 O   0  0  0  0  0  0  0  0  0  0  0  0
   24.1289  -11.8763    8.1651 C   0  0  0  0  0  0  0  0  0  0  0  0
   23.8293  -12.7128    9.2497 N   0  0  0  0  0  0  0  0  0  0  0  0
   22.7683  -13.6992    9.0490 C   0  0  0  0  0  0  0  0  0  0  0  0
   23.5136  -15.0399    9.1673 C   0  0  0  0  0  0  0  0  0  0  0  0
   23.9095  -15.0789   10.5739 N   0  0  0  0  0  0  0  0  0  0  0  0
   23.3332  -16.1031   11.3497 C   0  0  0  0  0  0  0  0  0  0  0  0
   23.2212  -15.9659   12.7088 N   0  0  0  0  0  0  0  0  0  0  0  0
   22.6596  -16.8903   13.4867 C   0  0  0  0  0  0  0  0  0  0  0  0
   22.1696  -18.0381   12.8732 C   0  0  0  0  0  0  0  0  0  0  0  0
   22.2662  -18.2010   11.5139 C   0  0  0  0  0  0  0  0  0  0  0  0
   22.8539  -17.2090   10.8027 N   0  0  0  0  0  0  0  0  0  0  0  0
   24.8306  -14.0714   11.0343 C   0  0  0  0  0  0  0  0  0  0  0  0
   24.4983  -12.6696   10.5005 C   0  0  0  0  0  0  0  0  0  0  0  0
   25.1528  -10.8458    8.2926 C   0  0  0  0  0  0  0  0  0  0  0  0
   24.9373   -9.7761    9.1178 C   0  0  0  0  0  0  0  0  0  0  0  0
   25.9112   -8.8237    9.2921 C   0  0  0  0  0  0  0  0  0  0  0  0
   26.3475  -10.9933    7.6143 C   0  0  0  0  0  0  0  0  0  0  0  0
   27.3164  -10.0295    7.7997 C   0  0  0  0  0  0  0  0  0  0  0  0
   27.1116   -8.9273    8.6453 C   0  0  0  0  0  0  0  0  0  0  0  0
   28.2354   -7.9576    8.8109 C   0  0  0  0  0  0  0  0  0  0  0  0
   27.6924   -6.5630    8.5686 C   0  0  2  0  0  0  0  0  0  0  0  0
   28.7249   -5.5611    8.2554 C   0  0  0  0  0  0  0  0  0  0  0  0
   29.7310   -5.6013    7.4929 O   0  0  0  0  0  0  0  0  0  0  0  0
   27.0484   -6.0501    9.6987 O   0  0  0  0  0  0  0  0  0  0  0  0
   27.3696   -4.7220    9.8862 C   0  0  0  0  0  0  0  0  0  0  0  0
   26.8361   -3.7599   10.7604 C   0  0  0  0  0  0  0  0  0  0  0  0
   25.7620   -4.1561   11.6583 C   0  0  0  0  0  0  0  0  0  0  0  0
   25.2394   -3.3437   12.4559 O   0  0  0  0  0  0  0  0  0  0  0  0
   25.3229   -5.5024   11.6043 N   0  0  0  0  0  0  0  0  0  0  0  0
   28.3840   -4.3654    9.0383 C   0  0  0  0  0  0  0  0  0  0  0  0
   28.9129   -3.0889    9.0034 C   0  0  0  0  0  0  0  0  0  0  0  0
   28.3952   -2.1321    9.8623 C   0  0  0  0  0  0  0  0  0  0  0  0
   27.3773   -2.4850   10.7152 C   0  0  0  0  0  0  0  0  0  0  0  0
  1  2  2  0
  2  3  1  0
  2 15  1  0
  3  4  1  0
  3 14  1  0
  4  5  1  0
  5  6  1  0
  6  7  1  0
  6 13  1  0
  7  8  2  0
  7 12  1  0
  8  9  1  0
  9 10  2  0
 10 11  1  0
 11 12  2  0
 13 14  1  0
 15 16  2  0
 15 18  1  0
 16 17  1  0
 17 20  2  0
 18 19  2  0
 19 20  1  0
 20 21  1  0
 22 21  1  1
 22 23  1  0
 22 25  1  0
 23 24  2  0
 23 31  1  0
 25 26  1  0
 26 27  2  0
 26 31  1  0
 27 28  1  0
 27 34  1  0
 28 29  2  0
 28 30  1  0
 31 32  2  0
 32 33  1  0
 33 34  2  0
M  END
$$$$
