
     RDKit          3D

 34 38  0  0  0  0  0  0  0  0999 V2000
   24.0342  -13.1812   12.8454 O   0  0  0  0  0  0  0  0  0  0  0  0
   24.7253  -12.5330   11.9754 C   0  0  0  0  0  0  0  0  0  0  0  0
   25.4891  -13.2043   11.0101 N   0  0  0  0  0  0  0  0  0  0  0  0
   25.3627  -14.6607   10.9645 C   0  0  0  0  0  0  0  0  0  0  0  0
   24.7378  -14.9119    9.5813 C   0  0  0  0  0  0  0  0  0  0  0  0
   25.8010  -14.5194    8.6582 N   0  0  0  0  0  0  0  0  0  0  0  0
   26.3331  -15.5471    7.8558 C   0  0  0  0  0  0  0  0  0  0  0  0
   27.1864  -15.2522    6.8246 N   0  0  0  0  0  0  0  0  0  0  0  0
   27.7404  -16.1863    6.0527 C   0  0  0  0  0  0  0  0  0  0  0  0
   27.4277  -17.5142    6.3224 C   0  0  0  0  0  0  0  0  0  0  0  0
   26.5781  -17.8386    7.3503 C   0  0  0  0  0  0  0  0  0  0  0  0
   26.0608  -16.8225    8.0819 N   0  0  0  0  0  0  0  0  0  0  0  0
   26.2106  -13.1382    8.6631 C   0  0  0  0  0  0  0  0  0  0  0  0
   26.3463  -12.5606   10.0803 C   0  0  0  0  0  0  0  0  0  0  0  0
   24.7016  -11.0752   12.0102 C   0  0  0  0  0  0  0  0  0  0  0  0
   25.4754  -10.4074   12.9195 C   0  0  0  0  0  0  0  0  0  0  0  0
   25.5073   -9.0345   12.9317 C   0  0  0  0  0  0  0  0  0  0  0  0
   23.9337  -10.3902   11.0882 C   0  0  0  0  0  0  0  0  0  0  0  0
   23.9763   -9.0119   11.1120 C   0  0  0  0  0  0  0  0  0  0  0  0
   24.7675   -8.3118   12.0370 C   0  0  0  0  0  0  0  0  0  0  0  0
   24.7769   -6.8203   11.9583 C   0  0  0  0  0  0  0  0  0  0  0  0
   25.7724   -6.4121   10.8902 C   0  0  2  0  0  0  0  0  0  0  0  0
   27.1704   -6.3806   11.3510 C   0  0  0  0  0  0  0  0  0  0  0  0
   27.8402   -7.1838   12.0592 O   0  0  0  0  0  0  0  0  0  0  0  0
   25.5354   -5.1153   10.4244 O   0  0  0  0  0  0  0  0  0  0  0  0
   26.7199   -4.4277   10.2629 C   0  0  0  0  0  0  0  0  0  0  0  0
   26.9903   -3.1877    9.6598 C   0  0  0  0  0  0  0  0  0  0  0  0
   25.8828   -2.4357    9.0900 C   0  0  0  0  0  0  0  0  0  0  0  0
   26.0637   -1.3453    8.5002 O   0  0  0  0  0  0  0  0  0  0  0  0
   24.5806   -2.9780    9.2263 N   0  0  0  0  0  0  0  0  0  0  0  0
   27.7513   -5.1452   10.8076 C   0  0  0  0  0  0  0  0  0  0  0  0
   29.0598   -4.7001   10.7914 C   0  0  0  0  0  0  0  0  0  0  0  0
   29.3379   -3.4776   10.2003 C   0  0  0  0  0  0  0  0  0  0  0  0
   28.3064   -2.7537    9.6524 C   0  0  0  0  0  0  0  0  0  0  0  0
  1  2  2  0
  2  3  1  0
  2 15  1  0
  3  4  1  0
  3 14  1  0
  4  5  1  0
  5  6  1  0
  6  7  1  0
  6 13  1  0
  7  8  2  0
  7 12  1  0
  8  9  1  0
  9 10  2  0
 10 11  1  0
 11 12  2  0
 13 14  1  0
 15 16  2  0
 15 18  1  0
 16 17  1  0
 17 20  2  0
 18 19  2  0
 19 20  1  0
 20 21  1  0
 22 21  1  1
 22 23  1  0
 22 25  1  0
 23 24  2  0
 23 31  1  0
 25 26  1  0
 26 27  2  0
 26 31  1  0
 27 28  1  0
 27 34  1  0
 28 29  2  0
 28 30  1  0
 31 32  2  0
 32 33  1  0
 33 34  2  0
M  END
$$$$
