
     RDKit          3D

 34 38  0  0  0  0  0  0  0  0999 V2000
   26.1052  -12.1971    7.2009 O   0  0  0  0  0  0  0  0  0  0  0  0
   25.8861  -11.2579    8.0523 C   0  0  0  0  0  0  0  0  0  0  0  0
   25.0335  -11.4568    9.1474 N   0  0  0  0  0  0  0  0  0  0  0  0
   24.5115  -12.8093    9.3404 C   0  0  0  0  0  0  0  0  0  0  0  0
   25.1313  -13.2324   10.6834 C   0  0  0  0  0  0  0  0  0  0  0  0
   24.4746  -12.3507   11.6468 N   0  0  0  0  0  0  0  0  0  0  0  0
   23.6508  -12.9808   12.5994 C   0  0  0  0  0  0  0  0  0  0  0  0
   22.5042  -12.3714   13.0381 N   0  0  0  0  0  0  0  0  0  0  0  0
   21.6748  -12.9340   13.9160 C   0  0  0  0  0  0  0  0  0  0  0  0
   22.0037  -14.1972   14.3957 C   0  0  0  0  0  0  0  0  0  0  0  0
   23.1444  -14.8319   13.9718 C   0  0  0  0  0  0  0  0  0  0  0  0
   23.9290  -14.1831   13.0781 N   0  0  0  0  0  0  0  0  0  0  0  0
   24.7168  -10.9357   11.5268 C   0  0  0  0  0  0  0  0  0  0  0  0
   24.6712  -10.4432   10.0723 C   0  0  0  0  0  0  0  0  0  0  0  0
   26.5445   -9.9714    7.8576 C   0  0  0  0  0  0  0  0  0  0  0  0
   27.8207   -9.7882    8.3151 C   0  0  0  0  0  0  0  0  0  0  0  0
   28.4763   -8.6019    8.0937 C   0  0  0  0  0  0  0  0  0  0  0  0
   25.8843   -8.9725    7.1680 C   0  0  0  0  0  0  0  0  0  0  0  0
   26.5554   -7.7870    6.9525 C   0  0  0  0  0  0  0  0  0  0  0  0
   27.8664   -7.5846    7.4132 C   0  0  0  0  0  0  0  0  0  0  0  0
   28.5228   -6.2808    7.0968 C   0  0  0  0  0  0  0  0  0  0  0  0
   27.7234   -5.1782    7.7629 C   0  0  2  0  0  0  0  0  0  0  0  0
   28.5198   -3.9959    8.1313 C   0  0  0  0  0  0  0  0  0  0  0  0
   29.4079   -3.3523    7.5047 O   0  0  0  0  0  0  0  0  0  0  0  0
   27.1574   -5.6001    8.9697 O   0  0  0  0  0  0  0  0  0  0  0  0
   27.2702   -4.6203    9.9338 C   0  0  0  0  0  0  0  0  0  0  0  0
   26.7019   -4.5188   11.2148 C   0  0  0  0  0  0  0  0  0  0  0  0
   25.8395   -5.5944   11.6799 C   0  0  0  0  0  0  0  0  0  0  0  0
   25.2548   -5.5357   12.7863 O   0  0  0  0  0  0  0  0  0  0  0  0
   25.6820   -6.7222   10.8364 N   0  0  0  0  0  0  0  0  0  0  0  0
   28.0876   -3.6180    9.4838 C   0  0  0  0  0  0  0  0  0  0  0  0
   28.3825   -2.4997   10.2407 C   0  0  0  0  0  0  0  0  0  0  0  0
   27.8285   -2.3897   11.5064 C   0  0  0  0  0  0  0  0  0  0  0  0
   27.0076   -3.3928   11.9626 C   0  0  0  0  0  0  0  0  0  0  0  0
  1  2  2  0
  2  3  1  0
  2 15  1  0
  3  4  1  0
  3 14  1  0
  4  5  1  0
  5  6  1  0
  6  7  1  0
  6 13  1  0
  7  8  2  0
  7 12  1  0
  8  9  1  0
  9 10  2  0
 10 11  1  0
 11 12  2  0
 13 14  1  0
 15 16  2  0
 15 18  1  0
 16 17  1  0
 17 20  2  0
 18 19  2  0
 19 20  1  0
 20 21  1  0
 22 21  1  1
 22 23  1  0
 22 25  1  0
 23 24  2  0
 23 31  1  0
 25 26  1  0
 26 27  2  0
 26 31  1  0
 27 28  1  0
 27 34  1  0
 28 29  2  0
 28 30  1  0
 31 32  2  0
 32 33  1  0
 33 34  2  0
M  END
$$$$
