
     RDKit          3D

 34 38  0  0  0  0  0  0  0  0999 V2000
   24.3875  -12.3067   13.3761 O   0  0  0  0  0  0  0  0  0  0  0  0
   24.6826  -11.7905   12.2354 C   0  0  0  0  0  0  0  0  0  0  0  0
   24.9739  -12.5990   11.1275 N   0  0  0  0  0  0  0  0  0  0  0  0
   24.7515  -14.0362   11.2827 C   0  0  0  0  0  0  0  0  0  0  0  0
   23.6285  -14.3249   10.2715 C   0  0  0  0  0  0  0  0  0  0  0  0
   24.2764  -14.1027    8.9802 N   0  0  0  0  0  0  0  0  0  0  0  0
   24.3954  -15.2312    8.1463 C   0  0  0  0  0  0  0  0  0  0  0  0
   23.4073  -16.1806    8.1168 N   0  0  0  0  0  0  0  0  0  0  0  0
   23.4555  -17.2523    7.3267 C   0  0  0  0  0  0  0  0  0  0  0  0
   24.5653  -17.3953    6.5010 C   0  0  0  0  0  0  0  0  0  0  0  0
   25.5685  -16.4587    6.5081 C   0  0  0  0  0  0  0  0  0  0  0  0
   25.4351  -15.4019    7.3451 N   0  0  0  0  0  0  0  0  0  0  0  0
   24.7394  -12.7700    8.6884 C   0  0  0  0  0  0  0  0  0  0  0  0
   25.4448  -12.1081    9.8821 C   0  0  0  0  0  0  0  0  0  0  0  0
   24.7100  -10.3377   12.1124 C   0  0  0  0  0  0  0  0  0  0  0  0
   24.0685   -9.7349   11.0652 C   0  0  0  0  0  0  0  0  0  0  0  0
   24.0379   -8.3658   10.9623 C   0  0  0  0  0  0  0  0  0  0  0  0
   25.3431   -9.5894   13.0863 C   0  0  0  0  0  0  0  0  0  0  0  0
   25.3034   -8.2157   12.9702 C   0  0  0  0  0  0  0  0  0  0  0  0
   24.6468   -7.5820   11.9030 C   0  0  0  0  0  0  0  0  0  0  0  0
   24.6258   -6.0887   11.8855 C   0  0  0  0  0  0  0  0  0  0  0  0
   26.0554   -5.5999   11.7597 C   0  0  2  0  0  0  0  0  0  0  0  0
   26.2359   -4.1762   12.0888 C   0  0  0  0  0  0  0  0  0  0  0  0
   25.7847   -3.4681   13.0325 O   0  0  0  0  0  0  0  0  0  0  0  0
   26.5318   -5.7122   10.4500 O   0  0  0  0  0  0  0  0  0  0  0  0
   27.2610   -4.5964   10.0956 C   0  0  0  0  0  0  0  0  0  0  0  0
   28.0680   -4.3415    8.9739 C   0  0  0  0  0  0  0  0  0  0  0  0
   28.2037   -5.3807    7.9647 C   0  0  0  0  0  0  0  0  0  0  0  0
   28.9284   -5.2248    6.9547 O   0  0  0  0  0  0  0  0  0  0  0  0
   27.4820   -6.5847    8.1594 N   0  0  0  0  0  0  0  0  0  0  0  0
   27.1199   -3.6265   11.0519 C   0  0  0  0  0  0  0  0  0  0  0  0
   27.7413   -2.3951   10.9627 C   0  0  0  0  0  0  0  0  0  0  0  0
   28.5387   -2.1323    9.8599 C   0  0  0  0  0  0  0  0  0  0  0  0
   28.6834   -3.1023    8.8974 C   0  0  0  0  0  0  0  0  0  0  0  0
  1  2  2  0
  2  3  1  0
  2 15  1  0
  3  4  1  0
  3 14  1  0
  4  5  1  0
  5  6  1  0
  6  7  1  0
  6 13  1  0
  7  8  2  0
  7 12  1  0
  8  9  1  0
  9 10  2  0
 10 11  1  0
 11 12  2  0
 13 14  1  0
 15 16  2  0
 15 18  1  0
 16 17  1  0
 17 20  2  0
 18 19  2  0
 19 20  1  0
 20 21  1  0
 22 21  1  6
 22 23  1  0
 22 25  1  0
 23 24  2  0
 23 31  1  0
 25 26  1  0
 26 27  2  0
 26 31  1  0
 27 28  1  0
 27 34  1  0
 28 29  2  0
 28 30  1  0
 31 32  2  0
 32 33  1  0
 33 34  2  0
M  END
$$$$
