
     RDKit          3D

 34 38  0  0  0  0  0  0  0  0999 V2000
   22.2354  -10.3124    8.7526 O   0  0  0  0  0  0  0  0  0  0  0  0
   23.3659  -10.8625    9.0250 C   0  0  0  0  0  0  0  0  0  0  0  0
   23.4406  -12.2017    9.4333 N   0  0  0  0  0  0  0  0  0  0  0  0
   24.3092  -13.0822    8.6526 C   0  0  0  0  0  0  0  0  0  0  0  0
   25.3990  -13.4798    9.6631 C   0  0  0  0  0  0  0  0  0  0  0  0
   24.6735  -14.3001   10.6313 N   0  0  0  0  0  0  0  0  0  0  0  0
   25.0594  -15.6522   10.7077 C   0  0  0  0  0  0  0  0  0  0  0  0
   24.1359  -16.6231   10.9957 N   0  0  0  0  0  0  0  0  0  0  0  0
   24.4404  -17.9190   11.0526 C   0  0  0  0  0  0  0  0  0  0  0  0
   25.7594  -18.2829   10.8040 C   0  0  0  0  0  0  0  0  0  0  0  0
   26.7046  -17.3319   10.5107 C   0  0  0  0  0  0  0  0  0  0  0  0
   26.3041  -16.0382   10.4759 N   0  0  0  0  0  0  0  0  0  0  0  0
   23.6352  -13.6615   11.3991 C   0  0  0  0  0  0  0  0  0  0  0  0
   22.7492  -12.7358   10.5516 C   0  0  0  0  0  0  0  0  0  0  0  0
   24.5793  -10.0630    8.9017 C   0  0  0  0  0  0  0  0  0  0  0  0
   25.1573   -9.5329   10.0226 C   0  0  0  0  0  0  0  0  0  0  0  0
   26.3292   -8.8227    9.9323 C   0  0  0  0  0  0  0  0  0  0  0  0
   25.1541   -9.8959    7.6564 C   0  0  0  0  0  0  0  0  0  0  0  0
   26.3312   -9.1811    7.5812 C   0  0  0  0  0  0  0  0  0  0  0  0
   26.9383   -8.6332    8.7227 C   0  0  0  0  0  0  0  0  0  0  0  0
   28.2321   -7.9085    8.5442 C   0  0  0  0  0  0  0  0  0  0  0  0
   27.9339   -6.4235    8.4783 C   0  0  2  0  0  0  0  0  0  0  0  0
   29.1329   -5.5708    8.4232 C   0  0  0  0  0  0  0  0  0  0  0  0
   30.2026   -5.6668    7.7584 O   0  0  0  0  0  0  0  0  0  0  0  0
   27.2481   -5.9782    9.6124 O   0  0  0  0  0  0  0  0  0  0  0  0
   27.7395   -4.7615   10.0369 C   0  0  0  0  0  0  0  0  0  0  0  0
   27.2584   -3.8594   11.0008 C   0  0  0  0  0  0  0  0  0  0  0  0
   26.0415   -4.1975   11.7231 C   0  0  0  0  0  0  0  0  0  0  0  0
   25.5263   -3.4077   12.5479 O   0  0  0  0  0  0  0  0  0  0  0  0
   25.4529   -5.4605   11.4647 N   0  0  0  0  0  0  0  0  0  0  0  0
   28.8861   -4.4593    9.3520 C   0  0  0  0  0  0  0  0  0  0  0  0
   29.5994   -3.2953    9.5685 C   0  0  0  0  0  0  0  0  0  0  0  0
   29.1348   -2.3989   10.5180 C   0  0  0  0  0  0  0  0  0  0  0  0
   27.9847   -2.6975   11.2081 C   0  0  0  0  0  0  0  0  0  0  0  0
  1  2  2  0
  2  3  1  0
  2 15  1  0
  3  4  1  0
  3 14  1  0
  4  5  1  0
  5  6  1  0
  6  7  1  0
  6 13  1  0
  7  8  2  0
  7 12  1  0
  8  9  1  0
  9 10  2  0
 10 11  1  0
 11 12  2  0
 13 14  1  0
 15 16  2  0
 15 18  1  0
 16 17  1  0
 17 20  2  0
 18 19  2  0
 19 20  1  0
 20 21  1  0
 22 21  1  1
 22 23  1  0
 22 25  1  0
 23 24  2  0
 23 31  1  0
 25 26  1  0
 26 27  2  0
 26 31  1  0
 27 28  1  0
 27 34  1  0
 28 29  2  0
 28 30  1  0
 31 32  2  0
 32 33  1  0
 33 34  2  0
M  END
$$$$
