
     RDKit          3D

 34 38  0  0  0  0  0  0  0  0999 V2000
   25.1490   -9.8069   12.8564 O   0  0  0  0  0  0  0  0  0  0  0  0
   25.6038  -10.4105   11.8154 C   0  0  0  0  0  0  0  0  0  0  0  0
   25.6384  -11.8104   11.7464 N   0  0  0  0  0  0  0  0  0  0  0  0
   24.3572  -12.5081   11.8494 C   0  0  0  0  0  0  0  0  0  0  0  0
   24.2143  -13.1771   10.4714 C   0  0  0  0  0  0  0  0  0  0  0  0
   25.2784  -14.1793   10.4747 N   0  0  0  0  0  0  0  0  0  0  0  0
   24.8616  -15.5232   10.4189 C   0  0  0  0  0  0  0  0  0  0  0  0
   23.5313  -15.8340   10.3080 N   0  0  0  0  0  0  0  0  0  0  0  0
   23.0844  -17.0863   10.2230 C   0  0  0  0  0  0  0  0  0  0  0  0
   24.0254  -18.1099   10.2481 C   0  0  0  0  0  0  0  0  0  0  0  0
   25.3642  -17.8275   10.3560 C   0  0  0  0  0  0  0  0  0  0  0  0
   25.7267  -16.5248   10.4382 N   0  0  0  0  0  0  0  0  0  0  0  0
   26.6375  -13.7068   10.5469 C   0  0  0  0  0  0  0  0  0  0  0  0
   26.8220  -12.5724   11.5664 C   0  0  0  0  0  0  0  0  0  0  0  0
   26.0876   -9.6075   10.6983 C   0  0  0  0  0  0  0  0  0  0  0  0
   27.0238   -8.6347   10.9196 C   0  0  0  0  0  0  0  0  0  0  0  0
   27.5307   -7.9050    9.8724 C   0  0  0  0  0  0  0  0  0  0  0  0
   25.6278   -9.8773    9.4236 C   0  0  0  0  0  0  0  0  0  0  0  0
   26.1464   -9.1370    8.3819 C   0  0  0  0  0  0  0  0  0  0  0  0
   27.1097   -8.1372    8.5923 C   0  0  0  0  0  0  0  0  0  0  0  0
   27.6389   -7.4165    7.3960 C   0  0  0  0  0  0  0  0  0  0  0  0
   27.7071   -5.9391    7.7293 C   0  0  2  0  0  0  0  0  0  0  0  0
   29.0548   -5.4635    8.0831 C   0  0  0  0  0  0  0  0  0  0  0  0
   30.1859   -5.6814    7.5647 O   0  0  0  0  0  0  0  0  0  0  0  0
   26.9268   -5.6193    8.8446 O   0  0  0  0  0  0  0  0  0  0  0  0
   27.5870   -4.7304    9.6669 C   0  0  0  0  0  0  0  0  0  0  0  0
   27.1402   -4.0005   10.7813 C   0  0  0  0  0  0  0  0  0  0  0  0
   25.7584   -4.1595   11.2079 C   0  0  0  0  0  0  0  0  0  0  0  0
   25.2402   -3.3950   12.0545 O   0  0  0  0  0  0  0  0  0  0  0  0
   25.0104   -5.2171   10.6333 N   0  0  0  0  0  0  0  0  0  0  0  0
   28.8862   -4.5947    9.2560 C   0  0  0  0  0  0  0  0  0  0  0  0
   29.7876   -3.7641    9.8947 C   0  0  0  0  0  0  0  0  0  0  0  0
   29.3582   -3.0403   10.9960 C   0  0  0  0  0  0  0  0  0  0  0  0
   28.0554   -3.1730   11.4124 C   0  0  0  0  0  0  0  0  0  0  0  0
  1  2  2  0
  2  3  1  0
  2 15  1  0
  3  4  1  0
  3 14  1  0
  4  5  1  0
  5  6  1  0
  6  7  1  0
  6 13  1  0
  7  8  2  0
  7 12  1  0
  8  9  1  0
  9 10  2  0
 10 11  1  0
 11 12  2  0
 13 14  1  0
 15 16  2  0
 15 18  1  0
 16 17  1  0
 17 20  2  0
 18 19  2  0
 19 20  1  0
 20 21  1  0
 22 21  1  1
 22 23  1  0
 22 25  1  0
 23 24  2  0
 23 31  1  0
 25 26  1  0
 26 27  2  0
 26 31  1  0
 27 28  1  0
 27 34  1  0
 28 29  2  0
 28 30  1  0
 31 32  2  0
 32 33  1  0
 33 34  2  0
M  END
$$$$
