
     RDKit          3D

 34 38  0  0  0  0  0  0  0  0999 V2000
   26.0791  -12.7575    7.4080 O   0  0  0  0  0  0  0  0  0  0  0  0
   25.6178  -11.5600    7.3194 C   0  0  0  0  0  0  0  0  0  0  0  0
   24.2538  -11.3231    7.0975 N   0  0  0  0  0  0  0  0  0  0  0  0
   23.8504   -9.9325    6.8920 C   0  0  0  0  0  0  0  0  0  0  0  0
   23.3336   -9.9313    5.4429 C   0  0  0  0  0  0  0  0  0  0  0  0
   22.1240  -10.7484    5.5190 N   0  0  0  0  0  0  0  0  0  0  0  0
   20.9131  -10.0873    5.2367 C   0  0  0  0  0  0  0  0  0  0  0  0
   20.8899   -8.7297    5.0494 N   0  0  0  0  0  0  0  0  0  0  0  0
   19.7782   -8.0580    4.7526 C   0  0  0  0  0  0  0  0  0  0  0  0
   18.5990   -8.7848    4.6301 C   0  0  0  0  0  0  0  0  0  0  0  0
   18.5934  -10.1454    4.8100 C   0  0  0  0  0  0  0  0  0  0  0  0
   19.7709  -10.7441    5.1105 N   0  0  0  0  0  0  0  0  0  0  0  0
   22.2782  -12.1336    5.8837 C   0  0  0  0  0  0  0  0  0  0  0  0
   23.2650  -12.3396    7.0430 C   0  0  0  0  0  0  0  0  0  0  0  0
   26.5453  -10.4427    7.4541 C   0  0  0  0  0  0  0  0  0  0  0  0
   26.8492   -9.6798    6.3600 C   0  0  0  0  0  0  0  0  0  0  0  0
   27.6783   -8.5914    6.4785 C   0  0  0  0  0  0  0  0  0  0  0  0
   27.0642  -10.1421    8.6989 C   0  0  0  0  0  0  0  0  0  0  0  0
   27.8946   -9.0459    8.8028 C   0  0  0  0  0  0  0  0  0  0  0  0
   28.2138   -8.2513    7.6899 C   0  0  0  0  0  0  0  0  0  0  0  0
   29.0906   -7.0625    7.9108 C   0  0  0  0  0  0  0  0  0  0  0  0
   28.2027   -5.8398    8.0335 C   0  0  2  0  0  0  0  0  0  0  0  0
   28.9391   -4.5689    8.1348 C   0  0  0  0  0  0  0  0  0  0  0  0
   29.9363   -4.1227    7.5009 O   0  0  0  0  0  0  0  0  0  0  0  0
   27.4212   -5.8767    9.1923 O   0  0  0  0  0  0  0  0  0  0  0  0
   27.3744   -4.6358    9.7924 C   0  0  0  0  0  0  0  0  0  0  0  0
   26.5859   -4.1537   10.8509 C   0  0  0  0  0  0  0  0  0  0  0  0
   25.6360   -5.0595   11.4785 C   0  0  0  0  0  0  0  0  0  0  0  0
   24.8514   -4.6707   12.3746 O   0  0  0  0  0  0  0  0  0  0  0  0
   25.6271   -6.4081   11.0432 N   0  0  0  0  0  0  0  0  0  0  0  0
   28.2762   -3.7966    9.1945 C   0  0  0  0  0  0  0  0  0  0  0  0
   28.4483   -2.4832    9.5894 C   0  0  0  0  0  0  0  0  0  0  0  0
   27.6768   -1.9973   10.6333 C   0  0  0  0  0  0  0  0  0  0  0  0
   26.7705   -2.8356   11.2367 C   0  0  0  0  0  0  0  0  0  0  0  0
  1  2  2  0
  2  3  1  0
  2 15  1  0
  3  4  1  0
  3 14  1  0
  4  5  1  0
  5  6  1  0
  6  7  1  0
  6 13  1  0
  7  8  2  0
  7 12  1  0
  8  9  1  0
  9 10  2  0
 10 11  1  0
 11 12  2  0
 13 14  1  0
 15 16  2  0
 15 18  1  0
 16 17  1  0
 17 20  2  0
 18 19  2  0
 19 20  1  0
 20 21  1  0
 22 21  1  1
 22 23  1  0
 22 25  1  0
 23 24  2  0
 23 31  1  0
 25 26  1  0
 26 27  2  0
 26 31  1  0
 27 28  1  0
 27 34  1  0
 28 29  2  0
 28 30  1  0
 31 32  2  0
 32 33  1  0
 33 34  2  0
M  END
$$$$
