
     RDKit          3D

118120  0  0  0  0  0  0  0  0999 V2000
    6.5955    5.0148   13.1941 C   0  0  0  0  0  0  0  0  0  0  0  0
    6.3187    5.8044   14.0895 O   0  0  0  0  0  0  0  0  0  0  0  0
    8.0097    4.7079   12.7854 C   0  0  0  0  0  0  0  0  0  0  0  0
    5.6280    4.3292   12.4927 N   0  0  0  0  0  0  0  0  0  0  0  0
    4.8355    5.0041   11.4656 C   0  0  2  0  0  0  0  0  0  0  0  0
    3.7757    4.0675   10.8270 C   0  0  0  0  0  0  0  0  0  0  0  0
    4.0300    2.8947   10.5523 O   0  0  0  0  0  0  0  0  0  0  0  0
    5.7387    5.5787   10.3551 C   0  0  0  0  0  0  0  0  0  0  0  0
    6.1334    7.0535   10.5601 C   0  0  0  0  0  0  0  0  0  0  0  0
    6.9511    7.6562    9.4135 C   0  0  0  0  0  0  0  0  0  0  0  0
    7.1813    9.1505    9.5948 C   0  0  0  0  0  0  0  0  0  0  0  0
    6.6740    9.8525    8.3897 N   0  0  0  0  0  4  0  0  0  0  0  0
    2.5175    4.5926   10.6885 N   0  0  0  0  0  0  0  0  0  0  0  0
    1.4087    3.8376   10.1257 C   0  0  2  0  0  0  0  0  0  0  0  0
    0.1515    4.7291   10.1087 C   0  0  0  0  0  0  0  0  0  0  0  0
   -0.9757    4.2608   10.2561 O   0  0  0  0  0  0  0  0  0  0  0  0
    1.1494    2.5502   10.9354 C   0  0  0  0  0  0  0  0  0  0  0  0
    0.8700    2.8264   12.4242 C   0  0  0  0  0  0  0  0  0  0  0  0
    0.8997    1.5949   13.3331 C   0  0  0  0  0  0  0  0  0  0  0  0
   -0.4182    1.3619   14.0522 C   0  0  0  0  0  0  0  0  0  0  0  0
   -0.3119    0.2102   14.9472 N   0  0  0  0  0  4  0  0  0  0  0  0
    0.3975    6.0546    9.8193 N   0  0  0  0  0  0  0  0  0  0  0  0
    0.0245    6.6436    8.5176 C   0  0  2  0  0  0  0  0  0  0  0  0
   -1.2494    5.9543    7.9715 C   0  0  0  0  0  0  0  0  0  0  0  0
   -1.3377    4.7429    7.8034 O   0  0  0  0  0  0  0  0  0  0  0  0
    1.2077    6.4986    7.5539 C   0  0  0  0  0  0  0  0  0  0  0  0
    0.8063    6.6357    6.0822 C   0  0  0  0  0  0  0  0  0  0  0  0
    1.9802    6.9830    5.1649 C   0  0  0  0  0  0  0  0  0  0  0  0
    2.0566    8.3999    4.8591 N   0  0  0  0  0  0  0  0  0  0  0  0
    2.3958    8.8923    3.6516 C   0  0  0  0  0  0  0  0  0  0  0  0
    2.9382    7.9395    2.8664 N   0  0  0  0  0  0  0  0  0  0  0  0
    2.2415   10.1078    3.2774 N   0  0  0  0  0  0  0  0  0  0  0  0
   -2.3358    6.7882    7.8098 N   0  0  0  0  0  0  0  0  0  0  0  0
   -3.5650    6.2978    7.1935 C   0  0  2  0  0  0  0  0  0  0  0  0
   -3.8068    6.9173    5.7953 C   0  0  0  0  0  0  0  0  0  0  0  0
   -2.9175    7.3881    5.0816 O   0  0  0  0  0  0  0  0  0  0  0  0
   -4.7923    6.5239    8.1041 C   0  0  0  0  0  0  0  0  0  0  0  0
   -4.6836    5.8705    9.4690 C   0  0  0  0  0  0  0  0  0  0  0  0
   -3.7457    6.3199   10.4079 C   0  0  0  0  0  0  0  0  0  0  0  0
   -5.5035    4.7788    9.7969 C   0  0  0  0  0  0  0  0  0  0  0  0
   -3.5918    5.6557   11.6233 C   0  0  0  0  0  0  0  0  0  0  0  0
   -5.3689    4.1313   11.0242 C   0  0  0  0  0  0  0  0  0  0  0  0
   -4.4029    4.5714   11.9190 C   0  0  0  0  0  0  0  0  0  0  0  0
   -4.2349    3.9610   13.1211 O   0  0  0  0  0  0  0  0  0  0  0  0
   -5.1311    7.0415    5.4530 N   0  0  0  0  0  0  0  0  0  0  0  0
   -5.6369    7.6339    4.1989 C   0  0  2  0  0  0  0  0  0  0  0  0
   -7.0539    8.2470    4.3339 C   0  0  0  0  0  0  0  0  0  0  0  0
   -7.7373    8.1549    5.3472 O   0  0  0  0  0  0  0  0  0  0  0  0
   -5.6150    6.5737    3.0858 C   0  0  0  0  0  0  0  0  0  0  0  0
   -5.9920    5.3062    3.6399 O   0  0  0  0  0  0  0  0  0  0  0  0
   -7.5613    8.7502    3.1566 N   0  0  0  0  0  0  0  0  0  0  0  0
   -8.9521    8.6356    2.7125 C   0  0  2  0  0  0  0  0  0  0  0  0
   -9.2018    8.9314    1.2178 C   0  0  0  0  0  0  0  0  0  0  0  0
   -9.2771   10.0857    0.8147 O   0  0  0  0  0  0  0  0  0  0  0  0
   -9.9852    9.2626    3.6655 C   0  0  0  0  0  0  0  0  0  0  0  0
   -9.8766   10.7856    3.5939 C   0  0  0  0  0  0  0  0  0  0  0  0
  -11.0250   11.4729    2.8781 C   0  0  0  0  0  0  0  0  0  0  0  0
  -10.6081   12.7759    2.3421 N   0  0  0  0  0  0  0  0  0  0  0  0
  -10.5571   13.8972    3.1070 C   0  0  0  0  0  0  0  0  0  0  0  0
   -9.6346   14.8049    3.0607 N   0  0  0  0  0  0  0  0  0  0  0  0
  -11.5909   13.9818    3.9599 N   0  0  0  0  0  0  0  0  0  0  0  0
  -12.0645    6.6343    0.5338 O   0  0  0  0  0  0  0  0  0  0  0  0
  -11.1596    5.9967    1.0742 C   0  0  0  0  0  0  0  0  0  0  0  0
   -9.6477    6.4118    0.9983 C   0  0  2  0  0  0  0  0  0  0  0  0
   -9.1024    6.4653    2.4445 C   0  0  0  0  0  0  0  0  0  0  0  0
   -9.5713    7.8084    0.5051 N   0  0  0  0  0  0  0  0  0  0  0  0
   -8.7814    5.3770    0.2358 C   0  0  0  0  0  0  0  0  0  0  0  0
   -9.1742    5.0746   -1.2121 C   0  0  0  0  0  0  0  0  0  0  0  0
   -8.5089    3.8261   -1.7917 C   0  0  0  0  0  0  0  0  0  0  0  0
   -8.9737    2.5412   -1.1689 C   0  0  0  0  0  0  0  0  0  0  0  0
  -11.4649    4.8550    1.8006 N   0  0  0  0  0  0  0  0  0  0  0  0
  -12.1748    5.0945    3.0680 C   0  0  2  0  0  0  0  0  0  0  0  0
  -11.6478    4.3130    4.2957 C   0  0  0  0  0  0  0  0  0  0  0  0
  -11.7694    4.8089    5.4244 O   0  0  0  0  0  0  0  0  0  0  0  0
  -13.7098    4.8716    3.0314 C   0  0  0  0  0  0  0  0  0  0  0  0
  -14.4416    5.2203    1.7393 C   0  0  0  0  0  0  0  0  0  0  0  0
  -13.4836    5.6226    0.6335 C   0  0  0  0  0  0  0  0  0  0  0  0
  -12.4412    6.2525    0.8160 O   0  0  0  0  0  0  0  0  0  0  0  0
  -13.7836    5.1264   -0.5989 N   0  0  0  0  0  0  0  0  0  0  0  0
  -11.2513    3.0097    4.2515 N   0  0  0  0  0  0  0  0  0  0  0  0
  -10.4081    2.3300    3.2554 C   0  0  2  0  0  0  0  0  0  0  0  0
  -11.1893    1.5174    2.1920 C   0  0  0  0  0  0  0  0  0  0  0  0
  -10.7010    0.6077    1.5266 O   0  0  0  0  0  0  0  0  0  0  0  0
   -9.4512    1.3292    3.9503 C   0  0  0  0  0  0  0  0  0  0  0  0
   -9.9877   -0.0977    4.1843 C   0  0  1  0  0  0  0  0  0  0  0  0
  -11.4676   -0.0267    4.5765 C   0  0  0  0  0  0  0  0  0  0  0  0
   -9.8159   -0.9940    2.9604 C   0  0  0  0  0  0  0  0  0  0  0  0
  -12.4425    1.9802    1.8572 N   0  0  0  0  0  0  0  0  0  0  0  0
  -13.5583    1.0355    2.0932 C   0  0  2  0  0  0  0  0  0  0  0  0
  -14.7285    1.6306    1.2891 C   0  0  0  0  0  0  0  0  0  0  0  0
  -15.8257    1.9393    1.7428 O   0  0  0  0  0  0  0  0  0  0  0  0
  -13.8841    0.8712    3.5858 C   0  0  0  0  0  0  0  0  0  0  0  0
  -12.8535    1.5199    4.5309 C   0  0  1  0  0  0  0  0  0  0  0  0
  -11.4265    1.0550    4.2339 C   0  0  0  0  0  0  0  0  0  0  0  0
  -12.9313    3.0427    4.4082 C   0  0  0  0  0  0  0  0  0  0  0  0
  -15.4215    0.9735   -3.3069 O   0  0  0  0  0  0  0  0  0  0  0  0
  -15.5169    1.1401   -2.0964 C   0  0  0  0  0  0  0  0  0  0  0  0
  -14.3970    0.7953   -1.0694 C   0  0  2  0  0  0  0  0  0  0  0  0
  -14.7444   -0.6189   -0.5548 C   0  0  0  0  0  0  0  0  0  0  0  0
  -14.4716    1.8754   -0.0391 N   0  0  0  0  0  0  0  0  0  0  0  0
  -12.9886    0.7643   -1.7037 C   0  0  0  0  0  0  0  0  0  0  0  0
  -12.4404    2.1260   -2.1738 C   0  0  0  0  0  0  0  0  0  0  0  0
  -10.9877    2.0479   -2.6703 C   0  0  0  0  0  0  0  0  0  0  0  0
  -10.0049    1.7754   -1.5622 C   0  0  0  0  0  0  0  0  0  0  0  0
  -16.6742    1.6313   -1.4941 N   0  0  0  0  0  0  0  0  0  0  0  0
  -16.7351    1.7164   -0.0384 C   0  0  2  0  0  0  0  0  0  0  0  0
  -18.2172    1.5353    0.3577 C   0  0  0  0  0  0  0  0  0  0  0  0
  -18.7794    0.4389    0.3989 O   0  0  0  0  0  0  0  0  0  0  0  0
  -16.1390    3.0246    0.5129 C   0  0  0  0  0  0  0  0  0  0  0  0
  -17.0913    4.1991    0.6096 C   0  0  0  0  0  0  0  0  0  0  0  0
  -17.8301    4.6015   -0.5128 C   0  0  0  0  0  0  0  0  0  0  0  0
  -17.2553    4.9026    1.8101 C   0  0  0  0  0  0  0  0  0  0  0  0
  -18.7084    5.6858   -0.4373 C   0  0  0  0  0  0  0  0  0  0  0  0
  -18.1199    5.9981    1.8787 C   0  0  0  0  0  0  0  0  0  0  0  0
  -18.8461    6.3886    0.7557 C   0  0  0  0  0  0  0  0  0  0  0  0
  -18.9020    2.6826    0.6471 N   0  0  0  0  0  0  0  0  0  0  0  0
    1.2520   10.3033    3.1296 H   0  0  0  0  0  0  0  0  0  0  0  0
   -9.3881   14.8861    2.0628 H   0  0  0  0  0  0  0  0  0  0  0  0
  1  2  2  0
  1  3  1  0
  4  1  1  0
  5  4  1  0
  6  5  1  0
  5  8  1  6
  6  7  2  0
 13  6  1  0
  8  9  1  0
  9 10  1  0
 10 11  1  0
 11 12  1  0
 14 13  1  0
 15 14  1  0
 14 17  1  1
 15 16  2  0
 22 15  1  0
 17 18  1  0
 18 19  1  0
 19 20  1  0
 20 21  1  0
 23 22  1  0
 24 23  1  0
 23 26  1  6
 24 25  2  0
 33 24  1  0
 26 27  1  0
 27 28  1  0
 28 29  1  0
 29 30  1  0
 30 31  1  0
 30 32  2  0
 34 33  1  0
 35 34  1  0
 34 37  1  1
 35 36  2  0
 45 35  1  0
 37 38  1  0
 38 39  2  0
 38 40  1  0
 39 41  1  0
 40 42  2  0
 41 43  2  0
 42 43  1  0
 43 44  1  0
 46 45  1  0
 47 46  1  0
 46 49  1  6
 47 48  2  0
 51 47  1  0
 49 50  1  0
 52 51  1  0
 53 52  1  0
 52 55  1  1
 53 54  2  0
 66 53  1  0
 55 56  1  0
 56 57  1  0
 57 58  1  0
 58 59  1  0
 59 60  2  0
 59 61  1  0
 63 62  2  0
 63 64  1  0
 71 63  1  0
 64 65  1  1
 64 66  1  0
 64 67  1  0
 67 68  1  0
 68 69  1  0
 69 70  1  0
 70104  2  0
 72 71  1  0
 73 72  1  0
 72 75  1  6
 73 74  2  0
 80 73  1  0
 75 76  1  0
 76 77  1  0
 77 78  2  0
 77 79  1  0
 81 80  1  0
 82 81  1  0
 81 84  1  1
 82 83  2  0
 88 82  1  0
 84 85  1  0
 85 86  1  6
 85 87  1  0
 89 88  1  0
 90 89  1  0
 89 92  1  1
 90 91  2  0
100 90  1  0
 92 93  1  0
 93 94  1  6
 93 95  1  0
 97 96  2  0
 98 97  1  0
 97105  1  0
 98 99  1  1
 98100  1  0
 98101  1  0
101102  1  0
102103  1  0
103104  1  0
105106  1  0
106107  1  0
106109  1  6
107108  2  0
107116  1  0
109110  1  0
110111  2  0
110112  1  0
111113  1  0
112114  2  0
113115  2  0
114115  1  0
 32117  1  0
 60118  1  0
M  CHG  2  12   1  21   1
M  END
$$$$
