
     RDKit          3D

118120  0  0  0  0  0  0  0  0999 V2000
    5.8321    9.3039   11.4544 C   0  0  0  0  0  0  0  0  0  0  0  0
    6.5566    9.9490   12.2033 O   0  0  0  0  0  0  0  0  0  0  0  0
    5.3993    9.8068   10.1050 C   0  0  0  0  0  0  0  0  0  0  0  0
    5.3624    8.0513   11.7839 N   0  0  0  0  0  0  0  0  0  0  0  0
    4.5138    7.3071   10.8542 C   0  0  2  0  0  0  0  0  0  0  0  0
    3.0111    7.6593   11.0148 C   0  0  0  0  0  0  0  0  0  0  0  0
    2.6021    8.3354   11.9588 O   0  0  0  0  0  0  0  0  0  0  0  0
    4.6991    5.7857   11.0289 C   0  0  0  0  0  0  0  0  0  0  0  0
    6.0804    5.2620   10.5923 C   0  0  0  0  0  0  0  0  0  0  0  0
    6.6447    5.9328    9.3360 C   0  0  0  0  0  0  0  0  0  0  0  0
    8.1561    5.7792    9.2317 C   0  0  0  0  0  0  0  0  0  0  0  0
    8.6014    6.3838    7.9516 N   0  0  0  0  0  4  0  0  0  0  0  0
    2.1903    7.2647    9.9907 N   0  0  0  0  0  0  0  0  0  0  0  0
    0.7419    7.3847   10.0541 C   0  0  2  0  0  0  0  0  0  0  0  0
    0.1326    5.9895   10.2943 C   0  0  0  0  0  0  0  0  0  0  0  0
    0.8371    4.9949   10.4559 O   0  0  0  0  0  0  0  0  0  0  0  0
    0.1816    8.0049    8.7573 C   0  0  0  0  0  0  0  0  0  0  0  0
    0.5386    9.4948    8.6043 C   0  0  0  0  0  0  0  0  0  0  0  0
   -0.5041   10.4748    9.1483 C   0  0  0  0  0  0  0  0  0  0  0  0
   -0.7481   11.6512    8.2181 C   0  0  0  0  0  0  0  0  0  0  0  0
   -1.7904   11.3227    7.2464 N   0  0  0  0  0  4  0  0  0  0  0  0
   -1.2432    5.9474   10.2124 N   0  0  0  0  0  0  0  0  0  0  0  0
   -1.9413    4.8732    9.4779 C   0  0  2  0  0  0  0  0  0  0  0  0
   -2.8867    5.4869    8.4169 C   0  0  0  0  0  0  0  0  0  0  0  0
   -2.9889    6.6939    8.2266 O   0  0  0  0  0  0  0  0  0  0  0  0
   -2.7033    4.0031   10.4840 C   0  0  0  0  0  0  0  0  0  0  0  0
   -2.5187    4.4579   11.9348 C   0  0  0  0  0  0  0  0  0  0  0  0
   -2.6867    3.3255   12.9496 C   0  0  0  0  0  0  0  0  0  0  0  0
   -1.5173    2.4704   13.0387 N   0  0  0  0  0  0  0  0  0  0  0  0
   -1.4117    1.4245   13.8816 C   0  0  0  0  0  0  0  0  0  0  0  0
   -2.6201    1.0358   14.3370 N   0  0  0  0  0  0  0  0  0  0  0  0
   -0.3149    0.8604   14.2283 N   0  0  0  0  0  0  0  0  0  0  0  0
   -3.5149    4.5701    7.6005 N   0  0  0  0  0  0  0  0  0  0  0  0
   -4.0191    4.9648    6.2886 C   0  0  2  0  0  0  0  0  0  0  0  0
   -5.3263    5.7887    6.3871 C   0  0  0  0  0  0  0  0  0  0  0  0
   -6.2836    5.4883    7.1048 O   0  0  0  0  0  0  0  0  0  0  0  0
   -4.2177    3.7458    5.3605 C   0  0  0  0  0  0  0  0  0  0  0  0
   -5.6605    3.2977    5.2217 C   0  0  0  0  0  0  0  0  0  0  0  0
   -6.5206    3.2921    6.3277 C   0  0  0  0  0  0  0  0  0  0  0  0
   -6.1445    2.8483    3.9826 C   0  0  0  0  0  0  0  0  0  0  0  0
   -7.8167    2.7936    6.2098 C   0  0  0  0  0  0  0  0  0  0  0  0
   -7.4501    2.3755    3.8578 C   0  0  0  0  0  0  0  0  0  0  0  0
   -8.2676    2.3420    4.9794 C   0  0  0  0  0  0  0  0  0  0  0  0
   -9.5429    1.8800    4.9004 O   0  0  0  0  0  0  0  0  0  0  0  0
   -5.4098    6.8264    5.4911 N   0  0  0  0  0  0  0  0  0  0  0  0
   -6.5921    7.6871    5.2892 C   0  0  2  0  0  0  0  0  0  0  0  0
   -7.6268    7.0919    4.3007 C   0  0  0  0  0  0  0  0  0  0  0  0
   -8.6286    6.4815    4.6558 O   0  0  0  0  0  0  0  0  0  0  0  0
   -6.1388    9.0785    4.8181 C   0  0  0  0  0  0  0  0  0  0  0  0
   -6.9772    9.5014    3.7347 O   0  0  0  0  0  0  0  0  0  0  0  0
   -7.2360    7.1452    2.9811 N   0  0  0  0  0  0  0  0  0  0  0  0
   -8.0026    6.6274    1.8459 C   0  0  2  0  0  0  0  0  0  0  0  0
   -7.2756    5.5843    0.9698 C   0  0  0  0  0  0  0  0  0  0  0  0
   -6.6252    5.9351   -0.0070 O   0  0  0  0  0  0  0  0  0  0  0  0
   -8.7767    7.6949    1.0522 C   0  0  0  0  0  0  0  0  0  0  0  0
   -7.8754    8.2567   -0.0471 C   0  0  0  0  0  0  0  0  0  0  0  0
   -7.4173    9.6867    0.1738 C   0  0  0  0  0  0  0  0  0  0  0  0
   -6.9727   10.2987   -1.0858 N   0  0  0  0  0  0  0  0  0  0  0  0
   -7.4513   11.4909   -1.5268 C   0  0  0  0  0  0  0  0  0  0  0  0
   -8.1519   11.6762   -2.6001 N   0  0  0  0  0  0  0  0  0  0  0  0
   -7.1121   12.5085   -0.7188 N   0  0  0  0  0  0  0  0  0  0  0  0
  -10.0918    5.0191    0.1974 O   0  0  0  0  0  0  0  0  0  0  0  0
  -10.1215    4.4904    1.3096 C   0  0  0  0  0  0  0  0  0  0  0  0
   -8.8640    3.8436    1.9909 C   0  0  2  0  0  0  0  0  0  0  0  0
   -8.7263    4.4592    3.4029 C   0  0  0  0  0  0  0  0  0  0  0  0
   -7.6546    4.2882    1.2564 N   0  0  0  0  0  0  0  0  0  0  0  0
   -9.0114    2.3130    2.1870 C   0  0  0  0  0  0  0  0  0  0  0  0
   -9.2485    1.4715    0.9309 C   0  0  0  0  0  0  0  0  0  0  0  0
   -9.7142    0.0434    1.2150 C   0  0  0  0  0  0  0  0  0  0  0  0
  -11.0955   -0.0443    1.7975 C   0  0  0  0  0  0  0  0  0  0  0  0
  -11.3113    4.4591    2.0220 N   0  0  0  0  0  0  0  0  0  0  0  0
  -11.7670    5.7634    2.5308 C   0  0  2  0  0  0  0  0  0  0  0  0
  -12.2515    5.7834    4.0007 C   0  0  0  0  0  0  0  0  0  0  0  0
  -12.1266    6.8227    4.6633 O   0  0  0  0  0  0  0  0  0  0  0  0
  -12.8713    6.4627    1.6949 C   0  0  0  0  0  0  0  0  0  0  0  0
  -12.5139    7.7829    1.0198 C   0  0  0  0  0  0  0  0  0  0  0  0
  -11.1841    8.3288    1.5057 C   0  0  0  0  0  0  0  0  0  0  0  0
  -10.5879    9.2691    0.9793 O   0  0  0  0  0  0  0  0  0  0  0  0
  -10.7285    7.7873    2.6694 N   0  0  0  0  0  0  0  0  0  0  0  0
  -13.0117    4.8009    4.5617 N   0  0  0  0  0  0  0  0  0  0  0  0
  -12.8600    3.3406    4.4632 C   0  0  2  0  0  0  0  0  0  0  0  0
  -13.7925    2.6609    3.4288 C   0  0  0  0  0  0  0  0  0  0  0  0
  -14.0899    1.4693    3.4499 O   0  0  0  0  0  0  0  0  0  0  0  0
  -13.1646    2.6726    5.8274 C   0  0  0  0  0  0  0  0  0  0  0  0
  -11.9639    2.0874    6.5987 C   0  0  1  0  0  0  0  0  0  0  0  0
  -11.8143    0.6013    6.2552 C   0  0  0  0  0  0  0  0  0  0  0  0
  -10.6615    2.8249    6.2979 C   0  0  0  0  0  0  0  0  0  0  0  0
  -14.1447    3.4092    2.3275 N   0  0  0  0  0  0  0  0  0  0  0  0
  -15.5966    3.6362    2.1452 C   0  0  2  0  0  0  0  0  0  0  0  0
  -15.7187    4.1258    0.6906 C   0  0  0  0  0  0  0  0  0  0  0  0
  -16.2242    5.1843    0.3311 O   0  0  0  0  0  0  0  0  0  0  0  0
  -16.1674    4.6382    3.1606 C   0  0  0  0  0  0  0  0  0  0  0  0
  -15.2719    5.8693    3.4028 C   0  0  1  0  0  0  0  0  0  0  0  0
  -13.7836    5.5205    3.3404 C   0  0  0  0  0  0  0  0  0  0  0  0
  -15.5885    6.9470    2.3644 C   0  0  0  0  0  0  0  0  0  0  0  0
  -16.3295    1.3015   -3.0002 O   0  0  0  0  0  0  0  0  0  0  0  0
  -16.0258    2.2086   -2.2341 C   0  0  0  0  0  0  0  0  0  0  0  0
  -15.7770    2.0249   -0.7069 C   0  0  2  0  0  0  0  0  0  0  0  0
  -17.1690    1.7331   -0.1048 C   0  0  0  0  0  0  0  0  0  0  0  0
  -15.1546    3.3081   -0.2597 N   0  0  0  0  0  0  0  0  0  0  0  0
  -14.8368    0.8409   -0.3893 C   0  0  0  0  0  0  0  0  0  0  0  0
  -13.3702    1.0195   -0.8283 C   0  0  0  0  0  0  0  0  0  0  0  0
  -12.4620   -0.1312   -0.3656 C   0  0  0  0  0  0  0  0  0  0  0  0
  -12.2542   -0.1486    1.1259 C   0  0  0  0  0  0  0  0  0  0  0  0
  -15.9041    3.5340   -2.6490 N   0  0  0  0  0  0  0  0  0  0  0  0
  -15.9575    4.5976   -1.6511 C   0  0  2  0  0  0  0  0  0  0  0  0
  -15.6619    5.9203   -2.3924 C   0  0  0  0  0  0  0  0  0  0  0  0
  -15.8541    7.0330   -1.8976 O   0  0  0  0  0  0  0  0  0  0  0  0
  -14.9978    4.3629   -0.4703 C   0  0  0  0  0  0  0  0  0  0  0  0
  -15.5196    3.4784    0.6437 C   0  0  0  0  0  0  0  0  0  0  0  0
  -15.1735    2.1196    0.6853 C   0  0  0  0  0  0  0  0  0  0  0  0
  -16.3504    3.9917    1.6483 C   0  0  0  0  0  0  0  0  0  0  0  0
  -15.6518    1.2927    1.7052 C   0  0  0  0  0  0  0  0  0  0  0  0
  -16.8428    3.1592    2.6567 C   0  0  0  0  0  0  0  0  0  0  0  0
  -16.4929    1.8110    2.6850 C   0  0  0  0  0  0  0  0  0  0  0  0
  -15.1844    5.7960   -3.6673 N   0  0  0  0  0  0  0  0  0  0  0  0
    0.4585    1.2389   13.6829 H   0  0  0  0  0  0  0  0  0  0  0  0
   -8.7318   10.8285   -2.6915 H   0  0  0  0  0  0  0  0  0  0  0  0
  1  2  2  0
  1  3  1  0
  4  1  1  0
  5  4  1  0
  6  5  1  0
  5  8  1  1
  6  7  2  0
 13  6  1  0
  8  9  1  0
  9 10  1  0
 10 11  1  0
 11 12  1  0
 14 13  1  0
 15 14  1  0
 14 17  1  6
 15 16  2  0
 22 15  1  0
 17 18  1  0
 18 19  1  0
 19 20  1  0
 20 21  1  0
 23 22  1  0
 24 23  1  0
 23 26  1  1
 24 25  2  0
 33 24  1  0
 26 27  1  0
 27 28  1  0
 28 29  1  0
 29 30  1  0
 30 31  1  0
 30 32  2  0
 34 33  1  0
 35 34  1  0
 34 37  1  6
 35 36  2  0
 45 35  1  0
 37 38  1  0
 38 39  2  0
 38 40  1  0
 39 41  1  0
 40 42  2  0
 41 43  2  0
 42 43  1  0
 43 44  1  0
 46 45  1  0
 47 46  1  0
 46 49  1  6
 47 48  2  0
 51 47  1  0
 49 50  1  0
 52 51  1  0
 53 52  1  0
 52 55  1  6
 53 54  2  0
 66 53  1  0
 55 56  1  0
 56 57  1  0
 57 58  1  0
 58 59  1  0
 59 60  2  0
 59 61  1  0
 63 62  2  0
 63 64  1  0
 71 63  1  0
 64 65  1  1
 64 66  1  0
 64 67  1  0
 67 68  1  0
 68 69  1  0
 69 70  1  0
 70104  2  0
 72 71  1  0
 73 72  1  0
 72 75  1  6
 73 74  2  0
 80 73  1  0
 75 76  1  0
 76 77  1  0
 77 78  2  0
 77 79  1  0
 81 80  1  0
 82 81  1  0
 81 84  1  1
 82 83  2  0
 88 82  1  0
 84 85  1  0
 85 86  1  6
 85 87  1  0
 89 88  1  0
 90 89  1  0
 89 92  1  1
 90 91  2  0
100 90  1  0
 92 93  1  0
 93 94  1  6
 93 95  1  0
 97 96  2  0
 98 97  1  0
 97105  1  0
 98 99  1  1
 98100  1  0
 98101  1  0
101102  1  0
102103  1  0
103104  1  0
105106  1  0
106107  1  0
106109  1  1
107108  2  0
107116  1  0
109110  1  0
110111  2  0
110112  1  0
111113  1  0
112114  2  0
113115  2  0
114115  1  0
 32117  1  0
 60118  1  0
M  CHG  2  12   1  21   1
M  END
$$$$
