
     RDKit          3D

118120  0  0  0  0  0  0  0  0999 V2000
    0.1015    2.6253    9.9302 C   0  0  0  0  0  0  0  0  0  0  0  0
   -0.5227    1.8681    9.1962 O   0  0  0  0  0  0  0  0  0  0  0  0
    1.6033    2.6343   10.0057 C   0  0  0  0  0  0  0  0  0  0  0  0
   -0.5249    3.5454   10.7420 N   0  0  0  0  0  0  0  0  0  0  0  0
   -1.3914    4.5745   10.1689 C   0  0  2  0  0  0  0  0  0  0  0  0
   -0.8818    5.0760    8.7916 C   0  0  0  0  0  0  0  0  0  0  0  0
    0.2334    4.7755    8.3656 O   0  0  0  0  0  0  0  0  0  0  0  0
   -1.5336    5.7768   11.1248 C   0  0  0  0  0  0  0  0  0  0  0  0
   -2.6287    6.7814   10.7198 C   0  0  0  0  0  0  0  0  0  0  0  0
   -4.0599    6.2620   10.8895 C   0  0  0  0  0  0  0  0  0  0  0  0
   -4.6304    5.7129    9.5889 C   0  0  0  0  0  0  0  0  0  0  0  0
   -6.0430    5.3234    9.8243 N   0  0  0  0  0  4  0  0  0  0  0  0
   -1.7850    5.7796    8.0384 N   0  0  0  0  0  0  0  0  0  0  0  0
   -1.5875    6.0468    6.6221 C   0  0  2  0  0  0  0  0  0  0  0  0
   -2.7972    6.8380    6.0871 C   0  0  0  0  0  0  0  0  0  0  0  0
   -3.9523    6.4647    6.2828 O   0  0  0  0  0  0  0  0  0  0  0  0
   -1.4062    4.7340    5.8322 C   0  0  0  0  0  0  0  0  0  0  0  0
   -1.0692    4.9707    4.3486 C   0  0  0  0  0  0  0  0  0  0  0  0
   -1.9643    4.2321    3.3502 C   0  0  0  0  0  0  0  0  0  0  0  0
   -1.5644    4.4799    1.9055 C   0  0  0  0  0  0  0  0  0  0  0  0
   -1.5123    3.2175    1.1691 N   0  0  0  0  0  4  0  0  0  0  0  0
   -2.4662    7.9222    5.3020 N   0  0  0  0  0  0  0  0  0  0  0  0
   -3.3270    9.1202    5.2360 C   0  0  2  0  0  0  0  0  0  0  0  0
   -4.6331    8.7909    4.4732 C   0  0  0  0  0  0  0  0  0  0  0  0
   -4.6617    8.1102    3.4537 O   0  0  0  0  0  0  0  0  0  0  0  0
   -2.5442   10.2528    4.5619 C   0  0  0  0  0  0  0  0  0  0  0  0
   -3.3737   11.5256    4.3675 C   0  0  0  0  0  0  0  0  0  0  0  0
   -2.9097   12.6898    5.2448 C   0  0  0  0  0  0  0  0  0  0  0  0
   -1.5450   13.0974    4.9650 N   0  0  0  0  0  0  0  0  0  0  0  0
   -0.9203   14.1153    5.5888 C   0  0  0  0  0  0  0  0  0  0  0  0
   -1.5783   14.4854    6.7063 N   0  0  0  0  0  0  0  0  0  0  0  0
    0.1562   14.6816    5.1867 N   0  0  0  0  0  0  0  0  0  0  0  0
   -5.7899    9.2082    5.0972 N   0  0  0  0  0  0  0  0  0  0  0  0
   -7.0266    9.3722    4.3391 C   0  0  2  0  0  0  0  0  0  0  0  0
   -7.2871   10.8496    3.9558 C   0  0  0  0  0  0  0  0  0  0  0  0
   -7.3237   11.7802    4.7646 O   0  0  0  0  0  0  0  0  0  0  0  0
   -8.2422    8.7871    5.0919 C   0  0  0  0  0  0  0  0  0  0  0  0
   -9.2479    8.0846    4.1992 C   0  0  0  0  0  0  0  0  0  0  0  0
  -10.6213    8.1607    4.4658 C   0  0  0  0  0  0  0  0  0  0  0  0
   -8.8091    7.3171    3.1083 C   0  0  0  0  0  0  0  0  0  0  0  0
  -11.5297    7.4385    3.6941 C   0  0  0  0  0  0  0  0  0  0  0  0
   -9.7201    6.6166    2.3190 C   0  0  0  0  0  0  0  0  0  0  0  0
  -11.0716    6.6762    2.6310 C   0  0  0  0  0  0  0  0  0  0  0  0
  -11.9895    6.0006    1.8914 O   0  0  0  0  0  0  0  0  0  0  0  0
   -7.6260   11.0409    2.6386 N   0  0  0  0  0  0  0  0  0  0  0  0
   -6.6734   11.1057    1.5126 C   0  0  2  0  0  0  0  0  0  0  0  0
   -7.0155   10.1297    0.3583 C   0  0  0  0  0  0  0  0  0  0  0  0
   -6.3580   10.0440   -0.6726 O   0  0  0  0  0  0  0  0  0  0  0  0
   -5.2494   10.8459    2.0305 C   0  0  0  0  0  0  0  0  0  0  0  0
   -4.3070   11.2358    1.0227 O   0  0  0  0  0  0  0  0  0  0  0  0
   -8.2274    9.4920    0.5042 N   0  0  0  0  0  0  0  0  0  0  0  0
   -8.5561    8.1621   -0.0133 C   0  0  2  0  0  0  0  0  0  0  0  0
   -7.6632    7.6553   -1.1665 C   0  0  0  0  0  0  0  0  0  0  0  0
   -8.0459    7.7247   -2.3281 O   0  0  0  0  0  0  0  0  0  0  0  0
  -10.0600    7.9035   -0.2134 C   0  0  0  0  0  0  0  0  0  0  0  0
  -10.8411    8.5795    0.9134 C   0  0  0  0  0  0  0  0  0  0  0  0
  -12.1881    9.1461    0.5036 C   0  0  0  0  0  0  0  0  0  0  0  0
  -13.1995    8.9054    1.5417 N   0  0  0  0  0  0  0  0  0  0  0  0
  -13.0822    9.3964    2.8027 C   0  0  0  0  0  0  0  0  0  0  0  0
  -13.7726    9.0176    3.8308 N   0  0  0  0  0  0  0  0  0  0  0  0
  -12.1499   10.3586    2.8921 N   0  0  0  0  0  0  0  0  0  0  0  0
   -8.9625    6.3657    0.5470 O   0  0  0  0  0  0  0  0  0  0  0  0
   -7.9869    5.7091    0.9139 C   0  0  0  0  0  0  0  0  0  0  0  0
   -6.5957    5.7525    0.1883 C   0  0  2  0  0  0  0  0  0  0  0  0
   -5.5190    6.0587    1.2554 C   0  0  0  0  0  0  0  0  0  0  0  0
   -6.5805    6.9232   -0.7223 N   0  0  0  0  0  0  0  0  0  0  0  0
   -6.2124    4.3934   -0.4510 C   0  0  0  0  0  0  0  0  0  0  0  0
   -7.1759    3.8195   -1.4925 C   0  0  0  0  0  0  0  0  0  0  0  0
   -6.9250    2.3502   -1.8322 C   0  0  0  0  0  0  0  0  0  0  0  0
   -7.2319    1.4024   -0.7085 C   0  0  0  0  0  0  0  0  0  0  0  0
   -8.0927    4.8884    2.0273 N   0  0  0  0  0  0  0  0  0  0  0  0
   -8.2133    5.5955    3.3130 C   0  0  2  0  0  0  0  0  0  0  0  0
   -7.3244    5.0631    4.4629 C   0  0  0  0  0  0  0  0  0  0  0  0
   -6.9374    5.8481    5.3395 O   0  0  0  0  0  0  0  0  0  0  0  0
   -9.6508    5.7089    3.8857 C   0  0  0  0  0  0  0  0  0  0  0  0
  -10.8031    5.7748    2.8885 C   0  0  0  0  0  0  0  0  0  0  0  0
  -10.4968    5.0110    1.6137 C   0  0  0  0  0  0  0  0  0  0  0  0
   -9.5514    4.2326    1.4833 O   0  0  0  0  0  0  0  0  0  0  0  0
  -11.4259    5.1403    0.6261 N   0  0  0  0  0  0  0  0  0  0  0  0
   -7.1119    3.7388    4.7058 N   0  0  0  0  0  0  0  0  0  0  0  0
   -6.8065    2.6586    3.7544 C   0  0  2  0  0  0  0  0  0  0  0  0
   -8.0233    1.7880    3.3507 C   0  0  0  0  0  0  0  0  0  0  0  0
   -7.9338    0.6538    2.8879 O   0  0  0  0  0  0  0  0  0  0  0  0
   -5.7590    1.6888    4.3562 C   0  0  0  0  0  0  0  0  0  0  0  0
   -5.2836    1.9833    5.7935 C   0  0  1  0  0  0  0  0  0  0  0  0
   -3.8285    2.4635    5.7596 C   0  0  0  0  0  0  0  0  0  0  0  0
   -6.1574    3.0191    6.4967 C   0  0  0  0  0  0  0  0  0  0  0  0
   -9.2528    2.4087    3.3422 N   0  0  0  0  0  0  0  0  0  0  0  0
  -10.2725    1.8223    4.2417 C   0  0  2  0  0  0  0  0  0  0  0  0
  -11.5990    2.4283    3.7484 C   0  0  0  0  0  0  0  0  0  0  0  0
  -12.3889    3.0740    4.4297 O   0  0  0  0  0  0  0  0  0  0  0  0
   -9.9942    2.1243    5.7223 C   0  0  0  0  0  0  0  0  0  0  0  0
   -8.5093    2.3842    6.0442 C   0  0  1  0  0  0  0  0  0  0  0  0
   -7.7124    2.7874    4.8021 C   0  0  0  0  0  0  0  0  0  0  0  0
   -8.3979    3.4833    7.1024 C   0  0  0  0  0  0  0  0  0  0  0  0
  -13.9141    1.4084   -0.0014 O   0  0  0  0  0  0  0  0  0  0  0  0
  -13.7111    1.2619    1.1984 C   0  0  0  0  0  0  0  0  0  0  0  0
  -12.3168    0.9602    1.8249 C   0  0  2  0  0  0  0  0  0  0  0  0
  -12.5726   -0.1627    2.8541 C   0  0  0  0  0  0  0  0  0  0  0  0
  -11.8669    2.2596    2.4106 N   0  0  0  0  0  0  0  0  0  0  0  0
  -11.2867    0.4617    0.7870 C   0  0  0  0  0  0  0  0  0  0  0  0
  -10.8354    1.5031   -0.2558 C   0  0  0  0  0  0  0  0  0  0  0  0
   -9.7150    0.9863   -1.1725 C   0  0  0  0  0  0  0  0  0  0  0  0
   -8.4062    0.8034   -0.4502 C   0  0  0  0  0  0  0  0  0  0  0  0
  -14.7328    1.3144    2.1455 N   0  0  0  0  0  0  0  0  0  0  0  0
  -14.4602    0.8693    3.5084 C   0  0  2  0  0  0  0  0  0  0  0  0
  -12.9827    0.4196    3.5440 C   0  0  0  0  0  0  0  0  0  0  0  0
  -12.1987    0.7355    4.4415 O   0  0  0  0  0  0  0  0  0  0  0  0
  -15.4191   -0.2380    3.9826 C   0  0  0  0  0  0  0  0  0  0  0  0
  -15.4964   -1.4702    3.1043 C   0  0  0  0  0  0  0  0  0  0  0  0
  -16.3785   -2.5118    3.4277 C   0  0  0  0  0  0  0  0  0  0  0  0
  -14.6979   -1.5962    1.9600 C   0  0  0  0  0  0  0  0  0  0  0  0
  -16.4559   -3.6551    2.6279 C   0  0  0  0  0  0  0  0  0  0  0  0
  -14.7632   -2.7482    1.1719 C   0  0  0  0  0  0  0  0  0  0  0  0
  -15.6421   -3.7763    1.5058 C   0  0  0  0  0  0  0  0  0  0  0  0
  -12.5673   -0.3485    2.4922 N   0  0  0  0  0  0  0  0  0  0  0  0
    0.7339   14.9382    5.9864 H   0  0  0  0  0  0  0  0  0  0  0  0
  -14.5763    8.5037    3.4396 H   0  0  0  0  0  0  0  0  0  0  0  0
  1  2  2  0
  1  3  1  0
  4  1  1  0
  5  4  1  0
  6  5  1  0
  5  8  1  1
  6  7  2  0
 13  6  1  0
  8  9  1  0
  9 10  1  0
 10 11  1  0
 11 12  1  0
 14 13  1  0
 15 14  1  0
 14 17  1  6
 15 16  2  0
 22 15  1  0
 17 18  1  0
 18 19  1  0
 19 20  1  0
 20 21  1  0
 23 22  1  0
 24 23  1  0
 23 26  1  6
 24 25  2  0
 33 24  1  0
 26 27  1  0
 27 28  1  0
 28 29  1  0
 29 30  1  0
 30 31  1  0
 30 32  2  0
 34 33  1  0
 35 34  1  0
 34 37  1  1
 35 36  2  0
 45 35  1  0
 37 38  1  0
 38 39  2  0
 38 40  1  0
 39 41  1  0
 40 42  2  0
 41 43  2  0
 42 43  1  0
 43 44  1  0
 46 45  1  0
 47 46  1  0
 46 49  1  1
 47 48  2  0
 51 47  1  0
 49 50  1  0
 52 51  1  0
 53 52  1  0
 52 55  1  6
 53 54  2  0
 66 53  1  0
 55 56  1  0
 56 57  1  0
 57 58  1  0
 58 59  1  0
 59 60  2  0
 59 61  1  0
 63 62  2  0
 63 64  1  0
 71 63  1  0
 64 65  1  1
 64 66  1  0
 64 67  1  0
 67 68  1  0
 68 69  1  0
 69 70  1  0
 70104  2  0
 72 71  1  0
 73 72  1  0
 72 75  1  1
 73 74  2  0
 80 73  1  0
 75 76  1  0
 76 77  1  0
 77 78  2  0
 77 79  1  0
 81 80  1  0
 82 81  1  0
 81 84  1  1
 82 83  2  0
 88 82  1  0
 84 85  1  0
 85 86  1  6
 85 87  1  0
 89 88  1  0
 90 89  1  0
 89 92  1  1
 90 91  2  0
100 90  1  0
 92 93  1  0
 93 94  1  6
 93 95  1  0
 97 96  2  0
 98 97  1  0
 97105  1  0
 98 99  1  1
 98100  1  0
 98101  1  0
101102  1  0
102103  1  0
103104  1  0
105106  1  0
106107  1  0
106109  1  6
107108  2  0
107116  1  0
109110  1  0
110111  2  0
110112  1  0
111113  1  0
112114  2  0
113115  2  0
114115  1  0
 32117  1  0
 60118  1  0
M  CHG  2  12   1  21   1
M  END
$$$$
