
     RDKit          3D

118120  0  0  0  0  0  0  0  0999 V2000
    0.9686    9.2099   13.1880 C   0  0  0  0  0  0  0  0  0  0  0  0
    0.4978    9.2646   14.3181 O   0  0  0  0  0  0  0  0  0  0  0  0
    1.2804   10.4352   12.3740 C   0  0  0  0  0  0  0  0  0  0  0  0
    1.2651    8.0140   12.5716 N   0  0  0  0  0  0  0  0  0  0  0  0
    1.8363    7.9927   11.2256 C   0  0  2  0  0  0  0  0  0  0  0  0
    0.7519    8.1112   10.1218 C   0  0  0  0  0  0  0  0  0  0  0  0
   -0.3999    8.4599   10.3809 O   0  0  0  0  0  0  0  0  0  0  0  0
    2.6594    6.7093   10.9915 C   0  0  0  0  0  0  0  0  0  0  0  0
    3.2686    6.5965    9.5812 C   0  0  0  0  0  0  0  0  0  0  0  0
    4.1137    5.3391    9.3543 C   0  0  0  0  0  0  0  0  0  0  0  0
    4.3198    5.0441    7.8747 C   0  0  0  0  0  0  0  0  0  0  0  0
    5.6506    4.4097    7.7043 N   0  0  0  0  0  4  0  0  0  0  0  0
    1.1810    7.9091    8.8361 N   0  0  0  0  0  0  0  0  0  0  0  0
    0.3892    7.1943    7.8469 C   0  0  2  0  0  0  0  0  0  0  0  0
   -1.1053    7.3604    8.1848 C   0  0  0  0  0  0  0  0  0  0  0  0
   -1.6067    6.8349    9.1769 O   0  0  0  0  0  0  0  0  0  0  0  0
    0.7730    5.7005    7.8066 C   0  0  0  0  0  0  0  0  0  0  0  0
   -0.0913    4.8874    6.8254 C   0  0  0  0  0  0  0  0  0  0  0  0
    0.2979    3.4141    6.6796 C   0  0  0  0  0  0  0  0  0  0  0  0
    1.4972    3.2092    5.7696 C   0  0  0  0  0  0  0  0  0  0  0  0
    1.6189    1.7997    5.3991 N   0  0  0  0  0  4  0  0  0  0  0  0
   -1.8294    8.0535    7.2379 N   0  0  0  0  0  0  0  0  0  0  0  0
   -3.2838    8.2659    7.3799 C   0  0  2  0  0  0  0  0  0  0  0  0
   -4.0545    7.2366    6.5181 C   0  0  0  0  0  0  0  0  0  0  0  0
   -3.6522    6.8355    5.4314 O   0  0  0  0  0  0  0  0  0  0  0  0
   -3.6132    9.7073    6.9754 C   0  0  0  0  0  0  0  0  0  0  0  0
   -2.3682   10.5513    6.6868 C   0  0  0  0  0  0  0  0  0  0  0  0
   -2.6920   11.9999    6.3167 C   0  0  0  0  0  0  0  0  0  0  0  0
   -2.2682   12.9488    7.3300 N   0  0  0  0  0  0  0  0  0  0  0  0
   -0.9987   13.3751    7.4786 C   0  0  0  0  0  0  0  0  0  0  0  0
   -0.5955   14.0995    6.4150 N   0  0  0  0  0  0  0  0  0  0  0  0
   -0.2479   13.1290    8.4871 N   0  0  0  0  0  0  0  0  0  0  0  0
   -5.1704    6.6953    7.1210 N   0  0  0  0  0  0  0  0  0  0  0  0
   -6.1143    5.8894    6.3524 C   0  0  2  0  0  0  0  0  0  0  0  0
   -6.8686    6.7254    5.2896 C   0  0  0  0  0  0  0  0  0  0  0  0
   -6.8134    7.9549    5.2065 O   0  0  0  0  0  0  0  0  0  0  0  0
   -7.1151    5.1502    7.2681 C   0  0  0  0  0  0  0  0  0  0  0  0
   -7.6307    3.8419    6.6984 C   0  0  0  0  0  0  0  0  0  0  0  0
   -6.7545    2.7845    6.4205 C   0  0  0  0  0  0  0  0  0  0  0  0
   -8.9960    3.6867    6.4095 C   0  0  0  0  0  0  0  0  0  0  0  0
   -7.2244    1.6213    5.8136 C   0  0  0  0  0  0  0  0  0  0  0  0
   -9.4710    2.5121    5.8278 C   0  0  0  0  0  0  0  0  0  0  0  0
   -8.5742    1.4966    5.5246 C   0  0  0  0  0  0  0  0  0  0  0  0
   -8.9968    0.3406    4.9492 O   0  0  0  0  0  0  0  0  0  0  0  0
   -7.7398    6.0005    4.5136 N   0  0  0  0  0  0  0  0  0  0  0  0
   -8.5885    6.5528    3.4393 C   0  0  2  0  0  0  0  0  0  0  0  0
   -8.3111    5.9248    2.0498 C   0  0  0  0  0  0  0  0  0  0  0  0
   -9.1367    5.8934    1.1444 O   0  0  0  0  0  0  0  0  0  0  0  0
   -8.4148    8.0792    3.3825 C   0  0  0  0  0  0  0  0  0  0  0  0
   -7.4207    8.4005    2.4005 O   0  0  0  0  0  0  0  0  0  0  0  0
   -7.1193    5.2391    1.9725 N   0  0  0  0  0  0  0  0  0  0  0  0
   -6.9168    3.9605    1.2880 C   0  0  2  0  0  0  0  0  0  0  0  0
   -6.6397    2.7493    2.2047 C   0  0  0  0  0  0  0  0  0  0  0  0
   -5.7966    2.8178    3.0906 O   0  0  0  0  0  0  0  0  0  0  0  0
   -6.0162    4.0336    0.0421 C   0  0  0  0  0  0  0  0  0  0  0  0
   -5.5658    2.6228   -0.3367 C   0  0  0  0  0  0  0  0  0  0  0  0
   -4.7261    2.5397   -1.5982 C   0  0  0  0  0  0  0  0  0  0  0  0
   -4.0332    1.2470   -1.6864 N   0  0  0  0  0  0  0  0  0  0  0  0
   -4.6732    0.0976   -2.0247 C   0  0  0  0  0  0  0  0  0  0  0  0
   -5.9277   -0.0105   -2.3275 N   0  0  0  0  0  0  0  0  0  0  0  0
   -3.8547   -0.9668   -2.0092 N   0  0  0  0  0  0  0  0  0  0  0  0
   -9.0444    3.5030    2.5440 O   0  0  0  0  0  0  0  0  0  0  0  0
   -9.5154    2.5061    1.9947 C   0  0  0  0  0  0  0  0  0  0  0  0
   -8.6347    1.4006    1.3119 C   0  0  2  0  0  0  0  0  0  0  0  0
   -9.0596    0.0338    1.8977 C   0  0  0  0  0  0  0  0  0  0  0  0
   -7.2296    1.5876    1.7484 N   0  0  0  0  0  0  0  0  0  0  0  0
   -8.8617    1.3167   -0.2191 C   0  0  0  0  0  0  0  0  0  0  0  0
   -8.5916    2.5850   -1.0319 C   0  0  0  0  0  0  0  0  0  0  0  0
   -9.1448    2.5432   -2.4565 C   0  0  0  0  0  0  0  0  0  0  0  0
  -10.6447    2.5547   -2.5300 C   0  0  0  0  0  0  0  0  0  0  0  0
  -10.8900    2.3214    1.9714 N   0  0  0  0  0  0  0  0  0  0  0  0
  -11.4974    2.0012    3.2738 C   0  0  2  0  0  0  0  0  0  0  0  0
  -12.5223    0.8413    3.2744 C   0  0  0  0  0  0  0  0  0  0  0  0
  -12.6593    0.1575    4.2982 O   0  0  0  0  0  0  0  0  0  0  0  0
  -12.1758    3.1870    4.0091 C   0  0  0  0  0  0  0  0  0  0  0  0
  -12.7274    4.3233    3.1540 C   0  0  0  0  0  0  0  0  0  0  0  0
  -11.8575    4.5968    1.9412 C   0  0  0  0  0  0  0  0  0  0  0  0
  -11.8798    3.9269    0.9080 O   0  0  0  0  0  0  0  0  0  0  0  0
  -11.1139    5.7359    2.0094 N   0  0  0  0  0  0  0  0  0  0  0  0
  -13.4512    0.6501    2.2953 N   0  0  0  0  0  0  0  0  0  0  0  0
  -13.2864    0.7171    0.8347 C   0  0  2  0  0  0  0  0  0  0  0  0
  -13.7414    2.0519    0.1922 C   0  0  0  0  0  0  0  0  0  0  0  0
  -14.0339    2.1795   -0.9939 O   0  0  0  0  0  0  0  0  0  0  0  0
  -14.1106   -0.3995    0.1462 C   0  0  0  0  0  0  0  0  0  0  0  0
  -13.4007   -1.7503   -0.0779 C   0  0  1  0  0  0  0  0  0  0  0  0
  -12.2422   -1.5587   -1.0629 C   0  0  0  0  0  0  0  0  0  0  0  0
  -12.8831   -2.3604    1.2223 C   0  0  0  0  0  0  0  0  0  0  0  0
  -13.6236    3.1838    0.9678 N   0  0  0  0  0  0  0  0  0  0  0  0
  -14.8837    3.9181    1.2248 C   0  0  2  0  0  0  0  0  0  0  0  0
  -14.4175    5.2903    1.7444 C   0  0  0  0  0  0  0  0  0  0  0  0
  -14.7303    5.7935    2.8187 O   0  0  0  0  0  0  0  0  0  0  0  0
  -15.7995    3.1853    2.2174 C   0  0  0  0  0  0  0  0  0  0  0  0
  -15.0558    2.2396    3.1811 C   0  0  1  0  0  0  0  0  0  0  0  0
  -13.7299    1.7480    2.5971 C   0  0  0  0  0  0  0  0  0  0  0  0
  -14.7958    2.9576    4.5066 C   0  0  0  0  0  0  0  0  0  0  0  0
  -13.8767    9.0559   -0.8691 O   0  0  0  0  0  0  0  0  0  0  0  0
  -13.5634    8.1460   -0.1101 C   0  0  0  0  0  0  0  0  0  0  0  0
  -13.9390    6.6495   -0.3277 C   0  0  2  0  0  0  0  0  0  0  0  0
  -15.4583    6.6523   -0.6055 C   0  0  0  0  0  0  0  0  0  0  0  0
  -13.5318    5.9613    0.9350 N   0  0  0  0  0  0  0  0  0  0  0  0
  -13.2114    6.0165   -1.5346 C   0  0  0  0  0  0  0  0  0  0  0  0
  -11.6890    5.8372   -1.3745 C   0  0  0  0  0  0  0  0  0  0  0  0
  -11.0476    5.0828   -2.5503 C   0  0  0  0  0  0  0  0  0  0  0  0
  -11.4453    3.6311   -2.6002 C   0  0  0  0  0  0  0  0  0  0  0  0
  -12.8551    8.3624    1.0710 N   0  0  0  0  0  0  0  0  0  0  0  0
  -12.8847    7.3413    2.1132 C   0  0  2  0  0  0  0  0  0  0  0  0
  -14.2415    7.4827    2.8382 C   0  0  0  0  0  0  0  0  0  0  0  0
  -14.8038    6.5487    3.4139 O   0  0  0  0  0  0  0  0  0  0  0  0
  -11.6922    7.4364    3.0824 C   0  0  0  0  0  0  0  0  0  0  0  0
  -11.8854    6.7889    4.4385 C   0  0  0  0  0  0  0  0  0  0  0  0
  -12.2756    5.4445    4.5282 C   0  0  0  0  0  0  0  0  0  0  0  0
  -11.6798    7.5098    5.6221 C   0  0  0  0  0  0  0  0  0  0  0  0
  -12.4610    4.8373    5.7730 C   0  0  0  0  0  0  0  0  0  0  0  0
  -11.8838    6.9062    6.8657 C   0  0  0  0  0  0  0  0  0  0  0  0
  -12.2736    5.5708    6.9405 C   0  0  0  0  0  0  0  0  0  0  0  0
  -14.8168    8.7219    2.7912 N   0  0  0  0  0  0  0  0  0  0  0  0
   -0.8082   13.0953    9.3379 H   0  0  0  0  0  0  0  0  0  0  0  0
   -5.9460   -0.5509   -3.2054 H   0  0  0  0  0  0  0  0  0  0  0  0
  1  2  2  0
  1  3  1  0
  4  1  1  0
  5  4  1  0
  6  5  1  0
  5  8  1  6
  6  7  2  0
 13  6  1  0
  8  9  1  0
  9 10  1  0
 10 11  1  0
 11 12  1  0
 14 13  1  0
 15 14  1  0
 14 17  1  1
 15 16  2  0
 22 15  1  0
 17 18  1  0
 18 19  1  0
 19 20  1  0
 20 21  1  0
 23 22  1  0
 24 23  1  0
 23 26  1  6
 24 25  2  0
 33 24  1  0
 26 27  1  0
 27 28  1  0
 28 29  1  0
 29 30  1  0
 30 31  1  0
 30 32  2  0
 34 33  1  0
 35 34  1  0
 34 37  1  1
 35 36  2  0
 45 35  1  0
 37 38  1  0
 38 39  2  0
 38 40  1  0
 39 41  1  0
 40 42  2  0
 41 43  2  0
 42 43  1  0
 43 44  1  0
 46 45  1  0
 47 46  1  0
 46 49  1  6
 47 48  2  0
 51 47  1  0
 49 50  1  0
 52 51  1  0
 53 52  1  0
 52 55  1  6
 53 54  2  0
 66 53  1  0
 55 56  1  0
 56 57  1  0
 57 58  1  0
 58 59  1  0
 59 60  2  0
 59 61  1  0
 63 62  2  0
 63 64  1  0
 71 63  1  0
 64 65  1  1
 64 66  1  0
 64 67  1  0
 67 68  1  0
 68 69  1  0
 69 70  1  0
 70104  2  0
 72 71  1  0
 73 72  1  0
 72 75  1  6
 73 74  2  0
 80 73  1  0
 75 76  1  0
 76 77  1  0
 77 78  2  0
 77 79  1  0
 81 80  1  0
 82 81  1  0
 81 84  1  6
 82 83  2  0
 88 82  1  0
 84 85  1  0
 85 86  1  6
 85 87  1  0
 89 88  1  0
 90 89  1  0
 89 92  1  1
 90 91  2  0
100 90  1  0
 92 93  1  0
 93 94  1  6
 93 95  1  0
 97 96  2  0
 98 97  1  0
 97105  1  0
 98 99  1  6
 98100  1  0
 98101  1  0
101102  1  0
102103  1  0
103104  1  0
105106  1  0
106107  1  0
106109  1  1
107108  2  0
107116  1  0
109110  1  0
110111  2  0
110112  1  0
111113  1  0
112114  2  0
113115  2  0
114115  1  0
 32117  1  0
 60118  1  0
M  CHG  2  12   1  21   1
M  END
$$$$
