
     RDKit          3D

118120  0  0  0  0  0  0  0  0999 V2000
    1.7615    8.6980   10.4962 C   0  0  0  0  0  0  0  0  0  0  0  0
    2.2834    8.7388    9.3881 O   0  0  0  0  0  0  0  0  0  0  0  0
    1.7623    9.8671   11.4418 C   0  0  0  0  0  0  0  0  0  0  0  0
    1.1157    7.5747   10.9643 N   0  0  0  0  0  0  0  0  0  0  0  0
   -0.3437    7.4883   10.9319 C   0  0  2  0  0  0  0  0  0  0  0  0
   -0.9361    7.9988    9.5916 C   0  0  0  0  0  0  0  0  0  0  0  0
   -0.8269    9.1740    9.2416 O   0  0  0  0  0  0  0  0  0  0  0  0
   -0.9732    8.2785   12.0976 C   0  0  0  0  0  0  0  0  0  0  0  0
   -0.8013    7.6156   13.4774 C   0  0  0  0  0  0  0  0  0  0  0  0
   -0.1331    6.2376   13.4400 C   0  0  0  0  0  0  0  0  0  0  0  0
   -0.3205    5.4721   14.7429 C   0  0  0  0  0  0  0  0  0  0  0  0
   -1.6983    5.7178   15.2368 N   0  0  0  0  0  4  0  0  0  0  0  0
   -1.4898    7.0443    8.7789 N   0  0  0  0  0  0  0  0  0  0  0  0
   -2.0180    7.3476    7.4578 C   0  0  2  0  0  0  0  0  0  0  0  0
   -3.5578    7.3070    7.5113 C   0  0  0  0  0  0  0  0  0  0  0  0
   -4.1588    6.6005    8.3185 O   0  0  0  0  0  0  0  0  0  0  0  0
   -1.4857    6.3506    6.4076 C   0  0  0  0  0  0  0  0  0  0  0  0
   -0.1317    6.7766    5.8112 C   0  0  0  0  0  0  0  0  0  0  0  0
    0.1620    8.2781    5.8658 C   0  0  0  0  0  0  0  0  0  0  0  0
    1.5350    8.5891    6.4373 C   0  0  0  0  0  0  0  0  0  0  0  0
    1.6597   10.0206    6.7090 N   0  0  0  0  0  4  0  0  0  0  0  0
   -4.1813    8.0430    6.5259 N   0  0  0  0  0  0  0  0  0  0  0  0
   -5.6034    7.8338    6.1879 C   0  0  2  0  0  0  0  0  0  0  0  0
   -5.7785    6.4831    5.4524 C   0  0  0  0  0  0  0  0  0  0  0  0
   -4.8566    5.6967    5.2641 O   0  0  0  0  0  0  0  0  0  0  0  0
   -6.0858    9.0129    5.3353 C   0  0  0  0  0  0  0  0  0  0  0  0
   -7.4929    9.4897    5.7077 C   0  0  0  0  0  0  0  0  0  0  0  0
   -7.7500   10.9543    5.3486 C   0  0  0  0  0  0  0  0  0  0  0  0
   -7.9121   11.1647    3.9216 N   0  0  0  0  0  0  0  0  0  0  0  0
   -9.0749   11.5180    3.3399 C   0  0  0  0  0  0  0  0  0  0  0  0
   -9.4536   12.7581    3.7107 N   0  0  0  0  0  0  0  0  0  0  0  0
   -9.7566   10.7842    2.5410 N   0  0  0  0  0  0  0  0  0  0  0  0
   -7.0812    6.1597    5.1361 N   0  0  0  0  0  0  0  0  0  0  0  0
   -7.3863    4.9371    4.3991 C   0  0  2  0  0  0  0  0  0  0  0  0
   -8.7060    4.2808    4.8739 C   0  0  0  0  0  0  0  0  0  0  0  0
   -8.7639    3.2765    5.5878 O   0  0  0  0  0  0  0  0  0  0  0  0
   -6.2236    3.9220    4.4665 C   0  0  0  0  0  0  0  0  0  0  0  0
   -6.2918    2.9752    5.6500 C   0  0  0  0  0  0  0  0  0  0  0  0
   -5.3241    1.9778    5.8287 C   0  0  0  0  0  0  0  0  0  0  0  0
   -7.3510    3.0661    6.5673 C   0  0  0  0  0  0  0  0  0  0  0  0
   -5.4455    1.0564    6.8672 C   0  0  0  0  0  0  0  0  0  0  0  0
   -7.4576    2.1616    7.6228 C   0  0  0  0  0  0  0  0  0  0  0  0
   -6.5078    1.1574    7.7519 C   0  0  0  0  0  0  0  0  0  0  0  0
   -6.5821    0.2515    8.7618 O   0  0  0  0  0  0  0  0  0  0  0  0
   -9.8389    4.8204    4.3155 N   0  0  0  0  0  0  0  0  0  0  0  0
  -11.2139    4.3267    4.5281 C   0  0  2  0  0  0  0  0  0  0  0  0
  -11.8584    3.7278    3.2522 C   0  0  0  0  0  0  0  0  0  0  0  0
  -11.5109    4.0254    2.1151 O   0  0  0  0  0  0  0  0  0  0  0  0
  -12.0858    5.4629    5.0868 C   0  0  0  0  0  0  0  0  0  0  0  0
  -11.4902    6.7213    4.7439 O   0  0  0  0  0  0  0  0  0  0  0  0
  -12.9808    2.9678    3.4952 N   0  0  0  0  0  0  0  0  0  0  0  0
  -14.1327    2.8421    2.5998 C   0  0  2  0  0  0  0  0  0  0  0  0
  -15.3913    3.6337    3.0163 C   0  0  0  0  0  0  0  0  0  0  0  0
  -16.1250    3.2163    3.9039 O   0  0  0  0  0  0  0  0  0  0  0  0
  -14.4154    1.4098    2.1127 C   0  0  0  0  0  0  0  0  0  0  0  0
  -14.4070    0.4601    3.3104 C   0  0  0  0  0  0  0  0  0  0  0  0
  -15.4030   -0.6819    3.2245 C   0  0  0  0  0  0  0  0  0  0  0  0
  -14.8853   -1.8846    3.8910 N   0  0  0  0  0  0  0  0  0  0  0  0
  -15.2493   -3.1391    3.5186 C   0  0  0  0  0  0  0  0  0  0  0  0
  -16.2131   -3.4393    2.7074 N   0  0  0  0  0  0  0  0  0  0  0  0
  -14.4919   -4.0845    4.0982 N   0  0  0  0  0  0  0  0  0  0  0  0
  -13.0314    3.9676    2.2590 O   0  0  0  0  0  0  0  0  0  0  0  0
  -13.3200    4.8853    1.4896 C   0  0  0  0  0  0  0  0  0  0  0  0
  -14.7970    5.2913    1.1468 C   0  0  2  0  0  0  0  0  0  0  0  0
  -14.9367    6.8107    1.3989 C   0  0  0  0  0  0  0  0  0  0  0  0
  -15.6984    4.6515    2.1358 N   0  0  0  0  0  0  0  0  0  0  0  0
  -15.1514    5.0546   -0.3435 C   0  0  0  0  0  0  0  0  0  0  0  0
  -15.0086    3.6258   -0.8730 C   0  0  0  0  0  0  0  0  0  0  0  0
  -15.0442    3.5186   -2.3976 C   0  0  0  0  0  0  0  0  0  0  0  0
  -13.8509    4.1223   -3.0806 C   0  0  0  0  0  0  0  0  0  0  0  0
  -12.3080    5.6196    0.8887 N   0  0  0  0  0  0  0  0  0  0  0  0
  -11.5527    6.4984    1.7970 C   0  0  2  0  0  0  0  0  0  0  0  0
  -11.2957    7.9369    1.2866 C   0  0  0  0  0  0  0  0  0  0  0  0
  -11.1897    8.8586    2.1075 O   0  0  0  0  0  0  0  0  0  0  0  0
  -10.1825    5.9513    2.2768 C   0  0  0  0  0  0  0  0  0  0  0  0
   -9.1603    5.5768    1.2085 C   0  0  0  0  0  0  0  0  0  0  0  0
   -9.8230    5.1272   -0.0804 C   0  0  0  0  0  0  0  0  0  0  0  0
  -10.9883    5.3833   -0.3855 O   0  0  0  0  0  0  0  0  0  0  0  0
   -8.9963    4.5100   -0.9696 N   0  0  0  0  0  0  0  0  0  0  0  0
  -10.9570    8.2357    0.0006 N   0  0  0  0  0  0  0  0  0  0  0  0
  -11.5307    7.7215   -1.2530 C   0  0  2  0  0  0  0  0  0  0  0  0
  -10.7144    6.5862   -1.9210 C   0  0  0  0  0  0  0  0  0  0  0  0
  -10.7999    6.2852   -3.1089 O   0  0  0  0  0  0  0  0  0  0  0  0
  -11.6379    8.8553   -2.3032 C   0  0  0  0  0  0  0  0  0  0  0  0
  -11.7741   10.2934   -1.7626 C   0  0  1  0  0  0  0  0  0  0  0  0
  -13.1234   10.4438   -1.0516 C   0  0  0  0  0  0  0  0  0  0  0  0
  -10.6400   10.6694   -0.8122 C   0  0  0  0  0  0  0  0  0  0  0  0
  -10.0007    5.7604   -1.0811 N   0  0  0  0  0  0  0  0  0  0  0  0
   -8.5381    5.7238   -1.3097 C   0  0  2  0  0  0  0  0  0  0  0  0
   -8.0706    4.4748   -0.5404 C   0  0  0  0  0  0  0  0  0  0  0  0
   -7.2218    4.4548    0.3452 O   0  0  0  0  0  0  0  0  0  0  0  0
   -7.8373    7.0084   -0.8414 C   0  0  0  0  0  0  0  0  0  0  0  0
   -8.5279    7.7057    0.3473 C   0  0  1  0  0  0  0  0  0  0  0  0
   -9.1190    9.0614   -0.0441 C   0  0  0  0  0  0  0  0  0  0  0  0
   -9.6347    6.8050    0.8985 C   0  0  0  0  0  0  0  0  0  0  0  0
   -8.2766    0.0860   -2.1758 O   0  0  0  0  0  0  0  0  0  0  0  0
   -7.9559    1.1474   -1.6537 C   0  0  0  0  0  0  0  0  0  0  0  0
   -8.4598    2.5459   -2.1210 C   0  0  2  0  0  0  0  0  0  0  0  0
   -7.3213    3.1113   -2.9982 C   0  0  0  0  0  0  0  0  0  0  0  0
   -8.7181    3.3048   -0.8596 N   0  0  0  0  0  0  0  0  0  0  0  0
   -9.7505    2.4680   -2.9664 C   0  0  0  0  0  0  0  0  0  0  0  0
  -11.0167    2.0231   -2.2084 C   0  0  0  0  0  0  0  0  0  0  0  0
  -12.2874    2.0952   -3.0704 C   0  0  0  0  0  0  0  0  0  0  0  0
  -12.6970    3.5086   -3.3909 C   0  0  0  0  0  0  0  0  0  0  0  0
   -7.0597    1.2207   -0.5884 N   0  0  0  0  0  0  0  0  0  0  0  0
   -7.4890    0.7712    0.7321 C   0  0  2  0  0  0  0  0  0  0  0  0
   -9.0110    1.0220    0.8159 C   0  0  0  0  0  0  0  0  0  0  0  0
   -9.8368    0.1266    1.0059 O   0  0  0  0  0  0  0  0  0  0  0  0
   -6.7207    1.4534    1.8787 C   0  0  0  0  0  0  0  0  0  0  0  0
   -7.1094    1.0321    3.2812 C   0  0  0  0  0  0  0  0  0  0  0  0
   -6.3653    0.0516    3.9541 C   0  0  0  0  0  0  0  0  0  0  0  0
   -8.2087    1.6068    3.9325 C   0  0  0  0  0  0  0  0  0  0  0  0
   -6.7163   -0.3483    5.2462 C   0  0  0  0  0  0  0  0  0  0  0  0
   -8.5693    1.1922    5.2172 C   0  0  0  0  0  0  0  0  0  0  0  0
   -7.8230    0.2158    5.8733 C   0  0  0  0  0  0  0  0  0  0  0  0
   -9.4127    2.3171    0.6425 N   0  0  0  0  0  0  0  0  0  0  0  0
   -9.2004   10.5565    1.7177 H   0  0  0  0  0  0  0  0  0  0  0  0
  -16.8057   -2.5963    2.6714 H   0  0  0  0  0  0  0  0  0  0  0  0
  1  2  2  0
  1  3  1  0
  4  1  1  0
  5  4  1  0
  6  5  1  0
  5  8  1  1
  6  7  2  0
 13  6  1  0
  8  9  1  0
  9 10  1  0
 10 11  1  0
 11 12  1  0
 14 13  1  0
 15 14  1  0
 14 17  1  6
 15 16  2  0
 22 15  1  0
 17 18  1  0
 18 19  1  0
 19 20  1  0
 20 21  1  0
 23 22  1  0
 24 23  1  0
 23 26  1  6
 24 25  2  0
 33 24  1  0
 26 27  1  0
 27 28  1  0
 28 29  1  0
 29 30  1  0
 30 31  1  0
 30 32  2  0
 34 33  1  0
 35 34  1  0
 34 37  1  1
 35 36  2  0
 45 35  1  0
 37 38  1  0
 38 39  2  0
 38 40  1  0
 39 41  1  0
 40 42  2  0
 41 43  2  0
 42 43  1  0
 43 44  1  0
 46 45  1  0
 47 46  1  0
 46 49  1  6
 47 48  2  0
 51 47  1  0
 49 50  1  0
 52 51  1  0
 53 52  1  0
 52 55  1  1
 53 54  2  0
 66 53  1  0
 55 56  1  0
 56 57  1  0
 57 58  1  0
 58 59  1  0
 59 60  2  0
 59 61  1  0
 63 62  2  0
 63 64  1  0
 71 63  1  0
 64 65  1  1
 64 66  1  0
 64 67  1  0
 67 68  1  0
 68 69  1  0
 69 70  1  0
 70104  2  0
 72 71  1  0
 73 72  1  0
 72 75  1  6
 73 74  2  0
 80 73  1  0
 75 76  1  0
 76 77  1  0
 77 78  2  0
 77 79  1  0
 81 80  1  0
 82 81  1  0
 81 84  1  6
 82 83  2  0
 88 82  1  0
 84 85  1  0
 85 86  1  1
 85 87  1  0
 89 88  1  0
 90 89  1  0
 89 92  1  1
 90 91  2  0
100 90  1  0
 92 93  1  0
 93 94  1  6
 93 95  1  0
 97 96  2  0
 98 97  1  0
 97105  1  0
 98 99  1  6
 98100  1  0
 98101  1  0
101102  1  0
102103  1  0
103104  1  0
105106  1  0
106107  1  0
106109  1  1
107108  2  0
107116  1  0
109110  1  0
110111  2  0
110112  1  0
111113  1  0
112114  2  0
113115  2  0
114115  1  0
 32117  1  0
 60118  1  0
M  CHG  2  12   1  21   1
M  END
$$$$
