
     RDKit          3D

118120  0  0  0  0  0  0  0  0999 V2000
    4.2069    4.1479   12.9711 C   0  0  0  0  0  0  0  0  0  0  0  0
    4.7418    3.7807   14.0108 O   0  0  0  0  0  0  0  0  0  0  0  0
    4.2709    3.3535   11.6960 C   0  0  0  0  0  0  0  0  0  0  0  0
    3.4872    5.3198   12.8881 N   0  0  0  0  0  0  0  0  0  0  0  0
    2.7725    5.6681   11.6608 C   0  0  2  0  0  0  0  0  0  0  0  0
    2.0420    7.0329   11.7698 C   0  0  0  0  0  0  0  0  0  0  0  0
    1.0091    7.1636   12.4267 O   0  0  0  0  0  0  0  0  0  0  0  0
    1.7511    4.5756   11.2834 C   0  0  0  0  0  0  0  0  0  0  0  0
    0.9592    4.0097   12.4774 C   0  0  0  0  0  0  0  0  0  0  0  0
   -0.1943    3.0793   12.0895 C   0  0  0  0  0  0  0  0  0  0  0  0
   -0.9595    2.5743   13.3053 C   0  0  0  0  0  0  0  0  0  0  0  0
   -2.0437    1.6758   12.8366 N   0  0  0  0  0  4  0  0  0  0  0  0
    2.6723    8.0986   11.1823 N   0  0  0  0  0  0  0  0  0  0  0  0
    2.0810    9.4265   11.1241 C   0  0  2  0  0  0  0  0  0  0  0  0
    0.8312    9.3805   10.2233 C   0  0  0  0  0  0  0  0  0  0  0  0
   -0.2358    9.8827   10.5710 O   0  0  0  0  0  0  0  0  0  0  0  0
    3.0951   10.4600   10.5917 C   0  0  0  0  0  0  0  0  0  0  0  0
    3.0473   11.7944   11.3585 C   0  0  0  0  0  0  0  0  0  0  0  0
    4.0147   11.9031   12.5400 C   0  0  0  0  0  0  0  0  0  0  0  0
    3.9298   13.2442   13.2490 C   0  0  0  0  0  0  0  0  0  0  0  0
    4.4059   14.3134   12.3722 N   0  0  0  0  0  4  0  0  0  0  0  0
    0.9922    8.6529    9.0631 N   0  0  0  0  0  0  0  0  0  0  0  0
   -0.0717    8.5815    8.0415 C   0  0  2  0  0  0  0  0  0  0  0  0
   -1.0558    7.4364    8.3828 C   0  0  0  0  0  0  0  0  0  0  0  0
   -0.8476    6.6137    9.2679 O   0  0  0  0  0  0  0  0  0  0  0  0
    0.5775    8.3835    6.6670 C   0  0  0  0  0  0  0  0  0  0  0  0
    0.3422    9.5596    5.7146 C   0  0  0  0  0  0  0  0  0  0  0  0
    1.6335   10.1232    5.1190 C   0  0  0  0  0  0  0  0  0  0  0  0
    2.5660   10.5857    6.1306 N   0  0  0  0  0  0  0  0  0  0  0  0
    3.1304   11.8092    6.1315 C   0  0  0  0  0  0  0  0  0  0  0  0
    2.5727   12.6075    7.0644 N   0  0  0  0  0  0  0  0  0  0  0  0
    4.0708   12.1918    5.3501 N   0  0  0  0  0  0  0  0  0  0  0  0
   -2.2566    7.4830    7.7063 N   0  0  0  0  0  0  0  0  0  0  0  0
   -3.3072    6.5092    7.9873 C   0  0  2  0  0  0  0  0  0  0  0  0
   -4.0998    6.1191    6.7157 C   0  0  0  0  0  0  0  0  0  0  0  0
   -4.6868    6.9252    5.9894 O   0  0  0  0  0  0  0  0  0  0  0  0
   -4.2674    7.0047    9.0915 C   0  0  0  0  0  0  0  0  0  0  0  0
   -3.6279    7.1318   10.4614 C   0  0  0  0  0  0  0  0  0  0  0  0
   -2.9917    8.3181   10.8500 C   0  0  0  0  0  0  0  0  0  0  0  0
   -3.6365    6.0435   11.3487 C   0  0  0  0  0  0  0  0  0  0  0  0
   -2.3293    8.3940   12.0738 C   0  0  0  0  0  0  0  0  0  0  0  0
   -2.9977    6.1284   12.5849 C   0  0  0  0  0  0  0  0  0  0  0  0
   -2.3393    7.3017   12.9271 C   0  0  0  0  0  0  0  0  0  0  0  0
   -1.6975    7.4203   14.1187 O   0  0  0  0  0  0  0  0  0  0  0  0
   -4.2299    4.7654    6.5233 N   0  0  0  0  0  0  0  0  0  0  0  0
   -5.0482    4.1271    5.4733 C   0  0  2  0  0  0  0  0  0  0  0  0
   -6.5577    4.0666    5.8192 C   0  0  0  0  0  0  0  0  0  0  0  0
   -6.9882    4.0326    6.9663 O   0  0  0  0  0  0  0  0  0  0  0  0
   -4.5064    2.7171    5.1876 C   0  0  0  0  0  0  0  0  0  0  0  0
   -5.0309    1.8078    6.1643 O   0  0  0  0  0  0  0  0  0  0  0  0
   -7.3751    3.8693    4.7285 N   0  0  0  0  0  0  0  0  0  0  0  0
   -8.7613    4.3268    4.6110 C   0  0  2  0  0  0  0  0  0  0  0  0
   -8.9502    5.7360    4.0089 C   0  0  0  0  0  0  0  0  0  0  0  0
   -8.7287    6.7359    4.6808 O   0  0  0  0  0  0  0  0  0  0  0  0
   -9.6401    4.0384    5.8411 C   0  0  0  0  0  0  0  0  0  0  0  0
  -10.9480    4.8203    5.7197 C   0  0  0  0  0  0  0  0  0  0  0  0
  -12.1496    4.1557    6.3661 C   0  0  0  0  0  0  0  0  0  0  0  0
  -12.2092    4.4564    7.8030 N   0  0  0  0  0  0  0  0  0  0  0  0
  -13.1514    3.9214    8.6221 C   0  0  0  0  0  0  0  0  0  0  0  0
  -12.9224    3.1664    9.6491 N   0  0  0  0  0  0  0  0  0  0  0  0
  -14.3988    4.2532    8.2519 N   0  0  0  0  0  0  0  0  0  0  0  0
  -12.2461    5.7553    1.9894 O   0  0  0  0  0  0  0  0  0  0  0  0
  -11.6476    4.6902    1.8318 C   0  0  0  0  0  0  0  0  0  0  0  0
  -10.1030    4.5272    2.0581 C   0  0  2  0  0  0  0  0  0  0  0  0
   -9.8929    3.3373    3.0234 C   0  0  0  0  0  0  0  0  0  0  0  0
   -9.6115    5.7153    2.7973 N   0  0  0  0  0  0  0  0  0  0  0  0
   -9.3412    4.1796    0.7536 C   0  0  0  0  0  0  0  0  0  0  0  0
   -9.4612    5.1710   -0.4060 C   0  0  0  0  0  0  0  0  0  0  0  0
   -8.9783    4.6226   -1.7488 C   0  0  0  0  0  0  0  0  0  0  0  0
   -9.8424    3.5296   -2.3088 C   0  0  0  0  0  0  0  0  0  0  0  0
  -12.3515    3.5596    1.4437 N   0  0  0  0  0  0  0  0  0  0  0  0
  -13.2527    3.0052    2.4675 C   0  0  2  0  0  0  0  0  0  0  0  0
  -13.1970    1.4700    2.6569 C   0  0  0  0  0  0  0  0  0  0  0  0
  -13.4520    0.9895    3.7698 O   0  0  0  0  0  0  0  0  0  0  0  0
  -14.7518    3.3747    2.3149 C   0  0  0  0  0  0  0  0  0  0  0  0
  -15.1031    4.5139    1.3633 C   0  0  0  0  0  0  0  0  0  0  0  0
  -13.8703    5.1109    0.7108 C   0  0  0  0  0  0  0  0  0  0  0  0
  -12.7907    5.2662    1.2828 O   0  0  0  0  0  0  0  0  0  0  0  0
  -13.9868    5.3604   -0.6231 N   0  0  0  0  0  0  0  0  0  0  0  0
  -13.0998    0.5823    1.6271 N   0  0  0  0  0  0  0  0  0  0  0  0
  -12.2297    0.6288    0.4414 C   0  0  2  0  0  0  0  0  0  0  0  0
  -12.9168    1.1501   -0.8461 C   0  0  0  0  0  0  0  0  0  0  0  0
  -12.5077    0.9263   -1.9825 O   0  0  0  0  0  0  0  0  0  0  0  0
  -11.6966   -0.7867    0.1067 C   0  0  0  0  0  0  0  0  0  0  0  0
  -10.7889   -1.4550    1.1594 C   0  0  1  0  0  0  0  0  0  0  0  0
   -9.3299   -1.3759    0.6969 C   0  0  0  0  0  0  0  0  0  0  0  0
  -10.9322   -0.8207    2.5407 C   0  0  0  0  0  0  0  0  0  0  0  0
  -13.9302    2.0675   -0.6787 N   0  0  0  0  0  0  0  0  0  0  0  0
  -15.2516    1.6669   -1.2139 C   0  0  2  0  0  0  0  0  0  0  0  0
  -16.0531    2.9808   -1.2528 C   0  0  0  0  0  0  0  0  0  0  0  0
  -17.1270    3.1817   -0.6946 O   0  0  0  0  0  0  0  0  0  0  0  0
  -15.9274    0.5822   -0.3611 C   0  0  0  0  0  0  0  0  0  0  0  0
  -14.9984   -0.5857    0.0252 C   0  0  1  0  0  0  0  0  0  0  0  0
  -14.3699   -1.2516   -1.2005 C   0  0  0  0  0  0  0  0  0  0  0  0
  -13.8941   -0.0779    0.9540 C   0  0  0  0  0  0  0  0  0  0  0  0
  -15.7942    6.1832   -4.6626 O   0  0  0  0  0  0  0  0  0  0  0  0
  -16.1622    5.3908   -3.8032 C   0  0  0  0  0  0  0  0  0  0  0  0
  -15.4022    4.0833   -3.4279 C   0  0  2  0  0  0  0  0  0  0  0  0
  -16.1597    2.9535   -4.1595 C   0  0  0  0  0  0  0  0  0  0  0  0
  -15.4612    4.0167   -1.9360 N   0  0  0  0  0  0  0  0  0  0  0  0
  -13.9314    4.0864   -3.9006 C   0  0  0  0  0  0  0  0  0  0  0  0
  -13.0047    5.0891   -3.1853 C   0  0  0  0  0  0  0  0  0  0  0  0
  -11.5327    4.9494   -3.6054 C   0  0  0  0  0  0  0  0  0  0  0  0
  -10.9047    3.6699   -3.1189 C   0  0  0  0  0  0  0  0  0  0  0  0
  -17.3427    5.5595   -3.0811 N   0  0  0  0  0  0  0  0  0  0  0  0
  -17.6247    4.6647   -1.9631 C   0  0  2  0  0  0  0  0  0  0  0  0
  -17.3142    5.4529   -0.6713 C   0  0  0  0  0  0  0  0  0  0  0  0
  -17.0128    4.9145    0.3960 O   0  0  0  0  0  0  0  0  0  0  0  0
  -16.8434    3.3403   -2.0412 C   0  0  0  0  0  0  0  0  0  0  0  0
  -15.3524    3.4622   -2.2818 C   0  0  0  0  0  0  0  0  0  0  0  0
  -14.5243    4.0277   -1.3009 C   0  0  0  0  0  0  0  0  0  0  0  0
  -14.7720    3.0166   -3.4765 C   0  0  0  0  0  0  0  0  0  0  0  0
  -13.1484    4.1494   -1.5128 C   0  0  0  0  0  0  0  0  0  0  0  0
  -13.3988    3.1562   -3.6941 C   0  0  0  0  0  0  0  0  0  0  0  0
  -12.5881    3.7216   -2.7125 C   0  0  0  0  0  0  0  0  0  0  0  0
  -17.4138    6.8131   -0.7637 N   0  0  0  0  0  0  0  0  0  0  0  0
    3.8379   11.9590    4.3854 H   0  0  0  0  0  0  0  0  0  0  0  0
  -13.5385    2.3491    9.5239 H   0  0  0  0  0  0  0  0  0  0  0  0
  1  2  2  0
  1  3  1  0
  4  1  1  0
  5  4  1  0
  6  5  1  0
  5  8  1  1
  6  7  2  0
 13  6  1  0
  8  9  1  0
  9 10  1  0
 10 11  1  0
 11 12  1  0
 14 13  1  0
 15 14  1  0
 14 17  1  6
 15 16  2  0
 22 15  1  0
 17 18  1  0
 18 19  1  0
 19 20  1  0
 20 21  1  0
 23 22  1  0
 24 23  1  0
 23 26  1  6
 24 25  2  0
 33 24  1  0
 26 27  1  0
 27 28  1  0
 28 29  1  0
 29 30  1  0
 30 31  1  0
 30 32  2  0
 34 33  1  0
 35 34  1  0
 34 37  1  1
 35 36  2  0
 45 35  1  0
 37 38  1  0
 38 39  2  0
 38 40  1  0
 39 41  1  0
 40 42  2  0
 41 43  2  0
 42 43  1  0
 43 44  1  0
 46 45  1  0
 47 46  1  0
 46 49  1  1
 47 48  2  0
 51 47  1  0
 49 50  1  0
 52 51  1  0
 53 52  1  0
 52 55  1  1
 53 54  2  0
 66 53  1  0
 55 56  1  0
 56 57  1  0
 57 58  1  0
 58 59  1  0
 59 60  2  0
 59 61  1  0
 63 62  2  0
 63 64  1  0
 71 63  1  0
 64 65  1  1
 64 66  1  0
 64 67  1  0
 67 68  1  0
 68 69  1  0
 69 70  1  0
 70104  2  0
 72 71  1  0
 73 72  1  0
 72 75  1  6
 73 74  2  0
 80 73  1  0
 75 76  1  0
 76 77  1  0
 77 78  2  0
 77 79  1  0
 81 80  1  0
 82 81  1  0
 81 84  1  6
 82 83  2  0
 88 82  1  0
 84 85  1  0
 85 86  1  6
 85 87  1  0
 89 88  1  0
 90 89  1  0
 89 92  1  1
 90 91  2  0
100 90  1  0
 92 93  1  0
 93 94  1  6
 93 95  1  0
 97 96  2  0
 98 97  1  0
 97105  1  0
 98 99  1  6
 98100  1  0
 98101  1  0
101102  1  0
102103  1  0
103104  1  0
105106  1  0
106107  1  0
106109  1  6
107108  2  0
107116  1  0
109110  1  0
110111  2  0
110112  1  0
111113  1  0
112114  2  0
113115  2  0
114115  1  0
 32117  1  0
 60118  1  0
M  CHG  2  12   1  21   1
M  END
$$$$
