
     RDKit          3D

118120  0  0  0  0  0  0  0  0999 V2000
    9.0699    6.3907    8.6158 C   0  0  0  0  0  0  0  0  0  0  0  0
    9.5184    6.4392    7.4763 O   0  0  0  0  0  0  0  0  0  0  0  0
    9.9468    6.3570    9.8369 C   0  0  0  0  0  0  0  0  0  0  0  0
    7.7166    6.3763    8.8738 N   0  0  0  0  0  0  0  0  0  0  0  0
    6.8701    5.3076    8.3450 C   0  0  2  0  0  0  0  0  0  0  0  0
    5.3975    5.4315    8.8184 C   0  0  0  0  0  0  0  0  0  0  0  0
    4.6919    4.4400    9.0044 O   0  0  0  0  0  0  0  0  0  0  0  0
    7.4146    3.9199    8.7414 C   0  0  0  0  0  0  0  0  0  0  0  0
    8.5073    3.3765    7.8014 C   0  0  0  0  0  0  0  0  0  0  0  0
    8.7756    1.8749    7.9424 C   0  0  0  0  0  0  0  0  0  0  0  0
    8.4407    1.1089    6.6697 C   0  0  0  0  0  0  0  0  0  0  0  0
    7.2950    1.7798    6.0066 N   0  0  0  0  0  4  0  0  0  0  0  0
    4.9687    6.6983    9.1175 N   0  0  0  0  0  0  0  0  0  0  0  0
    3.6372    6.9756    9.6337 C   0  0  2  0  0  0  0  0  0  0  0  0
    2.5976    6.6433    8.5455 C   0  0  0  0  0  0  0  0  0  0  0  0
    2.6841    7.0997    7.4071 O   0  0  0  0  0  0  0  0  0  0  0  0
    3.5106    8.4493   10.0724 C   0  0  0  0  0  0  0  0  0  0  0  0
    4.1611    8.7239   11.4406 C   0  0  0  0  0  0  0  0  0  0  0  0
    3.2349    8.5594   12.6483 C   0  0  0  0  0  0  0  0  0  0  0  0
    2.1464    9.6180   12.7040 C   0  0  0  0  0  0  0  0  0  0  0  0
    1.2416    9.3580   13.8231 N   0  0  0  0  0  4  0  0  0  0  0  0
    1.5335    5.8857    8.9872 N   0  0  0  0  0  0  0  0  0  0  0  0
    0.3641    5.6192    8.1258 C   0  0  2  0  0  0  0  0  0  0  0  0
   -0.4346    6.9259    7.9003 C   0  0  0  0  0  0  0  0  0  0  0  0
   -0.7999    7.6559    8.8154 O   0  0  0  0  0  0  0  0  0  0  0  0
   -0.4950    4.5333    8.7834 C   0  0  0  0  0  0  0  0  0  0  0  0
   -0.3709    3.1694    8.0975 C   0  0  0  0  0  0  0  0  0  0  0  0
   -1.7154    2.5927    7.6505 C   0  0  0  0  0  0  0  0  0  0  0  0
   -2.8458    3.3855    8.0983 N   0  0  0  0  0  0  0  0  0  0  0  0
   -3.6769    3.0174    9.0929 C   0  0  0  0  0  0  0  0  0  0  0  0
   -4.8006    2.4494    8.6099 N   0  0  0  0  0  0  0  0  0  0  0  0
   -3.4547    3.1834   10.3437 N   0  0  0  0  0  0  0  0  0  0  0  0
   -0.5951    7.2867    6.5790 N   0  0  0  0  0  0  0  0  0  0  0  0
   -1.6235    8.2467    6.1896 C   0  0  2  0  0  0  0  0  0  0  0  0
   -3.0152    7.8776    6.7592 C   0  0  0  0  0  0  0  0  0  0  0  0
   -3.2008    7.3937    7.8786 O   0  0  0  0  0  0  0  0  0  0  0  0
   -1.6959    8.4184    4.6560 C   0  0  0  0  0  0  0  0  0  0  0  0
   -1.2153    9.7684    4.1575 C   0  0  0  0  0  0  0  0  0  0  0  0
   -1.3226   10.1141    2.8039 C   0  0  0  0  0  0  0  0  0  0  0  0
   -0.6225   10.6794    5.0464 C   0  0  0  0  0  0  0  0  0  0  0  0
   -0.7962   11.3185    2.3406 C   0  0  0  0  0  0  0  0  0  0  0  0
   -0.1207   11.8967    4.5880 C   0  0  0  0  0  0  0  0  0  0  0  0
   -0.2027   12.1957    3.2347 C   0  0  0  0  0  0  0  0  0  0  0  0
    0.2827   13.3676    2.7479 O   0  0  0  0  0  0  0  0  0  0  0  0
   -4.0446    7.9942    5.8574 N   0  0  0  0  0  0  0  0  0  0  0  0
   -5.4618    7.6874    6.1350 C   0  0  2  0  0  0  0  0  0  0  0  0
   -6.4058    8.0056    4.9478 C   0  0  0  0  0  0  0  0  0  0  0  0
   -6.5315    9.1249    4.4644 O   0  0  0  0  0  0  0  0  0  0  0  0
   -5.9122    8.4429    7.3959 C   0  0  0  0  0  0  0  0  0  0  0  0
   -7.3389    8.5827    7.3726 O   0  0  0  0  0  0  0  0  0  0  0  0
   -7.2330    6.9628    4.5945 N   0  0  0  0  0  0  0  0  0  0  0  0
   -7.6773    6.6533    3.2339 C   0  0  2  0  0  0  0  0  0  0  0  0
   -8.1110    7.8655    2.3815 C   0  0  0  0  0  0  0  0  0  0  0  0
   -8.0563    9.0006    2.8385 O   0  0  0  0  0  0  0  0  0  0  0  0
   -8.6086    5.4331    3.1234 C   0  0  0  0  0  0  0  0  0  0  0  0
   -8.6565    4.7129    4.4708 C   0  0  0  0  0  0  0  0  0  0  0  0
   -9.8498    3.7943    4.6599 C   0  0  0  0  0  0  0  0  0  0  0  0
   -9.7556    2.6198    3.7822 N   0  0  0  0  0  0  0  0  0  0  0  0
   -8.5723    2.1693    3.2904 C   0  0  0  0  0  0  0  0  0  0  0  0
   -7.9088    2.6962    2.3110 N   0  0  0  0  0  0  0  0  0  0  0  0
   -8.1347    1.0748    3.9336 N   0  0  0  0  0  0  0  0  0  0  0  0
  -11.3539    7.0517    2.0830 O   0  0  0  0  0  0  0  0  0  0  0  0
  -10.7638    6.0782    1.6123 C   0  0  0  0  0  0  0  0  0  0  0  0
   -9.3642    6.1757    0.9084 C   0  0  2  0  0  0  0  0  0  0  0  0
   -8.4282    5.1437    1.5799 C   0  0  0  0  0  0  0  0  0  0  0  0
   -8.7725    7.4979    1.2270 N   0  0  0  0  0  0  0  0  0  0  0  0
   -9.4246    5.8066   -0.5958 C   0  0  0  0  0  0  0  0  0  0  0  0
  -10.3611    6.6360   -1.4775 C   0  0  0  0  0  0  0  0  0  0  0  0
  -10.6298    6.0234   -2.8521 C   0  0  0  0  0  0  0  0  0  0  0  0
  -11.4374    4.7580   -2.8097 C   0  0  0  0  0  0  0  0  0  0  0  0
  -11.3383    4.8189    1.7030 N   0  0  0  0  0  0  0  0  0  0  0  0
  -11.3807    4.2501    3.0603 C   0  0  2  0  0  0  0  0  0  0  0  0
  -10.9431    2.7708    3.1869 C   0  0  0  0  0  0  0  0  0  0  0  0
  -10.4295    2.3818    4.2450 O   0  0  0  0  0  0  0  0  0  0  0  0
  -12.7405    4.3704    3.7976 C   0  0  0  0  0  0  0  0  0  0  0  0
  -13.6106    5.5816    3.4773 C   0  0  0  0  0  0  0  0  0  0  0  0
  -13.1820    6.2666    2.1930 C   0  0  0  0  0  0  0  0  0  0  0  0
  -12.3154    7.1393    2.1299 O   0  0  0  0  0  0  0  0  0  0  0  0
  -13.7366    5.7609    1.0564 N   0  0  0  0  0  0  0  0  0  0  0  0
  -11.2819    1.8008    2.2912 N   0  0  0  0  0  0  0  0  0  0  0  0
  -11.2614    1.8483    0.8207 C   0  0  2  0  0  0  0  0  0  0  0  0
  -12.6383    2.1163    0.1621 C   0  0  0  0  0  0  0  0  0  0  0  0
  -12.9103    1.8339   -1.0020 O   0  0  0  0  0  0  0  0  0  0  0  0
  -10.7587    0.5013    0.2436 C   0  0  0  0  0  0  0  0  0  0  0  0
   -9.8613   -0.3559    1.1593 C   0  0  1  0  0  0  0  0  0  0  0  0
   -8.4431    0.2250    1.1700 C   0  0  0  0  0  0  0  0  0  0  0  0
  -10.3983   -0.4446    2.5857 C   0  0  0  0  0  0  0  0  0  0  0  0
  -13.5290    2.8831    0.8801 N   0  0  0  0  0  0  0  0  0  0  0  0
  -14.8189    2.2318    1.2042 C   0  0  2  0  0  0  0  0  0  0  0  0
  -15.7296    3.3976    1.6304 C   0  0  0  0  0  0  0  0  0  0  0  0
  -16.3145    3.4940    2.7046 O   0  0  0  0  0  0  0  0  0  0  0  0
  -14.6780    1.1572    2.2933 C   0  0  0  0  0  0  0  0  0  0  0  0
  -13.2229    0.7356    2.5782 C   0  0  1  0  0  0  0  0  0  0  0  0
  -12.2937    1.0407    1.4018 C   0  0  0  0  0  0  0  0  0  0  0  0
  -12.7159    1.4539    3.8301 C   0  0  0  0  0  0  0  0  0  0  0  0
  -17.4509    6.6689   -0.4024 O   0  0  0  0  0  0  0  0  0  0  0  0
  -17.7074    5.4705   -0.3981 C   0  0  0  0  0  0  0  0  0  0  0  0
  -16.6412    4.3415   -0.5255 C   0  0  2  0  0  0  0  0  0  0  0  0
  -17.4531    3.0373   -0.6848 C   0  0  0  0  0  0  0  0  0  0  0  0
  -15.8329    4.4300    0.7285 N   0  0  0  0  0  0  0  0  0  0  0  0
  -15.7268    4.5147   -1.7587 C   0  0  0  0  0  0  0  0  0  0  0  0
  -14.7645    5.7177   -1.7099 C   0  0  0  0  0  0  0  0  0  0  0  0
  -13.7930    5.7565   -2.9005 C   0  0  0  0  0  0  0  0  0  0  0  0
  -12.7751    4.6472   -2.8609 C   0  0  0  0  0  0  0  0  0  0  0  0
  -19.0100    4.9809   -0.3140 N   0  0  0  0  0  0  0  0  0  0  0  0
  -19.2197    3.5445   -0.1631 C   0  0  2  0  0  0  0  0  0  0  0  0
  -18.4440    2.8575   -1.3089 C   0  0  0  0  0  0  0  0  0  0  0  0
  -18.7312    1.7426   -1.7497 O   0  0  0  0  0  0  0  0  0  0  0  0
  -20.7085    3.1524   -0.1487 C   0  0  0  0  0  0  0  0  0  0  0  0
  -21.3452    2.9135   -1.5027 C   0  0  0  0  0  0  0  0  0  0  0  0
  -20.5656    2.9677   -2.6675 C   0  0  0  0  0  0  0  0  0  0  0  0
  -22.7131    2.6344   -1.6215 C   0  0  0  0  0  0  0  0  0  0  0  0
  -21.1421    2.7533   -3.9222 C   0  0  0  0  0  0  0  0  0  0  0  0
  -23.2913    2.4388   -2.8784 C   0  0  0  0  0  0  0  0  0  0  0  0
  -22.5058    2.4977   -4.0275 C   0  0  0  0  0  0  0  0  0  0  0  0
  -17.3798    3.5538   -1.8104 N   0  0  0  0  0  0  0  0  0  0  0  0
   -2.4757    3.4243   10.4940 H   0  0  0  0  0  0  0  0  0  0  0  0
   -8.4873    3.4870    1.9899 H   0  0  0  0  0  0  0  0  0  0  0  0
  1  2  2  0
  1  3  1  0
  4  1  1  0
  5  4  1  0
  6  5  1  0
  5  8  1  1
  6  7  2  0
 13  6  1  0
  8  9  1  0
  9 10  1  0
 10 11  1  0
 11 12  1  0
 14 13  1  0
 15 14  1  0
 14 17  1  6
 15 16  2  0
 22 15  1  0
 17 18  1  0
 18 19  1  0
 19 20  1  0
 20 21  1  0
 23 22  1  0
 24 23  1  0
 23 26  1  1
 24 25  2  0
 33 24  1  0
 26 27  1  0
 27 28  1  0
 28 29  1  0
 29 30  1  0
 30 31  1  0
 30 32  2  0
 34 33  1  0
 35 34  1  0
 34 37  1  6
 35 36  2  0
 45 35  1  0
 37 38  1  0
 38 39  2  0
 38 40  1  0
 39 41  1  0
 40 42  2  0
 41 43  2  0
 42 43  1  0
 43 44  1  0
 46 45  1  0
 47 46  1  0
 46 49  1  1
 47 48  2  0
 51 47  1  0
 49 50  1  0
 52 51  1  0
 53 52  1  0
 52 55  1  1
 53 54  2  0
 66 53  1  0
 55 56  1  0
 56 57  1  0
 57 58  1  0
 58 59  1  0
 59 60  2  0
 59 61  1  0
 63 62  2  0
 63 64  1  0
 71 63  1  0
 64 65  1  1
 64 66  1  0
 64 67  1  0
 67 68  1  0
 68 69  1  0
 69 70  1  0
 70104  2  0
 72 71  1  0
 73 72  1  0
 72 75  1  6
 73 74  2  0
 80 73  1  0
 75 76  1  0
 76 77  1  0
 77 78  2  0
 77 79  1  0
 81 80  1  0
 82 81  1  0
 81 84  1  6
 82 83  2  0
 88 82  1  0
 84 85  1  0
 85 86  1  1
 85 87  1  0
 89 88  1  0
 90 89  1  0
 89 92  1  1
 90 91  2  0
100 90  1  0
 92 93  1  0
 93 94  1  6
 93 95  1  0
 97 96  2  0
 98 97  1  0
 97105  1  0
 98 99  1  6
 98100  1  0
 98101  1  0
101102  1  0
102103  1  0
103104  1  0
105106  1  0
106107  1  0
106109  1  6
107108  2  0
107116  1  0
109110  1  0
110111  2  0
110112  1  0
111113  1  0
112114  2  0
113115  2  0
114115  1  0
 32117  1  0
 60118  1  0
M  CHG  2  12   1  21   1
M  END
$$$$
