
     RDKit          3D

118120  0  0  0  0  0  0  0  0999 V2000
    5.1634    4.9374    5.9099 C   0  0  0  0  0  0  0  0  0  0  0  0
    5.4006    4.0083    6.6730 O   0  0  0  0  0  0  0  0  0  0  0  0
    6.2287    5.6131    5.0914 C   0  0  0  0  0  0  0  0  0  0  0  0
    3.8911    5.4337    5.7282 N   0  0  0  0  0  0  0  0  0  0  0  0
    2.7354    4.5379    5.7359 C   0  0  2  0  0  0  0  0  0  0  0  0
    1.3965    5.2995    5.5471 C   0  0  0  0  0  0  0  0  0  0  0  0
    0.3329    4.7050    5.3714 O   0  0  0  0  0  0  0  0  0  0  0  0
    2.6738    3.7214    7.0431 C   0  0  0  0  0  0  0  0  0  0  0  0
    2.7977    2.1989    6.8449 C   0  0  0  0  0  0  0  0  0  0  0  0
    3.4601    1.7828    5.5277 C   0  0  0  0  0  0  0  0  0  0  0  0
    3.5482    0.2697    5.3812 C   0  0  0  0  0  0  0  0  0  0  0  0
    4.9501   -0.0883    5.0509 N   0  0  0  0  0  4  0  0  0  0  0  0
    1.4554    6.6607    5.6947 N   0  0  0  0  0  0  0  0  0  0  0  0
    0.2810    7.4718    5.9760 C   0  0  2  0  0  0  0  0  0  0  0  0
   -0.6283    6.7137    6.9629 C   0  0  0  0  0  0  0  0  0  0  0  0
   -0.5324    5.4992    7.1287 O   0  0  0  0  0  0  0  0  0  0  0  0
   -0.4851    7.8035    4.6785 C   0  0  0  0  0  0  0  0  0  0  0  0
    0.3139    7.4599    3.4080 C   0  0  0  0  0  0  0  0  0  0  0  0
   -0.3640    7.8381    2.0886 C   0  0  0  0  0  0  0  0  0  0  0  0
    0.2958    7.1931    0.8815 C   0  0  0  0  0  0  0  0  0  0  0  0
    1.0628    8.1863    0.1306 N   0  0  0  0  0  4  0  0  0  0  0  0
   -1.6021    7.4917    7.5525 N   0  0  0  0  0  0  0  0  0  0  0  0
   -2.5250    6.9397    8.5644 C   0  0  2  0  0  0  0  0  0  0  0  0
   -3.9186    7.5987    8.4237 C   0  0  0  0  0  0  0  0  0  0  0  0
   -4.7952    7.5040    9.2759 O   0  0  0  0  0  0  0  0  0  0  0  0
   -1.9248    7.1691    9.9561 C   0  0  0  0  0  0  0  0  0  0  0  0
   -2.9513    7.0336   11.0847 C   0  0  0  0  0  0  0  0  0  0  0  0
   -3.3798    8.3773   11.6771 C   0  0  0  0  0  0  0  0  0  0  0  0
   -2.2584    9.2604   11.9406 N   0  0  0  0  0  0  0  0  0  0  0  0
   -2.3839   10.5186   12.4060 C   0  0  0  0  0  0  0  0  0  0  0  0
   -2.0507   11.4263   11.4660 N   0  0  0  0  0  0  0  0  0  0  0  0
   -2.7607   10.8370   13.5884 N   0  0  0  0  0  0  0  0  0  0  0  0
   -4.0640    8.4185    7.3243 N   0  0  0  0  0  0  0  0  0  0  0  0
   -5.3725    8.9571    6.9657 C   0  0  2  0  0  0  0  0  0  0  0  0
   -5.8994    8.3758    5.6308 C   0  0  0  0  0  0  0  0  0  0  0  0
   -7.0506    8.5275    5.2142 O   0  0  0  0  0  0  0  0  0  0  0  0
   -5.3626   10.5012    6.9159 C   0  0  0  0  0  0  0  0  0  0  0  0
   -6.6668   11.1171    6.4450 C   0  0  0  0  0  0  0  0  0  0  0  0
   -6.8482   11.4765    5.1030 C   0  0  0  0  0  0  0  0  0  0  0  0
   -7.7012   11.3669    7.3611 C   0  0  0  0  0  0  0  0  0  0  0  0
   -8.0142   12.1240    4.6987 C   0  0  0  0  0  0  0  0  0  0  0  0
   -8.8794   11.9896    6.9513 C   0  0  0  0  0  0  0  0  0  0  0  0
   -9.0157   12.3729    5.6239 C   0  0  0  0  0  0  0  0  0  0  0  0
  -10.1447   12.9902    5.1878 O   0  0  0  0  0  0  0  0  0  0  0  0
   -5.0188    7.5372    4.9923 N   0  0  0  0  0  0  0  0  0  0  0  0
   -5.2022    6.9769    3.6388 C   0  0  2  0  0  0  0  0  0  0  0  0
   -6.1751    5.7712    3.5969 C   0  0  0  0  0  0  0  0  0  0  0  0
   -6.6764    5.2712    4.5974 O   0  0  0  0  0  0  0  0  0  0  0  0
   -3.8346    6.5831    3.0575 C   0  0  0  0  0  0  0  0  0  0  0  0
   -3.1422    7.7692    2.6460 O   0  0  0  0  0  0  0  0  0  0  0  0
   -6.2905    5.1871    2.3551 N   0  0  0  0  0  0  0  0  0  0  0  0
   -6.2401    3.7489    2.0840 C   0  0  2  0  0  0  0  0  0  0  0  0
   -5.5704    2.8870    3.1761 C   0  0  0  0  0  0  0  0  0  0  0  0
   -4.4849    2.3568    2.9735 O   0  0  0  0  0  0  0  0  0  0  0  0
   -5.8353    3.3794    0.6459 C   0  0  0  0  0  0  0  0  0  0  0  0
   -6.7794    2.2988    0.1192 C   0  0  0  0  0  0  0  0  0  0  0  0
   -7.6292    2.7183   -1.0663 C   0  0  0  0  0  0  0  0  0  0  0  0
   -7.2835    1.9411   -2.2644 N   0  0  0  0  0  0  0  0  0  0  0  0
   -8.1983    1.6224   -3.2165 C   0  0  0  0  0  0  0  0  0  0  0  0
   -7.9349    1.1407   -4.3895 N   0  0  0  0  0  0  0  0  0  0  0  0
   -9.4570    1.8690   -2.8192 N   0  0  0  0  0  0  0  0  0  0  0  0
   -8.1040    4.2512    2.8015 O   0  0  0  0  0  0  0  0  0  0  0  0
   -8.6446    3.3392    3.4288 C   0  0  0  0  0  0  0  0  0  0  0  0
   -7.8458    2.1924    4.1434 C   0  0  2  0  0  0  0  0  0  0  0  0
   -8.3291    2.1277    5.6111 C   0  0  0  0  0  0  0  0  0  0  0  0
   -6.4209    2.5960    4.2237 N   0  0  0  0  0  0  0  0  0  0  0  0
   -8.1198    0.7979    3.5246 C   0  0  0  0  0  0  0  0  0  0  0  0
   -7.8028    0.6235    2.0375 C   0  0  0  0  0  0  0  0  0  0  0  0
   -8.3971   -0.6409    1.4166 C   0  0  0  0  0  0  0  0  0  0  0  0
   -9.8954   -0.6269    1.3180 C   0  0  0  0  0  0  0  0  0  0  0  0
  -10.0275    3.3045    3.5325 N   0  0  0  0  0  0  0  0  0  0  0  0
  -10.6150    4.3559    4.3793 C   0  0  2  0  0  0  0  0  0  0  0  0
  -11.7021    3.8903    5.3779 C   0  0  0  0  0  0  0  0  0  0  0  0
  -11.8481    4.5074    6.4421 O   0  0  0  0  0  0  0  0  0  0  0  0
  -11.2060    5.5755    3.6239 C   0  0  0  0  0  0  0  0  0  0  0  0
  -11.5596    5.3885    2.1520 C   0  0  0  0  0  0  0  0  0  0  0  0
  -11.9162    6.7020    1.4811 C   0  0  0  0  0  0  0  0  0  0  0  0
  -12.3096    6.8009    0.3183 O   0  0  0  0  0  0  0  0  0  0  0  0
  -11.8968    7.7914    2.2983 N   0  0  0  0  0  0  0  0  0  0  0  0
  -12.6671    2.9762    5.0761 N   0  0  0  0  0  0  0  0  0  0  0  0
  -12.5398    1.6924    4.3684 C   0  0  2  0  0  0  0  0  0  0  0  0
  -12.9379    1.7359    2.8714 C   0  0  0  0  0  0  0  0  0  0  0  0
  -13.2560    0.7472    2.2156 O   0  0  0  0  0  0  0  0  0  0  0  0
  -13.4434    0.6204    5.0273 C   0  0  0  0  0  0  0  0  0  0  0  0
  -14.2816    1.0685    6.2419 C   0  0  1  0  0  0  0  0  0  0  0  0
  -13.9691    2.5342    6.5628 C   0  0  0  0  0  0  0  0  0  0  0  0
  -15.7809    0.8939    6.0128 C   0  0  0  0  0  0  0  0  0  0  0  0
  -12.7361    2.9279    2.2117 N   0  0  0  0  0  0  0  0  0  0  0  0
  -13.9460    3.5476    1.6241 C   0  0  2  0  0  0  0  0  0  0  0  0
  -13.3903    4.6005    0.6480 C   0  0  0  0  0  0  0  0  0  0  0  0
  -13.6446    5.8005    0.6678 O   0  0  0  0  0  0  0  0  0  0  0  0
  -14.8728    4.1535    2.6893 C   0  0  0  0  0  0  0  0  0  0  0  0
  -14.1319    4.8698    3.8356 C   0  0  1  0  0  0  0  0  0  0  0  0
  -12.6871    4.3874    3.9781 C   0  0  0  0  0  0  0  0  0  0  0  0
  -14.1452    6.3798    3.5913 C   0  0  0  0  0  0  0  0  0  0  0  0
  -12.1105    3.7005   -3.7860 O   0  0  0  0  0  0  0  0  0  0  0  0
  -12.4317    4.1735   -2.7020 C   0  0  0  0  0  0  0  0  0  0  0  0
  -12.8955    3.3306   -1.4763 C   0  0  2  0  0  0  0  0  0  0  0  0
  -14.4195    3.1591   -1.6594 C   0  0  0  0  0  0  0  0  0  0  0  0
  -12.4918    4.1322   -0.2811 N   0  0  0  0  0  0  0  0  0  0  0  0
  -12.2380    1.9336   -1.4242 C   0  0  0  0  0  0  0  0  0  0  0  0
  -10.7239    1.9210   -1.1361 C   0  0  0  0  0  0  0  0  0  0  0  0
  -10.1584    0.5020   -0.9647 C   0  0  0  0  0  0  0  0  0  0  0  0
  -10.6369   -0.1700    0.2953 C   0  0  0  0  0  0  0  0  0  0  0  0
  -12.4519    5.5457   -2.4569 N   0  0  0  0  0  0  0  0  0  0  0  0
  -13.2634    6.0582   -1.3574 C   0  0  2  0  0  0  0  0  0  0  0  0
  -13.1161    7.5959   -1.3730 C   0  0  0  0  0  0  0  0  0  0  0  0
  -13.4899    8.3227   -0.4499 O   0  0  0  0  0  0  0  0  0  0  0  0
  -12.8841    5.4490    0.0047 C   0  0  0  0  0  0  0  0  0  0  0  0
  -13.3306    4.0205    0.2406 C   0  0  0  0  0  0  0  0  0  0  0  0
  -13.9023    3.2793   -0.8041 C   0  0  0  0  0  0  0  0  0  0  0  0
  -13.1832    3.4125    1.4942 C   0  0  0  0  0  0  0  0  0  0  0  0
  -14.3218    1.9625   -0.5978 C   0  0  0  0  0  0  0  0  0  0  0  0
  -13.6204    2.1019    1.7035 C   0  0  0  0  0  0  0  0  0  0  0  0
  -14.1886    1.3777    0.6578 C   0  0  0  0  0  0  0  0  0  0  0  0
  -12.5563    8.1303   -2.4998 N   0  0  0  0  0  0  0  0  0  0  0  0
   -2.0569   10.5488   14.2671 H   0  0  0  0  0  0  0  0  0  0  0  0
   -7.0358    1.5675   -4.6590 H   0  0  0  0  0  0  0  0  0  0  0  0
  1  2  2  0
  1  3  1  0
  4  1  1  0
  5  4  1  0
  6  5  1  0
  5  8  1  1
  6  7  2  0
 13  6  1  0
  8  9  1  0
  9 10  1  0
 10 11  1  0
 11 12  1  0
 14 13  1  0
 15 14  1  0
 14 17  1  6
 15 16  2  0
 22 15  1  0
 17 18  1  0
 18 19  1  0
 19 20  1  0
 20 21  1  0
 23 22  1  0
 24 23  1  0
 23 26  1  1
 24 25  2  0
 33 24  1  0
 26 27  1  0
 27 28  1  0
 28 29  1  0
 29 30  1  0
 30 31  1  0
 30 32  2  0
 34 33  1  0
 35 34  1  0
 34 37  1  6
 35 36  2  0
 45 35  1  0
 37 38  1  0
 38 39  2  0
 38 40  1  0
 39 41  1  0
 40 42  2  0
 41 43  2  0
 42 43  1  0
 43 44  1  0
 46 45  1  0
 47 46  1  0
 46 49  1  1
 47 48  2  0
 51 47  1  0
 49 50  1  0
 52 51  1  0
 53 52  1  0
 52 55  1  6
 53 54  2  0
 66 53  1  0
 55 56  1  0
 56 57  1  0
 57 58  1  0
 58 59  1  0
 59 60  2  0
 59 61  1  0
 63 62  2  0
 63 64  1  0
 71 63  1  0
 64 65  1  1
 64 66  1  0
 64 67  1  0
 67 68  1  0
 68 69  1  0
 69 70  1  0
 70104  2  0
 72 71  1  0
 73 72  1  0
 72 75  1  6
 73 74  2  0
 80 73  1  0
 75 76  1  0
 76 77  1  0
 77 78  2  0
 77 79  1  0
 81 80  1  0
 82 81  1  0
 81 84  1  1
 82 83  2  0
 88 82  1  0
 84 85  1  0
 85 86  1  6
 85 87  1  0
 89 88  1  0
 90 89  1  0
 89 92  1  1
 90 91  2  0
100 90  1  0
 92 93  1  0
 93 94  1  6
 93 95  1  0
 97 96  2  0
 98 97  1  0
 97105  1  0
 98 99  1  6
 98100  1  0
 98101  1  0
101102  1  0
102103  1  0
103104  1  0
105106  1  0
106107  1  0
106109  1  1
107108  2  0
107116  1  0
109110  1  0
110111  2  0
110112  1  0
111113  1  0
112114  2  0
113115  2  0
114115  1  0
 32117  1  0
 60118  1  0
M  CHG  2  12   1  21   1
M  END
$$$$
