
     RDKit          3D

118120  0  0  0  0  0  0  0  0999 V2000
  -29.0144   13.7333   44.2781 C   0  0  0  0  0  0  0  0  0  0  0  0
  -28.3195   14.1065   45.2160 O   0  0  0  0  0  0  0  0  0  0  0  0
  -30.4938   13.4950   44.4031 C   0  0  0  0  0  0  0  0  0  0  0  0
  -28.4962   13.5128   43.0207 N   0  0  0  0  0  0  0  0  0  0  0  0
  -27.5047   14.4262   42.4542 C   0  0  2  0  0  0  0  0  0  0  0  0
  -28.0443   15.1894   41.2154 C   0  0  0  0  0  0  0  0  0  0  0  0
  -28.8234   14.6637   40.4203 O   0  0  0  0  0  0  0  0  0  0  0  0
  -26.2155   13.6745   42.0642 C   0  0  0  0  0  0  0  0  0  0  0  0
  -26.2292   12.1733   42.4091 C   0  0  0  0  0  0  0  0  0  0  0  0
  -24.9947   11.4018   41.9319 C   0  0  0  0  0  0  0  0  0  0  0  0
  -23.7054   12.1765   42.1691 C   0  0  0  0  0  0  0  0  0  0  0  0
  -22.5599   11.2920   41.8400 N   0  0  0  0  0  4  0  0  0  0  0  0
  -27.6868   16.5090   41.1219 N   0  0  0  0  0  0  0  0  0  0  0  0
  -26.6205   16.9741   40.2485 C   0  0  2  0  0  0  0  0  0  0  0  0
  -26.8332   16.3862   38.8397 C   0  0  0  0  0  0  0  0  0  0  0  0
  -26.3050   15.3318   38.4920 O   0  0  0  0  0  0  0  0  0  0  0  0
  -25.2379   16.5702   40.8012 C   0  0  0  0  0  0  0  0  0  0  0  0
  -24.3764   17.7822   41.2005 C   0  0  0  0  0  0  0  0  0  0  0  0
  -22.9621   17.4475   41.6815 C   0  0  0  0  0  0  0  0  0  0  0  0
  -21.9126   17.6325   40.5985 C   0  0  0  0  0  0  0  0  0  0  0  0
  -20.5785   17.3606   41.1321 N   0  0  0  0  0  4  0  0  0  0  0  0
  -27.5723   17.1866   37.9945 N   0  0  0  0  0  0  0  0  0  0  0  0
  -27.5636   16.9821   36.5321 C   0  0  2  0  0  0  0  0  0  0  0  0
  -26.1544   17.2808   35.9654 C   0  0  0  0  0  0  0  0  0  0  0  0
  -25.4282   18.1661   36.4039 O   0  0  0  0  0  0  0  0  0  0  0  0
  -28.6328   17.8820   35.9022 C   0  0  0  0  0  0  0  0  0  0  0  0
  -30.0573   17.5132   36.3274 C   0  0  0  0  0  0  0  0  0  0  0  0
  -30.9300   17.0334   35.1662 C   0  0  0  0  0  0  0  0  0  0  0  0
  -31.7732   18.0830   34.6237 N   0  0  0  0  0  0  0  0  0  0  0  0
  -32.2873   18.0676   33.3784 C   0  0  0  0  0  0  0  0  0  0  0  0
  -32.4488   19.3171   32.8975 N   0  0  0  0  0  0  0  0  0  0  0  0
  -32.5994   17.0146   32.7188 N   0  0  0  0  0  0  0  0  0  0  0  0
  -25.7122   16.3887   35.0112 N   0  0  0  0  0  0  0  0  0  0  0  0
  -24.9213   16.8477   33.8733 C   0  0  2  0  0  0  0  0  0  0  0  0
  -25.6657   17.9159   33.0353 C   0  0  0  0  0  0  0  0  0  0  0  0
  -26.8508   18.2196   33.1930 O   0  0  0  0  0  0  0  0  0  0  0  0
  -24.4732   15.6729   32.9756 C   0  0  0  0  0  0  0  0  0  0  0  0
  -23.5652   14.6729   33.6665 C   0  0  0  0  0  0  0  0  0  0  0  0
  -23.0188   13.5922   32.9617 C   0  0  0  0  0  0  0  0  0  0  0  0
  -23.2874   14.8003   35.0370 C   0  0  0  0  0  0  0  0  0  0  0  0
  -22.2603   12.6296   33.6252 C   0  0  0  0  0  0  0  0  0  0  0  0
  -22.5054   13.8523   35.6954 C   0  0  0  0  0  0  0  0  0  0  0  0
  -22.0113   12.7690   34.9816 C   0  0  0  0  0  0  0  0  0  0  0  0
  -21.2530   11.8195   35.5893 O   0  0  0  0  0  0  0  0  0  0  0  0
  -24.9398   18.4150   31.9815 N   0  0  0  0  0  0  0  0  0  0  0  0
  -24.9779   19.8114   31.5038 C   0  0  2  0  0  0  0  0  0  0  0  0
  -23.9746   20.0990   30.3581 C   0  0  0  0  0  0  0  0  0  0  0  0
  -22.7603   19.9811   30.4764 O   0  0  0  0  0  0  0  0  0  0  0  0
  -24.7308   20.7640   32.6848 C   0  0  0  0  0  0  0  0  0  0  0  0
  -25.8977   21.5726   32.8855 O   0  0  0  0  0  0  0  0  0  0  0  0
  -24.5452   20.6753   29.2450 N   0  0  0  0  0  0  0  0  0  0  0  0
  -23.8132   21.2133   28.0964 C   0  0  2  0  0  0  0  0  0  0  0  0
  -22.4954   20.4889   27.7460 C   0  0  0  0  0  0  0  0  0  0  0  0
  -21.4477   21.1152   27.6443 O   0  0  0  0  0  0  0  0  0  0  0  0
  -23.7252   22.7491   28.0519 C   0  0  0  0  0  0  0  0  0  0  0  0
  -23.0667   23.1777   26.7406 C   0  0  0  0  0  0  0  0  0  0  0  0
  -23.9678   23.9573   25.8006 C   0  0  0  0  0  0  0  0  0  0  0  0
  -24.7391   24.9728   26.5304 N   0  0  0  0  0  0  0  0  0  0  0  0
  -26.0953   24.9469   26.6023 C   0  0  0  0  0  0  0  0  0  0  0  0
  -26.9110   25.3488   25.6802 N   0  0  0  0  0  0  0  0  0  0  0  0
  -26.5360   24.4525   27.7704 N   0  0  0  0  0  0  0  0  0  0  0  0
  -25.1514   20.3944   27.0015 O   0  0  0  0  0  0  0  0  0  0  0  0
  -24.9244   19.4236   26.2781 C   0  0  0  0  0  0  0  0  0  0  0  0
  -23.5221   18.7240   26.1883 C   0  0  2  0  0  0  0  0  0  0  0  0
  -23.7351   17.2122   26.4351 C   0  0  0  0  0  0  0  0  0  0  0  0
  -22.6949   19.1884   27.3284 N   0  0  0  0  0  0  0  0  0  0  0  0
  -22.8762   18.8576   24.7856 C   0  0  0  0  0  0  0  0  0  0  0  0
  -22.6366   20.2761   24.2635 C   0  0  0  0  0  0  0  0  0  0  0  0
  -22.3181   20.3461   22.7699 C   0  0  0  0  0  0  0  0  0  0  0  0
  -23.4724   19.9811   21.8813 C   0  0  0  0  0  0  0  0  0  0  0  0
  -25.9440   18.8958   25.4995 N   0  0  0  0  0  0  0  0  0  0  0  0
  -27.0049   18.2028   26.2490 C   0  0  2  0  0  0  0  0  0  0  0  0
  -27.4530   16.8358   25.6779 C   0  0  0  0  0  0  0  0  0  0  0  0
  -27.8812   15.9691   26.4526 O   0  0  0  0  0  0  0  0  0  0  0  0
  -28.2995   19.0218   26.4947 C   0  0  0  0  0  0  0  0  0  0  0  0
  -29.5629   18.5782   25.7641 C   0  0  0  0  0  0  0  0  0  0  0  0
  -29.3127   17.3752   24.8738 C   0  0  0  0  0  0  0  0  0  0  0  0
  -30.1841   16.5763   24.5287 O   0  0  0  0  0  0  0  0  0  0  0  0
  -28.0555   17.2914   24.3567 N   0  0  0  0  0  0  0  0  0  0  0  0
  -27.6180   16.5873   24.3479 N   0  0  0  0  0  0  0  0  0  0  0  0
  -26.7458   16.9533   23.2208 C   0  0  2  0  0  0  0  0  0  0  0  0
  -27.1907   18.2166   22.4412 C   0  0  0  0  0  0  0  0  0  0  0  0
  -26.8434   18.4726   21.2912 O   0  0  0  0  0  0  0  0  0  0  0  0
  -26.6887   15.8019   22.1858 C   0  0  0  0  0  0  0  0  0  0  0  0
  -25.5030   15.8116   21.1995 C   0  0  1  0  0  0  0  0  0  0  0  0
  -25.5810   17.0663   20.3228 C   0  0  0  0  0  0  0  0  0  0  0  0
  -24.1526   15.7558   21.9095 C   0  0  0  0  0  0  0  0  0  0  0  0
  -27.8583   19.1837   23.1594 N   0  0  0  0  0  0  0  0  0  0  0  0
  -29.2223   19.5082   22.6827 C   0  0  2  0  0  0  0  0  0  0  0  0
  -29.5554   20.8393   23.3808 C   0  0  0  0  0  0  0  0  0  0  0  0
  -30.5226   21.0450   24.1070 O   0  0  0  0  0  0  0  0  0  0  0  0
  -30.2361   18.3986   23.0015 C   0  0  0  0  0  0  0  0  0  0  0  0
  -29.6166   17.1475   23.6551 C   0  0  1  0  0  0  0  0  0  0  0  0
  -29.5336   15.9701   22.6817 C   0  0  0  0  0  0  0  0  0  0  0  0
  -28.2173   17.4799   24.1762 C   0  0  0  0  0  0  0  0  0  0  0  0
  -27.9579   24.9833   22.3651 O   0  0  0  0  0  0  0  0  0  0  0  0
  -28.8079   24.1014   22.3205 C   0  0  0  0  0  0  0  0  0  0  0  0
  -28.5215   22.6220   21.9237 C   0  0  2  0  0  0  0  0  0  0  0  0
  -29.5818   22.2800   20.8539 C   0  0  0  0  0  0  0  0  0  0  0  0
  -28.6416   21.8500   23.1978 N   0  0  0  0  0  0  0  0  0  0  0  0
  -27.1154   22.4245   21.3148 C   0  0  0  0  0  0  0  0  0  0  0  0
  -25.9357   22.6208   22.2871 C   0  0  0  0  0  0  0  0  0  0  0  0
  -24.5761   22.2800   21.6560 C   0  0  0  0  0  0  0  0  0  0  0  0
  -24.4089   20.8076   21.3871 C   0  0  0  0  0  0  0  0  0  0  0  0
  -30.1546   24.3409   22.5898 N   0  0  0  0  0  0  0  0  0  0  0  0
  -31.1664   23.7848   21.6971 C   0  0  2  0  0  0  0  0  0  0  0  0
  -32.5398   24.2307   22.2464 C   0  0  0  0  0  0  0  0  0  0  0  0
  -33.2880   25.0093   21.6517 O   0  0  0  0  0  0  0  0  0  0  0  0
  -31.0645   22.2555   21.5511 C   0  0  0  0  0  0  0  0  0  0  0  0
  -29.9180   21.7446   20.7026 C   0  0  0  0  0  0  0  0  0  0  0  0
  -29.8242   22.1093   19.3513 C   0  0  0  0  0  0  0  0  0  0  0  0
  -28.9342   20.9056   21.2423 C   0  0  0  0  0  0  0  0  0  0  0  0
  -28.7739   21.6412   18.5574 C   0  0  0  0  0  0  0  0  0  0  0  0
  -27.8952   20.4234   20.4422 C   0  0  0  0  0  0  0  0  0  0  0  0
  -27.8152   20.7918   19.1010 C   0  0  0  0  0  0  0  0  0  0  0  0
  -32.8867   23.7244   23.4679 N   0  0  0  0  0  0  0  0  0  0  0  0
  -32.5923   17.2154   31.7194 H   0  0  0  0  0  0  0  0  0  0  0  0
  -27.7631   25.6383   26.1834 H   0  0  0  0  0  0  0  0  0  0  0  0
  1  2  2  0
  1  3  1  0
  4  1  1  0
  5  4  1  0
  6  5  1  0
  5  8  1  6
  6  7  2  0
 13  6  1  0
  8  9  1  0
  9 10  1  0
 10 11  1  0
 11 12  1  0
 14 13  1  0
 15 14  1  0
 14 17  1  1
 15 16  2  0
 22 15  1  0
 17 18  1  0
 18 19  1  0
 19 20  1  0
 20 21  1  0
 23 22  1  0
 24 23  1  0
 23 26  1  6
 24 25  2  0
 33 24  1  0
 26 27  1  0
 27 28  1  0
 28 29  1  0
 29 30  1  0
 30 31  1  0
 30 32  2  0
 34 33  1  0
 35 34  1  0
 34 37  1  6
 35 36  2  0
 45 35  1  0
 37 38  1  0
 38 39  2  0
 38 40  1  0
 39 41  1  0
 40 42  2  0
 41 43  2  0
 42 43  1  0
 43 44  1  0
 46 45  1  0
 47 46  1  0
 46 49  1  1
 47 48  2  0
 51 47  1  0
 49 50  1  0
 52 51  1  0
 53 52  1  0
 52 55  1  1
 53 54  2  0
 66 53  1  0
 55 56  1  0
 56 57  1  0
 57 58  1  0
 58 59  1  0
 59 60  2  0
 59 61  1  0
 63 62  2  0
 63 64  1  0
 71 63  1  0
 64 65  1  1
 64 66  1  0
 64 67  1  0
 67 68  1  0
 68 69  1  0
 69 70  1  0
 70104  2  0
 72 71  1  0
 73 72  1  0
 72 75  1  6
 73 74  2  0
 80 73  1  0
 75 76  1  0
 76 77  1  0
 77 78  2  0
 77 79  1  0
 81 80  1  0
 82 81  1  0
 81 84  1  6
 82 83  2  0
 88 82  1  0
 84 85  1  0
 85 86  1  1
 85 87  1  0
 89 88  1  0
 90 89  1  0
 89 92  1  1
 90 91  2  0
100 90  1  0
 92 93  1  0
 93 94  1  6
 93 95  1  0
 97 96  2  0
 98 97  1  0
 97105  1  0
 98 99  1  6
 98100  1  0
 98101  1  0
101102  1  0
102103  1  0
103104  1  0
105106  1  0
106107  1  0
106109  1  1
107108  2  0
107116  1  0
109110  1  0
110111  2  0
110112  1  0
111113  1  0
112114  2  0
113115  2  0
114115  1  0
 32117  1  0
 60118  1  0
M  CHG  2  12   1  21   1
M  END
$$$$
