
     RDKit          3D

118120  0  0  0  0  0  0  0  0999 V2000
    3.4945   10.0019   11.9751 C   0  0  0  0  0  0  0  0  0  0  0  0
    3.6956    9.4283   13.0392 O   0  0  0  0  0  0  0  0  0  0  0  0
    2.4327   11.0527   11.8027 C   0  0  0  0  0  0  0  0  0  0  0  0
    4.2381    9.7390   10.8455 N   0  0  0  0  0  0  0  0  0  0  0  0
    3.8813   10.3438    9.5628 C   0  0  2  0  0  0  0  0  0  0  0  0
    2.3816   10.1493    9.2148 C   0  0  0  0  0  0  0  0  0  0  0  0
    1.6032    9.5964    9.9921 O   0  0  0  0  0  0  0  0  0  0  0  0
    4.7449    9.7724    8.4196 C   0  0  0  0  0  0  0  0  0  0  0  0
    6.2611    9.8196    8.6873 C   0  0  0  0  0  0  0  0  0  0  0  0
    7.1309    9.6809    7.4339 C   0  0  0  0  0  0  0  0  0  0  0  0
    7.3503    8.2253    7.0444 C   0  0  0  0  0  0  0  0  0  0  0  0
    8.2113    8.1882    5.8361 N   0  0  0  0  0  4  0  0  0  0  0  0
    1.9588   10.7225    8.0440 N   0  0  0  0  0  0  0  0  0  0  0  0
    0.6143   10.5383    7.5198 C   0  0  2  0  0  0  0  0  0  0  0  0
    0.5614    9.2180    6.7264 C   0  0  0  0  0  0  0  0  0  0  0  0
    0.9738    9.1407    5.5706 O   0  0  0  0  0  0  0  0  0  0  0  0
    0.2029   11.7255    6.6246 C   0  0  0  0  0  0  0  0  0  0  0  0
   -1.2203   12.2328    6.9211 C   0  0  0  0  0  0  0  0  0  0  0  0
   -2.2079   12.1233    5.7566 C   0  0  0  0  0  0  0  0  0  0  0  0
   -1.5723   11.5606    4.4965 C   0  0  0  0  0  0  0  0  0  0  0  0
   -2.5795   11.3973    3.4489 N   0  0  0  0  0  4  0  0  0  0  0  0
   -0.0688    8.1832    7.3846 N   0  0  0  0  0  0  0  0  0  0  0  0
    0.0484    6.7863    6.9201 C   0  0  2  0  0  0  0  0  0  0  0  0
   -1.2894    6.0409    7.1451 C   0  0  0  0  0  0  0  0  0  0  0  0
   -1.5414    4.9488    6.6476 O   0  0  0  0  0  0  0  0  0  0  0  0
    1.2068    6.1146    7.6662 C   0  0  0  0  0  0  0  0  0  0  0  0
    2.0002    5.1381    6.7927 C   0  0  0  0  0  0  0  0  0  0  0  0
    3.1291    4.4326    7.5462 C   0  0  0  0  0  0  0  0  0  0  0  0
    4.3535    4.3426    6.7719 N   0  0  0  0  0  0  0  0  0  0  0  0
    4.9258    3.1807    6.4004 C   0  0  0  0  0  0  0  0  0  0  0  0
    6.2229    3.3534    6.0746 N   0  0  0  0  0  0  0  0  0  0  0  0
    4.3324    2.0465    6.3468 N   0  0  0  0  0  0  0  0  0  0  0  0
   -2.1360    6.6320    8.0592 N   0  0  0  0  0  0  0  0  0  0  0  0
   -3.5240    6.1958    8.1783 C   0  0  2  0  0  0  0  0  0  0  0  0
   -4.3032    6.3521    6.8495 C   0  0  0  0  0  0  0  0  0  0  0  0
   -4.1916    7.3168    6.0889 O   0  0  0  0  0  0  0  0  0  0  0  0
   -4.2582    6.9270    9.3242 C   0  0  0  0  0  0  0  0  0  0  0  0
   -3.5600    6.8370   10.6682 C   0  0  0  0  0  0  0  0  0  0  0  0
   -3.6347    5.6698   11.4397 C   0  0  0  0  0  0  0  0  0  0  0  0
   -2.8547    7.9411   11.1731 C   0  0  0  0  0  0  0  0  0  0  0  0
   -3.0667    5.6286   12.7116 C   0  0  0  0  0  0  0  0  0  0  0  0
   -2.2624    7.8907   12.4342 C   0  0  0  0  0  0  0  0  0  0  0  0
   -2.3875    6.7361   13.1948 C   0  0  0  0  0  0  0  0  0  0  0  0
   -1.8323    6.6513   14.4319 O   0  0  0  0  0  0  0  0  0  0  0  0
   -5.2589    5.3887    6.6375 N   0  0  0  0  0  0  0  0  0  0  0  0
   -6.1764    5.3359    5.4821 C   0  0  2  0  0  0  0  0  0  0  0  0
   -7.0128    6.6278    5.2991 C   0  0  0  0  0  0  0  0  0  0  0  0
   -6.6284    7.7379    5.6486 O   0  0  0  0  0  0  0  0  0  0  0  0
   -7.0994    4.1138    5.6160 C   0  0  0  0  0  0  0  0  0  0  0  0
   -7.6278    4.0706    6.9482 O   0  0  0  0  0  0  0  0  0  0  0  0
   -8.3042    6.4041    4.8762 N   0  0  0  0  0  0  0  0  0  0  0  0
   -9.3040    7.4410    4.6120 C   0  0  2  0  0  0  0  0  0  0  0  0
  -10.6411    7.2870    5.3685 C   0  0  0  0  0  0  0  0  0  0  0  0
  -11.1272    8.2339    5.9747 O   0  0  0  0  0  0  0  0  0  0  0  0
   -9.4534    7.8275    3.1298 C   0  0  0  0  0  0  0  0  0  0  0  0
  -10.2533    9.1260    3.0265 C   0  0  0  0  0  0  0  0  0  0  0  0
  -11.6983    8.9512    2.5964 C   0  0  0  0  0  0  0  0  0  0  0  0
  -11.9513    9.6206    1.3132 N   0  0  0  0  0  0  0  0  0  0  0  0
  -12.7862   10.6858    1.1979 C   0  0  0  0  0  0  0  0  0  0  0  0
  -13.7552   10.9802    2.0052 N   0  0  0  0  0  0  0  0  0  0  0  0
  -12.5107   11.4371    0.1195 N   0  0  0  0  0  0  0  0  0  0  0  0
  -13.2569    5.3329    3.9774 O   0  0  0  0  0  0  0  0  0  0  0  0
  -12.2855    4.5853    3.8552 C   0  0  0  0  0  0  0  0  0  0  0  0
  -10.8803    4.8870    4.4861 C   0  0  2  0  0  0  0  0  0  0  0  0
  -10.4562    3.6447    5.3037 C   0  0  0  0  0  0  0  0  0  0  0  0
  -11.0404    5.9708    5.4859 N   0  0  0  0  0  0  0  0  0  0  0  0
   -9.7806    5.1106    3.4167 C   0  0  0  0  0  0  0  0  0  0  0  0
  -10.0073    6.2440    2.4136 C   0  0  0  0  0  0  0  0  0  0  0  0
   -9.0759    6.2011    1.2021 C   0  0  0  0  0  0  0  0  0  0  0  0
   -9.3264    5.0429    0.2797 C   0  0  0  0  0  0  0  0  0  0  0  0
  -12.4146    3.4059    3.1364 N   0  0  0  0  0  0  0  0  0  0  0  0
  -13.2427    2.3722    3.7794 C   0  0  2  0  0  0  0  0  0  0  0  0
  -12.6608    0.9380    3.7702 C   0  0  0  0  0  0  0  0  0  0  0  0
  -12.9528    0.1623    4.6909 O   0  0  0  0  0  0  0  0  0  0  0  0
  -14.6998    2.2583    3.2589 C   0  0  0  0  0  0  0  0  0  0  0  0
  -15.1733    3.3049    2.2555 C   0  0  0  0  0  0  0  0  0  0  0  0
  -14.0361    4.1860    1.7729 C   0  0  0  0  0  0  0  0  0  0  0  0
  -13.8820    5.3616    2.1058 O   0  0  0  0  0  0  0  0  0  0  0  0
  -13.0918    3.5511    1.0243 N   0  0  0  0  0  0  0  0  0  0  0  0
  -12.0187    0.3873    2.7014 N   0  0  0  0  0  0  0  0  0  0  0  0
  -10.9940    0.9811    1.8282 C   0  0  2  0  0  0  0  0  0  0  0  0
  -11.5292    1.5272    0.4802 C   0  0  0  0  0  0  0  0  0  0  0  0
  -10.8304    1.7117   -0.5129 O   0  0  0  0  0  0  0  0  0  0  0  0
   -9.9124   -0.0695    1.4725 C   0  0  0  0  0  0  0  0  0  0  0  0
  -10.2062   -1.5311    1.8677 C   0  0  1  0  0  0  0  0  0  0  0  0
   -9.7016   -1.7839    3.2926 C   0  0  0  0  0  0  0  0  0  0  0  0
  -11.6907   -1.8744    1.7724 C   0  0  0  0  0  0  0  0  0  0  0  0
  -12.8220    2.0020    0.4744 N   0  0  0  0  0  0  0  0  0  0  0  0
  -13.7486    1.3252   -0.4618 C   0  0  2  0  0  0  0  0  0  0  0  0
  -14.9534    2.2796   -0.5506 C   0  0  0  0  0  0  0  0  0  0  0  0
  -16.1181    1.9884   -0.2980 O   0  0  0  0  0  0  0  0  0  0  0  0
  -14.1385   -0.0834    0.0120 C   0  0  0  0  0  0  0  0  0  0  0  0
  -13.3781   -0.5598    1.2654 C   0  0  1  0  0  0  0  0  0  0  0  0
  -11.9828   -1.0882    0.9267 C   0  0  0  0  0  0  0  0  0  0  0  0
  -13.2598    0.5934    2.2635 C   0  0  0  0  0  0  0  0  0  0  0  0
  -15.1630    6.1748   -3.0614 O   0  0  0  0  0  0  0  0  0  0  0  0
  -15.3980    5.0333   -2.6821 C   0  0  0  0  0  0  0  0  0  0  0  0
  -14.3060    3.9953   -2.2848 C   0  0  2  0  0  0  0  0  0  0  0  0
  -14.4092    2.8769   -3.3449 C   0  0  0  0  0  0  0  0  0  0  0  0
  -14.6578    3.5777   -0.8935 N   0  0  0  0  0  0  0  0  0  0  0  0
  -12.8778    4.5836   -2.3164 C   0  0  0  0  0  0  0  0  0  0  0  0
  -12.5710    5.6441   -1.2409 C   0  0  0  0  0  0  0  0  0  0  0  0
  -11.0998    6.0897   -1.2414 C   0  0  0  0  0  0  0  0  0  0  0  0
  -10.1614    5.0092   -0.7720 C   0  0  0  0  0  0  0  0  0  0  0  0
  -16.6915    4.5200   -2.5993 N   0  0  0  0  0  0  0  0  0  0  0  0
  -16.8777    3.1241   -2.2162 C   0  0  2  0  0  0  0  0  0  0  0  0
  -16.6865    2.2806   -3.4963 C   0  0  0  0  0  0  0  0  0  0  0  0
  -17.5693    1.5668   -3.9766 O   0  0  0  0  0  0  0  0  0  0  0  0
  -18.2366    2.8618   -1.5417 C   0  0  0  0  0  0  0  0  0  0  0  0
  -18.5736    3.7484   -0.3602 C   0  0  0  0  0  0  0  0  0  0  0  0
  -17.6520    4.7067    0.0871 C   0  0  0  0  0  0  0  0  0  0  0  0
  -19.8011    3.6340    0.3054 C   0  0  0  0  0  0  0  0  0  0  0  0
  -17.9495    5.5274    1.1782 C   0  0  0  0  0  0  0  0  0  0  0  0
  -20.0892    4.4427    1.4078 C   0  0  0  0  0  0  0  0  0  0  0  0
  -19.1640    5.3889    1.8431 C   0  0  0  0  0  0  0  0  0  0  0  0
  -15.4500    2.3473   -4.0755 N   0  0  0  0  0  0  0  0  0  0  0  0
    3.3479    2.1573    6.5866 H   0  0  0  0  0  0  0  0  0  0  0  0
  -13.8189   10.1790    2.6511 H   0  0  0  0  0  0  0  0  0  0  0  0
  1  2  2  0
  1  3  1  0
  4  1  1  0
  5  4  1  0
  6  5  1  0
  5  8  1  6
  6  7  2  0
 13  6  1  0
  8  9  1  0
  9 10  1  0
 10 11  1  0
 11 12  1  0
 14 13  1  0
 15 14  1  0
 14 17  1  6
 15 16  2  0
 22 15  1  0
 17 18  1  0
 18 19  1  0
 19 20  1  0
 20 21  1  0
 23 22  1  0
 24 23  1  0
 23 26  1  1
 24 25  2  0
 33 24  1  0
 26 27  1  0
 27 28  1  0
 28 29  1  0
 29 30  1  0
 30 31  1  0
 30 32  2  0
 34 33  1  0
 35 34  1  0
 34 37  1  1
 35 36  2  0
 45 35  1  0
 37 38  1  0
 38 39  2  0
 38 40  1  0
 39 41  1  0
 40 42  2  0
 41 43  2  0
 42 43  1  0
 43 44  1  0
 46 45  1  0
 47 46  1  0
 46 49  1  1
 47 48  2  0
 51 47  1  0
 49 50  1  0
 52 51  1  0
 53 52  1  0
 52 55  1  6
 53 54  2  0
 66 53  1  0
 55 56  1  0
 56 57  1  0
 57 58  1  0
 58 59  1  0
 59 60  2  0
 59 61  1  0
 63 62  2  0
 63 64  1  0
 71 63  1  0
 64 65  1  1
 64 66  1  0
 64 67  1  0
 67 68  1  0
 68 69  1  0
 69 70  1  0
 70104  2  0
 72 71  1  0
 73 72  1  0
 72 75  1  6
 73 74  2  0
 80 73  1  0
 75 76  1  0
 76 77  1  0
 77 78  2  0
 77 79  1  0
 81 80  1  0
 82 81  1  0
 81 84  1  6
 82 83  2  0
 88 82  1  0
 84 85  1  0
 85 86  1  1
 85 87  1  0
 89 88  1  0
 90 89  1  0
 89 92  1  1
 90 91  2  0
100 90  1  0
 92 93  1  0
 93 94  1  6
 93 95  1  0
 97 96  2  0
 98 97  1  0
 97105  1  0
 98 99  1  6
 98100  1  0
 98101  1  0
101102  1  0
102103  1  0
103104  1  0
105106  1  0
106107  1  0
106109  1  6
107108  2  0
107116  1  0
109110  1  0
110111  2  0
110112  1  0
111113  1  0
112114  2  0
113115  2  0
114115  1  0
 32117  1  0
 60118  1  0
M  CHG  2  12   1  21   1
M  END
$$$$
