
     RDKit          3D

118120  0  0  0  0  0  0  0  0999 V2000
    4.9203    4.8178    7.6197 C   0  0  0  0  0  0  0  0  0  0  0  0
    5.5985    5.7928    7.9219 O   0  0  0  0  0  0  0  0  0  0  0  0
    5.5209    3.5047    7.2000 C   0  0  0  0  0  0  0  0  0  0  0  0
    3.5431    4.8408    7.6526 N   0  0  0  0  0  0  0  0  0  0  0  0
    2.7714    3.6422    7.3271 C   0  0  2  0  0  0  0  0  0  0  0  0
    1.8556    3.8468    6.0911 C   0  0  0  0  0  0  0  0  0  0  0  0
    2.2486    3.6113    4.9484 O   0  0  0  0  0  0  0  0  0  0  0  0
    1.9112    3.1925    8.5259 C   0  0  0  0  0  0  0  0  0  0  0  0
    1.7216    1.6676    8.6323 C   0  0  0  0  0  0  0  0  0  0  0  0
    2.0487    0.8969    7.3494 C   0  0  0  0  0  0  0  0  0  0  0  0
    0.9935   -0.1514    7.0234 C   0  0  0  0  0  0  0  0  0  0  0  0
    1.3619   -0.8046    5.7427 N   0  0  0  0  0  4  0  0  0  0  0  0
    0.5588    4.2002    6.3580 N   0  0  0  0  0  0  0  0  0  0  0  0
   -0.4361    4.3848    5.3129 C   0  0  2  0  0  0  0  0  0  0  0  0
   -1.7964    4.7014    5.9648 C   0  0  0  0  0  0  0  0  0  0  0  0
   -2.0907    4.2836    7.0831 O   0  0  0  0  0  0  0  0  0  0  0  0
   -0.5411    3.1296    4.4220 C   0  0  0  0  0  0  0  0  0  0  0  0
    0.7208    2.2492    4.4784 C   0  0  0  0  0  0  0  0  0  0  0  0
    1.8793    2.7116    3.5909 C   0  0  0  0  0  0  0  0  0  0  0  0
    2.2845    1.6700    2.5617 C   0  0  0  0  0  0  0  0  0  0  0  0
    3.4051    2.1582    1.7589 N   0  0  0  0  0  4  0  0  0  0  0  0
   -2.6688    5.3956    5.1535 N   0  0  0  0  0  0  0  0  0  0  0  0
   -3.7903    6.1760    5.7135 C   0  0  2  0  0  0  0  0  0  0  0  0
   -4.5288    6.9279    4.5796 C   0  0  0  0  0  0  0  0  0  0  0  0
   -4.4046    8.1313    4.3801 O   0  0  0  0  0  0  0  0  0  0  0  0
   -3.2405    7.1395    6.7713 C   0  0  0  0  0  0  0  0  0  0  0  0
   -4.3117    8.0618    7.3610 C   0  0  0  0  0  0  0  0  0  0  0  0
   -5.3285    8.5469    6.3262 C   0  0  0  0  0  0  0  0  0  0  0  0
   -6.3910    9.3444    6.9108 N   0  0  0  0  0  0  0  0  0  0  0  0
   -6.6206   10.6356    6.6016 C   0  0  0  0  0  0  0  0  0  0  0  0
   -5.4763   11.3490    6.5873 N   0  0  0  0  0  0  0  0  0  0  0  0
   -7.7702   11.1458    6.3574 N   0  0  0  0  0  0  0  0  0  0  0  0
   -5.2409    6.1213    3.7170 N   0  0  0  0  0  0  0  0  0  0  0  0
   -5.7582    4.8306    4.1614 C   0  0  2  0  0  0  0  0  0  0  0  0
   -6.9725    4.3653    3.3209 C   0  0  0  0  0  0  0  0  0  0  0  0
   -8.1321    4.7412    3.5098 O   0  0  0  0  0  0  0  0  0  0  0  0
   -6.1147    4.8429    5.6646 C   0  0  0  0  0  0  0  0  0  0  0  0
   -7.2037    5.8311    6.0379 C   0  0  0  0  0  0  0  0  0  0  0  0
   -7.3616    6.2596    7.3625 C   0  0  0  0  0  0  0  0  0  0  0  0
   -8.0933    6.3046    5.0601 C   0  0  0  0  0  0  0  0  0  0  0  0
   -8.4204    7.0962    7.7107 C   0  0  0  0  0  0  0  0  0  0  0  0
   -9.1361    7.1639    5.4033 C   0  0  0  0  0  0  0  0  0  0  0  0
   -9.2944    7.5394    6.7305 C   0  0  0  0  0  0  0  0  0  0  0  0
  -10.3035    8.3679    7.1061 O   0  0  0  0  0  0  0  0  0  0  0  0
   -6.6876    3.3700    2.4183 N   0  0  0  0  0  0  0  0  0  0  0  0
   -6.7057    3.5186    0.9496 C   0  0  2  0  0  0  0  0  0  0  0  0
   -7.3984    2.3403    0.2189 C   0  0  0  0  0  0  0  0  0  0  0  0
   -7.0394    1.1732    0.3254 O   0  0  0  0  0  0  0  0  0  0  0  0
   -5.2683    3.6983    0.4349 C   0  0  0  0  0  0  0  0  0  0  0  0
   -5.3117    4.1915   -0.9107 O   0  0  0  0  0  0  0  0  0  0  0  0
   -8.3401    2.7309   -0.7069 N   0  0  0  0  0  0  0  0  0  0  0  0
   -9.3741    1.8690   -1.2835 C   0  0  2  0  0  0  0  0  0  0  0  0
  -10.2613    2.5229   -2.3650 C   0  0  0  0  0  0  0  0  0  0  0  0
   -9.9621    2.4411   -3.5500 O   0  0  0  0  0  0  0  0  0  0  0  0
  -10.1446    1.0161   -0.2601 C   0  0  0  0  0  0  0  0  0  0  0  0
  -11.4206    0.4810   -0.9098 C   0  0  0  0  0  0  0  0  0  0  0  0
  -11.3238    0.2484   -2.4065 C   0  0  0  0  0  0  0  0  0  0  0  0
   -9.9281    0.0488   -2.8200 N   0  0  0  0  0  0  0  0  0  0  0  0
   -9.5928   -0.4901   -4.0209 C   0  0  0  0  0  0  0  0  0  0  0  0
  -10.3831   -1.1596   -4.7984 N   0  0  0  0  0  0  0  0  0  0  0  0
   -8.3087   -0.2640   -4.3422 N   0  0  0  0  0  0  0  0  0  0  0  0
   -9.5301    4.9564   -0.3280 O   0  0  0  0  0  0  0  0  0  0  0  0
  -10.4060    4.3521    0.2925 C   0  0  0  0  0  0  0  0  0  0  0  0
  -11.5631    3.5540   -0.4059 C   0  0  2  0  0  0  0  0  0  0  0  0
  -11.5739    2.1262    0.1883 C   0  0  0  0  0  0  0  0  0  0  0  0
  -11.2098    3.3745   -1.8352 N   0  0  0  0  0  0  0  0  0  0  0  0
  -12.9616    4.1611   -0.1262 C   0  0  0  0  0  0  0  0  0  0  0  0
  -13.1842    5.6157   -0.5470 C   0  0  0  0  0  0  0  0  0  0  0  0
  -14.4410    6.2520    0.0467 C   0  0  0  0  0  0  0  0  0  0  0  0
  -14.3749    6.4645    1.5318 C   0  0  0  0  0  0  0  0  0  0  0  0
  -10.3878    4.3530    1.6796 N   0  0  0  0  0  0  0  0  0  0  0  0
   -9.2950    3.5766    2.2885 C   0  0  2  0  0  0  0  0  0  0  0  0
   -9.6959    2.6535    3.4645 C   0  0  0  0  0  0  0  0  0  0  0  0
   -9.0478    1.6172    3.6663 O   0  0  0  0  0  0  0  0  0  0  0  0
   -8.0738    4.4012    2.7741 C   0  0  0  0  0  0  0  0  0  0  0  0
   -6.7924    4.3131    1.9515 C   0  0  0  0  0  0  0  0  0  0  0  0
   -6.6131    2.9441    1.3222 C   0  0  0  0  0  0  0  0  0  0  0  0
   -5.7151    2.6590    0.5290 O   0  0  0  0  0  0  0  0  0  0  0  0
   -7.4517    1.9789    1.7915 N   0  0  0  0  0  0  0  0  0  0  0  0
  -10.5814    3.0077    4.4383 N   0  0  0  0  0  0  0  0  0  0  0  0
  -11.8861    3.6753    4.3073 C   0  0  2  0  0  0  0  0  0  0  0  0
  -11.8652    5.1989    4.5900 C   0  0  0  0  0  0  0  0  0  0  0  0
  -12.8576    5.8551    4.8954 O   0  0  0  0  0  0  0  0  0  0  0  0
  -12.9079    3.0637    5.2981 C   0  0  0  0  0  0  0  0  0  0  0  0
  -12.3961    2.7477    6.7183 C   0  0  1  0  0  0  0  0  0  0  0  0
  -10.9590    2.2214    6.6356 C   0  0  0  0  0  0  0  0  0  0  0  0
  -12.4537    3.9612    7.6429 C   0  0  0  0  0  0  0  0  0  0  0  0
  -10.6980    5.8673    4.2938 N   0  0  0  0  0  0  0  0  0  0  0  0
  -10.0494    6.5585    5.4316 C   0  0  2  0  0  0  0  0  0  0  0  0
   -9.0419    7.5123    4.7644 C   0  0  0  0  0  0  0  0  0  0  0  0
   -7.8333    7.5383    4.9735 O   0  0  0  0  0  0  0  0  0  0  0  0
   -9.3839    5.5803    6.4120 C   0  0  0  0  0  0  0  0  0  0  0  0
   -8.8826    4.2770    5.7591 C   0  0  1  0  0  0  0  0  0  0  0  0
   -9.5780    3.9959    4.4257 C   0  0  0  0  0  0  0  0  0  0  0  0
   -7.3710    4.3609    5.5399 C   0  0  0  0  0  0  0  0  0  0  0  0
   -9.7174   11.9311    3.9428 O   0  0  0  0  0  0  0  0  0  0  0  0
   -9.5862   10.7697    3.5739 C   0  0  0  0  0  0  0  0  0  0  0  0
  -10.3811    9.5646    4.1602 C   0  0  2  0  0  0  0  0  0  0  0  0
  -10.5014    9.8592    5.6716 C   0  0  0  0  0  0  0  0  0  0  0  0
   -9.5655    8.3601    3.8172 N   0  0  0  0  0  0  0  0  0  0  0  0
  -11.7994    9.4322    3.5623 C   0  0  0  0  0  0  0  0  0  0  0  0
  -11.8599    9.0296    2.0758 C   0  0  0  0  0  0  0  0  0  0  0  0
  -13.2940    8.7847    1.5793 C   0  0  0  0  0  0  0  0  0  0  0  0
  -13.9167    7.5503    2.1765 C   0  0  0  0  0  0  0  0  0  0  0  0
   -8.6671   10.3907    2.5966 N   0  0  0  0  0  0  0  0  0  0  0  0
   -8.4262    8.9706    2.3618 C   0  0  2  0  0  0  0  0  0  0  0  0
   -7.7697    8.8536    0.9683 C   0  0  0  0  0  0  0  0  0  0  0  0
   -8.3683    9.0814   -0.0850 O   0  0  0  0  0  0  0  0  0  0  0  0
   -9.7019    8.1167    2.4798 C   0  0  0  0  0  0  0  0  0  0  0  0
   -9.6056    6.8996    3.3770 C   0  0  0  0  0  0  0  0  0  0  0  0
  -10.7567    6.1611    3.6887 C   0  0  0  0  0  0  0  0  0  0  0  0
   -8.3772    6.4869    3.9097 C   0  0  0  0  0  0  0  0  0  0  0  0
  -10.6814    5.0392    4.5184 C   0  0  0  0  0  0  0  0  0  0  0  0
   -8.3068    5.3759    4.7541 C   0  0  0  0  0  0  0  0  0  0  0  0
   -9.4582    4.6527    5.0574 C   0  0  0  0  0  0  0  0  0  0  0  0
   -6.4628    8.4526    0.9562 N   0  0  0  0  0  0  0  0  0  0  0  0
   -8.2438   11.3703    7.2316 H   0  0  0  0  0  0  0  0  0  0  0  0
  -11.3015   -0.7000   -4.7073 H   0  0  0  0  0  0  0  0  0  0  0  0
  1  2  2  0
  1  3  1  0
  4  1  1  0
  5  4  1  0
  6  5  1  0
  5  8  1  1
  6  7  2  0
 13  6  1  0
  8  9  1  0
  9 10  1  0
 10 11  1  0
 11 12  1  0
 14 13  1  0
 15 14  1  0
 14 17  1  1
 15 16  2  0
 22 15  1  0
 17 18  1  0
 18 19  1  0
 19 20  1  0
 20 21  1  0
 23 22  1  0
 24 23  1  0
 23 26  1  1
 24 25  2  0
 33 24  1  0
 26 27  1  0
 27 28  1  0
 28 29  1  0
 29 30  1  0
 30 31  1  0
 30 32  2  0
 34 33  1  0
 35 34  1  0
 34 37  1  1
 35 36  2  0
 45 35  1  0
 37 38  1  0
 38 39  2  0
 38 40  1  0
 39 41  1  0
 40 42  2  0
 41 43  2  0
 42 43  1  0
 43 44  1  0
 46 45  1  0
 47 46  1  0
 46 49  1  6
 47 48  2  0
 51 47  1  0
 49 50  1  0
 52 51  1  0
 53 52  1  0
 52 55  1  1
 53 54  2  0
 66 53  1  0
 55 56  1  0
 56 57  1  0
 57 58  1  0
 58 59  1  0
 59 60  2  0
 59 61  1  0
 63 62  2  0
 63 64  1  0
 71 63  1  0
 64 65  1  1
 64 66  1  0
 64 67  1  0
 67 68  1  0
 68 69  1  0
 69 70  1  0
 70104  2  0
 72 71  1  0
 73 72  1  0
 72 75  1  1
 73 74  2  0
 80 73  1  0
 75 76  1  0
 76 77  1  0
 77 78  2  0
 77 79  1  0
 81 80  1  0
 82 81  1  0
 81 84  1  1
 82 83  2  0
 88 82  1  0
 84 85  1  0
 85 86  1  6
 85 87  1  0
 89 88  1  0
 90 89  1  0
 89 92  1  1
 90 91  2  0
100 90  1  0
 92 93  1  0
 93 94  1  6
 93 95  1  0
 97 96  2  0
 98 97  1  0
 97105  1  0
 98 99  1  1
 98100  1  0
 98101  1  0
101102  1  0
102103  1  0
103104  1  0
105106  1  0
106107  1  0
106109  1  6
107108  2  0
107116  1  0
109110  1  0
110111  2  0
110112  1  0
111113  1  0
112114  2  0
113115  2  0
114115  1  0
 32117  1  0
 60118  1  0
M  CHG  2  12   1  21   1
M  END
$$$$
