
     RDKit          3D

118120  0  0  0  0  0  0  0  0999 V2000
    1.6429    6.5393   15.4264 C   0  0  0  0  0  0  0  0  0  0  0  0
    1.1016    7.1554   16.3370 O   0  0  0  0  0  0  0  0  0  0  0  0
    2.9188    5.7652   15.6107 C   0  0  0  0  0  0  0  0  0  0  0  0
    1.1165    6.4941   14.1540 N   0  0  0  0  0  0  0  0  0  0  0  0
    0.0770    7.4378   13.7453 C   0  0  2  0  0  0  0  0  0  0  0  0
   -0.5593    7.0614   12.3810 C   0  0  0  0  0  0  0  0  0  0  0  0
    0.0924    7.0768   11.3366 O   0  0  0  0  0  0  0  0  0  0  0  0
    0.6312    8.8752   13.6665 C   0  0  0  0  0  0  0  0  0  0  0  0
   -0.0926    9.8836   14.5787 C   0  0  0  0  0  0  0  0  0  0  0  0
   -0.0178    9.5542   16.0729 C   0  0  0  0  0  0  0  0  0  0  0  0
    1.4182    9.4753   16.5731 C   0  0  0  0  0  0  0  0  0  0  0  0
    1.3952    9.0782   18.0030 N   0  0  0  0  0  4  0  0  0  0  0  0
   -1.8527    6.6106   12.4269 N   0  0  0  0  0  0  0  0  0  0  0  0
   -2.4703    5.8825   11.3293 C   0  0  2  0  0  0  0  0  0  0  0  0
   -3.3290    6.8576   10.5002 C   0  0  0  0  0  0  0  0  0  0  0  0
   -3.8470    7.8524   11.0039 O   0  0  0  0  0  0  0  0  0  0  0  0
   -3.3310    4.7153   11.8556 C   0  0  0  0  0  0  0  0  0  0  0  0
   -3.1923    3.4393   11.0051 C   0  0  0  0  0  0  0  0  0  0  0  0
   -1.7618    2.9217   10.8336 C   0  0  0  0  0  0  0  0  0  0  0  0
   -1.7097    1.4575   10.4315 C   0  0  0  0  0  0  0  0  0  0  0  0
   -0.3223    1.0231   10.2734 N   0  0  0  0  0  4  0  0  0  0  0  0
   -3.5386    6.4636    9.1955 N   0  0  0  0  0  0  0  0  0  0  0  0
   -4.0757    7.3952    8.1835 C   0  0  2  0  0  0  0  0  0  0  0  0
   -3.8934    6.7985    6.7668 C   0  0  0  0  0  0  0  0  0  0  0  0
   -3.1440    5.8584    6.5255 O   0  0  0  0  0  0  0  0  0  0  0  0
   -3.3633    8.7447    8.3288 C   0  0  0  0  0  0  0  0  0  0  0  0
   -2.0645    8.8302    7.5216 C   0  0  0  0  0  0  0  0  0  0  0  0
   -0.8117    8.8970    8.3969 C   0  0  0  0  0  0  0  0  0  0  0  0
   -0.0159   10.0860    8.1523 N   0  0  0  0  0  0  0  0  0  0  0  0
   -0.0669   11.1961    8.9143 C   0  0  0  0  0  0  0  0  0  0  0  0
   -0.2901   10.8939   10.2095 N   0  0  0  0  0  0  0  0  0  0  0  0
    0.0672   12.3958    8.4853 N   0  0  0  0  0  0  0  0  0  0  0  0
   -4.7389    7.3145    5.8073 N   0  0  0  0  0  0  0  0  0  0  0  0
   -5.6879    6.4516    5.1103 C   0  0  2  0  0  0  0  0  0  0  0  0
   -6.5878    7.2426    4.1295 C   0  0  0  0  0  0  0  0  0  0  0  0
   -7.7093    7.6731    4.4102 O   0  0  0  0  0  0  0  0  0  0  0  0
   -6.5518    5.6352    6.0971 C   0  0  0  0  0  0  0  0  0  0  0  0
   -5.8913    4.3647    6.5987 C   0  0  0  0  0  0  0  0  0  0  0  0
   -6.2055    3.8413    7.8598 C   0  0  0  0  0  0  0  0  0  0  0  0
   -4.9261    3.7132    5.8141 C   0  0  0  0  0  0  0  0  0  0  0  0
   -5.5278    2.7260    8.3484 C   0  0  0  0  0  0  0  0  0  0  0  0
   -4.2677    2.5808    6.2912 C   0  0  0  0  0  0  0  0  0  0  0  0
   -4.5686    2.1081    7.5614 C   0  0  0  0  0  0  0  0  0  0  0  0
   -3.9422    1.0128    8.0654 O   0  0  0  0  0  0  0  0  0  0  0  0
   -6.1021    7.3119    2.8467 N   0  0  0  0  0  0  0  0  0  0  0  0
   -6.7432    8.0321    1.7287 C   0  0  2  0  0  0  0  0  0  0  0  0
   -8.1884    7.5551    1.4357 C   0  0  0  0  0  0  0  0  0  0  0  0
   -8.4744    6.3978    1.1508 O   0  0  0  0  0  0  0  0  0  0  0  0
   -5.8706    7.9048    0.4695 C   0  0  0  0  0  0  0  0  0  0  0  0
   -4.5263    8.2853    0.7917 O   0  0  0  0  0  0  0  0  0  0  0  0
   -9.1074    8.5765    1.3417 N   0  0  0  0  0  0  0  0  0  0  0  0
  -10.0880    8.7417    0.2666 C   0  0  2  0  0  0  0  0  0  0  0  0
   -9.5234    8.6691   -1.1686 C   0  0  0  0  0  0  0  0  0  0  0  0
   -8.9558    9.6344   -1.6649 O   0  0  0  0  0  0  0  0  0  0  0  0
  -11.1054    9.8741    0.4926 C   0  0  0  0  0  0  0  0  0  0  0  0
  -11.3527   10.5998   -0.8298 C   0  0  0  0  0  0  0  0  0  0  0  0
  -11.4229   12.1121   -0.7229 C   0  0  0  0  0  0  0  0  0  0  0  0
  -12.6631   12.5369   -0.0595 N   0  0  0  0  0  0  0  0  0  0  0  0
  -13.7579   11.7370    0.0224 C   0  0  0  0  0  0  0  0  0  0  0  0
  -14.3751   11.1924   -0.9774 N   0  0  0  0  0  0  0  0  0  0  0  0
  -14.1673   11.5587    1.2888 N   0  0  0  0  0  0  0  0  0  0  0  0
  -11.5179    6.4297    0.1154 O   0  0  0  0  0  0  0  0  0  0  0  0
  -10.5766    5.7433   -0.2849 C   0  0  0  0  0  0  0  0  0  0  0  0
   -9.6914    6.1308   -1.5218 C   0  0  2  0  0  0  0  0  0  0  0  0
   -8.2123    6.0890   -1.0722 C   0  0  0  0  0  0  0  0  0  0  0  0
   -9.9531    7.5519   -1.8563 N   0  0  0  0  0  0  0  0  0  0  0  0
   -9.8274    5.1244   -2.6929 C   0  0  0  0  0  0  0  0  0  0  0  0
  -11.2295    4.9148   -3.2694 C   0  0  0  0  0  0  0  0  0  0  0  0
  -11.3558    3.6886   -4.1737 C   0  0  0  0  0  0  0  0  0  0  0  0
  -11.2216    2.3795   -3.4503 C   0  0  0  0  0  0  0  0  0  0  0  0
  -10.2550    4.5678    0.3779 N   0  0  0  0  0  0  0  0  0  0  0  0
   -9.6710    4.7480    1.7173 C   0  0  2  0  0  0  0  0  0  0  0  0
   -8.4248    3.8858    2.0325 C   0  0  0  0  0  0  0  0  0  0  0  0
   -7.5771    4.3177    2.8259 O   0  0  0  0  0  0  0  0  0  0  0  0
  -10.6480    4.5593    2.9077 C   0  0  0  0  0  0  0  0  0  0  0  0
  -12.0842    5.0388    2.7230 C   0  0  0  0  0  0  0  0  0  0  0  0
  -12.2011    6.0737    1.6196 C   0  0  0  0  0  0  0  0  0  0  0  0
  -12.4714    7.2602    1.8091 O   0  0  0  0  0  0  0  0  0  0  0  0
  -11.8577    5.6339    0.3771 N   0  0  0  0  0  0  0  0  0  0  0  0
   -8.2946    2.5794    1.6664 N   0  0  0  0  0  0  0  0  0  0  0  0
   -8.6086    1.9414    0.3781 C   0  0  2  0  0  0  0  0  0  0  0  0
   -9.9731    1.2082    0.3342 C   0  0  0  0  0  0  0  0  0  0  0  0
  -10.2553    0.3288   -0.4757 O   0  0  0  0  0  0  0  0  0  0  0  0
   -7.5348    0.8825    0.0237 C   0  0  0  0  0  0  0  0  0  0  0  0
   -6.4353    0.6281    1.0749 C   0  0  1  0  0  0  0  0  0  0  0  0
   -5.4935    1.8361    1.1284 C   0  0  0  0  0  0  0  0  0  0  0  0
   -7.0076    0.3524    2.4632 C   0  0  0  0  0  0  0  0  0  0  0  0
  -10.9742    1.7154    1.1326 N   0  0  0  0  0  0  0  0  0  0  0  0
  -11.5225    0.7818    2.1429 C   0  0  2  0  0  0  0  0  0  0  0  0
  -12.8364    1.4466    2.5921 C   0  0  0  0  0  0  0  0  0  0  0  0
  -13.1279    1.7510    3.7443 O   0  0  0  0  0  0  0  0  0  0  0  0
  -10.5501    0.5379    3.3073 C   0  0  0  0  0  0  0  0  0  0  0  0
  -10.7688    1.4684    4.5165 C   0  0  1  0  0  0  0  0  0  0  0  0
  -10.2397    2.8808    4.2599 C   0  0  0  0  0  0  0  0  0  0  0  0
  -12.2600    1.5339    4.8512 C   0  0  0  0  0  0  0  0  0  0  0  0
  -16.9879    0.7676    0.5058 O   0  0  0  0  0  0  0  0  0  0  0  0
  -16.0230    1.1698    1.1454 C   0  0  0  0  0  0  0  0  0  0  0  0
  -14.5487    0.7430    0.8766 C   0  0  2  0  0  0  0  0  0  0  0  0
  -14.4363   -0.6913    1.4386 C   0  0  0  0  0  0  0  0  0  0  0  0
  -13.7161    1.7628    1.5840 N   0  0  0  0  0  0  0  0  0  0  0  0
  -14.1944    0.7198   -0.6269 C   0  0  0  0  0  0  0  0  0  0  0  0
  -14.1525    2.0949   -1.3219 C   0  0  0  0  0  0  0  0  0  0  0  0
  -13.6649    2.0158   -2.7776 C   0  0  0  0  0  0  0  0  0  0  0  0
  -12.2057    1.6593   -2.8869 C   0  0  0  0  0  0  0  0  0  0  0  0
  -16.1480    2.0410    2.2266 N   0  0  0  0  0  0  0  0  0  0  0  0
  -14.9534    2.4198    2.9744 C   0  0  2  0  0  0  0  0  0  0  0  0
  -14.6091    1.2303    3.8980 C   0  0  0  0  0  0  0  0  0  0  0  0
  -13.5863    1.1781    4.5842 O   0  0  0  0  0  0  0  0  0  0  0  0
  -15.1250    3.7353    3.7558 C   0  0  0  0  0  0  0  0  0  0  0  0
  -15.4570    3.5948    5.2275 C   0  0  0  0  0  0  0  0  0  0  0  0
  -14.5935    4.1235    6.1982 C   0  0  0  0  0  0  0  0  0  0  0  0
  -16.6226    2.9413    5.6486 C   0  0  0  0  0  0  0  0  0  0  0  0
  -14.8866    3.9967    7.5586 C   0  0  0  0  0  0  0  0  0  0  0  0
  -16.9046    2.7991    7.0097 C   0  0  0  0  0  0  0  0  0  0  0  0
  -16.0372    3.3271    7.9636 C   0  0  0  0  0  0  0  0  0  0  0  0
  -15.5063    0.1989    3.9020 N   0  0  0  0  0  0  0  0  0  0  0  0
   -0.3110   13.0531    9.1665 H   0  0  0  0  0  0  0  0  0  0  0  0
  -15.1591   11.8284   -1.1873 H   0  0  0  0  0  0  0  0  0  0  0  0
  1  2  2  0
  1  3  1  0
  4  1  1  0
  5  4  1  0
  6  5  1  0
  5  8  1  6
  6  7  2  0
 13  6  1  0
  8  9  1  0
  9 10  1  0
 10 11  1  0
 11 12  1  0
 14 13  1  0
 15 14  1  0
 14 17  1  1
 15 16  2  0
 22 15  1  0
 17 18  1  0
 18 19  1  0
 19 20  1  0
 20 21  1  0
 23 22  1  0
 24 23  1  0
 23 26  1  6
 24 25  2  0
 33 24  1  0
 26 27  1  0
 27 28  1  0
 28 29  1  0
 29 30  1  0
 30 31  1  0
 30 32  2  0
 34 33  1  0
 35 34  1  0
 34 37  1  1
 35 36  2  0
 45 35  1  0
 37 38  1  0
 38 39  2  0
 38 40  1  0
 39 41  1  0
 40 42  2  0
 41 43  2  0
 42 43  1  0
 43 44  1  0
 46 45  1  0
 47 46  1  0
 46 49  1  6
 47 48  2  0
 51 47  1  0
 49 50  1  0
 52 51  1  0
 53 52  1  0
 52 55  1  1
 53 54  2  0
 66 53  1  0
 55 56  1  0
 56 57  1  0
 57 58  1  0
 58 59  1  0
 59 60  2  0
 59 61  1  0
 63 62  2  0
 63 64  1  0
 71 63  1  0
 64 65  1  1
 64 66  1  0
 64 67  1  0
 67 68  1  0
 68 69  1  0
 69 70  1  0
 70104  2  0
 72 71  1  0
 73 72  1  0
 72 75  1  1
 73 74  2  0
 80 73  1  0
 75 76  1  0
 76 77  1  0
 77 78  2  0
 77 79  1  0
 81 80  1  0
 82 81  1  0
 81 84  1  1
 82 83  2  0
 88 82  1  0
 84 85  1  0
 85 86  1  1
 85 87  1  0
 89 88  1  0
 90 89  1  0
 89 92  1  1
 90 91  2  0
100 90  1  0
 92 93  1  0
 93 94  1  6
 93 95  1  0
 97 96  2  0
 98 97  1  0
 97105  1  0
 98 99  1  1
 98100  1  0
 98101  1  0
101102  1  0
102103  1  0
103104  1  0
105106  1  0
106107  1  0
106109  1  1
107108  2  0
107116  1  0
109110  1  0
110111  2  0
110112  1  0
111113  1  0
112114  2  0
113115  2  0
114115  1  0
 32117  1  0
 60118  1  0
M  CHG  2  12   1  21   1
M  END
$$$$
