
     RDKit          3D

118120  0  0  0  0  0  0  0  0999 V2000
    0.3729   12.7631    8.2668 C   0  0  0  0  0  0  0  0  0  0  0  0
   -0.6328   12.3139    8.8039 O   0  0  0  0  0  0  0  0  0  0  0  0
    0.6782   14.2344    8.2076 C   0  0  0  0  0  0  0  0  0  0  0  0
    1.3191   11.9511    7.6808 N   0  0  0  0  0  0  0  0  0  0  0  0
    1.2720   10.5013    7.8653 C   0  0  2  0  0  0  0  0  0  0  0  0
    1.5068   10.0858    9.3419 C   0  0  0  0  0  0  0  0  0  0  0  0
    1.6315   10.9214   10.2374 O   0  0  0  0  0  0  0  0  0  0  0  0
    2.3083    9.7930    6.9689 C   0  0  0  0  0  0  0  0  0  0  0  0
    1.7370    8.6261    6.1413 C   0  0  0  0  0  0  0  0  0  0  0  0
    2.7631    7.5517    5.7676 C   0  0  0  0  0  0  0  0  0  0  0  0
    2.2313    6.1436    5.9982 C   0  0  0  0  0  0  0  0  0  0  0  0
    2.8045    5.2504    4.9609 N   0  0  0  0  0  4  0  0  0  0  0  0
    1.4594    8.7409    9.6009 N   0  0  0  0  0  0  0  0  0  0  0  0
    0.5947    8.1673   10.6205 C   0  0  2  0  0  0  0  0  0  0  0  0
   -0.6595    7.5808    9.9433 C   0  0  0  0  0  0  0  0  0  0  0  0
   -1.7354    8.1758    9.9481 O   0  0  0  0  0  0  0  0  0  0  0  0
    0.1988    9.2271   11.6694 C   0  0  0  0  0  0  0  0  0  0  0  0
    1.1618    9.2690   12.8700 C   0  0  0  0  0  0  0  0  0  0  0  0
    1.0896    8.0604   13.8069 C   0  0  0  0  0  0  0  0  0  0  0  0
    2.0342    8.1762   14.9913 C   0  0  0  0  0  0  0  0  0  0  0  0
    2.7689    6.9258   15.1792 N   0  0  0  0  0  4  0  0  0  0  0  0
   -0.4894    6.3116    9.4319 N   0  0  0  0  0  0  0  0  0  0  0  0
   -1.6096    5.5673    8.8223 C   0  0  2  0  0  0  0  0  0  0  0  0
   -2.7961    6.5247    8.5542 C   0  0  0  0  0  0  0  0  0  0  0  0
   -3.3499    7.1711    9.4369 O   0  0  0  0  0  0  0  0  0  0  0  0
   -2.0050    4.4189    9.7575 C   0  0  0  0  0  0  0  0  0  0  0  0
   -3.0650    3.4907    9.1568 C   0  0  0  0  0  0  0  0  0  0  0  0
   -2.5415    2.0831    8.8657 C   0  0  0  0  0  0  0  0  0  0  0  0
   -3.5382    1.2275    8.2482 N   0  0  0  0  0  0  0  0  0  0  0  0
   -3.2815   -0.0080    7.7758 C   0  0  0  0  0  0  0  0  0  0  0  0
   -4.1938   -0.9005    8.2115 N   0  0  0  0  0  0  0  0  0  0  0  0
   -2.2983   -0.3213    7.0166 N   0  0  0  0  0  0  0  0  0  0  0  0
   -3.1063    6.7049    7.2227 N   0  0  0  0  0  0  0  0  0  0  0  0
   -4.4172    7.2101    6.8259 C   0  0  2  0  0  0  0  0  0  0  0  0
   -5.4568    6.0747    6.6599 C   0  0  0  0  0  0  0  0  0  0  0  0
   -5.1692    4.8788    6.5661 O   0  0  0  0  0  0  0  0  0  0  0  0
   -4.3377    8.0619    5.5395 C   0  0  0  0  0  0  0  0  0  0  0  0
   -4.2302    9.5549    5.7874 C   0  0  0  0  0  0  0  0  0  0  0  0
   -2.9892   10.1534    6.0419 C   0  0  0  0  0  0  0  0  0  0  0  0
   -5.3848   10.3540    5.7983 C   0  0  0  0  0  0  0  0  0  0  0  0
   -2.9122   11.5086    6.3576 C   0  0  0  0  0  0  0  0  0  0  0  0
   -5.3048   11.7156    6.0867 C   0  0  0  0  0  0  0  0  0  0  0  0
   -4.0674   12.2744    6.3763 C   0  0  0  0  0  0  0  0  0  0  0  0
   -3.9494   13.5954    6.6711 O   0  0  0  0  0  0  0  0  0  0  0  0
   -6.7460    6.5108    6.4751 N   0  0  0  0  0  0  0  0  0  0  0  0
   -7.7228    5.9164    5.5413 C   0  0  2  0  0  0  0  0  0  0  0  0
   -7.7811    6.6352    4.1695 C   0  0  0  0  0  0  0  0  0  0  0  0
   -7.3787    7.7785    3.9870 O   0  0  0  0  0  0  0  0  0  0  0  0
   -9.1132    5.8983    6.1969 C   0  0  0  0  0  0  0  0  0  0  0  0
   -9.6606    7.2232    6.1691 O   0  0  0  0  0  0  0  0  0  0  0  0
   -8.4909    5.9509    3.2079 N   0  0  0  0  0  0  0  0  0  0  0  0
   -8.0239    5.6634    1.8501 C   0  0  2  0  0  0  0  0  0  0  0  0
   -6.8363    4.6821    1.7465 C   0  0  0  0  0  0  0  0  0  0  0  0
   -5.7586    5.0527    1.2976 O   0  0  0  0  0  0  0  0  0  0  0  0
   -7.9119    6.8952    0.9343 C   0  0  0  0  0  0  0  0  0  0  0  0
   -6.9304    7.8924    1.5498 C   0  0  0  0  0  0  0  0  0  0  0  0
   -6.7695    9.1880    0.7759 C   0  0  0  0  0  0  0  0  0  0  0  0
   -6.6547    8.9303   -0.6660 N   0  0  0  0  0  0  0  0  0  0  0  0
   -6.8271    9.9039   -1.5974 C   0  0  0  0  0  0  0  0  0  0  0  0
   -7.6292    9.8481   -2.6126 N   0  0  0  0  0  0  0  0  0  0  0  0
   -6.0514   10.9754   -1.3666 N   0  0  0  0  0  0  0  0  0  0  0  0
   -9.3877    3.8743    0.3474 O   0  0  0  0  0  0  0  0  0  0  0  0
   -9.6320    3.3919    1.4543 C   0  0  0  0  0  0  0  0  0  0  0  0
   -8.5206    2.8682    2.4311 C   0  0  2  0  0  0  0  0  0  0  0  0
   -8.7402    3.5509    3.8013 C   0  0  0  0  0  0  0  0  0  0  0  0
   -7.2078    3.3693    1.9563 N   0  0  0  0  0  0  0  0  0  0  0  0
   -8.6125    1.3405    2.6772 C   0  0  0  0  0  0  0  0  0  0  0  0
   -8.5102    0.4319    1.4498 C   0  0  0  0  0  0  0  0  0  0  0  0
   -8.9378   -1.0133    1.7057 C   0  0  0  0  0  0  0  0  0  0  0  0
  -10.4061   -1.1776    1.9743 C   0  0  0  0  0  0  0  0  0  0  0  0
  -10.9466    3.3032    1.8882 N   0  0  0  0  0  0  0  0  0  0  0  0
  -11.5846    4.5907    2.2090 C   0  0  2  0  0  0  0  0  0  0  0  0
  -12.3854    4.6367    3.5329 C   0  0  0  0  0  0  0  0  0  0  0  0
  -12.4764    5.7091    4.1462 O   0  0  0  0  0  0  0  0  0  0  0  0
  -12.5157    5.1714    1.1122 C   0  0  0  0  0  0  0  0  0  0  0  0
  -13.4490    6.3100    1.5110 C   0  0  0  0  0  0  0  0  0  0  0  0
  -12.9833    7.0121    2.7730 C   0  0  0  0  0  0  0  0  0  0  0  0
  -11.8864    6.8293    3.3022 O   0  0  0  0  0  0  0  0  0  0  0  0
  -13.8207    7.9809    3.2370 N   0  0  0  0  0  0  0  0  0  0  0  0
  -13.1889    3.6253    3.9682 N   0  0  0  0  0  0  0  0  0  0  0  0
  -12.9284    2.1773    3.9891 C   0  0  2  0  0  0  0  0  0  0  0  0
  -13.5622    1.3883    2.8155 C   0  0  0  0  0  0  0  0  0  0  0  0
  -13.7820    0.1800    2.8387 O   0  0  0  0  0  0  0  0  0  0  0  0
  -13.4876    1.5465    5.2888 C   0  0  0  0  0  0  0  0  0  0  0  0
  -12.9360    0.1611    5.6827 C   0  0  1  0  0  0  0  0  0  0  0  0
  -14.0868   -0.8501    5.7291 C   0  0  0  0  0  0  0  0  0  0  0  0
  -11.8511   -0.3285    4.7267 C   0  0  0  0  0  0  0  0  0  0  0  0
  -13.7056    2.0619    1.6228 N   0  0  0  0  0  0  0  0  0  0  0  0
  -15.0914    2.1739    1.1131 C   0  0  2  0  0  0  0  0  0  0  0  0
  -14.9159    2.5918   -0.3582 C   0  0  0  0  0  0  0  0  0  0  0  0
  -15.3932    3.5944   -0.8800 O   0  0  0  0  0  0  0  0  0  0  0  0
  -15.9357    3.1730    1.9192 C   0  0  0  0  0  0  0  0  0  0  0  0
  -15.1540    3.9121    3.0232 C   0  0  1  0  0  0  0  0  0  0  0  0
  -13.9715    3.0906    3.5404 C   0  0  0  0  0  0  0  0  0  0  0  0
  -14.6495    5.2524    2.4857 C   0  0  0  0  0  0  0  0  0  0  0  0
  -14.6013   -0.4075   -3.9298 O   0  0  0  0  0  0  0  0  0  0  0  0
  -14.4422    0.5365   -3.1645 C   0  0  0  0  0  0  0  0  0  0  0  0
  -14.5298    0.4357   -1.6121 C   0  0  2  0  0  0  0  0  0  0  0  0
  -16.0001    0.0680   -1.3150 C   0  0  0  0  0  0  0  0  0  0  0  0
  -14.1041    1.7787   -1.1130 N   0  0  0  0  0  0  0  0  0  0  0  0
  -13.6124   -0.6618   -1.0284 C   0  0  0  0  0  0  0  0  0  0  0  0
  -12.0988   -0.3946   -1.1437 C   0  0  0  0  0  0  0  0  0  0  0  0
  -11.2470   -1.4552   -0.4277 C   0  0  0  0  0  0  0  0  0  0  0  0
  -11.3767   -1.3948    1.0715 C   0  0  0  0  0  0  0  0  0  0  0  0
  -14.1976    1.8340   -3.6120 N   0  0  0  0  0  0  0  0  0  0  0  0
  -13.6913    2.8260   -2.6689 C   0  0  2  0  0  0  0  0  0  0  0  0
  -14.8988    3.6861   -2.2345 C   0  0  0  0  0  0  0  0  0  0  0  0
  -15.1721    3.9261   -1.0566 O   0  0  0  0  0  0  0  0  0  0  0  0
  -12.5466    3.6772   -3.2483 C   0  0  0  0  0  0  0  0  0  0  0  0
  -11.2302    3.6167   -2.5006 C   0  0  0  0  0  0  0  0  0  0  0  0
  -10.8737    4.6464   -1.6172 C   0  0  0  0  0  0  0  0  0  0  0  0
  -10.3480    2.5417   -2.6712 C   0  0  0  0  0  0  0  0  0  0  0  0
   -9.6605    4.6041   -0.9250 C   0  0  0  0  0  0  0  0  0  0  0  0
   -9.1272    2.5104   -1.9924 C   0  0  0  0  0  0  0  0  0  0  0  0
   -8.7844    3.5407   -1.1196 C   0  0  0  0  0  0  0  0  0  0  0  0
  -15.6856    4.1637   -3.2453 N   0  0  0  0  0  0  0  0  0  0  0  0
   -2.2294    0.3415    6.2453 H   0  0  0  0  0  0  0  0  0  0  0  0
   -7.1791   10.4214   -3.3419 H   0  0  0  0  0  0  0  0  0  0  0  0
  1  2  2  0
  1  3  1  0
  4  1  1  0
  5  4  1  0
  6  5  1  0
  5  8  1  6
  6  7  2  0
 13  6  1  0
  8  9  1  0
  9 10  1  0
 10 11  1  0
 11 12  1  0
 14 13  1  0
 15 14  1  0
 14 17  1  1
 15 16  2  0
 22 15  1  0
 17 18  1  0
 18 19  1  0
 19 20  1  0
 20 21  1  0
 23 22  1  0
 24 23  1  0
 23 26  1  1
 24 25  2  0
 33 24  1  0
 26 27  1  0
 27 28  1  0
 28 29  1  0
 29 30  1  0
 30 31  1  0
 30 32  2  0
 34 33  1  0
 35 34  1  0
 34 37  1  6
 35 36  2  0
 45 35  1  0
 37 38  1  0
 38 39  2  0
 38 40  1  0
 39 41  1  0
 40 42  2  0
 41 43  2  0
 42 43  1  0
 43 44  1  0
 46 45  1  0
 47 46  1  0
 46 49  1  1
 47 48  2  0
 51 47  1  0
 49 50  1  0
 52 51  1  0
 53 52  1  0
 52 55  1  1
 53 54  2  0
 66 53  1  0
 55 56  1  0
 56 57  1  0
 57 58  1  0
 58 59  1  0
 59 60  2  0
 59 61  1  0
 63 62  2  0
 63 64  1  0
 71 63  1  0
 64 65  1  1
 64 66  1  0
 64 67  1  0
 67 68  1  0
 68 69  1  0
 69 70  1  0
 70104  2  0
 72 71  1  0
 73 72  1  0
 72 75  1  6
 73 74  2  0
 80 73  1  0
 75 76  1  0
 76 77  1  0
 77 78  2  0
 77 79  1  0
 81 80  1  0
 82 81  1  0
 81 84  1  1
 82 83  2  0
 88 82  1  0
 84 85  1  0
 85 86  1  6
 85 87  1  0
 89 88  1  0
 90 89  1  0
 89 92  1  1
 90 91  2  0
100 90  1  0
 92 93  1  0
 93 94  1  6
 93 95  1  0
 97 96  2  0
 98 97  1  0
 97105  1  0
 98 99  1  6
 98100  1  0
 98101  1  0
101102  1  0
102103  1  0
103104  1  0
105106  1  0
106107  1  0
106109  1  6
107108  2  0
107116  1  0
109110  1  0
110111  2  0
110112  1  0
111113  1  0
112114  2  0
113115  2  0
114115  1  0
 32117  1  0
 60118  1  0
M  CHG  2  12   1  21   1
M  END
$$$$
