
     RDKit          3D

118120  0  0  0  0  0  0  0  0999 V2000
  -21.6704   12.8367   41.3691 C   0  0  0  0  0  0  0  0  0  0  0  0
  -21.8147   12.0586   42.3049 O   0  0  0  0  0  0  0  0  0  0  0  0
  -20.3219   13.3149   40.9064 C   0  0  0  0  0  0  0  0  0  0  0  0
  -22.7378   13.3302   40.6513 N   0  0  0  0  0  0  0  0  0  0  0  0
  -22.5182   14.1144   39.4368 C   0  0  2  0  0  0  0  0  0  0  0  0
  -23.2915   15.4597   39.4545 C   0  0  0  0  0  0  0  0  0  0  0  0
  -24.2749   15.6316   40.1749 O   0  0  0  0  0  0  0  0  0  0  0  0
  -22.9196   13.3160   38.1795 C   0  0  0  0  0  0  0  0  0  0  0  0
  -21.9382   12.1892   37.8053 C   0  0  0  0  0  0  0  0  0  0  0  0
  -22.3244   11.4036   36.5481 C   0  0  0  0  0  0  0  0  0  0  0  0
  -22.1313   12.2206   35.2776 C   0  0  0  0  0  0  0  0  0  0  0  0
  -22.6157   11.4186   34.1266 N   0  0  0  0  0  4  0  0  0  0  0  0
  -22.7512   16.4715   38.7045 N   0  0  0  0  0  0  0  0  0  0  0  0
  -23.5650   17.3991   37.9342 C   0  0  2  0  0  0  0  0  0  0  0  0
  -24.1330   16.6660   36.7032 C   0  0  0  0  0  0  0  0  0  0  0  0
  -24.5169   15.4996   36.7650 O   0  0  0  0  0  0  0  0  0  0  0  0
  -22.7403   18.6286   37.5000 C   0  0  0  0  0  0  0  0  0  0  0  0
  -23.2526   19.9415   38.1201 C   0  0  0  0  0  0  0  0  0  0  0  0
  -22.1898   20.7888   38.8245 C   0  0  0  0  0  0  0  0  0  0  0  0
  -22.6936   22.1721   39.2003 C   0  0  0  0  0  0  0  0  0  0  0  0
  -23.1575   22.8843   38.0103 N   0  0  0  0  0  4  0  0  0  0  0  0
  -24.0771   17.3920   35.5323 N   0  0  0  0  0  0  0  0  0  0  0  0
  -24.6406   16.8696   34.2712 C   0  0  2  0  0  0  0  0  0  0  0  0
  -24.5187   17.9364   33.1563 C   0  0  0  0  0  0  0  0  0  0  0  0
  -24.7305   19.1297   33.3427 O   0  0  0  0  0  0  0  0  0  0  0  0
  -26.0988   16.4639   34.5139 C   0  0  0  0  0  0  0  0  0  0  0  0
  -27.0280   17.6610   34.7364 C   0  0  0  0  0  0  0  0  0  0  0  0
  -28.5011   17.2680   34.8619 C   0  0  0  0  0  0  0  0  0  0  0  0
  -28.6837   15.8761   35.2305 N   0  0  0  0  0  0  0  0  0  0  0  0
  -29.8850   15.3067   35.4504 C   0  0  0  0  0  0  0  0  0  0  0  0
  -30.1984   15.3106   36.7621 N   0  0  0  0  0  0  0  0  0  0  0  0
  -30.6459   14.8101   34.5472 N   0  0  0  0  0  0  0  0  0  0  0  0
  -24.0219   17.4685   31.9579 N   0  0  0  0  0  0  0  0  0  0  0  0
  -23.8597   18.3664   30.8184 C   0  0  2  0  0  0  0  0  0  0  0  0
  -25.2144   18.9157   30.3080 C   0  0  0  0  0  0  0  0  0  0  0  0
  -26.0668   18.2348   29.7323 O   0  0  0  0  0  0  0  0  0  0  0  0
  -23.0807   17.6946   29.6658 C   0  0  0  0  0  0  0  0  0  0  0  0
  -23.9597   17.1420   28.5595 C   0  0  0  0  0  0  0  0  0  0  0  0
  -23.3962   16.5253   27.4346 C   0  0  0  0  0  0  0  0  0  0  0  0
  -25.3557   17.2732   28.6344 C   0  0  0  0  0  0  0  0  0  0  0  0
  -24.2069   16.1027   26.3827 C   0  0  0  0  0  0  0  0  0  0  0  0
  -26.1692   16.8253   27.5946 C   0  0  0  0  0  0  0  0  0  0  0  0
  -25.5815   16.2558   26.4730 C   0  0  0  0  0  0  0  0  0  0  0  0
  -26.3396   15.8154   25.4351 O   0  0  0  0  0  0  0  0  0  0  0  0
  -25.3480   20.2786   30.4137 N   0  0  0  0  0  0  0  0  0  0  0  0
  -26.5011   21.0635   29.9300 C   0  0  2  0  0  0  0  0  0  0  0  0
  -26.7362   20.9374   28.4033 C   0  0  0  0  0  0  0  0  0  0  0  0
  -25.8438   20.6943   27.5990 O   0  0  0  0  0  0  0  0  0  0  0  0
  -26.3192   22.5381   30.3248 C   0  0  0  0  0  0  0  0  0  0  0  0
  -25.0170   22.7111   30.8994 O   0  0  0  0  0  0  0  0  0  0  0  0
  -28.0013   21.3018   27.9991 N   0  0  0  0  0  0  0  0  0  0  0  0
  -28.4961   22.6757   27.8895 C   0  0  2  0  0  0  0  0  0  0  0  0
  -27.6080   23.7588   28.5393 C   0  0  0  0  0  0  0  0  0  0  0  0
  -27.4257   23.7715   29.7505 O   0  0  0  0  0  0  0  0  0  0  0  0
  -30.0017   22.8407   28.1626 C   0  0  0  0  0  0  0  0  0  0  0  0
  -30.7784   21.8160   27.3360 C   0  0  0  0  0  0  0  0  0  0  0  0
  -32.2767   21.8066   27.5779 C   0  0  0  0  0  0  0  0  0  0  0  0
  -32.8753   20.5416   27.1306 N   0  0  0  0  0  0  0  0  0  0  0  0
  -33.6779   20.4602   26.0377 C   0  0  0  0  0  0  0  0  0  0  0  0
  -34.5946   19.5680   25.8354 N   0  0  0  0  0  0  0  0  0  0  0  0
  -33.4203   21.4260   25.1411 N   0  0  0  0  0  0  0  0  0  0  0  0
  -28.9876   23.9311   25.6703 O   0  0  0  0  0  0  0  0  0  0  0  0
  -27.7978   24.0317   25.3677 C   0  0  0  0  0  0  0  0  0  0  0  0
  -26.7195   24.6740   26.3102 C   0  0  2  0  0  0  0  0  0  0  0  0
  -25.5560   23.6647   26.4488 C   0  0  0  0  0  0  0  0  0  0  0  0
  -27.2971   24.7865   27.6717 N   0  0  0  0  0  0  0  0  0  0  0  0
  -26.1114   25.9738   25.7242 C   0  0  0  0  0  0  0  0  0  0  0  0
  -27.0820   27.1148   25.4105 C   0  0  0  0  0  0  0  0  0  0  0  0
  -26.4853   28.2200   24.5389 C   0  0  0  0  0  0  0  0  0  0  0  0
  -26.1898   27.7941   23.1295 C   0  0  0  0  0  0  0  0  0  0  0  0
  -27.3596   23.5532   24.1415 N   0  0  0  0  0  0  0  0  0  0  0  0
  -27.3621   22.0870   24.0083 C   0  0  2  0  0  0  0  0  0  0  0  0
  -26.0915   21.4633   23.3820 C   0  0  0  0  0  0  0  0  0  0  0  0
  -25.7562   20.3173   23.7119 O   0  0  0  0  0  0  0  0  0  0  0  0
  -28.5699   21.4833   23.2442 C   0  0  0  0  0  0  0  0  0  0  0  0
  -28.2971   20.3078   22.3113 C   0  0  0  0  0  0  0  0  0  0  0  0
  -26.8373   19.8941   22.3292 C   0  0  0  0  0  0  0  0  0  0  0  0
  -26.2894   19.3296   23.2767 O   0  0  0  0  0  0  0  0  0  0  0  0
  -26.1721   20.0737   21.1543 N   0  0  0  0  0  0  0  0  0  0  0  0
  -25.4270   22.0017   22.3207 N   0  0  0  0  0  0  0  0  0  0  0  0
  -25.0554   23.4038   22.0734 C   0  0  2  0  0  0  0  0  0  0  0  0
  -26.0052   24.1662   21.1153 C   0  0  0  0  0  0  0  0  0  0  0  0
  -25.6910   25.1818   20.4999 O   0  0  0  0  0  0  0  0  0  0  0  0
  -23.6435   23.4850   21.4410 C   0  0  0  0  0  0  0  0  0  0  0  0
  -23.2727   22.3863   20.4241 C   0  0  1  0  0  0  0  0  0  0  0  0
  -23.6035   21.0122   21.0167 C   0  0  0  0  0  0  0  0  0  0  0  0
  -23.9885   22.5628   19.0872 C   0  0  0  0  0  0  0  0  0  0  0  0
  -27.3259   23.7757   21.1129 N   0  0  0  0  0  0  0  0  0  0  0  0
  -27.8523   23.3050   19.8112 C   0  0  2  0  0  0  0  0  0  0  0  0
  -29.3804   23.3219   19.9976 C   0  0  0  0  0  0  0  0  0  0  0  0
  -30.1309   22.3629   19.8492 O   0  0  0  0  0  0  0  0  0  0  0  0
  -27.3147   21.9180   19.4263 C   0  0  0  0  0  0  0  0  0  0  0  0
  -26.3850   21.2872   20.4817 C   0  0  1  0  0  0  0  0  0  0  0  0
  -25.4695   22.3236   21.1362 C   0  0  0  0  0  0  0  0  0  0  0  0
  -27.2242   20.5945   21.5569 C   0  0  0  0  0  0  0  0  0  0  0  0
  -32.2383   26.3292   18.5184 O   0  0  0  0  0  0  0  0  0  0  0  0
  -31.6042   25.9946   19.5124 C   0  0  0  0  0  0  0  0  0  0  0  0
  -30.0738   25.7019   19.5230 C   0  0  2  0  0  0  0  0  0  0  0  0
  -29.7015   25.4536   18.0447 C   0  0  0  0  0  0  0  0  0  0  0  0
  -29.9132   24.5169   20.4196 N   0  0  0  0  0  0  0  0  0  0  0  0
  -29.2388   26.8872   20.0563 C   0  0  0  0  0  0  0  0  0  0  0  0
  -29.4103   27.2006   21.5557 C   0  0  0  0  0  0  0  0  0  0  0  0
  -28.4561   28.2992   22.0511 C   0  0  0  0  0  0  0  0  0  0  0  0
  -27.0165   27.8573   22.0726 C   0  0  0  0  0  0  0  0  0  0  0  0
  -32.2032   25.8009   20.7563 N   0  0  0  0  0  0  0  0  0  0  0  0
  -32.0341   24.5191   21.4333 C   0  0  2  0  0  0  0  0  0  0  0  0
  -32.7678   24.6298   22.7883 C   0  0  0  0  0  0  0  0  0  0  0  0
  -33.9800   24.4484   22.9203 O   0  0  0  0  0  0  0  0  0  0  0  0
  -30.5572   24.1173   21.6001 C   0  0  0  0  0  0  0  0  0  0  0  0
  -30.1022   22.9137   20.8002 C   0  0  0  0  0  0  0  0  0  0  0  0
  -30.9958   22.2624   19.9371 C   0  0  0  0  0  0  0  0  0  0  0  0
  -28.7917   22.4288   20.9019 C   0  0  0  0  0  0  0  0  0  0  0  0
  -30.5893   21.1488   19.1973 C   0  0  0  0  0  0  0  0  0  0  0  0
  -28.3924   21.3039   20.1756 C   0  0  0  0  0  0  0  0  0  0  0  0
  -29.2907   20.6652   19.3237 C   0  0  0  0  0  0  0  0  0  0  0  0
  -31.9916   24.9700   23.8610 N   0  0  0  0  0  0  0  0  0  0  0  0
  -31.5747   14.6388   34.9305 H   0  0  0  0  0  0  0  0  0  0  0  0
  -34.1074   18.6620   25.9065 H   0  0  0  0  0  0  0  0  0  0  0  0
  1  2  2  0
  1  3  1  0
  4  1  1  0
  5  4  1  0
  6  5  1  0
  5  8  1  6
  6  7  2  0
 13  6  1  0
  8  9  1  0
  9 10  1  0
 10 11  1  0
 11 12  1  0
 14 13  1  0
 15 14  1  0
 14 17  1  6
 15 16  2  0
 22 15  1  0
 17 18  1  0
 18 19  1  0
 19 20  1  0
 20 21  1  0
 23 22  1  0
 24 23  1  0
 23 26  1  1
 24 25  2  0
 33 24  1  0
 26 27  1  0
 27 28  1  0
 28 29  1  0
 29 30  1  0
 30 31  1  0
 30 32  2  0
 34 33  1  0
 35 34  1  0
 34 37  1  6
 35 36  2  0
 45 35  1  0
 37 38  1  0
 38 39  2  0
 38 40  1  0
 39 41  1  0
 40 42  2  0
 41 43  2  0
 42 43  1  0
 43 44  1  0
 46 45  1  0
 47 46  1  0
 46 49  1  6
 47 48  2  0
 51 47  1  0
 49 50  1  0
 52 51  1  0
 53 52  1  0
 52 55  1  1
 53 54  2  0
 66 53  1  0
 55 56  1  0
 56 57  1  0
 57 58  1  0
 58 59  1  0
 59 60  2  0
 59 61  1  0
 63 62  2  0
 63 64  1  0
 71 63  1  0
 64 65  1  1
 64 66  1  0
 64 67  1  0
 67 68  1  0
 68 69  1  0
 69 70  1  0
 70104  2  0
 72 71  1  0
 73 72  1  0
 72 75  1  6
 73 74  2  0
 80 73  1  0
 75 76  1  0
 76 77  1  0
 77 78  2  0
 77 79  1  0
 81 80  1  0
 82 81  1  0
 81 84  1  6
 82 83  2  0
 88 82  1  0
 84 85  1  0
 85 86  1  1
 85 87  1  0
 89 88  1  0
 90 89  1  0
 89 92  1  1
 90 91  2  0
100 90  1  0
 92 93  1  0
 93 94  1  1
 93 95  1  0
 97 96  2  0
 98 97  1  0
 97105  1  0
 98 99  1  6
 98100  1  0
 98101  1  0
101102  1  0
102103  1  0
103104  1  0
105106  1  0
106107  1  0
106109  1  1
107108  2  0
107116  1  0
109110  1  0
110111  2  0
110112  1  0
111113  1  0
112114  2  0
113115  2  0
114115  1  0
 32117  1  0
 60118  1  0
M  CHG  2  12   1  21   1
M  END
$$$$
