
     RDKit          3D

 12 12  0  0  0  0  0  0  0  0999 V2000
    5.7029   -1.6435   40.9232 C   0  0  2  0  0  0  0  0  0  0  0  0
    5.7303   -1.4672   39.4449 C   0  0  2  0  0  0  0  0  0  0  0  0
    6.5006   -2.5393   38.7145 C   0  0  1  0  0  0  0  0  0  0  0  0
    6.0254   -3.8737   39.3109 C   0  0  1  0  0  0  0  0  0  0  0  0
    6.4341   -3.7508   40.7853 C   0  0  2  0  0  0  0  0  0  0  0  0
    6.5728   -5.0821   41.4382 C   0  0  0  0  0  0  0  0  0  0  0  0
    6.8798   -1.1593   41.4560 O   0  0  0  0  0  0  0  0  0  0  0  0
    6.3993   -0.2524   39.1772 O   0  0  0  0  0  0  0  0  0  0  0  0
    6.2621   -2.4888   37.3658 O   0  0  0  0  0  0  0  0  0  0  0  0
    4.6293   -3.8474   39.1986 O   0  0  0  0  0  0  0  0  0  0  0  0
    5.4907   -2.9234   41.3582 O   0  0  0  0  0  0  0  0  0  0  0  0
    6.6239   -0.4131   42.6231 C   0  0  0  0  0  0  0  0  0  0  0  0
  1  2  1  0
  1  7  1  6
  1 11  1  0
  2  3  1  0
  2  8  1  1
  3  4  1  0
  3  9  1  6
  4  5  1  0
  4 10  1  1
  5  6  1  1
  5 11  1  0
  7 12  1  0
M  END
$$$$
