
     RDKit          3D

 12 12  0  0  0  0  0  0  0  0999 V2000
    7.0032    0.4323   42.1381 C   0  0  2  0  0  0  0  0  0  0  0  0
    7.4580    1.7477   42.6674 C   0  0  2  0  0  0  0  0  0  0  0  0
    7.3646    1.8692   44.1683 C   0  0  1  0  0  0  0  0  0  0  0  0
    7.9720    0.5740   44.7301 C   0  0  1  0  0  0  0  0  0  0  0  0
    7.0432   -0.5092   44.1645 C   0  0  2  0  0  0  0  0  0  0  0  0
    7.0875   -1.7592   44.9729 C   0  0  0  0  0  0  0  0  0  0  0  0
    5.6262    0.4341   42.0511 O   0  0  0  0  0  0  0  0  0  0  0  0
    6.5972    2.7354   42.1397 O   0  0  0  0  0  0  0  0  0  0  0  0
    8.0455    2.9698   44.6194 O   0  0  0  0  0  0  0  0  0  0  0  0
    9.2369    0.4762   44.1362 O   0  0  0  0  0  0  0  0  0  0  0  0
    7.4200   -0.6617   42.8463 O   0  0  0  0  0  0  0  0  0  0  0  0
    5.2095   -0.0560   40.7979 C   0  0  0  0  0  0  0  0  0  0  0  0
  1  2  1  0
  1  7  1  1
  1 11  1  0
  2  3  1  0
  2  8  1  6
  3  4  1  0
  3  9  1  1
  4  5  1  0
  4 10  1  6
  5  6  1  1
  5 11  1  0
  7 12  1  0
M  END
$$$$
