
     RDKit          3D

 12 12  0  0  0  0  0  0  0  0999 V2000
    6.6183    0.4239   42.8549 C   0  0  2  0  0  0  0  0  0  0  0  0
    6.0790    1.0345   41.6084 C   0  0  2  0  0  0  0  0  0  0  0  0
    6.2936    0.1954   40.3730 C   0  0  1  0  0  0  0  0  0  0  0  0
    5.8763   -1.2320   40.7610 C   0  0  1  0  0  0  0  0  0  0  0  0
    6.8579   -1.5773   41.8894 C   0  0  2  0  0  0  0  0  0  0  0  0
    7.0159   -3.0483   42.0602 C   0  0  0  0  0  0  0  0  0  0  0  0
    7.9743    0.6687   42.9255 O   0  0  0  0  0  0  0  0  0  0  0  0
    6.7821    2.2400   41.3906 O   0  0  0  0  0  0  0  0  0  0  0  0
    5.5455    0.6599   39.3228 O   0  0  0  0  0  0  0  0  0  0  0  0
    4.5802   -1.1062   41.2772 O   0  0  0  0  0  0  0  0  0  0  0  0
    6.3822   -0.9157   43.0025 O   0  0  0  0  0  0  0  0  0  0  0  0
    8.4550    0.4163   44.2253 C   0  0  0  0  0  0  0  0  0  0  0  0
  1  2  1  0
  1  7  1  6
  1 11  1  0
  2  3  1  0
  2  8  1  6
  3  4  1  0
  3  9  1  6
  4  5  1  0
  4 10  1  1
  5  6  1  1
  5 11  1  0
  7 12  1  0
M  END
$$$$
