
     RDKit          3D

 12 12  0  0  0  0  0  0  0  0999 V2000
    6.2221    1.4051   41.6069 C   0  0  2  0  0  0  0  0  0  0  0  0
    7.1296    2.1702   42.5060 C   0  0  2  0  0  0  0  0  0  0  0  0
    7.5579    1.4085   43.7359 C   0  0  1  0  0  0  0  0  0  0  0  0
    7.9789    0.0165   43.2387 C   0  0  1  0  0  0  0  0  0  0  0  0
    6.6827   -0.5304   42.6247 C   0  0  2  0  0  0  0  0  0  0  0  0
    6.6792   -2.0185   42.5641 C   0  0  0  0  0  0  0  0  0  0  0  0
    4.9352    1.4780   42.0988 O   0  0  0  0  0  0  0  0  0  0  0  0
    6.4130    3.2949   42.9710 O   0  0  0  0  0  0  0  0  0  0  0  0
    8.5947    2.0392   44.3729 O   0  0  0  0  0  0  0  0  0  0  0  0
    8.9203    0.2582   42.2300 O   0  0  0  0  0  0  0  0  0  0  0  0
    6.5650    0.0965   41.4015 O   0  0  0  0  0  0  0  0  0  0  0  0
    4.0232    0.9196   41.1818 C   0  0  0  0  0  0  0  0  0  0  0  0
  1  2  1  0
  1  7  1  1
  1 11  1  0
  2  3  1  0
  2  8  1  1
  3  4  1  0
  3  9  1  6
  4  5  1  0
  4 10  1  6
  5  6  1  6
  5 11  1  0
  7 12  1  0
M  END
$$$$
