
     RDKit          3D

 12 12  0  0  0  0  0  0  0  0999 V2000
    7.1672    1.7290   45.1151 C   0  0  2  0  0  0  0  0  0  0  0  0
    7.4185    2.5460   43.8957 C   0  0  2  0  0  0  0  0  0  0  0  0
    7.8521    1.7392   42.6968 C   0  0  1  0  0  0  0  0  0  0  0  0
    6.8856    0.5464   42.6252 C   0  0  1  0  0  0  0  0  0  0  0  0
    7.1441   -0.1796   43.9527 C   0  0  2  0  0  0  0  0  0  0  0  0
    6.7450   -1.6131   43.8911 C   0  0  0  0  0  0  0  0  0  0  0  0
    8.3714    1.4605   45.7327 O   0  0  0  0  0  0  0  0  0  0  0  0
    8.4881    3.4211   44.1871 O   0  0  0  0  0  0  0  0  0  0  0  0
    7.7976    2.4879   41.5501 O   0  0  0  0  0  0  0  0  0  0  0  0
    5.6046    1.1133   42.6325 O   0  0  0  0  0  0  0  0  0  0  0  0
    6.4829    0.5621   44.9095 O   0  0  0  0  0  0  0  0  0  0  0  0
    8.1843    1.2601   47.1144 C   0  0  0  0  0  0  0  0  0  0  0  0
  1  2  1  0
  1  7  1  6
  1 11  1  0
  2  3  1  0
  2  8  1  1
  3  4  1  0
  3  9  1  6
  4  5  1  0
  4 10  1  1
  5  6  1  6
  5 11  1  0
  7 12  1  0
M  END
$$$$
