
     RDKit          3D

 12 12  0  0  0  0  0  0  0  0999 V2000
    7.0256    0.8127   43.1641 C   0  0  2  0  0  0  0  0  0  0  0  0
    7.8252    2.0677   43.1104 C   0  0  2  0  0  0  0  0  0  0  0  0
    7.9745    2.7562   44.4445 C   0  0  1  0  0  0  0  0  0  0  0  0
    8.3601    1.6528   45.4423 C   0  0  1  0  0  0  0  0  0  0  0  0
    7.1479    0.7125   45.3933 C   0  0  2  0  0  0  0  0  0  0  0  0
    7.0344   -0.1156   46.6259 C   0  0  0  0  0  0  0  0  0  0  0  0
    5.6837    1.1332   43.1475 O   0  0  0  0  0  0  0  0  0  0  0  0
    7.1331    2.9737   42.2767 O   0  0  0  0  0  0  0  0  0  0  0  0
    8.9349    3.7327   44.3932 O   0  0  0  0  0  0  0  0  0  0  0  0
    9.4763    1.0228   44.8770 O   0  0  0  0  0  0  0  0  0  0  0  0
    7.2916   -0.0082   44.2259 O   0  0  0  0  0  0  0  0  0  0  0  0
    4.8964   -0.0349   43.1559 C   0  0  0  0  0  0  0  0  0  0  0  0
  1  2  1  0
  1  7  1  1
  1 11  1  0
  2  3  1  0
  2  8  1  6
  3  4  1  0
  3  9  1  6
  4  5  1  0
  4 10  1  6
  5  6  1  1
  5 11  1  0
  7 12  1  0
M  END
$$$$
