
     RDKit          3D

 12 12  0  0  0  0  0  0  0  0999 V2000
    7.0798    0.4805   42.5581 C   0  0  2  0  0  0  0  0  0  0  0  0
    6.2679    0.8841   41.3768 C   0  0  2  0  0  0  0  0  0  0  0  0
    6.1715   -0.1770   40.3086 C   0  0  1  0  0  0  0  0  0  0  0  0
    5.8395   -1.4833   41.0472 C   0  0  1  0  0  0  0  0  0  0  0  0
    7.0564   -1.6735   41.9632 C   0  0  2  0  0  0  0  0  0  0  0  0
    7.2309   -3.0955   42.3701 C   0  0  0  0  0  0  0  0  0  0  0  0
    8.4168    0.6549   42.2658 O   0  0  0  0  0  0  0  0  0  0  0  0
    6.9150    1.9869   40.7769 O   0  0  0  0  0  0  0  0  0  0  0  0
    5.2015    0.1310   39.3907 O   0  0  0  0  0  0  0  0  0  0  0  0
    4.7050   -1.1905   41.8150 O   0  0  0  0  0  0  0  0  0  0  0  0
    6.8677   -0.7939   43.0089 O   0  0  0  0  0  0  0  0  0  0  0  0
    9.0839    1.2628   43.3474 C   0  0  0  0  0  0  0  0  0  0  0  0
  1  2  1  0
  1  7  1  6
  1 11  1  0
  2  3  1  0
  2  8  1  6
  3  4  1  0
  3  9  1  6
  4  5  1  0
  4 10  1  1
  5  6  1  1
  5 11  1  0
  7 12  1  0
M  END
$$$$
