
     RDKit          3D

 12 12  0  0  0  0  0  0  0  0999 V2000
    7.0929    4.2099   48.8628 C   0  0  2  0  0  0  0  0  0  0  0  0
    8.3989    4.1139   48.1540 C   0  0  2  0  0  0  0  0  0  0  0  0
    9.4534    3.3480   48.9141 C   0  0  1  0  0  0  0  0  0  0  0  0
    8.7628    2.0675   49.4094 C   0  0  1  0  0  0  0  0  0  0  0  0
    7.6534    2.6112   50.3203 C   0  0  2  0  0  0  0  0  0  0  0  0
    7.2034    1.5990   51.3158 C   0  0  0  0  0  0  0  0  0  0  0  0
    7.1596    5.2269   49.7928 O   0  0  0  0  0  0  0  0  0  0  0  0
    8.8972    5.4273   48.0077 O   0  0  0  0  0  0  0  0  0  0  0  0
   10.5250    3.0523   48.1125 O   0  0  0  0  0  0  0  0  0  0  0  0
    8.2000    1.4896   48.2642 O   0  0  0  0  0  0  0  0  0  0  0  0
    6.6664    3.0586   49.4668 O   0  0  0  0  0  0  0  0  0  0  0  0
    5.9876    5.2600   50.5738 C   0  0  0  0  0  0  0  0  0  0  0  0
  1  2  1  0
  1  7  1  1
  1 11  1  0
  2  3  1  0
  2  8  1  1
  3  4  1  0
  3  9  1  6
  4  5  1  0
  4 10  1  6
  5  6  1  1
  5 11  1  0
  7 12  1  0
M  END
$$$$
