
     RDKit          3D

 12 12  0  0  0  0  0  0  0  0999 V2000
    6.8695   -1.0185   39.9326 C   0  0  2  0  0  0  0  0  0  0  0  0
    6.4802    0.3003   40.5039 C   0  0  2  0  0  0  0  0  0  0  0  0
    5.6573    0.2026   41.7647 C   0  0  1  0  0  0  0  0  0  0  0  0
    6.3749   -0.8269   42.6521 C   0  0  1  0  0  0  0  0  0  0  0  0
    6.3146   -2.1054   41.8048 C   0  0  2  0  0  0  0  0  0  0  0  0
    6.4509   -3.3328   42.6372 C   0  0  0  0  0  0  0  0  0  0  0  0
    5.8127   -1.5222   39.2025 O   0  0  0  0  0  0  0  0  0  0  0  0
    5.6628    0.9481   39.5515 O   0  0  0  0  0  0  0  0  0  0  0  0
    5.5671    1.4175   42.3926 O   0  0  0  0  0  0  0  0  0  0  0  0
    7.6976   -0.3743   42.7403 O   0  0  0  0  0  0  0  0  0  0  0  0
    7.2896   -1.9513   40.8412 O   0  0  0  0  0  0  0  0  0  0  0  0
    6.2277   -2.6220   38.4263 C   0  0  0  0  0  0  0  0  0  0  0  0
  1  2  1  0
  1  7  1  1
  1 11  1  0
  2  3  1  0
  2  8  1  6
  3  4  1  0
  3  9  1  1
  4  5  1  0
  4 10  1  6
  5  6  1  1
  5 11  1  0
  7 12  1  0
M  END
$$$$
