
     RDKit          3D

 12 12  0  0  0  0  0  0  0  0999 V2000
    6.6564   -0.2460   40.6535 C   0  0  2  0  0  0  0  0  0  0  0  0
    6.7780    1.0217   41.4252 C   0  0  2  0  0  0  0  0  0  0  0  0
    6.3697    0.8992   42.8724 C   0  0  1  0  0  0  0  0  0  0  0  0
    7.0548   -0.3745   43.3925 C   0  0  1  0  0  0  0  0  0  0  0  0
    6.4447   -1.4722   42.5099 C   0  0  2  0  0  0  0  0  0  0  0  0
    6.5292   -2.8139   43.1508 C   0  0  0  0  0  0  0  0  0  0  0  0
    5.3425   -0.4135   40.2675 O   0  0  0  0  0  0  0  0  0  0  0  0
    5.8910    1.9554   40.8452 O   0  0  0  0  0  0  0  0  0  0  0  0
    6.7601    1.9984   43.5919 O   0  0  0  0  0  0  0  0  0  0  0  0
    8.4113   -0.2119   43.0832 O   0  0  0  0  0  0  0  0  0  0  0  0
    7.0957   -1.3703   41.2980 O   0  0  0  0  0  0  0  0  0  0  0  0
    5.2735   -1.0371   39.0062 C   0  0  0  0  0  0  0  0  0  0  0  0
  1  2  1  0
  1  7  1  1
  1 11  1  0
  2  3  1  0
  2  8  1  6
  3  4  1  0
  3  9  1  1
  4  5  1  0
  4 10  1  6
  5  6  1  1
  5 11  1  0
  7 12  1  0
M  END
$$$$
