
     RDKit          3D

 12 12  0  0  0  0  0  0  0  0999 V2000
    5.9617   -3.4365   36.6286 C   0  0  2  0  0  0  0  0  0  0  0  0
    6.0292   -2.1245   37.3297 C   0  0  2  0  0  0  0  0  0  0  0  0
    5.5504   -2.1691   38.7598 C   0  0  1  0  0  0  0  0  0  0  0  0
    6.2239   -3.4001   39.3867 C   0  0  1  0  0  0  0  0  0  0  0  0
    5.6720   -4.5560   38.5410 C   0  0  2  0  0  0  0  0  0  0  0  0
    5.7404   -5.8570   39.2627 C   0  0  0  0  0  0  0  0  0  0  0  0
    4.6708   -3.6456   36.1888 O   0  0  0  0  0  0  0  0  0  0  0  0
    5.1612   -1.2393   36.6530 O   0  0  0  0  0  0  0  0  0  0  0  0
    5.8910   -1.0243   39.4320 O   0  0  0  0  0  0  0  0  0  0  0  0
    7.5921   -3.2355   39.1357 O   0  0  0  0  0  0  0  0  0  0  0  0
    6.3816   -4.5148   37.3587 O   0  0  0  0  0  0  0  0  0  0  0  0
    4.6630   -3.9793   34.8202 C   0  0  0  0  0  0  0  0  0  0  0  0
  1  2  1  0
  1  7  1  1
  1 11  1  0
  2  3  1  0
  2  8  1  6
  3  4  1  0
  3  9  1  1
  4  5  1  0
  4 10  1  6
  5  6  1  1
  5 11  1  0
  7 12  1  0
M  END
$$$$
