
     RDKit          3D

 12 12  0  0  0  0  0  0  0  0999 V2000
    5.8605   -2.4552   37.7331 C   0  0  2  0  0  0  0  0  0  0  0  0
    5.9638   -1.2952   38.6609 C   0  0  2  0  0  0  0  0  0  0  0  0
    5.5970   -1.6180   40.0883 C   0  0  1  0  0  0  0  0  0  0  0  0
    6.3333   -2.9251   40.4226 C   0  0  1  0  0  0  0  0  0  0  0  0
    5.7338   -3.9184   39.4176 C   0  0  2  0  0  0  0  0  0  0  0  0
    5.8750   -5.3285   39.8757 C   0  0  0  0  0  0  0  0  0  0  0  0
    4.5426   -2.6146   37.3572 O   0  0  0  0  0  0  0  0  0  0  0  0
    5.0345   -0.3239   38.2273 O   0  0  0  0  0  0  0  0  0  0  0  0
    5.9728   -0.6093   40.9366 O   0  0  0  0  0  0  0  0  0  0  0  0
    7.6758   -2.6788   40.1077 O   0  0  0  0  0  0  0  0  0  0  0  0
    6.3497   -3.6385   38.2155 O   0  0  0  0  0  0  0  0  0  0  0  0
    4.4515   -3.4157   36.2021 C   0  0  0  0  0  0  0  0  0  0  0  0
  1  2  1  0
  1  7  1  1
  1 11  1  0
  2  3  1  0
  2  8  1  6
  3  4  1  0
  3  9  1  1
  4  5  1  0
  4 10  1  6
  5  6  1  1
  5 11  1  0
  7 12  1  0
M  END
$$$$
