
     RDKit          3D

 12 12  0  0  0  0  0  0  0  0999 V2000
    5.8749   -2.9698   36.2986 C   0  0  2  0  0  0  0  0  0  0  0  0
    5.7583   -1.7800   37.1864 C   0  0  2  0  0  0  0  0  0  0  0  0
    5.3983   -2.1135   38.6131 C   0  0  1  0  0  0  0  0  0  0  0  0
    6.3225   -3.2734   39.0161 C   0  0  1  0  0  0  0  0  0  0  0  0
    5.9257   -4.3812   38.0306 C   0  0  2  0  0  0  0  0  0  0  0  0
    6.2752   -5.7350   38.5435 C   0  0  0  0  0  0  0  0  0  0  0  0
    4.6137   -3.3515   35.8900 O   0  0  0  0  0  0  0  0  0  0  0  0
    4.7010   -0.9856   36.6906 O   0  0  0  0  0  0  0  0  0  0  0  0
    5.5774   -1.0314   39.4349 O   0  0  0  0  0  0  0  0  0  0  0  0
    7.6184   -2.8234   38.7323 O   0  0  0  0  0  0  0  0  0  0  0  0
    6.5305   -4.0429   36.8378 O   0  0  0  0  0  0  0  0  0  0  0  0
    4.6898   -4.4537   35.0160 C   0  0  0  0  0  0  0  0  0  0  0  0
  1  2  1  0
  1  7  1  1
  1 11  1  0
  2  3  1  0
  2  8  1  6
  3  4  1  0
  3  9  1  1
  4  5  1  0
  4 10  1  6
  5  6  1  1
  5 11  1  0
  7 12  1  0
M  END
$$$$
