
     RDKit          3D

 12 12  0  0  0  0  0  0  0  0999 V2000
    7.4398    3.8750   49.4607 C   0  0  2  0  0  0  0  0  0  0  0  0
    7.9249    3.7401   48.0593 C   0  0  2  0  0  0  0  0  0  0  0  0
    8.6270    2.4349   47.7774 C   0  0  1  0  0  0  0  0  0  0  0  0
    7.7306    1.3408   48.3787 C   0  0  1  0  0  0  0  0  0  0  0  0
    7.7176    1.6960   49.8719 C   0  0  2  0  0  0  0  0  0  0  0  0
    7.3794    0.5205   50.7216 C   0  0  0  0  0  0  0  0  0  0  0  0
    8.4901    4.2676   50.2645 O   0  0  0  0  0  0  0  0  0  0  0  0
    8.8833    4.7552   47.8451 O   0  0  0  0  0  0  0  0  0  0  0  0
    8.7998    2.2463   46.4309 O   0  0  0  0  0  0  0  0  0  0  0  0
    6.4632    1.5615   47.8243 O   0  0  0  0  0  0  0  0  0  0  0  0
    6.8469    2.7597   49.9869 O   0  0  0  0  0  0  0  0  0  0  0  0
    8.0111    4.8319   51.4631 C   0  0  0  0  0  0  0  0  0  0  0  0
  1  2  1  0
  1  7  1  1
  1 11  1  0
  2  3  1  0
  2  8  1  1
  3  4  1  0
  3  9  1  6
  4  5  1  0
  4 10  1  6
  5  6  1  1
  5 11  1  0
  7 12  1  0
M  END
$$$$
