
     RDKit          3D

 12 12  0  0  0  0  0  0  0  0999 V2000
    4.8976   -3.3250   36.8255 C   0  0  2  0  0  0  0  0  0  0  0  0
    5.4347   -2.0303   37.3280 C   0  0  2  0  0  0  0  0  0  0  0  0
    6.0086   -2.1049   38.7213 C   0  0  1  0  0  0  0  0  0  0  0  0
    6.9026   -3.3550   38.7376 C   0  0  1  0  0  0  0  0  0  0  0  0
    5.9079   -4.4869   38.4452 C   0  0  2  0  0  0  0  0  0  0  0  0
    6.4054   -5.8048   38.9286 C   0  0  0  0  0  0  0  0  0  0  0  0
    3.6300   -3.5147   37.3362 O   0  0  0  0  0  0  0  0  0  0  0  0
    4.3541   -1.1234   37.3970 O   0  0  0  0  0  0  0  0  0  0  0  0
    6.7298   -0.9787   39.0209 O   0  0  0  0  0  0  0  0  0  0  0  0
    7.7752   -3.1942   37.6537 O   0  0  0  0  0  0  0  0  0  0  0  0
    5.6706   -4.4231   37.0878 O   0  0  0  0  0  0  0  0  0  0  0  0
    2.9993   -4.6028   36.7017 C   0  0  0  0  0  0  0  0  0  0  0  0
  1  2  1  0
  1  7  1  1
  1 11  1  0
  2  3  1  0
  2  8  1  1
  3  4  1  0
  3  9  1  6
  4  5  1  0
  4 10  1  6
  5  6  1  6
  5 11  1  0
  7 12  1  0
M  END
$$$$
