
     RDKit          3D

 12 12  0  0  0  0  0  0  0  0999 V2000
    5.4037   -2.6927   39.2468 C   0  0  2  0  0  0  0  0  0  0  0  0
    6.0894   -2.4515   37.9473 C   0  0  2  0  0  0  0  0  0  0  0  0
    7.4663   -3.0619   37.8589 C   0  0  1  0  0  0  0  0  0  0  0  0
    7.3200   -4.4987   38.3846 C   0  0  1  0  0  0  0  0  0  0  0  0
    6.8588   -4.2845   39.8328 C   0  0  2  0  0  0  0  0  0  0  0  0
    7.1600   -5.4618   40.6937 C   0  0  0  0  0  0  0  0  0  0  0  0
    5.8656   -1.7824   40.1750 O   0  0  0  0  0  0  0  0  0  0  0  0
    6.2697   -1.0567   37.8178 O   0  0  0  0  0  0  0  0  0  0  0  0
    7.9301   -3.0532   36.5692 O   0  0  0  0  0  0  0  0  0  0  0  0
    6.2812   -5.0595   37.6305 O   0  0  0  0  0  0  0  0  0  0  0  0
    5.5205   -3.9613   39.7460 O   0  0  0  0  0  0  0  0  0  0  0  0
    5.1559   -1.9073   41.3854 C   0  0  0  0  0  0  0  0  0  0  0  0
  1  2  1  0
  1  7  1  1
  1 11  1  0
  2  3  1  0
  2  8  1  1
  3  4  1  0
  3  9  1  6
  4  5  1  0
  4 10  1  6
  5  6  1  1
  5 11  1  0
  7 12  1  0
M  END
$$$$
