
     RDKit          3D

 20 20  0  0  0  0  0  0  0  0999 V2000
    6.6271   15.9435  -26.3965 C   0  0  2  0  0  0  0  0  0  0  0  0
    6.1843   14.5210  -26.1988 C   0  0  0  0  0  0  0  0  0  0  0  0
    6.3360   13.6479  -27.3863 C   0  0  0  0  0  0  0  0  0  0  0  0
    7.7073   13.6377  -27.9723 C   0  0  0  0  0  0  0  0  0  0  0  0
    8.1122   15.0631  -28.2452 C   0  0  2  0  0  0  0  0  0  0  0  0
    7.9565   15.9566  -27.0549 C   0  0  1  0  0  0  0  0  0  0  0  0
    8.5242   17.2977  -27.2988 C   0  0  0  0  0  0  0  0  0  0  0  0
    9.8007   17.5874  -27.2754 C   0  0  0  0  0  0  0  0  0  0  0  0
   10.3045   18.9438  -27.4609 C   0  0  0  0  0  0  0  0  0  0  0  0
   11.5371   19.2491  -27.1163 C   0  0  0  0  0  0  0  0  0  0  0  0
   12.2260   20.4803  -27.4052 C   0  0  0  0  0  0  0  0  0  0  0  0
   13.1493   20.9348  -26.5800 C   0  0  0  0  0  0  0  0  0  0  0  0
   14.4913   21.2944  -27.0360 C   0  0  0  0  0  0  0  0  0  0  0  0
   15.5444   21.0381  -26.3096 C   0  0  0  0  0  0  0  0  0  0  0  0
   16.8989   21.4937  -26.6593 C   0  0  0  0  0  0  0  0  0  0  0  0
    6.8275   16.5037  -24.9743 C   0  0  0  0  0  0  0  0  0  0  0  0
    5.5465   16.7386  -27.0471 C   0  0  0  0  0  0  0  0  0  0  0  0
    7.4073   15.5318  -29.4902 C   0  0  0  0  0  0  0  0  0  0  0  0
    9.3374   19.9139  -28.0462 C   0  0  0  0  0  0  0  0  0  0  0  0
   14.6088   21.9653  -28.3624 C   0  0  0  0  0  0  0  0  0  0  0  0
  1  2  1  0
  1  6  1  0
  1 16  1  1
  1 17  1  0
  2  3  1  0
  3  4  1  0
  4  5  1  0
  5  6  1  0
  5 18  1  6
  6  7  1  6
  7  8  2  0
  8  9  1  0
  9 10  2  0
  9 19  1  0
 10 11  1  0
 11 12  2  0
 12 13  1  0
 13 14  2  0
 13 20  1  0
 14 15  1  0
M  END
$$$$
