
     RDKit          3D

 20 20  0  0  0  0  0  0  0  0999 V2000
   10.5377   19.8097  -27.7794 C   0  0  2  0  0  0  0  0  0  0  0  0
    9.4214   18.9614  -27.2382 C   0  0  0  0  0  0  0  0  0  0  0  0
    9.8086   17.5797  -26.8686 C   0  0  0  0  0  0  0  0  0  0  0  0
   10.9638   17.4939  -25.9295 C   0  0  0  0  0  0  0  0  0  0  0  0
   12.1073   18.2785  -26.5185 C   0  0  2  0  0  0  0  0  0  0  0  0
   11.7267   19.6739  -26.9025 C   0  0  1  0  0  0  0  0  0  0  0  0
   12.9020   20.4700  -27.3089 C   0  0  0  0  0  0  0  0  0  0  0  0
   13.8995   20.7895  -26.5235 C   0  0  0  0  0  0  0  0  0  0  0  0
   15.0855   21.4913  -27.0017 C   0  0  0  0  0  0  0  0  0  0  0  0
   16.0499   21.8143  -26.1669 C   0  0  0  0  0  0  0  0  0  0  0  0
   17.3350   22.3627  -26.5155 C   0  0  0  0  0  0  0  0  0  0  0  0
   18.1835   22.7202  -25.5708 C   0  0  0  0  0  0  0  0  0  0  0  0
   19.5258   23.2134  -25.8766 C   0  0  0  0  0  0  0  0  0  0  0  0
   20.5277   22.9932  -25.0705 C   0  0  0  0  0  0  0  0  0  0  0  0
   21.6983   23.8791  -24.9742 C   0  0  0  0  0  0  0  0  0  0  0  0
   10.0428   21.2630  -27.6387 C   0  0  0  0  0  0  0  0  0  0  0  0
   10.7388   19.5396  -29.2319 C   0  0  0  0  0  0  0  0  0  0  0  0
   12.7321   17.4628  -27.6189 C   0  0  0  0  0  0  0  0  0  0  0  0
   15.1046   21.8018  -28.4585 C   0  0  0  0  0  0  0  0  0  0  0  0
   19.7039   23.9774  -27.1446 C   0  0  0  0  0  0  0  0  0  0  0  0
  1  2  1  0
  1  6  1  0
  1 16  1  6
  1 17  1  0
  2  3  1  0
  3  4  1  0
  4  5  1  0
  5  6  1  0
  5 18  1  6
  6  7  1  6
  7  8  2  0
  8  9  1  0
  9 10  2  0
  9 19  1  0
 10 11  1  0
 11 12  2  0
 12 13  1  0
 13 14  2  0
 13 20  1  0
 14 15  1  0
M  END
$$$$
