
     RDKit          3D

 20 20  0  0  0  0  0  0  0  0999 V2000
   15.4255   23.7116  -21.8121 C   0  0  2  0  0  0  0  0  0  0  0  0
   14.8765   24.7893  -20.9200 C   0  0  0  0  0  0  0  0  0  0  0  0
   15.4363   26.1409  -21.1546 C   0  0  0  0  0  0  0  0  0  0  0  0
   15.3471   26.6080  -22.5680 C   0  0  0  0  0  0  0  0  0  0  0  0
   15.9743   25.5596  -23.4498 C   0  0  2  0  0  0  0  0  0  0  0  0
   15.4220   24.1884  -23.2170 C   0  0  1  0  0  0  0  0  0  0  0  0
   15.9247   23.2193  -24.2112 C   0  0  0  0  0  0  0  0  0  0  0  0
   15.5070   23.1294  -25.4487 C   0  0  0  0  0  0  0  0  0  0  0  0
   16.1242   22.2395  -26.4260 C   0  0  0  0  0  0  0  0  0  0  0  0
   15.3797   21.4567  -27.1771 C   0  0  0  0  0  0  0  0  0  0  0  0
   14.4982   20.4153  -26.7164 C   0  0  0  0  0  0  0  0  0  0  0  0
   13.9074   19.6136  -27.5814 C   0  0  0  0  0  0  0  0  0  0  0  0
   12.8938   18.6412  -27.1745 C   0  0  0  0  0  0  0  0  0  0  0  0
   12.2637   17.9120  -28.0539 C   0  0  0  0  0  0  0  0  0  0  0  0
   11.0206   18.3372  -28.7160 C   0  0  0  0  0  0  0  0  0  0  0  0
   14.4030   22.5607  -21.7285 C   0  0  0  0  0  0  0  0  0  0  0  0
   16.7215   23.2042  -21.2773 C   0  0  0  0  0  0  0  0  0  0  0  0
   17.4715   25.6710  -23.3365 C   0  0  0  0  0  0  0  0  0  0  0  0
   17.6115   22.2899  -26.4916 C   0  0  0  0  0  0  0  0  0  0  0  0
   12.6089   18.5163  -25.7162 C   0  0  0  0  0  0  0  0  0  0  0  0
  1  2  1  0
  1  6  1  0
  1 16  1  6
  1 17  1  0
  2  3  1  0
  3  4  1  0
  4  5  1  0
  5  6  1  0
  5 18  1  1
  6  7  1  6
  7  8  2  0
  8  9  1  0
  9 10  2  0
  9 19  1  0
 10 11  1  0
 11 12  2  0
 12 13  1  0
 13 14  2  0
 13 20  1  0
 14 15  1  0
M  END
$$$$
