
     RDKit          3D

 20 20  0  0  0  0  0  0  0  0999 V2000
   20.1451   23.4827  -26.7844 C   0  0  2  0  0  0  0  0  0  0  0  0
   21.5450   23.5542  -27.3262 C   0  0  0  0  0  0  0  0  0  0  0  0
   21.7076   23.0452  -28.7082 C   0  0  0  0  0  0  0  0  0  0  0  0
   20.7845   23.6614  -29.7043 C   0  0  0  0  0  0  0  0  0  0  0  0
   19.3749   23.5123  -29.1936 C   0  0  2  0  0  0  0  0  0  0  0  0
   19.1997   24.0164  -27.7956 C   0  0  1  0  0  0  0  0  0  0  0  0
   17.7802   24.0208  -27.3888 C   0  0  0  0  0  0  0  0  0  0  0  0
   16.9288   23.0554  -27.6271 C   0  0  0  0  0  0  0  0  0  0  0  0
   15.6453   22.9496  -26.9420 C   0  0  0  0  0  0  0  0  0  0  0  0
   14.8609   21.9146  -27.1536 C   0  0  0  0  0  0  0  0  0  0  0  0
   13.5646   21.6899  -26.5679 C   0  0  0  0  0  0  0  0  0  0  0  0
   12.8598   20.6260  -26.9017 C   0  0  0  0  0  0  0  0  0  0  0  0
   11.7835   20.1093  -26.0572 C   0  0  0  0  0  0  0  0  0  0  0  0
   11.2946   18.9136  -26.2398 C   0  0  0  0  0  0  0  0  0  0  0  0
   10.4379   18.2312  -25.2576 C   0  0  0  0  0  0  0  0  0  0  0  0
   20.1243   24.4613  -25.5933 C   0  0  0  0  0  0  0  0  0  0  0  0
   19.8622   22.1185  -26.2532 C   0  0  0  0  0  0  0  0  0  0  0  0
   18.9312   22.0913  -29.4187 C   0  0  0  0  0  0  0  0  0  0  0  0
   15.3128   24.0741  -26.0233 C   0  0  0  0  0  0  0  0  0  0  0  0
   11.2672   21.0022  -24.9805 C   0  0  0  0  0  0  0  0  0  0  0  0
  1  2  1  0
  1  6  1  0
  1 16  1  1
  1 17  1  0
  2  3  1  0
  3  4  1  0
  4  5  1  0
  5  6  1  0
  5 18  1  1
  6  7  1  1
  7  8  2  0
  8  9  1  0
  9 10  2  0
  9 19  1  0
 10 11  1  0
 11 12  2  0
 12 13  1  0
 13 14  2  0
 13 20  1  0
 14 15  1  0
M  END
$$$$
