
     RDKit          3D

 20 20  0  0  0  0  0  0  0  0999 V2000
   14.9803   24.2572  -24.1287 C   0  0  2  0  0  0  0  0  0  0  0  0
   16.1420   24.6415  -23.2562 C   0  0  0  0  0  0  0  0  0  0  0  0
   16.4682   23.6705  -22.1856 C   0  0  0  0  0  0  0  0  0  0  0  0
   16.6795   22.2739  -22.6639 C   0  0  0  0  0  0  0  0  0  0  0  0
   15.4734   21.8655  -23.4691 C   0  0  2  0  0  0  0  0  0  0  0  0
   15.1294   22.8423  -24.5494 C   0  0  1  0  0  0  0  0  0  0  0  0
   14.0590   22.3317  -25.4291 C   0  0  0  0  0  0  0  0  0  0  0  0
   14.1065   21.2029  -26.0905 C   0  0  0  0  0  0  0  0  0  0  0  0
   12.9972   20.7198  -26.9054 C   0  0  0  0  0  0  0  0  0  0  0  0
   12.9954   19.4864  -27.3636 C   0  0  0  0  0  0  0  0  0  0  0  0
   13.1136   19.0857  -28.7418 C   0  0  0  0  0  0  0  0  0  0  0  0
   13.2535   17.8117  -29.0539 C   0  0  0  0  0  0  0  0  0  0  0  0
   13.6959   17.3793  -30.3790 C   0  0  0  0  0  0  0  0  0  0  0  0
   14.4554   16.3293  -30.5297 C   0  0  0  0  0  0  0  0  0  0  0  0
   15.3306   16.1243  -31.6944 C   0  0  0  0  0  0  0  0  0  0  0  0
   15.1287   25.1187  -25.3985 C   0  0  0  0  0  0  0  0  0  0  0  0
   13.6933   24.6327  -23.4760 C   0  0  0  0  0  0  0  0  0  0  0  0
   14.3499   21.5435  -22.5200 C   0  0  0  0  0  0  0  0  0  0  0  0
   11.9137   21.7081  -27.1665 C   0  0  0  0  0  0  0  0  0  0  0  0
   13.2454   18.1851  -31.5498 C   0  0  0  0  0  0  0  0  0  0  0  0
  1  2  1  0
  1  6  1  0
  1 16  1  6
  1 17  1  0
  2  3  1  0
  3  4  1  0
  4  5  1  0
  5  6  1  0
  5 18  1  1
  6  7  1  1
  7  8  2  0
  8  9  1  0
  9 10  2  0
  9 19  1  0
 10 11  1  0
 11 12  2  0
 12 13  1  0
 13 14  2  0
 13 20  1  0
 14 15  1  0
M  END
$$$$
