
     RDKit          3D

 20 20  0  0  0  0  0  0  0  0999 V2000
   28.1992   23.1216  -29.9772 C   0  0  2  0  0  0  0  0  0  0  0  0
   29.3332   23.7476  -30.7391 C   0  0  0  0  0  0  0  0  0  0  0  0
   28.9671   24.2991  -32.0648 C   0  0  0  0  0  0  0  0  0  0  0  0
   27.8285   25.2618  -32.0384 C   0  0  0  0  0  0  0  0  0  0  0  0
   26.6671   24.5971  -31.3461 C   0  0  2  0  0  0  0  0  0  0  0  0
   27.0263   24.0296  -30.0088 C   0  0  1  0  0  0  0  0  0  0  0  0
   25.8360   23.5449  -29.2818 C   0  0  0  0  0  0  0  0  0  0  0  0
   24.8793   24.3077  -28.8164 C   0  0  0  0  0  0  0  0  0  0  0  0
   23.7374   23.7782  -28.0791 C   0  0  0  0  0  0  0  0  0  0  0  0
   22.9434   24.5869  -27.4106 C   0  0  0  0  0  0  0  0  0  0  0  0
   21.8246   24.2016  -26.5898 C   0  0  0  0  0  0  0  0  0  0  0  0
   21.1126   25.1188  -25.9638 C   0  0  0  0  0  0  0  0  0  0  0  0
   19.9474   24.7770  -25.1490 C   0  0  0  0  0  0  0  0  0  0  0  0
   19.7813   25.2848  -23.9587 C   0  0  0  0  0  0  0  0  0  0  0  0
   18.5923   25.0321  -23.1299 C   0  0  0  0  0  0  0  0  0  0  0  0
   28.6808   23.0649  -28.5138 C   0  0  0  0  0  0  0  0  0  0  0  0
   27.9769   21.7199  -30.4343 C   0  0  0  0  0  0  0  0  0  0  0  0
   26.0330   23.6223  -32.3023 C   0  0  0  0  0  0  0  0  0  0  0  0
   23.5605   22.3005  -28.1434 C   0  0  0  0  0  0  0  0  0  0  0  0
   18.9577   23.8260  -25.7313 C   0  0  0  0  0  0  0  0  0  0  0  0
  1  2  1  0
  1  6  1  0
  1 16  1  1
  1 17  1  0
  2  3  1  0
  3  4  1  0
  4  5  1  0
  5  6  1  0
  5 18  1  6
  6  7  1  6
  7  8  2  0
  8  9  1  0
  9 10  2  0
  9 19  1  0
 10 11  1  0
 11 12  2  0
 12 13  1  0
 13 14  2  0
 13 20  1  0
 14 15  1  0
M  END
$$$$
