
     RDKit          3D

 20 20  0  0  0  0  0  0  0  0999 V2000
   15.4704   22.0907  -23.5897 C   0  0  2  0  0  0  0  0  0  0  0  0
   16.0008   23.2617  -22.8112 C   0  0  0  0  0  0  0  0  0  0  0  0
   16.7359   24.2660  -23.6152 C   0  0  0  0  0  0  0  0  0  0  0  0
   15.9814   24.7851  -24.7922 C   0  0  0  0  0  0  0  0  0  0  0  0
   15.5234   23.6077  -25.6132 C   0  0  2  0  0  0  0  0  0  0  0  0
   14.7856   22.5826  -24.8105 C   0  0  1  0  0  0  0  0  0  0  0  0
   14.1988   21.5337  -25.6682 C   0  0  0  0  0  0  0  0  0  0  0  0
   12.9190   21.2786  -25.7718 C   0  0  0  0  0  0  0  0  0  0  0  0
   12.4012   20.1326  -26.5110 C   0  0  0  0  0  0  0  0  0  0  0  0
   11.1590   19.7346  -26.3378 C   0  0  0  0  0  0  0  0  0  0  0  0
   10.4519   18.7664  -27.1355 C   0  0  0  0  0  0  0  0  0  0  0  0
    9.2223   18.4121  -26.8154 C   0  0  0  0  0  0  0  0  0  0  0  0
    8.6437   17.1384  -27.2414 C   0  0  0  0  0  0  0  0  0  0  0  0
    7.3522   16.9800  -27.3371 C   0  0  0  0  0  0  0  0  0  0  0  0
    6.7205   15.7178  -27.7523 C   0  0  0  0  0  0  0  0  0  0  0  0
   14.3852   21.4675  -22.6894 C   0  0  0  0  0  0  0  0  0  0  0  0
   16.5385   21.0685  -23.7835 C   0  0  0  0  0  0  0  0  0  0  0  0
   16.6985   23.0811  -26.3934 C   0  0  0  0  0  0  0  0  0  0  0  0
   13.3657   19.4765  -27.4374 C   0  0  0  0  0  0  0  0  0  0  0  0
    9.5870   16.0289  -27.5614 C   0  0  0  0  0  0  0  0  0  0  0  0
  1  2  1  0
  1  6  1  0
  1 16  1  1
  1 17  1  0
  2  3  1  0
  3  4  1  0
  4  5  1  0
  5  6  1  0
  5 18  1  1
  6  7  1  6
  7  8  2  0
  8  9  1  0
  9 10  2  0
  9 19  1  0
 10 11  1  0
 11 12  2  0
 12 13  1  0
 13 14  2  0
 13 20  1  0
 14 15  1  0
M  END
$$$$
