
     RDKit          3D

 20 20  0  0  0  0  0  0  0  0999 V2000
   13.8901   22.2433  -24.9807 C   0  0  2  0  0  0  0  0  0  0  0  0
   15.2706   22.7953  -24.7615 C   0  0  0  0  0  0  0  0  0  0  0  0
   16.3756   21.8582  -25.0721 C   0  0  0  0  0  0  0  0  0  0  0  0
   16.3158   21.2669  -26.4398 C   0  0  0  0  0  0  0  0  0  0  0  0
   14.9570   20.6421  -26.6227 C   0  0  2  0  0  0  0  0  0  0  0  0
   13.8325   21.5770  -26.3050 C   0  0  1  0  0  0  0  0  0  0  0  0
   12.5217   20.9980  -26.6611 C   0  0  0  0  0  0  0  0  0  0  0  0
   12.1689   19.7548  -26.4513 C   0  0  0  0  0  0  0  0  0  0  0  0
   10.9407   19.1824  -26.9913 C   0  0  0  0  0  0  0  0  0  0  0  0
   10.7267   17.8856  -26.9285 C   0  0  0  0  0  0  0  0  0  0  0  0
    9.5463   17.1909  -27.3733 C   0  0  0  0  0  0  0  0  0  0  0  0
    9.4683   15.8783  -27.2682 C   0  0  0  0  0  0  0  0  0  0  0  0
    8.3125   15.1261  -27.7547 C   0  0  0  0  0  0  0  0  0  0  0  0
    7.7247   14.2312  -27.0091 C   0  0  0  0  0  0  0  0  0  0  0  0
    6.5822   13.4234  -27.4637 C   0  0  0  0  0  0  0  0  0  0  0  0
   12.9713   23.4786  -25.0619 C   0  0  0  0  0  0  0  0  0  0  0  0
   13.4597   21.4368  -23.8027 C   0  0  0  0  0  0  0  0  0  0  0  0
   14.9271   19.3335  -25.8788 C   0  0  0  0  0  0  0  0  0  0  0  0
    9.9915   20.1558  -27.5998 C   0  0  0  0  0  0  0  0  0  0  0  0
    7.8327   15.4217  -29.1351 C   0  0  0  0  0  0  0  0  0  0  0  0
  1  2  1  0
  1  6  1  0
  1 16  1  6
  1 17  1  0
  2  3  1  0
  3  4  1  0
  4  5  1  0
  5  6  1  0
  5 18  1  1
  6  7  1  1
  7  8  2  0
  8  9  1  0
  9 10  2  0
  9 19  1  0
 10 11  1  0
 11 12  2  0
 12 13  1  0
 13 14  2  0
 13 20  1  0
 14 15  1  0
M  END
$$$$
