
     RDKit          3D

 20 20  0  0  0  0  0  0  0  0999 V2000
   18.7151   24.7578  -19.6590 C   0  0  2  0  0  0  0  0  0  0  0  0
   20.0201   24.9967  -18.9531 C   0  0  0  0  0  0  0  0  0  0  0  0
   21.2164   24.4792  -19.6580 C   0  0  0  0  0  0  0  0  0  0  0  0
   21.3506   24.9460  -21.0680 C   0  0  0  0  0  0  0  0  0  0  0  0
   20.0682   24.6282  -21.7922 C   0  0  2  0  0  0  0  0  0  0  0  0
   18.8519   25.1396  -21.0861 C   0  0  1  0  0  0  0  0  0  0  0  0
   17.6331   24.9700  -21.9021 C   0  0  0  0  0  0  0  0  0  0  0  0
   17.5539   24.2473  -22.9909 C   0  0  0  0  0  0  0  0  0  0  0  0
   16.2991   24.0288  -23.7022 C   0  0  0  0  0  0  0  0  0  0  0  0
   15.9918   22.8335  -24.1582 C   0  0  0  0  0  0  0  0  0  0  0  0
   14.9230   22.5143  -25.0691 C   0  0  0  0  0  0  0  0  0  0  0  0
   14.6950   21.2615  -25.4133 C   0  0  0  0  0  0  0  0  0  0  0  0
   13.5858   20.8847  -26.2887 C   0  0  0  0  0  0  0  0  0  0  0  0
   13.4027   19.6457  -26.6540 C   0  0  0  0  0  0  0  0  0  0  0  0
   12.3259   19.2207  -27.5619 C   0  0  0  0  0  0  0  0  0  0  0  0
   17.7255   25.7544  -19.0231 C   0  0  0  0  0  0  0  0  0  0  0  0
   18.2151   23.3819  -19.3759 C   0  0  0  0  0  0  0  0  0  0  0  0
   20.0490   23.1566  -22.1098 C   0  0  0  0  0  0  0  0  0  0  0  0
   15.4347   25.2311  -23.8643 C   0  0  0  0  0  0  0  0  0  0  0  0
   12.6735   21.9713  -26.7470 C   0  0  0  0  0  0  0  0  0  0  0  0
  1  2  1  0
  1  6  1  0
  1 16  1  1
  1 17  1  0
  2  3  1  0
  3  4  1  0
  4  5  1  0
  5  6  1  0
  5 18  1  1
  6  7  1  6
  7  8  2  0
  8  9  1  0
  9 10  2  0
  9 19  1  0
 10 11  1  0
 11 12  2  0
 12 13  1  0
 13 14  2  0
 13 20  1  0
 14 15  1  0
M  END
$$$$
