
     RDKit          3D

 20 20  0  0  0  0  0  0  0  0999 V2000
   11.2477   18.1490  -28.0156 C   0  0  2  0  0  0  0  0  0  0  0  0
    9.8114   17.7284  -27.8791 C   0  0  0  0  0  0  0  0  0  0  0  0
    9.1911   18.0371  -26.5694 C   0  0  0  0  0  0  0  0  0  0  0  0
    9.3058   19.4649  -26.1545 C   0  0  0  0  0  0  0  0  0  0  0  0
   10.7596   19.8561  -26.2140 C   0  0  2  0  0  0  0  0  0  0  0  0
   11.3993   19.5427  -27.5300 C   0  0  1  0  0  0  0  0  0  0  0  0
   12.7658   20.0948  -27.6201 C   0  0  0  0  0  0  0  0  0  0  0  0
   13.1698   21.1957  -27.0380 C   0  0  0  0  0  0  0  0  0  0  0  0
   14.5053   21.7479  -27.2367 C   0  0  0  0  0  0  0  0  0  0  0  0
   15.3489   21.8286  -26.2302 C   0  0  0  0  0  0  0  0  0  0  0  0
   16.6380   22.4705  -26.2440 C   0  0  0  0  0  0  0  0  0  0  0  0
   17.3523   22.5507  -25.1380 C   0  0  0  0  0  0  0  0  0  0  0  0
   18.6987   23.1212  -25.1211 C   0  0  0  0  0  0  0  0  0  0  0  0
   19.4793   22.9833  -24.0848 C   0  0  0  0  0  0  0  0  0  0  0  0
   20.8331   23.5543  -24.0100 C   0  0  0  0  0  0  0  0  0  0  0  0
   11.5172   18.1731  -29.5334 C   0  0  0  0  0  0  0  0  0  0  0  0
   12.1488   17.1251  -27.4130 C   0  0  0  0  0  0  0  0  0  0  0  0
   11.4604   19.2812  -25.0119 C   0  0  0  0  0  0  0  0  0  0  0  0
   14.8144   22.1986  -28.6224 C   0  0  0  0  0  0  0  0  0  0  0  0
   19.1438   23.8661  -26.3336 C   0  0  0  0  0  0  0  0  0  0  0  0
  1  2  1  0
  1  6  1  0
  1 16  1  6
  1 17  1  0
  2  3  1  0
  3  4  1  0
  4  5  1  0
  5  6  1  0
  5 18  1  1
  6  7  1  1
  7  8  2  0
  8  9  1  0
  9 10  2  0
  9 19  1  0
 10 11  1  0
 11 12  2  0
 12 13  1  0
 13 14  2  0
 13 20  1  0
 14 15  1  0
M  END
$$$$
