
     RDKit          3D

 20 20  0  0  0  0  0  0  0  0999 V2000
   16.2436   24.1112  -21.2909 C   0  0  2  0  0  0  0  0  0  0  0  0
   16.3777   25.4347  -20.5917 C   0  0  0  0  0  0  0  0  0  0  0  0
   16.5067   26.6062  -21.4898 C   0  0  0  0  0  0  0  0  0  0  0  0
   15.4273   26.7204  -22.5124 C   0  0  0  0  0  0  0  0  0  0  0  0
   15.3541   25.4176  -23.2658 C   0  0  2  0  0  0  0  0  0  0  0  0
   15.2309   24.2260  -22.3690 C   0  0  1  0  0  0  0  0  0  0  0  0
   14.9841   22.9876  -23.1344 C   0  0  0  0  0  0  0  0  0  0  0  0
   14.3902   22.9320  -24.2997 C   0  0  0  0  0  0  0  0  0  0  0  0
   14.3311   21.7116  -25.0966 C   0  0  0  0  0  0  0  0  0  0  0  0
   14.8993   21.6625  -26.2824 C   0  0  0  0  0  0  0  0  0  0  0  0
   14.6547   20.6817  -27.3081 C   0  0  0  0  0  0  0  0  0  0  0  0
   15.2758   20.7648  -28.4688 C   0  0  0  0  0  0  0  0  0  0  0  0
   15.0396   19.8068  -29.5481 C   0  0  0  0  0  0  0  0  0  0  0  0
   15.4279   20.0532  -30.7690 C   0  0  0  0  0  0  0  0  0  0  0  0
   15.4288   19.0418  -31.8374 C   0  0  0  0  0  0  0  0  0  0  0  0
   15.6617   23.1540  -20.2316 C   0  0  0  0  0  0  0  0  0  0  0  0
   17.5854   23.5911  -21.6812 C   0  0  0  0  0  0  0  0  0  0  0  0
   16.4982   25.3640  -24.2430 C   0  0  0  0  0  0  0  0  0  0  0  0
   13.5957   20.5743  -24.4763 C   0  0  0  0  0  0  0  0  0  0  0  0
   14.3379   18.5384  -29.1986 C   0  0  0  0  0  0  0  0  0  0  0  0
  1  2  1  0
  1  6  1  0
  1 16  1  1
  1 17  1  0
  2  3  1  0
  3  4  1  0
  4  5  1  0
  5  6  1  0
  5 18  1  1
  6  7  1  6
  7  8  2  0
  8  9  1  0
  9 10  2  0
  9 19  1  0
 10 11  1  0
 11 12  2  0
 12 13  1  0
 13 14  2  0
 13 20  1  0
 14 15  1  0
M  END
$$$$
