
     RDKit          3D

 20 20  0  0  0  0  0  0  0  0999 V2000
   23.9077   23.3367  -27.1182 C   0  0  2  0  0  0  0  0  0  0  0  0
   22.4218   23.3412  -26.8934 C   0  0  0  0  0  0  0  0  0  0  0  0
   21.6586   24.2557  -27.7746 C   0  0  0  0  0  0  0  0  0  0  0  0
   21.9145   24.0639  -29.2312 C   0  0  0  0  0  0  0  0  0  0  0  0
   23.4013   24.1434  -29.4615 C   0  0  2  0  0  0  0  0  0  0  0  0
   24.1838   23.2292  -28.5719 C   0  0  1  0  0  0  0  0  0  0  0  0
   25.6134   23.1981  -28.9399 C   0  0  0  0  0  0  0  0  0  0  0  0
   26.1934   24.0315  -29.7663 C   0  0  0  0  0  0  0  0  0  0  0  0
   27.5785   23.8779  -30.1976 C   0  0  0  0  0  0  0  0  0  0  0  0
   28.5298   23.6572  -29.3158 C   0  0  0  0  0  0  0  0  0  0  0  0
   29.9281   23.4591  -29.5977 C   0  0  0  0  0  0  0  0  0  0  0  0
   30.7760   23.2167  -28.6167 C   0  0  0  0  0  0  0  0  0  0  0  0
   32.1561   22.8024  -28.8657 C   0  0  0  0  0  0  0  0  0  0  0  0
   32.4303   21.8036  -29.6590 C   0  0  0  0  0  0  0  0  0  0  0  0
   33.8013   21.3678  -29.9670 C   0  0  0  0  0  0  0  0  0  0  0  0
   24.4085   22.0303  -26.4707 C   0  0  0  0  0  0  0  0  0  0  0  0
   24.5465   24.4733  -26.3947 C   0  0  0  0  0  0  0  0  0  0  0  0
   23.8174   25.5895  -29.4130 C   0  0  0  0  0  0  0  0  0  0  0  0
   27.8112   23.9935  -31.6644 C   0  0  0  0  0  0  0  0  0  0  0  0
   33.2366   23.5654  -28.1776 C   0  0  0  0  0  0  0  0  0  0  0  0
  1  2  1  0
  1  6  1  0
  1 16  1  1
  1 17  1  0
  2  3  1  0
  3  4  1  0
  4  5  1  0
  5  6  1  0
  5 18  1  1
  6  7  1  1
  7  8  2  0
  8  9  1  0
  9 10  2  0
  9 19  1  0
 10 11  1  0
 11 12  2  0
 12 13  1  0
 13 14  2  0
 13 20  1  0
 14 15  1  0
M  END
$$$$
