
     RDKit          3D

 20 20  0  0  0  0  0  0  0  0999 V2000
   25.5137   25.6102  -35.3921 C   0  0  2  0  0  0  0  0  0  0  0  0
   24.3459   25.7393  -36.3291 C   0  0  0  0  0  0  0  0  0  0  0  0
   23.6628   24.4658  -36.6564 C   0  0  0  0  0  0  0  0  0  0  0  0
   23.2288   23.6763  -35.4680 C   0  0  0  0  0  0  0  0  0  0  0  0
   24.4244   23.4794  -34.5726 C   0  0  2  0  0  0  0  0  0  0  0  0
   25.1272   24.7582  -34.2406 C   0  0  1  0  0  0  0  0  0  0  0  0
   26.1807   24.5567  -33.2258 C   0  0  0  0  0  0  0  0  0  0  0  0
   25.9755   24.4909  -31.9345 C   0  0  0  0  0  0  0  0  0  0  0  0
   27.0477   24.2392  -30.9780 C   0  0  0  0  0  0  0  0  0  0  0  0
   26.8331   23.4871  -29.9199 C   0  0  0  0  0  0  0  0  0  0  0  0
   27.7630   23.2291  -28.8510 C   0  0  0  0  0  0  0  0  0  0  0  0
   27.3614   22.6162  -27.7541 C   0  0  0  0  0  0  0  0  0  0  0  0
   28.2725   22.3238  -26.6483 C   0  0  0  0  0  0  0  0  0  0  0  0
   27.8498   22.2878  -25.4145 C   0  0  0  0  0  0  0  0  0  0  0  0
   28.4553   21.4393  -24.3763 C   0  0  0  0  0  0  0  0  0  0  0  0
   25.7445   27.0306  -34.8390 C   0  0  0  0  0  0  0  0  0  0  0  0
   26.7399   25.2124  -36.1413 C   0  0  0  0  0  0  0  0  0  0  0  0
   25.2985   22.4082  -35.1685 C   0  0  0  0  0  0  0  0  0  0  0  0
   28.3522   24.8872  -31.2900 C   0  0  0  0  0  0  0  0  0  0  0  0
   29.7022   22.0689  -26.9860 C   0  0  0  0  0  0  0  0  0  0  0  0
  1  2  1  0
  1  6  1  0
  1 16  1  1
  1 17  1  0
  2  3  1  0
  3  4  1  0
  4  5  1  0
  5  6  1  0
  5 18  1  6
  6  7  1  6
  7  8  2  0
  8  9  1  0
  9 10  2  0
  9 19  1  0
 10 11  1  0
 11 12  2  0
 12 13  1  0
 13 14  2  0
 13 20  1  0
 14 15  1  0
M  END
$$$$
