
     RDKit          3D

 20 20  0  0  0  0  0  0  0  0999 V2000
   12.6482   21.3084  -26.6036 C   0  0  2  0  0  0  0  0  0  0  0  0
   11.3131   20.8866  -26.0578 C   0  0  0  0  0  0  0  0  0  0  0  0
   10.9127   19.4986  -26.3875 C   0  0  0  0  0  0  0  0  0  0  0  0
   11.9208   18.4629  -26.0202 C   0  0  0  0  0  0  0  0  0  0  0  0
   13.2385   18.8490  -26.6403 C   0  0  2  0  0  0  0  0  0  0  0  0
   13.6503   20.2517  -26.3202 C   0  0  1  0  0  0  0  0  0  0  0  0
   15.0197   20.5413  -26.7904 C   0  0  0  0  0  0  0  0  0  0  0  0
   15.6849   21.6389  -26.5323 C   0  0  0  0  0  0  0  0  0  0  0  0
   16.9586   21.9566  -27.1685 C   0  0  0  0  0  0  0  0  0  0  0  0
   17.8782   22.6344  -26.5157 C   0  0  0  0  0  0  0  0  0  0  0  0
   19.1579   23.0517  -27.0276 C   0  0  0  0  0  0  0  0  0  0  0  0
   20.0180   23.6710  -26.2424 C   0  0  0  0  0  0  0  0  0  0  0  0
   21.3017   24.1695  -26.7345 C   0  0  0  0  0  0  0  0  0  0  0  0
   22.1419   24.7750  -25.9411 C   0  0  0  0  0  0  0  0  0  0  0  0
   23.3028   25.5393  -26.4233 C   0  0  0  0  0  0  0  0  0  0  0  0
   13.0518   22.5414  -25.7708 C   0  0  0  0  0  0  0  0  0  0  0  0
   12.5151   21.7458  -28.0228 C   0  0  0  0  0  0  0  0  0  0  0  0
   13.1931   18.5176  -28.1082 C   0  0  0  0  0  0  0  0  0  0  0  0
   17.1170   21.4699  -28.5675 C   0  0  0  0  0  0  0  0  0  0  0  0
   21.6121   23.9588  -28.1776 C   0  0  0  0  0  0  0  0  0  0  0  0
  1  2  1  0
  1  6  1  0
  1 16  1  1
  1 17  1  0
  2  3  1  0
  3  4  1  0
  4  5  1  0
  5  6  1  0
  5 18  1  6
  6  7  1  6
  7  8  2  0
  8  9  1  0
  9 10  2  0
  9 19  1  0
 10 11  1  0
 11 12  2  0
 12 13  1  0
 13 14  2  0
 13 20  1  0
 14 15  1  0
M  END
$$$$
