
     RDKit          3D

 56 58  0  0  0  0  0  0  0  0999 V2000
   32.0905  -25.6610   32.3485 O   0  0  0  0  0  0  0  0  0  0  0  0
   32.5677  -27.2864   32.4449 P   0  0  1  0  0  5  0  0  0  0  0  0
   33.7505  -27.5423   31.2556 O   0  0  0  0  0  0  0  0  0  0  0  0
   33.0701  -27.6520   33.8162 O   0  0  0  0  0  0  0  0  0  0  0  0
   31.2079  -28.2316   32.1161 O   0  0  0  0  0  0  0  0  0  0  0  0
   31.2822  -29.4777   32.7495 C   0  0  1  0  0  0  0  0  0  0  0  0
   30.1383  -29.5215   33.7436 C   0  0  1  0  0  0  0  0  0  0  0  0
   29.8120  -28.2541   34.2163 O   0  0  0  0  0  0  0  0  0  0  0  0
   29.0439  -30.0921   32.8648 C   0  0  2  0  0  0  0  0  0  0  0  0
   27.8837  -30.5005   33.5751 N   0  0  0  0  0  0  0  0  0  0  0  0
   27.0037  -29.6883   34.1654 C   0  0  0  0  0  0  0  0  0  0  0  0
   26.9343  -28.3649   34.2674 N   0  0  0  0  0  0  0  0  0  0  0  0
   25.9370  -27.7721   34.9237 C   0  0  0  0  0  0  0  0  0  0  0  0
   24.9371  -28.4825   35.5235 N   0  0  0  0  0  0  0  0  0  0  0  0
   24.9582  -29.8230   35.4509 C   0  0  0  0  0  0  0  0  0  0  0  0
   23.9235  -30.5631   36.0732 N   0  0  0  0  0  0  0  0  0  0  0  0
   25.9950  -30.4244   34.7695 C   0  0  0  0  0  0  0  0  0  0  0  0
   26.3039  -31.7146   34.5181 N   0  0  0  0  0  0  0  0  0  0  0  0
   27.4532  -31.7563   33.7915 C   0  0  0  0  0  0  0  0  0  0  0  0
   29.7347  -31.1471   32.2684 O   0  0  0  0  0  0  0  0  0  0  0  0
   30.9321  -30.6145   31.8221 C   0  0  2  0  0  0  0  0  0  0  0  0
   32.0414  -31.6103   31.7334 C   0  0  0  0  0  0  0  0  0  0  0  0
   31.9240  -32.5974   32.7401 O   0  0  0  0  0  0  0  0  0  0  0  0
   33.3416  -32.6067   33.6922 P   0  0  2  0  0  5  0  0  0  0  0  0
   34.0593  -33.9269   33.4960 O   0  0  0  0  0  0  0  0  0  0  0  0
   32.8573  -32.5434   35.3075 O   0  0  0  0  0  0  0  0  0  0  0  0
   34.2670  -31.2961   33.2274 O   0  0  0  0  0  0  0  0  0  0  0  0
   34.9046  -30.4346   34.5358 P   0  0  1  0  0  5  0  0  0  0  0  0
   33.8435  -29.1767   34.9940 O   0  0  0  0  0  0  0  0  0  0  0  0
   35.1420  -31.2771   35.7419 O   0  0  0  0  0  0  0  0  0  0  0  0
   36.3191  -29.6877   33.9881 O   0  0  0  0  0  0  0  0  0  0  0  0
   36.2357  -28.3062   34.2216 C   0  0  0  0  0  0  0  0  0  0  0  0
   37.0061  -27.5550   33.1454 C   0  0  1  0  0  0  0  0  0  0  0  0
   36.8148  -26.0706   33.3727 C   0  0  0  0  0  0  0  0  0  0  0  0
   38.4559  -27.8758   33.3330 C   0  0  0  0  0  0  0  0  0  0  0  0
   36.4854  -27.9934   31.8127 C   0  0  1  0  0  0  0  0  0  0  0  0
   35.2214  -27.4809   31.6143 O   0  0  0  0  0  0  0  0  0  0  0  0
   37.3627  -27.6456   30.6934 C   0  0  0  0  0  0  0  0  0  0  0  0
   38.3172  -28.3715   30.3271 O   0  0  0  0  0  0  0  0  0  0  0  0
   37.1534  -26.4427   29.9685 N   0  0  0  0  0  0  0  0  0  0  0  0
   38.2040  -25.5634   29.5605 C   0  0  0  0  0  0  0  0  0  0  0  0
   37.7288  -24.3995   28.7357 C   0  0  0  0  0  0  0  0  0  0  0  0
   38.8660  -23.5408   28.2845 C   0  0  0  0  0  0  0  0  0  0  0  0
   39.1819  -23.6051   27.0747 O   0  0  0  0  0  0  0  0  0  0  0  0
   39.5734  -22.6896   29.1410 N   0  0  0  0  0  0  0  0  0  0  0  0
   41.0004  -22.6889   29.3505 C   0  0  0  0  0  0  0  0  0  0  0  0
   41.6557  -22.0266   28.1593 C   0  0  0  0  0  0  0  0  0  0  0  0
   43.0462  -22.3846   28.0099 N   0  0  0  0  0  0  0  0  0  0  0  0
   43.9995  -21.8801   28.9321 C   0  0  0  0  0  0  0  0  0  0  0  0
   44.5534  -22.5740   29.8240 O   0  0  0  0  0  0  0  0  0  0  0  0
   44.3719  -20.4392   28.8451 C   0  0  1  0  0  0  0  0  0  0  0  0
   44.3805  -20.0080   27.3955 C   0  0  0  0  0  0  0  0  0  0  0  0
   43.2224  -19.4801   29.8026 S   0  0  1  0  0  6  0  0  0  0  0  0
   41.8276  -19.9253   29.5189 O   0  0  0  0  0  0  0  0  0  0  0  0
   43.5385  -19.8033   31.4345 O   0  0  0  0  0  0  0  0  0  0  0  0
   43.3606  -18.0279   29.5299 O   0  0  0  0  0  0  0  0  0  0  0  0
  2  1  1  1
  2  3  1  0
  2  4  2  0
  2  5  1  0
  6  5  1  6
  6  7  1  0
  6 21  1  0
  7  8  1  6
  7  9  1  0
  9 10  1  1
  9 20  1  0
 10 11  1  0
 10 19  1  0
 11 12  2  0
 11 17  1  0
 12 13  1  0
 13 14  2  0
 14 15  1  0
 15 16  1  0
 15 17  2  0
 17 18  1  0
 18 19  2  0
 20 21  1  0
 21 22  1  1
 22 23  1  0
 23 24  1  0
 24 25  2  0
 24 26  1  1
 24 27  1  0
 27 28  1  0
 28 29  1  1
 28 30  2  0
 28 31  1  0
 31 32  1  0
 32 33  1  0
 33 34  1  1
 33 35  1  0
 33 36  1  0
 36 37  1  6
 36 38  1  0
 38 39  2  0
 38 40  1  0
 40 41  1  0
 41 42  1  0
 42 43  1  0
 43 44  2  0
 43 45  1  0
 45 46  1  0
 46 47  1  0
 47 48  1  0
 48 49  1  0
 49 50  2  0
 49 51  1  0
 51 52  1  6
 51 53  1  0
 53 54  2  0
 53 55  1  1
 53 56  2  0
M  END
$$$$
