
     RDKit          3D

 56 58  0  0  0  0  0  0  0  0999 V2000
   19.5443   27.4829   16.6980 O   0  0  0  0  0  0  0  0  0  0  0  0
   20.8219   26.4644   17.1558 P   0  0  1  0  0  5  0  0  0  0  0  0
   21.0949   25.3826   15.8775 O   0  0  0  0  0  0  0  0  0  0  0  0
   22.0666   27.2349   17.5073 O   0  0  0  0  0  0  0  0  0  0  0  0
   20.3247   25.6178   18.5293 O   0  0  0  0  0  0  0  0  0  0  0  0
   21.0170   24.4090   18.6671 C   0  0  1  0  0  0  0  0  0  0  0  0
   21.5487   24.3796   20.0867 C   0  0  1  0  0  0  0  0  0  0  0  0
   21.8010   25.6586   20.5734 O   0  0  0  0  0  0  0  0  0  0  0  0
   20.3781   23.7296   20.7958 C   0  0  2  0  0  0  0  0  0  0  0  0
   20.6604   23.3213   22.1265 N   0  0  0  0  0  0  0  0  0  0  0  0
   20.7924   24.1308   23.1799 C   0  0  0  0  0  0  0  0  0  0  0  0
   20.7082   25.4507   23.3117 N   0  0  0  0  0  0  0  0  0  0  0  0
   20.8839   26.0415   24.4936 C   0  0  0  0  0  0  0  0  0  0  0  0
   21.1573   25.3323   25.6279 N   0  0  0  0  0  0  0  0  0  0  0  0
   21.2531   23.9953   25.5514 C   0  0  0  0  0  0  0  0  0  0  0  0
   21.5382   23.2568   26.7258 N   0  0  0  0  0  0  0  0  0  0  0  0
   21.0696   23.3961   24.3234 C   0  0  0  0  0  0  0  0  0  0  0  0
   21.0987   22.1094   23.9149 N   0  0  0  0  0  0  0  0  0  0  0  0
   20.8495   22.0685   22.5782 C   0  0  0  0  0  0  0  0  0  0  0  0
   20.1251   22.6681   19.9268 O   0  0  0  0  0  0  0  0  0  0  0  0
   20.0951   23.2153   18.6555 C   0  0  2  0  0  0  0  0  0  0  0  0
   20.4596   22.2525   17.5738 C   0  0  0  0  0  0  0  0  0  0  0  0
   20.4073   22.8691   16.3015 O   0  0  0  0  0  0  0  0  0  0  0  0
   20.3322   21.6662   15.0918 P   0  0  2  0  0  5  0  0  0  0  0  0
   19.8955   22.3037   13.7882 O   0  0  0  0  0  0  0  0  0  0  0  0
   19.1197   20.5821   15.5417 O   0  0  0  0  0  0  0  0  0  0  0  0
   21.8437   20.9625   14.9892 O   0  0  0  0  0  0  0  0  0  0  0  0
   23.0072   21.9823   14.3062 P   0  0  1  0  0  5  0  0  0  0  0  0
   23.3450   21.5083   12.7001 O   0  0  0  0  0  0  0  0  0  0  0  0
   22.5937   23.4136   14.2692 O   0  0  0  0  0  0  0  0  0  0  0  0
   24.4356   21.7510   15.1807 O   0  0  0  0  0  0  0  0  0  0  0  0
   24.4377   20.4617   15.7353 C   0  0  0  0  0  0  0  0  0  0  0  0
   24.7033   20.5454   17.2314 C   0  0  1  0  0  0  0  0  0  0  0  0
   26.1726   20.2695   17.4693 C   0  0  0  0  0  0  0  0  0  0  0  0
   24.4150   21.9518   17.6543 C   0  0  0  0  0  0  0  0  0  0  0  0
   23.8237   19.5454   17.9139 C   0  0  1  0  0  0  0  0  0  0  0  0
   22.5206   19.7079   17.4954 O   0  0  0  0  0  0  0  0  0  0  0  0
   24.2539   18.1582   17.7287 C   0  0  0  0  0  0  0  0  0  0  0  0
   24.2130   17.3057   18.6472 O   0  0  0  0  0  0  0  0  0  0  0  0
   24.7436   17.7242   16.4686 N   0  0  0  0  0  0  0  0  0  0  0  0
   24.9179   16.3515   16.1096 C   0  0  0  0  0  0  0  0  0  0  0  0
   26.0845   15.6938   16.7932 C   0  0  0  0  0  0  0  0  0  0  0  0
   27.0166   15.0619   15.8105 C   0  0  0  0  0  0  0  0  0  0  0  0
   26.7878   15.2668   14.5967 O   0  0  0  0  0  0  0  0  0  0  0  0
   28.1076   14.2696   16.1856 N   0  0  0  0  0  0  0  0  0  0  0  0
   29.0910   13.7015   15.2966 C   0  0  0  0  0  0  0  0  0  0  0  0
   29.4875   14.7571   14.2889 C   0  0  0  0  0  0  0  0  0  0  0  0
   30.8322   15.2450   14.4834 N   0  0  0  0  0  0  0  0  0  0  0  0
   31.9028   14.6413   13.7741 C   0  0  0  0  0  0  0  0  0  0  0  0
   31.7521   13.7792   12.8698 O   0  0  0  0  0  0  0  0  0  0  0  0
   33.2953   15.0486   14.1171 C   0  0  1  0  0  0  0  0  0  0  0  0
   33.4118   16.5548   14.0438 C   0  0  0  0  0  0  0  0  0  0  0  0
   33.6984   14.4427   15.7383 S   0  0  1  0  0  6  0  0  0  0  0  0
   33.2193   15.4027   16.7743 O   0  0  0  0  0  0  0  0  0  0  0  0
   32.8507   12.9931   15.9558 O   0  0  0  0  0  0  0  0  0  0  0  0
   35.1567   14.2132   15.8900 O   0  0  0  0  0  0  0  0  0  0  0  0
  2  1  1  6
  2  3  1  0
  2  4  2  0
  2  5  1  0
  6  5  1  1
  6  7  1  0
  6 21  1  0
  7  8  1  1
  7  9  1  0
  9 10  1  1
  9 20  1  0
 10 11  1  0
 10 19  1  0
 11 12  2  0
 11 17  1  0
 12 13  1  0
 13 14  2  0
 14 15  1  0
 15 16  1  0
 15 17  2  0
 17 18  1  0
 18 19  2  0
 20 21  1  0
 21 22  1  6
 22 23  1  0
 23 24  1  0
 24 25  2  0
 24 26  1  1
 24 27  1  0
 27 28  1  0
 28 29  1  6
 28 30  2  0
 28 31  1  0
 31 32  1  0
 32 33  1  0
 33 34  1  6
 33 35  1  0
 33 36  1  0
 36 37  1  6
 36 38  1  0
 38 39  2  0
 38 40  1  0
 40 41  1  0
 41 42  1  0
 42 43  1  0
 43 44  2  0
 43 45  1  0
 45 46  1  0
 46 47  1  0
 47 48  1  0
 48 49  1  0
 49 50  2  0
 49 51  1  0
 51 52  1  1
 51 53  1  0
 53 54  2  0
 53 55  1  1
 53 56  2  0
M  END
$$$$
