
     RDKit          3D

 56 58  0  0  0  0  0  0  0  0999 V2000
   28.3662  -33.4266   33.4738 O   0  0  0  0  0  0  0  0  0  0  0  0
   27.7995  -32.9739   31.9398 P   0  0  1  0  0  5  0  0  0  0  0  0
   27.5575  -34.3954   31.0455 O   0  0  0  0  0  0  0  0  0  0  0  0
   26.5447  -32.1458   32.0178 O   0  0  0  0  0  0  0  0  0  0  0  0
   29.0017  -32.0361   31.2147 O   0  0  0  0  0  0  0  0  0  0  0  0
   30.2634  -32.3086   31.7562 C   0  0  1  0  0  0  0  0  0  0  0  0
   31.0749  -32.9515   30.6486 C   0  0  1  0  0  0  0  0  0  0  0  0
   30.2713  -33.6565   29.7579 O   0  0  0  0  0  0  0  0  0  0  0  0
   31.6748  -31.7167   30.0073 C   0  0  2  0  0  0  0  0  0  0  0  0
   32.7079  -31.9926   29.0726 N   0  0  0  0  0  0  0  0  0  0  0  0
   32.5745  -32.0102   27.7443 C   0  0  0  0  0  0  0  0  0  0  0  0
   31.5344  -31.7942   26.9454 N   0  0  0  0  0  0  0  0  0  0  0  0
   31.6511  -31.8721   25.6199 C   0  0  0  0  0  0  0  0  0  0  0  0
   32.8348  -32.1749   25.0104 N   0  0  0  0  0  0  0  0  0  0  0  0
   33.9179  -32.4022   25.7705 C   0  0  0  0  0  0  0  0  0  0  0  0
   35.1469  -32.7181   25.1416 N   0  0  0  0  0  0  0  0  0  0  0  0
   33.7844  -32.3189   27.1402 C   0  0  0  0  0  0  0  0  0  0  0  0
   34.6530  -32.4861   28.1603 N   0  0  0  0  0  0  0  0  0  0  0  0
   33.9942  -32.2869   29.3337 C   0  0  0  0  0  0  0  0  0  0  0  0
   32.1158  -31.0405   31.1450 O   0  0  0  0  0  0  0  0  0  0  0  0
   31.0528  -31.0532   32.0318 C   0  0  2  0  0  0  0  0  0  0  0  0
   31.4603  -30.9664   33.4658 C   0  0  0  0  0  0  0  0  0  0  0  0
   32.4809  -30.0041   33.6499 O   0  0  0  0  0  0  0  0  0  0  0  0
   33.9897  -30.7948   33.7710 P   0  0  2  0  0  5  0  0  0  0  0  0
   35.0298  -29.8025   34.2505 O   0  0  0  0  0  0  0  0  0  0  0  0
   34.4344  -31.2612   32.2113 O   0  0  0  0  0  0  0  0  0  0  0  0
   33.7988  -32.0829   34.8172 O   0  0  0  0  0  0  0  0  0  0  0  0
   33.7308  -31.6162   36.4414 P   0  0  1  0  0  5  0  0  0  0  0  0
   32.3417  -32.2696   37.1909 O   0  0  0  0  0  0  0  0  0  0  0  0
   34.9126  -32.0566   37.2354 O   0  0  0  0  0  0  0  0  0  0  0  0
   33.5362  -29.9367   36.4610 O   0  0  0  0  0  0  0  0  0  0  0  0
   34.7317  -29.3350   36.8838 C   0  0  0  0  0  0  0  0  0  0  0  0
   34.4204  -28.0791   37.6848 C   0  0  1  0  0  0  0  0  0  0  0  0
   33.2221  -28.3622   38.5656 C   0  0  0  0  0  0  0  0  0  0  0  0
   35.5995  -27.8130   38.5673 C   0  0  0  0  0  0  0  0  0  0  0  0
   34.1598  -26.9668   36.7182 C   0  0  1  0  0  0  0  0  0  0  0  0
   35.2208  -26.0869   36.7225 O   0  0  0  0  0  0  0  0  0  0  0  0
   33.8762  -27.4234   35.3563 C   0  0  0  0  0  0  0  0  0  0  0  0
   32.8442  -28.0699   35.0574 O   0  0  0  0  0  0  0  0  0  0  0  0
   34.7860  -27.1400   34.3037 N   0  0  0  0  0  0  0  0  0  0  0  0
   34.4089  -27.0371   32.9286 C   0  0  0  0  0  0  0  0  0  0  0  0
   34.9416  -25.8065   32.2487 C   0  0  0  0  0  0  0  0  0  0  0  0
   36.4321  -25.8351   32.1420 C   0  0  0  0  0  0  0  0  0  0  0  0
   37.0153  -26.8465   32.5942 O   0  0  0  0  0  0  0  0  0  0  0  0
   37.1819  -24.8006   31.5709 N   0  0  0  0  0  0  0  0  0  0  0  0
   38.6139  -24.7836   31.3987 C   0  0  0  0  0  0  0  0  0  0  0  0
   38.9484  -23.8080   30.2927 C   0  0  0  0  0  0  0  0  0  0  0  0
   39.7743  -24.3880   29.2604 N   0  0  0  0  0  0  0  0  0  0  0  0
   40.2647  -23.5642   28.2143 C   0  0  0  0  0  0  0  0  0  0  0  0
   39.9450  -22.3571   28.0586 O   0  0  0  0  0  0  0  0  0  0  0  0
   41.2178  -24.1598   27.2347 C   0  0  1  0  0  0  0  0  0  0  0  0
   40.8038  -23.7753   25.8318 C   0  0  0  0  0  0  0  0  0  0  0  0
   42.8627  -23.5982   27.6049 S   0  0  1  0  0  6  0  0  0  0  0  0
   43.7916  -23.9817   26.5030 O   0  0  0  0  0  0  0  0  0  0  0  0
   42.8125  -21.9066   27.6637 O   0  0  0  0  0  0  0  0  0  0  0  0
   43.3495  -24.1433   28.8965 O   0  0  0  0  0  0  0  0  0  0  0  0
  2  1  1  1
  2  3  1  0
  2  4  2  0
  2  5  1  0
  6  5  1  6
  6  7  1  0
  6 21  1  0
  7  8  1  6
  7  9  1  0
  9 10  1  6
  9 20  1  0
 10 11  1  0
 10 19  1  0
 11 12  2  0
 11 17  1  0
 12 13  1  0
 13 14  2  0
 14 15  1  0
 15 16  1  0
 15 17  2  0
 17 18  1  0
 18 19  2  0
 20 21  1  0
 21 22  1  1
 22 23  1  0
 23 24  1  0
 24 25  2  0
 24 26  1  6
 24 27  1  0
 27 28  1  0
 28 29  1  1
 28 30  2  0
 28 31  1  0
 31 32  1  0
 32 33  1  0
 33 34  1  1
 33 35  1  0
 33 36  1  0
 36 37  1  6
 36 38  1  0
 38 39  2  0
 38 40  1  0
 40 41  1  0
 41 42  1  0
 42 43  1  0
 43 44  2  0
 43 45  1  0
 45 46  1  0
 46 47  1  0
 47 48  1  0
 48 49  1  0
 49 50  2  0
 49 51  1  0
 51 52  1  6
 51 53  1  0
 53 54  2  0
 53 55  1  1
 53 56  2  0
M  END
$$$$
