
     RDKit          3D

 56 58  0  0  0  0  0  0  0  0999 V2000
   33.2837  -34.9634   34.0354 O   0  0  0  0  0  0  0  0  0  0  0  0
   33.5163  -34.1968   32.5396 P   0  0  1  0  0  5  0  0  0  0  0  0
   33.5620  -32.5249   32.8250 O   0  0  0  0  0  0  0  0  0  0  0  0
   34.7611  -34.6759   31.8416 O   0  0  0  0  0  0  0  0  0  0  0  0
   32.1905  -34.5779   31.5662 O   0  0  0  0  0  0  0  0  0  0  0  0
   31.4064  -33.4492   31.3000 C   0  0  1  0  0  0  0  0  0  0  0  0
   31.7901  -32.9794   29.9104 C   0  0  1  0  0  0  0  0  0  0  0  0
   33.1116  -33.2894   29.6037 O   0  0  0  0  0  0  0  0  0  0  0  0
   30.8159  -33.7877   29.0779 C   0  0  2  0  0  0  0  0  0  0  0  0
   30.7432  -33.3860   27.7176 N   0  0  0  0  0  0  0  0  0  0  0  0
   31.1858  -34.0880   26.6717 C   0  0  0  0  0  0  0  0  0  0  0  0
   31.7774  -35.2743   26.5746 N   0  0  0  0  0  0  0  0  0  0  0  0
   32.1355  -35.7751   25.3923 C   0  0  0  0  0  0  0  0  0  0  0  0
   31.9173  -35.1056   24.2225 N   0  0  0  0  0  0  0  0  0  0  0  0
   31.3225  -33.9026   24.2631 C   0  0  0  0  0  0  0  0  0  0  0  0
   31.0961  -33.2048   23.0517 N   0  0  0  0  0  0  0  0  0  0  0  0
   30.9570  -33.3953   25.4919 C   0  0  0  0  0  0  0  0  0  0  0  0
   30.3574  -32.2463   25.8706 N   0  0  0  0  0  0  0  0  0  0  0  0
   30.2294  -32.2447   27.2249 C   0  0  0  0  0  0  0  0  0  0  0  0
   29.6387  -33.5615   29.7915 O   0  0  0  0  0  0  0  0  0  0  0  0
   29.9487  -33.7924   31.1208 C   0  0  2  0  0  0  0  0  0  0  0  0
   29.0873  -33.0415   32.0820 C   0  0  0  0  0  0  0  0  0  0  0  0
   29.6699  -31.7996   32.4284 O   0  0  0  0  0  0  0  0  0  0  0  0
   29.6361  -31.6118   34.1253 P   0  0  2  0  0  5  0  0  0  0  0  0
   30.7505  -32.4376   34.7357 O   0  0  0  0  0  0  0  0  0  0  0  0
   28.1800  -32.2681   34.6703 O   0  0  0  0  0  0  0  0  0  0  0  0
   29.7901  -29.9811   34.4530 O   0  0  0  0  0  0  0  0  0  0  0  0
   29.4704  -29.5942   36.0681 P   0  0  1  0  0  5  0  0  0  0  0  0
   27.7979  -29.7233   36.3913 O   0  0  0  0  0  0  0  0  0  0  0  0
   30.1800  -30.4727   37.0405 O   0  0  0  0  0  0  0  0  0  0  0  0
   29.8691  -27.9634   36.2694 O   0  0  0  0  0  0  0  0  0  0  0  0
   30.2445  -27.4202   35.0309 C   0  0  0  0  0  0  0  0  0  0  0  0
   31.5322  -26.6244   35.1870 C   0  0  1  0  0  0  0  0  0  0  0  0
   31.7343  -25.7972   33.9355 C   0  0  0  0  0  0  0  0  0  0  0  0
   31.3388  -25.6910   36.3408 C   0  0  0  0  0  0  0  0  0  0  0  0
   32.6506  -27.5935   35.4094 C   0  0  1  0  0  0  0  0  0  0  0  0
   32.5614  -28.6254   34.5000 O   0  0  0  0  0  0  0  0  0  0  0  0
   33.9796  -26.9810   35.3631 C   0  0  0  0  0  0  0  0  0  0  0  0
   34.6884  -26.8175   36.3844 O   0  0  0  0  0  0  0  0  0  0  0  0
   34.5212  -26.5416   34.1263 N   0  0  0  0  0  0  0  0  0  0  0  0
   35.9045  -26.2454   33.9208 C   0  0  0  0  0  0  0  0  0  0  0  0
   36.2398  -25.8928   32.4981 C   0  0  0  0  0  0  0  0  0  0  0  0
   37.3869  -24.9377   32.4210 C   0  0  0  0  0  0  0  0  0  0  0  0
   37.8334  -24.4965   33.5043 O   0  0  0  0  0  0  0  0  0  0  0  0
   37.9660  -24.5277   31.2147 N   0  0  0  0  0  0  0  0  0  0  0  0
   39.1313  -23.6896   31.0728 C   0  0  0  0  0  0  0  0  0  0  0  0
   38.7927  -22.5608   30.1251 C   0  0  0  0  0  0  0  0  0  0  0  0
   39.5021  -22.6461   28.8708 N   0  0  0  0  0  0  0  0  0  0  0  0
   40.9169  -22.7555   28.8754 C   0  0  0  0  0  0  0  0  0  0  0  0
   41.5918  -23.1300   29.8693 O   0  0  0  0  0  0  0  0  0  0  0  0
   41.6559  -22.4059   27.6288 C   0  0  1  0  0  0  0  0  0  0  0  0
   43.0160  -21.8509   27.9885 C   0  0  0  0  0  0  0  0  0  0  0  0
   41.7931  -23.8527   26.6060 S   0  0  1  0  0  6  0  0  0  0  0  0
   40.4556  -24.2149   26.0543 O   0  0  0  0  0  0  0  0  0  0  0  0
   42.7911  -23.4489   25.2991 O   0  0  0  0  0  0  0  0  0  0  0  0
   42.3647  -24.9998   27.3542 O   0  0  0  0  0  0  0  0  0  0  0  0
  2  1  1  1
  2  3  1  0
  2  4  2  0
  2  5  1  0
  6  5  1  6
  6  7  1  0
  6 21  1  0
  7  8  1  6
  7  9  1  0
  9 10  1  6
  9 20  1  0
 10 11  1  0
 10 19  1  0
 11 12  2  0
 11 17  1  0
 12 13  1  0
 13 14  2  0
 14 15  1  0
 15 16  1  0
 15 17  2  0
 17 18  1  0
 18 19  2  0
 20 21  1  0
 21 22  1  1
 22 23  1  0
 23 24  1  0
 24 25  2  0
 24 26  1  1
 24 27  1  0
 27 28  1  0
 28 29  1  6
 28 30  2  0
 28 31  1  0
 31 32  1  0
 32 33  1  0
 33 34  1  6
 33 35  1  0
 33 36  1  0
 36 37  1  6
 36 38  1  0
 38 39  2  0
 38 40  1  0
 40 41  1  0
 41 42  1  0
 42 43  1  0
 43 44  2  0
 43 45  1  0
 45 46  1  0
 46 47  1  0
 47 48  1  0
 48 49  1  0
 49 50  2  0
 49 51  1  0
 51 52  1  1
 51 53  1  0
 53 54  2  0
 53 55  1  6
 53 56  2  0
M  END
$$$$
