
     RDKit          3D

 56 58  0  0  0  0  0  0  0  0999 V2000
   21.6950   28.9858   17.9753 O   0  0  0  0  0  0  0  0  0  0  0  0
   20.7481   28.2189   16.7945 P   0  0  1  0  0  5  0  0  0  0  0  0
   19.4316   29.2349   16.4574 O   0  0  0  0  0  0  0  0  0  0  0  0
   21.5359   27.8992   15.5521 O   0  0  0  0  0  0  0  0  0  0  0  0
   20.1984   26.7655   17.4546 O   0  0  0  0  0  0  0  0  0  0  0  0
   21.2619   25.9345   17.8262 C   0  0  1  0  0  0  0  0  0  0  0  0
   21.1853   25.7891   19.3334 C   0  0  1  0  0  0  0  0  0  0  0  0
   20.6255   26.9116   19.9358 O   0  0  0  0  0  0  0  0  0  0  0  0
   20.2747   24.5826   19.4382 C   0  0  2  0  0  0  0  0  0  0  0  0
   20.2021   24.0224   20.7413 N   0  0  0  0  0  0  0  0  0  0  0  0
   20.0300   24.7048   21.8758 C   0  0  0  0  0  0  0  0  0  0  0  0
   19.8830   26.0016   22.1278 N   0  0  0  0  0  0  0  0  0  0  0  0
   19.7239   26.4517   23.3724 C   0  0  0  0  0  0  0  0  0  0  0  0
   19.7021   25.6152   24.4513 N   0  0  0  0  0  0  0  0  0  0  0  0
   19.8459   24.2951   24.2534 C   0  0  0  0  0  0  0  0  0  0  0  0
   19.8254   23.4247   25.3704 N   0  0  0  0  0  0  0  0  0  0  0  0
   20.0099   23.8418   22.9617 C   0  0  0  0  0  0  0  0  0  0  0  0
   20.1768   22.6103   22.4338 N   0  0  0  0  0  0  0  0  0  0  0  0
   20.2933   22.7247   21.0833 C   0  0  0  0  0  0  0  0  0  0  0  0
   20.8745   23.7418   18.5006 O   0  0  0  0  0  0  0  0  0  0  0  0
   21.0661   24.5115   17.3660 C   0  0  2  0  0  0  0  0  0  0  0  0
   22.1989   24.0528   16.5079 C   0  0  0  0  0  0  0  0  0  0  0  0
   23.2815   23.5920   17.2936 O   0  0  0  0  0  0  0  0  0  0  0  0
   23.4754   21.9115   17.0607 P   0  0  2  0  0  5  0  0  0  0  0  0
   24.2741   21.3421   18.2158 O   0  0  0  0  0  0  0  0  0  0  0  0
   24.4061   21.7057   15.6681 O   0  0  0  0  0  0  0  0  0  0  0  0
   21.9498   21.2419   16.9414 O   0  0  0  0  0  0  0  0  0  0  0  0
   21.8730   19.6545   17.5198 P   0  0  1  0  0  5  0  0  0  0  0  0
   21.4320   19.6431   19.1702 O   0  0  0  0  0  0  0  0  0  0  0  0
   20.8895   18.8043   16.7913 O   0  0  0  0  0  0  0  0  0  0  0  0
   23.4417   19.0284   17.4425 O   0  0  0  0  0  0  0  0  0  0  0  0
   23.4099   17.6567   17.7384 C   0  0  0  0  0  0  0  0  0  0  0  0
   24.8219   17.0902   17.7046 C   0  0  1  0  0  0  0  0  0  0  0  0
   24.7642   15.6438   18.1476 C   0  0  0  0  0  0  0  0  0  0  0  0
   25.2800   17.1271   16.2802 C   0  0  0  0  0  0  0  0  0  0  0  0
   25.6762   17.9232   18.6077 C   0  0  1  0  0  0  0  0  0  0  0  0
   25.0846   18.0222   19.8488 O   0  0  0  0  0  0  0  0  0  0  0  0
   27.0519   17.4378   18.7313 C   0  0  0  0  0  0  0  0  0  0  0  0
   28.0194   18.1944   18.9837 O   0  0  0  0  0  0  0  0  0  0  0  0
   27.3402   16.0575   18.5647 N   0  0  0  0  0  0  0  0  0  0  0  0
   28.5388   15.4308   19.0276 C   0  0  0  0  0  0  0  0  0  0  0  0
   29.7374   15.7125   18.1646 C   0  0  0  0  0  0  0  0  0  0  0  0
   30.1673   14.5004   17.4029 C   0  0  0  0  0  0  0  0  0  0  0  0
   29.3107   13.6038   17.2304 O   0  0  0  0  0  0  0  0  0  0  0  0
   31.4581   14.3336   16.8886 N   0  0  0  0  0  0  0  0  0  0  0  0
   31.9090   13.2410   16.0619 C   0  0  0  0  0  0  0  0  0  0  0  0
   31.7930   13.6610   14.6137 C   0  0  0  0  0  0  0  0  0  0  0  0
   32.8148   13.0807   13.7751 N   0  0  0  0  0  0  0  0  0  0  0  0
   33.1190   13.6840   12.5273 C   0  0  0  0  0  0  0  0  0  0  0  0
   32.6010   14.7550   12.1171 O   0  0  0  0  0  0  0  0  0  0  0  0
   34.1126   13.0121   11.6420 C   0  0  1  0  0  0  0  0  0  0  0  0
   33.9294   13.4962   10.2209 C   0  0  0  0  0  0  0  0  0  0  0  0
   35.7513   13.3526   12.2394 S   0  0  1  0  0  6  0  0  0  0  0  0
   36.7564   13.0104   11.1920 O   0  0  0  0  0  0  0  0  0  0  0  0
   35.8477   15.0209   12.5125 O   0  0  0  0  0  0  0  0  0  0  0  0
   36.0435   12.6090   13.4901 O   0  0  0  0  0  0  0  0  0  0  0  0
  2  1  1  1
  2  3  1  0
  2  4  2  0
  2  5  1  0
  6  5  1  6
  6  7  1  0
  6 21  1  0
  7  8  1  1
  7  9  1  0
  9 10  1  1
  9 20  1  0
 10 11  1  0
 10 19  1  0
 11 12  2  0
 11 17  1  0
 12 13  1  0
 13 14  2  0
 14 15  1  0
 15 16  1  0
 15 17  2  0
 17 18  1  0
 18 19  2  0
 20 21  1  0
 21 22  1  1
 22 23  1  0
 23 24  1  0
 24 25  2  0
 24 26  1  6
 24 27  1  0
 27 28  1  0
 28 29  1  1
 28 30  2  0
 28 31  1  0
 31 32  1  0
 32 33  1  0
 33 34  1  1
 33 35  1  0
 33 36  1  0
 36 37  1  1
 36 38  1  0
 38 39  2  0
 38 40  1  0
 40 41  1  0
 41 42  1  0
 42 43  1  0
 43 44  2  0
 43 45  1  0
 45 46  1  0
 46 47  1  0
 47 48  1  0
 48 49  1  0
 49 50  2  0
 49 51  1  0
 51 52  1  6
 51 53  1  0
 53 54  2  0
 53 55  1  1
 53 56  2  0
M  END
$$$$
