
     RDKit          3D

 56 58  0  0  0  0  0  0  0  0999 V2000
   20.7518   24.1249   14.9478 O   0  0  0  0  0  0  0  0  0  0  0  0
   21.3848   25.1514   13.7542 P   0  0  1  0  0  5  0  0  0  0  0  0
   23.0087   24.7197   13.5191 O   0  0  0  0  0  0  0  0  0  0  0  0
   20.6004   25.0843   12.4710 O   0  0  0  0  0  0  0  0  0  0  0  0
   21.2893   26.7303   14.3445 O   0  0  0  0  0  0  0  0  0  0  0  0
   21.7819   26.8215   15.6515 C   0  0  1  0  0  0  0  0  0  0  0  0
   22.5334   28.1357   15.7351 C   0  0  1  0  0  0  0  0  0  0  0  0
   23.0755   28.5031   14.5073 O   0  0  0  0  0  0  0  0  0  0  0  0
   21.4073   29.0601   16.1510 C   0  0  2  0  0  0  0  0  0  0  0  0
   21.8378   30.3482   16.5663 N   0  0  0  0  0  0  0  0  0  0  0  0
   22.4902   31.2344   15.8104 C   0  0  0  0  0  0  0  0  0  0  0  0
   22.9050   31.2021   14.5480 N   0  0  0  0  0  0  0  0  0  0  0  0
   23.5514   32.2334   14.0046 C   0  0  0  0  0  0  0  0  0  0  0  0
   23.8225   33.3732   14.7058 N   0  0  0  0  0  0  0  0  0  0  0  0
   23.4254   33.4592   15.9855 C   0  0  0  0  0  0  0  0  0  0  0  0
   23.7062   34.6394   16.7162 N   0  0  0  0  0  0  0  0  0  0  0  0
   22.7579   32.3859   16.5362 C   0  0  0  0  0  0  0  0  0  0  0  0
   22.2389   32.1565   17.7614 N   0  0  0  0  0  0  0  0  0  0  0  0
   21.6804   30.9161   17.7754 C   0  0  0  0  0  0  0  0  0  0  0  0
   20.8364   28.3041   17.1750 O   0  0  0  0  0  0  0  0  0  0  0  0
   20.6842   27.0259   16.6656 C   0  0  2  0  0  0  0  0  0  0  0  0
   20.6937   25.9548   17.7061 C   0  0  0  0  0  0  0  0  0  0  0  0
   21.4685   26.3373   18.8264 O   0  0  0  0  0  0  0  0  0  0  0  0
   20.7773   25.6815   20.2435 P   0  0  2  0  0  5  0  0  0  0  0  0
   19.8723   26.7189   20.8769 O   0  0  0  0  0  0  0  0  0  0  0  0
   22.0387   25.3985   21.3282 O   0  0  0  0  0  0  0  0  0  0  0  0
   19.9574   24.2934   19.8061 O   0  0  0  0  0  0  0  0  0  0  0  0
   20.9459   22.9217   19.7662 P   0  0  1  0  0  5  0  0  0  0  0  0
   20.4785   21.8881   18.4889 O   0  0  0  0  0  0  0  0  0  0  0  0
   22.3903   23.2363   19.5772 O   0  0  0  0  0  0  0  0  0  0  0  0
   20.6585   22.0687   21.1975 O   0  0  0  0  0  0  0  0  0  0  0  0
   20.8145   20.6944   20.9591 C   0  0  0  0  0  0  0  0  0  0  0  0
   22.1298   20.2148   21.5557 C   0  0  1  0  0  0  0  0  0  0  0  0
   22.4070   21.0222   22.8058 C   0  0  0  0  0  0  0  0  0  0  0  0
   21.9405   18.7843   21.9529 C   0  0  0  0  0  0  0  0  0  0  0  0
   23.1977   20.3907   20.5222 C   0  0  1  0  0  0  0  0  0  0  0  0
   24.4004   19.9270   21.0106 O   0  0  0  0  0  0  0  0  0  0  0  0
   22.8862   19.7588   19.2388 C   0  0  0  0  0  0  0  0  0  0  0  0
   22.3556   20.3790   18.2870 O   0  0  0  0  0  0  0  0  0  0  0  0
   23.1838   18.3866   19.0270 N   0  0  0  0  0  0  0  0  0  0  0  0
   24.1006   17.9121   18.0381 C   0  0  0  0  0  0  0  0  0  0  0  0
   24.2459   16.4156   18.0206 C   0  0  0  0  0  0  0  0  0  0  0  0
   23.4431   15.7950   16.9233 C   0  0  0  0  0  0  0  0  0  0  0  0
   23.6439   16.2185   15.7623 O   0  0  0  0  0  0  0  0  0  0  0  0
   22.4991   14.7845   17.1384 N   0  0  0  0  0  0  0  0  0  0  0  0
   21.7012   14.1371   16.1262 C   0  0  0  0  0  0  0  0  0  0  0  0
   22.4384   12.9030   15.6567 C   0  0  0  0  0  0  0  0  0  0  0  0
   21.5605   11.7867   15.3975 N   0  0  0  0  0  0  0  0  0  0  0  0
   21.4510   11.2770   14.0777 C   0  0  0  0  0  0  0  0  0  0  0  0
   22.0978   11.7220   13.0942 O   0  0  0  0  0  0  0  0  0  0  0  0
   20.5127   10.1445   13.8340 C   0  0  1  0  0  0  0  0  0  0  0  0
   21.1204    9.1950   12.8258 C   0  0  0  0  0  0  0  0  0  0  0  0
   20.1715    9.3270   15.3746 S   0  0  1  0  0  6  0  0  0  0  0  0
   19.1131    8.2945   15.1796 O   0  0  0  0  0  0  0  0  0  0  0  0
   21.5878    8.5236   15.8392 O   0  0  0  0  0  0  0  0  0  0  0  0
   19.7583   10.2899   16.4255 O   0  0  0  0  0  0  0  0  0  0  0  0
  2  1  1  1
  2  3  1  0
  2  4  2  0
  2  5  1  0
  6  5  1  6
  6  7  1  0
  6 21  1  0
  7  8  1  6
  7  9  1  0
  9 10  1  1
  9 20  1  0
 10 11  1  0
 10 19  1  0
 11 12  2  0
 11 17  1  0
 12 13  1  0
 13 14  2  0
 14 15  1  0
 15 16  1  0
 15 17  2  0
 17 18  1  0
 18 19  2  0
 20 21  1  0
 21 22  1  1
 22 23  1  0
 23 24  1  0
 24 25  2  0
 24 26  1  1
 24 27  1  0
 27 28  1  0
 28 29  1  6
 28 30  2  0
 28 31  1  0
 31 32  1  0
 32 33  1  0
 33 34  1  1
 33 35  1  0
 33 36  1  0
 36 37  1  1
 36 38  1  0
 38 39  2  0
 38 40  1  0
 40 41  1  0
 41 42  1  0
 42 43  1  0
 43 44  2  0
 43 45  1  0
 45 46  1  0
 46 47  1  0
 47 48  1  0
 48 49  1  0
 49 50  2  0
 49 51  1  0
 51 52  1  6
 51 53  1  0
 53 54  2  0
 53 55  1  1
 53 56  2  0
M  END
$$$$
