
     RDKit          3D

 56 58  0  0  0  0  0  0  0  0999 V2000
   30.6014  -38.6894   27.0026 O   0  0  0  0  0  0  0  0  0  0  0  0
   29.3763  -37.5700   27.3564 P   0  0  1  0  0  5  0  0  0  0  0  0
   28.1423  -37.7856   26.2121 O   0  0  0  0  0  0  0  0  0  0  0  0
   28.8612  -37.7152   28.7635 O   0  0  0  0  0  0  0  0  0  0  0  0
   30.0428  -36.0267   27.1994 O   0  0  0  0  0  0  0  0  0  0  0  0
   30.5934  -35.5790   28.4060 C   0  0  1  0  0  0  0  0  0  0  0  0
   31.9697  -35.0368   28.0734 C   0  0  1  0  0  0  0  0  0  0  0  0
   32.5309  -35.6822   26.9758 O   0  0  0  0  0  0  0  0  0  0  0  0
   31.6195  -33.5965   27.7594 C   0  0  2  0  0  0  0  0  0  0  0  0
   32.7447  -32.7368   27.6500 N   0  0  0  0  0  0  0  0  0  0  0  0
   33.8270  -32.9592   26.9007 C   0  0  0  0  0  0  0  0  0  0  0  0
   34.1673  -33.9580   26.0924 N   0  0  0  0  0  0  0  0  0  0  0  0
   35.3290  -33.9552   25.4388 C   0  0  0  0  0  0  0  0  0  0  0  0
   36.2291  -32.9357   25.5596 N   0  0  0  0  0  0  0  0  0  0  0  0
   35.9355  -31.9010   26.3633 C   0  0  0  0  0  0  0  0  0  0  0  0
   36.8676  -30.8425   26.4920 N   0  0  0  0  0  0  0  0  0  0  0  0
   34.7310  -31.9156   27.0339 C   0  0  0  0  0  0  0  0  0  0  0  0
   34.1477  -31.0544   27.8948 N   0  0  0  0  0  0  0  0  0  0  0  0
   32.9399  -31.5576   28.2670 C   0  0  0  0  0  0  0  0  0  0  0  0
   30.7951  -33.3032   28.8459 O   0  0  0  0  0  0  0  0  0  0  0  0
   29.8949  -34.3512   28.9349 C   0  0  2  0  0  0  0  0  0  0  0  0
   29.3615  -34.5751   30.3116 C   0  0  0  0  0  0  0  0  0  0  0  0
   30.1241  -33.8748   31.2756 O   0  0  0  0  0  0  0  0  0  0  0  0
   29.7613  -34.4774   32.8317 P   0  0  2  0  0  5  0  0  0  0  0  0
   30.5072  -35.7794   33.0431 O   0  0  0  0  0  0  0  0  0  0  0  0
   28.1140  -34.8432   32.8526 O   0  0  0  0  0  0  0  0  0  0  0  0
   30.1917  -33.3023   33.9380 O   0  0  0  0  0  0  0  0  0  0  0  0
   29.8589  -31.7323   33.4042 P   0  0  1  0  0  5  0  0  0  0  0  0
   28.6759  -31.7608   32.1721 O   0  0  0  0  0  0  0  0  0  0  0  0
   29.3566  -30.8333   34.4815 O   0  0  0  0  0  0  0  0  0  0  0  0
   31.2752  -31.1468   32.6902 O   0  0  0  0  0  0  0  0  0  0  0  0
   31.0375  -29.8660   32.1677 C   0  0  0  0  0  0  0  0  0  0  0  0
   32.3467  -29.2528   31.6929 C   0  0  1  0  0  0  0  0  0  0  0  0
   32.6855  -29.8438   30.3410 C   0  0  0  0  0  0  0  0  0  0  0  0
   32.1108  -27.7853   31.5180 C   0  0  0  0  0  0  0  0  0  0  0  0
   33.3956  -29.5509   32.7178 C   0  0  1  0  0  0  0  0  0  0  0  0
   34.5032  -30.0978   32.1063 O   0  0  0  0  0  0  0  0  0  0  0  0
   33.7753  -28.3917   33.5275 C   0  0  0  0  0  0  0  0  0  0  0  0
   34.3482  -28.4967   34.6379 O   0  0  0  0  0  0  0  0  0  0  0  0
   33.4990  -27.0772   33.0671 N   0  0  0  0  0  0  0  0  0  0  0  0
   32.7069  -26.1294   33.7867 C   0  0  0  0  0  0  0  0  0  0  0  0
   32.8207  -26.2601   35.2802 C   0  0  0  0  0  0  0  0  0  0  0  0
   33.3079  -24.9953   35.9103 C   0  0  0  0  0  0  0  0  0  0  0  0
   33.5032  -24.0199   35.1501 O   0  0  0  0  0  0  0  0  0  0  0  0
   33.5483  -24.8631   37.2827 N   0  0  0  0  0  0  0  0  0  0  0  0
   33.6905  -23.6229   38.0051 C   0  0  0  0  0  0  0  0  0  0  0  0
   34.0529  -23.9457   39.4374 C   0  0  0  0  0  0  0  0  0  0  0  0
   33.0346  -23.5471   40.3799 N   0  0  0  0  0  0  0  0  0  0  0  0
   32.3319  -24.5409   41.1095 C   0  0  0  0  0  0  0  0  0  0  0  0
   32.5104  -25.7784   40.9671 O   0  0  0  0  0  0  0  0  0  0  0  0
   31.3172  -24.0981   42.1080 C   0  0  1  0  0  0  0  0  0  0  0  0
   31.2451  -22.5874   42.1166 C   0  0  0  0  0  0  0  0  0  0  0  0
   29.7456  -24.8225   41.7039 S   0  0  1  0  0  6  0  0  0  0  0  0
   29.7538  -25.3014   40.2915 O   0  0  0  0  0  0  0  0  0  0  0  0
   29.5481  -26.1774   42.7002 O   0  0  0  0  0  0  0  0  0  0  0  0
   28.6315  -23.8644   41.9120 O   0  0  0  0  0  0  0  0  0  0  0  0
  2  1  1  6
  2  3  1  0
  2  4  2  0
  2  5  1  0
  6  5  1  6
  6  7  1  0
  6 21  1  0
  7  8  1  6
  7  9  1  0
  9 10  1  1
  9 20  1  0
 10 11  1  0
 10 19  1  0
 11 12  2  0
 11 17  1  0
 12 13  1  0
 13 14  2  0
 14 15  1  0
 15 16  1  0
 15 17  2  0
 17 18  1  0
 18 19  2  0
 20 21  1  0
 21 22  1  1
 22 23  1  0
 23 24  1  0
 24 25  2  0
 24 26  1  6
 24 27  1  0
 27 28  1  0
 28 29  1  6
 28 30  2  0
 28 31  1  0
 31 32  1  0
 32 33  1  0
 33 34  1  6
 33 35  1  0
 33 36  1  0
 36 37  1  6
 36 38  1  0
 38 39  2  0
 38 40  1  0
 40 41  1  0
 41 42  1  0
 42 43  1  0
 43 44  2  0
 43 45  1  0
 45 46  1  0
 46 47  1  0
 47 48  1  0
 48 49  1  0
 49 50  2  0
 49 51  1  0
 51 52  1  6
 51 53  1  0
 53 54  2  0
 53 55  1  1
 53 56  2  0
M  END
$$$$
