
     RDKit          3D

 56 58  0  0  0  0  0  0  0  0999 V2000
   16.3821   22.0979   21.9852 O   0  0  0  0  0  0  0  0  0  0  0  0
   16.0827   23.1832   20.7157 P   0  0  1  0  0  5  0  0  0  0  0  0
   15.7853   22.2658   19.3197 O   0  0  0  0  0  0  0  0  0  0  0  0
   14.9415   24.1162   21.0213 O   0  0  0  0  0  0  0  0  0  0  0  0
   17.4771   24.1120   20.5070 O   0  0  0  0  0  0  0  0  0  0  0  0
   18.5026   23.3726   19.9061 C   0  0  1  0  0  0  0  0  0  0  0  0
   19.3829   24.3720   19.1815 C   0  0  1  0  0  0  0  0  0  0  0  0
   18.6640   25.4847   18.7558 O   0  0  0  0  0  0  0  0  0  0  0  0
   20.3556   24.7219   20.2892 C   0  0  2  0  0  0  0  0  0  0  0  0
   21.4865   25.4633   19.8551 N   0  0  0  0  0  0  0  0  0  0  0  0
   21.5446   26.2313   18.7646 C   0  0  0  0  0  0  0  0  0  0  0  0
   20.6501   26.5237   17.8259 N   0  0  0  0  0  0  0  0  0  0  0  0
   20.9508   27.3333   16.8106 C   0  0  0  0  0  0  0  0  0  0  0  0
   22.1834   27.9051   16.6765 N   0  0  0  0  0  0  0  0  0  0  0  0
   23.1250   27.6436   17.5973 C   0  0  0  0  0  0  0  0  0  0  0  0
   24.4051   28.2338   17.4605 N   0  0  0  0  0  0  0  0  0  0  0  0
   22.8019   26.8047   18.6425 C   0  0  0  0  0  0  0  0  0  0  0  0
   23.4991   26.3502   19.7058 N   0  0  0  0  0  0  0  0  0  0  0  0
   22.6954   25.5347   20.4405 C   0  0  0  0  0  0  0  0  0  0  0  0
   20.6688   23.4437   20.7519 O   0  0  0  0  0  0  0  0  0  0  0  0
   19.4591   22.7913   20.9171 C   0  0  2  0  0  0  0  0  0  0  0  0
   19.5509   21.3060   20.7929 C   0  0  0  0  0  0  0  0  0  0  0  0
   20.8637   20.8508   21.0592 O   0  0  0  0  0  0  0  0  0  0  0  0
   21.4696   20.0348   19.6870 P   0  0  2  0  0  5  0  0  0  0  0  0
   21.1950   18.5516   19.8336 O   0  0  0  0  0  0  0  0  0  0  0  0
   23.1459   20.2293   19.6914 O   0  0  0  0  0  0  0  0  0  0  0  0
   20.7307   20.6961   18.3428 O   0  0  0  0  0  0  0  0  0  0  0  0
   21.5119   20.3055   16.8946 P   0  0  1  0  0  5  0  0  0  0  0  0
   20.8538   18.8760   16.2300 O   0  0  0  0  0  0  0  0  0  0  0  0
   21.4036   21.3690   15.8562 O   0  0  0  0  0  0  0  0  0  0  0  0
   23.1189   19.9527   17.2844 O   0  0  0  0  0  0  0  0  0  0  0  0
   23.8982   21.1106   17.1366 C   0  0  0  0  0  0  0  0  0  0  0  0
   25.3549   20.7928   17.4414 C   0  0  1  0  0  0  0  0  0  0  0  0
   26.0051   22.0385   18.0046 C   0  0  0  0  0  0  0  0  0  0  0  0
   25.3654   19.7370   18.5021 C   0  0  0  0  0  0  0  0  0  0  0  0
   26.0054   20.3419   16.1714 C   0  0  1  0  0  0  0  0  0  0  0  0
   26.9096   21.2921   15.7476 O   0  0  0  0  0  0  0  0  0  0  0  0
   26.6473   19.0298   16.2711 C   0  0  0  0  0  0  0  0  0  0  0  0
   26.0952   17.9722   15.8854 O   0  0  0  0  0  0  0  0  0  0  0  0
   27.9504   18.9120   16.8225 N   0  0  0  0  0  0  0  0  0  0  0  0
   28.9238   17.9653   16.3754 C   0  0  0  0  0  0  0  0  0  0  0  0
   28.7024   16.5768   16.9082 C   0  0  0  0  0  0  0  0  0  0  0  0
   29.9281   15.7318   16.7756 C   0  0  0  0  0  0  0  0  0  0  0  0
   31.0066   16.3260   16.5493 O   0  0  0  0  0  0  0  0  0  0  0  0
   29.9165   14.3372   16.8915 N   0  0  0  0  0  0  0  0  0  0  0  0
   31.0563   13.4978   17.1683 C   0  0  0  0  0  0  0  0  0  0  0  0
   32.1639   13.8678   16.2074 C   0  0  0  0  0  0  0  0  0  0  0  0
   33.4174   13.2219   16.5167 N   0  0  0  0  0  0  0  0  0  0  0  0
   34.1871   12.6542   15.4683 C   0  0  0  0  0  0  0  0  0  0  0  0
   33.8510   12.6754   14.2558 O   0  0  0  0  0  0  0  0  0  0  0  0
   35.4746   11.9892   15.8183 C   0  0  1  0  0  0  0  0  0  0  0  0
   35.4898   11.6674   17.2960 C   0  0  0  0  0  0  0  0  0  0  0  0
   35.6620   10.5235   14.8311 S   0  0  1  0  0  6  0  0  0  0  0  0
   36.8915    9.7863   15.2425 O   0  0  0  0  0  0  0  0  0  0  0  0
   34.3348    9.5250   15.1608 O   0  0  0  0  0  0  0  0  0  0  0  0
   35.7183   10.8425   13.3828 O   0  0  0  0  0  0  0  0  0  0  0  0
  2  1  1  1
  2  3  1  0
  2  4  2  0
  2  5  1  0
  6  5  1  1
  6  7  1  0
  6 21  1  0
  7  8  1  1
  7  9  1  0
  9 10  1  6
  9 20  1  0
 10 11  1  0
 10 19  1  0
 11 12  2  0
 11 17  1  0
 12 13  1  0
 13 14  2  0
 14 15  1  0
 15 16  1  0
 15 17  2  0
 17 18  1  0
 18 19  2  0
 20 21  1  0
 21 22  1  6
 22 23  1  0
 23 24  1  0
 24 25  2  0
 24 26  1  6
 24 27  1  0
 27 28  1  0
 28 29  1  6
 28 30  2  0
 28 31  1  0
 31 32  1  0
 32 33  1  0
 33 34  1  1
 33 35  1  0
 33 36  1  0
 36 37  1  1
 36 38  1  0
 38 39  2  0
 38 40  1  0
 40 41  1  0
 41 42  1  0
 42 43  1  0
 43 44  2  0
 43 45  1  0
 45 46  1  0
 46 47  1  0
 47 48  1  0
 48 49  1  0
 49 50  2  0
 49 51  1  0
 51 52  1  1
 51 53  1  0
 53 54  2  0
 53 55  1  6
 53 56  2  0
M  END
$$$$
