
     RDKit          3D

 56 58  0  0  0  0  0  0  0  0999 V2000
   22.5993   24.0390   17.4062 O   0  0  0  0  0  0  0  0  0  0  0  0
   20.9895   24.0155   16.8703 P   0  0  1  0  0  5  0  0  0  0  0  0
   20.7842   25.3276   15.8142 O   0  0  0  0  0  0  0  0  0  0  0  0
   20.6271   22.7107   16.2126 O   0  0  0  0  0  0  0  0  0  0  0  0
   20.0035   24.2098   18.2270 O   0  0  0  0  0  0  0  0  0  0  0  0
   20.4570   23.4427   19.3065 C   0  0  1  0  0  0  0  0  0  0  0  0
   20.9513   24.4240   20.3513 C   0  0  1  0  0  0  0  0  0  0  0  0
   21.4288   25.5979   19.7766 O   0  0  0  0  0  0  0  0  0  0  0  0
   19.6691   24.6581   21.1239 C   0  0  2  0  0  0  0  0  0  0  0  0
   19.8494   25.3525   22.3498 N   0  0  0  0  0  0  0  0  0  0  0  0
   19.8631   26.6789   22.5008 C   0  0  0  0  0  0  0  0  0  0  0  0
   19.7239   27.6803   21.6379 N   0  0  0  0  0  0  0  0  0  0  0  0
   19.7773   28.9510   22.0370 C   0  0  0  0  0  0  0  0  0  0  0  0
   19.9758   29.2955   23.3433 N   0  0  0  0  0  0  0  0  0  0  0  0
   20.1224   28.3229   24.2571 C   0  0  0  0  0  0  0  0  0  0  0  0
   20.3300   28.6767   25.6126 N   0  0  0  0  0  0  0  0  0  0  0  0
   20.0654   27.0126   23.8319 C   0  0  0  0  0  0  0  0  0  0  0  0
   20.1725   25.8313   24.4770 N   0  0  0  0  0  0  0  0  0  0  0  0
   20.0407   24.8243   23.5719 C   0  0  0  0  0  0  0  0  0  0  0  0
   19.2374   23.3415   21.2852 O   0  0  0  0  0  0  0  0  0  0  0  0
   19.3298   22.7543   20.0350 C   0  0  2  0  0  0  0  0  0  0  0  0
   19.5265   21.2746   20.0746 C   0  0  0  0  0  0  0  0  0  0  0  0
   20.0700   20.7983   18.8583 O   0  0  0  0  0  0  0  0  0  0  0  0
   19.1401   19.4790   18.3006 P   0  0  2  0  0  5  0  0  0  0  0  0
   17.9746   19.2626   19.2447 O   0  0  0  0  0  0  0  0  0  0  0  0
   20.1157   18.1055   18.3977 O   0  0  0  0  0  0  0  0  0  0  0  0
   18.6497   19.8331   16.7436 O   0  0  0  0  0  0  0  0  0  0  0  0
   19.7770   19.3721   15.5701 P   0  0  1  0  0  5  0  0  0  0  0  0
   19.7854   17.6735   15.3877 O   0  0  0  0  0  0  0  0  0  0  0  0
   19.5110   19.9617   14.2276 O   0  0  0  0  0  0  0  0  0  0  0  0
   21.3029   19.7941   16.1638 O   0  0  0  0  0  0  0  0  0  0  0  0
   21.5282   19.1311   17.3802 C   0  0  0  0  0  0  0  0  0  0  0  0
   23.0201   19.0955   17.6782 C   0  0  1  0  0  0  0  0  0  0  0  0
   23.2979   20.0416   18.8268 C   0  0  0  0  0  0  0  0  0  0  0  0
   23.3495   17.7055   18.1245 C   0  0  0  0  0  0  0  0  0  0  0  0
   23.7500   19.4904   16.4329 C   0  0  1  0  0  0  0  0  0  0  0  0
   24.3740   20.7046   16.6232 O   0  0  0  0  0  0  0  0  0  0  0  0
   24.7092   18.4867   15.9681 C   0  0  0  0  0  0  0  0  0  0  0  0
   24.4110   17.5943   15.1394 O   0  0  0  0  0  0  0  0  0  0  0  0
   26.0430   18.4937   16.4550 N   0  0  0  0  0  0  0  0  0  0  0  0
   27.0737   17.6292   15.9717 C   0  0  0  0  0  0  0  0  0  0  0  0
   27.3115   16.4287   16.8452 C   0  0  0  0  0  0  0  0  0  0  0  0
   28.7588   16.0586   16.8941 C   0  0  0  0  0  0  0  0  0  0  0  0
   29.5323   16.6864   16.1357 O   0  0  0  0  0  0  0  0  0  0  0  0
   29.2694   15.0621   17.7337 N   0  0  0  0  0  0  0  0  0  0  0  0
   30.6642   14.7997   17.9908 C   0  0  0  0  0  0  0  0  0  0  0  0
   31.3654   14.6124   16.6641 C   0  0  0  0  0  0  0  0  0  0  0  0
   32.1339   13.3920   16.6002 N   0  0  0  0  0  0  0  0  0  0  0  0
   32.9967   13.1678   15.4961 C   0  0  0  0  0  0  0  0  0  0  0  0
   33.2589   14.0318   14.6194 O   0  0  0  0  0  0  0  0  0  0  0  0
   33.6348   11.8274   15.3598 C   0  0  1  0  0  0  0  0  0  0  0  0
   34.4625   11.7901   14.0945 C   0  0  0  0  0  0  0  0  0  0  0  0
   34.6284   11.5048   16.7974 S   0  0  1  0  0  6  0  0  0  0  0  0
   35.5699   10.3809   16.5238 O   0  0  0  0  0  0  0  0  0  0  0  0
   35.5585   12.8904   17.0841 O   0  0  0  0  0  0  0  0  0  0  0  0
   33.7915   11.1929   17.9825 O   0  0  0  0  0  0  0  0  0  0  0  0
  2  1  1  1
  2  3  1  0
  2  4  2  0
  2  5  1  0
  6  5  1  6
  6  7  1  0
  6 21  1  0
  7  8  1  6
  7  9  1  0
  9 10  1  1
  9 20  1  0
 10 11  1  0
 10 19  1  0
 11 12  2  0
 11 17  1  0
 12 13  1  0
 13 14  2  0
 14 15  1  0
 15 16  1  0
 15 17  2  0
 17 18  1  0
 18 19  2  0
 20 21  1  0
 21 22  1  1
 22 23  1  0
 23 24  1  0
 24 25  2  0
 24 26  1  6
 24 27  1  0
 27 28  1  0
 28 29  1  6
 28 30  2  0
 28 31  1  0
 31 32  1  0
 32 33  1  0
 33 34  1  1
 33 35  1  0
 33 36  1  0
 36 37  1  1
 36 38  1  0
 38 39  2  0
 38 40  1  0
 40 41  1  0
 41 42  1  0
 42 43  1  0
 43 44  2  0
 43 45  1  0
 45 46  1  0
 46 47  1  0
 47 48  1  0
 48 49  1  0
 49 50  2  0
 49 51  1  0
 51 52  1  6
 51 53  1  0
 53 54  2  0
 53 55  1  1
 53 56  2  0
M  END
$$$$
