
     RDKit          3D

 56 58  0  0  0  0  0  0  0  0999 V2000
   31.4589  -37.8023   32.7832 O   0  0  0  0  0  0  0  0  0  0  0  0
   31.9335  -37.1657   34.2827 P   0  0  1  0  0  5  0  0  0  0  0  0
   30.8887  -37.7996   35.4597 O   0  0  0  0  0  0  0  0  0  0  0  0
   33.3744  -37.4661   34.5986 O   0  0  0  0  0  0  0  0  0  0  0  0
   31.7545  -35.4890   34.1981 O   0  0  0  0  0  0  0  0  0  0  0  0
   30.4157  -35.1232   34.0157 C   0  0  1  0  0  0  0  0  0  0  0  0
   30.1118  -34.0730   35.0663 C   0  0  1  0  0  0  0  0  0  0  0  0
   30.8827  -34.2460   36.2118 O   0  0  0  0  0  0  0  0  0  0  0  0
   30.5028  -32.8195   34.3103 C   0  0  2  0  0  0  0  0  0  0  0  0
   30.0953  -31.6126   34.9385 N   0  0  0  0  0  0  0  0  0  0  0  0
   30.7756  -30.9545   35.8799 C   0  0  0  0  0  0  0  0  0  0  0  0
   31.9409  -31.1912   36.4739 N   0  0  0  0  0  0  0  0  0  0  0  0
   32.4221  -30.3701   37.4072 C   0  0  0  0  0  0  0  0  0  0  0  0
   31.7530  -29.2479   37.8039 N   0  0  0  0  0  0  0  0  0  0  0  0
   30.5708  -28.9610   37.2359 C   0  0  0  0  0  0  0  0  0  0  0  0
   29.8735  -27.7985   37.6461 N   0  0  0  0  0  0  0  0  0  0  0  0
   30.0836  -29.8179   36.2720 C   0  0  0  0  0  0  0  0  0  0  0  0
   28.9577  -29.8185   35.5267 N   0  0  0  0  0  0  0  0  0  0  0  0
   28.9688  -30.9118   34.7172 C   0  0  0  0  0  0  0  0  0  0  0  0
   29.8649  -33.0595   33.0931 O   0  0  0  0  0  0  0  0  0  0  0  0
   30.2001  -34.3543   32.7361 C   0  0  2  0  0  0  0  0  0  0  0  0
   29.1909  -35.0209   31.8603 C   0  0  0  0  0  0  0  0  0  0  0  0
   27.8947  -34.5010   32.0864 O   0  0  0  0  0  0  0  0  0  0  0  0
   27.5901  -33.2374   30.9789 P   0  0  2  0  0  5  0  0  0  0  0  0
   27.0943  -32.0237   31.7390 O   0  0  0  0  0  0  0  0  0  0  0  0
   26.3279  -33.7439   29.9799 O   0  0  0  0  0  0  0  0  0  0  0  0
   29.0107  -32.9421   30.1513 O   0  0  0  0  0  0  0  0  0  0  0  0
   28.8553  -31.7409   28.9708 P   0  0  1  0  0  5  0  0  0  0  0  0
   29.7725  -32.1440   27.5871 O   0  0  0  0  0  0  0  0  0  0  0  0
   27.4498  -31.5253   28.5249 O   0  0  0  0  0  0  0  0  0  0  0  0
   29.5476  -30.3358   29.6074 O   0  0  0  0  0  0  0  0  0  0  0  0
   30.7351  -30.0484   28.9166 C   0  0  0  0  0  0  0  0  0  0  0  0
   31.8942  -29.9631   29.8990 C   0  0  1  0  0  0  0  0  0  0  0  0
   31.5808  -30.8541   31.0821 C   0  0  0  0  0  0  0  0  0  0  0  0
   33.1030  -30.5100   29.2065 C   0  0  0  0  0  0  0  0  0  0  0  0
   32.0567  -28.5303   30.2993 C   0  0  1  0  0  0  0  0  0  0  0  0
   30.9801  -28.1346   31.0637 O   0  0  0  0  0  0  0  0  0  0  0  0
   33.3130  -28.2520   30.9976 C   0  0  0  0  0  0  0  0  0  0  0  0
   34.4310  -28.6015   30.5502 O   0  0  0  0  0  0  0  0  0  0  0  0
   33.3033  -27.5585   32.2366 N   0  0  0  0  0  0  0  0  0  0  0  0
   34.4730  -27.3034   33.0178 C   0  0  0  0  0  0  0  0  0  0  0  0
   35.1488  -26.0027   32.6828 C   0  0  0  0  0  0  0  0  0  0  0  0
   35.9490  -26.1034   31.4245 C   0  0  0  0  0  0  0  0  0  0  0  0
   35.8882  -27.1850   30.7970 O   0  0  0  0  0  0  0  0  0  0  0  0
   36.7437  -25.0613   30.9334 N   0  0  0  0  0  0  0  0  0  0  0  0
   37.6618  -25.1428   29.8239 C   0  0  0  0  0  0  0  0  0  0  0  0
   38.3804  -23.8176   29.7030 C   0  0  0  0  0  0  0  0  0  0  0  0
   39.3614  -23.8032   28.6440 N   0  0  0  0  0  0  0  0  0  0  0  0
   40.1420  -22.6373   28.4320 C   0  0  0  0  0  0  0  0  0  0  0  0
   40.1040  -21.6193   29.1709 O   0  0  0  0  0  0  0  0  0  0  0  0
   41.0663  -22.6097   27.2626 C   0  0  1  0  0  0  0  0  0  0  0  0
   41.0717  -21.2236   26.6576 C   0  0  0  0  0  0  0  0  0  0  0  0
   42.6918  -23.0953   27.7915 S   0  0  1  0  0  6  0  0  0  0  0  0
   43.6553  -22.9653   26.6604 O   0  0  0  0  0  0  0  0  0  0  0  0
   43.1716  -22.0075   28.9972 O   0  0  0  0  0  0  0  0  0  0  0  0
   42.7048  -24.4833   28.3165 O   0  0  0  0  0  0  0  0  0  0  0  0
  2  1  1  6
  2  3  1  0
  2  4  2  0
  2  5  1  0
  6  5  1  1
  6  7  1  0
  6 21  1  0
  7  8  1  1
  7  9  1  0
  9 10  1  1
  9 20  1  0
 10 11  1  0
 10 19  1  0
 11 12  2  0
 11 17  1  0
 12 13  1  0
 13 14  2  0
 14 15  1  0
 15 16  1  0
 15 17  2  0
 17 18  1  0
 18 19  2  0
 20 21  1  0
 21 22  1  1
 22 23  1  0
 23 24  1  0
 24 25  2  0
 24 26  1  6
 24 27  1  0
 27 28  1  0
 28 29  1  6
 28 30  2  0
 28 31  1  0
 31 32  1  0
 32 33  1  0
 33 34  1  1
 33 35  1  0
 33 36  1  0
 36 37  1  1
 36 38  1  0
 38 39  2  0
 38 40  1  0
 40 41  1  0
 41 42  1  0
 42 43  1  0
 43 44  2  0
 43 45  1  0
 45 46  1  0
 46 47  1  0
 47 48  1  0
 48 49  1  0
 49 50  2  0
 49 51  1  0
 51 52  1  1
 51 53  1  0
 53 54  2  0
 53 55  1  1
 53 56  2  0
M  END
$$$$
