
     RDKit          3D

 56 58  0  0  0  0  0  0  0  0999 V2000
   26.5971  -35.0660   33.6934 O   0  0  0  0  0  0  0  0  0  0  0  0
   25.5206  -34.6677   32.4437 P   0  0  1  0  0  5  0  0  0  0  0  0
   24.7440  -36.0980   31.9643 O   0  0  0  0  0  0  0  0  0  0  0  0
   24.5322  -33.6107   32.8587 O   0  0  0  0  0  0  0  0  0  0  0  0
   26.4370  -34.0547   31.1650 O   0  0  0  0  0  0  0  0  0  0  0  0
   27.6193  -33.4585   31.6189 C   0  0  1  0  0  0  0  0  0  0  0  0
   28.6442  -33.6472   30.5177 C   0  0  1  0  0  0  0  0  0  0  0  0
   28.4071  -34.8030   29.7800 O   0  0  0  0  0  0  0  0  0  0  0  0
   28.3895  -32.3972   29.7003 C   0  0  2  0  0  0  0  0  0  0  0  0
   29.3767  -32.1393   28.7123 N   0  0  0  0  0  0  0  0  0  0  0  0
   29.2933  -32.4682   27.4211 C   0  0  0  0  0  0  0  0  0  0  0  0
   28.3512  -33.0812   26.7117 N   0  0  0  0  0  0  0  0  0  0  0  0
   28.5010  -33.3025   25.4058 C   0  0  0  0  0  0  0  0  0  0  0  0
   29.6204  -32.9157   24.7262 N   0  0  0  0  0  0  0  0  0  0  0  0
   30.6036  -32.2918   25.3946 C   0  0  0  0  0  0  0  0  0  0  0  0
   31.7666  -31.8906   24.6931 N   0  0  0  0  0  0  0  0  0  0  0  0
   30.4368  -32.0689   26.7449 C   0  0  0  0  0  0  0  0  0  0  0  0
   31.2128  -31.4849   27.6829 N   0  0  0  0  0  0  0  0  0  0  0  0
   30.5643  -31.5298   28.8779 C   0  0  0  0  0  0  0  0  0  0  0  0
   28.3538  -31.4432   30.7175 O   0  0  0  0  0  0  0  0  0  0  0  0
   27.5132  -31.9556   31.6909 C   0  0  2  0  0  0  0  0  0  0  0  0
   27.8025  -31.4516   33.0665 C   0  0  0  0  0  0  0  0  0  0  0  0
   28.8975  -30.5557   33.0629 O   0  0  0  0  0  0  0  0  0  0  0  0
   29.5046  -30.3970   34.6511 P   0  0  2  0  0  5  0  0  0  0  0  0
   28.6458  -29.4062   35.4110 O   0  0  0  0  0  0  0  0  0  0  0  0
   31.0467  -29.7224   34.5300 O   0  0  0  0  0  0  0  0  0  0  0  0
   29.5002  -31.9166   35.3444 O   0  0  0  0  0  0  0  0  0  0  0  0
   31.0399  -32.4404   35.8086 P   0  0  1  0  0  5  0  0  0  0  0  0
   31.3417  -32.0298   37.4391 O   0  0  0  0  0  0  0  0  0  0  0  0
   31.2300  -33.9128   35.6788 O   0  0  0  0  0  0  0  0  0  0  0  0
   32.1540  -31.5669   34.8842 O   0  0  0  0  0  0  0  0  0  0  0  0
   31.9106  -30.1932   35.0384 C   0  0  0  0  0  0  0  0  0  0  0  0
   33.2203  -29.4652   35.3035 C   0  0  1  0  0  0  0  0  0  0  0  0
   33.0093  -27.9918   35.0273 C   0  0  0  0  0  0  0  0  0  0  0  0
   33.5324  -29.6304   36.7579 C   0  0  0  0  0  0  0  0  0  0  0  0
   34.2683  -30.0609   34.4167 C   0  0  1  0  0  0  0  0  0  0  0  0
   34.5137  -31.3636   34.7946 O   0  0  0  0  0  0  0  0  0  0  0  0
   33.9432  -29.9919   32.9909 C   0  0  0  0  0  0  0  0  0  0  0  0
   32.8509  -30.3921   32.5228 O   0  0  0  0  0  0  0  0  0  0  0  0
   34.8804  -29.4546   32.0695 N   0  0  0  0  0  0  0  0  0  0  0  0
   35.3796  -28.1164   32.1275 C   0  0  0  0  0  0  0  0  0  0  0  0
   36.3469  -27.7862   31.0247 C   0  0  0  0  0  0  0  0  0  0  0  0
   36.8557  -26.3854   31.1366 C   0  0  0  0  0  0  0  0  0  0  0  0
   37.1186  -25.9660   32.2866 O   0  0  0  0  0  0  0  0  0  0  0  0
   37.0445  -25.5456   30.0330 N   0  0  0  0  0  0  0  0  0  0  0  0
   38.0680  -24.5386   29.8965 C   0  0  0  0  0  0  0  0  0  0  0  0
   39.3542  -25.2201   29.4862 C   0  0  0  0  0  0  0  0  0  0  0  0
   40.5011  -24.3460   29.5522 N   0  0  0  0  0  0  0  0  0  0  0  0
   41.6080  -24.7074   30.3633 C   0  0  0  0  0  0  0  0  0  0  0  0
   41.6431  -25.7329   31.0919 O   0  0  0  0  0  0  0  0  0  0  0  0
   42.8067  -23.8211   30.3573 C   0  0  1  0  0  0  0  0  0  0  0  0
   43.4055  -23.7936   28.9687 C   0  0  0  0  0  0  0  0  0  0  0  0
   42.3331  -22.1946   30.8941 S   0  0  1  0  0  6  0  0  0  0  0  0
   41.3212  -21.6242   29.9586 O   0  0  0  0  0  0  0  0  0  0  0  0
   41.5908  -22.3632   32.4067 O   0  0  0  0  0  0  0  0  0  0  0  0
   43.5041  -21.2885   30.9942 O   0  0  0  0  0  0  0  0  0  0  0  0
  2  1  1  1
  2  3  1  0
  2  4  2  0
  2  5  1  0
  6  5  1  6
  6  7  1  0
  6 21  1  0
  7  8  1  6
  7  9  1  0
  9 10  1  6
  9 20  1  0
 10 11  1  0
 10 19  1  0
 11 12  2  0
 11 17  1  0
 12 13  1  0
 13 14  2  0
 14 15  1  0
 15 16  1  0
 15 17  2  0
 17 18  1  0
 18 19  2  0
 20 21  1  0
 21 22  1  1
 22 23  1  0
 23 24  1  0
 24 25  2  0
 24 26  1  6
 24 27  1  0
 27 28  1  0
 28 29  1  1
 28 30  2  0
 28 31  1  0
 31 32  1  0
 32 33  1  0
 33 34  1  6
 33 35  1  0
 33 36  1  0
 36 37  1  1
 36 38  1  0
 38 39  2  0
 38 40  1  0
 40 41  1  0
 41 42  1  0
 42 43  1  0
 43 44  2  0
 43 45  1  0
 45 46  1  0
 46 47  1  0
 47 48  1  0
 48 49  1  0
 49 50  2  0
 49 51  1  0
 51 52  1  6
 51 53  1  0
 53 54  2  0
 53 55  1  1
 53 56  2  0
M  END
$$$$
