
     RDKit          3D

 56 58  0  0  0  0  0  0  0  0999 V2000
   20.0633   25.5693   15.4384 O   0  0  0  0  0  0  0  0  0  0  0  0
   21.6130   25.4065   14.7667 P   0  0  1  0  0  5  0  0  0  0  0  0
   21.4253   25.2176   13.0910 O   0  0  0  0  0  0  0  0  0  0  0  0
   22.5030   26.5745   15.0982 O   0  0  0  0  0  0  0  0  0  0  0  0
   22.3057   24.0160   15.4280 O   0  0  0  0  0  0  0  0  0  0  0  0
   21.4061   22.9435   15.4284 C   0  0  1  0  0  0  0  0  0  0  0  0
   21.6761   22.1577   14.1602 C   0  0  1  0  0  0  0  0  0  0  0  0
   22.1566   22.9705   13.1379 O   0  0  0  0  0  0  0  0  0  0  0  0
   22.7374   21.1997   14.6617 C   0  0  2  0  0  0  0  0  0  0  0  0
   23.0318   20.1390   13.7643 N   0  0  0  0  0  0  0  0  0  0  0  0
   22.8377   20.1575   12.4435 C   0  0  0  0  0  0  0  0  0  0  0  0
   22.3557   21.0842   11.6216 N   0  0  0  0  0  0  0  0  0  0  0  0
   22.2559   20.8635   10.3109 C   0  0  0  0  0  0  0  0  0  0  0  0
   22.6399   19.6838    9.7406 N   0  0  0  0  0  0  0  0  0  0  0  0
   23.1343   18.7130   10.5252 C   0  0  0  0  0  0  0  0  0  0  0  0
   23.5322   17.4876    9.9371 N   0  0  0  0  0  0  0  0  0  0  0  0
   23.2324   18.9533   11.8792 C   0  0  0  0  0  0  0  0  0  0  0  0
   23.6730   18.2083   12.9156 N   0  0  0  0  0  0  0  0  0  0  0  0
   23.5492   18.9332   14.0600 C   0  0  0  0  0  0  0  0  0  0  0  0
   22.1429   20.7774   15.8509 O   0  0  0  0  0  0  0  0  0  0  0  0
   21.7245   21.9280   16.4972 C   0  0  2  0  0  0  0  0  0  0  0  0
   20.5661   21.7185   17.4160 C   0  0  0  0  0  0  0  0  0  0  0  0
   20.5095   22.7279   18.4057 O   0  0  0  0  0  0  0  0  0  0  0  0
   19.2764   22.3539   19.5262 P   0  0  2  0  0  5  0  0  0  0  0  0
   17.9294   22.6184   18.8842 O   0  0  0  0  0  0  0  0  0  0  0  0
   19.4297   23.4332   20.8145 O   0  0  0  0  0  0  0  0  0  0  0  0
   19.4730   20.7569   19.9746 O   0  0  0  0  0  0  0  0  0  0  0  0
   20.3292   20.5729   21.4215 P   0  0  1  0  0  5  0  0  0  0  0  0
   21.2644   21.9663   21.7411 O   0  0  0  0  0  0  0  0  0  0  0  0
   19.4525   20.3451   22.6049 O   0  0  0  0  0  0  0  0  0  0  0  0
   21.4260   19.3081   21.1844 O   0  0  0  0  0  0  0  0  0  0  0  0
   22.0447   19.4576   19.9334 C   0  0  0  0  0  0  0  0  0  0  0  0
   23.5165   19.7940   20.1242 C   0  0  1  0  0  0  0  0  0  0  0  0
   24.1041   20.1391   18.7724 C   0  0  0  0  0  0  0  0  0  0  0  0
   23.5838   21.0126   20.9904 C   0  0  0  0  0  0  0  0  0  0  0  0
   24.1856   18.6074   20.7438 C   0  0  1  0  0  0  0  0  0  0  0  0
   23.2983   17.5549   20.8127 O   0  0  0  0  0  0  0  0  0  0  0  0
   25.4146   18.1998   20.0605 C   0  0  0  0  0  0  0  0  0  0  0  0
   26.5222   18.7491   20.2692 O   0  0  0  0  0  0  0  0  0  0  0  0
   25.3889   17.1409   19.1150 N   0  0  0  0  0  0  0  0  0  0  0  0
   26.5283   16.7118   18.3658 C   0  0  0  0  0  0  0  0  0  0  0  0
   26.2022   15.7049   17.2978 C   0  0  0  0  0  0  0  0  0  0  0  0
   27.3417   14.7690   17.0540 C   0  0  0  0  0  0  0  0  0  0  0  0
   27.0712   13.6718   16.5151 O   0  0  0  0  0  0  0  0  0  0  0  0
   28.6661   15.0645   17.3969 N   0  0  0  0  0  0  0  0  0  0  0  0
   29.8166   14.2340   17.1382 C   0  0  0  0  0  0  0  0  0  0  0  0
   30.3438   14.5675   15.7606 C   0  0  0  0  0  0  0  0  0  0  0  0
   31.7282   14.9768   15.7709 N   0  0  0  0  0  0  0  0  0  0  0  0
   32.6333   14.3534   16.6685 C   0  0  0  0  0  0  0  0  0  0  0  0
   32.3849   14.1366   17.8830 O   0  0  0  0  0  0  0  0  0  0  0  0
   33.9634   13.9272   16.1472 C   0  0  1  0  0  0  0  0  0  0  0  0
   33.8707   13.7027   14.6544 C   0  0  0  0  0  0  0  0  0  0  0  0
   35.1715   15.1682   16.5450 S   0  0  1  0  0  6  0  0  0  0  0  0
   34.6354   16.5223   16.2233 O   0  0  0  0  0  0  0  0  0  0  0  0
   35.4227   15.1039   18.2183 O   0  0  0  0  0  0  0  0  0  0  0  0
   36.4485   14.9399   15.8242 O   0  0  0  0  0  0  0  0  0  0  0  0
  2  1  1  1
  2  3  1  0
  2  4  2  0
  2  5  1  0
  6  5  1  1
  6  7  1  0
  6 21  1  0
  7  8  1  6
  7  9  1  0
  9 10  1  6
  9 20  1  0
 10 11  1  0
 10 19  1  0
 11 12  2  0
 11 17  1  0
 12 13  1  0
 13 14  2  0
 14 15  1  0
 15 16  1  0
 15 17  2  0
 17 18  1  0
 18 19  2  0
 20 21  1  0
 21 22  1  6
 22 23  1  0
 23 24  1  0
 24 25  2  0
 24 26  1  1
 24 27  1  0
 27 28  1  0
 28 29  1  1
 28 30  2  0
 28 31  1  0
 31 32  1  0
 32 33  1  0
 33 34  1  6
 33 35  1  0
 33 36  1  0
 36 37  1  6
 36 38  1  0
 38 39  2  0
 38 40  1  0
 40 41  1  0
 41 42  1  0
 42 43  1  0
 43 44  2  0
 43 45  1  0
 45 46  1  0
 46 47  1  0
 47 48  1  0
 48 49  1  0
 49 50  2  0
 49 51  1  0
 51 52  1  6
 51 53  1  0
 53 54  2  0
 53 55  1  1
 53 56  2  0
M  END
$$$$
