
     RDKit          3D

 56 58  0  0  0  0  0  0  0  0999 V2000
   15.7032   22.1883   17.7188 O   0  0  0  0  0  0  0  0  0  0  0  0
   17.3344   22.3756   17.2907 P   0  0  1  0  0  5  0  0  0  0  0  0
   18.1890   21.0683   17.9536 O   0  0  0  0  0  0  0  0  0  0  0  0
   17.5251   22.4659   15.8001 O   0  0  0  0  0  0  0  0  0  0  0  0
   17.8728   23.8215   17.9762 O   0  0  0  0  0  0  0  0  0  0  0  0
   19.2379   23.7690   18.2816 C   0  0  1  0  0  0  0  0  0  0  0  0
   19.7921   25.1528   18.0043 C   0  0  1  0  0  0  0  0  0  0  0  0
   19.0873   25.8021   16.9954 O   0  0  0  0  0  0  0  0  0  0  0  0
   19.5688   25.8040   19.3540 C   0  0  2  0  0  0  0  0  0  0  0  0
   20.2214   27.0560   19.5088 N   0  0  0  0  0  0  0  0  0  0  0  0
   20.6037   27.8647   18.5177 C   0  0  0  0  0  0  0  0  0  0  0  0
   20.5050   27.7703   17.1956 N   0  0  0  0  0  0  0  0  0  0  0  0
   20.9734   28.7282   16.3957 C   0  0  0  0  0  0  0  0  0  0  0  0
   21.5760   29.8524   16.8828 N   0  0  0  0  0  0  0  0  0  0  0  0
   21.7018   29.9990   18.2114 C   0  0  0  0  0  0  0  0  0  0  0  0
   22.3277   31.1632   18.7199 N   0  0  0  0  0  0  0  0  0  0  0  0
   21.2135   29.0013   19.0282 C   0  0  0  0  0  0  0  0  0  0  0  0
   21.1822   28.8438   20.3688 N   0  0  0  0  0  0  0  0  0  0  0  0
   20.5781   27.6594   20.6568 C   0  0  0  0  0  0  0  0  0  0  0  0
   20.0669   24.8063   20.1920 O   0  0  0  0  0  0  0  0  0  0  0  0
   19.4897   23.6239   19.7616 C   0  0  2  0  0  0  0  0  0  0  0  0
   20.3040   22.4087   20.0619 C   0  0  0  0  0  0  0  0  0  0  0  0
   20.8122   21.8279   18.8762 O   0  0  0  0  0  0  0  0  0  0  0  0
   22.5001   22.0758   18.8025 P   0  0  2  0  0  5  0  0  0  0  0  0
   23.1267   21.5934   20.0952 O   0  0  0  0  0  0  0  0  0  0  0  0
   22.7560   23.7418   18.7214 O   0  0  0  0  0  0  0  0  0  0  0  0
   23.0702   21.2534   17.4650 O   0  0  0  0  0  0  0  0  0  0  0  0
   23.3220   19.6062   17.7545 P   0  0  1  0  0  5  0  0  0  0  0  0
   21.8323   18.8148   18.0242 O   0  0  0  0  0  0  0  0  0  0  0  0
   24.0013   18.9030   16.6297 O   0  0  0  0  0  0  0  0  0  0  0  0
   24.1908   19.4899   19.2003 O   0  0  0  0  0  0  0  0  0  0  0  0
   24.5376   18.1490   19.4278 C   0  0  0  0  0  0  0  0  0  0  0  0
   26.0495   18.0211   19.5440 C   0  0  1  0  0  0  0  0  0  0  0  0
   26.5414   19.0689   20.5196 C   0  0  0  0  0  0  0  0  0  0  0  0
   26.3366   16.6704   20.1212 C   0  0  0  0  0  0  0  0  0  0  0  0
   26.6352   18.2021   18.1789 C   0  0  1  0  0  0  0  0  0  0  0  0
   26.2983   19.4453   17.6879 O   0  0  0  0  0  0  0  0  0  0  0  0
   28.0851   18.0052   18.1284 C   0  0  0  0  0  0  0  0  0  0  0  0
   28.9040   18.9014   18.4421 O   0  0  0  0  0  0  0  0  0  0  0  0
   28.6228   16.7589   17.7114 N   0  0  0  0  0  0  0  0  0  0  0  0
   30.0021   16.4037   17.8334 C   0  0  0  0  0  0  0  0  0  0  0  0
   30.3217   15.0368   17.2945 C   0  0  0  0  0  0  0  0  0  0  0  0
   30.4655   15.0488   15.8069 C   0  0  0  0  0  0  0  0  0  0  0  0
   29.7391   15.8465   15.1717 O   0  0  0  0  0  0  0  0  0  0  0  0
   31.3583   14.2230   15.1143 N   0  0  0  0  0  0  0  0  0  0  0  0
   31.5608   14.1991   13.6864 C   0  0  0  0  0  0  0  0  0  0  0  0
   32.9431   13.6508   13.4113 C   0  0  0  0  0  0  0  0  0  0  0  0
   33.1704   12.3628   14.0222 N   0  0  0  0  0  0  0  0  0  0  0  0
   34.3573   11.6466   13.7192 C   0  0  0  0  0  0  0  0  0  0  0  0
   35.2693   12.0790   12.9676 O   0  0  0  0  0  0  0  0  0  0  0  0
   34.5414   10.2969   14.3251 C   0  0  1  0  0  0  0  0  0  0  0  0
   34.9303    9.3099   13.2472 C   0  0  0  0  0  0  0  0  0  0  0  0
   35.7782   10.3918   15.5976 S   0  0  1  0  0  6  0  0  0  0  0  0
   36.9874   11.0955   15.0809 O   0  0  0  0  0  0  0  0  0  0  0  0
   35.1365   11.3338   16.8499 O   0  0  0  0  0  0  0  0  0  0  0  0
   36.1474    9.0464   16.1036 O   0  0  0  0  0  0  0  0  0  0  0  0
  2  1  1  6
  2  3  1  0
  2  4  2  0
  2  5  1  0
  6  5  1  1
  6  7  1  0
  6 21  1  0
  7  8  1  6
  7  9  1  0
  9 10  1  6
  9 20  1  0
 10 11  1  0
 10 19  1  0
 11 12  2  0
 11 17  1  0
 12 13  1  0
 13 14  2  0
 14 15  1  0
 15 16  1  0
 15 17  2  0
 17 18  1  0
 18 19  2  0
 20 21  1  0
 21 22  1  6
 22 23  1  0
 23 24  1  0
 24 25  2  0
 24 26  1  6
 24 27  1  0
 27 28  1  0
 28 29  1  1
 28 30  2  0
 28 31  1  0
 31 32  1  0
 32 33  1  0
 33 34  1  1
 33 35  1  0
 33 36  1  0
 36 37  1  1
 36 38  1  0
 38 39  2  0
 38 40  1  0
 40 41  1  0
 41 42  1  0
 42 43  1  0
 43 44  2  0
 43 45  1  0
 45 46  1  0
 46 47  1  0
 47 48  1  0
 48 49  1  0
 49 50  2  0
 49 51  1  0
 51 52  1  6
 51 53  1  0
 53 54  2  0
 53 55  1  1
 53 56  2  0
M  END
$$$$
