
     RDKit          3D

 56 58  0  0  0  0  0  0  0  0999 V2000
   26.6273  -35.6620   31.6974 O   0  0  0  0  0  0  0  0  0  0  0  0
   26.7923  -35.3175   30.0441 P   0  0  1  0  0  5  0  0  0  0  0  0
   27.1820  -36.7691   29.2569 O   0  0  0  0  0  0  0  0  0  0  0  0
   25.5527  -34.6876   29.4672 O   0  0  0  0  0  0  0  0  0  0  0  0
   28.0625  -34.2169   29.8827 O   0  0  0  0  0  0  0  0  0  0  0  0
   29.2219  -34.8365   29.4016 C   0  0  1  0  0  0  0  0  0  0  0  0
   29.4454  -34.2986   28.0018 C   0  0  1  0  0  0  0  0  0  0  0  0
   28.2492  -33.9506   27.3819 O   0  0  0  0  0  0  0  0  0  0  0  0
   30.2899  -33.0806   28.3166 C   0  0  2  0  0  0  0  0  0  0  0  0
   30.8901  -32.4811   27.1775 N   0  0  0  0  0  0  0  0  0  0  0  0
   30.2580  -31.7518   26.2551 C   0  0  0  0  0  0  0  0  0  0  0  0
   28.9877  -31.3850   26.1188 N   0  0  0  0  0  0  0  0  0  0  0  0
   28.5885  -30.6396   25.0884 C   0  0  0  0  0  0  0  0  0  0  0  0
   29.4529  -30.2124   24.1216 N   0  0  0  0  0  0  0  0  0  0  0  0
   30.7483  -30.5542   24.2106 C   0  0  0  0  0  0  0  0  0  0  0  0
   31.6473  -30.1141   23.2087 N   0  0  0  0  0  0  0  0  0  0  0  0
   31.1487  -31.3255   25.2808 C   0  0  0  0  0  0  0  0  0  0  0  0
   32.3446  -31.8283   25.6552 N   0  0  0  0  0  0  0  0  0  0  0  0
   32.1828  -32.5304   26.8091 C   0  0  0  0  0  0  0  0  0  0  0  0
   31.2092  -33.6432   29.2022 O   0  0  0  0  0  0  0  0  0  0  0  0
   30.4633  -34.3659   30.1175 C   0  0  2  0  0  0  0  0  0  0  0  0
   31.2038  -35.5056   30.7361 C   0  0  0  0  0  0  0  0  0  0  0  0
   30.6543  -35.8501   31.9935 O   0  0  0  0  0  0  0  0  0  0  0  0
   30.3334  -37.5268   32.0311 P   0  0  2  0  0  5  0  0  0  0  0  0
   29.9122  -37.9799   30.6477 O   0  0  0  0  0  0  0  0  0  0  0  0
   29.0087  -37.7578   33.0507 O   0  0  0  0  0  0  0  0  0  0  0  0
   31.7195  -38.2914   32.5643 O   0  0  0  0  0  0  0  0  0  0  0  0
   32.5525  -37.4115   33.7443 P   0  0  1  0  0  5  0  0  0  0  0  0
   31.6695  -37.3926   35.2066 O   0  0  0  0  0  0  0  0  0  0  0  0
   33.9046  -37.9591   34.0488 O   0  0  0  0  0  0  0  0  0  0  0  0
   32.6166  -35.8096   33.2069 O   0  0  0  0  0  0  0  0  0  0  0  0
   33.5502  -35.0981   33.9763 C   0  0  0  0  0  0  0  0  0  0  0  0
   33.5897  -33.6457   33.5239 C   0  0  1  0  0  0  0  0  0  0  0  0
   34.5585  -32.8969   34.4141 C   0  0  0  0  0  0  0  0  0  0  0  0
   34.1279  -33.6312   32.1275 C   0  0  0  0  0  0  0  0  0  0  0  0
   32.2009  -33.0955   33.6134 C   0  0  1  0  0  0  0  0  0  0  0  0
   31.4169  -33.9306   34.3801 O   0  0  0  0  0  0  0  0  0  0  0  0
   32.1415  -31.7241   34.1223 C   0  0  0  0  0  0  0  0  0  0  0  0
   31.0639  -31.1003   34.2705 O   0  0  0  0  0  0  0  0  0  0  0  0
   33.3352  -31.0399   34.4733 N   0  0  0  0  0  0  0  0  0  0  0  0
   33.3667  -29.8210   35.2195 C   0  0  0  0  0  0  0  0  0  0  0  0
   34.7478  -29.2490   35.3803 C   0  0  0  0  0  0  0  0  0  0  0  0
   34.7500  -28.0528   36.2764 C   0  0  0  0  0  0  0  0  0  0  0  0
   33.6624  -27.7427   36.8135 O   0  0  0  0  0  0  0  0  0  0  0  0
   35.8922  -27.2854   36.5314 N   0  0  0  0  0  0  0  0  0  0  0  0
   35.9833  -26.1755   37.4480 C   0  0  0  0  0  0  0  0  0  0  0  0
   36.2298  -24.9164   36.6474 C   0  0  0  0  0  0  0  0  0  0  0  0
   35.2028  -23.9193   36.8349 N   0  0  0  0  0  0  0  0  0  0  0  0
   34.0386  -23.9560   36.0245 C   0  0  0  0  0  0  0  0  0  0  0  0
   33.7945  -24.8577   35.1813 O   0  0  0  0  0  0  0  0  0  0  0  0
   33.0385  -22.8607   36.1758 C   0  0  1  0  0  0  0  0  0  0  0  0
   32.0012  -22.9712   35.0807 C   0  0  0  0  0  0  0  0  0  0  0  0
   32.2972  -22.9653   37.7875 S   0  0  1  0  0  6  0  0  0  0  0  0
   31.7597  -24.3382   38.0125 O   0  0  0  0  0  0  0  0  0  0  0  0
   33.5277  -22.7075   38.9219 O   0  0  0  0  0  0  0  0  0  0  0  0
   31.2194  -21.9600   37.9606 O   0  0  0  0  0  0  0  0  0  0  0  0
  2  1  1  1
  2  3  1  0
  2  4  2  0
  2  5  1  0
  6  5  1  1
  6  7  1  0
  6 21  1  0
  7  8  1  1
  7  9  1  0
  9 10  1  6
  9 20  1  0
 10 11  1  0
 10 19  1  0
 11 12  2  0
 11 17  1  0
 12 13  1  0
 13 14  2  0
 14 15  1  0
 15 16  1  0
 15 17  2  0
 17 18  1  0
 18 19  2  0
 20 21  1  0
 21 22  1  6
 22 23  1  0
 23 24  1  0
 24 25  2  0
 24 26  1  1
 24 27  1  0
 27 28  1  0
 28 29  1  1
 28 30  2  0
 28 31  1  0
 31 32  1  0
 32 33  1  0
 33 34  1  1
 33 35  1  0
 33 36  1  0
 36 37  1  1
 36 38  1  0
 38 39  2  0
 38 40  1  0
 40 41  1  0
 41 42  1  0
 42 43  1  0
 43 44  2  0
 43 45  1  0
 45 46  1  0
 46 47  1  0
 47 48  1  0
 48 49  1  0
 49 50  2  0
 49 51  1  0
 51 52  1  6
 51 53  1  0
 53 54  2  0
 53 55  1  1
 53 56  2  0
M  END
$$$$
