
     RDKit          3D

 56 58  0  0  0  0  0  0  0  0999 V2000
   18.1909   25.1591   16.2208 O   0  0  0  0  0  0  0  0  0  0  0  0
   18.1505   24.1148   17.5576 P   0  0  1  0  0  5  0  0  0  0  0  0
   17.9787   25.0722   18.9478 O   0  0  0  0  0  0  0  0  0  0  0  0
   17.0517   23.0916   17.4479 O   0  0  0  0  0  0  0  0  0  0  0  0
   19.6262   23.2957   17.6023 O   0  0  0  0  0  0  0  0  0  0  0  0
   19.7331   22.3708   16.5571 C   0  0  1  0  0  0  0  0  0  0  0  0
   20.8556   22.8618   15.6639 C   0  0  1  0  0  0  0  0  0  0  0  0
   20.9783   24.2475   15.6981 O   0  0  0  0  0  0  0  0  0  0  0  0
   22.0369   22.1771   16.3207 C   0  0  2  0  0  0  0  0  0  0  0  0
   23.2351   22.2318   15.5601 N   0  0  0  0  0  0  0  0  0  0  0  0
   23.3131   22.2651   14.2277 C   0  0  0  0  0  0  0  0  0  0  0  0
   22.3856   22.2606   13.2756 N   0  0  0  0  0  0  0  0  0  0  0  0
   22.7174   22.2989   11.9852 C   0  0  0  0  0  0  0  0  0  0  0  0
   24.0171   22.3451   11.5693 N   0  0  0  0  0  0  0  0  0  0  0  0
   24.9944   22.3520   12.4899 C   0  0  0  0  0  0  0  0  0  0  0  0
   26.3437   22.3983   12.0620 N   0  0  0  0  0  0  0  0  0  0  0  0
   24.6385   22.3120   13.8213 C   0  0  0  0  0  0  0  0  0  0  0  0
   25.3563   22.3059   14.9649 N   0  0  0  0  0  0  0  0  0  0  0  0
   24.4989   22.2570   16.0199 C   0  0  0  0  0  0  0  0  0  0  0  0
   21.5235   20.8879   16.4635 O   0  0  0  0  0  0  0  0  0  0  0  0
   20.2657   21.0385   17.0220 C   0  0  2  0  0  0  0  0  0  0  0  0
   19.3223   19.9278   16.6962 C   0  0  0  0  0  0  0  0  0  0  0  0
   18.5786   19.5380   17.8350 O   0  0  0  0  0  0  0  0  0  0  0  0
   19.5700   18.6066   18.8672 P   0  0  2  0  0  5  0  0  0  0  0  0
   20.7529   18.0846   18.0767 O   0  0  0  0  0  0  0  0  0  0  0  0
   18.6668   17.2646   19.3480 O   0  0  0  0  0  0  0  0  0  0  0  0
   20.0286   19.5856   20.1405 O   0  0  0  0  0  0  0  0  0  0  0  0
   20.5021   18.7156   21.5115 P   0  0  1  0  0  5  0  0  0  0  0  0
   19.5975   19.2119   22.8730 O   0  0  0  0  0  0  0  0  0  0  0  0
   20.3220   17.2429   21.3712 O   0  0  0  0  0  0  0  0  0  0  0  0
   22.1086   19.1369   21.8286 O   0  0  0  0  0  0  0  0  0  0  0  0
   22.9352   18.6048   20.8268 C   0  0  0  0  0  0  0  0  0  0  0  0
   24.0073   19.6178   20.4524 C   0  0  1  0  0  0  0  0  0  0  0  0
   23.9721   20.7428   21.4647 C   0  0  0  0  0  0  0  0  0  0  0  0
   25.3294   18.9256   20.5654 C   0  0  0  0  0  0  0  0  0  0  0  0
   23.7241   20.0991   19.0640 C   0  0  1  0  0  0  0  0  0  0  0  0
   24.4909   21.2113   18.7905 O   0  0  0  0  0  0  0  0  0  0  0  0
   23.9167   19.0760   18.0345 C   0  0  0  0  0  0  0  0  0  0  0  0
   22.9677   18.4224   17.5402 O   0  0  0  0  0  0  0  0  0  0  0  0
   25.2197   18.7852   17.5511 N   0  0  0  0  0  0  0  0  0  0  0  0
   25.4881   17.8937   16.4664 C   0  0  0  0  0  0  0  0  0  0  0  0
   26.9418   17.8259   16.0883 C   0  0  0  0  0  0  0  0  0  0  0  0
   27.5492   16.5120   16.4607 C   0  0  0  0  0  0  0  0  0  0  0  0
   27.5389   16.2043   17.6742 O   0  0  0  0  0  0  0  0  0  0  0  0
   28.1150   15.6349   15.5284 N   0  0  0  0  0  0  0  0  0  0  0  0
   28.8989   14.4627   15.8310 C   0  0  0  0  0  0  0  0  0  0  0  0
   30.0044   14.8624   16.7824 C   0  0  0  0  0  0  0  0  0  0  0  0
   31.1296   13.9586   16.7505 N   0  0  0  0  0  0  0  0  0  0  0  0
   32.3162   14.2967   17.4514 C   0  0  0  0  0  0  0  0  0  0  0  0
   32.4463   15.3277   18.1611 O   0  0  0  0  0  0  0  0  0  0  0  0
   33.4855   13.3781   17.3440 C   0  0  1  0  0  0  0  0  0  0  0  0
   33.1676   12.2709   16.3640 C   0  0  0  0  0  0  0  0  0  0  0  0
   34.9129   14.3069   16.8361 S   0  0  1  0  0  6  0  0  0  0  0  0
   36.0701   13.3892   16.6287 O   0  0  0  0  0  0  0  0  0  0  0  0
   34.5459   15.0105   15.3403 O   0  0  0  0  0  0  0  0  0  0  0  0
   35.2639   15.3559   17.8254 O   0  0  0  0  0  0  0  0  0  0  0  0
  2  1  1  6
  2  3  1  0
  2  4  2  0
  2  5  1  0
  6  5  1  1
  6  7  1  0
  6 21  1  0
  7  8  1  1
  7  9  1  0
  9 10  1  6
  9 20  1  0
 10 11  1  0
 10 19  1  0
 11 12  2  0
 11 17  1  0
 12 13  1  0
 13 14  2  0
 14 15  1  0
 15 16  1  0
 15 17  2  0
 17 18  1  0
 18 19  2  0
 20 21  1  0
 21 22  1  6
 22 23  1  0
 23 24  1  0
 24 25  2  0
 24 26  1  1
 24 27  1  0
 27 28  1  0
 28 29  1  1
 28 30  2  0
 28 31  1  0
 31 32  1  0
 32 33  1  0
 33 34  1  1
 33 35  1  0
 33 36  1  0
 36 37  1  6
 36 38  1  0
 38 39  2  0
 38 40  1  0
 40 41  1  0
 41 42  1  0
 42 43  1  0
 43 44  2  0
 43 45  1  0
 45 46  1  0
 46 47  1  0
 47 48  1  0
 48 49  1  0
 49 50  2  0
 49 51  1  0
 51 52  1  6
 51 53  1  0
 53 54  2  0
 53 55  1  6
 53 56  2  0
M  END
$$$$
