
     RDKit          3D

 56 58  0  0  0  0  0  0  0  0999 V2000
   18.8432   26.2460   14.4212 O   0  0  0  0  0  0  0  0  0  0  0  0
   19.7139   27.2066   13.3266 P   0  0  1  0  0  5  0  0  0  0  0  0
   19.4326   26.5900   11.7710 O   0  0  0  0  0  0  0  0  0  0  0  0
   19.3405   28.6617   13.4237 O   0  0  0  0  0  0  0  0  0  0  0  0
   21.3500   27.0586   13.7165 O   0  0  0  0  0  0  0  0  0  0  0  0
   21.5342   26.3179   14.8899 C   0  0  1  0  0  0  0  0  0  0  0  0
   22.7845   25.4865   14.6795 C   0  0  1  0  0  0  0  0  0  0  0  0
   22.9789   25.1708   13.3383 O   0  0  0  0  0  0  0  0  0  0  0  0
   23.8351   26.4530   15.1870 C   0  0  2  0  0  0  0  0  0  0  0  0
   25.1197   25.8733   15.3629 N   0  0  0  0  0  0  0  0  0  0  0  0
   25.5975   24.8182   14.6988 C   0  0  0  0  0  0  0  0  0  0  0  0
   25.0775   24.0463   13.7498 N   0  0  0  0  0  0  0  0  0  0  0  0
   25.7642   23.0284   13.2313 C   0  0  0  0  0  0  0  0  0  0  0  0
   27.0305   22.7218   13.6400 N   0  0  0  0  0  0  0  0  0  0  0  0
   27.6039   23.4697   14.5962 C   0  0  0  0  0  0  0  0  0  0  0  0
   28.9166   23.1536   15.0236 N   0  0  0  0  0  0  0  0  0  0  0  0
   26.8834   24.5197   15.1248 C   0  0  0  0  0  0  0  0  0  0  0  0
   27.1608   25.4396   16.0734 N   0  0  0  0  0  0  0  0  0  0  0  0
   26.0856   26.2608   16.2151 C   0  0  0  0  0  0  0  0  0  0  0  0
   23.2370   26.8598   16.3798 O   0  0  0  0  0  0  0  0  0  0  0  0
   21.9300   27.1845   16.0592 C   0  0  2  0  0  0  0  0  0  0  0  0
   20.9740   27.0387   17.1971 C   0  0  0  0  0  0  0  0  0  0  0  0
   21.6576   26.9719   18.4339 O   0  0  0  0  0  0  0  0  0  0  0  0
   21.1612   28.2700   19.4262 P   0  0  2  0  0  5  0  0  0  0  0  0
   21.0736   29.5281   18.5860 O   0  0  0  0  0  0  0  0  0  0  0  0
   22.3807   28.5211   20.5654 O   0  0  0  0  0  0  0  0  0  0  0  0
   19.6958   27.8485   20.1083 O   0  0  0  0  0  0  0  0  0  0  0  0
   19.6941   26.2930   20.7723 P   0  0  1  0  0  5  0  0  0  0  0  0
   20.3371   26.3207   22.3547 O   0  0  0  0  0  0  0  0  0  0  0  0
   18.3362   25.6846   20.8551 O   0  0  0  0  0  0  0  0  0  0  0  0
   20.7571   25.3625   19.8433 O   0  0  0  0  0  0  0  0  0  0  0  0
   21.2319   24.2902   20.6145 C   0  0  0  0  0  0  0  0  0  0  0  0
   22.1446   23.4133   19.7697 C   0  0  1  0  0  0  0  0  0  0  0  0
   21.2835   22.4384   18.9953 C   0  0  0  0  0  0  0  0  0  0  0  0
   22.8371   24.3086   18.7906 C   0  0  0  0  0  0  0  0  0  0  0  0
   23.0977   22.7167   20.6895 C   0  0  1  0  0  0  0  0  0  0  0  0
   23.4487   23.5589   21.7226 O   0  0  0  0  0  0  0  0  0  0  0  0
   22.5912   21.4461   21.2116 C   0  0  0  0  0  0  0  0  0  0  0  0
   22.4261   21.2320   22.4360 O   0  0  0  0  0  0  0  0  0  0  0  0
   22.2621   20.3888   20.3228 N   0  0  0  0  0  0  0  0  0  0  0  0
   22.1271   19.0229   20.7224 C   0  0  0  0  0  0  0  0  0  0  0  0
   21.8412   18.0871   19.5809 C   0  0  0  0  0  0  0  0  0  0  0  0
   21.5658   16.6984   20.0602 C   0  0  0  0  0  0  0  0  0  0  0  0
   21.5616   16.5146   21.2986 O   0  0  0  0  0  0  0  0  0  0  0  0
   21.3189   15.6229   19.1994 N   0  0  0  0  0  0  0  0  0  0  0  0
   21.4389   14.2242   19.5306 C   0  0  0  0  0  0  0  0  0  0  0  0
   20.0506   13.6267   19.5814 C   0  0  0  0  0  0  0  0  0  0  0  0
   19.4403   13.5076   18.2785 N   0  0  0  0  0  0  0  0  0  0  0  0
   20.1564   13.9363   17.1309 C   0  0  0  0  0  0  0  0  0  0  0  0
   21.3156   14.4248   17.1649 O   0  0  0  0  0  0  0  0  0  0  0  0
   19.5000   13.8034   15.7990 C   0  0  1  0  0  0  0  0  0  0  0  0
   20.3122   14.5453   14.7610 C   0  0  0  0  0  0  0  0  0  0  0  0
   19.3447   12.0801   15.3939 S   0  0  1  0  0  6  0  0  0  0  0  0
   20.6251   11.3718   15.6823 O   0  0  0  0  0  0  0  0  0  0  0  0
   18.1615   11.4304   16.4163 O   0  0  0  0  0  0  0  0  0  0  0  0
   18.9611   11.8839   13.9738 O   0  0  0  0  0  0  0  0  0  0  0  0
  2  1  1  1
  2  3  1  0
  2  4  2  0
  2  5  1  0
  6  5  1  6
  6  7  1  0
  6 21  1  0
  7  8  1  6
  7  9  1  0
  9 10  1  1
  9 20  1  0
 10 11  1  0
 10 19  1  0
 11 12  2  0
 11 17  1  0
 12 13  1  0
 13 14  2  0
 14 15  1  0
 15 16  1  0
 15 17  2  0
 17 18  1  0
 18 19  2  0
 20 21  1  0
 21 22  1  1
 22 23  1  0
 23 24  1  0
 24 25  2  0
 24 26  1  1
 24 27  1  0
 27 28  1  0
 28 29  1  1
 28 30  2  0
 28 31  1  0
 31 32  1  0
 32 33  1  0
 33 34  1  6
 33 35  1  0
 33 36  1  0
 36 37  1  1
 36 38  1  0
 38 39  2  0
 38 40  1  0
 40 41  1  0
 41 42  1  0
 42 43  1  0
 43 44  2  0
 43 45  1  0
 45 46  1  0
 46 47  1  0
 47 48  1  0
 48 49  1  0
 49 50  2  0
 49 51  1  0
 51 52  1  6
 51 53  1  0
 53 54  2  0
 53 55  1  1
 53 56  2  0
M  END
$$$$
