
     RDKit          3D

 18 19  0  0  0  0  0  0  0  0999 V2000
  -17.4565   15.1625  133.4296 O   0  0  0  0  0  0  0  0  0  0  0  0
  -18.3585   15.3605  134.2587 C   0  0  0  0  0  0  0  0  0  0  0  0
  -18.2371   14.9092  135.5624 O   0  0  0  0  0  0  0  0  0  0  0  0
  -19.5944   16.0977  133.8416 C   0  0  0  0  0  0  0  0  0  0  0  0
  -20.5093   16.3030  134.6718 N   0  0  0  0  0  0  0  0  0  0  0  0
  -19.6810   16.5586  132.4478 C   0  0  0  0  0  0  0  0  0  0  0  0
  -18.6016   17.4096  132.1611 O   0  0  0  0  0  0  0  0  0  0  0  0
  -20.9420   17.2515  132.1870 C   0  0  0  0  0  0  0  0  0  0  0  0
  -21.2097   17.7136  131.0314 O   0  0  0  0  0  0  0  0  0  0  0  0
  -21.9431   17.4358  133.2569 C   0  0  0  0  0  0  0  0  0  0  0  0
  -21.7611   16.9846  134.4657 C   0  0  0  0  0  0  0  0  0  0  0  0
  -22.6995   17.0307  135.5728 C   0  0  0  0  0  0  0  0  0  0  0  0
  -22.2090   17.4162  136.8369 C   0  0  0  0  0  0  0  0  0  0  0  0
  -22.9663   17.4661  137.9640 C   0  0  0  0  0  0  0  0  0  0  0  0
  -24.2896   17.1250  137.8896 C   0  0  0  0  0  0  0  0  0  0  0  0
  -24.8283   16.7392  136.6879 C   0  0  0  0  0  0  0  0  0  0  0  0
  -24.0200   16.6948  135.5346 C   0  0  0  0  0  0  0  0  0  0  0  0
  -24.6825   16.1946  134.3179 C   0  0  0  0  0  0  0  0  0  0  0  0
  1  2  2  0
  2  3  1  0
  2  4  1  0
  4  5  2  0
  4  6  1  0
  5 11  1  0
  6  7  1  0
  6  8  1  0
  8  9  2  0
  8 10  1  0
 10 11  2  0
 11 12  1  0
 12 13  2  0
 12 17  1  0
 13 14  1  0
 14 15  2  0
 15 16  1  0
 16 17  2  0
 17 18  1  0
M  END
$$$$
