
     RDKit          3D

 18 19  0  0  0  0  0  0  0  0999 V2000
  -17.4687   15.2902  133.4616 O   0  0  0  0  0  0  0  0  0  0  0  0
  -18.4031   15.4207  134.2678 C   0  0  0  0  0  0  0  0  0  0  0  0
  -18.3293   14.8704  135.5365 O   0  0  0  0  0  0  0  0  0  0  0  0
  -19.6265   16.1841  133.8610 C   0  0  0  0  0  0  0  0  0  0  0  0
  -20.5730   16.3236  134.6691 N   0  0  0  0  0  0  0  0  0  0  0  0
  -19.6632   16.7490  132.5037 C   0  0  0  0  0  0  0  0  0  0  0  0
  -18.5786   17.6220  132.3232 O   0  0  0  0  0  0  0  0  0  0  0  0
  -20.9173   17.4562  132.2484 C   0  0  0  0  0  0  0  0  0  0  0  0
  -21.1440   18.0037  131.1218 O   0  0  0  0  0  0  0  0  0  0  0  0
  -21.9589   17.5564  133.2906 C   0  0  0  0  0  0  0  0  0  0  0  0
  -21.8199   17.0156  134.4679 C   0  0  0  0  0  0  0  0  0  0  0  0
  -22.7994   16.9753  135.5390 C   0  0  0  0  0  0  0  0  0  0  0  0
  -24.1176   16.5972  135.2128 C   0  0  0  0  0  0  0  0  0  0  0  0
  -25.1399   16.5533  136.1069 C   0  0  0  0  0  0  0  0  0  0  0  0
  -24.8965   16.8932  137.4101 C   0  0  0  0  0  0  0  0  0  0  0  0
  -23.6339   17.2720  137.7920 C   0  0  0  0  0  0  0  0  0  0  0  0
  -22.5922   17.3102  136.8441 C   0  0  0  0  0  0  0  0  0  0  0  0
  -21.2985   17.8032  137.3468 C   0  0  0  0  0  0  0  0  0  0  0  0
  1  2  2  0
  2  3  1  0
  2  4  1  0
  4  5  2  0
  4  6  1  0
  5 11  1  0
  6  7  1  0
  6  8  1  0
  8  9  2  0
  8 10  1  0
 10 11  2  0
 11 12  1  0
 12 13  2  0
 12 17  1  0
 13 14  1  0
 14 15  2  0
 15 16  1  0
 16 17  2  0
 17 18  1  0
M  END
$$$$
