
     RDKit          3D

 18 19  0  0  0  0  0  0  0  0999 V2000
  -17.5974   15.2384  133.7789 O   0  0  0  0  0  0  0  0  0  0  0  0
  -18.5210   15.4178  134.5883 C   0  0  0  0  0  0  0  0  0  0  0  0
  -18.4566   14.8922  135.8680 O   0  0  0  0  0  0  0  0  0  0  0  0
  -19.7206   16.2139  134.1734 C   0  0  0  0  0  0  0  0  0  0  0  0
  -20.6596   16.3956  134.9819 N   0  0  0  0  0  0  0  0  0  0  0  0
  -19.7434   16.7595  132.8080 C   0  0  0  0  0  0  0  0  0  0  0  0
  -18.6319   17.5945  132.6116 O   0  0  0  0  0  0  0  0  0  0  0  0
  -20.9750   17.5027  132.5455 C   0  0  0  0  0  0  0  0  0  0  0  0
  -21.1876   18.0404  131.4114 O   0  0  0  0  0  0  0  0  0  0  0  0
  -22.0096   17.6516  133.5888 C   0  0  0  0  0  0  0  0  0  0  0  0
  -21.8843   17.1241  134.7736 C   0  0  0  0  0  0  0  0  0  0  0  0
  -22.8612   17.1311  135.8479 C   0  0  0  0  0  0  0  0  0  0  0  0
  -24.1252   16.5616  135.5930 C   0  0  0  0  0  0  0  0  0  0  0  0
  -25.1428   16.5341  136.4931 C   0  0  0  0  0  0  0  0  0  0  0  0
  -24.9499   17.0880  137.7295 C   0  0  0  0  0  0  0  0  0  0  0  0
  -23.7417   17.6601  138.0400 C   0  0  0  0  0  0  0  0  0  0  0  0
  -22.7037   17.6764  137.0873 C   0  0  0  0  0  0  0  0  0  0  0  0
  -21.4785   18.3821  137.5001 C   0  0  0  0  0  0  0  0  0  0  0  0
  1  2  2  0
  2  3  1  0
  2  4  1  0
  4  5  2  0
  4  6  1  0
  5 11  1  0
  6  7  1  0
  6  8  1  0
  8  9  2  0
  8 10  1  0
 10 11  2  0
 11 12  1  0
 12 13  2  0
 12 17  1  0
 13 14  1  0
 14 15  2  0
 15 16  1  0
 16 17  2  0
 17 18  1  0
M  END
$$$$
