
     RDKit          3D

 18 19  0  0  0  0  0  0  0  0999 V2000
  -21.0528   18.5194  131.1042 O   0  0  0  0  0  0  0  0  0  0  0  0
  -21.2814   18.3391  132.3106 C   0  0  0  0  0  0  0  0  0  0  0  0
  -22.3904   18.9059  132.9164 O   0  0  0  0  0  0  0  0  0  0  0  0
  -20.3438   17.4967  133.1208 C   0  0  0  0  0  0  0  0  0  0  0  0
  -20.6495   17.1707  134.2906 N   0  0  0  0  0  0  0  0  0  0  0  0
  -19.0805   17.0797  132.4941 C   0  0  0  0  0  0  0  0  0  0  0  0
  -19.3484   16.3524  131.3234 O   0  0  0  0  0  0  0  0  0  0  0  0
  -18.2683   16.2733  133.4043 C   0  0  0  0  0  0  0  0  0  0  0  0
  -17.1300   15.8283  133.0482 O   0  0  0  0  0  0  0  0  0  0  0  0
  -18.7447   15.9509  134.7645 C   0  0  0  0  0  0  0  0  0  0  0  0
  -19.8898   16.3745  135.2195 C   0  0  0  0  0  0  0  0  0  0  0  0
  -20.4263   16.1945  136.5568 C   0  0  0  0  0  0  0  0  0  0  0  0
  -20.5617   17.3366  137.3718 C   0  0  0  0  0  0  0  0  0  0  0  0
  -21.0133   17.3078  138.6530 C   0  0  0  0  0  0  0  0  0  0  0  0
  -21.3638   16.1060  139.2060 C   0  0  0  0  0  0  0  0  0  0  0  0
  -21.2538   14.9561  138.4652 C   0  0  0  0  0  0  0  0  0  0  0  0
  -20.7811   15.0142  137.1391 C   0  0  0  0  0  0  0  0  0  0  0  0
  -20.6318   13.7135  136.4642 C   0  0  0  0  0  0  0  0  0  0  0  0
  1  2  2  0
  2  3  1  0
  2  4  1  0
  4  5  2  0
  4  6  1  0
  5 11  1  0
  6  7  1  0
  6  8  1  0
  8  9  2  0
  8 10  1  0
 10 11  2  0
 11 12  1  0
 12 13  2  0
 12 17  1  0
 13 14  1  0
 14 15  2  0
 15 16  1  0
 16 17  2  0
 17 18  1  0
M  END
$$$$
