
     RDKit          3D

 18 19  0  0  0  0  0  0  0  0999 V2000
  -17.2527   15.4796  133.5481 O   0  0  0  0  0  0  0  0  0  0  0  0
  -18.1195   15.8456  134.3573 C   0  0  0  0  0  0  0  0  0  0  0  0
  -17.8971   15.7651  135.7219 O   0  0  0  0  0  0  0  0  0  0  0  0
  -19.4232   16.3814  133.8491 C   0  0  0  0  0  0  0  0  0  0  0  0
  -20.3833   16.5396  134.6376 N   0  0  0  0  0  0  0  0  0  0  0  0
  -19.5206   16.7060  132.4181 C   0  0  0  0  0  0  0  0  0  0  0  0
  -18.5468   17.6592  132.0800 O   0  0  0  0  0  0  0  0  0  0  0  0
  -20.8488   17.2082  132.0690 C   0  0  0  0  0  0  0  0  0  0  0  0
  -21.1339   17.5314  130.8712 O   0  0  0  0  0  0  0  0  0  0  0  0
  -21.8997   17.3554  133.0962 C   0  0  0  0  0  0  0  0  0  0  0  0
  -21.7027   17.0366  134.3441 C   0  0  0  0  0  0  0  0  0  0  0  0
  -22.6753   17.0583  135.4221 C   0  0  0  0  0  0  0  0  0  0  0  0
  -23.1608   18.3117  135.8466 C   0  0  0  0  0  0  0  0  0  0  0  0
  -24.0427   18.4804  136.8665 C   0  0  0  0  0  0  0  0  0  0  0  0
  -24.5007   17.3784  137.5364 C   0  0  0  0  0  0  0  0  0  0  0  0
  -24.0653   16.1289  137.1727 C   0  0  0  0  0  0  0  0  0  0  0  0
  -23.1492   15.9825  136.1122 C   0  0  0  0  0  0  0  0  0  0  0  0
  -22.6924   14.6055  135.8576 C   0  0  0  0  0  0  0  0  0  0  0  0
  1  2  2  0
  2  3  1  0
  2  4  1  0
  4  5  2  0
  4  6  1  0
  5 11  1  0
  6  7  1  0
  6  8  1  0
  8  9  2  0
  8 10  1  0
 10 11  2  0
 11 12  1  0
 12 13  2  0
 12 17  1  0
 13 14  1  0
 14 15  2  0
 15 16  1  0
 16 17  2  0
 17 18  1  0
M  END
$$$$
