
     RDKit          3D

 18 19  0  0  0  0  0  0  0  0999 V2000
  -17.0596   15.9508  133.4834 O   0  0  0  0  0  0  0  0  0  0  0  0
  -18.0512   15.9854  134.2288 C   0  0  0  0  0  0  0  0  0  0  0  0
  -17.9761   15.5267  135.5334 O   0  0  0  0  0  0  0  0  0  0  0  0
  -19.3460   16.5310  133.7083 C   0  0  0  0  0  0  0  0  0  0  0  0
  -20.3322   16.6352  134.4731 N   0  0  0  0  0  0  0  0  0  0  0  0
  -19.4036   16.9296  132.2940 C   0  0  0  0  0  0  0  0  0  0  0  0
  -18.4334   17.9115  132.0374 O   0  0  0  0  0  0  0  0  0  0  0  0
  -20.7273   17.4328  131.9297 C   0  0  0  0  0  0  0  0  0  0  0  0
  -20.9797   17.8154  130.7422 O   0  0  0  0  0  0  0  0  0  0  0  0
  -21.8115   17.5123  132.9294 C   0  0  0  0  0  0  0  0  0  0  0  0
  -21.6488   17.1304  134.1645 C   0  0  0  0  0  0  0  0  0  0  0  0
  -22.6547   17.0828  135.2107 C   0  0  0  0  0  0  0  0  0  0  0  0
  -23.5093   18.1946  135.3544 C   0  0  0  0  0  0  0  0  0  0  0  0
  -24.4672   18.2991  136.3123 C   0  0  0  0  0  0  0  0  0  0  0  0
  -24.6292   17.2728  137.2032 C   0  0  0  0  0  0  0  0  0  0  0  0
  -23.8275   16.1623  137.1179 C   0  0  0  0  0  0  0  0  0  0  0  0
  -22.8407   16.0804  136.1155 C   0  0  0  0  0  0  0  0  0  0  0  0
  -21.9889   14.8798  136.1644 C   0  0  0  0  0  0  0  0  0  0  0  0
  1  2  2  0
  2  3  1  0
  2  4  1  0
  4  5  2  0
  4  6  1  0
  5 11  1  0
  6  7  1  0
  6  8  1  0
  8  9  2  0
  8 10  1  0
 10 11  2  0
 11 12  1  0
 12 13  2  0
 12 17  1  0
 13 14  1  0
 14 15  2  0
 15 16  1  0
 16 17  2  0
 17 18  1  0
M  END
$$$$
