
     RDKit          3D

 18 19  0  0  0  0  0  0  0  0999 V2000
  -21.3011   18.6547  131.1771 O   0  0  0  0  0  0  0  0  0  0  0  0
  -21.5047   18.3939  132.3732 C   0  0  0  0  0  0  0  0  0  0  0  0
  -22.6093   18.9051  133.0341 O   0  0  0  0  0  0  0  0  0  0  0  0
  -20.5415   17.5142  133.1103 C   0  0  0  0  0  0  0  0  0  0  0  0
  -20.8178   17.1153  134.2648 N   0  0  0  0  0  0  0  0  0  0  0  0
  -19.2887   17.1490  132.4322 C   0  0  0  0  0  0  0  0  0  0  0  0
  -19.5762   16.4907  131.2258 O   0  0  0  0  0  0  0  0  0  0  0  0
  -18.4490   16.2979  133.2740 C   0  0  0  0  0  0  0  0  0  0  0  0
  -17.3149   15.8872  132.8669 O   0  0  0  0  0  0  0  0  0  0  0  0
  -18.8917   15.8893  134.6224 C   0  0  0  0  0  0  0  0  0  0  0  0
  -20.0302   16.2726  135.1271 C   0  0  0  0  0  0  0  0  0  0  0  0
  -20.5349   16.0069  136.4625 C   0  0  0  0  0  0  0  0  0  0  0  0
  -20.7536   17.1076  137.3155 C   0  0  0  0  0  0  0  0  0  0  0  0
  -21.1867   17.0012  138.5990 C   0  0  0  0  0  0  0  0  0  0  0  0
  -21.4316   15.7577  139.1155 C   0  0  0  0  0  0  0  0  0  0  0  0
  -21.2366   14.6448  138.3367 C   0  0  0  0  0  0  0  0  0  0  0  0
  -20.7855   14.7836  137.0090 C   0  0  0  0  0  0  0  0  0  0  0  0
  -20.5383   13.5216  136.2908 C   0  0  0  0  0  0  0  0  0  0  0  0
  1  2  2  0
  2  3  1  0
  2  4  1  0
  4  5  2  0
  4  6  1  0
  5 11  1  0
  6  7  1  0
  6  8  1  0
  8  9  2  0
  8 10  1  0
 10 11  2  0
 11 12  1  0
 12 13  2  0
 12 17  1  0
 13 14  1  0
 14 15  2  0
 15 16  1  0
 16 17  2  0
 17 18  1  0
M  END
$$$$
