
     RDKit          3D

 18 19  0  0  0  0  0  0  0  0999 V2000
  -21.2515   19.0039  131.5436 O   0  0  0  0  0  0  0  0  0  0  0  0
  -21.4388   18.5794  132.6946 C   0  0  0  0  0  0  0  0  0  0  0  0
  -22.5345   18.9917  133.4347 O   0  0  0  0  0  0  0  0  0  0  0  0
  -20.4655   17.6080  133.2896 C   0  0  0  0  0  0  0  0  0  0  0  0
  -20.7190   17.0639  134.3887 N   0  0  0  0  0  0  0  0  0  0  0  0
  -19.2304   17.3290  132.5417 C   0  0  0  0  0  0  0  0  0  0  0  0
  -19.5487   16.8337  131.2671 O   0  0  0  0  0  0  0  0  0  0  0  0
  -18.3780   16.3729  133.2471 C   0  0  0  0  0  0  0  0  0  0  0  0
  -17.2560   16.0142  132.7646 O   0  0  0  0  0  0  0  0  0  0  0  0
  -18.7937   15.7948  134.5409 C   0  0  0  0  0  0  0  0  0  0  0  0
  -19.9182   16.1137  135.1166 C   0  0  0  0  0  0  0  0  0  0  0  0
  -20.3952   15.6792  136.4175 C   0  0  0  0  0  0  0  0  0  0  0  0
  -21.4284   14.7210  136.4542 C   0  0  0  0  0  0  0  0  0  0  0  0
  -21.9934   14.2549  137.5987 C   0  0  0  0  0  0  0  0  0  0  0  0
  -21.5467   14.7319  138.8011 C   0  0  0  0  0  0  0  0  0  0  0  0
  -20.5435   15.6678  138.8337 C   0  0  0  0  0  0  0  0  0  0  0  0
  -19.9760   16.1353  137.6317 C   0  0  0  0  0  0  0  0  0  0  0  0
  -18.9616   17.1927  137.7815 C   0  0  0  0  0  0  0  0  0  0  0  0
  1  2  2  0
  2  3  1  0
  2  4  1  0
  4  5  2  0
  4  6  1  0
  5 11  1  0
  6  7  1  0
  6  8  1  0
  8  9  2  0
  8 10  1  0
 10 11  2  0
 11 12  1  0
 12 13  2  0
 12 17  1  0
 13 14  1  0
 14 15  2  0
 15 16  1  0
 16 17  2  0
 17 18  1  0
M  END
$$$$
