
     RDKit          3D

 18 19  0  0  0  0  0  0  0  0999 V2000
  -22.2585   19.0075  132.1960 O   0  0  0  0  0  0  0  0  0  0  0  0
  -21.1700   18.5000  131.8832 C   0  0  0  0  0  0  0  0  0  0  0  0
  -20.6052   18.7389  130.6414 O   0  0  0  0  0  0  0  0  0  0  0  0
  -20.4591   17.6176  132.8635 C   0  0  0  0  0  0  0  0  0  0  0  0
  -21.0446   17.2425  133.9050 N   0  0  0  0  0  0  0  0  0  0  0  0
  -19.0773   17.2213  132.5534 C   0  0  0  0  0  0  0  0  0  0  0  0
  -19.0414   16.5476  131.3222 O   0  0  0  0  0  0  0  0  0  0  0  0
  -18.5129   16.3712  133.6008 C   0  0  0  0  0  0  0  0  0  0  0  0
  -17.3195   15.9358  133.5202 O   0  0  0  0  0  0  0  0  0  0  0  0
  -19.3112   15.9923  134.7842 C   0  0  0  0  0  0  0  0  0  0  0  0
  -20.5358   16.4020  134.9580 C   0  0  0  0  0  0  0  0  0  0  0  0
  -21.3873   16.1668  136.1104 C   0  0  0  0  0  0  0  0  0  0  0  0
  -21.9494   17.2877  136.7543 C   0  0  0  0  0  0  0  0  0  0  0  0
  -22.7321   17.2152  137.8627 C   0  0  0  0  0  0  0  0  0  0  0  0
  -23.0040   15.9879  138.4037 C   0  0  0  0  0  0  0  0  0  0  0  0
  -22.4854   14.8569  137.8247 C   0  0  0  0  0  0  0  0  0  0  0  0
  -21.6755   14.9606  136.6764 C   0  0  0  0  0  0  0  0  0  0  0  0
  -21.1115   13.6919  136.1845 C   0  0  0  0  0  0  0  0  0  0  0  0
  1  2  2  0
  2  3  1  0
  2  4  1  0
  4  5  2  0
  4  6  1  0
  5 11  1  0
  6  7  1  0
  6  8  1  0
  8  9  2  0
  8 10  1  0
 10 11  2  0
 11 12  1  0
 12 13  2  0
 12 17  1  0
 13 14  1  0
 14 15  2  0
 15 16  1  0
 16 17  2  0
 17 18  1  0
M  END
$$$$
