
     RDKit          3D

 18 19  0  0  0  0  0  0  0  0999 V2000
  -17.6821   15.5454  133.6035 O   0  0  0  0  0  0  0  0  0  0  0  0
  -18.6122   15.7190  134.4067 C   0  0  0  0  0  0  0  0  0  0  0  0
  -18.5195   15.2623  135.7109 O   0  0  0  0  0  0  0  0  0  0  0  0
  -19.8508   16.4323  133.9574 C   0  0  0  0  0  0  0  0  0  0  0  0
  -20.7957   16.6090  134.7600 N   0  0  0  0  0  0  0  0  0  0  0  0
  -19.9040   16.9046  132.5657 C   0  0  0  0  0  0  0  0  0  0  0  0
  -18.8358   17.7823  132.3210 O   0  0  0  0  0  0  0  0  0  0  0  0
  -21.1716   17.5715  132.2714 C   0  0  0  0  0  0  0  0  0  0  0  0
  -21.4134   18.0386  131.1122 O   0  0  0  0  0  0  0  0  0  0  0  0
  -22.2097   17.7229  133.3108 C   0  0  0  0  0  0  0  0  0  0  0  0
  -22.0556   17.2643  134.5206 C   0  0  0  0  0  0  0  0  0  0  0  0
  -23.0290   17.2786  135.5979 C   0  0  0  0  0  0  0  0  0  0  0  0
  -23.7814   16.1078  135.8219 C   0  0  0  0  0  0  0  0  0  0  0  0
  -24.7494   15.9950  136.7689 C   0  0  0  0  0  0  0  0  0  0  0  0
  -25.0271   17.0728  137.5652 C   0  0  0  0  0  0  0  0  0  0  0  0
  -24.3307   18.2432  137.3967 C   0  0  0  0  0  0  0  0  0  0  0  0
  -23.3328   18.3335  136.4060 C   0  0  0  0  0  0  0  0  0  0  0  0
  -22.7032   19.6573  136.2625 C   0  0  0  0  0  0  0  0  0  0  0  0
  1  2  2  0
  2  3  1  0
  2  4  1  0
  4  5  2  0
  4  6  1  0
  5 11  1  0
  6  7  1  0
  6  8  1  0
  8  9  2  0
  8 10  1  0
 10 11  2  0
 11 12  1  0
 12 13  2  0
 12 17  1  0
 13 14  1  0
 14 15  2  0
 15 16  1  0
 16 17  2  0
 17 18  1  0
M  END
$$$$
