
     RDKit          3D

 18 19  0  0  0  0  0  0  0  0999 V2000
  -17.2043   15.8076  133.2286 O   0  0  0  0  0  0  0  0  0  0  0  0
  -18.1112   15.7884  134.0757 C   0  0  0  0  0  0  0  0  0  0  0  0
  -17.9144   15.2007  135.3142 O   0  0  0  0  0  0  0  0  0  0  0  0
  -19.4356   16.4098  133.7521 C   0  0  0  0  0  0  0  0  0  0  0  0
  -20.3319   16.4599  134.6252 N   0  0  0  0  0  0  0  0  0  0  0  0
  -19.6291   16.9460  132.3965 C   0  0  0  0  0  0  0  0  0  0  0  0
  -18.6606   17.9272  132.1311 O   0  0  0  0  0  0  0  0  0  0  0  0
  -20.9672   17.5106  132.2266 C   0  0  0  0  0  0  0  0  0  0  0  0
  -21.3309   18.0128  131.1149 O   0  0  0  0  0  0  0  0  0  0  0  0
  -21.9370   17.5152  133.3404 C   0  0  0  0  0  0  0  0  0  0  0  0
  -21.6574   17.0110  134.5089 C   0  0  0  0  0  0  0  0  0  0  0  0
  -22.5484   16.8829  135.6482 C   0  0  0  0  0  0  0  0  0  0  0  0
  -22.7638   15.5932  136.1747 C   0  0  0  0  0  0  0  0  0  0  0  0
  -23.5993   15.3248  137.2122 C   0  0  0  0  0  0  0  0  0  0  0  0
  -24.2838   16.3558  137.7966 C   0  0  0  0  0  0  0  0  0  0  0  0
  -24.1192   17.6356  137.3294 C   0  0  0  0  0  0  0  0  0  0  0  0
  -23.2475   17.8859  136.2511 C   0  0  0  0  0  0  0  0  0  0  0  0
  -23.2057   19.2821  135.7837 C   0  0  0  0  0  0  0  0  0  0  0  0
  1  2  2  0
  2  3  1  0
  2  4  1  0
  4  5  2  0
  4  6  1  0
  5 11  1  0
  6  7  1  0
  6  8  1  0
  8  9  2  0
  8 10  1  0
 10 11  2  0
 11 12  1  0
 12 13  2  0
 12 17  1  0
 13 14  1  0
 14 15  2  0
 15 16  1  0
 16 17  2  0
 17 18  1  0
M  END
$$$$
