
     RDKit          3D

 18 19  0  0  0  0  0  0  0  0999 V2000
  -21.7798   20.3976  133.3996 O   0  0  0  0  0  0  0  0  0  0  0  0
  -20.7858   19.8178  132.9348 C   0  0  0  0  0  0  0  0  0  0  0  0
  -19.8795   20.4923  132.1336 O   0  0  0  0  0  0  0  0  0  0  0  0
  -20.5651   18.3688  133.2459 C   0  0  0  0  0  0  0  0  0  0  0  0
  -21.2763   17.7991  134.1049 N   0  0  0  0  0  0  0  0  0  0  0  0
  -19.5025   17.6638  132.5134 C   0  0  0  0  0  0  0  0  0  0  0  0
  -19.7495   17.7350  131.1331 O   0  0  0  0  0  0  0  0  0  0  0  0
  -19.3996   16.2652  132.9276 C   0  0  0  0  0  0  0  0  0  0  0  0
  -18.5271   15.4922  132.4161 O   0  0  0  0  0  0  0  0  0  0  0  0
  -20.3053   15.7076  133.9522 C   0  0  0  0  0  0  0  0  0  0  0  0
  -21.2188   16.4274  134.5397 C   0  0  0  0  0  0  0  0  0  0  0  0
  -22.1070   16.0174  135.6127 C   0  0  0  0  0  0  0  0  0  0  0  0
  -23.4934   16.0202  135.3581 C   0  0  0  0  0  0  0  0  0  0  0  0
  -24.4371   15.6966  136.2806 C   0  0  0  0  0  0  0  0  0  0  0  0
  -24.0387   15.3431  137.5412 C   0  0  0  0  0  0  0  0  0  0  0  0
  -22.7026   15.3220  137.8537 C   0  0  0  0  0  0  0  0  0  0  0  0
  -21.7448   15.6635  136.8783 C   0  0  0  0  0  0  0  0  0  0  0  0
  -20.3475   15.6805  137.3439 C   0  0  0  0  0  0  0  0  0  0  0  0
  1  2  2  0
  2  3  1  0
  2  4  1  0
  4  5  2  0
  4  6  1  0
  5 11  1  0
  6  7  1  0
  6  8  1  0
  8  9  2  0
  8 10  1  0
 10 11  2  0
 11 12  1  0
 12 13  2  0
 12 17  1  0
 13 14  1  0
 14 15  2  0
 15 16  1  0
 16 17  2  0
 17 18  1  0
M  END
$$$$
