
     RDKit          3D

 18 19  0  0  0  0  0  0  0  0999 V2000
  -17.3641   15.4420  133.5727 O   0  0  0  0  0  0  0  0  0  0  0  0
  -18.3305   15.5270  134.3466 C   0  0  0  0  0  0  0  0  0  0  0  0
  -18.2727   14.9819  135.6185 O   0  0  0  0  0  0  0  0  0  0  0  0
  -19.5755   16.2291  133.8970 C   0  0  0  0  0  0  0  0  0  0  0  0
  -20.5198   16.4024  134.7011 N   0  0  0  0  0  0  0  0  0  0  0  0
  -19.6355   16.6946  132.5033 C   0  0  0  0  0  0  0  0  0  0  0  0
  -18.5744   17.5790  132.2520 O   0  0  0  0  0  0  0  0  0  0  0  0
  -20.9087   17.3507  132.2090 C   0  0  0  0  0  0  0  0  0  0  0  0
  -21.1567   17.8107  131.0483 O   0  0  0  0  0  0  0  0  0  0  0  0
  -21.9454   17.4992  133.2502 C   0  0  0  0  0  0  0  0  0  0  0  0
  -21.7850   17.0473  134.4617 C   0  0  0  0  0  0  0  0  0  0  0  0
  -22.7560   17.0593  135.5413 C   0  0  0  0  0  0  0  0  0  0  0  0
  -23.1331   15.8224  136.1024 C   0  0  0  0  0  0  0  0  0  0  0  0
  -24.0564   15.6848  137.0898 C   0  0  0  0  0  0  0  0  0  0  0  0
  -24.6703   16.8034  137.5846 C   0  0  0  0  0  0  0  0  0  0  0  0
  -24.3485   18.0382  137.0796 C   0  0  0  0  0  0  0  0  0  0  0  0
  -23.3884   18.1524  136.0547 C   0  0  0  0  0  0  0  0  0  0  0  0
  -23.1768   19.5148  135.5364 C   0  0  0  0  0  0  0  0  0  0  0  0
  1  2  2  0
  2  3  1  0
  2  4  1  0
  4  5  2  0
  4  6  1  0
  5 11  1  0
  6  7  1  0
  6  8  1  0
  8  9  2  0
  8 10  1  0
 10 11  2  0
 11 12  1  0
 12 13  2  0
 12 17  1  0
 13 14  1  0
 14 15  2  0
 15 16  1  0
 16 17  2  0
 17 18  1  0
M  END
$$$$
