
     RDKit          3D

 18 19  0  0  0  0  0  0  0  0999 V2000
  -17.4889   15.4961  133.4990 O   0  0  0  0  0  0  0  0  0  0  0  0
  -18.4531   15.6490  134.2653 C   0  0  0  0  0  0  0  0  0  0  0  0
  -18.4131   15.1664  135.5628 O   0  0  0  0  0  0  0  0  0  0  0  0
  -19.6755   16.3655  133.7783 C   0  0  0  0  0  0  0  0  0  0  0  0
  -20.6234   16.5893  134.5656 N   0  0  0  0  0  0  0  0  0  0  0  0
  -19.7095   16.7845  132.3691 C   0  0  0  0  0  0  0  0  0  0  0  0
  -18.6243   17.6337  132.0998 O   0  0  0  0  0  0  0  0  0  0  0  0
  -20.9630   17.4611  132.0385 C   0  0  0  0  0  0  0  0  0  0  0  0
  -21.1875   17.8871  130.8602 O   0  0  0  0  0  0  0  0  0  0  0  0
  -22.0064   17.6705  133.0625 C   0  0  0  0  0  0  0  0  0  0  0  0
  -21.8697   17.2564  134.2903 C   0  0  0  0  0  0  0  0  0  0  0  0
  -22.8512   17.3291  135.3580 C   0  0  0  0  0  0  0  0  0  0  0  0
  -23.3378   16.1176  135.8895 C   0  0  0  0  0  0  0  0  0  0  0  0
  -24.2829   16.0388  136.8626 C   0  0  0  0  0  0  0  0  0  0  0  0
  -24.8083   17.1952  137.3721 C   0  0  0  0  0  0  0  0  0  0  0  0
  -24.3778   18.4082  136.8960 C   0  0  0  0  0  0  0  0  0  0  0  0
  -23.3974   18.4612  135.8854 C   0  0  0  0  0  0  0  0  0  0  0  0
  -23.0659   19.8107  135.3972 C   0  0  0  0  0  0  0  0  0  0  0  0
  1  2  2  0
  2  3  1  0
  2  4  1  0
  4  5  2  0
  4  6  1  0
  5 11  1  0
  6  7  1  0
  6  8  1  0
  8  9  2  0
  8 10  1  0
 10 11  2  0
 11 12  1  0
 12 13  2  0
 12 17  1  0
 13 14  1  0
 14 15  2  0
 15 16  1  0
 16 17  2  0
 17 18  1  0
M  END
$$$$
