
     RDKit          3D

 18 19  0  0  0  0  0  0  0  0999 V2000
  -20.3531   18.2782  130.6428 O   0  0  0  0  0  0  0  0  0  0  0  0
  -21.0473   18.2143  131.6696 C   0  0  0  0  0  0  0  0  0  0  0  0
  -22.2235   18.9373  131.7784 O   0  0  0  0  0  0  0  0  0  0  0  0
  -20.6051   17.3429  132.8054 C   0  0  0  0  0  0  0  0  0  0  0  0
  -21.3793   17.1284  133.7661 N   0  0  0  0  0  0  0  0  0  0  0  0
  -19.2546   16.7645  132.7410 C   0  0  0  0  0  0  0  0  0  0  0  0
  -19.1253   15.9882  131.5783 O   0  0  0  0  0  0  0  0  0  0  0  0
  -18.9619   15.9477  133.9180 C   0  0  0  0  0  0  0  0  0  0  0  0
  -17.8346   15.3720  134.0531 O   0  0  0  0  0  0  0  0  0  0  0  0
  -19.9659   15.7662  134.9857 C   0  0  0  0  0  0  0  0  0  0  0  0
  -21.1406   16.3280  134.9393 C   0  0  0  0  0  0  0  0  0  0  0  0
  -22.1742   16.2922  135.9586 C   0  0  0  0  0  0  0  0  0  0  0  0
  -23.0078   15.1568  136.0124 C   0  0  0  0  0  0  0  0  0  0  0  0
  -24.0357   15.0084  136.8886 C   0  0  0  0  0  0  0  0  0  0  0  0
  -24.2952   16.0114  137.7828 C   0  0  0  0  0  0  0  0  0  0  0  0
  -23.5208   17.1443  137.7810 C   0  0  0  0  0  0  0  0  0  0  0  0
  -22.4617   17.2730  136.8606 C   0  0  0  0  0  0  0  0  0  0  0  0
  -21.7461   18.5599  136.8970 C   0  0  0  0  0  0  0  0  0  0  0  0
  1  2  2  0
  2  3  1  0
  2  4  1  0
  4  5  2  0
  4  6  1  0
  5 11  1  0
  6  7  1  0
  6  8  1  0
  8  9  2  0
  8 10  1  0
 10 11  2  0
 11 12  1  0
 12 13  2  0
 12 17  1  0
 13 14  1  0
 14 15  2  0
 15 16  1  0
 16 17  2  0
 17 18  1  0
M  END
$$$$
