
     RDKit          3D

 18 19  0  0  0  0  0  0  0  0999 V2000
  -21.8229   19.2032  131.6782 O   0  0  0  0  0  0  0  0  0  0  0  0
  -21.8093   18.8416  132.8654 C   0  0  0  0  0  0  0  0  0  0  0  0
  -22.7327   19.3381  133.7702 O   0  0  0  0  0  0  0  0  0  0  0  0
  -20.7793   17.8546  133.3236 C   0  0  0  0  0  0  0  0  0  0  0  0
  -20.8238   17.4018  134.4903 N   0  0  0  0  0  0  0  0  0  0  0  0
  -19.7406   17.4513  132.3638 C   0  0  0  0  0  0  0  0  0  0  0  0
  -20.3390   16.8921  131.2235 O   0  0  0  0  0  0  0  0  0  0  0  0
  -18.8052   16.4943  132.9532 C   0  0  0  0  0  0  0  0  0  0  0  0
  -17.8254   16.0362  132.2818 O   0  0  0  0  0  0  0  0  0  0  0  0
  -18.9692   16.0305  134.3457 C   0  0  0  0  0  0  0  0  0  0  0  0
  -19.9338   16.4553  135.1118 C   0  0  0  0  0  0  0  0  0  0  0  0
  -20.1497   16.1388  136.5123 C   0  0  0  0  0  0  0  0  0  0  0  0
  -19.6867   17.0586  137.4749 C   0  0  0  0  0  0  0  0  0  0  0  0
  -19.7886   16.8715  138.8169 C   0  0  0  0  0  0  0  0  0  0  0  0
  -20.3734   15.7259  139.2844 C   0  0  0  0  0  0  0  0  0  0  0  0
  -20.8436   14.7893  138.3985 C   0  0  0  0  0  0  0  0  0  0  0  0
  -20.7239   15.0078  137.0117 C   0  0  0  0  0  0  0  0  0  0  0  0
  -21.1926   13.9046  136.1557 C   0  0  0  0  0  0  0  0  0  0  0  0
  1  2  2  0
  2  3  1  0
  2  4  1  0
  4  5  2  0
  4  6  1  0
  5 11  1  0
  6  7  1  0
  6  8  1  0
  8  9  2  0
  8 10  1  0
 10 11  2  0
 11 12  1  0
 12 13  2  0
 12 17  1  0
 13 14  1  0
 14 15  2  0
 15 16  1  0
 16 17  2  0
 17 18  1  0
M  END
$$$$
