
     RDKit          3D

 18 19  0  0  0  0  0  0  0  0999 V2000
  -21.4921   19.5454  131.7310 O   0  0  0  0  0  0  0  0  0  0  0  0
  -21.6941   19.0940  132.8692 C   0  0  0  0  0  0  0  0  0  0  0  0
  -22.6786   19.6305  133.6822 O   0  0  0  0  0  0  0  0  0  0  0  0
  -20.8606   17.9534  133.3686 C   0  0  0  0  0  0  0  0  0  0  0  0
  -21.1455   17.4008  134.4557 N   0  0  0  0  0  0  0  0  0  0  0  0
  -19.7219   17.5228  132.5436 C   0  0  0  0  0  0  0  0  0  0  0  0
  -20.1742   17.1486  131.2682 O   0  0  0  0  0  0  0  0  0  0  0  0
  -19.0001   16.4107  133.1603 C   0  0  0  0  0  0  0  0  0  0  0  0
  -17.9731   15.9057  132.6028 O   0  0  0  0  0  0  0  0  0  0  0  0
  -19.4413   15.8399  134.4489 C   0  0  0  0  0  0  0  0  0  0  0  0
  -20.4726   16.3014  135.0980 C   0  0  0  0  0  0  0  0  0  0  0  0
  -20.9510   15.8815  136.4031 C   0  0  0  0  0  0  0  0  0  0  0  0
  -20.0034   15.7334  137.4361 C   0  0  0  0  0  0  0  0  0  0  0  0
  -20.3064   15.3121  138.6919 C   0  0  0  0  0  0  0  0  0  0  0  0
  -21.6060   15.0073  138.9938 C   0  0  0  0  0  0  0  0  0  0  0  0
  -22.5767   15.1292  138.0314 C   0  0  0  0  0  0  0  0  0  0  0  0
  -22.2348   15.5670  136.7365 C   0  0  0  0  0  0  0  0  0  0  0  0
  -23.3410   15.5880  135.7642 C   0  0  0  0  0  0  0  0  0  0  0  0
  1  2  2  0
  2  3  1  0
  2  4  1  0
  4  5  2  0
  4  6  1  0
  5 11  1  0
  6  7  1  0
  6  8  1  0
  8  9  2  0
  8 10  1  0
 10 11  2  0
 11 12  1  0
 12 13  2  0
 12 17  1  0
 13 14  1  0
 14 15  2  0
 15 16  1  0
 16 17  2  0
 17 18  1  0
M  END
$$$$
