
     RDKit          3D

 18 19  0  0  0  0  0  0  0  0999 V2000
  -17.0124   15.7819  133.4903 O   0  0  0  0  0  0  0  0  0  0  0  0
  -17.9894   15.8476  134.2529 C   0  0  0  0  0  0  0  0  0  0  0  0
  -17.8960   15.4182  135.5663 O   0  0  0  0  0  0  0  0  0  0  0  0
  -19.2862   16.3991  133.7438 C   0  0  0  0  0  0  0  0  0  0  0  0
  -20.2691   16.4953  134.5138 N   0  0  0  0  0  0  0  0  0  0  0  0
  -19.3496   16.8130  132.3341 C   0  0  0  0  0  0  0  0  0  0  0  0
  -18.3801   17.7973  132.0841 O   0  0  0  0  0  0  0  0  0  0  0  0
  -20.6746   17.3206  131.9809 C   0  0  0  0  0  0  0  0  0  0  0  0
  -20.9319   17.7160  130.7986 O   0  0  0  0  0  0  0  0  0  0  0  0
  -21.7546   17.3895  132.9859 C   0  0  0  0  0  0  0  0  0  0  0  0
  -21.5868   16.9942  134.2161 C   0  0  0  0  0  0  0  0  0  0  0  0
  -22.5883   16.9357  135.2660 C   0  0  0  0  0  0  0  0  0  0  0  0
  -23.2957   18.1167  135.5686 C   0  0  0  0  0  0  0  0  0  0  0  0
  -24.2307   18.2133  136.5498 C   0  0  0  0  0  0  0  0  0  0  0  0
  -24.5186   17.1074  137.3029 C   0  0  0  0  0  0  0  0  0  0  0  0
  -23.8633   15.9266  137.0594 C   0  0  0  0  0  0  0  0  0  0  0  0
  -22.8970   15.8544  136.0365 C   0  0  0  0  0  0  0  0  0  0  0  0
  -22.2030   14.5610  135.9133 C   0  0  0  0  0  0  0  0  0  0  0  0
  1  2  2  0
  2  3  1  0
  2  4  1  0
  4  5  2  0
  4  6  1  0
  5 11  1  0
  6  7  1  0
  6  8  1  0
  8  9  2  0
  8 10  1  0
 10 11  2  0
 11 12  1  0
 12 13  2  0
 12 17  1  0
 13 14  1  0
 14 15  2  0
 15 16  1  0
 16 17  2  0
 17 18  1  0
M  END
$$$$
