
     RDKit          3D

 33 35  0  0  0  0  0  0  0  0999 V2000
  111.6459  -17.2660   -6.8748 C   0  0  2  0  0  0  0  0  0  0  0  0
  110.7897  -18.5119   -6.7217 C   0  0  1  0  0  0  0  0  0  0  0  0
  111.4762  -19.4551   -5.7608 C   0  0  2  0  0  0  0  0  0  0  0  0
  111.6737  -18.8081   -4.4019 C   0  0  1  0  0  0  0  0  0  0  0  0
  111.4746  -17.3244   -4.5689 C   0  0  1  0  0  0  0  0  0  0  0  0
  112.0868  -16.6497   -3.3375 C   0  0  0  0  0  0  0  0  0  0  0  0
  112.3134  -12.6753   -8.6527 C   0  0  1  0  0  0  0  0  0  0  0  0
  111.8094  -13.6470   -9.6842 C   0  0  1  0  0  0  0  0  0  0  0  0
  110.9334  -14.6678   -9.0418 C   0  0  2  0  0  0  0  0  0  0  0  0
  111.5209  -15.1073   -7.7141 C   0  0  1  0  0  0  0  0  0  0  0  0
  111.3028  -13.9682   -6.7489 C   0  0  2  0  0  0  0  0  0  0  0  0
  111.4689  -12.6235   -7.4074 C   0  0  0  0  0  0  0  0  0  0  0  0
  111.8058  -12.4843  -11.6884 C   0  0  1  0  0  0  0  0  0  0  0  0
  111.2111  -11.2406  -12.2990 C   0  0  1  0  0  0  0  0  0  0  0  0
  109.8274  -11.5655  -12.8108 C   0  0  2  0  0  0  0  0  0  0  0  0
  109.9642  -12.6769  -13.8281 C   0  0  1  0  0  0  0  0  0  0  0  0
  110.7484  -13.8118  -13.2517 C   0  0  1  0  0  0  0  0  0  0  0  0
  111.0779  -14.7853  -14.3850 C   0  0  0  0  0  0  0  0  0  0  0  0
  111.7555  -15.2252   -3.3241 N   0  0  0  0  0  4  0  0  0  0  0  0
  112.1681  -14.0210   -5.5989 N   0  0  0  0  0  4  0  0  0  0  0  0
  113.6898  -12.9568   -8.3985 N   0  0  0  0  0  4  0  0  0  0  0  0
  109.2934  -10.3572  -13.4265 N   0  0  0  0  0  4  0  0  0  0  0  0
  112.1929  -16.8682   -5.6629 O   0  0  0  0  0  0  0  0  0  0  0  0
  109.4969  -18.2220   -6.3598 O   0  0  0  0  0  0  0  0  0  0  0  0
  112.7274  -19.7842   -6.2598 O   0  0  0  0  0  0  0  0  0  0  0  0
  110.7333  -19.3146   -3.4786 O   0  0  0  0  0  0  0  0  0  0  0  0
  110.8587  -16.2638   -7.3548 O   0  0  0  0  0  0  0  0  0  0  0  0
  110.7078  -15.7743   -9.8590 O   0  0  0  0  0  0  0  0  0  0  0  0
  111.0284  -12.9880  -10.6614 O   0  0  0  0  0  0  0  0  0  0  0  0
  111.9673  -13.4104  -12.7166 O   0  0  0  0  0  0  0  0  0  0  0  0
  111.2132  -10.1564  -11.4394 O   0  0  0  0  0  0  0  0  0  0  0  0
  108.6774  -13.1259  -14.1174 O   0  0  0  0  0  0  0  0  0  0  0  0
  110.1817  -15.8660  -14.2986 O   0  0  0  0  0  0  0  0  0  0  0  0
  1  2  1  0
  1 23  1  0
  1 27  1  1
  2  3  1  0
  2 24  1  1
  3  4  1  0
  3 25  1  6
  5  4  1  0
  4 26  1  1
  5  6  1  1
 23  5  1  0
  6 19  1  0
  8  7  1  0
  7 12  1  0
  7 21  1  1
  8  9  1  0
  8 29  1  6
  9 10  1  0
  9 28  1  6
 10 11  1  0
 10 27  1  1
 12 11  1  0
 11 20  1  1
 13 14  1  0
 13 29  1  1
 13 30  1  0
 14 15  1  0
 14 31  1  1
 15 16  1  0
 15 22  1  6
 16 17  1  0
 16 32  1  1
 17 18  1  6
 17 30  1  0
 18 33  1  0
M  CHG  4  19   1  20   1  21   1  22   1
M  END
$$$$
