
     RDKit          3D

 33 35  0  0  0  0  0  0  0  0999 V2000
  109.1141  -17.9527   -7.0679 C   0  0  2  0  0  0  0  0  0  0  0  0
  109.4239  -18.8905   -8.2227 C   0  0  1  0  0  0  0  0  0  0  0  0
  108.3878  -19.9906   -8.2433 C   0  0  2  0  0  0  0  0  0  0  0  0
  106.9892  -19.4257   -8.4129 C   0  0  1  0  0  0  0  0  0  0  0  0
  107.0536  -17.9498   -8.1188 C   0  0  1  0  0  0  0  0  0  0  0  0
  105.6174  -17.4810   -7.8662 C   0  0  0  0  0  0  0  0  0  0  0  0
  112.7829  -15.3165   -5.0023 C   0  0  1  0  0  0  0  0  0  0  0  0
  112.9777  -15.3454   -6.4934 C   0  0  1  0  0  0  0  0  0  0  0  0
  111.6602  -15.4676   -7.1801 C   0  0  2  0  0  0  0  0  0  0  0  0
  110.7721  -16.4545   -6.4463 C   0  0  1  0  0  0  0  0  0  0  0  0
  110.3167  -15.7667   -5.1829 C   0  0  2  0  0  0  0  0  0  0  0  0
  111.3969  -14.9059   -4.5815 C   0  0  0  0  0  0  0  0  0  0  0  0
  114.8628  -13.9984   -6.4758 C   0  0  1  0  0  0  0  0  0  0  0  0
  115.2702  -12.5507   -6.3675 C   0  0  1  0  0  0  0  0  0  0  0  0
  115.1433  -11.9080   -7.7288 C   0  0  2  0  0  0  0  0  0  0  0  0
  116.0382  -12.6706   -8.6810 C   0  0  1  0  0  0  0  0  0  0  0  0
  115.7479  -14.1351   -8.6024 C   0  0  1  0  0  0  0  0  0  0  0  0
  116.8377  -14.8774   -9.3780 C   0  0  0  0  0  0  0  0  0  0  0  0
  105.5946  -16.0439   -7.5954 N   0  0  0  0  0  4  0  0  0  0  0  0
  109.8487  -16.6803   -4.1727 N   0  0  0  0  0  4  0  0  0  0  0  0
  113.1936  -16.5745   -4.4667 N   0  0  0  0  0  4  0  0  0  0  0  0
  115.5774  -10.5226   -7.6010 N   0  0  0  0  0  4  0  0  0  0  0  0
  107.7502  -17.7294   -6.9411 O   0  0  0  0  0  0  0  0  0  0  0  0
  109.5326  -18.2312   -9.4226 O   0  0  0  0  0  0  0  0  0  0  0  0
  108.4253  -20.6756   -7.0381 O   0  0  0  0  0  0  0  0  0  0  0  0
  106.5372  -19.6293   -9.7350 O   0  0  0  0  0  0  0  0  0  0  0  0
  109.7365  -16.7647   -7.3044 O   0  0  0  0  0  0  0  0  0  0  0  0
  111.7833  -15.8333   -8.5195 O   0  0  0  0  0  0  0  0  0  0  0  0
  113.5719  -14.1463   -6.9495 O   0  0  0  0  0  0  0  0  0  0  0  0
  115.7920  -14.6263   -7.3024 O   0  0  0  0  0  0  0  0  0  0  0  0
  114.5736  -11.8595   -5.3922 O   0  0  0  0  0  0  0  0  0  0  0  0
  115.7391  -12.2253   -9.9669 O   0  0  0  0  0  0  0  0  0  0  0  0
  116.4820  -14.8654  -10.7388 O   0  0  0  0  0  0  0  0  0  0  0  0
  1  2  1  0
  1 23  1  0
  1 27  1  6
  2  3  1  0
  2 24  1  6
  3  4  1  0
  3 25  1  1
  5  4  1  0
  4 26  1  6
  5  6  1  1
 23  5  1  0
  6 19  1  0
  8  7  1  0
  7 12  1  0
  7 21  1  6
  8  9  1  0
  8 29  1  6
  9 10  1  0
  9 28  1  6
 10 11  1  0
 10 27  1  6
 12 11  1  0
 11 20  1  1
 13 14  1  0
 13 29  1  6
 13 30  1  0
 14 15  1  0
 14 31  1  1
 15 16  1  0
 15 22  1  1
 16 17  1  0
 16 32  1  6
 17 18  1  6
 17 30  1  0
 18 33  1  0
M  CHG  4  19   1  20   1  21   1  22   1
M  END
$$$$
