
     RDKit          3D

 33 35  0  0  0  0  0  0  0  0999 V2000
  100.5047  -16.6691   -1.8278 C   0  0  2  0  0  0  0  0  0  0  0  0
   99.3929  -15.8254   -1.2268 C   0  0  1  0  0  0  0  0  0  0  0  0
   98.8114  -16.5639   -0.0434 C   0  0  2  0  0  0  0  0  0  0  0  0
   99.8692  -16.8310    1.0120 C   0  0  1  0  0  0  0  0  0  0  0  0
  101.2165  -16.6195    0.3725 C   0  0  1  0  0  0  0  0  0  0  0  0
  102.2520  -17.2939    1.2776 C   0  0  0  0  0  0  0  0  0  0  0  0
  102.8283  -17.0697   -6.1608 C   0  0  1  0  0  0  0  0  0  0  0  0
  101.3626  -16.7392   -6.0929 C   0  0  1  0  0  0  0  0  0  0  0  0
  101.0789  -15.9135   -4.8846 C   0  0  2  0  0  0  0  0  0  0  0  0
  101.8618  -16.4339   -3.6941 C   0  0  1  0  0  0  0  0  0  0  0  0
  103.3002  -16.0374   -3.9183 C   0  0  2  0  0  0  0  0  0  0  0  0
  103.6974  -16.1298   -5.3685 C   0  0  0  0  0  0  0  0  0  0  0  0
  100.7283  -16.7773   -8.3211 C   0  0  1  0  0  0  0  0  0  0  0  0
  100.9612  -16.0427   -9.6171 C   0  0  1  0  0  0  0  0  0  0  0  0
  100.0608  -14.8303   -9.6560 C   0  0  2  0  0  0  0  0  0  0  0  0
   98.6328  -15.3158   -9.5377 C   0  0  1  0  0  0  0  0  0  0  0  0
   98.4898  -16.2182   -8.3542 C   0  0  1  0  0  0  0  0  0  0  0  0
   97.1124  -16.8801   -8.4255 C   0  0  0  0  0  0  0  0  0  0  0  0
  103.4525  -17.6275    0.5117 N   0  0  0  0  0  4  0  0  0  0  0  0
  104.2335  -16.8118   -3.1414 N   0  0  0  0  0  4  0  0  0  0  0  0
  103.0007  -18.4422   -5.8075 N   0  0  0  0  0  4  0  0  0  0  0  0
  100.2809  -14.1623  -10.9324 N   0  0  0  0  0  4  0  0  0  0  0  0
  101.2735  -17.2780   -0.8457 O   0  0  0  0  0  0  0  0  0  0  0  0
   99.8058  -14.5527   -0.9169 O   0  0  0  0  0  0  0  0  0  0  0  0
   98.3168  -17.7880   -0.4675 O   0  0  0  0  0  0  0  0  0  0  0  0
   99.7116  -15.9418    2.0974 O   0  0  0  0  0  0  0  0  0  0  0  0
  101.3029  -15.8550   -2.5726 O   0  0  0  0  0  0  0  0  0  0  0  0
   99.7200  -15.8550   -4.5796 O   0  0  0  0  0  0  0  0  0  0  0  0
  100.9626  -15.9793   -7.2161 O   0  0  0  0  0  0  0  0  0  0  0  0
   99.4189  -17.2526   -8.3473 O   0  0  0  0  0  0  0  0  0  0  0  0
  102.2895  -15.7189   -9.8294 O   0  0  0  0  0  0  0  0  0  0  0  0
   97.8346  -14.1912   -9.3395 O   0  0  0  0  0  0  0  0  0  0  0  0
   97.1635  -18.0636   -7.6671 O   0  0  0  0  0  0  0  0  0  0  0  0
  1  2  1  0
  1 23  1  0
  1 27  1  1
  2  3  1  0
  2 24  1  1
  3  4  1  0
  3 25  1  6
  5  4  1  0
  4 26  1  1
  5  6  1  1
 23  5  1  0
  6 19  1  0
  8  7  1  0
  7 12  1  0
  7 21  1  1
  8  9  1  0
  8 29  1  6
  9 10  1  0
  9 28  1  1
 10 11  1  0
 10 27  1  1
 12 11  1  0
 11 20  1  1
 13 14  1  0
 13 29  1  1
 13 30  1  0
 14 15  1  0
 14 31  1  1
 15 16  1  0
 15 22  1  6
 16 17  1  0
 16 32  1  1
 17 18  1  6
 17 30  1  0
 18 33  1  0
M  CHG  4  19   1  20   1  21   1  22   1
M  END
$$$$
