
     RDKit          3D

 33 35  0  0  0  0  0  0  0  0999 V2000
  106.5058  -16.5874   -9.1771 C   0  0  2  0  0  0  0  0  0  0  0  0
  105.5422  -17.7205   -8.8660 C   0  0  1  0  0  0  0  0  0  0  0  0
  104.1722  -17.3455   -9.3824 C   0  0  2  0  0  0  0  0  0  0  0  0
  104.1972  -17.1010  -10.8803 C   0  0  1  0  0  0  0  0  0  0  0  0
  105.6365  -16.9342  -11.2923 C   0  0  1  0  0  0  0  0  0  0  0  0
  105.6325  -16.2719  -12.6735 C   0  0  0  0  0  0  0  0  0  0  0  0
  111.0805  -14.7125   -9.4980 C   0  0  1  0  0  0  0  0  0  0  0  0
  110.5160  -14.9270   -8.1205 C   0  0  1  0  0  0  0  0  0  0  0  0
  109.6308  -16.1263   -8.1104 C   0  0  2  0  0  0  0  0  0  0  0  0
  108.7785  -16.1637   -9.3647 C   0  0  1  0  0  0  0  0  0  0  0  0
  109.6955  -16.5569  -10.4966 C   0  0  2  0  0  0  0  0  0  0  0  0
  111.0668  -15.9493  -10.3563 C   0  0  0  0  0  0  0  0  0  0  0  0
  111.5881  -14.1910   -6.2028 C   0  0  1  0  0  0  0  0  0  0  0  0
  112.9979  -13.8670   -5.7772 C   0  0  1  0  0  0  0  0  0  0  0  0
  113.6556  -15.1309   -5.2754 C   0  0  2  0  0  0  0  0  0  0  0  0
  112.8285  -15.6505   -4.1200 C   0  0  1  0  0  0  0  0  0  0  0  0
  111.3916  -15.7566   -4.5192 C   0  0  1  0  0  0  0  0  0  0  0  0
  110.5681  -16.0337   -3.2600 C   0  0  0  0  0  0  0  0  0  0  0  0
  107.0030  -16.0837  -13.1482 N   0  0  0  0  0  4  0  0  0  0  0  0
  109.1775  -16.2143  -11.7960 N   0  0  0  0  0  4  0  0  0  0  0  0
  110.4159  -13.5973  -10.0920 N   0  0  0  0  0  4  0  0  0  0  0  0
  115.0010  -14.7805   -4.8381 N   0  0  0  0  0  4  0  0  0  0  0  0
  106.2770  -16.0517  -10.4368 O   0  0  0  0  0  0  0  0  0  0  0  0
  105.9828  -18.9321   -9.3395 O   0  0  0  0  0  0  0  0  0  0  0  0
  103.7579  -16.1734   -8.7681 O   0  0  0  0  0  0  0  0  0  0  0  0
  103.6295  -18.1982  -11.5639 O   0  0  0  0  0  0  0  0  0  0  0  0
  107.7741  -17.0810   -9.1302 O   0  0  0  0  0  0  0  0  0  0  0  0
  108.8227  -16.1893   -6.9765 O   0  0  0  0  0  0  0  0  0  0  0  0
  111.5468  -15.1661   -7.1827 O   0  0  0  0  0  0  0  0  0  0  0  0
  110.8918  -14.5770   -5.0595 O   0  0  0  0  0  0  0  0  0  0  0  0
  113.7377  -13.2463   -6.7680 O   0  0  0  0  0  0  0  0  0  0  0  0
  113.3029  -16.9256   -3.8196 O   0  0  0  0  0  0  0  0  0  0  0  0
  111.4267  -16.5981   -2.2995 O   0  0  0  0  0  0  0  0  0  0  0  0
  1  2  1  0
  1 23  1  0
  1 27  1  6
  2  3  1  0
  2 24  1  6
  3  4  1  0
  3 25  1  1
  5  4  1  0
  4 26  1  6
  5  6  1  6
 23  5  1  0
  6 19  1  0
  8  7  1  0
  7 12  1  0
  7 21  1  6
  8  9  1  0
  8 29  1  1
  9 10  1  0
  9 28  1  1
 10 11  1  0
 10 27  1  1
 12 11  1  0
 11 20  1  6
 13 14  1  0
 13 29  1  6
 13 30  1  0
 14 15  1  0
 14 31  1  6
 15 16  1  0
 15 22  1  1
 16 17  1  0
 16 32  1  6
 17 18  1  1
 17 30  1  0
 18 33  1  0
M  CHG  4  19   1  20   1  21   1  22   1
M  END
$$$$
