
     RDKit          3D

 33 35  0  0  0  0  0  0  0  0999 V2000
  106.3129  -15.2942   -7.3375 C   0  0  2  0  0  0  0  0  0  0  0  0
  106.3559  -16.3079   -6.2063 C   0  0  1  0  0  0  0  0  0  0  0  0
  104.9464  -16.5442   -5.7150 C   0  0  2  0  0  0  0  0  0  0  0  0
  104.0565  -17.0673   -6.8280 C   0  0  1  0  0  0  0  0  0  0  0  0
  104.7623  -16.8144   -8.1345 C   0  0  1  0  0  0  0  0  0  0  0  0
  103.7104  -16.9341   -9.2415 C   0  0  0  0  0  0  0  0  0  0  0  0
  110.3091  -12.4855   -8.1853 C   0  0  1  0  0  0  0  0  0  0  0  0
  110.4486  -13.5610   -7.1433 C   0  0  1  0  0  0  0  0  0  0  0  0
  109.6201  -14.7438   -7.5134 C   0  0  2  0  0  0  0  0  0  0  0  0
  108.2780  -14.2973   -8.0616 C   0  0  1  0  0  0  0  0  0  0  0  0
  108.5381  -13.7498   -9.4433 C   0  0  2  0  0  0  0  0  0  0  0  0
  109.8399  -12.9958   -9.5218 C   0  0  0  0  0  0  0  0  0  0  0  0
  112.5033  -13.2952   -6.1061 C   0  0  1  0  0  0  0  0  0  0  0  0
  113.9788  -13.2574   -6.4148 C   0  0  1  0  0  0  0  0  0  0  0  0
  114.4943  -14.6752   -6.4935 C   0  0  2  0  0  0  0  0  0  0  0  0
  114.2189  -15.3376   -5.1614 C   0  0  1  0  0  0  0  0  0  0  0  0
  112.7815  -15.1677   -4.7868 C   0  0  1  0  0  0  0  0  0  0  0  0
  112.6124  -15.6203   -3.3353 C   0  0  0  0  0  0  0  0  0  0  0  0
  103.8135  -15.8020  -10.1617 N   0  0  0  0  0  4  0  0  0  0  0  0
  107.4863  -12.8917   -9.9245 N   0  0  0  0  0  4  0  0  0  0  0  0
  109.4929  -11.4417   -7.6536 N   0  0  0  0  0  4  0  0  0  0  0  0
  115.9262  -14.6065   -6.7561 N   0  0  0  0  0  4  0  0  0  0  0  0
  105.2298  -15.5104   -8.1780 O   0  0  0  0  0  0  0  0  0  0  0  0
  107.0035  -17.4661   -6.5607 O   0  0  0  0  0  0  0  0  0  0  0  0
  104.4104  -15.3446   -5.2717 O   0  0  0  0  0  0  0  0  0  0  0  0
  103.8348  -18.4522   -6.6659 O   0  0  0  0  0  0  0  0  0  0  0  0
  107.4622  -15.4107   -8.0586 O   0  0  0  0  0  0  0  0  0  0  0  0
  109.4371  -15.6266   -6.4504 O   0  0  0  0  0  0  0  0  0  0  0  0
  111.7873  -14.0064   -7.0517 O   0  0  0  0  0  0  0  0  0  0  0  0
  112.3636  -13.8424   -4.8325 O   0  0  0  0  0  0  0  0  0  0  0  0
  114.2801  -12.5242   -7.5488 O   0  0  0  0  0  0  0  0  0  0  0  0
  114.4804  -16.6969   -5.3199 O   0  0  0  0  0  0  0  0  0  0  0  0
  111.2374  -15.6133   -3.0393 O   0  0  0  0  0  0  0  0  0  0  0  0
  1  2  1  0
  1 23  1  0
  1 27  1  6
  2  3  1  0
  2 24  1  6
  3  4  1  0
  3 25  1  6
  5  4  1  0
  4 26  1  1
  5  6  1  6
 23  5  1  0
  6 19  1  0
  8  7  1  0
  7 12  1  0
  7 21  1  1
  8  9  1  0
  8 29  1  6
  9 10  1  0
  9 28  1  1
 10 11  1  0
 10 27  1  6
 12 11  1  0
 11 20  1  1
 13 14  1  0
 13 29  1  6
 13 30  1  0
 14 15  1  0
 14 31  1  6
 15 16  1  0
 15 22  1  1
 16 17  1  0
 16 32  1  6
 17 18  1  1
 17 30  1  0
 18 33  1  0
M  CHG  4  19   1  20   1  21   1  22   1
M  END
$$$$
