
     RDKit          3D

 33 35  0  0  0  0  0  0  0  0999 V2000
  106.9839  -14.0083   -8.7157 C   0  0  2  0  0  0  0  0  0  0  0  0
  105.8079  -14.3751   -7.8260 C   0  0  1  0  0  0  0  0  0  0  0  0
  104.5270  -14.0755   -8.5701 C   0  0  2  0  0  0  0  0  0  0  0  0
  104.4458  -14.8640   -9.8647 C   0  0  1  0  0  0  0  0  0  0  0  0
  105.8260  -15.3846  -10.1700 C   0  0  1  0  0  0  0  0  0  0  0  0
  105.8346  -15.7890  -11.6474 C   0  0  0  0  0  0  0  0  0  0  0  0
  111.8452  -14.0860   -9.7439 C   0  0  1  0  0  0  0  0  0  0  0  0
  111.5654  -13.6382   -8.3356 C   0  0  1  0  0  0  0  0  0  0  0  0
  110.3379  -14.3080   -7.8191 C   0  0  2  0  0  0  0  0  0  0  0  0
  109.2702  -14.3558   -8.8956 C   0  0  1  0  0  0  0  0  0  0  0  0
  109.7088  -15.4018   -9.8906 C   0  0  2  0  0  0  0  0  0  0  0  0
  111.2006  -15.3991  -10.1001 C   0  0  0  0  0  0  0  0  0  0  0  0
  112.9827  -12.9516   -6.6360 C   0  0  1  0  0  0  0  0  0  0  0  0
  114.4778  -12.8200   -6.4917 C   0  0  1  0  0  0  0  0  0  0  0  0
  115.0298  -14.1207   -5.9574 C   0  0  2  0  0  0  0  0  0  0  0  0
  114.3616  -14.3902   -4.6270 C   0  0  1  0  0  0  0  0  0  0  0  0
  112.8758  -14.3008   -4.7671 C   0  0  1  0  0  0  0  0  0  0  0  0
  112.2644  -14.3228   -3.3649 C   0  0  0  0  0  0  0  0  0  0  0  0
  107.0983  -16.4432  -11.9854 N   0  0  0  0  0  4  0  0  0  0  0  0
  109.0694  -15.2718  -11.1746 N   0  0  0  0  0  4  0  0  0  0  0  0
  111.5057  -13.0227  -10.6340 N   0  0  0  0  0  4  0  0  0  0  0  0
  116.4682  -13.9517   -5.7943 N   0  0  0  0  0  4  0  0  0  0  0  0
  106.7582  -14.3676  -10.0371 O   0  0  0  0  0  0  0  0  0  0  0  0
  105.8752  -15.6688   -7.3698 O   0  0  0  0  0  0  0  0  0  0  0  0
  104.4905  -12.7272   -8.8917 O   0  0  0  0  0  0  0  0  0  0  0  0
  103.5489  -15.9451   -9.7227 O   0  0  0  0  0  0  0  0  0  0  0  0
  108.0851  -14.6675   -8.2602 O   0  0  0  0  0  0  0  0  0  0  0  0
  109.8364  -13.7001   -6.6694 O   0  0  0  0  0  0  0  0  0  0  0  0
  112.6257  -13.9948   -7.4710 O   0  0  0  0  0  0  0  0  0  0  0  0
  112.4585  -13.1120   -5.3552 O   0  0  0  0  0  0  0  0  0  0  0  0
  115.1054  -12.4218   -7.6587 O   0  0  0  0  0  0  0  0  0  0  0  0
  114.6970  -15.6912   -4.2581 O   0  0  0  0  0  0  0  0  0  0  0  0
  111.0246  -13.6614   -3.4252 O   0  0  0  0  0  0  0  0  0  0  0  0
  1  2  1  0
  1 23  1  0
  1 27  1  1
  2  3  1  0
  2 24  1  6
  3  4  1  0
  3 25  1  6
  5  4  1  0
  4 26  1  1
  5  6  1  6
 23  5  1  0
  6 19  1  0
  8  7  1  0
  7 12  1  0
  7 21  1  6
  8  9  1  0
  8 29  1  1
  9 10  1  0
  9 28  1  1
 10 11  1  0
 10 27  1  1
 12 11  1  0
 11 20  1  6
 13 14  1  0
 13 29  1  6
 13 30  1  0
 14 15  1  0
 14 31  1  6
 15 16  1  0
 15 22  1  1
 16 17  1  0
 16 32  1  6
 17 18  1  1
 17 30  1  0
 18 33  1  0
M  CHG  4  19   1  20   1  21   1  22   1
M  END
$$$$
