
     RDKit          3D

 33 35  0  0  0  0  0  0  0  0999 V2000
  109.8167  -16.2063   -8.6671 C   0  0  2  0  0  0  0  0  0  0  0  0
  109.5313  -17.0427   -9.9033 C   0  0  1  0  0  0  0  0  0  0  0  0
  108.4467  -16.3631  -10.7069 C   0  0  2  0  0  0  0  0  0  0  0  0
  108.8675  -14.9669  -11.1282 C   0  0  1  0  0  0  0  0  0  0  0  0
  110.0556  -14.5749  -10.2894 C   0  0  1  0  0  0  0  0  0  0  0  0
  110.1991  -13.0539  -10.4001 C   0  0  0  0  0  0  0  0  0  0  0  0
  110.9415  -17.3921   -4.2008 C   0  0  1  0  0  0  0  0  0  0  0  0
  109.6674  -16.9411   -4.8606 C   0  0  1  0  0  0  0  0  0  0  0  0
  109.7681  -17.1095   -6.3383 C   0  0  2  0  0  0  0  0  0  0  0  0
  111.1416  -16.6880   -6.8252 C   0  0  1  0  0  0  0  0  0  0  0  0
  112.1007  -17.7718   -6.3984 C   0  0  2  0  0  0  0  0  0  0  0  0
  111.7580  -18.3351   -5.0439 C   0  0  0  0  0  0  0  0  0  0  0  0
  107.7881  -17.0474   -3.5095 C   0  0  1  0  0  0  0  0  0  0  0  0
  107.1602  -17.9769   -2.5018 C   0  0  1  0  0  0  0  0  0  0  0  0
  106.3257  -18.9983   -3.2382 C   0  0  2  0  0  0  0  0  0  0  0  0
  105.2802  -18.2484   -4.0342 C   0  0  1  0  0  0  0  0  0  0  0  0
  105.9263  -17.1867   -4.8653 C   0  0  1  0  0  0  0  0  0  0  0  0
  104.8226  -16.2992   -5.4437 C   0  0  0  0  0  0  0  0  0  0  0  0
  111.3682  -12.6000   -9.6477 N   0  0  0  0  0  4  0  0  0  0  0  0
  113.4750  -17.3417   -6.3772 N   0  0  0  0  0  4  0  0  0  0  0  0
  111.6637  -16.2376   -3.7721 N   0  0  0  0  0  4  0  0  0  0  0  0
  105.7038  -19.8581   -2.2392 N   0  0  0  0  0  4  0  0  0  0  0  0
  109.8060  -14.8484   -8.9538 O   0  0  0  0  0  0  0  0  0  0  0  0
  110.6628  -17.3016  -10.6374 O   0  0  0  0  0  0  0  0  0  0  0  0
  107.3064  -16.2451   -9.9266 O   0  0  0  0  0  0  0  0  0  0  0  0
  109.2236  -14.9555  -12.4944 O   0  0  0  0  0  0  0  0  0  0  0  0
  111.0473  -16.5488   -8.1952 O   0  0  0  0  0  0  0  0  0  0  0  0
  108.7773  -16.4127   -7.0281 O   0  0  0  0  0  0  0  0  0  0  0  0
  108.5703  -17.7217   -4.4294 O   0  0  0  0  0  0  0  0  0  0  0  0
  106.7524  -16.3482   -4.1253 O   0  0  0  0  0  0  0  0  0  0  0  0
  108.0816  -18.5635   -1.6526 O   0  0  0  0  0  0  0  0  0  0  0  0
  104.6738  -19.1717   -4.8832 O   0  0  0  0  0  0  0  0  0  0  0  0
  105.4323  -15.3339   -6.2652 O   0  0  0  0  0  0  0  0  0  0  0  0
  1  2  1  0
  1 23  1  0
  1 27  1  6
  2  3  1  0
  2 24  1  6
  3  4  1  0
  3 25  1  1
  5  4  1  0
  4 26  1  6
  5  6  1  1
 23  5  1  0
  6 19  1  0
  8  7  1  0
  7 12  1  0
  7 21  1  6
  8  9  1  0
  8 29  1  1
  9 10  1  0
  9 28  1  6
 10 11  1  0
 10 27  1  6
 12 11  1  0
 11 20  1  1
 13 14  1  0
 13 29  1  6
 13 30  1  0
 14 15  1  0
 14 31  1  6
 15 16  1  0
 15 22  1  1
 16 17  1  0
 16 32  1  6
 17 18  1  1
 17 30  1  0
 18 33  1  0
M  CHG  4  19   1  20   1  21   1  22   1
M  END
$$$$
