
     RDKit          3D

 33 35  0  0  0  0  0  0  0  0999 V2000
  106.5773  -15.1602   -7.0308 C   0  0  2  0  0  0  0  0  0  0  0  0
  105.9781  -13.8748   -6.4852 C   0  0  1  0  0  0  0  0  0  0  0  0
  104.9310  -14.2290   -5.4545 C   0  0  2  0  0  0  0  0  0  0  0  0
  105.5314  -15.0302   -4.3136 C   0  0  1  0  0  0  0  0  0  0  0  0
  106.8754  -15.5363   -4.7681 C   0  0  1  0  0  0  0  0  0  0  0  0
  107.2711  -16.6704   -3.8175 C   0  0  0  0  0  0  0  0  0  0  0  0
  109.0309  -17.5207  -10.4336 C   0  0  1  0  0  0  0  0  0  0  0  0
  107.5660  -17.4885  -10.0941 C   0  0  1  0  0  0  0  0  0  0  0  0
  107.2273  -16.2097   -9.4069 C   0  0  2  0  0  0  0  0  0  0  0  0
  108.3117  -15.8419   -8.4119 C   0  0  1  0  0  0  0  0  0  0  0  0
  109.4949  -15.3692   -9.2201 C   0  0  2  0  0  0  0  0  0  0  0  0
  109.6682  -16.1580  -10.4917 C   0  0  0  0  0  0  0  0  0  0  0  0
  106.0614  -18.7348  -11.3396 C   0  0  1  0  0  0  0  0  0  0  0  0
  105.4430  -18.9438  -12.6988 C   0  0  1  0  0  0  0  0  0  0  0  0
  104.5362  -17.7748  -13.0041 C   0  0  2  0  0  0  0  0  0  0  0  0
  103.4866  -17.7125  -11.9162 C   0  0  1  0  0  0  0  0  0  0  0  0
  104.1363  -17.7221  -10.5697 C   0  0  1  0  0  0  0  0  0  0  0  0
  103.0438  -17.9178   -9.5168 C   0  0  0  0  0  0  0  0  0  0  0  0
  106.0822  -17.4009   -3.3792 N   0  0  0  0  0  4  0  0  0  0  0  0
  110.7358  -15.4057   -8.4901 N   0  0  0  0  0  4  0  0  0  0  0  0
  109.6846  -18.4196   -9.5376 N   0  0  0  0  0  4  0  0  0  0  0  0
  103.9263  -18.0218  -14.3045 N   0  0  0  0  0  4  0  0  0  0  0  0
  106.7693  -16.1015   -6.0291 O   0  0  0  0  0  0  0  0  0  0  0  0
  106.9319  -13.0096   -6.0079 O   0  0  0  0  0  0  0  0  0  0  0  0
  103.9500  -15.0078   -6.0494 O   0  0  0  0  0  0  0  0  0  0  0  0
  105.6903  -14.2128   -3.1734 O   0  0  0  0  0  0  0  0  0  0  0  0
  107.7806  -14.8639   -7.5954 O   0  0  0  0  0  0  0  0  0  0  0  0
  105.9862  -16.2512   -8.7738 O   0  0  0  0  0  0  0  0  0  0  0  0
  106.7739  -17.5518  -11.2634 O   0  0  0  0  0  0  0  0  0  0  0  0
  105.0276  -18.7766  -10.4066 O   0  0  0  0  0  0  0  0  0  0  0  0
  106.3777  -19.1593  -13.6959 O   0  0  0  0  0  0  0  0  0  0  0  0
  102.8063  -16.5069  -12.0743 O   0  0  0  0  0  0  0  0  0  0  0  0
  103.5008  -18.8769   -8.5951 O   0  0  0  0  0  0  0  0  0  0  0  0
  1  2  1  0
  1 23  1  0
  1 27  1  1
  2  3  1  0
  2 24  1  1
  3  4  1  0
  3 25  1  6
  5  4  1  0
  4 26  1  1
  5  6  1  1
 23  5  1  0
  6 19  1  0
  8  7  1  0
  7 12  1  0
  7 21  1  1
  8  9  1  0
  8 29  1  6
  9 10  1  0
  9 28  1  1
 10 11  1  0
 10 27  1  1
 12 11  1  0
 11 20  1  1
 13 14  1  0
 13 29  1  6
 13 30  1  0
 14 15  1  0
 14 31  1  6
 15 16  1  0
 15 22  1  6
 16 17  1  0
 16 32  1  6
 17 18  1  1
 17 30  1  0
 18 33  1  0
M  CHG  4  19   1  20   1  21   1  22   1
M  END
$$$$
