
     RDKit          3D

 33 35  0  0  0  0  0  0  0  0999 V2000
  111.8262  -16.5749   -6.3138 C   0  0  2  0  0  0  0  0  0  0  0  0
  110.6023  -17.3350   -5.8306 C   0  0  1  0  0  0  0  0  0  0  0  0
  111.0615  -18.5651   -5.0824 C   0  0  2  0  0  0  0  0  0  0  0  0
  111.9274  -18.1936   -3.8923 C   0  0  1  0  0  0  0  0  0  0  0  0
  112.3598  -16.7618   -4.0710 C   0  0  1  0  0  0  0  0  0  0  0  0
  113.5493  -16.5335   -3.1333 C   0  0  0  0  0  0  0  0  0  0  0  0
  112.5934  -13.4119  -10.0199 C   0  0  1  0  0  0  0  0  0  0  0  0
  111.5442  -14.4852  -10.1162 C   0  0  1  0  0  0  0  0  0  0  0  0
  110.9431  -14.7361   -8.7753 C   0  0  2  0  0  0  0  0  0  0  0  0
  112.0183  -14.7291   -7.7052 C   0  0  1  0  0  0  0  0  0  0  0  0
  112.4267  -13.2891   -7.5150 C   0  0  2  0  0  0  0  0  0  0  0  0
  112.4417  -12.5247   -8.8130 C   0  0  0  0  0  0  0  0  0  0  0  0
  110.4435  -14.8602  -12.1202 C   0  0  1  0  0  0  0  0  0  0  0  0
  110.9721  -14.1258  -13.3264 C   0  0  1  0  0  0  0  0  0  0  0  0
  110.1639  -12.8640  -13.5186 C   0  0  2  0  0  0  0  0  0  0  0  0
  108.7177  -13.2693  -13.7006 C   0  0  1  0  0  0  0  0  0  0  0  0
  108.2909  -14.1751  -12.5904 C   0  0  1  0  0  0  0  0  0  0  0  0
  106.9230  -14.7572  -12.9518 C   0  0  0  0  0  0  0  0  0  0  0  0
  113.9654  -15.1320   -3.1760 N   0  0  0  0  0  4  0  0  0  0  0  0
  113.7129  -13.1392   -6.8846 N   0  0  0  0  0  4  0  0  0  0  0  0
  113.8792  -14.0240  -10.1212 N   0  0  0  0  0  4  0  0  0  0  0  0
  110.6725  -12.1955  -14.7096 N   0  0  0  0  0  4  0  0  0  0  0  0
  112.8331  -16.5649   -5.3587 O   0  0  0  0  0  0  0  0  0  0  0  0
  109.7478  -16.5476   -5.0985 O   0  0  0  0  0  0  0  0  0  0  0  0
  111.8219  -19.3573   -5.9293 O   0  0  0  0  0  0  0  0  0  0  0  0
  111.1923  -18.3238   -2.6939 O   0  0  0  0  0  0  0  0  0  0  0  0
  111.4546  -15.2917   -6.5779 O   0  0  0  0  0  0  0  0  0  0  0  0
  110.2197  -15.9264   -8.7239 O   0  0  0  0  0  0  0  0  0  0  0  0
  110.4919  -14.0889  -10.9733 O   0  0  0  0  0  0  0  0  0  0  0  0
  109.1430  -15.2603  -12.4197 O   0  0  0  0  0  0  0  0  0  0  0  0
  112.3312  -13.8753  -13.2600 O   0  0  0  0  0  0  0  0  0  0  0  0
  107.9569  -12.1035  -13.6421 O   0  0  0  0  0  0  0  0  0  0  0  0
  106.4199  -15.4133  -11.8139 O   0  0  0  0  0  0  0  0  0  0  0  0
  1  2  1  0
  1 23  1  0
  1 27  1  1
  2  3  1  0
  2 24  1  1
  3  4  1  0
  3 25  1  6
  5  4  1  0
  4 26  1  1
  5  6  1  1
 23  5  1  0
  6 19  1  0
  8  7  1  0
  7 12  1  0
  7 21  1  1
  8  9  1  0
  8 29  1  6
  9 10  1  0
  9 28  1  6
 10 11  1  0
 10 27  1  1
 12 11  1  0
 11 20  1  6
 13 14  1  0
 13 29  1  1
 13 30  1  0
 14 15  1  0
 14 31  1  1
 15 16  1  0
 15 22  1  6
 16 17  1  0
 16 32  1  1
 17 18  1  6
 17 30  1  0
 18 33  1  0
M  CHG  4  19   1  20   1  21   1  22   1
M  END
$$$$
