
     RDKit          3D

 33 35  0  0  0  0  0  0  0  0999 V2000
  107.5289  -15.4397   -8.3495 C   0  0  2  0  0  0  0  0  0  0  0  0
  107.1499  -16.8581   -8.7416 C   0  0  1  0  0  0  0  0  0  0  0  0
  105.8801  -17.2375   -8.0152 C   0  0  2  0  0  0  0  0  0  0  0  0
  104.7429  -16.2956   -8.3670 C   0  0  1  0  0  0  0  0  0  0  0  0
  105.3437  -15.0757   -9.0149 C   0  0  1  0  0  0  0  0  0  0  0  0
  104.2796  -13.9748   -8.9687 C   0  0  0  0  0  0  0  0  0  0  0  0
  111.0681  -12.0573   -8.2665 C   0  0  1  0  0  0  0  0  0  0  0  0
  111.0525  -13.3277   -7.4616 C   0  0  1  0  0  0  0  0  0  0  0  0
  110.3584  -14.4068   -8.2206 C   0  0  2  0  0  0  0  0  0  0  0  0
  109.1267  -13.8560   -8.9139 C   0  0  1  0  0  0  0  0  0  0  0  0
  109.6203  -13.0301  -10.0762 C   0  0  2  0  0  0  0  0  0  0  0  0
  110.8813  -12.2756   -9.7444 C   0  0  0  0  0  0  0  0  0  0  0  0
  113.0832  -12.8812   -6.4391 C   0  0  1  0  0  0  0  0  0  0  0  0
  114.5727  -13.0434   -6.6075 C   0  0  1  0  0  0  0  0  0  0  0  0
  114.9521  -14.4569   -6.2331 C   0  0  2  0  0  0  0  0  0  0  0  0
  114.5241  -14.6820   -4.7995 C   0  0  1  0  0  0  0  0  0  0  0  0
  113.0880  -14.3053   -4.6235 C   0  0  1  0  0  0  0  0  0  0  0  0
  112.7778  -14.3034   -3.1254 C   0  0  0  0  0  0  0  0  0  0  0  0
  104.6970  -12.8334   -9.7822 N   0  0  0  0  0  4  0  0  0  0  0  0
  108.6438  -12.0907  -10.5643 N   0  0  0  0  0  4  0  0  0  0  0  0
  110.1239  -11.1491   -7.6992 N   0  0  0  0  0  4  0  0  0  0  0  0
  116.3984  -14.5729   -6.3704 N   0  0  0  0  0  4  0  0  0  0  0  0
  106.4145  -14.6168   -8.2641 O   0  0  0  0  0  0  0  0  0  0  0  0
  107.0613  -17.0230  -10.1022 O   0  0  0  0  0  0  0  0  0  0  0  0
  106.0937  -17.1525   -6.6477 O   0  0  0  0  0  0  0  0  0  0  0  0
  103.8502  -16.9213   -9.2641 O   0  0  0  0  0  0  0  0  0  0  0  0
  108.3716  -14.9456   -9.2982 O   0  0  0  0  0  0  0  0  0  0  0  0
  110.0144  -15.4934   -7.4182 O   0  0  0  0  0  0  0  0  0  0  0  0
  112.3671  -13.7816   -7.2067 O   0  0  0  0  0  0  0  0  0  0  0  0
  112.8049  -13.0234   -5.0813 O   0  0  0  0  0  0  0  0  0  0  0  0
  115.0200  -12.6951   -7.8696 O   0  0  0  0  0  0  0  0  0  0  0  0
  114.6624  -16.0441   -4.5416 O   0  0  0  0  0  0  0  0  0  0  0  0
  113.9026  -14.8132   -2.4521 O   0  0  0  0  0  0  0  0  0  0  0  0
  1  2  1  0
  1 23  1  0
  1 27  1  6
  2  3  1  0
  2 24  1  6
  3  4  1  0
  3 25  1  1
  5  4  1  0
  4 26  1  6
  5  6  1  1
 23  5  1  0
  6 19  1  0
  8  7  1  0
  7 12  1  0
  7 21  1  1
  8  9  1  0
  8 29  1  6
  9 10  1  0
  9 28  1  1
 10 11  1  0
 10 27  1  6
 12 11  1  0
 11 20  1  1
 13 14  1  0
 13 29  1  6
 13 30  1  0
 14 15  1  0
 14 31  1  6
 15 16  1  0
 15 22  1  1
 16 17  1  0
 16 32  1  6
 17 18  1  1
 17 30  1  0
 18 33  1  0
M  CHG  4  19   1  20   1  21   1  22   1
M  END
$$$$
