
     RDKit          3D

 33 35  0  0  0  0  0  0  0  0999 V2000
  113.0854  -14.9386   -9.1509 C   0  0  2  0  0  0  0  0  0  0  0  0
  113.2004  -16.4049   -9.5328 C   0  0  1  0  0  0  0  0  0  0  0  0
  113.3852  -16.5015  -11.0297 C   0  0  2  0  0  0  0  0  0  0  0  0
  114.6335  -15.7636  -11.4783 C   0  0  1  0  0  0  0  0  0  0  0  0
  115.0617  -14.8618  -10.3503 C   0  0  1  0  0  0  0  0  0  0  0  0
  116.0251  -13.8294  -10.9440 C   0  0  0  0  0  0  0  0  0  0  0  0
  110.4487  -12.5693   -6.0614 C   0  0  1  0  0  0  0  0  0  0  0  0
  110.7535  -12.3183   -7.5126 C   0  0  1  0  0  0  0  0  0  0  0  0
  111.4855  -13.4809   -8.0911 C   0  0  2  0  0  0  0  0  0  0  0  0
  112.5213  -13.9942   -7.1089 C   0  0  1  0  0  0  0  0  0  0  0  0
  111.7629  -14.7114   -6.0193 C   0  0  2  0  0  0  0  0  0  0  0  0
  110.4637  -14.0266   -5.6837 C   0  0  0  0  0  0  0  0  0  0  0  0
  109.2502  -10.8336   -8.4636 C   0  0  1  0  0  0  0  0  0  0  0  0
  107.7622  -10.5999   -8.5318 C   0  0  1  0  0  0  0  0  0  0  0  0
  107.1898  -11.4407   -9.6487 C   0  0  2  0  0  0  0  0  0  0  0  0
  107.8793  -11.0299  -10.9312 C   0  0  1  0  0  0  0  0  0  0  0  0
  109.3636  -11.0700  -10.7561 C   0  0  1  0  0  0  0  0  0  0  0  0
  110.0039  -10.4074  -11.9773 C   0  0  0  0  0  0  0  0  0  0  0  0
  116.6085  -13.0119   -9.8809 N   0  0  0  0  0  4  0  0  0  0  0  0
  112.5208  -14.8683   -4.8047 N   0  0  0  0  0  4  0  0  0  0  0  0
  111.3217  -11.7646   -5.2686 N   0  0  0  0  0  4  0  0  0  0  0  0
  105.7598  -11.1670   -9.7141 N   0  0  0  0  0  4  0  0  0  0  0  0
  113.9732  -14.1508   -9.8703 O   0  0  0  0  0  0  0  0  0  0  0  0
  114.1802  -17.0584   -8.8264 O   0  0  0  0  0  0  0  0  0  0  0  0
  112.2976  -15.9187  -11.6625 O   0  0  0  0  0  0  0  0  0  0  0  0
  115.6647  -16.6821  -11.7723 O   0  0  0  0  0  0  0  0  0  0  0  0
  113.3651  -14.8204   -7.8234 O   0  0  0  0  0  0  0  0  0  0  0  0
  112.0858  -13.1847   -9.3138 O   0  0  0  0  0  0  0  0  0  0  0  0
  109.5635  -12.1653   -8.2606 O   0  0  0  0  0  0  0  0  0  0  0  0
  109.7974  -10.3487   -9.6495 O   0  0  0  0  0  0  0  0  0  0  0  0
  107.1199  -10.8188   -7.3260 O   0  0  0  0  0  0  0  0  0  0  0  0
  107.5200  -11.9606  -11.9038 O   0  0  0  0  0  0  0  0  0  0  0  0
  110.9438  -11.3068  -12.5120 O   0  0  0  0  0  0  0  0  0  0  0  0
  1  2  1  0
  1 23  1  0
  1 27  1  1
  2  3  1  0
  2 24  1  1
  3  4  1  0
  3 25  1  6
  5  4  1  0
  4 26  1  1
  5  6  1  6
 23  5  1  0
  6 19  1  0
  8  7  1  0
  7 12  1  0
  7 21  1  1
  8  9  1  0
  8 29  1  6
  9 10  1  0
  9 28  1  6
 10 11  1  0
 10 27  1  6
 12 11  1  0
 11 20  1  1
 13 14  1  0
 13 29  1  6
 13 30  1  0
 14 15  1  0
 14 31  1  1
 15 16  1  0
 15 22  1  6
 16 17  1  0
 16 32  1  6
 17 18  1  6
 17 30  1  0
 18 33  1  0
M  CHG  4  19   1  20   1  21   1  22   1
M  END
$$$$
