
     RDKit          3D

 33 35  0  0  0  0  0  0  0  0999 V2000
  105.4933  -17.0595   -3.8009 C   0  0  2  0  0  0  0  0  0  0  0  0
  105.3572  -18.3168   -2.9585 C   0  0  1  0  0  0  0  0  0  0  0  0
  104.2471  -18.1082   -1.9544 C   0  0  2  0  0  0  0  0  0  0  0  0
  102.9273  -17.8187   -2.6462 C   0  0  1  0  0  0  0  0  0  0  0  0
  103.2309  -17.4544   -4.0759 C   0  0  1  0  0  0  0  0  0  0  0  0
  101.9859  -16.7581   -4.6340 C   0  0  0  0  0  0  0  0  0  0  0  0
  108.0084  -14.6040   -7.2902 C   0  0  1  0  0  0  0  0  0  0  0  0
  108.7937  -15.2192   -6.1647 C   0  0  1  0  0  0  0  0  0  0  0  0
  108.1451  -16.4855   -5.7196 C   0  0  2  0  0  0  0  0  0  0  0  0
  106.6378  -16.3201   -5.6780 C   0  0  1  0  0  0  0  0  0  0  0  0
  106.1668  -16.3051   -7.1114 C   0  0  2  0  0  0  0  0  0  0  0  0
  107.1282  -15.5837   -8.0196 C   0  0  0  0  0  0  0  0  0  0  0  0
  110.9395  -14.4488   -6.5779 C   0  0  1  0  0  0  0  0  0  0  0  0
  112.0899  -14.5996   -7.5409 C   0  0  1  0  0  0  0  0  0  0  0  0
  112.8692  -15.8409   -7.1748 C   0  0  2  0  0  0  0  0  0  0  0  0
  113.3509  -15.6762   -5.7501 C   0  0  1  0  0  0  0  0  0  0  0  0
  112.2080  -15.3154   -4.8563 C   0  0  1  0  0  0  0  0  0  0  0  0
  112.7787  -14.9108   -3.4958 C   0  0  0  0  0  0  0  0  0  0  0  0
  101.4498  -17.5119   -5.7669 N   0  0  0  0  0  4  0  0  0  0  0  0
  104.8606  -15.7215   -7.2769 N   0  0  0  0  0  4  0  0  0  0  0  0
  107.3044  -13.4693   -6.7851 N   0  0  0  0  0  4  0  0  0  0  0  0
  113.9929  -15.9403   -8.0976 N   0  0  0  0  0  4  0  0  0  0  0  0
  104.2548  -16.5215   -4.1219 O   0  0  0  0  0  0  0  0  0  0  0  0
  105.1879  -19.4465   -3.7210 O   0  0  0  0  0  0  0  0  0  0  0  0
  104.5544  -17.0183   -1.1540 O   0  0  0  0  0  0  0  0  0  0  0  0
  102.0967  -18.9600   -2.6109 O   0  0  0  0  0  0  0  0  0  0  0  0
  106.1454  -17.3852   -4.9512 O   0  0  0  0  0  0  0  0  0  0  0  0
  108.6160  -16.9258   -4.4837 O   0  0  0  0  0  0  0  0  0  0  0  0
  110.1031  -15.5503   -6.5829 O   0  0  0  0  0  0  0  0  0  0  0  0
  111.4859  -14.2202   -5.3169 O   0  0  0  0  0  0  0  0  0  0  0  0
  111.6950  -14.5980   -8.8669 O   0  0  0  0  0  0  0  0  0  0  0  0
  113.8604  -16.9086   -5.3467 O   0  0  0  0  0  0  0  0  0  0  0  0
  113.1975  -16.0819   -2.8389 O   0  0  0  0  0  0  0  0  0  0  0  0
  1  2  1  0
  1 23  1  0
  1 27  1  6
  2  3  1  0
  2 24  1  6
  3  4  1  0
  3 25  1  1
  5  4  1  0
  4 26  1  6
  5  6  1  1
 23  5  1  0
  6 19  1  0
  8  7  1  0
  7 12  1  0
  7 21  1  1
  8  9  1  0
  8 29  1  6
  9 10  1  0
  9 28  1  1
 10 11  1  0
 10 27  1  1
 12 11  1  0
 11 20  1  1
 13 14  1  0
 13 29  1  1
 13 30  1  0
 14 15  1  0
 14 31  1  6
 15 16  1  0
 15 22  1  6
 16 17  1  0
 16 32  1  1
 17 18  1  1
 17 30  1  0
 18 33  1  0
M  CHG  4  19   1  20   1  21   1  22   1
M  END
$$$$
