
     RDKit          3D

 23 25  0  0  0  0  0  0  0  0999 V2000
  -12.2287  -10.7735   22.2265 C   0  0  0  0  0  0  0  0  0  0  0  0
  -12.5622  -12.5943   23.3578 N   0  0  0  0  0  0  0  0  0  0  0  0
  -12.4679  -11.5732   24.2528 C   0  0  0  0  0  0  0  0  0  0  0  0
  -13.1711   -6.6880   28.2030 C   0  0  0  0  0  0  0  0  0  0  0  0
  -14.3285   -5.5663   30.0993 C   0  0  0  0  0  0  0  0  0  0  0  0
  -15.6861   -3.5591   31.3372 C   0  0  0  0  0  0  0  0  0  0  0  0
  -15.9330   -3.8018   30.0101 C   0  0  0  0  0  0  0  0  0  0  0  0
  -15.2480   -4.8146   29.3854 C   0  0  0  0  0  0  0  0  0  0  0  0
  -12.1470  -11.1636   30.0052 C   0  0  0  0  0  0  0  0  0  0  0  0
  -12.0488   -9.8755   30.5778 O   0  0  0  0  0  0  0  0  0  0  0  0
  -12.4387   -8.7919   29.8002 C   0  0  0  0  0  0  0  0  0  0  0  0
  -12.0887   -8.7455   28.4565 C   0  0  0  0  0  0  0  0  0  0  0  0
  -12.4390   -7.7077   27.6276 C   0  0  0  0  0  0  0  0  0  0  0  0
  -12.0433   -7.6716   26.1995 C   0  0  0  0  0  0  0  0  0  0  0  0
  -12.2518   -8.8438   25.4918 O   0  0  0  0  0  0  0  0  0  0  0  0
  -12.0997   -9.0891   24.1516 C   0  0  0  0  0  0  0  0  0  0  0  0
  -12.2559  -10.4082   23.5519 C   0  0  0  0  0  0  0  0  0  0  0  0
  -12.4186  -12.1208   22.1252 N   0  0  0  0  0  0  0  0  0  0  0  0
  -11.8104   -8.1090   23.4232 O   0  0  0  0  0  0  0  0  0  0  0  0
  -13.5568   -6.6598   29.5271 C   0  0  0  0  0  0  0  0  0  0  0  0
  -14.1267   -5.2716   31.4306 C   0  0  0  0  0  0  0  0  0  0  0  0
  -14.8037   -4.2741   32.0395 N   0  0  0  0  0  0  0  0  0  0  0  0
  -13.1701   -7.7412   30.3098 C   0  0  0  0  0  0  0  0  0  0  0  0
 17  1  1  0
  1 18  2  0
  3  2  1  0
  2 18  1  0
 17  3  2  0
 13  4  2  0
  4 20  1  0
  5  8  2  0
 20  5  1  0
  5 21  1  0
  7  6  2  0
  6 22  1  0
  8  7  1  0
 10  9  1  0
 11 10  1  0
 12 11  2  0
 11 23  1  0
 13 12  1  0
 14 13  1  0
 15 14  1  0
 16 15  1  0
 16 17  1  0
 16 19  2  0
 20 23  2  0
 21 22  2  0
M  END
$$$$
