
     RDKit          3D

 23 25  0  0  0  0  0  0  0  0999 V2000
  -18.3529  -16.6691   14.2698 C   0  0  0  0  0  0  0  0  0  0  0  0
  -19.0448  -15.0966   12.9451 N   0  0  0  0  0  0  0  0  0  0  0  0
  -19.9129  -16.1380   12.8251 C   0  0  0  0  0  0  0  0  0  0  0  0
  -22.9963  -21.1788   11.2222 C   0  0  0  0  0  0  0  0  0  0  0  0
  -23.8473  -22.4846    9.2820 C   0  0  0  0  0  0  0  0  0  0  0  0
  -23.5217  -24.5540    7.5452 C   0  0  0  0  0  0  0  0  0  0  0  0
  -24.7945  -24.1589    7.8693 C   0  0  0  0  0  0  0  0  0  0  0  0
  -24.9589  -23.1147    8.7457 C   0  0  0  0  0  0  0  0  0  0  0  0
  -25.8579  -17.1787   11.5349 C   0  0  0  0  0  0  0  0  0  0  0  0
  -26.0605  -18.4275   10.9056 O   0  0  0  0  0  0  0  0  0  0  0  0
  -25.0399  -19.3665   10.9909 C   0  0  0  0  0  0  0  0  0  0  0  0
  -24.0703  -19.2438   11.9784 C   0  0  0  0  0  0  0  0  0  0  0  0
  -23.0335  -20.1332   12.1234 C   0  0  0  0  0  0  0  0  0  0  0  0
  -22.0016  -19.9758   13.1760 C   0  0  0  0  0  0  0  0  0  0  0  0
  -21.2974  -18.7834   13.1490 O   0  0  0  0  0  0  0  0  0  0  0  0
  -20.1531  -18.4341   13.8183 C   0  0  0  0  0  0  0  0  0  0  0  0
  -19.4890  -17.1465   13.6597 C   0  0  0  0  0  0  0  0  0  0  0  0
  -18.0942  -15.4076   13.8190 N   0  0  0  0  0  0  0  0  0  0  0  0
  -19.6710  -19.2860   14.6038 O   0  0  0  0  0  0  0  0  0  0  0  0
  -23.9193  -21.3698   10.2150 C   0  0  0  0  0  0  0  0  0  0  0  0
  -22.5954  -22.9299    8.9155 C   0  0  0  0  0  0  0  0  0  0  0  0
  -22.4402  -23.9575    8.0528 N   0  0  0  0  0  0  0  0  0  0  0  0
  -24.9428  -20.4339   10.1248 C   0  0  0  0  0  0  0  0  0  0  0  0
 17  1  1  0
  1 18  2  0
  3  2  1  0
  2 18  1  0
 17  3  2  0
 13  4  2  0
  4 20  1  0
  5  8  2  0
 20  5  1  0
  5 21  1  0
  7  6  2  0
  6 22  1  0
  8  7  1  0
 10  9  1  0
 11 10  1  0
 12 11  2  0
 11 23  1  0
 13 12  1  0
 14 13  1  0
 15 14  1  0
 16 15  1  0
 16 17  1  0
 16 19  2  0
 20 23  2  0
 21 22  2  0
M  END
$$$$
