
     RDKit          3D

 23 25  0  0  0  0  0  0  0  0999 V2000
  -18.8014  -16.1712   13.2633 C   0  0  0  0  0  0  0  0  0  0  0  0
  -17.2013  -17.5121   12.6733 N   0  0  0  0  0  0  0  0  0  0  0  0
  -18.3754  -18.1026   12.3195 C   0  0  0  0  0  0  0  0  0  0  0  0
  -23.4975  -21.3790   11.5070 C   0  0  0  0  0  0  0  0  0  0  0  0
  -24.4616  -23.6723   11.5789 C   0  0  0  0  0  0  0  0  0  0  0  0
  -25.8166  -25.7555   12.6874 C   0  0  0  0  0  0  0  0  0  0  0  0
  -26.2828  -24.4819   12.8918 C   0  0  0  0  0  0  0  0  0  0  0  0
  -25.5991  -23.4306   12.3325 C   0  0  0  0  0  0  0  0  0  0  0  0
  -20.9002  -21.0448    7.3335 C   0  0  0  0  0  0  0  0  0  0  0  0
  -21.6709  -22.0990    7.8733 O   0  0  0  0  0  0  0  0  0  0  0  0
  -22.2954  -21.8820    9.0954 C   0  0  0  0  0  0  0  0  0  0  0  0
  -22.1670  -20.6511    9.7268 C   0  0  0  0  0  0  0  0  0  0  0  0
  -22.7557  -20.3647   10.9344 C   0  0  0  0  0  0  0  0  0  0  0  0
  -22.5946  -19.0487   11.5974 C   0  0  0  0  0  0  0  0  0  0  0  0
  -21.2880  -18.6557   11.8360 O   0  0  0  0  0  0  0  0  0  0  0  0
  -20.8195  -17.5394   12.4792 C   0  0  0  0  0  0  0  0  0  0  0  0
  -19.4033  -17.2648   12.6867 C   0  0  0  0  0  0  0  0  0  0  0  0
  -17.4475  -16.3396   13.2469 N   0  0  0  0  0  0  0  0  0  0  0  0
  -21.6758  -16.7257   12.9030 O   0  0  0  0  0  0  0  0  0  0  0  0
  -23.6723  -22.6265   10.9449 C   0  0  0  0  0  0  0  0  0  0  0  0
  -24.0456  -24.9756   11.4112 C   0  0  0  0  0  0  0  0  0  0  0  0
  -24.7225  -26.0055   11.9638 N   0  0  0  0  0  0  0  0  0  0  0  0
  -23.0503  -22.8495    9.7222 C   0  0  0  0  0  0  0  0  0  0  0  0
 17  1  1  0
  1 18  2  0
  3  2  1  0
  2 18  1  0
 17  3  2  0
 13  4  2  0
  4 20  1  0
  5  8  2  0
 20  5  1  0
  5 21  1  0
  7  6  2  0
  6 22  1  0
  8  7  1  0
 10  9  1  0
 11 10  1  0
 12 11  2  0
 11 23  1  0
 13 12  1  0
 14 13  1  0
 15 14  1  0
 16 15  1  0
 16 17  1  0
 16 19  2  0
 20 23  2  0
 21 22  2  0
M  END
$$$$
