
     RDKit          3D

 23 25  0  0  0  0  0  0  0  0999 V2000
  -17.3500  -16.5639   13.6488 C   0  0  0  0  0  0  0  0  0  0  0  0
  -16.7310  -17.9556   12.1040 N   0  0  0  0  0  0  0  0  0  0  0  0
  -18.0332  -18.2253   12.3936 C   0  0  0  0  0  0  0  0  0  0  0  0
  -23.1359  -19.7820   12.3784 C   0  0  0  0  0  0  0  0  0  0  0  0
  -24.0526  -21.3792   10.7044 C   0  0  0  0  0  0  0  0  0  0  0  0
  -23.7798  -23.7279    9.3576 C   0  0  0  0  0  0  0  0  0  0  0  0
  -24.9276  -22.9973    9.1838 C   0  0  0  0  0  0  0  0  0  0  0  0
  -25.0653  -21.8121    9.8634 C   0  0  0  0  0  0  0  0  0  0  0  0
  -27.3660  -17.5648   11.0116 C   0  0  0  0  0  0  0  0  0  0  0  0
  -26.2833  -17.1650   11.8267 O   0  0  0  0  0  0  0  0  0  0  0  0
  -25.2353  -18.0620   11.9940 C   0  0  0  0  0  0  0  0  0  0  0  0
  -24.2191  -17.7752   12.8968 C   0  0  0  0  0  0  0  0  0  0  0  0
  -23.1532  -18.6139   13.1147 C   0  0  0  0  0  0  0  0  0  0  0  0
  -22.0723  -18.2820   14.0732 C   0  0  0  0  0  0  0  0  0  0  0  0
  -20.8172  -18.0959   13.5176 O   0  0  0  0  0  0  0  0  0  0  0  0
  -19.7783  -17.3173   13.9577 C   0  0  0  0  0  0  0  0  0  0  0  0
  -18.4436  -17.3506   13.3733 C   0  0  0  0  0  0  0  0  0  0  0  0
  -16.3059  -16.9493   12.8595 N   0  0  0  0  0  0  0  0  0  0  0  0
  -20.0144  -16.5428   14.9166 O   0  0  0  0  0  0  0  0  0  0  0  0
  -24.1048  -20.1385   11.4637 C   0  0  0  0  0  0  0  0  0  0  0  0
  -22.9243  -22.1600   10.8351 C   0  0  0  0  0  0  0  0  0  0  0  0
  -22.7947  -23.3248   10.1639 N   0  0  0  0  0  0  0  0  0  0  0  0
  -25.1558  -19.2453   11.2923 C   0  0  0  0  0  0  0  0  0  0  0  0
 17  1  1  0
  1 18  2  0
  3  2  1  0
  2 18  1  0
 17  3  2  0
 13  4  2  0
  4 20  1  0
  5  8  2  0
 20  5  1  0
  5 21  1  0
  7  6  2  0
  6 22  1  0
  8  7  1  0
 10  9  1  0
 11 10  1  0
 12 11  2  0
 11 23  1  0
 13 12  1  0
 14 13  1  0
 15 14  1  0
 16 15  1  0
 16 17  1  0
 16 19  2  0
 20 23  2  0
 21 22  2  0
M  END
$$$$
