
     RDKit          3D

 23 25  0  0  0  0  0  0  0  0999 V2000
  -13.5541  -11.4709   27.2207 C   0  0  0  0  0  0  0  0  0  0  0  0
  -12.4355  -11.2132   25.3799 N   0  0  0  0  0  0  0  0  0  0  0  0
  -12.3128  -10.0603   26.0928 C   0  0  0  0  0  0  0  0  0  0  0  0
  -11.4652   -4.8346   28.5870 C   0  0  0  0  0  0  0  0  0  0  0  0
  -10.8452   -2.5557   27.8021 C   0  0  0  0  0  0  0  0  0  0  0  0
  -11.6060   -0.1991   26.6740 C   0  0  0  0  0  0  0  0  0  0  0  0
  -10.5052   -0.2138   27.4922 C   0  0  0  0  0  0  0  0  0  0  0  0
  -10.1213   -1.4029   28.0615 C   0  0  0  0  0  0  0  0  0  0  0  0
   -6.7943   -4.7932   30.2594 C   0  0  0  0  0  0  0  0  0  0  0  0
   -7.5467   -5.7395   29.5279 O   0  0  0  0  0  0  0  0  0  0  0  0
   -8.8571   -5.4105   29.2032 C   0  0  0  0  0  0  0  0  0  0  0  0
   -9.8717   -6.3375   29.4063 C   0  0  0  0  0  0  0  0  0  0  0  0
  -11.1885   -6.0825   29.1095 C   0  0  0  0  0  0  0  0  0  0  0  0
  -12.2538   -7.0912   29.3215 C   0  0  0  0  0  0  0  0  0  0  0  0
  -12.3930   -8.0337   28.3161 O   0  0  0  0  0  0  0  0  0  0  0  0
  -13.1321   -9.1882   28.3029 C   0  0  0  0  0  0  0  0  0  0  0  0
  -13.0173  -10.2057   27.2658 C   0  0  0  0  0  0  0  0  0  0  0  0
  -13.1865  -12.0763   26.0545 N   0  0  0  0  0  0  0  0  0  0  0  0
  -13.9444   -9.3544   29.2451 O   0  0  0  0  0  0  0  0  0  0  0  0
  -10.5159   -3.8610   28.3555 C   0  0  0  0  0  0  0  0  0  0  0  0
  -11.9415   -2.4735   26.9708 C   0  0  0  0  0  0  0  0  0  0  0  0
  -12.3141   -1.3009   26.4137 N   0  0  0  0  0  0  0  0  0  0  0  0
   -9.2033   -4.1841   28.6787 C   0  0  0  0  0  0  0  0  0  0  0  0
 17  1  1  0
  1 18  2  0
  3  2  1  0
  2 18  1  0
 17  3  2  0
 13  4  2  0
  4 20  1  0
  5  8  2  0
 20  5  1  0
  5 21  1  0
  7  6  2  0
  6 22  1  0
  8  7  1  0
 10  9  1  0
 11 10  1  0
 12 11  2  0
 11 23  1  0
 13 12  1  0
 14 13  1  0
 15 14  1  0
 16 15  1  0
 16 17  1  0
 16 19  2  0
 20 23  2  0
 21 22  2  0
M  END
$$$$
