
     RDKit          3D

 23 25  0  0  0  0  0  0  0  0999 V2000
  -18.2369  -16.8851   14.1757 C   0  0  0  0  0  0  0  0  0  0  0  0
  -17.1543  -17.5258   12.4083 N   0  0  0  0  0  0  0  0  0  0  0  0
  -18.3421  -18.1904   12.4185 C   0  0  0  0  0  0  0  0  0  0  0  0
  -24.0829  -19.6989   11.6119 C   0  0  0  0  0  0  0  0  0  0  0  0
  -25.8957  -19.5141    9.9167 C   0  0  0  0  0  0  0  0  0  0  0  0
  -28.0132  -18.1195    8.9289 C   0  0  0  0  0  0  0  0  0  0  0  0
  -27.4104  -19.0574    8.1299 C   0  0  0  0  0  0  0  0  0  0  0  0
  -26.3419  -19.7611    8.6283 C   0  0  0  0  0  0  0  0  0  0  0  0
  -23.5998  -23.9423    9.0745 C   0  0  0  0  0  0  0  0  0  0  0  0
  -22.8647  -23.3564   10.1294 O   0  0  0  0  0  0  0  0  0  0  0  0
  -23.2939  -22.1250   10.6092 C   0  0  0  0  0  0  0  0  0  0  0  0
  -22.6486  -21.5442   11.6939 C   0  0  0  0  0  0  0  0  0  0  0  0
  -23.0169  -20.3305   12.2214 C   0  0  0  0  0  0  0  0  0  0  0  0
  -22.3230  -19.7350   13.3882 C   0  0  0  0  0  0  0  0  0  0  0  0
  -21.1185  -19.1096   13.1119 O   0  0  0  0  0  0  0  0  0  0  0  0
  -20.3665  -18.2820   13.9051 C   0  0  0  0  0  0  0  0  0  0  0  0
  -19.0435  -17.7957   13.5346 C   0  0  0  0  0  0  0  0  0  0  0  0
  -17.0795  -16.7310   13.4698 N   0  0  0  0  0  0  0  0  0  0  0  0
  -20.8660  -17.9393   15.0042 O   0  0  0  0  0  0  0  0  0  0  0  0
  -24.7750  -20.2089   10.5333 C   0  0  0  0  0  0  0  0  0  0  0  0
  -26.5452  -18.5586   10.6683 C   0  0  0  0  0  0  0  0  0  0  0  0
  -27.5958  -17.8697   10.1724 N   0  0  0  0  0  0  0  0  0  0  0  0
  -24.3501  -21.4403   10.0486 C   0  0  0  0  0  0  0  0  0  0  0  0
 17  1  1  0
  1 18  2  0
  3  2  1  0
  2 18  1  0
 17  3  2  0
 13  4  2  0
  4 20  1  0
  5  8  2  0
 20  5  1  0
  5 21  1  0
  7  6  2  0
  6 22  1  0
  8  7  1  0
 10  9  1  0
 11 10  1  0
 12 11  2  0
 11 23  1  0
 13 12  1  0
 14 13  1  0
 15 14  1  0
 16 15  1  0
 16 17  1  0
 16 19  2  0
 20 23  2  0
 21 22  2  0
M  END
$$$$
