
     RDKit          3D

 23 25  0  0  0  0  0  0  0  0999 V2000
  -24.6163  -20.5366    9.2445 C   0  0  0  0  0  0  0  0  0  0  0  0
  -22.8974  -21.3136    8.1729 N   0  0  0  0  0  0  0  0  0  0  0  0
  -22.4742  -20.9654    9.4188 C   0  0  0  0  0  0  0  0  0  0  0  0
  -20.1925  -17.5709   14.2500 C   0  0  0  0  0  0  0  0  0  0  0  0
  -18.4577  -16.5533   15.7158 C   0  0  0  0  0  0  0  0  0  0  0  0
  -17.5162  -15.1153   17.8254 C   0  0  0  0  0  0  0  0  0  0  0  0
  -18.7886  -15.6233   17.8887 C   0  0  0  0  0  0  0  0  0  0  0  0
  -19.2638  -16.3489   16.8242 C   0  0  0  0  0  0  0  0  0  0  0  0
  -17.6642  -18.9873   10.2598 C   0  0  0  0  0  0  0  0  0  0  0  0
  -17.3445  -19.0249   11.6357 O   0  0  0  0  0  0  0  0  0  0  0  0
  -18.2829  -18.5251   12.5304 C   0  0  0  0  0  0  0  0  0  0  0  0
  -19.6360  -18.7460   12.3060 C   0  0  0  0  0  0  0  0  0  0  0  0
  -20.6191  -18.2831   13.1465 C   0  0  0  0  0  0  0  0  0  0  0  0
  -22.0583  -18.5185   12.8808 C   0  0  0  0  0  0  0  0  0  0  0  0
  -22.3516  -19.6499   12.1377 O   0  0  0  0  0  0  0  0  0  0  0  0
  -23.5111  -19.9875   11.4888 C   0  0  0  0  0  0  0  0  0  0  0  0
  -23.5532  -20.4696   10.1141 C   0  0  0  0  0  0  0  0  0  0  0  0
  -24.1955  -21.0578    8.0558 N   0  0  0  0  0  0  0  0  0  0  0  0
  -24.5804  -19.8659   12.1345 O   0  0  0  0  0  0  0  0  0  0  0  0
  -18.8701  -17.3092   14.5422 C   0  0  0  0  0  0  0  0  0  0  0  0
  -17.1883  -16.0161   15.7148 C   0  0  0  0  0  0  0  0  0  0  0  0
  -16.7266  -15.3033   16.7651 N   0  0  0  0  0  0  0  0  0  0  0  0
  -17.9268  -17.8068   13.6511 C   0  0  0  0  0  0  0  0  0  0  0  0
 17  1  1  0
  1 18  2  0
  3  2  1  0
  2 18  1  0
 17  3  2  0
 13  4  2  0
  4 20  1  0
  5  8  2  0
 20  5  1  0
  5 21  1  0
  7  6  2  0
  6 22  1  0
  8  7  1  0
 10  9  1  0
 11 10  1  0
 12 11  2  0
 11 23  1  0
 13 12  1  0
 14 13  1  0
 15 14  1  0
 16 15  1  0
 16 17  1  0
 16 19  2  0
 20 23  2  0
 21 22  2  0
M  END
$$$$
