
     RDKit          3D

 23 25  0  0  0  0  0  0  0  0999 V2000
  -12.8347  -10.9087   21.4986 C   0  0  0  0  0  0  0  0  0  0  0  0
  -11.7989  -12.6761   22.2126 N   0  0  0  0  0  0  0  0  0  0  0  0
  -12.1016  -11.9170   23.3010 C   0  0  0  0  0  0  0  0  0  0  0  0
  -13.4502   -8.1945   28.4525 C   0  0  0  0  0  0  0  0  0  0  0  0
  -13.4895   -7.4687   30.8327 C   0  0  0  0  0  0  0  0  0  0  0  0
  -14.4985   -5.8186   32.7468 C   0  0  0  0  0  0  0  0  0  0  0  0
  -13.1989   -6.2424   32.8595 C   0  0  0  0  0  0  0  0  0  0  0  0
  -12.6897   -7.0751   31.8937 C   0  0  0  0  0  0  0  0  0  0  0  0
  -10.9115  -11.9132   30.5441 C   0  0  0  0  0  0  0  0  0  0  0  0
  -10.8366  -11.2833   29.2815 O   0  0  0  0  0  0  0  0  0  0  0  0
  -11.7156  -10.2372   29.0288 C   0  0  0  0  0  0  0  0  0  0  0  0
  -12.1747  -10.0190   27.7358 C   0  0  0  0  0  0  0  0  0  0  0  0
  -13.0440   -9.0060   27.4116 C   0  0  0  0  0  0  0  0  0  0  0  0
  -13.5109   -8.7824   26.0226 C   0  0  0  0  0  0  0  0  0  0  0  0
  -13.0839   -9.7145   25.0913 O   0  0  0  0  0  0  0  0  0  0  0  0
  -13.2520   -9.7242   23.7308 C   0  0  0  0  0  0  0  0  0  0  0  0
  -12.7602  -10.7896   22.8665 C   0  0  0  0  0  0  0  0  0  0  0  0
  -12.2389  -12.0741   21.1134 N   0  0  0  0  0  0  0  0  0  0  0  0
  -13.8653   -8.7523   23.2265 O   0  0  0  0  0  0  0  0  0  0  0  0
  -13.0402   -8.3451   29.7608 C   0  0  0  0  0  0  0  0  0  0  0  0
  -14.7871   -7.0073   30.7778 C   0  0  0  0  0  0  0  0  0  0  0  0
  -15.2822   -6.1884   31.7309 N   0  0  0  0  0  0  0  0  0  0  0  0
  -12.1612   -9.3900   30.0199 C   0  0  0  0  0  0  0  0  0  0  0  0
 17  1  1  0
  1 18  2  0
  3  2  1  0
  2 18  1  0
 17  3  2  0
 13  4  2  0
  4 20  1  0
  5  8  2  0
 20  5  1  0
  5 21  1  0
  7  6  2  0
  6 22  1  0
  8  7  1  0
 10  9  1  0
 11 10  1  0
 12 11  2  0
 11 23  1  0
 13 12  1  0
 14 13  1  0
 15 14  1  0
 16 15  1  0
 16 17  1  0
 16 19  2  0
 20 23  2  0
 21 22  2  0
M  END
$$$$
