
     RDKit          3D

 23 25  0  0  0  0  0  0  0  0999 V2000
  -17.7360  -22.4015    5.4551 C   0  0  0  0  0  0  0  0  0  0  0  0
  -16.3963  -21.9028    7.0870 N   0  0  0  0  0  0  0  0  0  0  0  0
  -17.6684  -21.7623    7.5502 C   0  0  0  0  0  0  0  0  0  0  0  0
  -21.8468  -20.2615   10.0847 C   0  0  0  0  0  0  0  0  0  0  0  0
  -21.5330  -18.8337   12.0988 C   0  0  0  0  0  0  0  0  0  0  0  0
  -20.5058  -16.7560   13.5245 C   0  0  0  0  0  0  0  0  0  0  0  0
  -19.6947  -17.4077   12.6308 C   0  0  0  0  0  0  0  0  0  0  0  0
  -20.2130  -18.4561   11.9114 C   0  0  0  0  0  0  0  0  0  0  0  0
  -25.7233  -21.8462   12.7478 C   0  0  0  0  0  0  0  0  0  0  0  0
  -24.7652  -22.5115   11.9502 O   0  0  0  0  0  0  0  0  0  0  0  0
  -23.7809  -21.7396   11.3451 C   0  0  0  0  0  0  0  0  0  0  0  0
  -23.3963  -22.0126   10.0383 C   0  0  0  0  0  0  0  0  0  0  0  0
  -22.4317  -21.2926    9.3764 C   0  0  0  0  0  0  0  0  0  0  0  0
  -22.0266  -21.6096    7.9861 C   0  0  0  0  0  0  0  0  0  0  0  0
  -20.6635  -21.7339    7.7744 O   0  0  0  0  0  0  0  0  0  0  0  0
  -19.9873  -22.0461    6.6234 C   0  0  0  0  0  0  0  0  0  0  0  0
  -18.5334  -22.0751    6.5268 C   0  0  0  0  0  0  0  0  0  0  0  0
  -16.4251  -22.2903    5.8169 N   0  0  0  0  0  0  0  0  0  0  0  0
  -20.6798  -22.3173    5.6126 O   0  0  0  0  0  0  0  0  0  0  0  0
  -22.1723  -19.9281   11.3830 C   0  0  0  0  0  0  0  0  0  0  0  0
  -22.2952  -18.1376   13.0122 C   0  0  0  0  0  0  0  0  0  0  0  0
  -21.7797  -17.1070   13.7168 N   0  0  0  0  0  0  0  0  0  0  0  0
  -23.1565  -20.6963   11.9935 C   0  0  0  0  0  0  0  0  0  0  0  0
 17  1  1  0
  1 18  2  0
  3  2  1  0
  2 18  1  0
 17  3  2  0
 13  4  2  0
  4 20  1  0
  5  8  2  0
 20  5  1  0
  5 21  1  0
  7  6  2  0
  6 22  1  0
  8  7  1  0
 10  9  1  0
 11 10  1  0
 12 11  2  0
 11 23  1  0
 13 12  1  0
 14 13  1  0
 15 14  1  0
 16 15  1  0
 16 17  1  0
 16 19  2  0
 20 23  2  0
 21 22  2  0
M  END
$$$$
