
     RDKit          3D

 23 25  0  0  0  0  0  0  0  0999 V2000
   -7.9049   -1.9903   22.9763 C   0  0  0  0  0  0  0  0  0  0  0  0
   -9.4283   -3.1012   21.9032 N   0  0  0  0  0  0  0  0  0  0  0  0
   -9.7058   -3.2128   23.2311 C   0  0  0  0  0  0  0  0  0  0  0  0
  -10.7975   -4.8501   28.6800 C   0  0  0  0  0  0  0  0  0  0  0  0
  -11.7267   -6.9072   29.7281 C   0  0  0  0  0  0  0  0  0  0  0  0
  -11.3727   -9.4932   30.4973 C   0  0  0  0  0  0  0  0  0  0  0  0
  -12.2296   -8.7018   31.2189 C   0  0  0  0  0  0  0  0  0  0  0  0
  -12.4083   -7.3968   30.8308 C   0  0  0  0  0  0  0  0  0  0  0  0
  -15.5917   -3.5831   28.5191 C   0  0  0  0  0  0  0  0  0  0  0  0
  -14.4285   -2.8985   28.9372 O   0  0  0  0  0  0  0  0  0  0  0  0
  -13.2181   -3.5768   28.8622 C   0  0  0  0  0  0  0  0  0  0  0  0
  -12.1080   -2.9484   28.3119 C   0  0  0  0  0  0  0  0  0  0  0  0
  -10.8806   -3.5559   28.2054 C   0  0  0  0  0  0  0  0  0  0  0  0
   -9.7122   -2.8717   27.6021 C   0  0  0  0  0  0  0  0  0  0  0  0
   -9.6330   -2.9302   26.2205 O   0  0  0  0  0  0  0  0  0  0  0  0
   -8.6944   -2.3904   25.3798 C   0  0  0  0  0  0  0  0  0  0  0  0
   -8.7481   -2.5130   23.9285 C   0  0  0  0  0  0  0  0  0  0  0  0
   -8.3378   -2.3615   21.7368 N   0  0  0  0  0  0  0  0  0  0  0  0
   -7.7478   -1.7618   25.9126 O   0  0  0  0  0  0  0  0  0  0  0  0
  -11.8518   -5.5421   29.2387 C   0  0  0  0  0  0  0  0  0  0  0  0
  -10.8801   -7.7543   29.0458 C   0  0  0  0  0  0  0  0  0  0  0  0
  -10.7087   -9.0370   29.4324 N   0  0  0  0  0  0  0  0  0  0  0  0
  -13.0650   -4.8686   29.3168 C   0  0  0  0  0  0  0  0  0  0  0  0
 17  1  1  0
  1 18  2  0
  3  2  1  0
  2 18  1  0
 17  3  2  0
 13  4  2  0
  4 20  1  0
  5  8  2  0
 20  5  1  0
  5 21  1  0
  7  6  2  0
  6 22  1  0
  8  7  1  0
 10  9  1  0
 11 10  1  0
 12 11  2  0
 11 23  1  0
 13 12  1  0
 14 13  1  0
 15 14  1  0
 16 15  1  0
 16 17  1  0
 16 19  2  0
 20 23  2  0
 21 22  2  0
M  END
$$$$
