
     RDKit          3D

 23 25  0  0  0  0  0  0  0  0999 V2000
   -8.3049   -1.9733   24.4514 C   0  0  0  0  0  0  0  0  0  0  0  0
  -10.2170   -2.2369   23.4611 N   0  0  0  0  0  0  0  0  0  0  0  0
  -10.2966   -2.8617   24.6677 C   0  0  0  0  0  0  0  0  0  0  0  0
  -10.6962   -6.3280   29.4655 C   0  0  0  0  0  0  0  0  0  0  0  0
  -11.4973   -8.5854   30.1408 C   0  0  0  0  0  0  0  0  0  0  0  0
  -11.2909  -11.2716   30.5240 C   0  0  0  0  0  0  0  0  0  0  0  0
  -10.2332  -10.4720   30.8750 C   0  0  0  0  0  0  0  0  0  0  0  0
  -10.3372   -9.1166   30.6816 C   0  0  0  0  0  0  0  0  0  0  0  0
  -15.4874   -5.4955   30.4808 C   0  0  0  0  0  0  0  0  0  0  0  0
  -14.4209   -4.6555   30.0888 O   0  0  0  0  0  0  0  0  0  0  0  0
  -13.1776   -5.2422   29.8867 C   0  0  0  0  0  0  0  0  0  0  0  0
  -12.1118   -4.4665   29.4481 C   0  0  0  0  0  0  0  0  0  0  0  0
  -10.8558   -4.9772   29.2273 C   0  0  0  0  0  0  0  0  0  0  0  0
   -9.7356   -4.1341   28.7460 C   0  0  0  0  0  0  0  0  0  0  0  0
   -9.6407   -3.9943   27.3713 O   0  0  0  0  0  0  0  0  0  0  0  0
   -8.7739   -3.2310   26.6328 C   0  0  0  0  0  0  0  0  0  0  0  0
   -9.0905   -2.7046   25.3111 C   0  0  0  0  0  0  0  0  0  0  0  0
   -9.0130   -1.6943   23.3190 N   0  0  0  0  0  0  0  0  0  0  0  0
   -7.6541   -2.9865   27.1439 O   0  0  0  0  0  0  0  0  0  0  0  0
  -11.7028   -7.1646   29.9009 C   0  0  0  0  0  0  0  0  0  0  0  0
  -12.5239   -9.4434   29.8094 C   0  0  0  0  0  0  0  0  0  0  0  0
  -12.4156  -10.7758   30.0021 N   0  0  0  0  0  0  0  0  0  0  0  0
  -12.9486   -6.5834   30.1051 C   0  0  0  0  0  0  0  0  0  0  0  0
 17  1  1  0
  1 18  2  0
  3  2  1  0
  2 18  1  0
 17  3  2  0
 13  4  2  0
  4 20  1  0
  5  8  2  0
 20  5  1  0
  5 21  1  0
  7  6  2  0
  6 22  1  0
  8  7  1  0
 10  9  1  0
 11 10  1  0
 12 11  2  0
 11 23  1  0
 13 12  1  0
 14 13  1  0
 15 14  1  0
 16 15  1  0
 16 17  1  0
 16 19  2  0
 20 23  2  0
 21 22  2  0
M  END
$$$$
