
     RDKit          3D

 23 25  0  0  0  0  0  0  0  0999 V2000
  -12.9785  -11.7533   23.0140 C   0  0  0  0  0  0  0  0  0  0  0  0
  -13.1251   -9.8789   21.9317 N   0  0  0  0  0  0  0  0  0  0  0  0
  -13.3747   -9.6100   23.2424 C   0  0  0  0  0  0  0  0  0  0  0  0
  -12.3734   -7.9548   28.2326 C   0  0  0  0  0  0  0  0  0  0  0  0
  -10.9425   -5.9827   28.7392 C   0  0  0  0  0  0  0  0  0  0  0  0
  -10.2133   -3.4248   28.1642 C   0  0  0  0  0  0  0  0  0  0  0  0
  -10.1203   -3.8616   29.4611 C   0  0  0  0  0  0  0  0  0  0  0  0
  -10.4883   -5.1522   29.7513 C   0  0  0  0  0  0  0  0  0  0  0  0
  -10.9782  -11.5558   31.2926 C   0  0  0  0  0  0  0  0  0  0  0  0
  -10.4450  -10.2682   31.0590 O   0  0  0  0  0  0  0  0  0  0  0  0
  -11.0777   -9.4691   30.1145 C   0  0  0  0  0  0  0  0  0  0  0  0
  -12.1162   -9.9911   29.3535 C   0  0  0  0  0  0  0  0  0  0  0  0
  -12.7873   -9.2612   28.4028 C   0  0  0  0  0  0  0  0  0  0  0  0
  -13.8840   -9.8421   27.5921 C   0  0  0  0  0  0  0  0  0  0  0  0
  -13.6726   -9.8557   26.2233 O   0  0  0  0  0  0  0  0  0  0  0  0
  -13.4879  -10.9227   25.3826 C   0  0  0  0  0  0  0  0  0  0  0  0
  -13.2858  -10.7895   23.9454 C   0  0  0  0  0  0  0  0  0  0  0  0
  -12.8834  -11.1762   21.7813 N   0  0  0  0  0  0  0  0  0  0  0  0
  -13.4979  -12.0649   25.9025 O   0  0  0  0  0  0  0  0  0  0  0  0
  -11.3521   -7.3639   28.9469 C   0  0  0  0  0  0  0  0  0  0  0  0
  -11.0121   -5.4827   27.4566 C   0  0  0  0  0  0  0  0  0  0  0  0
  -10.6487   -4.2122   27.1774 N   0  0  0  0  0  0  0  0  0  0  0  0
  -10.7157   -8.1581   29.8934 C   0  0  0  0  0  0  0  0  0  0  0  0
 17  1  1  0
  1 18  2  0
  3  2  1  0
  2 18  1  0
 17  3  2  0
 13  4  2  0
  4 20  1  0
  5  8  2  0
 20  5  1  0
  5 21  1  0
  7  6  2  0
  6 22  1  0
  8  7  1  0
 10  9  1  0
 11 10  1  0
 12 11  2  0
 11 23  1  0
 13 12  1  0
 14 13  1  0
 15 14  1  0
 16 15  1  0
 16 17  1  0
 16 19  2  0
 20 23  2  0
 21 22  2  0
M  END
$$$$
