
     RDKit          3D

 23 25  0  0  0  0  0  0  0  0999 V2000
  -20.7632  -23.7289    6.1364 C   0  0  0  0  0  0  0  0  0  0  0  0
  -20.5698  -21.8403    5.0868 N   0  0  0  0  0  0  0  0  0  0  0  0
  -21.3740  -21.6244    6.1634 C   0  0  0  0  0  0  0  0  0  0  0  0
  -22.8378  -20.1578   11.3976 C   0  0  0  0  0  0  0  0  0  0  0  0
  -21.9047  -18.4213   12.9167 C   0  0  0  0  0  0  0  0  0  0  0  0
  -19.8151  -17.5058   14.3999 C   0  0  0  0  0  0  0  0  0  0  0  0
  -21.0919  -17.2446   14.8274 C   0  0  0  0  0  0  0  0  0  0  0  0
  -22.1464  -17.7066   14.0790 C   0  0  0  0  0  0  0  0  0  0  0  0
  -27.1449  -18.3984    9.7731 C   0  0  0  0  0  0  0  0  0  0  0  0
  -26.3409  -18.0328   10.8761 O   0  0  0  0  0  0  0  0  0  0  0  0
  -25.1532  -18.7281   11.0678 C   0  0  0  0  0  0  0  0  0  0  0  0
  -24.9594  -19.9501   10.4358 C   0  0  0  0  0  0  0  0  0  0  0  0
  -23.8123  -20.6923   10.5782 C   0  0  0  0  0  0  0  0  0  0  0  0
  -23.6316  -22.0007    9.9052 C   0  0  0  0  0  0  0  0  0  0  0  0
  -22.9047  -21.9711    8.7266 O   0  0  0  0  0  0  0  0  0  0  0  0
  -22.2943  -22.9990    8.0555 C   0  0  0  0  0  0  0  0  0  0  0  0
  -21.5081  -22.8137    6.8424 C   0  0  0  0  0  0  0  0  0  0  0  0
  -20.1932  -23.1137    5.0603 N   0  0  0  0  0  0  0  0  0  0  0  0
  -22.4352  -24.1518    8.5311 O   0  0  0  0  0  0  0  0  0  0  0  0
  -22.9540  -18.9533   12.0596 C   0  0  0  0  0  0  0  0  0  0  0  0
  -20.5981  -18.6500   12.5422 C   0  0  0  0  0  0  0  0  0  0  0  0
  -19.5651  -18.1930   13.2826 N   0  0  0  0  0  0  0  0  0  0  0  0
  -24.1397  -18.2530   11.8714 C   0  0  0  0  0  0  0  0  0  0  0  0
 17  1  1  0
  1 18  2  0
  3  2  1  0
  2 18  1  0
 17  3  2  0
 13  4  2  0
  4 20  1  0
  5  8  2  0
 20  5  1  0
  5 21  1  0
  7  6  2  0
  6 22  1  0
  8  7  1  0
 10  9  1  0
 11 10  1  0
 12 11  2  0
 11 23  1  0
 13 12  1  0
 14 13  1  0
 15 14  1  0
 16 15  1  0
 16 17  1  0
 16 19  2  0
 20 23  2  0
 21 22  2  0
M  END
$$$$
