
     RDKit          3D

 23 25  0  0  0  0  0  0  0  0999 V2000
  -13.9162  -11.1580   19.9633 C   0  0  0  0  0  0  0  0  0  0  0  0
  -15.7789  -10.0954   20.2906 N   0  0  0  0  0  0  0  0  0  0  0  0
  -15.1729  -10.2323   21.5016 C   0  0  0  0  0  0  0  0  0  0  0  0
  -12.3570  -10.8499   27.1938 C   0  0  0  0  0  0  0  0  0  0  0  0
  -11.8145  -10.2126   29.5375 C   0  0  0  0  0  0  0  0  0  0  0  0
   -9.9479   -9.9087   31.4942 C   0  0  0  0  0  0  0  0  0  0  0  0
  -11.2247  -10.2618   31.8496 C   0  0  0  0  0  0  0  0  0  0  0  0
  -12.1666  -10.4152   30.8624 C   0  0  0  0  0  0  0  0  0  0  0  0
  -17.2732  -10.7741   27.6802 C   0  0  0  0  0  0  0  0  0  0  0  0
  -16.3096   -9.7411   27.6490 O   0  0  0  0  0  0  0  0  0  0  0  0
  -14.9751  -10.1068   27.5215 C   0  0  0  0  0  0  0  0  0  0  0  0
  -14.5116  -10.6161   26.3149 C   0  0  0  0  0  0  0  0  0  0  0  0
  -13.2071  -10.9977   26.1156 C   0  0  0  0  0  0  0  0  0  0  0  0
  -12.7365  -11.5517   24.8237 C   0  0  0  0  0  0  0  0  0  0  0  0
  -13.2401  -10.9352   23.6903 O   0  0  0  0  0  0  0  0  0  0  0  0
  -13.0453  -11.2497   22.3702 C   0  0  0  0  0  0  0  0  0  0  0  0
  -13.9876  -10.9053   21.3131 C   0  0  0  0  0  0  0  0  0  0  0  0
  -15.0254  -10.6533   19.3498 N   0  0  0  0  0  0  0  0  0  0  0  0
  -11.9916  -11.8676   22.0822 O   0  0  0  0  0  0  0  0  0  0  0  0
  -12.7395  -10.3535   28.4226 C   0  0  0  0  0  0  0  0  0  0  0  0
  -10.5143   -9.8592   29.2469 C   0  0  0  0  0  0  0  0  0  0  0  0
   -9.5922   -9.7100   30.2225 N   0  0  0  0  0  0  0  0  0  0  0  0
  -14.0731   -9.9856   28.5561 C   0  0  0  0  0  0  0  0  0  0  0  0
 17  1  1  0
  1 18  2  0
  3  2  1  0
  2 18  1  0
 17  3  2  0
 13  4  2  0
  4 20  1  0
  5  8  2  0
 20  5  1  0
  5 21  1  0
  7  6  2  0
  6 22  1  0
  8  7  1  0
 10  9  1  0
 11 10  1  0
 12 11  2  0
 11 23  1  0
 13 12  1  0
 14 13  1  0
 15 14  1  0
 16 15  1  0
 16 17  1  0
 16 19  2  0
 20 23  2  0
 21 22  2  0
M  END
$$$$
