
     RDKit          3D

 23 25  0  0  0  0  0  0  0  0999 V2000
  -10.3854   -3.7131   28.1813 C   0  0  0  0  0  0  0  0  0  0  0  0
   -9.9564   -3.9267   26.0655 N   0  0  0  0  0  0  0  0  0  0  0  0
  -10.4828   -5.1069   26.4929 C   0  0  0  0  0  0  0  0  0  0  0  0
  -12.6856   -9.4465   26.6555 C   0  0  0  0  0  0  0  0  0  0  0  0
  -13.1898  -10.3445   24.3899 C   0  0  0  0  0  0  0  0  0  0  0  0
  -13.0210  -10.4423   21.6757 C   0  0  0  0  0  0  0  0  0  0  0  0
  -13.1362   -9.2193   22.2859 C   0  0  0  0  0  0  0  0  0  0  0  0
  -13.2214   -9.1699   23.6554 C   0  0  0  0  0  0  0  0  0  0  0  0
  -15.6195  -13.3101   27.7212 C   0  0  0  0  0  0  0  0  0  0  0  0
  -14.7381  -12.5224   28.4953 O   0  0  0  0  0  0  0  0  0  0  0  0
  -14.0536  -11.4983   27.8522 C   0  0  0  0  0  0  0  0  0  0  0  0
  -13.4368  -10.5041   28.6014 C   0  0  0  0  0  0  0  0  0  0  0  0
  -12.7431   -9.4624   28.0351 C   0  0  0  0  0  0  0  0  0  0  0  0
  -12.1038   -8.4042   28.8530 C   0  0  0  0  0  0  0  0  0  0  0  0
  -11.7553   -7.2503   28.1708 O   0  0  0  0  0  0  0  0  0  0  0  0
  -11.3372   -6.0414   28.6639 C   0  0  0  0  0  0  0  0  0  0  0  0
  -10.7616   -4.9896   27.8353 C   0  0  0  0  0  0  0  0  0  0  0  0
   -9.8926   -3.0735   27.0814 N   0  0  0  0  0  0  0  0  0  0  0  0
  -11.4674   -5.8547   29.8981 O   0  0  0  0  0  0  0  0  0  0  0  0
  -13.2709  -10.3945   25.8423 C   0  0  0  0  0  0  0  0  0  0  0  0
  -13.0723  -11.5412   23.7161 C   0  0  0  0  0  0  0  0  0  0  0  0
  -12.9889  -11.5832   22.3687 N   0  0  0  0  0  0  0  0  0  0  0  0
  -13.9567  -11.4216   26.4798 C   0  0  0  0  0  0  0  0  0  0  0  0
 17  1  1  0
  1 18  2  0
  3  2  1  0
  2 18  1  0
 17  3  2  0
 13  4  2  0
  4 20  1  0
  5  8  2  0
 20  5  1  0
  5 21  1  0
  7  6  2  0
  6 22  1  0
  8  7  1  0
 10  9  1  0
 11 10  1  0
 12 11  2  0
 11 23  1  0
 13 12  1  0
 14 13  1  0
 15 14  1  0
 16 15  1  0
 16 17  1  0
 16 19  2  0
 20 23  2  0
 21 22  2  0
M  END
$$$$
