
     RDKit          3D

 23 25  0  0  0  0  0  0  0  0999 V2000
   -8.2737  -10.3139   24.4418 C   0  0  0  0  0  0  0  0  0  0  0  0
   -9.4204  -11.0334   22.7465 N   0  0  0  0  0  0  0  0  0  0  0  0
  -10.1781  -11.2292   23.8601 C   0  0  0  0  0  0  0  0  0  0  0  0
  -14.0019  -10.5969   27.1698 C   0  0  0  0  0  0  0  0  0  0  0  0
  -16.2177   -9.9457   26.2424 C   0  0  0  0  0  0  0  0  0  0  0  0
  -18.0446  -10.1780   24.2391 C   0  0  0  0  0  0  0  0  0  0  0  0
  -18.3446   -9.3842   25.3167 C   0  0  0  0  0  0  0  0  0  0  0  0
  -17.4228   -9.2670   26.3276 C   0  0  0  0  0  0  0  0  0  0  0  0
  -13.3552   -7.6378   31.0597 C   0  0  0  0  0  0  0  0  0  0  0  0
  -14.5212   -8.2003   30.4934 O   0  0  0  0  0  0  0  0  0  0  0  0
  -14.3708   -8.9988   29.3661 C   0  0  0  0  0  0  0  0  0  0  0  0
  -13.2132   -9.7491   29.2017 C   0  0  0  0  0  0  0  0  0  0  0  0
  -12.9955  -10.5602   28.1146 C   0  0  0  0  0  0  0  0  0  0  0  0
  -11.7466  -11.3422   27.9521 C   0  0  0  0  0  0  0  0  0  0  0  0
  -11.1666  -11.2875   26.6956 O   0  0  0  0  0  0  0  0  0  0  0  0
   -9.9344  -10.8131   26.3266 C   0  0  0  0  0  0  0  0  0  0  0  0
   -9.4655  -10.7778   24.9472 C   0  0  0  0  0  0  0  0  0  0  0  0
   -8.2627  -10.4786   23.0874 N   0  0  0  0  0  0  0  0  0  0  0  0
   -9.1887  -10.3924   27.2443 O   0  0  0  0  0  0  0  0  0  0  0  0
  -15.1785   -9.8826   27.2596 C   0  0  0  0  0  0  0  0  0  0  0  0
  -15.9774  -10.7272   25.1327 C   0  0  0  0  0  0  0  0  0  0  0  0
  -16.8881  -10.8384   24.1416 N   0  0  0  0  0  0  0  0  0  0  0  0
  -15.3348   -9.0823   28.3851 C   0  0  0  0  0  0  0  0  0  0  0  0
 17  1  1  0
  1 18  2  0
  3  2  1  0
  2 18  1  0
 17  3  2  0
 13  4  2  0
  4 20  1  0
  5  8  2  0
 20  5  1  0
  5 21  1  0
  7  6  2  0
  6 22  1  0
  8  7  1  0
 10  9  1  0
 11 10  1  0
 12 11  2  0
 11 23  1  0
 13 12  1  0
 14 13  1  0
 15 14  1  0
 16 15  1  0
 16 17  1  0
 16 19  2  0
 20 23  2  0
 21 22  2  0
M  END
$$$$
