
     RDKit          3D

 23 25  0  0  0  0  0  0  0  0999 V2000
  -17.9971  -17.5013   13.8054 C   0  0  0  0  0  0  0  0  0  0  0  0
  -17.6818  -16.8085   11.7739 N   0  0  0  0  0  0  0  0  0  0  0  0
  -18.8585  -17.4924   11.7903 C   0  0  0  0  0  0  0  0  0  0  0  0
  -24.3242  -19.5897   11.4219 C   0  0  0  0  0  0  0  0  0  0  0  0
  -26.3516  -19.1575   10.0447 C   0  0  0  0  0  0  0  0  0  0  0  0
  -28.5547  -17.6322    9.5713 C   0  0  0  0  0  0  0  0  0  0  0  0
  -28.5529  -18.9373    9.1494 C   0  0  0  0  0  0  0  0  0  0  0  0
  -27.4412  -19.7070    9.3882 C   0  0  0  0  0  0  0  0  0  0  0  0
  -23.4683  -24.0364    9.4364 C   0  0  0  0  0  0  0  0  0  0  0  0
  -23.1644  -22.7275    8.9993 O   0  0  0  0  0  0  0  0  0  0  0  0
  -23.5763  -21.6680    9.7986 C   0  0  0  0  0  0  0  0  0  0  0  0
  -22.8172  -21.3011   10.9028 C   0  0  0  0  0  0  0  0  0  0  0  0
  -23.1618  -20.2654   11.7368 C   0  0  0  0  0  0  0  0  0  0  0  0
  -22.3444  -19.8993   12.9180 C   0  0  0  0  0  0  0  0  0  0  0  0
  -21.2313  -19.1180   12.6555 O   0  0  0  0  0  0  0  0  0  0  0  0
  -20.2313  -18.7166   13.5030 C   0  0  0  0  0  0  0  0  0  0  0  0
  -19.0752  -17.9401   13.0732 C   0  0  0  0  0  0  0  0  0  0  0  0
  -17.1503  -16.8074   12.9911 N   0  0  0  0  0  0  0  0  0  0  0  0
  -20.3400  -19.0482   14.7085 O   0  0  0  0  0  0  0  0  0  0  0  0
  -25.1316  -19.8924   10.3453 C   0  0  0  0  0  0  0  0  0  0  0  0
  -26.4169  -17.8396   10.4431 C   0  0  0  0  0  0  0  0  0  0  0  0
  -27.5133  -17.0876   10.2053 N   0  0  0  0  0  0  0  0  0  0  0  0
  -24.7247  -20.9510    9.5419 C   0  0  0  0  0  0  0  0  0  0  0  0
 17  1  1  0
  1 18  2  0
  3  2  1  0
  2 18  1  0
 17  3  2  0
 13  4  2  0
  4 20  1  0
  5  8  2  0
 20  5  1  0
  5 21  1  0
  7  6  2  0
  6 22  1  0
  8  7  1  0
 10  9  1  0
 11 10  1  0
 12 11  2  0
 11 23  1  0
 13 12  1  0
 14 13  1  0
 15 14  1  0
 16 15  1  0
 16 17  1  0
 16 19  2  0
 20 23  2  0
 21 22  2  0
M  END
$$$$
