
     RDKit          3D

 23 25  0  0  0  0  0  0  0  0999 V2000
  -18.8920  -23.7073    6.2316 C   0  0  0  0  0  0  0  0  0  0  0  0
  -17.5947  -22.0696    6.8159 N   0  0  0  0  0  0  0  0  0  0  0  0
  -18.7835  -21.8921    7.4546 C   0  0  0  0  0  0  0  0  0  0  0  0
  -22.2597  -20.3825   10.4818 C   0  0  0  0  0  0  0  0  0  0  0  0
  -21.4740  -18.5415   11.9607 C   0  0  0  0  0  0  0  0  0  0  0  0
  -19.4033  -17.0713   12.9381 C   0  0  0  0  0  0  0  0  0  0  0  0
  -20.5430  -17.1883   13.6922 C   0  0  0  0  0  0  0  0  0  0  0  0
  -21.5879  -17.9301   13.1990 C   0  0  0  0  0  0  0  0  0  0  0  0
  -26.5219  -18.5627   12.2711 C   0  0  0  0  0  0  0  0  0  0  0  0
  -26.2183  -19.6084   11.3706 O   0  0  0  0  0  0  0  0  0  0  0  0
  -24.8792  -19.8485   11.0879 C   0  0  0  0  0  0  0  0  0  0  0  0
  -24.5309  -20.8733   10.2169 C   0  0  0  0  0  0  0  0  0  0  0  0
  -23.2295  -21.1681    9.8908 C   0  0  0  0  0  0  0  0  0  0  0  0
  -22.8793  -22.2752    8.9694 C   0  0  0  0  0  0  0  0  0  0  0  0
  -21.5901  -22.2467    8.4637 O   0  0  0  0  0  0  0  0  0  0  0  0
  -20.9884  -23.0927    7.5683 C   0  0  0  0  0  0  0  0  0  0  0  0
  -19.6204  -22.9235    7.0953 C   0  0  0  0  0  0  0  0  0  0  0  0
  -17.6490  -23.1680    6.0710 N   0  0  0  0  0  0  0  0  0  0  0  0
  -21.6733  -24.0568    7.1482 O   0  0  0  0  0  0  0  0  0  0  0  0
  -22.5236  -19.3485   11.3558 C   0  0  0  0  0  0  0  0  0  0  0  0
  -20.3017  -18.3851   11.2528 C   0  0  0  0  0  0  0  0  0  0  0  0
  -19.2773  -17.6541   11.7433 N   0  0  0  0  0  0  0  0  0  0  0  0
  -23.8613  -19.1033   11.6422 C   0  0  0  0  0  0  0  0  0  0  0  0
 17  1  1  0
  1 18  2  0
  3  2  1  0
  2 18  1  0
 17  3  2  0
 13  4  2  0
  4 20  1  0
  5  8  2  0
 20  5  1  0
  5 21  1  0
  7  6  2  0
  6 22  1  0
  8  7  1  0
 10  9  1  0
 11 10  1  0
 12 11  2  0
 11 23  1  0
 13 12  1  0
 14 13  1  0
 15 14  1  0
 16 15  1  0
 16 17  1  0
 16 19  2  0
 20 23  2  0
 21 22  2  0
M  END
$$$$
