
     RDKit          3D

 25 27  0  0  0  0  0  0  0  0999 V2000
   13.2019   28.5666   -4.9921 C   0  0  0  0  0  0  0  0  0  0  0  0
   11.7682   28.5234   -5.3477 C   0  0  0  0  0  0  0  0  0  0  0  0
   11.4169   29.8294   -5.9941 C   0  0  1  0  0  0  0  0  0  0  0  0
   10.0641   29.8372   -6.6483 C   0  0  0  0  0  0  0  0  0  0  0  0
   10.3725   31.8970   -5.7892 C   0  0  0  0  0  0  0  0  0  0  0  0
   12.5694   31.5079   -4.6219 C   0  0  0  0  0  0  0  0  0  0  0  0
   12.1057   35.0957   -3.6939 C   0  0  0  0  0  0  0  0  0  0  0  0
   13.2432   34.9490   -5.8105 C   0  0  0  0  0  0  0  0  0  0  0  0
   13.2059   33.5864   -5.7661 C   0  0  0  0  0  0  0  0  0  0  0  0
   15.9253   28.6532   -4.3186 C   0  0  0  0  0  0  0  0  0  0  0  0
   14.6618   27.3535   -1.1575 C   0  0  0  0  0  0  0  0  0  0  0  0
   12.6160   32.9702   -4.6812 C   0  0  0  0  0  0  0  0  0  0  0  0
   12.0678   33.7096   -3.6489 C   0  0  0  0  0  0  0  0  0  0  0  0
   12.7021   35.7042   -4.7912 C   0  0  0  0  0  0  0  0  0  0  0  0
   14.4992   34.9359   -7.9228 C   0  0  0  0  0  0  0  0  0  0  0  0
   14.1206   29.1562   -5.8277 C   0  0  0  0  0  0  0  0  0  0  0  0
   15.4756   29.2013   -5.4966 C   0  0  0  0  0  0  0  0  0  0  0  0
   15.0132   28.0625   -3.4788 C   0  0  0  0  0  0  0  0  0  0  0  0
   13.6762   28.0245   -3.8178 C   0  0  0  0  0  0  0  0  0  0  0  0
   11.2133   30.9441   -4.9589 C   0  0  2  0  0  0  0  0  0  0  0  0
   15.4608   27.5114   -2.2958 O   0  0  0  0  0  0  0  0  0  0  0  0
    9.6552   31.1626   -6.6901 O   0  0  0  0  0  0  0  0  0  0  0  0
   12.7369   37.1119   -4.8302 O   0  0  0  0  0  0  0  0  0  0  0  0
   13.8275   35.6038   -6.8840 O   0  0  0  0  0  0  0  0  0  0  0  0
   17.2928   28.7038   -3.9939 O   0  0  0  0  0  0  0  0  0  0  0  0
  1  2  1  0
  1 16  2  0
 19  1  1  0
  3  2  1  1
  3  4  1  0
  3 20  1  0
  4 22  1  0
 20  5  1  0
  5 22  1  0
  6 12  1  0
 20  6  1  6
 13  7  2  0
  7 14  1  0
  9  8  1  0
  8 14  2  0
  8 24  1  0
 12  9  2  0
 10 17  2  0
 18 10  1  0
 10 25  1  0
 21 11  1  0
 12 13  1  0
 14 23  1  0
 24 15  1  0
 17 16  1  0
 18 19  2  0
 18 21  1  0
M  END
$$$$
