
     RDKit          3D

 25 27  0  0  0  0  0  0  0  0999 V2000
   11.8691   32.4643   -7.3253 C   0  0  0  0  0  0  0  0  0  0  0  0
   10.8660   31.5038   -6.8200 C   0  0  0  0  0  0  0  0  0  0  0  0
   11.0587   31.3768   -5.3390 C   0  0  1  0  0  0  0  0  0  0  0  0
    9.8172   30.9645   -4.5995 C   0  0  0  0  0  0  0  0  0  0  0  0
   11.5486   29.9865   -3.5404 C   0  0  0  0  0  0  0  0  0  0  0  0
   13.4019   30.6850   -5.0953 C   0  0  0  0  0  0  0  0  0  0  0  0
   16.0935   29.4025   -2.8461 C   0  0  0  0  0  0  0  0  0  0  0  0
   15.3678   27.6444   -4.3219 C   0  0  0  0  0  0  0  0  0  0  0  0
   14.4630   28.4771   -4.9119 C   0  0  0  0  0  0  0  0  0  0  0  0
   13.7744   34.2905   -8.2806 C   0  0  0  0  0  0  0  0  0  0  0  0
   14.8644   31.2771  -10.0917 C   0  0  0  0  0  0  0  0  0  0  0  0
   14.3692   29.7811   -4.4698 C   0  0  0  0  0  0  0  0  0  0  0  0
   15.1731   30.2494   -3.4463 C   0  0  0  0  0  0  0  0  0  0  0  0
   16.1784   28.0922   -3.2999 C   0  0  0  0  0  0  0  0  0  0  0  0
   14.6983   25.7619   -5.7528 C   0  0  0  0  0  0  0  0  0  0  0  0
   11.8731   33.7719   -6.9009 C   0  0  0  0  0  0  0  0  0  0  0  0
   12.8187   34.6830   -7.3735 C   0  0  0  0  0  0  0  0  0  0  0  0
   13.7765   32.9857   -8.7091 C   0  0  0  0  0  0  0  0  0  0  0  0
   12.8361   32.0946   -8.2342 C   0  0  0  0  0  0  0  0  0  0  0  0
   11.9792   30.2023   -4.9800 C   0  0  2  0  0  0  0  0  0  0  0  0
   14.7340   32.5882   -9.6195 O   0  0  0  0  0  0  0  0  0  0  0  0
   10.2416   30.3650   -3.4222 O   0  0  0  0  0  0  0  0  0  0  0  0
   17.1153   27.2380   -2.6859 O   0  0  0  0  0  0  0  0  0  0  0  0
   15.4908   26.3278   -4.7389 O   0  0  0  0  0  0  0  0  0  0  0  0
   14.7230   35.2163   -8.7508 O   0  0  0  0  0  0  0  0  0  0  0  0
  1  2  1  0
  1 16  2  0
 19  1  1  0
  3  2  1  6
  3  4  1  0
  3 20  1  0
  4 22  1  0
 20  5  1  0
  5 22  1  0
  6 12  1  0
 20  6  1  1
 13  7  2  0
  7 14  1  0
  9  8  1  0
  8 14  2  0
  8 24  1  0
 12  9  2  0
 10 17  2  0
 18 10  1  0
 10 25  1  0
 21 11  1  0
 12 13  1  0
 14 23  1  0
 24 15  1  0
 17 16  1  0
 18 19  2  0
 18 21  1  0
M  END
$$$$
