
     RDKit          3D

 25 27  0  0  0  0  0  0  0  0999 V2000
   14.5014   27.8036   -4.8177 C   0  0  0  0  0  0  0  0  0  0  0  0
   14.1496   29.2114   -5.0974 C   0  0  0  0  0  0  0  0  0  0  0  0
   12.6549   29.3231   -5.0760 C   0  0  1  0  0  0  0  0  0  0  0  0
   12.0476   29.0706   -3.7249 C   0  0  0  0  0  0  0  0  0  0  0  0
   10.7974   30.6709   -4.7006 C   0  0  0  0  0  0  0  0  0  0  0  0
   12.1533   31.0016   -6.7964 C   0  0  0  0  0  0  0  0  0  0  0  0
   13.4849   34.4300   -7.4455 C   0  0  0  0  0  0  0  0  0  0  0  0
   11.1154   34.3899   -7.8690 C   0  0  0  0  0  0  0  0  0  0  0  0
   11.0516   33.0686   -7.5366 C   0  0  0  0  0  0  0  0  0  0  0  0
   15.1697   25.1290   -4.2911 C   0  0  0  0  0  0  0  0  0  0  0  0
   17.0837   26.7700   -1.6089 C   0  0  0  0  0  0  0  0  0  0  0  0
   12.2087   32.4199   -7.1559 C   0  0  0  0  0  0  0  0  0  0  0  0
   13.4199   33.0860   -7.1075 C   0  0  0  0  0  0  0  0  0  0  0  0
   12.3135   35.0718   -7.8272 C   0  0  0  0  0  0  0  0  0  0  0  0
    8.6829   34.5234   -8.1919 C   0  0  0  0  0  0  0  0  0  0  0  0
   13.9966   26.7820   -5.5866 C   0  0  0  0  0  0  0  0  0  0  0  0
   14.3264   25.4508   -5.3281 C   0  0  0  0  0  0  0  0  0  0  0  0
   15.6780   26.1443   -3.5186 C   0  0  0  0  0  0  0  0  0  0  0  0
   15.3441   27.4565   -3.7846 C   0  0  0  0  0  0  0  0  0  0  0  0
   12.1852   30.7656   -5.3086 C   0  0  2  0  0  0  0  0  0  0  0  0
   16.5246   25.8252   -2.4770 O   0  0  0  0  0  0  0  0  0  0  0  0
   10.8245   29.7258   -3.7149 O   0  0  0  0  0  0  0  0  0  0  0  0
   12.3870   36.4365   -8.1689 O   0  0  0  0  0  0  0  0  0  0  0  0
    9.9742   35.0754   -8.2565 O   0  0  0  0  0  0  0  0  0  0  0  0
   15.4960   23.7844   -4.0387 O   0  0  0  0  0  0  0  0  0  0  0  0
  1  2  1  0
  1 16  2  0
 19  1  1  0
  3  2  1  1
  3  4  1  0
  3 20  1  0
  4 22  1  0
 20  5  1  0
  5 22  1  0
  6 12  1  0
 20  6  1  6
 13  7  2  0
  7 14  1  0
  9  8  1  0
  8 14  2  0
  8 24  1  0
 12  9  2  0
 10 17  2  0
 18 10  1  0
 10 25  1  0
 21 11  1  0
 12 13  1  0
 14 23  1  0
 24 15  1  0
 17 16  1  0
 18 19  2  0
 18 21  1  0
M  END
$$$$
