
     RDKit          3D

 25 27  0  0  0  0  0  0  0  0999 V2000
   11.5783   32.8256   -6.5754 C   0  0  0  0  0  0  0  0  0  0  0  0
   10.9650   31.4817   -6.6179 C   0  0  0  0  0  0  0  0  0  0  0  0
   11.0987   30.8736   -5.2544 C   0  0  1  0  0  0  0  0  0  0  0  0
    9.9509   29.9817   -4.8733 C   0  0  0  0  0  0  0  0  0  0  0  0
   11.8025   29.0605   -3.9797 C   0  0  0  0  0  0  0  0  0  0  0  0
   13.5217   30.6293   -4.9408 C   0  0  0  0  0  0  0  0  0  0  0  0
   16.7746   28.8065   -5.1513 C   0  0  0  0  0  0  0  0  0  0  0  0
   15.7174   28.3317   -3.0412 C   0  0  0  0  0  0  0  0  0  0  0  0
   14.6583   29.1290   -3.3624 C   0  0  0  0  0  0  0  0  0  0  0  0
   12.7434   35.3776   -6.4897 C   0  0  0  0  0  0  0  0  0  0  0  0
   14.3344   34.0885   -9.5488 C   0  0  0  0  0  0  0  0  0  0  0  0
   14.6530   29.7709   -4.5841 C   0  0  0  0  0  0  0  0  0  0  0  0
   15.6974   29.6175   -5.4778 C   0  0  0  0  0  0  0  0  0  0  0  0
   16.7684   28.1658   -3.9186 C   0  0  0  0  0  0  0  0  0  0  0  0
   14.6624   27.6010   -0.9454 C   0  0  0  0  0  0  0  0  0  0  0  0
   11.2717   33.7117   -5.5701 C   0  0  0  0  0  0  0  0  0  0  0  0
   11.8488   34.9815   -5.5239 C   0  0  0  0  0  0  0  0  0  0  0  0
   13.0546   34.4977   -7.4972 C   0  0  0  0  0  0  0  0  0  0  0  0
   12.4771   33.2450   -7.5315 C   0  0  0  0  0  0  0  0  0  0  0  0
   12.2499   29.8605   -5.1897 C   0  0  2  0  0  0  0  0  0  0  0  0
   13.9520   34.8917   -8.4683 O   0  0  0  0  0  0  0  0  0  0  0  0
   10.4385   29.0989   -3.9203 O   0  0  0  0  0  0  0  0  0  0  0  0
   17.8655   27.3440   -3.5938 O   0  0  0  0  0  0  0  0  0  0  0  0
   15.7584   27.6707   -1.8232 O   0  0  0  0  0  0  0  0  0  0  0  0
   13.3196   36.6594   -6.4343 O   0  0  0  0  0  0  0  0  0  0  0  0
  1  2  1  0
  1 16  2  0
 19  1  1  0
  3  2  1  6
  3  4  1  0
  3 20  1  0
  4 22  1  0
 20  5  1  0
  5 22  1  0
  6 12  1  0
 20  6  1  1
 13  7  2  0
  7 14  1  0
  9  8  1  0
  8 14  2  0
  8 24  1  0
 12  9  2  0
 10 17  2  0
 18 10  1  0
 10 25  1  0
 21 11  1  0
 12 13  1  0
 14 23  1  0
 24 15  1  0
 17 16  1  0
 18 19  2  0
 18 21  1  0
M  END
$$$$
