
     RDKit          3D

 25 27  0  0  0  0  0  0  0  0999 V2000
   14.1305   29.9911   -4.4252 C   0  0  0  0  0  0  0  0  0  0  0  0
   13.0001   30.9273   -4.5976 C   0  0  0  0  0  0  0  0  0  0  0  0
   12.0430   30.3150   -5.5753 C   0  0  1  0  0  0  0  0  0  0  0  0
   11.6282   28.9147   -5.2214 C   0  0  0  0  0  0  0  0  0  0  0  0
    9.8278   29.9013   -6.1494 C   0  0  0  0  0  0  0  0  0  0  0  0
   10.7589   32.2234   -6.4342 C   0  0  0  0  0  0  0  0  0  0  0  0
   11.5053   35.1365   -4.2194 C   0  0  0  0  0  0  0  0  0  0  0  0
   13.3982   34.6955   -5.6399 C   0  0  0  0  0  0  0  0  0  0  0  0
   12.7475   33.6505   -6.2272 C   0  0  0  0  0  0  0  0  0  0  0  0
   16.2802   28.2167   -4.0967 C   0  0  0  0  0  0  0  0  0  0  0  0
   13.5477   26.0968   -2.8356 C   0  0  0  0  0  0  0  0  0  0  0  0
   11.4680   33.3428   -5.8114 C   0  0  0  0  0  0  0  0  0  0  0  0
   10.8436   34.0735   -4.8168 C   0  0  0  0  0  0  0  0  0  0  0  0
   12.7927   35.4362   -4.6466 C   0  0  0  0  0  0  0  0  0  0  0  0
   15.3793   34.3716   -7.0576 C   0  0  0  0  0  0  0  0  0  0  0  0
   15.4087   30.3523   -4.7797 C   0  0  0  0  0  0  0  0  0  0  0  0
   16.4803   29.4730   -4.6179 C   0  0  0  0  0  0  0  0  0  0  0  0
   15.0059   27.8488   -3.7402 C   0  0  0  0  0  0  0  0  0  0  0  0
   13.9549   28.7275   -3.9052 C   0  0  0  0  0  0  0  0  0  0  0  0
   10.6740   31.0084   -5.5471 C   0  0  2  0  0  0  0  0  0  0  0  0
   14.8013   26.5887   -3.2168 O   0  0  0  0  0  0  0  0  0  0  0  0
   10.3998   28.7026   -5.8309 O   0  0  0  0  0  0  0  0  0  0  0  0
   13.4585   36.5170   -4.0356 O   0  0  0  0  0  0  0  0  0  0  0  0
   14.6845   35.0346   -6.0309 O   0  0  0  0  0  0  0  0  0  0  0  0
   17.3667   27.3378   -3.9376 O   0  0  0  0  0  0  0  0  0  0  0  0
  1  2  1  0
  1 16  2  0
 19  1  1  0
  3  2  1  1
  3  4  1  0
  3 20  1  0
  4 22  1  0
 20  5  1  0
  5 22  1  0
  6 12  1  0
 20  6  1  6
 13  7  2  0
  7 14  1  0
  9  8  1  0
  8 14  2  0
  8 24  1  0
 12  9  2  0
 10 17  2  0
 18 10  1  0
 10 25  1  0
 21 11  1  0
 12 13  1  0
 14 23  1  0
 24 15  1  0
 17 16  1  0
 18 19  2  0
 18 21  1  0
M  END
$$$$
