
     RDKit          3D

 25 27  0  0  0  0  0  0  0  0999 V2000
   13.0211   33.1296   -5.4691 C   0  0  0  0  0  0  0  0  0  0  0  0
   13.1087   31.8312   -4.7690 C   0  0  0  0  0  0  0  0  0  0  0  0
   11.7349   31.2322   -4.7408 C   0  0  1  0  0  0  0  0  0  0  0  0
   10.7669   31.8914   -5.6824 C   0  0  0  0  0  0  0  0  0  0  0  0
   10.2481   29.6990   -5.6610 C   0  0  0  0  0  0  0  0  0  0  0  0
   12.1209   28.8692   -4.1967 C   0  0  0  0  0  0  0  0  0  0  0  0
   15.0255   26.8316   -5.3629 C   0  0  0  0  0  0  0  0  0  0  0  0
   15.7678   28.4350   -3.7278 C   0  0  0  0  0  0  0  0  0  0  0  0
   14.5003   28.9188   -3.5880 C   0  0  0  0  0  0  0  0  0  0  0  0
   12.8565   35.5980   -6.7950 C   0  0  0  0  0  0  0  0  0  0  0  0
   13.7954   33.4489   -9.6322 C   0  0  0  0  0  0  0  0  0  0  0  0
   13.4860   28.3588   -4.3380 C   0  0  0  0  0  0  0  0  0  0  0  0
   13.7362   27.3238   -5.2206 C   0  0  0  0  0  0  0  0  0  0  0  0
   16.0378   27.4035   -4.6025 C   0  0  0  0  0  0  0  0  0  0  0  0
   16.6978   30.1514   -2.2350 C   0  0  0  0  0  0  0  0  0  0  0  0
   12.6762   34.2760   -4.7932 C   0  0  0  0  0  0  0  0  0  0  0  0
   12.5933   35.5052   -5.4488 C   0  0  0  0  0  0  0  0  0  0  0  0
   13.2016   34.4569   -7.4768 C   0  0  0  0  0  0  0  0  0  0  0  0
   13.2802   33.2476   -6.8170 C   0  0  0  0  0  0  0  0  0  0  0  0
   11.7205   29.8057   -5.3071 C   0  0  2  0  0  0  0  0  0  0  0  0
   13.4664   34.5461   -8.8280 O   0  0  0  0  0  0  0  0  0  0  0  0
    9.7879   30.9490   -5.9632 O   0  0  0  0  0  0  0  0  0  0  0  0
   17.3443   26.8985   -4.7522 O   0  0  0  0  0  0  0  0  0  0  0  0
   16.8127   28.9721   -2.9915 O   0  0  0  0  0  0  0  0  0  0  0  0
   12.7702   36.8414   -7.4465 O   0  0  0  0  0  0  0  0  0  0  0  0
  1  2  1  0
  1 16  2  0
 19  1  1  0
  3  2  1  6
  3  4  1  0
  3 20  1  0
  4 22  1  0
 20  5  1  0
  5 22  1  0
  6 12  1  0
 20  6  1  1
 13  7  2  0
  7 14  1  0
  9  8  1  0
  8 14  2  0
  8 24  1  0
 12  9  2  0
 10 17  2  0
 18 10  1  0
 10 25  1  0
 21 11  1  0
 12 13  1  0
 14 23  1  0
 24 15  1  0
 17 16  1  0
 18 19  2  0
 18 21  1  0
M  END
$$$$
