
     RDKit          3D

 25 27  0  0  0  0  0  0  0  0999 V2000
   11.4616   32.6840   -6.9479 C   0  0  0  0  0  0  0  0  0  0  0  0
   10.7778   31.3936   -6.7211 C   0  0  0  0  0  0  0  0  0  0  0  0
   11.2410   30.8555   -5.4009 C   0  0  1  0  0  0  0  0  0  0  0  0
   10.1228   30.5538   -4.4435 C   0  0  0  0  0  0  0  0  0  0  0  0
   11.7002   28.9816   -4.1028 C   0  0  0  0  0  0  0  0  0  0  0  0
   13.2957   29.6247   -5.9415 C   0  0  0  0  0  0  0  0  0  0  0  0
   14.8052   26.3702   -4.9034 C   0  0  0  0  0  0  0  0  0  0  0  0
   16.0667   28.1862   -3.9515 C   0  0  0  0  0  0  0  0  0  0  0  0
   15.2408   29.1010   -4.5357 C   0  0  0  0  0  0  0  0  0  0  0  0
   12.7603   35.1354   -7.3740 C   0  0  0  0  0  0  0  0  0  0  0  0
   14.4255   33.1153   -9.9598 C   0  0  0  0  0  0  0  0  0  0  0  0
   14.1895   28.6525   -5.3092 C   0  0  0  0  0  0  0  0  0  0  0  0
   13.9652   27.3008   -5.4975 C   0  0  0  0  0  0  0  0  0  0  0  0
   15.8598   26.8340   -4.1271 C   0  0  0  0  0  0  0  0  0  0  0  0
   17.4720   29.9491   -2.9734 C   0  0  0  0  0  0  0  0  0  0  0  0
   11.1825   33.7796   -6.1659 C   0  0  0  0  0  0  0  0  0  0  0  0
   11.8260   35.0003   -6.3745 C   0  0  0  0  0  0  0  0  0  0  0  0
   13.0443   34.0451   -8.1593 C   0  0  0  0  0  0  0  0  0  0  0  0
   12.4010   32.8438   -7.9428 C   0  0  0  0  0  0  0  0  0  0  0  0
   11.8542   29.4551   -5.5368 C   0  0  2  0  0  0  0  0  0  0  0  0
   13.9813   34.1770   -9.1634 O   0  0  0  0  0  0  0  0  0  0  0  0
   10.6066   29.5967   -3.5630 O   0  0  0  0  0  0  0  0  0  0  0  0
   16.7085   25.8834   -3.5268 O   0  0  0  0  0  0  0  0  0  0  0  0
   17.1334   28.5986   -3.1675 O   0  0  0  0  0  0  0  0  0  0  0  0
   13.4033   36.3698   -7.5762 O   0  0  0  0  0  0  0  0  0  0  0  0
  1  2  1  0
  1 16  2  0
 19  1  1  0
  3  2  1  6
  3  4  1  0
  3 20  1  0
  4 22  1  0
 20  5  1  0
  5 22  1  0
  6 12  1  0
 20  6  1  1
 13  7  2  0
  7 14  1  0
  9  8  1  0
  8 14  2  0
  8 24  1  0
 12  9  2  0
 10 17  2  0
 18 10  1  0
 10 25  1  0
 21 11  1  0
 12 13  1  0
 14 23  1  0
 24 15  1  0
 17 16  1  0
 18 19  2  0
 18 21  1  0
M  END
$$$$
