
     RDKit          3D

 25 27  0  0  0  0  0  0  0  0999 V2000
   11.1783   32.8733   -4.8110 C   0  0  0  0  0  0  0  0  0  0  0  0
   11.3331   31.5271   -4.2213 C   0  0  0  0  0  0  0  0  0  0  0  0
   11.4465   30.5439   -5.3471 C   0  0  1  0  0  0  0  0  0  0  0  0
   11.6329   31.1837   -6.6940 C   0  0  0  0  0  0  0  0  0  0  0  0
   12.8447   29.2844   -6.7133 C   0  0  0  0  0  0  0  0  0  0  0  0
   12.4975   28.5758   -4.3222 C   0  0  0  0  0  0  0  0  0  0  0  0
   14.9590   25.7744   -4.1177 C   0  0  0  0  0  0  0  0  0  0  0  0
   15.8600   27.7229   -3.0282 C   0  0  0  0  0  0  0  0  0  0  0  0
   14.7339   28.4368   -3.3156 C   0  0  0  0  0  0  0  0  0  0  0  0
   10.8810   35.4311   -5.9277 C   0  0  0  0  0  0  0  0  0  0  0  0
   14.4951   34.9616   -6.4454 C   0  0  0  0  0  0  0  0  0  0  0  0
   13.7116   27.8201   -4.0079 C   0  0  0  0  0  0  0  0  0  0  0  0
   13.8137   26.5007   -4.4099 C   0  0  0  0  0  0  0  0  0  0  0  0
   15.9810   26.4062   -3.4204 C   0  0  0  0  0  0  0  0  0  0  0  0
   16.8928   29.6437   -1.8952 C   0  0  0  0  0  0  0  0  0  0  0  0
    9.9496   33.4879   -4.8582 C   0  0  0  0  0  0  0  0  0  0  0  0
    9.7975   34.7597   -5.4126 C   0  0  0  0  0  0  0  0  0  0  0  0
   12.1118   34.8233   -5.8840 C   0  0  0  0  0  0  0  0  0  0  0  0
   12.2488   33.5656   -5.3331 C   0  0  0  0  0  0  0  0  0  0  0  0
   12.7424   29.7258   -5.2644 C   0  0  2  0  0  0  0  0  0  0  0  0
   13.2015   35.4940   -6.4000 O   0  0  0  0  0  0  0  0  0  0  0  0
   12.2583   30.2388   -7.4949 O   0  0  0  0  0  0  0  0  0  0  0  0
   17.1409   25.6626   -3.1271 O   0  0  0  0  0  0  0  0  0  0  0  0
   16.9081   28.3083   -2.3345 O   0  0  0  0  0  0  0  0  0  0  0  0
   10.7175   36.7124   -6.4842 O   0  0  0  0  0  0  0  0  0  0  0  0
  1  2  1  0
  1 16  2  0
 19  1  1  0
  3  2  1  1
  3  4  1  0
  3 20  1  0
  4 22  1  0
 20  5  1  0
  5 22  1  0
  6 12  1  0
 20  6  1  1
 13  7  2  0
  7 14  1  0
  9  8  1  0
  8 14  2  0
  8 24  1  0
 12  9  2  0
 10 17  2  0
 18 10  1  0
 10 25  1  0
 21 11  1  0
 12 13  1  0
 14 23  1  0
 24 15  1  0
 17 16  1  0
 18 19  2  0
 18 21  1  0
M  END
$$$$
