
     RDKit          3D

 25 27  0  0  0  0  0  0  0  0999 V2000
   12.0935   32.6254   -5.1270 C   0  0  0  0  0  0  0  0  0  0  0  0
   12.7191   31.4800   -4.4337 C   0  0  0  0  0  0  0  0  0  0  0  0
   11.9296   30.2520   -4.7735 C   0  0  1  0  0  0  0  0  0  0  0  0
   11.3297   30.2791   -6.1510 C   0  0  0  0  0  0  0  0  0  0  0  0
   11.9156   28.1411   -5.7489 C   0  0  0  0  0  0  0  0  0  0  0  0
   13.0402   28.4576   -3.5184 C   0  0  0  0  0  0  0  0  0  0  0  0
   16.6618   27.6613   -3.0727 C   0  0  0  0  0  0  0  0  0  0  0  0
   15.4131   25.6209   -3.3424 C   0  0  0  0  0  0  0  0  0  0  0  0
   14.2477   26.3191   -3.4636 C   0  0  0  0  0  0  0  0  0  0  0  0
   10.9034   34.8022   -6.4396 C   0  0  0  0  0  0  0  0  0  0  0  0
   14.1228   34.7081   -8.2217 C   0  0  0  0  0  0  0  0  0  0  0  0
   14.2846   27.6967   -3.3895 C   0  0  0  0  0  0  0  0  0  0  0  0
   15.4763   28.3713   -3.1959 C   0  0  0  0  0  0  0  0  0  0  0  0
   16.6117   26.2751   -3.1489 C   0  0  0  0  0  0  0  0  0  0  0  0
   14.2682   23.4749   -3.6940 C   0  0  0  0  0  0  0  0  0  0  0  0
   10.8271   33.0463   -4.7971 C   0  0  0  0  0  0  0  0  0  0  0  0
   10.2317   34.1282   -5.4473 C   0  0  0  0  0  0  0  0  0  0  0  0
   12.1690   34.3875   -6.7746 C   0  0  0  0  0  0  0  0  0  0  0  0
   12.7465   33.3163   -6.1241 C   0  0  0  0  0  0  0  0  0  0  0  0
   12.8258   29.0127   -4.9027 C   0  0  2  0  0  0  0  0  0  0  0  0
   12.8461   35.0614   -7.7701 O   0  0  0  0  0  0  0  0  0  0  0  0
   11.1395   28.9559   -6.5231 O   0  0  0  0  0  0  0  0  0  0  0  0
   17.8193   25.5608   -3.0230 O   0  0  0  0  0  0  0  0  0  0  0  0
   15.4159   24.2361   -3.4114 O   0  0  0  0  0  0  0  0  0  0  0  0
   10.2948   35.8913   -7.0890 O   0  0  0  0  0  0  0  0  0  0  0  0
  1  2  1  0
  1 16  2  0
 19  1  1  0
  3  2  1  6
  3  4  1  0
  3 20  1  0
  4 22  1  0
 20  5  1  0
  5 22  1  0
  6 12  1  0
 20  6  1  1
 13  7  2  0
  7 14  1  0
  9  8  1  0
  8 14  2  0
  8 24  1  0
 12  9  2  0
 10 17  2  0
 18 10  1  0
 10 25  1  0
 21 11  1  0
 12 13  1  0
 14 23  1  0
 24 15  1  0
 17 16  1  0
 18 19  2  0
 18 21  1  0
M  END
$$$$
