
     RDKit          3D

 25 27  0  0  0  0  0  0  0  0999 V2000
   13.4502   25.4214   -4.6985 C   0  0  0  0  0  0  0  0  0  0  0  0
   12.6754   26.5069   -5.3351 C   0  0  0  0  0  0  0  0  0  0  0  0
   13.3115   27.8091   -4.9524 C   0  0  1  0  0  0  0  0  0  0  0  0
   14.6858   27.6621   -4.3627 C   0  0  0  0  0  0  0  0  0  0  0  0
   14.7072   29.5631   -5.5717 C   0  0  0  0  0  0  0  0  0  0  0  0
   12.3972   29.4206   -6.5636 C   0  0  0  0  0  0  0  0  0  0  0  0
   13.7866   32.8179   -5.8739 C   0  0  0  0  0  0  0  0  0  0  0  0
   11.3832   32.8885   -5.7552 C   0  0  0  0  0  0  0  0  0  0  0  0
   11.3035   31.5582   -6.0453 C   0  0  0  0  0  0  0  0  0  0  0  0
   14.9183   23.3593   -3.4859 C   0  0  0  0  0  0  0  0  0  0  0  0
   15.5412   22.5466   -7.0216 C   0  0  0  0  0  0  0  0  0  0  0  0
   12.4695   30.8494   -6.2518 C   0  0  0  0  0  0  0  0  0  0  0  0
   13.7053   31.4648   -6.1690 C   0  0  0  0  0  0  0  0  0  0  0  0
   12.6059   33.5205   -5.6682 C   0  0  0  0  0  0  0  0  0  0  0  0
    8.9523   33.0644   -5.4402 C   0  0  0  0  0  0  0  0  0  0  0  0
   13.5061   25.3006   -3.3302 C   0  0  0  0  0  0  0  0  0  0  0  0
   14.2349   24.2767   -2.7234 C   0  0  0  0  0  0  0  0  0  0  0  0
   14.8670   23.4737   -4.8536 C   0  0  0  0  0  0  0  0  0  0  0  0
   14.1428   24.4905   -5.4413 C   0  0  0  0  0  0  0  0  0  0  0  0
   13.6444   28.6666   -6.1811 C   0  0  2  0  0  0  0  0  0  0  0  0
   15.5517   22.5548   -5.6221 O   0  0  0  0  0  0  0  0  0  0  0  0
   15.3378   28.8676   -4.5797 O   0  0  0  0  0  0  0  0  0  0  0  0
   12.6961   34.8941   -5.3689 O   0  0  0  0  0  0  0  0  0  0  0  0
   10.2337   33.6337   -5.5415 O   0  0  0  0  0  0  0  0  0  0  0  0
   15.6499   22.3311   -2.8649 O   0  0  0  0  0  0  0  0  0  0  0  0
  1  2  1  0
  1 16  2  0
 19  1  1  0
  3  2  1  6
  3  4  1  0
  3 20  1  0
  4 22  1  0
 20  5  1  0
  5 22  1  0
  6 12  1  0
 20  6  1  1
 13  7  2  0
  7 14  1  0
  9  8  1  0
  8 14  2  0
  8 24  1  0
 12  9  2  0
 10 17  2  0
 18 10  1  0
 10 25  1  0
 21 11  1  0
 12 13  1  0
 14 23  1  0
 24 15  1  0
 17 16  1  0
 18 19  2  0
 18 21  1  0
M  END
$$$$
