
     RDKit          3D

 25 27  0  0  0  0  0  0  0  0999 V2000
   13.5541   28.7714   -3.3655 C   0  0  0  0  0  0  0  0  0  0  0  0
   12.1737   29.2854   -3.2467 C   0  0  0  0  0  0  0  0  0  0  0  0
   11.7398   29.7511   -4.6038 C   0  0  1  0  0  0  0  0  0  0  0  0
   10.3382   29.3463   -4.9640 C   0  0  0  0  0  0  0  0  0  0  0  0
   10.6670   31.3861   -5.8623 C   0  0  0  0  0  0  0  0  0  0  0  0
   12.9607   31.8555   -4.9354 C   0  0  0  0  0  0  0  0  0  0  0  0
   12.7893   35.0006   -6.9421 C   0  0  0  0  0  0  0  0  0  0  0  0
   12.9668   35.5430   -4.6034 C   0  0  0  0  0  0  0  0  0  0  0  0
   12.9992   34.2203   -4.2720 C   0  0  0  0  0  0  0  0  0  0  0  0
   16.1776   27.7993   -3.5888 C   0  0  0  0  0  0  0  0  0  0  0  0
   14.3909   24.6138   -3.1365 C   0  0  0  0  0  0  0  0  0  0  0  0
   12.9265   33.2786   -5.2782 C   0  0  0  0  0  0  0  0  0  0  0  0
   12.8223   33.6553   -6.6049 C   0  0  0  0  0  0  0  0  0  0  0  0
   12.8632   35.9390   -5.9204 C   0  0  0  0  0  0  0  0  0  0  0  0
   13.0923   36.2264   -2.2461 C   0  0  0  0  0  0  0  0  0  0  0  0
   14.6107   29.6246   -3.5793 C   0  0  0  0  0  0  0  0  0  0  0  0
   15.9166   29.1452   -3.6909 C   0  0  0  0  0  0  0  0  0  0  0  0
   15.1270   26.9409   -3.3753 C   0  0  0  0  0  0  0  0  0  0  0  0
   13.8404   27.4275   -3.2668 C   0  0  0  0  0  0  0  0  0  0  0  0
   11.5953   31.2779   -4.6661 C   0  0  2  0  0  0  0  0  0  0  0  0
   15.3851   25.5894   -3.2724 O   0  0  0  0  0  0  0  0  0  0  0  0
    9.8960   30.2597   -5.9104 O   0  0  0  0  0  0  0  0  0  0  0  0
   12.8293   37.3031   -6.2702 O   0  0  0  0  0  0  0  0  0  0  0  0
   13.0374   36.5181   -3.6202 O   0  0  0  0  0  0  0  0  0  0  0  0
   17.4972   27.3261   -3.7027 O   0  0  0  0  0  0  0  0  0  0  0  0
  1  2  1  0
  1 16  2  0
 19  1  1  0
  3  2  1  1
  3  4  1  0
  3 20  1  0
  4 22  1  0
 20  5  1  0
  5 22  1  0
  6 12  1  0
 20  6  1  6
 13  7  2  0
  7 14  1  0
  9  8  1  0
  8 14  2  0
  8 24  1  0
 12  9  2  0
 10 17  2  0
 18 10  1  0
 10 25  1  0
 21 11  1  0
 12 13  1  0
 14 23  1  0
 24 15  1  0
 17 16  1  0
 18 19  2  0
 18 21  1  0
M  END
$$$$
