
     RDKit          3D

 26 28  0  0  0  0  0  0  0  0999 V2000
   21.5406   38.8088   -7.2659 C   0  0  0  0  0  0  0  0  0  0  0  0
   21.1577   38.4918   -8.5498 C   0  0  0  0  0  0  0  0  0  0  0  0
   19.8238   38.4990   -8.9000 C   0  0  0  0  0  0  0  0  0  0  0  0
   18.8760   38.8240   -7.9605 C   0  0  0  0  0  0  0  0  0  0  0  0
   19.2878   39.1386   -6.6775 C   0  0  0  0  0  0  0  0  0  0  0  0
   17.4262   38.8149   -8.3616 C   0  0  2  0  0  0  0  0  0  0  0  0
   17.1677   37.3403   -8.7697 C   0  0  0  0  0  0  0  0  0  0  0  0
   14.5050   39.6009   -6.2479 N   0  0  0  0  0  0  0  0  0  0  0  0
   21.0249   39.4618   -4.9894 N   0  0  0  0  0  0  0  0  0  0  0  0
   15.4799   39.8426   -7.0839 C   0  0  0  0  0  0  0  0  0  0  0  0
   20.5256   41.1320   -2.6920 N   0  0  0  0  0  0  0  0  0  0  0  0
   16.6922   41.0177   -9.4149 C   0  0  0  0  0  0  0  0  0  0  0  0
   17.1313   39.6139   -9.5604 C   0  0  0  0  0  0  0  0  0  0  0  0
   21.7422   40.6647   -4.7537 C   0  0  0  0  0  0  0  0  0  0  0  0
   21.5373   41.4321   -3.5214 C   0  0  0  0  0  0  0  0  0  0  0  0
   20.3113   41.8234   -1.5459 C   0  0  0  0  0  0  0  0  0  0  0  0
   21.1218   42.8790   -1.1626 C   0  0  0  0  0  0  0  0  0  0  0  0
   22.1675   43.2008   -2.0047 C   0  0  0  0  0  0  0  0  0  0  0  0
   19.4424   38.1904  -10.1848 F   0  0  0  0  0  0  0  0  0  0  0  0
   15.4544   41.2973   -8.1228 S   0  0  0  0  0  0  0  0  0  0  0  0
   16.5903   38.9885   -7.2162 N   0  0  0  0  0  0  0  0  0  0  0  0
   20.6083   39.1390   -6.3040 C   0  0  0  0  0  0  0  0  0  0  0  0
   22.5495   41.0324   -5.6424 O   0  0  0  0  0  0  0  0  0  0  0  0
   22.3629   42.4761   -3.1709 C   0  0  0  0  0  0  0  0  0  0  0  0
   20.8540   43.7791    0.3160 Cl  0  0  0  0  0  0  0  0  0  0  0  0
   14.6826   39.8368   -5.2504 H   0  0  0  0  0  0  0  0  0  0  0  0
  1  2  2  0
 22  1  1  0
  2  3  1  0
  4  3  2  0
  3 19  1  0
  5  4  1  0
  4  6  1  0
 22  5  2  0
  6  7  1  6
  6 13  1  0
  6 21  1  0
 10  8  2  0
 14  9  1  0
  9 22  1  0
 10 20  1  0
 21 10  1  0
 15 11  2  0
 11 16  1  0
 13 12  1  0
 12 20  1  0
 14 15  1  0
 14 23  2  0
 15 24  1  0
 16 17  2  0
 17 18  1  0
 17 25  1  0
 18 24  2  0
  8 26  1  0
M  END
$$$$
