
     RDKit          3D

 26 28  0  0  0  0  0  0  0  0999 V2000
   21.8986   39.6401   -7.5650 C   0  0  0  0  0  0  0  0  0  0  0  0
   21.5236   38.6569   -8.4528 C   0  0  0  0  0  0  0  0  0  0  0  0
   20.1893   38.4330   -8.7204 C   0  0  0  0  0  0  0  0  0  0  0  0
   19.2333   39.1963   -8.0960 C   0  0  0  0  0  0  0  0  0  0  0  0
   19.6372   40.1779   -7.2083 C   0  0  0  0  0  0  0  0  0  0  0  0
   17.7836   38.9276   -8.3947 C   0  0  2  0  0  0  0  0  0  0  0  0
   17.7252   37.3872   -8.5731 C   0  0  0  0  0  0  0  0  0  0  0  0
   14.8783   39.6084   -6.2234 N   0  0  0  0  0  0  0  0  0  0  0  0
   21.3665   41.4266   -6.0157 N   0  0  0  0  0  0  0  0  0  0  0  0
   15.7682   39.8553   -7.1480 C   0  0  0  0  0  0  0  0  0  0  0  0
   20.6312   41.5044   -2.9149 N   0  0  0  0  0  0  0  0  0  0  0  0
   16.6881   40.8264   -9.6965 C   0  0  0  0  0  0  0  0  0  0  0  0
   17.3207   39.4907   -9.6717 C   0  0  0  0  0  0  0  0  0  0  0  0
   22.0692   41.0653   -4.8356 C   0  0  0  0  0  0  0  0  0  0  0  0
   21.7865   41.7303   -3.5599 C   0  0  0  0  0  0  0  0  0  0  0  0
   20.3420   42.1044   -1.7344 C   0  0  0  0  0  0  0  0  0  0  0  0
   21.2195   42.9851   -1.1239 C   0  0  0  0  0  0  0  0  0  0  0  0
   22.4127   43.2286   -1.7743 C   0  0  0  0  0  0  0  0  0  0  0  0
   19.8155   37.4562   -9.6136 F   0  0  0  0  0  0  0  0  0  0  0  0
   15.4829   41.1216   -8.3773 S   0  0  0  0  0  0  0  0  0  0  0  0
   16.9844   39.1526   -7.2322 N   0  0  0  0  0  0  0  0  0  0  0  0
   20.9578   40.4205   -6.9252 C   0  0  0  0  0  0  0  0  0  0  0  0
   22.9330   40.1598   -4.9391 O   0  0  0  0  0  0  0  0  0  0  0  0
   22.6820   42.6005   -2.9811 C   0  0  0  0  0  0  0  0  0  0  0  0
   20.8559   43.7660    0.4013 Cl  0  0  0  0  0  0  0  0  0  0  0  0
   14.9568   40.1629   -5.3467 H   0  0  0  0  0  0  0  0  0  0  0  0
  1  2  2  0
 22  1  1  0
  2  3  1  0
  4  3  2  0
  3 19  1  0
  5  4  1  0
  4  6  1  0
 22  5  2  0
  6  7  1  6
  6 13  1  0
  6 21  1  0
 10  8  2  0
 14  9  1  0
  9 22  1  0
 10 20  1  0
 21 10  1  0
 15 11  2  0
 11 16  1  0
 13 12  1  0
 12 20  1  0
 14 15  1  0
 14 23  2  0
 15 24  1  0
 16 17  2  0
 17 18  1  0
 17 25  1  0
 18 24  2  0
  8 26  1  0
M  END
$$$$
