
     RDKit          3D

 26 28  0  0  0  0  0  0  0  0999 V2000
   21.8999   38.8841   -7.4346 C   0  0  0  0  0  0  0  0  0  0  0  0
   21.4839   38.4947   -8.6880 C   0  0  0  0  0  0  0  0  0  0  0  0
   20.1401   38.4632   -8.9966 C   0  0  0  0  0  0  0  0  0  0  0  0
   19.2157   38.8224   -8.0463 C   0  0  0  0  0  0  0  0  0  0  0  0
   19.6605   39.2099   -6.7947 C   0  0  0  0  0  0  0  0  0  0  0  0
   17.7549   38.7703   -8.4015 C   0  0  2  0  0  0  0  0  0  0  0  0
   17.5289   37.2902   -8.8090 C   0  0  0  0  0  0  0  0  0  0  0  0
   14.8796   39.4566   -6.1923 N   0  0  0  0  0  0  0  0  0  0  0  0
   21.4420   39.6473   -5.1801 N   0  0  0  0  0  0  0  0  0  0  0  0
   15.8194   39.7319   -7.0574 C   0  0  0  0  0  0  0  0  0  0  0  0
   20.7197   41.4435   -3.0075 N   0  0  0  0  0  0  0  0  0  0  0  0
   16.9205   40.9539   -9.4194 C   0  0  0  0  0  0  0  0  0  0  0  0
   17.3976   39.5649   -9.5861 C   0  0  0  0  0  0  0  0  0  0  0  0
   22.0229   40.9314   -5.0047 C   0  0  0  0  0  0  0  0  0  0  0  0
   21.7870   41.7014   -3.7796 C   0  0  0  0  0  0  0  0  0  0  0  0
   20.4756   42.1384   -1.8696 C   0  0  0  0  0  0  0  0  0  0  0  0
   21.3110   43.1544   -1.4360 C   0  0  0  0  0  0  0  0  0  0  0  0
   22.4138   43.4325   -2.2189 C   0  0  0  0  0  0  0  0  0  0  0  0
   19.7255   38.0821  -10.2514 F   0  0  0  0  0  0  0  0  0  0  0  0
   15.7163   41.1896   -8.0873 S   0  0  0  0  0  0  0  0  0  0  0  0
   16.9508   38.9131   -7.2293 N   0  0  0  0  0  0  0  0  0  0  0  0
   20.9915   39.2499   -6.4628 C   0  0  0  0  0  0  0  0  0  0  0  0
   22.7389   41.3675   -5.9396 O   0  0  0  0  0  0  0  0  0  0  0  0
   22.6386   42.7052   -3.3781 C   0  0  0  0  0  0  0  0  0  0  0  0
   21.0051   44.0586    0.0326 Cl  0  0  0  0  0  0  0  0  0  0  0  0
   14.0806   40.1215   -6.1507 H   0  0  0  0  0  0  0  0  0  0  0  0
  1  2  2  0
 22  1  1  0
  2  3  1  0
  4  3  2  0
  3 19  1  0
  5  4  1  0
  4  6  1  0
 22  5  2  0
  6  7  1  6
  6 13  1  0
  6 21  1  0
 10  8  2  0
 14  9  1  0
  9 22  1  0
 10 20  1  0
 21 10  1  0
 15 11  2  0
 11 16  1  0
 13 12  1  0
 12 20  1  0
 14 15  1  0
 14 23  2  0
 15 24  1  0
 16 17  2  0
 17 18  1  0
 17 25  1  0
 18 24  2  0
  8 26  1  0
M  END
$$$$
