
     RDKit          3D

 26 28  0  0  0  0  0  0  0  0999 V2000
   21.5309   39.7769   -7.3704 C   0  0  0  0  0  0  0  0  0  0  0  0
   21.2613   38.8451   -8.3475 C   0  0  0  0  0  0  0  0  0  0  0  0
   19.9574   38.5292   -8.6670 C   0  0  0  0  0  0  0  0  0  0  0  0
   18.9259   39.1490   -8.0049 C   0  0  0  0  0  0  0  0  0  0  0  0
   19.2244   40.0817   -7.0274 C   0  0  0  0  0  0  0  0  0  0  0  0
   17.5117   38.7812   -8.3622 C   0  0  2  0  0  0  0  0  0  0  0  0
   17.5331   37.2300   -8.3948 C   0  0  0  0  0  0  0  0  0  0  0  0
   14.4459   39.5149   -6.4434 N   0  0  0  0  0  0  0  0  0  0  0  0
   20.8134   41.3690   -5.6896 N   0  0  0  0  0  0  0  0  0  0  0  0
   15.3814   39.7188   -7.3328 C   0  0  0  0  0  0  0  0  0  0  0  0
   20.6985   41.6513   -2.6921 N   0  0  0  0  0  0  0  0  0  0  0  0
   16.4188   40.4930   -9.9036 C   0  0  0  0  0  0  0  0  0  0  0  0
   17.1070   39.1989   -9.7128 C   0  0  0  0  0  0  0  0  0  0  0  0
   21.8631   41.1154   -4.7672 C   0  0  0  0  0  0  0  0  0  0  0  0
   21.8286   41.6826   -3.4156 C   0  0  0  0  0  0  0  0  0  0  0  0
   20.6363   42.1675   -1.4403 C   0  0  0  0  0  0  0  0  0  0  0  0
   21.7329   42.7573   -0.8338 C   0  0  0  0  0  0  0  0  0  0  0  0
   22.9036   42.7978   -1.5646 C   0  0  0  0  0  0  0  0  0  0  0  0
   19.6886   37.6045   -9.6490 F   0  0  0  0  0  0  0  0  0  0  0  0
   15.1196   40.8491   -8.6930 S   0  0  0  0  0  0  0  0  0  0  0  0
   16.6304   39.0733   -7.2764 N   0  0  0  0  0  0  0  0  0  0  0  0
   20.5128   40.4136   -6.6911 C   0  0  0  0  0  0  0  0  0  0  0  0
   22.8091   40.3906   -5.1628 O   0  0  0  0  0  0  0  0  0  0  0  0
   22.9382   42.2617   -2.8432 C   0  0  0  0  0  0  0  0  0  0  0  0
   21.6636   43.4274    0.7830 Cl  0  0  0  0  0  0  0  0  0  0  0  0
   14.1665   38.5254   -6.2852 H   0  0  0  0  0  0  0  0  0  0  0  0
  1  2  2  0
 22  1  1  0
  2  3  1  0
  4  3  2  0
  3 19  1  0
  5  4  1  0
  4  6  1  0
 22  5  2  0
  6  7  1  6
  6 13  1  0
  6 21  1  0
 10  8  2  0
 14  9  1  0
  9 22  1  0
 10 20  1  0
 21 10  1  0
 15 11  2  0
 11 16  1  0
 13 12  1  0
 12 20  1  0
 14 15  1  0
 14 23  2  0
 15 24  1  0
 16 17  2  0
 17 18  1  0
 17 25  1  0
 18 24  2  0
  8 26  1  0
M  END
$$$$
