
     RDKit          3D

 26 28  0  0  0  0  0  0  0  0999 V2000
   21.3186   39.3404   -6.7994 C   0  0  0  0  0  0  0  0  0  0  0  0
   21.1770   38.7869   -8.0520 C   0  0  0  0  0  0  0  0  0  0  0  0
   19.9213   38.5761   -8.5818 C   0  0  0  0  0  0  0  0  0  0  0  0
   18.8093   38.9211   -7.8530 C   0  0  0  0  0  0  0  0  0  0  0  0
   18.9796   39.4758   -6.5969 C   0  0  0  0  0  0  0  0  0  0  0  0
   17.4494   38.6723   -8.4461 C   0  0  2  0  0  0  0  0  0  0  0  0
   17.5136   37.1907   -8.9025 C   0  0  0  0  0  0  0  0  0  0  0  0
   14.1842   38.8590   -6.7365 N   0  0  0  0  0  0  0  0  0  0  0  0
   20.3870   40.2640   -4.7612 N   0  0  0  0  0  0  0  0  0  0  0  0
   15.2010   39.2972   -7.4305 C   0  0  0  0  0  0  0  0  0  0  0  0
   22.7754   42.5155   -3.0381 N   0  0  0  0  0  0  0  0  0  0  0  0
   16.4782   40.7484   -9.5630 C   0  0  0  0  0  0  0  0  0  0  0  0
   17.1758   39.4492   -9.6643 C   0  0  0  0  0  0  0  0  0  0  0  0
   21.6289   40.8580   -4.4120 C   0  0  0  0  0  0  0  0  0  0  0  0
   21.7666   41.6417   -3.1806 C   0  0  0  0  0  0  0  0  0  0  0  0
   22.9285   43.2537   -1.9117 C   0  0  0  0  0  0  0  0  0  0  0  0
   22.0547   43.1511   -0.8420 C   0  0  0  0  0  0  0  0  0  0  0  0
   21.0111   42.2566   -0.9723 C   0  0  0  0  0  0  0  0  0  0  0  0
   19.7805   38.0307   -9.8365 F   0  0  0  0  0  0  0  0  0  0  0  0
   15.0524   40.7608   -8.4464 S   0  0  0  0  0  0  0  0  0  0  0  0
   16.4535   38.6561   -7.4219 N   0  0  0  0  0  0  0  0  0  0  0  0
   20.2177   39.6958   -6.0476 C   0  0  0  0  0  0  0  0  0  0  0  0
   22.5896   40.6801   -5.2007 O   0  0  0  0  0  0  0  0  0  0  0  0
   20.8791   41.5143   -2.1363 C   0  0  0  0  0  0  0  0  0  0  0  0
   22.2430   44.1001    0.6181 Cl  0  0  0  0  0  0  0  0  0  0  0  0
   13.9789   39.3622   -5.8494 H   0  0  0  0  0  0  0  0  0  0  0  0
  1  2  2  0
 22  1  1  0
  2  3  1  0
  4  3  2  0
  3 19  1  0
  5  4  1  0
  4  6  1  0
 22  5  2  0
  6  7  1  6
  6 13  1  0
  6 21  1  0
 10  8  2  0
 14  9  1  0
  9 22  1  0
 10 20  1  0
 21 10  1  0
 15 11  2  0
 11 16  1  0
 13 12  1  0
 12 20  1  0
 14 15  1  0
 14 23  2  0
 15 24  1  0
 16 17  2  0
 17 18  1  0
 17 25  1  0
 18 24  2  0
  8 26  1  0
M  END
$$$$
