
     RDKit          3D

 26 28  0  0  0  0  0  0  0  0999 V2000
   21.2896   39.7514   -7.2554 C   0  0  0  0  0  0  0  0  0  0  0  0
   21.1682   39.0583   -8.4389 C   0  0  0  0  0  0  0  0  0  0  0  0
   19.9216   38.7987   -8.9685 C   0  0  0  0  0  0  0  0  0  0  0  0
   18.7985   39.2349   -8.3091 C   0  0  0  0  0  0  0  0  0  0  0  0
   18.9485   39.9293   -7.1218 C   0  0  0  0  0  0  0  0  0  0  0  0
   17.4487   38.9312   -8.8996 C   0  0  2  0  0  0  0  0  0  0  0  0
   17.5197   37.4137   -9.2161 C   0  0  0  0  0  0  0  0  0  0  0  0
   14.1551   39.2716   -7.2700 N   0  0  0  0  0  0  0  0  0  0  0  0
   20.3256   40.9117   -5.3582 N   0  0  0  0  0  0  0  0  0  0  0  0
   15.1837   39.6449   -7.9843 C   0  0  0  0  0  0  0  0  0  0  0  0
   20.8612   41.8646   -2.6408 N   0  0  0  0  0  0  0  0  0  0  0  0
   16.4978   40.8943  -10.2196 C   0  0  0  0  0  0  0  0  0  0  0  0
   17.1962   39.5920  -10.1887 C   0  0  0  0  0  0  0  0  0  0  0  0
   21.6259   41.1781   -4.8528 C   0  0  0  0  0  0  0  0  0  0  0  0
   21.8074   41.9038   -3.5919 C   0  0  0  0  0  0  0  0  0  0  0  0
   21.0009   42.5252   -1.4654 C   0  0  0  0  0  0  0  0  0  0  0  0
   22.1263   43.2788   -1.1758 C   0  0  0  0  0  0  0  0  0  0  0  0
   23.1094   43.3297   -2.1438 C   0  0  0  0  0  0  0  0  0  0  0  0
   19.8013   38.1136  -10.1550 F   0  0  0  0  0  0  0  0  0  0  0  0
   15.0532   41.0084   -9.1332 S   0  0  0  0  0  0  0  0  0  0  0  0
   16.4356   39.0086   -7.8953 N   0  0  0  0  0  0  0  0  0  0  0  0
   20.1771   40.2005   -6.5741 C   0  0  0  0  0  0  0  0  0  0  0  0
   22.5986   40.7659   -5.5317 O   0  0  0  0  0  0  0  0  0  0  0  0
   22.9395   42.6438   -3.3371 C   0  0  0  0  0  0  0  0  0  0  0  0
   22.3171   44.1363    0.3396 Cl  0  0  0  0  0  0  0  0  0  0  0  0
   13.9315   39.8579   -6.4403 H   0  0  0  0  0  0  0  0  0  0  0  0
  1  2  2  0
 22  1  1  0
  2  3  1  0
  4  3  2  0
  3 19  1  0
  5  4  1  0
  4  6  1  0
 22  5  2  0
  6  7  1  6
  6 13  1  0
  6 21  1  0
 10  8  2  0
 14  9  1  0
  9 22  1  0
 10 20  1  0
 21 10  1  0
 15 11  2  0
 11 16  1  0
 13 12  1  0
 12 20  1  0
 14 15  1  0
 14 23  2  0
 15 24  1  0
 16 17  2  0
 17 18  1  0
 17 25  1  0
 18 24  2  0
  8 26  1  0
M  END
$$$$
