
     RDKit          3D

 26 28  0  0  0  0  0  0  0  0999 V2000
   21.5711   39.0822   -7.2927 C   0  0  0  0  0  0  0  0  0  0  0  0
   21.2321   38.7729   -8.5908 C   0  0  0  0  0  0  0  0  0  0  0  0
   19.9093   38.7621   -8.9807 C   0  0  0  0  0  0  0  0  0  0  0  0
   18.9286   39.0615   -8.0668 C   0  0  0  0  0  0  0  0  0  0  0  0
   19.2966   39.3689   -6.7689 C   0  0  0  0  0  0  0  0  0  0  0  0
   17.4918   39.0332   -8.5115 C   0  0  2  0  0  0  0  0  0  0  0  0
   17.2757   37.5637   -8.9608 C   0  0  0  0  0  0  0  0  0  0  0  0
   14.4939   39.7113   -6.4690 N   0  0  0  0  0  0  0  0  0  0  0  0
   20.9769   39.7021   -5.0261 N   0  0  0  0  0  0  0  0  0  0  0  0
   15.4878   39.9918   -7.2696 C   0  0  0  0  0  0  0  0  0  0  0  0
   20.4721   41.4132   -2.7617 N   0  0  0  0  0  0  0  0  0  0  0  0
   16.7443   41.2451   -9.5357 C   0  0  0  0  0  0  0  0  0  0  0  0
   17.2161   39.8540   -9.7000 C   0  0  0  0  0  0  0  0  0  0  0  0
   21.7472   40.8671   -4.7680 C   0  0  0  0  0  0  0  0  0  0  0  0
   21.5274   41.6590   -3.5539 C   0  0  0  0  0  0  0  0  0  0  0  0
   20.2429   42.1285   -1.6334 C   0  0  0  0  0  0  0  0  0  0  0  0
   21.0823   43.1539   -1.2307 C   0  0  0  0  0  0  0  0  0  0  0  0
   22.1729   43.4198   -2.0346 C   0  0  0  0  0  0  0  0  0  0  0  0
   19.5716   38.4612  -10.2796 F   0  0  0  0  0  0  0  0  0  0  0  0
   15.4633   41.4698   -8.2753 S   0  0  0  0  0  0  0  0  0  0  0  0
   16.6189   39.1633   -7.3880 N   0  0  0  0  0  0  0  0  0  0  0  0
   20.6051   39.3868   -6.3560 C   0  0  0  0  0  0  0  0  0  0  0  0
   22.6141   41.1798   -5.6209 O   0  0  0  0  0  0  0  0  0  0  0  0
   22.3825   42.6718   -3.1834 C   0  0  0  0  0  0  0  0  0  0  0  0
   20.7956   44.0844    0.2253 Cl  0  0  0  0  0  0  0  0  0  0  0  0
   14.4731   40.2207   -5.5622 H   0  0  0  0  0  0  0  0  0  0  0  0
  1  2  2  0
 22  1  1  0
  2  3  1  0
  4  3  2  0
  3 19  1  0
  5  4  1  0
  4  6  1  0
 22  5  2  0
  6  7  1  6
  6 13  1  0
  6 21  1  0
 10  8  2  0
 14  9  1  0
  9 22  1  0
 10 20  1  0
 21 10  1  0
 15 11  2  0
 11 16  1  0
 13 12  1  0
 12 20  1  0
 14 15  1  0
 14 23  2  0
 15 24  1  0
 16 17  2  0
 17 18  1  0
 17 25  1  0
 18 24  2  0
  8 26  1  0
M  END
$$$$
