
     RDKit          3D

 26 28  0  0  0  0  0  0  0  0999 V2000
   21.7053   39.1783   -7.6002 C   0  0  0  0  0  0  0  0  0  0  0  0
   21.2722   38.2947   -8.5631 C   0  0  0  0  0  0  0  0  0  0  0  0
   19.9340   38.2206   -8.8882 C   0  0  0  0  0  0  0  0  0  0  0  0
   19.0323   39.0336   -8.2459 C   0  0  0  0  0  0  0  0  0  0  0  0
   19.4940   39.9128   -7.2823 C   0  0  0  0  0  0  0  0  0  0  0  0
   17.5762   38.9283   -8.6088 C   0  0  2  0  0  0  0  0  0  0  0  0
   17.4057   37.4400   -9.0134 C   0  0  0  0  0  0  0  0  0  0  0  0
   14.6661   39.5169   -6.4171 N   0  0  0  0  0  0  0  0  0  0  0  0
   21.2877   40.9074   -5.9537 N   0  0  0  0  0  0  0  0  0  0  0  0
   15.6002   39.8234   -7.2779 C   0  0  0  0  0  0  0  0  0  0  0  0
   20.9617   41.0171   -2.2845 N   0  0  0  0  0  0  0  0  0  0  0  0
   16.6698   41.0780   -9.6372 C   0  0  0  0  0  0  0  0  0  0  0  0
   17.1973   39.7066   -9.7975 C   0  0  0  0  0  0  0  0  0  0  0  0
   21.4386   40.4662   -4.6122 C   0  0  0  0  0  0  0  0  0  0  0  0
   21.3750   41.4164   -3.4975 C   0  0  0  0  0  0  0  0  0  0  0  0
   20.8924   41.8725   -1.2352 C   0  0  0  0  0  0  0  0  0  0  0  0
   21.2433   43.2072   -1.3514 C   0  0  0  0  0  0  0  0  0  0  0  0
   21.6708   43.6344   -2.5928 C   0  0  0  0  0  0  0  0  0  0  0  0
   19.5030   37.3437   -9.8560 F   0  0  0  0  0  0  0  0  0  0  0  0
   15.4506   41.2739   -8.3124 S   0  0  0  0  0  0  0  0  0  0  0  0
   16.7611   39.0452   -7.4414 N   0  0  0  0  0  0  0  0  0  0  0  0
   20.8198   40.0058   -6.9408 C   0  0  0  0  0  0  0  0  0  0  0  0
   21.6266   39.2378   -4.4322 O   0  0  0  0  0  0  0  0  0  0  0  0
   21.7316   42.7371   -3.6485 C   0  0  0  0  0  0  0  0  0  0  0  0
   21.1576   44.3210   -0.0023 Cl  0  0  0  0  0  0  0  0  0  0  0  0
   14.7346   39.9660   -5.4813 H   0  0  0  0  0  0  0  0  0  0  0  0
  1  2  2  0
 22  1  1  0
  2  3  1  0
  4  3  2  0
  3 19  1  0
  5  4  1  0
  4  6  1  0
 22  5  2  0
  6  7  1  6
  6 13  1  0
  6 21  1  0
 10  8  2  0
 14  9  1  0
  9 22  1  0
 10 20  1  0
 21 10  1  0
 15 11  2  0
 11 16  1  0
 13 12  1  0
 12 20  1  0
 14 15  1  0
 14 23  2  0
 15 24  1  0
 16 17  2  0
 17 18  1  0
 17 25  1  0
 18 24  2  0
  8 26  1  0
M  END
$$$$
