
     RDKit          3D

 26 28  0  0  0  0  0  0  0  0999 V2000
   21.7911   38.9231   -7.4185 C   0  0  0  0  0  0  0  0  0  0  0  0
   21.3943   38.5599   -8.6859 C   0  0  0  0  0  0  0  0  0  0  0  0
   20.0546   38.5195   -9.0108 C   0  0  0  0  0  0  0  0  0  0  0  0
   19.1150   38.8436   -8.0628 C   0  0  0  0  0  0  0  0  0  0  0  0
   19.5407   39.2052   -6.7969 C   0  0  0  0  0  0  0  0  0  0  0  0
   17.6591   38.7823   -8.4361 C   0  0  2  0  0  0  0  0  0  0  0  0
   17.4404   37.2941   -8.8172 C   0  0  0  0  0  0  0  0  0  0  0  0
   14.7539   39.5078   -6.2791 N   0  0  0  0  0  0  0  0  0  0  0  0
   21.2981   39.6243   -5.1513 N   0  0  0  0  0  0  0  0  0  0  0  0
   15.7048   39.7674   -7.1370 C   0  0  0  0  0  0  0  0  0  0  0  0
   20.7142   41.3281   -2.8934 N   0  0  0  0  0  0  0  0  0  0  0  0
   16.8356   40.9441   -9.5080 C   0  0  0  0  0  0  0  0  0  0  0  0
   17.3166   39.5528   -9.6408 C   0  0  0  0  0  0  0  0  0  0  0  0
   21.9391   40.8761   -4.9536 C   0  0  0  0  0  0  0  0  0  0  0  0
   21.7145   41.6497   -3.7286 C   0  0  0  0  0  0  0  0  0  0  0  0
   20.4821   42.0246   -1.7539 C   0  0  0  0  0  0  0  0  0  0  0  0
   21.2617   43.1079   -1.3837 C   0  0  0  0  0  0  0  0  0  0  0  0
   22.2951   43.4521   -2.2321 C   0  0  0  0  0  0  0  0  0  0  0  0
   19.6591   38.1647  -10.2794 F   0  0  0  0  0  0  0  0  0  0  0  0
   15.6136   41.2043   -8.1968 S   0  0  0  0  0  0  0  0  0  0  0  0
   16.8394   38.9470   -7.2777 N   0  0  0  0  0  0  0  0  0  0  0  0
   20.8672   39.2534   -6.4486 C   0  0  0  0  0  0  0  0  0  0  0  0
   22.6976   41.2808   -5.8688 O   0  0  0  0  0  0  0  0  0  0  0  0
   22.5092   42.7215   -3.3913 C   0  0  0  0  0  0  0  0  0  0  0  0
   20.9707   44.0148    0.0863 Cl  0  0  0  0  0  0  0  0  0  0  0  0
   14.6525   40.1736   -5.4862 H   0  0  0  0  0  0  0  0  0  0  0  0
  1  2  2  0
 22  1  1  0
  2  3  1  0
  4  3  2  0
  3 19  1  0
  5  4  1  0
  4  6  1  0
 22  5  2  0
  6  7  1  6
  6 13  1  0
  6 21  1  0
 10  8  2  0
 14  9  1  0
  9 22  1  0
 10 20  1  0
 21 10  1  0
 15 11  2  0
 11 16  1  0
 13 12  1  0
 12 20  1  0
 14 15  1  0
 14 23  2  0
 15 24  1  0
 16 17  2  0
 17 18  1  0
 17 25  1  0
 18 24  2  0
  8 26  1  0
M  END
$$$$
