
     RDKit          3D

 26 28  0  0  0  0  0  0  0  0999 V2000
   21.9143   39.6298   -7.6682 C   0  0  0  0  0  0  0  0  0  0  0  0
   21.5394   38.6561   -8.5665 C   0  0  0  0  0  0  0  0  0  0  0  0
   20.2056   38.4418   -8.8442 C   0  0  0  0  0  0  0  0  0  0  0  0
   19.2499   39.2052   -8.2193 C   0  0  0  0  0  0  0  0  0  0  0  0
   19.6537   40.1771   -7.3210 C   0  0  0  0  0  0  0  0  0  0  0  0
   17.8007   38.9470   -8.5293 C   0  0  2  0  0  0  0  0  0  0  0  0
   17.7348   37.4084   -8.7198 C   0  0  0  0  0  0  0  0  0  0  0  0
   14.8855   39.6277   -6.3713 N   0  0  0  0  0  0  0  0  0  0  0  0
   21.3822   41.4062   -6.1072 N   0  0  0  0  0  0  0  0  0  0  0  0
   15.7826   39.8766   -7.2883 C   0  0  0  0  0  0  0  0  0  0  0  0
   20.5793   41.4684   -3.0565 N   0  0  0  0  0  0  0  0  0  0  0  0
   16.7242   40.8618   -9.8235 C   0  0  0  0  0  0  0  0  0  0  0  0
   17.3491   39.5224   -9.8049 C   0  0  0  0  0  0  0  0  0  0  0  0
   22.0805   41.0317   -4.9286 C   0  0  0  0  0  0  0  0  0  0  0  0
   21.7721   41.6613   -3.6409 C   0  0  0  0  0  0  0  0  0  0  0  0
   20.2656   42.0371   -1.8667 C   0  0  0  0  0  0  0  0  0  0  0  0
   21.1553   42.8497   -1.1839 C   0  0  0  0  0  0  0  0  0  0  0  0
   22.3871   43.0584   -1.7714 C   0  0  0  0  0  0  0  0  0  0  0  0
   19.8322   37.4747   -9.7479 F   0  0  0  0  0  0  0  0  0  0  0  0
   15.5123   41.1538   -8.5097 S   0  0  0  0  0  0  0  0  0  0  0  0
   16.9953   39.1677   -7.3702 N   0  0  0  0  0  0  0  0  0  0  0  0
   20.9738   40.4101   -7.0276 C   0  0  0  0  0  0  0  0  0  0  0  0
   22.9633   40.1462   -5.0441 O   0  0  0  0  0  0  0  0  0  0  0  0
   22.6808   42.4638   -2.9894 C   0  0  0  0  0  0  0  0  0  0  0  0
   20.7603   43.5895    0.3539 Cl  0  0  0  0  0  0  0  0  0  0  0  0
   14.9082   40.2338   -5.5261 H   0  0  0  0  0  0  0  0  0  0  0  0
  1  2  2  0
 22  1  1  0
  2  3  1  0
  4  3  2  0
  3 19  1  0
  5  4  1  0
  4  6  1  0
 22  5  2  0
  6  7  1  6
  6 13  1  0
  6 21  1  0
 10  8  2  0
 14  9  1  0
  9 22  1  0
 10 20  1  0
 21 10  1  0
 15 11  2  0
 11 16  1  0
 13 12  1  0
 12 20  1  0
 14 15  1  0
 14 23  2  0
 15 24  1  0
 16 17  2  0
 17 18  1  0
 17 25  1  0
 18 24  2  0
  8 26  1  0
M  END
$$$$
