
     RDKit          3D

 26 28  0  0  0  0  0  0  0  0999 V2000
   21.9376   39.4700   -7.6906 C   0  0  0  0  0  0  0  0  0  0  0  0
   21.5204   38.4570   -8.5244 C   0  0  0  0  0  0  0  0  0  0  0  0
   20.1758   38.2565   -8.7571 C   0  0  0  0  0  0  0  0  0  0  0  0
   19.2520   39.0732   -8.1521 C   0  0  0  0  0  0  0  0  0  0  0  0
   19.6981   40.0838   -7.3189 C   0  0  0  0  0  0  0  0  0  0  0  0
   17.7904   38.8296   -8.4118 C   0  0  2  0  0  0  0  0  0  0  0  0
   17.7037   37.2926   -8.6070 C   0  0  0  0  0  0  0  0  0  0  0  0
   14.9597   39.5257   -6.1487 N   0  0  0  0  0  0  0  0  0  0  0  0
   21.4815   41.3401   -6.2176 N   0  0  0  0  0  0  0  0  0  0  0  0
   15.8261   39.7710   -7.0957 C   0  0  0  0  0  0  0  0  0  0  0  0
   20.9957   41.3922   -3.0671 N   0  0  0  0  0  0  0  0  0  0  0  0
   16.6864   40.7605   -9.6580 C   0  0  0  0  0  0  0  0  0  0  0  0
   17.2993   39.4154   -9.6678 C   0  0  0  0  0  0  0  0  0  0  0  0
   22.2960   41.0244   -5.0977 C   0  0  0  0  0  0  0  0  0  0  0  0
   22.0803   41.6793   -3.8038 C   0  0  0  0  0  0  0  0  0  0  0  0
   20.7695   41.9814   -1.8675 C   0  0  0  0  0  0  0  0  0  0  0  0
   21.6424   42.9132   -1.3308 C   0  0  0  0  0  0  0  0  0  0  0  0
   22.7634   43.2199   -2.0761 C   0  0  0  0  0  0  0  0  0  0  0  0
   19.7600   37.2496   -9.5966 F   0  0  0  0  0  0  0  0  0  0  0  0
   15.5244   41.0567   -8.3008 S   0  0  0  0  0  0  0  0  0  0  0  0
   17.0286   39.0517   -7.2238 N   0  0  0  0  0  0  0  0  0  0  0  0
   21.0297   40.3041   -7.0713 C   0  0  0  0  0  0  0  0  0  0  0  0
   23.1977   40.1677   -5.2701 O   0  0  0  0  0  0  0  0  0  0  0  0
   22.9692   42.6015   -3.3002 C   0  0  0  0  0  0  0  0  0  0  0  0
   21.3599   43.6805    0.2182 Cl  0  0  0  0  0  0  0  0  0  0  0  0
   15.2526   39.7680   -5.1803 H   0  0  0  0  0  0  0  0  0  0  0  0
  1  2  2  0
 22  1  1  0
  2  3  1  0
  4  3  2  0
  3 19  1  0
  5  4  1  0
  4  6  1  0
 22  5  2  0
  6  7  1  6
  6 13  1  0
  6 21  1  0
 10  8  2  0
 14  9  1  0
  9 22  1  0
 10 20  1  0
 21 10  1  0
 15 11  2  0
 11 16  1  0
 13 12  1  0
 12 20  1  0
 14 15  1  0
 14 23  2  0
 15 24  1  0
 16 17  2  0
 17 18  1  0
 17 25  1  0
 18 24  2  0
  8 26  1  0
M  END
$$$$
