
     RDKit          3D

 26 28  0  0  0  0  0  0  0  0999 V2000
   21.4293   39.8978   -7.7222 C   0  0  0  0  0  0  0  0  0  0  0  0
   21.1643   38.9277   -8.6626 C   0  0  0  0  0  0  0  0  0  0  0  0
   19.8620   38.5916   -8.9676 C   0  0  0  0  0  0  0  0  0  0  0  0
   18.8275   39.2296   -8.3278 C   0  0  0  0  0  0  0  0  0  0  0  0
   19.1215   40.2007   -7.3870 C   0  0  0  0  0  0  0  0  0  0  0  0
   17.4152   38.8394   -8.6684 C   0  0  2  0  0  0  0  0  0  0  0  0
   17.4744   37.2916   -8.7614 C   0  0  0  0  0  0  0  0  0  0  0  0
   14.3763   39.4203   -6.6567 N   0  0  0  0  0  0  0  0  0  0  0  0
   20.7041   41.5483   -6.1020 N   0  0  0  0  0  0  0  0  0  0  0  0
   15.2860   39.6819   -7.5576 C   0  0  0  0  0  0  0  0  0  0  0  0
   20.1549   41.7033   -3.1205 N   0  0  0  0  0  0  0  0  0  0  0  0
   16.2454   40.5800  -10.1184 C   0  0  0  0  0  0  0  0  0  0  0  0
   16.9698   39.2977   -9.9927 C   0  0  0  0  0  0  0  0  0  0  0  0
   21.5955   41.2531   -5.0366 C   0  0  0  0  0  0  0  0  0  0  0  0
   21.3655   41.7935   -3.6933 C   0  0  0  0  0  0  0  0  0  0  0  0
   19.9122   42.1935   -1.8803 C   0  0  0  0  0  0  0  0  0  0  0  0
   20.8968   42.8158   -1.1310 C   0  0  0  0  0  0  0  0  0  0  0  0
   22.1481   42.9169   -1.7056 C   0  0  0  0  0  0  0  0  0  0  0  0
   19.5977   37.6284   -9.9131 F   0  0  0  0  0  0  0  0  0  0  0  0
   14.9656   40.8561   -8.8671 S   0  0  0  0  0  0  0  0  0  0  0  0
   16.5517   39.0671   -7.5533 N   0  0  0  0  0  0  0  0  0  0  0  0
   20.4081   40.5534   -7.0658 C   0  0  0  0  0  0  0  0  0  0  0  0
   22.5772   40.5157   -5.3002 O   0  0  0  0  0  0  0  0  0  0  0  0
   22.3677   42.4063   -2.9762 C   0  0  0  0  0  0  0  0  0  0  0  0
   20.5941   43.4528    0.4723 Cl  0  0  0  0  0  0  0  0  0  0  0  0
   14.5171   39.8494   -5.7196 H   0  0  0  0  0  0  0  0  0  0  0  0
  1  2  2  0
 22  1  1  0
  2  3  1  0
  4  3  2  0
  3 19  1  0
  5  4  1  0
  4  6  1  0
 22  5  2  0
  6  7  1  6
  6 13  1  0
  6 21  1  0
 10  8  2  0
 14  9  1  0
  9 22  1  0
 10 20  1  0
 21 10  1  0
 15 11  2  0
 11 16  1  0
 13 12  1  0
 12 20  1  0
 14 15  1  0
 14 23  2  0
 15 24  1  0
 16 17  2  0
 17 18  1  0
 17 25  1  0
 18 24  2  0
  8 26  1  0
M  END
$$$$
