
     RDKit          3D

 26 28  0  0  0  0  0  0  0  0999 V2000
   21.7817   38.7993   -7.2747 C   0  0  0  0  0  0  0  0  0  0  0  0
   21.4286   38.4135   -8.5483 C   0  0  0  0  0  0  0  0  0  0  0  0
   20.1007   38.3666   -8.9181 C   0  0  0  0  0  0  0  0  0  0  0  0
   19.1293   38.7068   -8.0087 C   0  0  0  0  0  0  0  0  0  0  0  0
   19.5113   39.0911   -6.7356 C   0  0  0  0  0  0  0  0  0  0  0  0
   17.6870   38.6381   -8.4305 C   0  0  2  0  0  0  0  0  0  0  0  0
   17.5127   37.1707   -8.9042 C   0  0  0  0  0  0  0  0  0  0  0  0
   14.7027   39.1765   -6.3273 N   0  0  0  0  0  0  0  0  0  0  0  0
   21.2114   39.5401   -5.0385 N   0  0  0  0  0  0  0  0  0  0  0  0
   15.6731   39.5053   -7.1384 C   0  0  0  0  0  0  0  0  0  0  0  0
   22.4692   42.6815   -3.4698 N   0  0  0  0  0  0  0  0  0  0  0  0
   16.8486   40.8420   -9.4002 C   0  0  0  0  0  0  0  0  0  0  0  0
   17.3640   39.4710   -9.5985 C   0  0  0  0  0  0  0  0  0  0  0  0
   21.9425   40.7437   -4.8542 C   0  0  0  0  0  0  0  0  0  0  0  0
   21.7567   41.5583   -3.6495 C   0  0  0  0  0  0  0  0  0  0  0  0
   22.3193   43.4548   -2.3666 C   0  0  0  0  0  0  0  0  0  0  0  0
   21.4235   43.1330   -1.3605 C   0  0  0  0  0  0  0  0  0  0  0  0
   20.6825   41.9804   -1.5297 C   0  0  0  0  0  0  0  0  0  0  0  0
   19.7489   37.9892  -10.1930 F   0  0  0  0  0  0  0  0  0  0  0  0
   15.5822   40.9999   -8.1152 S   0  0  0  0  0  0  0  0  0  0  0  0
   16.8292   38.7178   -7.2908 N   0  0  0  0  0  0  0  0  0  0  0  0
   20.8251   39.1461   -6.3430 C   0  0  0  0  0  0  0  0  0  0  0  0
   22.7451   41.0699   -5.7632 O   0  0  0  0  0  0  0  0  0  0  0  0
   20.8568   41.2085   -2.6686 C   0  0  0  0  0  0  0  0  0  0  0  0
   21.2217   44.1249    0.0690 Cl  0  0  0  0  0  0  0  0  0  0  0  0
   14.4178   39.8960   -5.6320 H   0  0  0  0  0  0  0  0  0  0  0  0
  1  2  2  0
 22  1  1  0
  2  3  1  0
  4  3  2  0
  3 19  1  0
  5  4  1  0
  4  6  1  0
 22  5  2  0
  6  7  1  6
  6 13  1  0
  6 21  1  0
 10  8  2  0
 14  9  1  0
  9 22  1  0
 10 20  1  0
 21 10  1  0
 15 11  2  0
 11 16  1  0
 13 12  1  0
 12 20  1  0
 14 15  1  0
 14 23  2  0
 15 24  1  0
 16 17  2  0
 17 18  1  0
 17 25  1  0
 18 24  2  0
  8 26  1  0
M  END
$$$$
