
     RDKit          3D

 27 30  0  0  0  0  0  0  0  0999 V2000
   -6.1967    3.7897  -23.8208 C   0  0  0  0  0  0  0  0  0  0  0  0
   -5.8653    5.0781  -24.1603 C   0  0  0  0  0  0  0  0  0  0  0  0
   -4.7475    5.6969  -23.6395 C   0  0  0  0  0  0  0  0  0  0  0  0
   -7.4108    3.1231  -24.3835 C   0  0  0  0  0  0  0  0  0  0  0  0
   -2.7346    5.6929  -22.1996 C   0  0  0  0  0  0  0  0  0  0  0  0
   -2.5807    6.1613  -20.9238 C   0  0  0  0  0  0  0  0  0  0  0  0
   -0.8076    7.2831  -19.5562 C   0  0  0  0  0  0  0  0  0  0  0  0
   -4.4179    5.3700  -17.7351 C   0  0  0  0  0  0  0  0  0  0  0  0
   -5.6681    6.9238  -18.9353 C   0  0  0  0  0  0  0  0  0  0  0  0
   -4.7094    6.9303  -19.9316 C   0  0  0  0  0  0  0  0  0  0  0  0
   -4.8982    7.7502  -21.0308 C   0  0  0  0  0  0  0  0  0  0  0  0
   -6.9779    8.5077  -20.0941 C   0  0  0  0  0  0  0  0  0  0  0  0
   -3.9115    5.0456  -22.7518 C   0  0  0  0  0  0  0  0  0  0  0  0
   -0.7111    6.5439  -21.9800 C   0  0  0  0  0  0  0  0  0  0  0  0
   -3.5612    6.1430  -19.8532 C   0  0  0  0  0  0  0  0  0  0  0  0
   -3.4508    5.3651  -18.7207 C   0  0  0  0  0  0  0  0  0  0  0  0
   -4.4448    7.1128  -24.0764 C   0  0  0  0  0  0  0  0  0  0  0  0
   -4.2644    3.7448  -22.4236 C   0  0  0  0  0  0  0  0  0  0  0  0
   -6.0191    8.5264  -21.1074 C   0  0  0  0  0  0  0  0  0  0  0  0
   -6.8103    7.6991  -18.9888 C   0  0  0  0  0  0  0  0  0  0  0  0
   -3.4345    2.9529  -21.5008 C   0  0  0  0  0  0  0  0  0  0  0  0
   -5.3845    3.1147  -22.9409 C   0  0  0  0  0  0  0  0  0  0  0  0
   -8.0922    9.2774  -20.1684 F   0  0  0  0  0  0  0  0  0  0  0  0
   -1.5688    5.9433  -22.8237 N   0  0  0  0  0  0  0  0  0  0  0  0
   -5.5062    6.1389  -17.8471 N   0  0  0  0  0  0  0  0  0  0  0  0
   -7.3431    1.7044  -24.1603 N   0  0  0  0  0  4  0  0  0  0  0  0
   -1.3302    6.6916  -20.7728 N   0  0  0  0  0  0  0  0  0  0  0  0
  2  1  2  0
  1  4  1  0
  1 22  1  0
  3  2  1  0
 13  3  2  0
  3 17  1  0
  4 26  1  0
  6  5  2  0
  5 13  1  0
  5 24  1  0
 15  6  1  0
  6 27  1  0
 27  7  1  0
  8 16  2  0
 25  8  1  0
 10  9  1  0
  9 20  1  0
  9 25  2  0
 10 11  1  0
 10 15  2  0
 11 19  2  0
 19 12  1  0
 12 20  2  0
 12 23  1  0
 13 18  1  0
 24 14  2  0
 14 27  1  0
 15 16  1  0
 18 21  1  0
 18 22  2  0
M  CHG  1  26   1
M  END
$$$$
