
     RDKit          3D

 27 30  0  0  0  0  0  0  0  0999 V2000
    4.7740    6.1189  -13.2455 C   0  0  0  0  0  0  0  0  0  0  0  0
    5.8028    6.8070  -12.6511 C   0  0  0  0  0  0  0  0  0  0  0  0
    6.2581    6.4778  -11.3910 C   0  0  0  0  0  0  0  0  0  0  0  0
    4.2800    6.4804  -14.6094 C   0  0  0  0  0  0  0  0  0  0  0  0
    6.1716    5.0900   -9.3436 C   0  0  0  0  0  0  0  0  0  0  0  0
    5.9080    5.7559   -8.1784 C   0  0  0  0  0  0  0  0  0  0  0  0
    6.4579    5.5345   -5.7450 C   0  0  0  0  0  0  0  0  0  0  0  0
    4.8814    9.3248   -7.5629 C   0  0  0  0  0  0  0  0  0  0  0  0
    2.9627    8.0676   -7.9579 C   0  0  0  0  0  0  0  0  0  0  0  0
    3.7361    6.9337   -8.1247 C   0  0  0  0  0  0  0  0  0  0  0  0
    3.1064    5.7366   -8.4189 C   0  0  0  0  0  0  0  0  0  0  0  0
    0.9797    6.8548   -8.3625 C   0  0  0  0  0  0  0  0  0  0  0  0
    5.6972    5.4395  -10.6710 C   0  0  0  0  0  0  0  0  0  0  0  0
    7.1608    4.0438   -7.6722 C   0  0  0  0  0  0  0  0  0  0  0  0
    5.1256    6.9676   -8.0125 C   0  0  0  0  0  0  0  0  0  0  0  0
    5.6683    8.2019   -7.7269 C   0  0  0  0  0  0  0  0  0  0  0  0
    7.4057    7.2760  -10.8139 C   0  0  0  0  0  0  0  0  0  0  0  0
    4.6604    4.7574  -11.2907 C   0  0  0  0  0  0  0  0  0  0  0  0
    1.7462    5.7018   -8.5347 C   0  0  0  0  0  0  0  0  0  0  0  0
    1.5857    8.0591   -8.0697 C   0  0  0  0  0  0  0  0  0  0  0  0
    4.0031    3.6231  -10.6209 C   0  0  0  0  0  0  0  0  0  0  0  0
    4.1960    5.0801  -12.5554 C   0  0  0  0  0  0  0  0  0  0  0  0
   -0.3714    6.8223   -8.4765 F   0  0  0  0  0  0  0  0  0  0  0  0
    6.9442    4.0431   -8.9993 N   0  0  0  0  0  0  0  0  0  0  0  0
    3.5511    9.2515   -7.6777 N   0  0  0  0  0  0  0  0  0  0  0  0
    4.6132    5.4421  -15.5463 N   0  0  0  0  0  4  0  0  0  0  0  0
    6.5148    5.1181   -7.1330 N   0  0  0  0  0  0  0  0  0  0  0  0
  2  1  2  0
  1  4  1  0
  1 22  1  0
  3  2  1  0
 13  3  2  0
  3 17  1  0
  4 26  1  0
  6  5  2  0
  5 13  1  0
  5 24  1  0
 15  6  1  0
  6 27  1  0
 27  7  1  0
  8 16  2  0
 25  8  1  0
 10  9  1  0
  9 20  1  0
  9 25  2  0
 10 11  1  0
 10 15  2  0
 11 19  2  0
 19 12  1  0
 12 20  2  0
 12 23  1  0
 13 18  1  0
 24 14  2  0
 14 27  1  0
 15 16  1  0
 18 21  1  0
 18 22  2  0
M  CHG  1  26   1
M  END
$$$$
