
     RDKit          3D

 27 30  0  0  0  0  0  0  0  0999 V2000
   -6.6931    3.8253  -21.5298 C   0  0  0  0  0  0  0  0  0  0  0  0
   -5.3515    3.5513  -21.4282 C   0  0  0  0  0  0  0  0  0  0  0  0
   -4.4928    4.3912  -20.7495 C   0  0  0  0  0  0  0  0  0  0  0  0
   -7.6206    2.9155  -22.2693 C   0  0  0  0  0  0  0  0  0  0  0  0
   -4.0464    6.4353  -19.4275 C   0  0  0  0  0  0  0  0  0  0  0  0
   -3.5425    7.6247  -19.8771 C   0  0  0  0  0  0  0  0  0  0  0  0
   -2.0384    9.4429  -19.0379 C   0  0  0  0  0  0  0  0  0  0  0  0
   -4.8511    9.8275  -22.6348 C   0  0  0  0  0  0  0  0  0  0  0  0
   -3.2866    8.3643  -23.5452 C   0  0  0  0  0  0  0  0  0  0  0  0
   -3.0820    7.8022  -22.2986 C   0  0  0  0  0  0  0  0  0  0  0  0
   -2.1619    6.7755  -22.1749 C   0  0  0  0  0  0  0  0  0  0  0  0
   -1.7021    6.9193  -24.5295 C   0  0  0  0  0  0  0  0  0  0  0  0
   -4.9464    5.5470  -20.1417 C   0  0  0  0  0  0  0  0  0  0  0  0
   -2.7617    7.3145  -17.8643 C   0  0  0  0  0  0  0  0  0  0  0  0
   -3.7691    8.2464  -21.1694 C   0  0  0  0  0  0  0  0  0  0  0  0
   -4.6584    9.2776  -21.3829 C   0  0  0  0  0  0  0  0  0  0  0  0
   -3.0316    4.0092  -20.6713 C   0  0  0  0  0  0  0  0  0  0  0  0
   -6.3048    5.8037  -20.2558 C   0  0  0  0  0  0  0  0  0  0  0  0
   -1.4837    6.3424  -23.2782 C   0  0  0  0  0  0  0  0  0  0  0  0
   -2.6137    7.9445  -24.6765 C   0  0  0  0  0  0  0  0  0  0  0  0
   -6.8974    6.9979  -19.6312 C   0  0  0  0  0  0  0  0  0  0  0  0
   -7.1753    4.9668  -20.9349 C   0  0  0  0  0  0  0  0  0  0  0  0
   -1.0301    6.4903  -25.6267 F   0  0  0  0  0  0  0  0  0  0  0  0
   -3.5476    6.2726  -18.1881 N   0  0  0  0  0  0  0  0  0  0  0  0
   -4.1732    9.3733  -23.6942 N   0  0  0  0  0  0  0  0  0  0  0  0
   -7.7296    3.3309  -23.6414 N   0  0  0  0  0  4  0  0  0  0  0  0
   -2.7442    8.1817  -18.9179 N   0  0  0  0  0  0  0  0  0  0  0  0
  2  1  2  0
  1  4  1  0
  1 22  1  0
  3  2  1  0
 13  3  2  0
  3 17  1  0
  4 26  1  0
  6  5  2  0
  5 13  1  0
  5 24  1  0
 15  6  1  0
  6 27  1  0
 27  7  1  0
  8 16  2  0
 25  8  1  0
 10  9  1  0
  9 20  1  0
  9 25  2  0
 10 11  1  0
 10 15  2  0
 11 19  2  0
 19 12  1  0
 12 20  2  0
 12 23  1  0
 13 18  1  0
 24 14  2  0
 14 27  1  0
 15 16  1  0
 18 21  1  0
 18 22  2  0
M  CHG  1  26   1
M  END
$$$$
