
     RDKit          3D

 27 30  0  0  0  0  0  0  0  0999 V2000
   -6.3672    4.1876  -23.3698 C   0  0  0  0  0  0  0  0  0  0  0  0
   -6.3589    5.5286  -23.6645 C   0  0  0  0  0  0  0  0  0  0  0  0
   -5.2528    6.3152  -23.4166 C   0  0  0  0  0  0  0  0  0  0  0  0
   -7.5685    3.3385  -23.6357 C   0  0  0  0  0  0  0  0  0  0  0  0
   -2.9369    6.6104  -22.5954 C   0  0  0  0  0  0  0  0  0  0  0  0
   -2.4507    6.9717  -21.3691 C   0  0  0  0  0  0  0  0  0  0  0  0
   -0.5409    8.3022  -20.4443 C   0  0  0  0  0  0  0  0  0  0  0  0
   -2.9432    5.5368  -17.9240 C   0  0  0  0  0  0  0  0  0  0  0  0
   -4.8137    6.8139  -18.4607 C   0  0  0  0  0  0  0  0  0  0  0  0
   -4.2543    7.1241  -19.6865 C   0  0  0  0  0  0  0  0  0  0  0  0
   -4.9582    7.9455  -20.5500 C   0  0  0  0  0  0  0  0  0  0  0  0
   -6.7321    8.1027  -18.9360 C   0  0  0  0  0  0  0  0  0  0  0  0
   -4.1032    5.7865  -22.8597 C   0  0  0  0  0  0  0  0  0  0  0  0
   -1.1289    7.8448  -22.8683 C   0  0  0  0  0  0  0  0  0  0  0  0
   -3.0037    6.6397  -20.0683 C   0  0  0  0  0  0  0  0  0  0  0  0
   -2.3701    5.8373  -19.1439 C   0  0  0  0  0  0  0  0  0  0  0  0
   -5.3201    7.7805  -23.7845 C   0  0  0  0  0  0  0  0  0  0  0  0
   -4.1330    4.4300  -22.5710 C   0  0  0  0  0  0  0  0  0  0  0  0
   -6.1807    8.4257  -20.1762 C   0  0  0  0  0  0  0  0  0  0  0  0
   -6.0482    7.2864  -18.0588 C   0  0  0  0  0  0  0  0  0  0  0  0
   -2.9566    3.7605  -21.9921 C   0  0  0  0  0  0  0  0  0  0  0  0
   -5.2385    3.6317  -22.8161 C   0  0  0  0  0  0  0  0  0  0  0  0
   -7.9463    8.5780  -18.5630 F   0  0  0  0  0  0  0  0  0  0  0  0
   -2.1032    7.1630  -23.4960 N   0  0  0  0  0  0  0  0  0  0  0  0
   -4.1456    6.0204  -17.5945 N   0  0  0  0  0  0  0  0  0  0  0  0
   -7.2522    2.3258  -24.6059 N   0  0  0  0  0  4  0  0  0  0  0  0
   -1.3290    7.7372  -21.5227 N   0  0  0  0  0  0  0  0  0  0  0  0
  2  1  2  0
  1  4  1  0
  1 22  1  0
  3  2  1  0
 13  3  2  0
  3 17  1  0
  4 26  1  0
  6  5  2  0
  5 13  1  0
  5 24  1  0
 15  6  1  0
  6 27  1  0
 27  7  1  0
  8 16  2  0
 25  8  1  0
 10  9  1  0
  9 20  1  0
  9 25  2  0
 10 11  1  0
 10 15  2  0
 11 19  2  0
 19 12  1  0
 12 20  2  0
 12 23  1  0
 13 18  1  0
 24 14  2  0
 14 27  1  0
 15 16  1  0
 18 21  1  0
 18 22  2  0
M  CHG  1  26   1
M  END
$$$$
