
     RDKit          3D

 27 30  0  0  0  0  0  0  0  0999 V2000
    1.1913    5.9475  -20.8057 C   0  0  0  0  0  0  0  0  0  0  0  0
    0.8729    6.7639  -19.7487 C   0  0  0  0  0  0  0  0  0  0  0  0
   -0.2725    7.5331  -19.7504 C   0  0  0  0  0  0  0  0  0  0  0  0
    2.4351    5.1182  -20.8030 C   0  0  0  0  0  0  0  0  0  0  0  0
   -2.3565    8.3244  -20.8255 C   0  0  0  0  0  0  0  0  0  0  0  0
   -3.6090    7.9301  -20.4429 C   0  0  0  0  0  0  0  0  0  0  0  0
   -5.8990    8.9282  -20.2640 C   0  0  0  0  0  0  0  0  0  0  0  0
   -4.9226    4.4054  -20.2982 C   0  0  0  0  0  0  0  0  0  0  0  0
   -4.3024    5.0456  -18.1480 C   0  0  0  0  0  0  0  0  0  0  0  0
   -3.9099    6.2822  -18.6259 C   0  0  0  0  0  0  0  0  0  0  0  0
   -3.3906    7.2054  -17.7348 C   0  0  0  0  0  0  0  0  0  0  0  0
   -3.6819    5.6259  -15.9468 C   0  0  0  0  0  0  0  0  0  0  0  0
   -1.1504    7.5155  -20.8181 C   0  0  0  0  0  0  0  0  0  0  0  0
   -3.7490   10.0210  -21.0474 C   0  0  0  0  0  0  0  0  0  0  0  0
   -4.0160    6.6171  -19.9754 C   0  0  0  0  0  0  0  0  0  0  0  0
   -4.5349    5.6354  -20.7918 C   0  0  0  0  0  0  0  0  0  0  0  0
   -0.5577    8.3941  -18.5402 C   0  0  0  0  0  0  0  0  0  0  0  0
   -0.8100    6.6832  -21.8744 C   0  0  0  0  0  0  0  0  0  0  0  0
   -3.2804    6.8778  -16.4136 C   0  0  0  0  0  0  0  0  0  0  0  0
   -4.2015    4.6897  -16.8169 C   0  0  0  0  0  0  0  0  0  0  0  0
   -1.6830    6.5742  -23.0547 C   0  0  0  0  0  0  0  0  0  0  0  0
    0.3375    5.9069  -21.8823 C   0  0  0  0  0  0  0  0  0  0  0  0
   -3.5740    5.2987  -14.6350 F   0  0  0  0  0  0  0  0  0  0  0  0
   -2.4757    9.6139  -21.1921 N   0  0  0  0  0  0  0  0  0  0  0  0
   -4.8057    4.1220  -18.9966 N   0  0  0  0  0  0  0  0  0  0  0  0
    2.3662    4.1217  -21.8371 N   0  0  0  0  0  4  0  0  0  0  0  0
   -4.4832    8.9723  -20.5748 N   0  0  0  0  0  0  0  0  0  0  0  0
  2  1  2  0
  1  4  1  0
  1 22  1  0
  3  2  1  0
 13  3  2  0
  3 17  1  0
  4 26  1  0
  6  5  2  0
  5 13  1  0
  5 24  1  0
 15  6  1  0
  6 27  1  0
 27  7  1  0
  8 16  2  0
 25  8  1  0
 10  9  1  0
  9 20  1  0
  9 25  2  0
 10 11  1  0
 10 15  2  0
 11 19  2  0
 19 12  1  0
 12 20  2  0
 12 23  1  0
 13 18  1  0
 24 14  2  0
 14 27  1  0
 15 16  1  0
 18 21  1  0
 18 22  2  0
M  CHG  1  26   1
M  END
$$$$
