
     RDKit          3D

 27 30  0  0  0  0  0  0  0  0999 V2000
   -6.1919    7.7348  -24.8592 C   0  0  0  0  0  0  0  0  0  0  0  0
   -4.8558    7.4325  -24.7672 C   0  0  0  0  0  0  0  0  0  0  0  0
   -4.3906    6.4796  -23.8845 C   0  0  0  0  0  0  0  0  0  0  0  0
   -6.6927    8.7707  -25.8137 C   0  0  0  0  0  0  0  0  0  0  0  0
   -4.7660    4.7844  -22.1209 C   0  0  0  0  0  0  0  0  0  0  0  0
   -4.6080    4.9305  -20.7702 C   0  0  0  0  0  0  0  0  0  0  0  0
   -3.8592    3.5424  -18.8247 C   0  0  0  0  0  0  0  0  0  0  0  0
   -6.1446    7.4263  -18.4080 C   0  0  0  0  0  0  0  0  0  0  0  0
   -4.2160    8.3641  -19.3127 C   0  0  0  0  0  0  0  0  0  0  0  0
   -3.9956    7.2123  -20.0452 C   0  0  0  0  0  0  0  0  0  0  0  0
   -2.8796    7.1467  -20.8615 C   0  0  0  0  0  0  0  0  0  0  0  0
   -2.2659    9.3688  -20.1816 C   0  0  0  0  0  0  0  0  0  0  0  0
   -5.2507    5.7871  -23.0529 C   0  0  0  0  0  0  0  0  0  0  0  0
   -4.0185    2.8911  -21.2703 C   0  0  0  0  0  0  0  0  0  0  0  0
   -4.8595    6.1199  -19.9763 C   0  0  0  0  0  0  0  0  0  0  0  0
   -5.9389    6.2687  -19.1323 C   0  0  0  0  0  0  0  0  0  0  0  0
   -2.9054    6.1953  -23.8560 C   0  0  0  0  0  0  0  0  0  0  0  0
   -6.5959    6.1075  -23.1631 C   0  0  0  0  0  0  0  0  0  0  0  0
   -2.0291    8.2131  -20.9265 C   0  0  0  0  0  0  0  0  0  0  0  0
   -3.3713    9.4563  -19.3607 C   0  0  0  0  0  0  0  0  0  0  0  0
   -7.6011    5.4183  -22.3373 C   0  0  0  0  0  0  0  0  0  0  0  0
   -7.0731    7.0625  -24.0461 C   0  0  0  0  0  0  0  0  0  0  0  0
   -1.4228   10.4292  -20.2451 F   0  0  0  0  0  0  0  0  0  0  0  0
   -4.3949    3.5206  -22.3973 N   0  0  0  0  0  0  0  0  0  0  0  0
   -5.2933    8.4532  -18.5016 N   0  0  0  0  0  0  0  0  0  0  0  0
   -6.8532    8.1989  -27.1230 N   0  0  0  0  0  4  0  0  0  0  0  0
   -4.1453    3.7640  -20.2290 N   0  0  0  0  0  0  0  0  0  0  0  0
  2  1  2  0
  1  4  1  0
  1 22  1  0
  3  2  1  0
 13  3  2  0
  3 17  1  0
  4 26  1  0
  6  5  2  0
  5 13  1  0
  5 24  1  0
 15  6  1  0
  6 27  1  0
 27  7  1  0
  8 16  2  0
 25  8  1  0
 10  9  1  0
  9 20  1  0
  9 25  2  0
 10 11  1  0
 10 15  2  0
 11 19  2  0
 19 12  1  0
 12 20  2  0
 12 23  1  0
 13 18  1  0
 24 14  2  0
 14 27  1  0
 15 16  1  0
 18 21  1  0
 18 22  2  0
M  CHG  1  26   1
M  END
$$$$
