
     RDKit          3D

 27 30  0  0  0  0  0  0  0  0999 V2000
   -6.4107    9.0190  -24.6287 C   0  0  0  0  0  0  0  0  0  0  0  0
   -5.9761    7.7636  -24.9752 C   0  0  0  0  0  0  0  0  0  0  0  0
   -4.8087    7.2368  -24.4623 C   0  0  0  0  0  0  0  0  0  0  0  0
   -7.6740    9.5889  -25.1893 C   0  0  0  0  0  0  0  0  0  0  0  0
   -2.7940    7.4021  -23.0344 C   0  0  0  0  0  0  0  0  0  0  0  0
   -2.6742    6.5695  -21.9559 C   0  0  0  0  0  0  0  0  0  0  0  0
   -0.8486    5.3915  -20.7101 C   0  0  0  0  0  0  0  0  0  0  0  0
   -5.6170    4.6432  -20.6147 C   0  0  0  0  0  0  0  0  0  0  0  0
   -4.9572    6.1891  -19.0045 C   0  0  0  0  0  0  0  0  0  0  0  0
   -3.9436    6.6278  -19.8364 C   0  0  0  0  0  0  0  0  0  0  0  0
   -3.1088    7.6385  -19.3917 C   0  0  0  0  0  0  0  0  0  0  0  0
   -4.3325    7.7239  -17.3248 C   0  0  0  0  0  0  0  0  0  0  0  0
   -4.0245    7.9513  -23.5760 C   0  0  0  0  0  0  0  0  0  0  0  0
   -0.6654    6.9047  -22.7367 C   0  0  0  0  0  0  0  0  0  0  0  0
   -3.7382    6.0757  -21.1003 C   0  0  0  0  0  0  0  0  0  0  0  0
   -4.6096    5.0694  -21.4575 C   0  0  0  0  0  0  0  0  0  0  0  0
   -4.4084    5.8404  -24.8832 C   0  0  0  0  0  0  0  0  0  0  0  0
   -4.4826    9.2166  -23.2389 C   0  0  0  0  0  0  0  0  0  0  0  0
   -3.3045    8.1770  -18.1521 C   0  0  0  0  0  0  0  0  0  0  0  0
   -5.1762    6.7171  -17.7467 C   0  0  0  0  0  0  0  0  0  0  0  0
   -3.7342   10.0568  -22.2895 C   0  0  0  0  0  0  0  0  0  0  0  0
   -5.6533    9.7545  -23.7483 C   0  0  0  0  0  0  0  0  0  0  0  0
   -4.5289    8.2577  -16.0936 F   0  0  0  0  0  0  0  0  0  0  0  0
   -1.5422    7.5897  -23.4918 N   0  0  0  0  0  0  0  0  0  0  0  0
   -5.7824    5.1986  -19.4095 N   0  0  0  0  0  0  0  0  0  0  0  0
   -7.4666   10.0050  -26.5498 N   0  0  0  0  0  4  0  0  0  0  0  0
   -1.3594    6.2522  -21.7595 N   0  0  0  0  0  0  0  0  0  0  0  0
  2  1  2  0
  1  4  1  0
  1 22  1  0
  3  2  1  0
 13  3  2  0
  3 17  1  0
  4 26  1  0
  6  5  2  0
  5 13  1  0
  5 24  1  0
 15  6  1  0
  6 27  1  0
 27  7  1  0
  8 16  2  0
 25  8  1  0
 10  9  1  0
  9 20  1  0
  9 25  2  0
 10 11  1  0
 10 15  2  0
 11 19  2  0
 19 12  1  0
 12 20  2  0
 12 23  1  0
 13 18  1  0
 24 14  2  0
 14 27  1  0
 15 16  1  0
 18 21  1  0
 18 22  2  0
M  CHG  1  26   1
M  END
$$$$
