
     RDKit          3D

 27 30  0  0  0  0  0  0  0  0999 V2000
   -5.9861   10.7419  -24.9508 C   0  0  0  0  0  0  0  0  0  0  0  0
   -5.2018   11.6104  -25.6689 C   0  0  0  0  0  0  0  0  0  0  0  0
   -5.7539   12.5533  -26.5114 C   0  0  0  0  0  0  0  0  0  0  0  0
   -5.3851    9.7185  -24.0417 C   0  0  0  0  0  0  0  0  0  0  0  0
   -7.7087   13.6539  -27.5565 C   0  0  0  0  0  0  0  0  0  0  0  0
   -8.1440   14.9045  -27.2140 C   0  0  0  0  0  0  0  0  0  0  0  0
   -9.1624   16.8934  -28.3451 C   0  0  0  0  0  0  0  0  0  0  0  0
   -9.1714   16.0557  -23.7805 C   0  0  0  0  0  0  0  0  0  0  0  0
   -7.0046   16.8027  -24.1864 C   0  0  0  0  0  0  0  0  0  0  0  0
   -7.0290   16.2058  -25.4334 C   0  0  0  0  0  0  0  0  0  0  0  0
   -5.9074   16.3023  -26.2389 C   0  0  0  0  0  0  0  0  0  0  0  0
   -4.8029   17.5791  -24.5282 C   0  0  0  0  0  0  0  0  0  0  0  0
   -7.1227   12.6643  -26.6698 C   0  0  0  0  0  0  0  0  0  0  0  0
   -8.4697   14.6744  -29.3583 C   0  0  0  0  0  0  0  0  0  0  0  0
   -8.1447   15.5070  -25.8930 C   0  0  0  0  0  0  0  0  0  0  0  0
   -9.2120   15.4536  -25.0225 C   0  0  0  0  0  0  0  0  0  0  0  0
   -4.8204   13.4823  -27.2549 C   0  0  0  0  0  0  0  0  0  0  0  0
   -7.8959   11.7780  -25.9344 C   0  0  0  0  0  0  0  0  0  0  0  0
   -4.8114   16.9814  -25.7889 C   0  0  0  0  0  0  0  0  0  0  0  0
   -5.9090   17.4951  -23.7079 C   0  0  0  0  0  0  0  0  0  0  0  0
   -9.3654   11.8203  -26.0139 C   0  0  0  0  0  0  0  0  0  0  0  0
   -7.3514   10.8279  -25.0858 C   0  0  0  0  0  0  0  0  0  0  0  0
   -3.7157   18.2545  -24.0795 F   0  0  0  0  0  0  0  0  0  0  0  0
   -7.9230   13.5426  -28.8806 N   0  0  0  0  0  0  0  0  0  0  0  0
   -8.0825   16.7179  -23.3757 N   0  0  0  0  0  0  0  0  0  0  0  0
   -5.0057    8.5529  -24.7930 N   0  0  0  0  0  4  0  0  0  0  0  0
   -8.6183   15.5493  -28.3216 N   0  0  0  0  0  0  0  0  0  0  0  0
  2  1  2  0
  1  4  1  0
  1 22  1  0
  3  2  1  0
 13  3  2  0
  3 17  1  0
  4 26  1  0
  6  5  2  0
  5 13  1  0
  5 24  1  0
 15  6  1  0
  6 27  1  0
 27  7  1  0
  8 16  2  0
 25  8  1  0
 10  9  1  0
  9 20  1  0
  9 25  2  0
 10 11  1  0
 10 15  2  0
 11 19  2  0
 19 12  1  0
 12 20  2  0
 12 23  1  0
 13 18  1  0
 24 14  2  0
 14 27  1  0
 15 16  1  0
 18 21  1  0
 18 22  2  0
M  CHG  1  26   1
M  END
$$$$
