
     RDKit          3D

 27 30  0  0  0  0  0  0  0  0999 V2000
    7.3478    8.9433   -8.2763 C   0  0  0  0  0  0  0  0  0  0  0  0
    7.3927    8.1394   -9.3884 C   0  0  0  0  0  0  0  0  0  0  0  0
    6.7789    6.9040   -9.4111 C   0  0  0  0  0  0  0  0  0  0  0  0
    8.0172   10.2798   -8.2531 C   0  0  0  0  0  0  0  0  0  0  0  0
    5.4451    5.1206   -8.3315 C   0  0  0  0  0  0  0  0  0  0  0  0
    4.1848    4.8391   -8.7823 C   0  0  0  0  0  0  0  0  0  0  0  0
    2.7023    2.8355   -9.0279 C   0  0  0  0  0  0  0  0  0  0  0  0
    1.3553    7.3023   -9.0923 C   0  0  0  0  0  0  0  0  0  0  0  0
    2.2313    6.9209  -11.2148 C   0  0  0  0  0  0  0  0  0  0  0  0
    3.1588    6.0469  -10.6785 C   0  0  0  0  0  0  0  0  0  0  0  0
    4.0653    5.4359  -11.5276 C   0  0  0  0  0  0  0  0  0  0  0  0
    3.0797    6.5897  -13.3914 C   0  0  0  0  0  0  0  0  0  0  0  0
    6.0915    6.4209   -8.3134 C   0  0  0  0  0  0  0  0  0  0  0  0
    5.0643    2.9586   -8.1135 C   0  0  0  0  0  0  0  0  0  0  0  0
    3.2082    5.7738   -9.3120 C   0  0  0  0  0  0  0  0  0  0  0  0
    2.2751    6.4326   -8.5406 C   0  0  0  0  0  0  0  0  0  0  0  0
    6.8627    6.0868  -10.6810 C   0  0  0  0  0  0  0  0  0  0  0  0
    6.0579    7.2496   -7.2014 C   0  0  0  0  0  0  0  0  0  0  0  0
    4.0225    5.7059  -12.8655 C   0  0  0  0  0  0  0  0  0  0  0  0
    2.1670    7.2109  -12.5641 C   0  0  0  0  0  0  0  0  0  0  0  0
    5.3383    6.8415   -5.9836 C   0  0  0  0  0  0  0  0  0  0  0  0
    6.6707    8.4916   -7.1685 C   0  0  0  0  0  0  0  0  0  0  0  0
    3.0350    6.8588  -14.7200 F   0  0  0  0  0  0  0  0  0  0  0  0
    5.9593    3.9445   -7.9267 N   0  0  0  0  0  0  0  0  0  0  0  0
    1.3392    7.5377  -10.4086 N   0  0  0  0  0  0  0  0  0  0  0  0
    9.3418   10.1590   -7.7073 N   0  0  0  0  0  4  0  0  0  0  0  0
    3.9348    3.5016   -8.6536 N   0  0  0  0  0  0  0  0  0  0  0  0
  2  1  2  0
  1  4  1  0
  1 22  1  0
  3  2  1  0
 13  3  2  0
  3 17  1  0
  4 26  1  0
  6  5  2  0
  5 13  1  0
  5 24  1  0
 15  6  1  0
  6 27  1  0
 27  7  1  0
  8 16  2  0
 25  8  1  0
 10  9  1  0
  9 20  1  0
  9 25  2  0
 10 11  1  0
 10 15  2  0
 11 19  2  0
 19 12  1  0
 12 20  2  0
 12 23  1  0
 13 18  1  0
 24 14  2  0
 14 27  1  0
 15 16  1  0
 18 21  1  0
 18 22  2  0
M  CHG  1  26   1
M  END
$$$$
