
     RDKit          3D

 27 30  0  0  0  0  0  0  0  0999 V2000
   -5.4302    8.8007  -25.0675 C   0  0  0  0  0  0  0  0  0  0  0  0
   -4.6273    7.7140  -25.3119 C   0  0  0  0  0  0  0  0  0  0  0  0
   -3.5415    7.4244  -24.5115 C   0  0  0  0  0  0  0  0  0  0  0  0
   -6.6038    9.1143  -25.9388 C   0  0  0  0  0  0  0  0  0  0  0  0
   -2.0712    7.9177  -22.5828 C   0  0  0  0  0  0  0  0  0  0  0  0
   -2.0210    7.0027  -21.5674 C   0  0  0  0  0  0  0  0  0  0  0  0
   -0.3445    6.1504  -19.9135 C   0  0  0  0  0  0  0  0  0  0  0  0
   -4.5239    4.2125  -21.2210 C   0  0  0  0  0  0  0  0  0  0  0  0
   -4.8715    5.7284  -19.4893 C   0  0  0  0  0  0  0  0  0  0  0  0
   -3.8309    6.5084  -19.9589 C   0  0  0  0  0  0  0  0  0  0  0  0
   -3.5084    7.6683  -19.2757 C   0  0  0  0  0  0  0  0  0  0  0  0
   -5.2688    7.2176  -17.7028 C   0  0  0  0  0  0  0  0  0  0  0  0
   -3.2140    8.2172  -23.4274 C   0  0  0  0  0  0  0  0  0  0  0  0
   -0.0471    7.9202  -21.7052 C   0  0  0  0  0  0  0  0  0  0  0  0
   -3.0983    6.1538  -21.0911 C   0  0  0  0  0  0  0  0  0  0  0  0
   -3.4818    4.9797  -21.7028 C   0  0  0  0  0  0  0  0  0  0  0  0
   -2.7168    6.2001  -24.8402 C   0  0  0  0  0  0  0  0  0  0  0  0
   -4.0388    9.3087  -23.1983 C   0  0  0  0  0  0  0  0  0  0  0  0
   -4.2208    8.0150  -18.1634 C   0  0  0  0  0  0  0  0  0  0  0  0
   -5.6074    6.0567  -18.3671 C   0  0  0  0  0  0  0  0  0  0  0  0
   -3.7919   10.2094  -22.0602 C   0  0  0  0  0  0  0  0  0  0  0  0
   -5.1314    9.6080  -23.9958 C   0  0  0  0  0  0  0  0  0  0  0  0
   -5.9780    7.5603  -16.5986 F   0  0  0  0  0  0  0  0  0  0  0  0
   -0.8430    8.4651  -22.6420 N   0  0  0  0  0  0  0  0  0  0  0  0
   -5.2034    4.5868  -20.1318 N   0  0  0  0  0  0  0  0  0  0  0  0
   -6.2013    9.9750  -27.0179 N   0  0  0  0  0  4  0  0  0  0  0  0
   -0.7715    6.9929  -21.0140 N   0  0  0  0  0  0  0  0  0  0  0  0
  2  1  2  0
  1  4  1  0
  1 22  1  0
  3  2  1  0
 13  3  2  0
  3 17  1  0
  4 26  1  0
  6  5  2  0
  5 13  1  0
  5 24  1  0
 15  6  1  0
  6 27  1  0
 27  7  1  0
  8 16  2  0
 25  8  1  0
 10  9  1  0
  9 20  1  0
  9 25  2  0
 10 11  1  0
 10 15  2  0
 11 19  2  0
 19 12  1  0
 12 20  2  0
 12 23  1  0
 13 18  1  0
 24 14  2  0
 14 27  1  0
 15 16  1  0
 18 21  1  0
 18 22  2  0
M  CHG  1  26   1
M  END
$$$$
