
     RDKit          3D

 27 30  0  0  0  0  0  0  0  0999 V2000
   -4.4971    7.9762  -24.9255 C   0  0  0  0  0  0  0  0  0  0  0  0
   -5.7661    8.0340  -24.4046 C   0  0  0  0  0  0  0  0  0  0  0  0
   -6.1459    7.2429  -23.3400 C   0  0  0  0  0  0  0  0  0  0  0  0
   -4.0894    8.8316  -26.0818 C   0  0  0  0  0  0  0  0  0  0  0  0
   -5.6594    5.5201  -21.6311 C   0  0  0  0  0  0  0  0  0  0  0  0
   -5.5623    5.8313  -20.3027 C   0  0  0  0  0  0  0  0  0  0  0  0
   -6.1090    4.7720  -18.1001 C   0  0  0  0  0  0  0  0  0  0  0  0
   -5.0910    9.3991  -19.1988 C   0  0  0  0  0  0  0  0  0  0  0  0
   -3.2302    8.1722  -18.5281 C   0  0  0  0  0  0  0  0  0  0  0  0
   -3.7796    7.0303  -19.0813 C   0  0  0  0  0  0  0  0  0  0  0  0
   -3.0761    5.8418  -18.9891 C   0  0  0  0  0  0  0  0  0  0  0  0
   -1.3224    6.9851  -17.8083 C   0  0  0  0  0  0  0  0  0  0  0  0
   -5.2641    6.3562  -22.7508 C   0  0  0  0  0  0  0  0  0  0  0  0
   -6.4503    3.8436  -20.4350 C   0  0  0  0  0  0  0  0  0  0  0  0
   -5.0199    7.0448  -19.7185 C   0  0  0  0  0  0  0  0  0  0  0  0
   -5.6540    8.2680  -19.7561 C   0  0  0  0  0  0  0  0  0  0  0  0
   -7.5582    7.3784  -22.8162 C   0  0  0  0  0  0  0  0  0  0  0  0
   -3.9875    6.3148  -23.2921 C   0  0  0  0  0  0  0  0  0  0  0  0
   -1.8638    5.8239  -18.3608 C   0  0  0  0  0  0  0  0  0  0  0  0
   -2.0062    8.1808  -17.8875 C   0  0  0  0  0  0  0  0  0  0  0  0
   -2.9634    5.4188  -22.7301 C   0  0  0  0  0  0  0  0  0  0  0  0
   -3.5963    7.1049  -24.3607 C   0  0  0  0  0  0  0  0  0  0  0  0
   -0.1183    6.9696  -17.1844 F   0  0  0  0  0  0  0  0  0  0  0  0
   -6.2083    4.2922  -21.6793 N   0  0  0  0  0  0  0  0  0  0  0  0
   -3.8984    9.3449  -18.5965 N   0  0  0  0  0  0  0  0  0  0  0  0
   -4.0916    8.0576  -27.2934 N   0  0  0  0  0  4  0  0  0  0  0  0
   -6.0495    4.8008  -19.5488 N   0  0  0  0  0  0  0  0  0  0  0  0
  2  1  2  0
  1  4  1  0
  1 22  1  0
  3  2  1  0
 13  3  2  0
  3 17  1  0
  4 26  1  0
  6  5  2  0
  5 13  1  0
  5 24  1  0
 15  6  1  0
  6 27  1  0
 27  7  1  0
  8 16  2  0
 25  8  1  0
 10  9  1  0
  9 20  1  0
  9 25  2  0
 10 11  1  0
 10 15  2  0
 11 19  2  0
 19 12  1  0
 12 20  2  0
 12 23  1  0
 13 18  1  0
 24 14  2  0
 14 27  1  0
 15 16  1  0
 18 21  1  0
 18 22  2  0
M  CHG  1  26   1
M  END
$$$$
