
     RDKit          3D

 27 30  0  0  0  0  0  0  0  0999 V2000
   -0.2559    6.2455  -18.7909 C   0  0  0  0  0  0  0  0  0  0  0  0
   -1.4595    6.1594  -18.1358 C   0  0  0  0  0  0  0  0  0  0  0  0
   -2.6085    5.7597  -18.7865 C   0  0  0  0  0  0  0  0  0  0  0  0
    0.9867    6.6829  -18.0842 C   0  0  0  0  0  0  0  0  0  0  0  0
   -3.8049    5.0085  -20.8187 C   0  0  0  0  0  0  0  0  0  0  0  0
   -4.5317    5.7413  -21.7162 C   0  0  0  0  0  0  0  0  0  0  0  0
   -6.5821    5.4526  -23.1250 C   0  0  0  0  0  0  0  0  0  0  0  0
   -3.5222    8.7398  -23.7557 C   0  0  0  0  0  0  0  0  0  0  0  0
   -4.2998    9.4848  -21.6922 C   0  0  0  0  0  0  0  0  0  0  0  0
   -4.5439    8.1788  -21.3091 C   0  0  0  0  0  0  0  0  0  0  0  0
   -5.0742    7.9424  -20.0525 C   0  0  0  0  0  0  0  0  0  0  0  0
   -5.0875   10.3077  -19.6259 C   0  0  0  0  0  0  0  0  0  0  0  0
   -2.5980    5.4283  -20.1286 C   0  0  0  0  0  0  0  0  0  0  0  0
   -5.5096    3.8009  -21.5276 C   0  0  0  0  0  0  0  0  0  0  0  0
   -4.2783    7.1021  -22.1544 C   0  0  0  0  0  0  0  0  0  0  0  0
   -3.7604    7.4300  -23.3890 C   0  0  0  0  0  0  0  0  0  0  0  0
   -3.8905    5.6767  -17.9886 C   0  0  0  0  0  0  0  0  0  0  0  0
   -1.3717    5.5213  -20.7705 C   0  0  0  0  0  0  0  0  0  0  0  0
   -5.3404    8.9955  -19.2249 C   0  0  0  0  0  0  0  0  0  0  0  0
   -4.5600   10.5672  -20.8741 C   0  0  0  0  0  0  0  0  0  0  0  0
   -1.2431    5.1750  -22.1956 C   0  0  0  0  0  0  0  0  0  0  0  0
   -0.2124    5.9215  -20.1261 C   0  0  0  0  0  0  0  0  0  0  0  0
   -5.3506   11.3550  -18.8053 F   0  0  0  0  0  0  0  0  0  0  0  0
   -4.4317    3.8213  -20.7239 N   0  0  0  0  0  0  0  0  0  0  0  0
   -3.7897    9.7457  -22.9161 N   0  0  0  0  0  0  0  0  0  0  0  0
    1.0964    6.0116  -16.8176 N   0  0  0  0  0  4  0  0  0  0  0  0
   -5.5919    5.0048  -22.1648 N   0  0  0  0  0  0  0  0  0  0  0  0
  2  1  2  0
  1  4  1  0
  1 22  1  0
  3  2  1  0
 13  3  2  0
  3 17  1  0
  4 26  1  0
  6  5  2  0
  5 13  1  0
  5 24  1  0
 15  6  1  0
  6 27  1  0
 27  7  1  0
  8 16  2  0
 25  8  1  0
 10  9  1  0
  9 20  1  0
  9 25  2  0
 10 11  1  0
 10 15  2  0
 11 19  2  0
 19 12  1  0
 12 20  2  0
 12 23  1  0
 13 18  1  0
 24 14  2  0
 14 27  1  0
 15 16  1  0
 18 21  1  0
 18 22  2  0
M  CHG  1  26   1
M  END
$$$$
