
     RDKit          3D

 27 30  0  0  0  0  0  0  0  0999 V2000
   -7.9107    6.8841  -24.7234 C   0  0  0  0  0  0  0  0  0  0  0  0
   -7.1671    7.8850  -24.1485 C   0  0  0  0  0  0  0  0  0  0  0  0
   -5.8926    7.6549  -23.6728 C   0  0  0  0  0  0  0  0  0  0  0  0
   -9.2930    7.1353  -25.2343 C   0  0  0  0  0  0  0  0  0  0  0  0
   -3.9676    6.1569  -23.2536 C   0  0  0  0  0  0  0  0  0  0  0  0
   -3.6217    5.8108  -21.9764 C   0  0  0  0  0  0  0  0  0  0  0  0
   -1.5372    5.2793  -20.6939 C   0  0  0  0  0  0  0  0  0  0  0  0
   -6.2443    4.5030  -19.6138 C   0  0  0  0  0  0  0  0  0  0  0  0
   -5.3308    6.4377  -18.6971 C   0  0  0  0  0  0  0  0  0  0  0  0
   -4.4904    6.5617  -19.7881 C   0  0  0  0  0  0  0  0  0  0  0  0
   -3.6056    7.6255  -19.8285 C   0  0  0  0  0  0  0  0  0  0  0  0
   -4.4392    8.3843  -17.7057 C   0  0  0  0  0  0  0  0  0  0  0  0
   -5.3082    6.4047  -23.7542 C   0  0  0  0  0  0  0  0  0  0  0  0
   -1.7796    5.8986  -23.1409 C   0  0  0  0  0  0  0  0  0  0  0  0
   -4.5066    5.6437  -20.8375 C   0  0  0  0  0  0  0  0  0  0  0  0
   -5.4117    4.6120  -20.7101 C   0  0  0  0  0  0  0  0  0  0  0  0
   -5.1348    8.8151  -23.0672 C   0  0  0  0  0  0  0  0  0  0  0  0
   -6.0764    5.4089  -24.3394 C   0  0  0  0  0  0  0  0  0  0  0  0
   -3.5840    8.5229  -18.7994 C   0  0  0  0  0  0  0  0  0  0  0  0
   -5.3287    7.3315  -17.6436 C   0  0  0  0  0  0  0  0  0  0  0  0
   -5.5451    4.0446  -24.4930 C   0  0  0  0  0  0  0  0  0  0  0  0
   -7.3569    5.6297  -24.8201 C   0  0  0  0  0  0  0  0  0  0  0  0
   -4.4198    9.2747  -16.6829 F   0  0  0  0  0  0  0  0  0  0  0  0
   -2.8137    6.2032  -23.9447 N   0  0  0  0  0  0  0  0  0  0  0  0
   -6.1993    5.4047  -18.6274 N   0  0  0  0  0  0  0  0  0  0  0  0
  -10.2595    6.8234  -24.2167 N   0  0  0  0  0  4  0  0  0  0  0  0
   -2.2676    5.6468  -21.8916 N   0  0  0  0  0  0  0  0  0  0  0  0
  2  1  2  0
  1  4  1  0
  1 22  1  0
  3  2  1  0
 13  3  2  0
  3 17  1  0
  4 26  1  0
  6  5  2  0
  5 13  1  0
  5 24  1  0
 15  6  1  0
  6 27  1  0
 27  7  1  0
  8 16  2  0
 25  8  1  0
 10  9  1  0
  9 20  1  0
  9 25  2  0
 10 11  1  0
 10 15  2  0
 11 19  2  0
 19 12  1  0
 12 20  2  0
 12 23  1  0
 13 18  1  0
 24 14  2  0
 14 27  1  0
 15 16  1  0
 18 21  1  0
 18 22  2  0
M  CHG  1  26   1
M  END
$$$$
