
     RDKit          3D

 27 30  0  0  0  0  0  0  0  0999 V2000
   -4.5531    3.7014  -24.3745 C   0  0  0  0  0  0  0  0  0  0  0  0
   -3.8828    4.8853  -24.5594 C   0  0  0  0  0  0  0  0  0  0  0  0
   -3.2528    5.5289  -23.5142 C   0  0  0  0  0  0  0  0  0  0  0  0
   -5.2383    3.0083  -25.5081 C   0  0  0  0  0  0  0  0  0  0  0  0
   -2.6094    5.6833  -21.1294 C   0  0  0  0  0  0  0  0  0  0  0  0
   -3.2126    6.3580  -20.1039 C   0  0  0  0  0  0  0  0  0  0  0  0
   -2.5285    7.6111  -18.0461 C   0  0  0  0  0  0  0  0  0  0  0  0
   -6.7045    6.2985  -18.6994 C   0  0  0  0  0  0  0  0  0  0  0  0
   -6.7315    7.5214  -20.6797 C   0  0  0  0  0  0  0  0  0  0  0  0
   -5.3736    7.3102  -20.8324 C   0  0  0  0  0  0  0  0  0  0  0  0
   -4.7357    7.8539  -21.9340 C   0  0  0  0  0  0  0  0  0  0  0  0
   -6.8262    8.7827  -22.6715 C   0  0  0  0  0  0  0  0  0  0  0  0
   -3.2695    5.0091  -22.2333 C   0  0  0  0  0  0  0  0  0  0  0  0
   -1.0607    6.4581  -19.7626 C   0  0  0  0  0  0  0  0  0  0  0  0
   -4.6346    6.5747  -19.9065 C   0  0  0  0  0  0  0  0  0  0  0  0
   -5.3482    6.0786  -18.8367 C   0  0  0  0  0  0  0  0  0  0  0  0
   -2.5235    6.8213  -23.8053 C   0  0  0  0  0  0  0  0  0  0  0  0
   -3.9513    3.8121  -22.0693 C   0  0  0  0  0  0  0  0  0  0  0  0
   -5.4562    8.5792  -22.8394 C   0  0  0  0  0  0  0  0  0  0  0  0
   -7.4828    8.2510  -21.5808 C   0  0  0  0  0  0  0  0  0  0  0  0
   -4.0170    3.1611  -20.7506 C   0  0  0  0  0  0  0  0  0  0  0  0
   -4.5869    3.1581  -23.1122 C   0  0  0  0  0  0  0  0  0  0  0  0
   -7.5437    9.5022  -23.5698 F   0  0  0  0  0  0  0  0  0  0  0  0
   -1.2872    5.7633  -20.8913 N   0  0  0  0  0  0  0  0  0  0  0  0
   -7.3788    7.0090  -19.6098 N   0  0  0  0  0  0  0  0  0  0  0  0
   -6.4960    3.6459  -25.7886 N   0  0  0  0  0  4  0  0  0  0  0  0
   -2.2643    6.8438  -19.2480 N   0  0  0  0  0  0  0  0  0  0  0  0
  2  1  2  0
  1  4  1  0
  1 22  1  0
  3  2  1  0
 13  3  2  0
  3 17  1  0
  4 26  1  0
  6  5  2  0
  5 13  1  0
  5 24  1  0
 15  6  1  0
  6 27  1  0
 27  7  1  0
  8 16  2  0
 25  8  1  0
 10  9  1  0
  9 20  1  0
  9 25  2  0
 10 11  1  0
 10 15  2  0
 11 19  2  0
 19 12  1  0
 12 20  2  0
 12 23  1  0
 13 18  1  0
 24 14  2  0
 14 27  1  0
 15 16  1  0
 18 21  1  0
 18 22  2  0
M  CHG  1  26   1
M  END
$$$$
