
     RDKit          3D

 27 30  0  0  0  0  0  0  0  0999 V2000
   -7.3358    5.9464  -24.1079 C   0  0  0  0  0  0  0  0  0  0  0  0
   -6.7896    5.0249  -23.2490 C   0  0  0  0  0  0  0  0  0  0  0  0
   -5.5560    5.2255  -22.6646 C   0  0  0  0  0  0  0  0  0  0  0  0
   -8.6709    5.7245  -24.7429 C   0  0  0  0  0  0  0  0  0  0  0  0
   -3.5155    6.5797  -22.3077 C   0  0  0  0  0  0  0  0  0  0  0  0
   -3.2707    7.0971  -21.0655 C   0  0  0  0  0  0  0  0  0  0  0  0
   -1.2888    7.6169  -19.6252 C   0  0  0  0  0  0  0  0  0  0  0  0
   -5.9264    9.1155  -19.3210 C   0  0  0  0  0  0  0  0  0  0  0  0
   -5.3484    7.3246  -17.9511 C   0  0  0  0  0  0  0  0  0  0  0  0
   -4.4380    6.8907  -18.8970 C   0  0  0  0  0  0  0  0  0  0  0  0
   -3.7066    5.7441  -18.6392 C   0  0  0  0  0  0  0  0  0  0  0  0
   -4.8190    5.5250  -16.5200 C   0  0  0  0  0  0  0  0  0  0  0  0
   -4.8151    6.3645  -22.9190 C   0  0  0  0  0  0  0  0  0  0  0  0
   -1.3376    6.6262  -21.9590 C   0  0  0  0  0  0  0  0  0  0  0  0
   -4.2457    7.5704  -20.0993 C   0  0  0  0  0  0  0  0  0  0  0  0
   -5.0220    8.6954  -20.2762 C   0  0  0  0  0  0  0  0  0  0  0  0
   -5.0324    4.1684  -21.7182 C   0  0  0  0  0  0  0  0  0  0  0  0
   -5.3861    7.2823  -23.7884 C   0  0  0  0  0  0  0  0  0  0  0  0
   -3.8971    5.0736  -17.4650 C   0  0  0  0  0  0  0  0  0  0  0  0
   -5.5597    6.6648  -16.7559 C   0  0  0  0  0  0  0  0  0  0  0  0
   -4.6911    8.5383  -24.1154 C   0  0  0  0  0  0  0  0  0  0  0  0
   -6.6239    7.0903  -24.3803 C   0  0  0  0  0  0  0  0  0  0  0  0
   -5.0093    4.8609  -15.3529 F   0  0  0  0  0  0  0  0  0  0  0  0
   -2.3076    6.3008  -22.8316 N   0  0  0  0  0  0  0  0  0  0  0  0
   -6.0817    8.4365  -18.1794 N   0  0  0  0  0  0  0  0  0  0  0  0
   -9.7192    6.0560  -23.8166 N   0  0  0  0  0  4  0  0  0  0  0  0
   -1.9240    7.1316  -20.8352 N   0  0  0  0  0  0  0  0  0  0  0  0
  2  1  2  0
  1  4  1  0
  1 22  1  0
  3  2  1  0
 13  3  2  0
  3 17  1  0
  4 26  1  0
  6  5  2  0
  5 13  1  0
  5 24  1  0
 15  6  1  0
  6 27  1  0
 27  7  1  0
  8 16  2  0
 25  8  1  0
 10  9  1  0
  9 20  1  0
  9 25  2  0
 10 11  1  0
 10 15  2  0
 11 19  2  0
 19 12  1  0
 12 20  2  0
 12 23  1  0
 13 18  1  0
 24 14  2  0
 14 27  1  0
 15 16  1  0
 18 21  1  0
 18 22  2  0
M  CHG  1  26   1
M  END
$$$$
