
     RDKit          3D

 27 30  0  0  0  0  0  0  0  0999 V2000
    7.6618    6.9987  -10.2943 C   0  0  0  0  0  0  0  0  0  0  0  0
    6.4957    6.7095  -10.9590 C   0  0  0  0  0  0  0  0  0  0  0  0
    5.6556    5.6998  -10.5367 C   0  0  0  0  0  0  0  0  0  0  0  0
    8.5722    8.0906  -10.7565 C   0  0  0  0  0  0  0  0  0  0  0  0
    5.0720    3.8690   -8.9769 C   0  0  0  0  0  0  0  0  0  0  0  0
    4.1269    3.9480   -7.9914 C   0  0  0  0  0  0  0  0  0  0  0  0
    2.4245    2.4532   -6.9237 C   0  0  0  0  0  0  0  0  0  0  0  0
    3.8943    6.3403   -5.0944 C   0  0  0  0  0  0  0  0  0  0  0  0
    2.7117    7.2407   -6.8856 C   0  0  0  0  0  0  0  0  0  0  0  0
    3.0382    6.1414   -7.6580 C   0  0  0  0  0  0  0  0  0  0  0  0
    2.5849    6.0885   -8.9648 C   0  0  0  0  0  0  0  0  0  0  0  0
    1.5075    8.2159   -8.6649 C   0  0  0  0  0  0  0  0  0  0  0  0
    5.9521    4.9340   -9.4246 C   0  0  0  0  0  0  0  0  0  0  0  0
    4.0536    1.9208   -8.7927 C   0  0  0  0  0  0  0  0  0  0  0  0
    3.8143    5.0958   -7.1590 C   0  0  0  0  0  0  0  0  0  0  0  0
    4.2298    5.2358   -5.8523 C   0  0  0  0  0  0  0  0  0  0  0  0
    4.3828    5.4554  -11.3160 C   0  0  0  0  0  0  0  0  0  0  0  0
    7.1340    5.2438   -8.7678 C   0  0  0  0  0  0  0  0  0  0  0  0
    1.8293    7.1138   -9.4576 C   0  0  0  0  0  0  0  0  0  0  0  0
    1.9492    8.2906   -7.3600 C   0  0  0  0  0  0  0  0  0  0  0  0
    7.5380    4.5030   -7.5614 C   0  0  0  0  0  0  0  0  0  0  0  0
    7.9842    6.2556   -9.1837 C   0  0  0  0  0  0  0  0  0  0  0  0
    0.7568    9.2350   -9.1521 F   0  0  0  0  0  0  0  0  0  0  0  0
    5.0027    2.6107   -9.4493 N   0  0  0  0  0  0  0  0  0  0  0  0
    3.1471    7.3227   -5.6089 N   0  0  0  0  0  0  0  0  0  0  0  0
    9.9362    7.6365  -10.7390 N   0  0  0  0  0  4  0  0  0  0  0  0
    3.4868    2.7470   -7.8662 N   0  0  0  0  0  0  0  0  0  0  0  0
  2  1  2  0
  1  4  1  0
  1 22  1  0
  3  2  1  0
 13  3  2  0
  3 17  1  0
  4 26  1  0
  6  5  2  0
  5 13  1  0
  5 24  1  0
 15  6  1  0
  6 27  1  0
 27  7  1  0
  8 16  2  0
 25  8  1  0
 10  9  1  0
  9 20  1  0
  9 25  2  0
 10 11  1  0
 10 15  2  0
 11 19  2  0
 19 12  1  0
 12 20  2  0
 12 23  1  0
 13 18  1  0
 24 14  2  0
 14 27  1  0
 15 16  1  0
 18 21  1  0
 18 22  2  0
M  CHG  1  26   1
M  END
$$$$
