
     RDKit          3D

 27 30  0  0  0  0  0  0  0  0999 V2000
    0.0086    5.4431  -22.3735 C   0  0  0  0  0  0  0  0  0  0  0  0
   -1.2999    5.0767  -22.5699 C   0  0  0  0  0  0  0  0  0  0  0  0
   -2.3363    5.9642  -22.3656 C   0  0  0  0  0  0  0  0  0  0  0  0
    1.1294    4.4781  -22.5917 C   0  0  0  0  0  0  0  0  0  0  0  0
   -3.1894    8.2003  -21.7354 C   0  0  0  0  0  0  0  0  0  0  0  0
   -4.1227    8.1536  -20.7367 C   0  0  0  0  0  0  0  0  0  0  0  0
   -6.0915    9.4970  -19.9675 C   0  0  0  0  0  0  0  0  0  0  0  0
   -5.3818    5.3194  -18.6033 C   0  0  0  0  0  0  0  0  0  0  0  0
   -3.4049    6.1178  -17.6695 C   0  0  0  0  0  0  0  0  0  0  0  0
   -3.3014    7.0544  -18.6814 C   0  0  0  0  0  0  0  0  0  0  0  0
   -2.2163    7.9139  -18.6836 C   0  0  0  0  0  0  0  0  0  0  0  0
   -1.4000    6.8699  -16.6786 C   0  0  0  0  0  0  0  0  0  0  0  0
   -2.1020    7.2627  -21.9534 C   0  0  0  0  0  0  0  0  0  0  0  0
   -4.5531    9.9226  -21.9379 C   0  0  0  0  0  0  0  0  0  0  0  0
   -4.2524    7.1487  -19.6969 C   0  0  0  0  0  0  0  0  0  0  0  0
   -5.2933    6.2485  -19.6211 C   0  0  0  0  0  0  0  0  0  0  0  0
   -3.7484    5.4856  -22.6190 C   0  0  0  0  0  0  0  0  0  0  0  0
   -0.7731    7.6118  -21.7621 C   0  0  0  0  0  0  0  0  0  0  0  0
   -1.2808    7.8200  -17.6933 C   0  0  0  0  0  0  0  0  0  0  0  0
   -2.4725    6.0023  -16.6566 C   0  0  0  0  0  0  0  0  0  0  0  0
   -0.4089    8.9745  -21.3406 C   0  0  0  0  0  0  0  0  0  0  0  0
    0.2746    6.7282  -21.9645 C   0  0  0  0  0  0  0  0  0  0  0  0
   -0.4723    6.7753  -15.6938 F   0  0  0  0  0  0  0  0  0  0  0  0
   -3.4812    9.2984  -22.4569 N   0  0  0  0  0  0  0  0  0  0  0  0
   -4.4495    5.2608  -17.6465 N   0  0  0  0  0  0  0  0  0  0  0  0
    0.9740    3.3380  -21.7296 N   0  0  0  0  0  4  0  0  0  0  0  0
   -4.9752    9.2160  -20.8494 N   0  0  0  0  0  0  0  0  0  0  0  0
  2  1  2  0
  1  4  1  0
  1 22  1  0
  3  2  1  0
 13  3  2  0
  3 17  1  0
  4 26  1  0
  6  5  2  0
  5 13  1  0
  5 24  1  0
 15  6  1  0
  6 27  1  0
 27  7  1  0
  8 16  2  0
 25  8  1  0
 10  9  1  0
  9 20  1  0
  9 25  2  0
 10 11  1  0
 10 15  2  0
 11 19  2  0
 19 12  1  0
 12 20  2  0
 12 23  1  0
 13 18  1  0
 24 14  2  0
 14 27  1  0
 15 16  1  0
 18 21  1  0
 18 22  2  0
M  CHG  1  26   1
M  END
$$$$
