
     RDKit          3D

 27 30  0  0  0  0  0  0  0  0999 V2000
   -9.3026   24.4985  -23.8051 C   0  0  0  0  0  0  0  0  0  0  0  0
   -8.6384   24.0625  -24.9249 C   0  0  0  0  0  0  0  0  0  0  0  0
   -8.5628   22.7221  -25.2431 C   0  0  0  0  0  0  0  0  0  0  0  0
   -9.3794   25.9511  -23.4605 C   0  0  0  0  0  0  0  0  0  0  0  0
   -9.0753   20.3462  -24.7767 C   0  0  0  0  0  0  0  0  0  0  0  0
   -8.3563   19.3895  -24.1145 C   0  0  0  0  0  0  0  0  0  0  0  0
   -7.9423   16.9253  -24.2838 C   0  0  0  0  0  0  0  0  0  0  0  0
   -6.9455   19.3297  -20.6251 C   0  0  0  0  0  0  0  0  0  0  0  0
   -5.4526   20.4691  -22.0002 C   0  0  0  0  0  0  0  0  0  0  0  0
   -6.2880   20.2639  -23.0826 C   0  0  0  0  0  0  0  0  0  0  0  0
   -5.9055   20.7527  -24.3199 C   0  0  0  0  0  0  0  0  0  0  0  0
   -3.8905   21.6227  -23.3404 C   0  0  0  0  0  0  0  0  0  0  0  0
   -9.1532   21.7584  -24.4470 C   0  0  0  0  0  0  0  0  0  0  0  0
   -9.3939   18.3947  -25.7549 C   0  0  0  0  0  0  0  0  0  0  0  0
   -7.4941   19.5748  -22.9611 C   0  0  0  0  0  0  0  0  0  0  0  0
   -7.7909   19.1158  -21.6958 C   0  0  0  0  0  0  0  0  0  0  0  0
   -7.8250   22.3264  -26.5026 C   0  0  0  0  0  0  0  0  0  0  0  0
   -9.8197   22.2209  -23.3218 C   0  0  0  0  0  0  0  0  0  0  0  0
   -4.7222   21.4231  -24.4427 C   0  0  0  0  0  0  0  0  0  0  0  0
   -4.2509   21.1437  -22.0977 C   0  0  0  0  0  0  0  0  0  0  0  0
  -10.4994   21.2821  -22.4140 C   0  0  0  0  0  0  0  0  0  0  0  0
   -9.9014   23.5644  -22.9935 C   0  0  0  0  0  0  0  0  0  0  0  0
   -2.7152   22.2888  -23.4600 F   0  0  0  0  0  0  0  0  0  0  0  0
   -9.7013   19.7035  -25.7798 N   0  0  0  0  0  0  0  0  0  0  0  0
   -5.7969   19.9963  -20.7819 N   0  0  0  0  0  0  0  0  0  0  0  0
  -10.7348   26.3127  -23.1454 N   0  0  0  0  0  4  0  0  0  0  0  0
   -8.5446   18.1738  -24.7098 N   0  0  0  0  0  0  0  0  0  0  0  0
  2  1  2  0
  1  4  1  0
  1 22  1  0
  3  2  1  0
 13  3  2  0
  3 17  1  0
  4 26  1  0
  6  5  2  0
  5 13  1  0
  5 24  1  0
 15  6  1  0
  6 27  1  0
 27  7  1  0
  8 16  2  0
 25  8  1  0
 10  9  1  0
  9 20  1  0
  9 25  2  0
 10 11  1  0
 10 15  2  0
 11 19  2  0
 19 12  1  0
 12 20  2  0
 12 23  1  0
 13 18  1  0
 24 14  2  0
 14 27  1  0
 15 16  1  0
 18 21  1  0
 18 22  2  0
M  CHG  1  26   1
M  END
$$$$
