
     RDKit          3D

 27 30  0  0  0  0  0  0  0  0999 V2000
   -3.8440    3.7900  -23.4332 C   0  0  0  0  0  0  0  0  0  0  0  0
   -2.7392    4.1663  -22.7100 C   0  0  0  0  0  0  0  0  0  0  0  0
   -2.6054    5.4449  -22.2092 C   0  0  0  0  0  0  0  0  0  0  0  0
   -3.9844    2.4050  -23.9780 C   0  0  0  0  0  0  0  0  0  0  0  0
   -3.4426    7.7521  -21.8911 C   0  0  0  0  0  0  0  0  0  0  0  0
   -3.8729    8.2053  -20.6744 C   0  0  0  0  0  0  0  0  0  0  0  0
   -3.8475   10.3442  -19.3719 C   0  0  0  0  0  0  0  0  0  0  0  0
   -6.5430    6.3797  -18.7489 C   0  0  0  0  0  0  0  0  0  0  0  0
   -4.5907    6.3729  -17.4814 C   0  0  0  0  0  0  0  0  0  0  0  0
   -3.9378    7.0756  -18.4774 C   0  0  0  0  0  0  0  0  0  0  0  0
   -2.6046    7.4012  -18.2970 C   0  0  0  0  0  0  0  0  0  0  0  0
   -2.6424    6.3185  -16.1516 C   0  0  0  0  0  0  0  0  0  0  0  0
   -3.5792    6.4043  -22.4145 C   0  0  0  0  0  0  0  0  0  0  0  0
   -2.9129    9.8836  -21.6837 C   0  0  0  0  0  0  0  0  0  0  0  0
   -4.5826    7.4546  -19.6543 C   0  0  0  0  0  0  0  0  0  0  0  0
   -5.9057    7.0811  -19.7533 C   0  0  0  0  0  0  0  0  0  0  0  0
   -1.3644    5.7740  -21.4101 C   0  0  0  0  0  0  0  0  0  0  0  0
   -4.6870    6.0026  -23.1466 C   0  0  0  0  0  0  0  0  0  0  0  0
   -1.9694    7.0264  -17.1478 C   0  0  0  0  0  0  0  0  0  0  0  0
   -3.9711    5.9822  -16.3101 C   0  0  0  0  0  0  0  0  0  0  0  0
   -5.7921    6.9391  -23.4093 C   0  0  0  0  0  0  0  0  0  0  0  0
   -4.8308    4.7213  -23.6535 C   0  0  0  0  0  0  0  0  0  0  0  0
   -2.0136    5.9457  -15.0092 F   0  0  0  0  0  0  0  0  0  0  0  0
   -2.8574    8.8071  -22.4876 N   0  0  0  0  0  0  0  0  0  0  0  0
   -5.8902    6.0348  -17.6339 N   0  0  0  0  0  0  0  0  0  0  0  0
   -4.8228    1.6179  -23.1152 N   0  0  0  0  0  4  0  0  0  0  0  0
   -3.5508    9.5257  -20.5317 N   0  0  0  0  0  0  0  0  0  0  0  0
  2  1  2  0
  1  4  1  0
  1 22  1  0
  3  2  1  0
 13  3  2  0
  3 17  1  0
  4 26  1  0
  6  5  2  0
  5 13  1  0
  5 24  1  0
 15  6  1  0
  6 27  1  0
 27  7  1  0
  8 16  2  0
 25  8  1  0
 10  9  1  0
  9 20  1  0
  9 25  2  0
 10 11  1  0
 10 15  2  0
 11 19  2  0
 19 12  1  0
 12 20  2  0
 12 23  1  0
 13 18  1  0
 24 14  2  0
 14 27  1  0
 15 16  1  0
 18 21  1  0
 18 22  2  0
M  CHG  1  26   1
M  END
$$$$
