
     RDKit          3D

 27 30  0  0  0  0  0  0  0  0999 V2000
   -7.8510    9.0674  -27.6786 C   0  0  0  0  0  0  0  0  0  0  0  0
   -7.8039    9.4831  -26.3709 C   0  0  0  0  0  0  0  0  0  0  0  0
   -7.7634   10.8220  -26.0402 C   0  0  0  0  0  0  0  0  0  0  0  0
   -7.8907    7.6159  -28.0341 C   0  0  0  0  0  0  0  0  0  0  0  0
   -7.7240   13.2151  -26.6700 C   0  0  0  0  0  0  0  0  0  0  0  0
   -8.7838   14.0781  -26.6165 C   0  0  0  0  0  0  0  0  0  0  0  0
   -9.1926   16.4896  -26.0780 C   0  0  0  0  0  0  0  0  0  0  0  0
  -12.0664   13.6324  -28.4041 C   0  0  0  0  0  0  0  0  0  0  0  0
  -12.3759   13.1008  -26.1593 C   0  0  0  0  0  0  0  0  0  0  0  0
  -11.0435   13.3716  -25.9081 C   0  0  0  0  0  0  0  0  0  0  0  0
  -10.5648   13.2159  -24.6186 C   0  0  0  0  0  0  0  0  0  0  0  0
  -12.7551   12.5355  -23.9001 C   0  0  0  0  0  0  0  0  0  0  0  0
   -7.7682   11.8045  -27.0127 C   0  0  0  0  0  0  0  0  0  0  0  0
   -7.0033   15.2101  -26.0638 C   0  0  0  0  0  0  0  0  0  0  0  0
  -10.1743   13.7870  -26.9162 C   0  0  0  0  0  0  0  0  0  0  0  0
  -10.7333   13.9064  -28.1704 C   0  0  0  0  0  0  0  0  0  0  0  0
   -7.7280   11.1963  -24.5754 C   0  0  0  0  0  0  0  0  0  0  0  0
   -7.8172   11.3624  -28.3266 C   0  0  0  0  0  0  0  0  0  0  0  0
  -11.4127   12.8038  -23.6307 C   0  0  0  0  0  0  0  0  0  0  0  0
  -13.2540   12.6829  -25.1779 C   0  0  0  0  0  0  0  0  0  0  0  0
   -7.8444   12.3242  -29.4409 C   0  0  0  0  0  0  0  0  0  0  0  0
   -7.8582   10.0206  -28.6690 C   0  0  0  0  0  0  0  0  0  0  0  0
  -13.5990   12.1267  -22.9203 F   0  0  0  0  0  0  0  0  0  0  0  0
   -6.6442   13.9410  -26.3257 N   0  0  0  0  0  0  0  0  0  0  0  0
  -12.8688   13.2367  -27.4102 N   0  0  0  0  0  0  0  0  0  0  0  0
   -6.8406    6.9113  -27.3500 N   0  0  0  0  0  4  0  0  0  0  0  0
   -8.3519   15.3193  -26.2414 N   0  0  0  0  0  0  0  0  0  0  0  0
  2  1  2  0
  1  4  1  0
  1 22  1  0
  3  2  1  0
 13  3  2  0
  3 17  1  0
  4 26  1  0
  6  5  2  0
  5 13  1  0
  5 24  1  0
 15  6  1  0
  6 27  1  0
 27  7  1  0
  8 16  2  0
 25  8  1  0
 10  9  1  0
  9 20  1  0
  9 25  2  0
 10 11  1  0
 10 15  2  0
 11 19  2  0
 19 12  1  0
 12 20  2  0
 12 23  1  0
 13 18  1  0
 24 14  2  0
 14 27  1  0
 15 16  1  0
 18 21  1  0
 18 22  2  0
M  CHG  1  26   1
M  END
$$$$
