
     RDKit          3D

 27 30  0  0  0  0  0  0  0  0999 V2000
   -5.6127    8.7823  -25.2205 C   0  0  0  0  0  0  0  0  0  0  0  0
   -5.4265    7.5062  -24.7494 C   0  0  0  0  0  0  0  0  0  0  0  0
   -4.3388    7.1772  -23.9670 C   0  0  0  0  0  0  0  0  0  0  0  0
   -6.7901    9.1349  -26.0715 C   0  0  0  0  0  0  0  0  0  0  0  0
   -2.2400    7.7782  -22.8012 C   0  0  0  0  0  0  0  0  0  0  0  0
   -2.1886    7.7587  -21.4345 C   0  0  0  0  0  0  0  0  0  0  0  0
   -0.5170    7.2372  -19.6439 C   0  0  0  0  0  0  0  0  0  0  0  0
   -4.6683    9.6674  -19.3422 C   0  0  0  0  0  0  0  0  0  0  0  0
   -4.9303    7.3971  -18.9008 C   0  0  0  0  0  0  0  0  0  0  0  0
   -3.9235    7.1025  -19.8014 C   0  0  0  0  0  0  0  0  0  0  0  0
   -3.5836    5.7767  -20.0088 C   0  0  0  0  0  0  0  0  0  0  0  0
   -5.2567    5.1110  -18.4169 C   0  0  0  0  0  0  0  0  0  0  0  0
   -3.3876    8.1195  -23.6231 C   0  0  0  0  0  0  0  0  0  0  0  0
   -0.2232    7.1536  -22.1612 C   0  0  0  0  0  0  0  0  0  0  0  0
   -3.2521    8.1004  -20.5070 C   0  0  0  0  0  0  0  0  0  0  0  0
   -3.6611    9.3904  -20.2453 C   0  0  0  0  0  0  0  0  0  0  0  0
   -4.2155    5.7521  -23.4761 C   0  0  0  0  0  0  0  0  0  0  0  0
   -3.5958    9.4022  -24.1087 C   0  0  0  0  0  0  0  0  0  0  0  0
   -4.2434    4.7973  -19.3232 C   0  0  0  0  0  0  0  0  0  0  0  0
   -5.6129    6.4253  -18.1948 C   0  0  0  0  0  0  0  0  0  0  0  0
   -2.6540   10.4874  -23.7885 C   0  0  0  0  0  0  0  0  0  0  0  0
   -4.6846    9.7426  -24.8948 C   0  0  0  0  0  0  0  0  0  0  0  0
   -5.9129    4.1398  -17.7345 F   0  0  0  0  0  0  0  0  0  0  0  0
   -1.0167    7.4021  -23.2179 N   0  0  0  0  0  0  0  0  0  0  0  0
   -5.2883    8.6822  -18.6842 N   0  0  0  0  0  0  0  0  0  0  0  0
   -7.6297   10.0792  -25.3856 N   0  0  0  0  0  4  0  0  0  0  0  0
   -0.9438    7.3727  -21.0232 N   0  0  0  0  0  0  0  0  0  0  0  0
  2  1  2  0
  1  4  1  0
  1 22  1  0
  3  2  1  0
 13  3  2  0
  3 17  1  0
  4 26  1  0
  6  5  2  0
  5 13  1  0
  5 24  1  0
 15  6  1  0
  6 27  1  0
 27  7  1  0
  8 16  2  0
 25  8  1  0
 10  9  1  0
  9 20  1  0
  9 25  2  0
 10 11  1  0
 10 15  2  0
 11 19  2  0
 19 12  1  0
 12 20  2  0
 12 23  1  0
 13 18  1  0
 24 14  2  0
 14 27  1  0
 15 16  1  0
 18 21  1  0
 18 22  2  0
M  CHG  1  26   1
M  END
$$$$
