
     RDKit          3D

 40 42  0  0  0  0  0  0  0  0999 V2000
   15.8514  -12.7784   22.8670 O   0  0  0  0  0  0  0  0  0  0  0  0
   15.8653  -11.5093   19.2701 O   0  0  0  0  0  0  0  0  0  0  0  0
   20.5359  -14.1726   26.5901 C   0  0  0  0  0  0  0  0  0  0  0  0
   17.4214  -11.2400   21.0607 C   0  0  2  0  0  0  0  0  0  0  0  0
   12.8375   -9.9411   21.8458 C   0  0  0  0  0  0  0  0  0  0  0  0
   12.3259   -6.4661   23.8349 Cl  0  0  0  0  0  0  0  0  0  0  0  0
   12.1869   -8.1494   23.3095 C   0  0  0  0  0  0  0  0  0  0  0  0
   12.9493   -8.6116   22.2590 C   0  0  0  0  0  0  0  0  0  0  0  0
   11.3045   -8.9609   23.9790 C   0  0  0  0  0  0  0  0  0  0  0  0
   11.1924  -10.2624   23.5779 C   0  0  0  0  0  0  0  0  0  0  0  0
   11.9557  -10.7453   22.5180 C   0  0  0  0  0  0  0  0  0  0  0  0
   11.8166  -12.1645   22.1074 C   0  0  0  0  0  0  0  0  0  0  0  0
   12.6363  -13.0280   22.9509 N   0  0  0  0  0  4  0  0  0  0  0  0
   13.6647  -10.4148   20.7190 C   0  0  0  0  0  0  0  0  0  0  0  0
   15.0254  -10.5620   21.1902 N   0  0  0  0  0  0  0  0  0  0  0  0
   16.0633  -11.1226   20.4288 C   0  0  0  0  0  0  0  0  0  0  0  0
   18.4106  -10.9143   19.9956 C   0  0  0  0  0  0  0  0  0  0  0  0
   18.9187  -12.2809   19.5314 C   0  0  0  0  0  0  0  0  0  0  0  0
   18.9652  -12.9603   20.9044 C   0  0  0  0  0  0  0  0  0  0  0  0
   17.6617  -12.6690   21.4421 N   0  0  0  0  0  0  0  0  0  0  0  0
   16.7446  -13.4120   22.2074 C   0  0  0  0  0  0  0  0  0  0  0  0
   16.6977  -14.9317   22.3416 C   0  0  2  0  0  0  0  0  0  0  0  0
   15.6319  -15.3610   21.4021 C   0  0  0  0  0  0  0  0  0  0  0  0
   15.3518  -16.7771   21.1846 C   0  0  0  0  0  0  0  0  0  0  0  0
   13.8598  -16.9885   20.8200 C   0  0  0  0  0  0  0  0  0  0  0  0
   13.1220  -15.7785   21.0138 N   0  0  0  0  0  0  0  0  0  0  0  0
   12.3482  -15.1802   19.9801 C   0  0  0  0  0  0  0  0  0  0  0  0
   12.9520  -14.2923   19.0522 N   0  0  0  0  0  0  0  0  0  0  0  0
   11.0935  -15.4651   19.9094 N   0  0  0  0  0  0  0  0  0  0  0  0
   16.5004  -15.2390   23.6929 N   0  0  0  0  0  0  0  0  0  0  0  0
   17.9112  -15.2516   24.6206 S   0  0  1  0  0  6  0  0  0  0  0  0
   17.6832  -16.0377   25.9363 O   0  0  0  0  0  0  0  0  0  0  0  0
   19.0064  -16.0850   23.9528 O   0  0  0  0  0  0  0  0  0  0  0  0
   18.6048  -13.7269   25.1291 C   0  0  0  0  0  0  0  0  0  0  0  0
   20.0329  -13.6901   25.3750 C   0  0  0  0  0  0  0  0  0  0  0  0
   20.9909  -13.2589   24.4855 C   0  0  0  0  0  0  0  0  0  0  0  0
   22.3397  -13.2874   24.7443 C   0  0  0  0  0  0  0  0  0  0  0  0
   22.7865  -13.7703   25.9534 C   0  0  0  0  0  0  0  0  0  0  0  0
   21.8761  -14.2106   26.8693 C   0  0  0  0  0  0  0  0  0  0  0  0
   10.5878  -15.8676   20.6983 H   0  0  0  0  0  0  0  0  0  0  0  0
 21  1  2  0
 16  2  2  0
 35  3  2  0
  3 39  1  0
  4 16  1  6
  4 17  1  0
 20  4  1  0
  5  8  1  0
  5 11  2  0
 14  5  1  0
  7  6  1  0
  8  7  2  0
  7  9  1  0
 10  9  2  0
 11 10  1  0
 11 12  1  0
 12 13  1  0
 15 14  1  0
 16 15  1  0
 18 17  1  0
 19 18  1  0
 20 19  1  0
 21 20  1  0
 22 21  1  0
 22 23  1  6
 30 22  1  0
 23 24  1  0
 24 25  1  0
 25 26  1  0
 26 27  1  0
 27 28  1  0
 27 29  2  0
 31 30  1  0
 31 32  2  0
 31 33  2  0
 31 34  1  1
 34 35  1  0
 35 36  1  0
 36 37  2  0
 37 38  1  0
 38 39  2  0
 29 40  1  0
M  CHG  1  13   1
M  END
$$$$
