
     RDKit          3D

 40 42  0  0  0  0  0  0  0  0999 V2000
   16.4454  -12.7460   23.7761 O   0  0  0  0  0  0  0  0  0  0  0  0
   15.6330  -11.7296   21.5494 O   0  0  0  0  0  0  0  0  0  0  0  0
   20.9644  -15.3100   24.2394 C   0  0  0  0  0  0  0  0  0  0  0  0
   18.0035  -12.0039   21.4735 C   0  0  2  0  0  0  0  0  0  0  0  0
   14.9038   -9.2292   20.8770 C   0  0  0  0  0  0  0  0  0  0  0  0
   13.4628   -7.7299   24.3367 Cl  0  0  0  0  0  0  0  0  0  0  0  0
   13.6208   -8.6179   22.8151 C   0  0  0  0  0  0  0  0  0  0  0  0
   14.7817   -8.5273   22.0783 C   0  0  0  0  0  0  0  0  0  0  0  0
   12.5590   -9.3865   22.4061 C   0  0  0  0  0  0  0  0  0  0  0  0
   12.6748  -10.0750   21.2314 C   0  0  0  0  0  0  0  0  0  0  0  0
   13.8411   -9.9942   20.4749 C   0  0  0  0  0  0  0  0  0  0  0  0
   13.9405  -10.7566   19.2057 C   0  0  0  0  0  0  0  0  0  0  0  0
   13.2320  -10.0666   18.1328 N   0  0  0  0  0  4  0  0  0  0  0  0
   16.1567   -9.1182   20.1048 C   0  0  0  0  0  0  0  0  0  0  0  0
   16.7393  -10.4392   20.0001 N   0  0  0  0  0  0  0  0  0  0  0  0
   16.7040  -11.3962   21.0268 C   0  0  0  0  0  0  0  0  0  0  0  0
   18.8411  -12.1519   20.2507 C   0  0  0  0  0  0  0  0  0  0  0  0
   18.7040  -13.6312   19.8845 C   0  0  0  0  0  0  0  0  0  0  0  0
   18.7270  -14.1985   21.3081 C   0  0  0  0  0  0  0  0  0  0  0  0
   17.7461  -13.3892   21.9834 N   0  0  0  0  0  0  0  0  0  0  0  0
   16.7637  -13.6687   22.9506 C   0  0  0  0  0  0  0  0  0  0  0  0
   16.0166  -14.9877   23.1285 C   0  0  2  0  0  0  0  0  0  0  0  0
   14.5857  -14.6391   22.9440 C   0  0  0  0  0  0  0  0  0  0  0  0
   14.1401  -13.9074   21.7619 C   0  0  0  0  0  0  0  0  0  0  0  0
   13.2898  -14.8215   20.8427 C   0  0  0  0  0  0  0  0  0  0  0  0
   12.0483  -14.1888   20.5197 N   0  0  0  0  0  0  0  0  0  0  0  0
   11.0665  -13.8829   21.5035 C   0  0  0  0  0  0  0  0  0  0  0  0
   10.9942  -12.5826   22.0670 N   0  0  0  0  0  0  0  0  0  0  0  0
   10.2502  -14.8119   21.8655 N   0  0  0  0  0  0  0  0  0  0  0  0
   16.3743  -15.5213   24.3722 N   0  0  0  0  0  0  0  0  0  0  0  0
   18.0387  -15.6606   24.6209 S   0  0  1  0  0  6  0  0  0  0  0  0
   18.3344  -16.7445   25.6880 O   0  0  0  0  0  0  0  0  0  0  0  0
   18.7360  -16.2444   23.3910 O   0  0  0  0  0  0  0  0  0  0  0  0
   18.9363  -14.2557   25.1547 C   0  0  0  0  0  0  0  0  0  0  0  0
   20.3463  -14.1968   24.8232 C   0  0  0  0  0  0  0  0  0  0  0  0
   21.1645  -13.1013   24.9830 C   0  0  0  0  0  0  0  0  0  0  0  0
   22.4860  -13.0757   24.6091 C   0  0  0  0  0  0  0  0  0  0  0  0
   23.0498  -14.1948   24.0393 C   0  0  0  0  0  0  0  0  0  0  0  0
   22.2799  -15.3067   23.8587 C   0  0  0  0  0  0  0  0  0  0  0  0
   10.1974  -15.7037   21.3735 H   0  0  0  0  0  0  0  0  0  0  0  0
 21  1  2  0
 16  2  2  0
 35  3  2  0
  3 39  1  0
  4 16  1  6
  4 17  1  0
 20  4  1  0
  5  8  1  0
  5 11  2  0
 14  5  1  0
  7  6  1  0
  8  7  2  0
  7  9  1  0
 10  9  2  0
 11 10  1  0
 11 12  1  0
 12 13  1  0
 15 14  1  0
 16 15  1  0
 18 17  1  0
 19 18  1  0
 20 19  1  0
 21 20  1  0
 22 21  1  0
 22 23  1  1
 30 22  1  0
 23 24  1  0
 24 25  1  0
 25 26  1  0
 26 27  1  0
 27 28  1  0
 27 29  2  0
 31 30  1  0
 31 32  2  0
 31 33  2  0
 31 34  1  1
 34 35  1  0
 35 36  1  0
 36 37  2  0
 37 38  1  0
 38 39  2  0
 29 40  1  0
M  CHG  1  13   1
M  END
$$$$
