
     RDKit          3D

 40 42  0  0  0  0  0  0  0  0999 V2000
   16.1819  -13.2379   23.0039 O   0  0  0  0  0  0  0  0  0  0  0  0
   15.8732  -12.2811   19.8087 O   0  0  0  0  0  0  0  0  0  0  0  0
   20.7279  -13.4937   26.2059 C   0  0  0  0  0  0  0  0  0  0  0  0
   17.5497  -11.4040   21.2646 C   0  0  2  0  0  0  0  0  0  0  0  0
   13.1351   -9.8967   21.5196 C   0  0  0  0  0  0  0  0  0  0  0  0
   13.0914   -7.1747   24.5000 Cl  0  0  0  0  0  0  0  0  0  0  0  0
   12.6747   -8.5294   23.4417 C   0  0  0  0  0  0  0  0  0  0  0  0
   13.4665   -8.8268   22.3539 C   0  0  0  0  0  0  0  0  0  0  0  0
   11.5508   -9.2583   23.7430 C   0  0  0  0  0  0  0  0  0  0  0  0
   11.2234  -10.3061   22.9292 C   0  0  0  0  0  0  0  0  0  0  0  0
   12.0130  -10.6199   21.8260 C   0  0  0  0  0  0  0  0  0  0  0  0
   11.6357  -11.7664   20.9626 C   0  0  0  0  0  0  0  0  0  0  0  0
   11.9093  -13.0314   21.6366 N   0  0  0  0  0  4  0  0  0  0  0  0
   13.9983  -10.1978   20.3609 C   0  0  0  0  0  0  0  0  0  0  0  0
   15.3656  -10.2830   20.8282 N   0  0  0  0  0  0  0  0  0  0  0  0
   16.2147  -11.3724   20.5761 C   0  0  0  0  0  0  0  0  0  0  0  0
   18.5436  -10.8941   20.2790 C   0  0  0  0  0  0  0  0  0  0  0  0
   19.2106  -12.1600   19.7368 C   0  0  0  0  0  0  0  0  0  0  0  0
   19.2699  -12.9415   21.0539 C   0  0  0  0  0  0  0  0  0  0  0  0
   17.9216  -12.8280   21.5462 N   0  0  0  0  0  0  0  0  0  0  0  0
   17.0556  -13.7197   22.2046 C   0  0  0  0  0  0  0  0  0  0  0  0
   17.0443  -15.2398   22.0672 C   0  0  2  0  0  0  0  0  0  0  0  0
   15.6986  -15.5603   21.5293 C   0  0  0  0  0  0  0  0  0  0  0  0
   15.4509  -16.8198   20.8341 C   0  0  0  0  0  0  0  0  0  0  0  0
   14.0202  -16.8417   20.2372 C   0  0  0  0  0  0  0  0  0  0  0  0
   13.1356  -17.5766   21.0877 N   0  0  0  0  0  0  0  0  0  0  0  0
   11.7434  -17.7001   20.8197 C   0  0  0  0  0  0  0  0  0  0  0  0
   11.1198  -16.8653   19.8563 N   0  0  0  0  0  0  0  0  0  0  0  0
   11.0692  -18.5849   21.4702 N   0  0  0  0  0  0  0  0  0  0  0  0
   17.3651  -15.7876   23.3147 N   0  0  0  0  0  0  0  0  0  0  0  0
   17.7133  -14.6476   24.5107 S   0  0  1  0  0  6  0  0  0  0  0  0
   18.2595  -13.3462   23.8710 O   0  0  0  0  0  0  0  0  0  0  0  0
   16.4359  -14.1437   25.1848 O   0  0  0  0  0  0  0  0  0  0  0  0
   18.8762  -15.0525   25.7548 C   0  0  0  0  0  0  0  0  0  0  0  0
   20.2490  -14.6346   25.5494 C   0  0  0  0  0  0  0  0  0  0  0  0
   21.1843  -15.2945   24.7847 C   0  0  0  0  0  0  0  0  0  0  0  0
   22.4899  -14.8870   24.6575 C   0  0  0  0  0  0  0  0  0  0  0  0
   22.9143  -13.7587   25.3220 C   0  0  0  0  0  0  0  0  0  0  0  0
   22.0251  -13.0693   26.0938 C   0  0  0  0  0  0  0  0  0  0  0  0
   11.4730  -19.1023   22.2509 H   0  0  0  0  0  0  0  0  0  0  0  0
 21  1  2  0
 16  2  2  0
 35  3  2  0
  3 39  1  0
  4 16  1  6
  4 17  1  0
 20  4  1  0
  5  8  1  0
  5 11  2  0
 14  5  1  0
  7  6  1  0
  8  7  2  0
  7  9  1  0
 10  9  2  0
 11 10  1  0
 11 12  1  0
 12 13  1  0
 15 14  1  0
 16 15  1  0
 18 17  1  0
 19 18  1  0
 20 19  1  0
 21 20  1  0
 22 21  1  0
 22 23  1  1
 30 22  1  0
 23 24  1  0
 24 25  1  0
 25 26  1  0
 26 27  1  0
 27 28  1  0
 27 29  2  0
 31 30  1  0
 31 32  2  0
 31 33  2  0
 31 34  1  1
 34 35  1  0
 35 36  1  0
 36 37  2  0
 37 38  1  0
 38 39  2  0
 29 40  1  0
M  CHG  1  13   1
M  END
$$$$
