
     RDKit          3D

 40 42  0  0  0  0  0  0  0  0999 V2000
   15.0914  -12.0450   20.6620 O   0  0  0  0  0  0  0  0  0  0  0  0
   15.7674  -16.1319   20.1183 O   0  0  0  0  0  0  0  0  0  0  0  0
   19.9753  -13.6132   25.2027 C   0  0  0  0  0  0  0  0  0  0  0  0
   15.3730  -14.4410   18.4796 C   0  0  2  0  0  0  0  0  0  0  0  0
   11.8739  -16.8709   17.7893 C   0  0  0  0  0  0  0  0  0  0  0  0
    8.6562  -18.5753   19.5313 Cl  0  0  0  0  0  0  0  0  0  0  0  0
    9.9771  -18.2081   18.4137 C   0  0  0  0  0  0  0  0  0  0  0  0
   10.8320  -17.1591   18.6735 C   0  0  0  0  0  0  0  0  0  0  0  0
   10.1127  -18.9964   17.2977 C   0  0  0  0  0  0  0  0  0  0  0  0
   11.1312  -18.7178   16.4303 C   0  0  0  0  0  0  0  0  0  0  0  0
   12.0038  -17.6613   16.6781 C   0  0  0  0  0  0  0  0  0  0  0  0
   13.1038  -17.3851   15.7210 C   0  0  0  0  0  0  0  0  0  0  0  0
   12.6985  -16.3774   14.7466 N   0  0  0  0  0  4  0  0  0  0  0  0
   12.7781  -15.7433   18.0881 C   0  0  0  0  0  0  0  0  0  0  0  0
   13.6904  -16.1621   19.1310 N   0  0  0  0  0  0  0  0  0  0  0  0
   14.9788  -15.6322   19.3061 C   0  0  0  0  0  0  0  0  0  0  0  0
   16.2445  -14.9568   17.3871 C   0  0  0  0  0  0  0  0  0  0  0  0
   17.6629  -14.6307   17.8594 C   0  0  0  0  0  0  0  0  0  0  0  0
   17.3649  -13.2581   18.4728 C   0  0  0  0  0  0  0  0  0  0  0  0
   16.2252  -13.5300   19.3096 N   0  0  0  0  0  0  0  0  0  0  0  0
   15.8345  -13.0823   20.5847 C   0  0  0  0  0  0  0  0  0  0  0  0
   16.2108  -13.7149   21.9218 C   0  0  2  0  0  0  0  0  0  0  0  0
   14.9447  -13.7427   22.6959 C   0  0  0  0  0  0  0  0  0  0  0  0
   13.6849  -13.3291   22.0853 C   0  0  0  0  0  0  0  0  0  0  0  0
   12.5210  -13.4458   23.1029 C   0  0  0  0  0  0  0  0  0  0  0  0
   11.5072  -12.4788   22.8149 N   0  0  0  0  0  0  0  0  0  0  0  0
   11.5140  -11.1719   23.3783 C   0  0  0  0  0  0  0  0  0  0  0  0
   12.7030  -10.6367   23.9384 N   0  0  0  0  0  0  0  0  0  0  0  0
   10.4194  -10.4922   23.3654 N   0  0  0  0  0  0  0  0  0  0  0  0
   17.2620  -12.9706   22.4699 N   0  0  0  0  0  0  0  0  0  0  0  0
   18.7641  -13.7404   22.4207 S   0  0  1  0  0  6  0  0  0  0  0  0
   18.7659  -14.9772   23.3542 O   0  0  0  0  0  0  0  0  0  0  0  0
   19.0111  -14.3870   21.0566 O   0  0  0  0  0  0  0  0  0  0  0  0
   20.1939  -12.8388   22.8758 C   0  0  0  0  0  0  0  0  0  0  0  0
   20.4511  -12.6619   24.2914 C   0  0  0  0  0  0  0  0  0  0  0  0
   21.1853  -11.6422   24.8537 C   0  0  0  0  0  0  0  0  0  0  0  0
   21.4444  -11.5412   26.1989 C   0  0  0  0  0  0  0  0  0  0  0  0
   20.9551  -12.5007   27.0560 C   0  0  0  0  0  0  0  0  0  0  0  0
   20.2217  -13.5328   26.5475 C   0  0  0  0  0  0  0  0  0  0  0  0
    9.5568  -10.8685   22.9722 H   0  0  0  0  0  0  0  0  0  0  0  0
 21  1  2  0
 16  2  2  0
 35  3  2  0
  3 39  1  0
  4 16  1  1
  4 17  1  0
 20  4  1  0
  5  8  1  0
  5 11  2  0
 14  5  1  0
  7  6  1  0
  8  7  2  0
  7  9  1  0
 10  9  2  0
 11 10  1  0
 11 12  1  0
 12 13  1  0
 15 14  1  0
 16 15  1  0
 18 17  1  0
 19 18  1  0
 20 19  1  0
 21 20  1  0
 22 21  1  0
 22 23  1  1
 30 22  1  0
 23 24  1  0
 24 25  1  0
 25 26  1  0
 26 27  1  0
 27 28  1  0
 27 29  2  0
 31 30  1  0
 31 32  2  0
 31 33  2  0
 31 34  1  1
 34 35  1  0
 35 36  1  0
 36 37  2  0
 37 38  1  0
 38 39  2  0
 29 40  1  0
M  CHG  1  13   1
M  END
$$$$
