
     RDKit          3D

 40 42  0  0  0  0  0  0  0  0999 V2000
   15.3687  -12.1689   21.7136 O   0  0  0  0  0  0  0  0  0  0  0  0
   14.9699  -12.7690   18.8364 O   0  0  0  0  0  0  0  0  0  0  0  0
   20.2674  -15.2432   23.5815 C   0  0  0  0  0  0  0  0  0  0  0  0
   17.2297  -12.5822   19.5834 C   0  0  2  0  0  0  0  0  0  0  0  0
   18.1364   -9.9313   17.2112 C   0  0  0  0  0  0  0  0  0  0  0  0
   22.1477  -10.3793   17.1611 Cl  0  0  0  0  0  0  0  0  0  0  0  0
   20.4675  -10.1374   16.6640 C   0  0  0  0  0  0  0  0  0  0  0  0
   19.4623  -10.1221   17.6064 C   0  0  0  0  0  0  0  0  0  0  0  0
   20.2111   -9.9689   15.3256 C   0  0  0  0  0  0  0  0  0  0  0  0
   18.9150   -9.7816   14.9351 C   0  0  0  0  0  0  0  0  0  0  0  0
   17.8875   -9.7635   15.8748 C   0  0  0  0  0  0  0  0  0  0  0  0
   16.4900   -9.5533   15.4221 C   0  0  0  0  0  0  0  0  0  0  0  0
   15.9874  -10.7376   14.7336 N   0  0  0  0  0  4  0  0  0  0  0  0
   17.0761   -9.9175   18.2379 C   0  0  0  0  0  0  0  0  0  0  0  0
   16.1692  -11.0116   17.9630 N   0  0  0  0  0  0  0  0  0  0  0  0
   16.0376  -12.1460   18.7798 C   0  0  0  0  0  0  0  0  0  0  0  0
   18.1378  -13.2904   18.6385 C   0  0  0  0  0  0  0  0  0  0  0  0
   17.8769  -14.7726   18.9145 C   0  0  0  0  0  0  0  0  0  0  0  0
   17.7332  -14.6762   20.4374 C   0  0  0  0  0  0  0  0  0  0  0  0
   16.7928  -13.5974   20.5953 N   0  0  0  0  0  0  0  0  0  0  0  0
   15.7163  -13.3754   21.4732 C   0  0  0  0  0  0  0  0  0  0  0  0
   14.8963  -14.4445   22.1902 C   0  0  2  0  0  0  0  0  0  0  0  0
   13.5676  -13.8194   22.4066 C   0  0  0  0  0  0  0  0  0  0  0  0
   12.9091  -13.0725   21.3390 C   0  0  0  0  0  0  0  0  0  0  0  0
   11.4349  -12.7713   21.7129 C   0  0  0  0  0  0  0  0  0  0  0  0
   11.3337  -12.4094   23.0930 N   0  0  0  0  0  0  0  0  0  0  0  0
   11.4120  -11.0599   23.5379 C   0  0  0  0  0  0  0  0  0  0  0  0
   11.4773   -9.9965   22.6005 N   0  0  0  0  0  0  0  0  0  0  0  0
   11.4210  -10.8312   24.8060 N   0  0  0  0  0  0  0  0  0  0  0  0
   15.5998  -14.8299   23.3374 N   0  0  0  0  0  0  0  0  0  0  0  0
   16.3955  -16.3133   23.2045 S   0  0  1  0  0  6  0  0  0  0  0  0
   16.1406  -17.1756   24.4664 O   0  0  0  0  0  0  0  0  0  0  0  0
   15.7714  -17.1811   22.1103 O   0  0  0  0  0  0  0  0  0  0  0  0
   18.1341  -16.3272   23.0013 C   0  0  0  0  0  0  0  0  0  0  0  0
   18.9167  -15.4733   23.8729 C   0  0  0  0  0  0  0  0  0  0  0  0
   18.4419  -14.7978   24.9744 C   0  0  0  0  0  0  0  0  0  0  0  0
   19.2106  -13.9595   25.7446 C   0  0  0  0  0  0  0  0  0  0  0  0
   20.5338  -13.7649   25.4189 C   0  0  0  0  0  0  0  0  0  0  0  0
   21.0522  -14.4116   24.3350 C   0  0  0  0  0  0  0  0  0  0  0  0
   11.4163  -11.5883   25.4894 H   0  0  0  0  0  0  0  0  0  0  0  0
 21  1  2  0
 16  2  2  0
 35  3  2  0
  3 39  1  0
  4 16  1  6
  4 17  1  0
 20  4  1  0
  5  8  1  0
  5 11  2  0
 14  5  1  0
  7  6  1  0
  8  7  2  0
  7  9  1  0
 10  9  2  0
 11 10  1  0
 11 12  1  0
 12 13  1  0
 15 14  1  0
 16 15  1  0
 18 17  1  0
 19 18  1  0
 20 19  1  0
 21 20  1  0
 22 21  1  0
 22 23  1  1
 30 22  1  0
 23 24  1  0
 24 25  1  0
 25 26  1  0
 26 27  1  0
 27 28  1  0
 27 29  2  0
 31 30  1  0
 31 32  2  0
 31 33  2  0
 31 34  1  6
 34 35  1  0
 35 36  1  0
 36 37  2  0
 37 38  1  0
 38 39  2  0
 29 40  1  0
M  CHG  1  13   1
M  END
$$$$
