
     RDKit          3D

 40 42  0  0  0  0  0  0  0  0999 V2000
   15.4946  -12.6959   22.3066 O   0  0  0  0  0  0  0  0  0  0  0  0
   15.8874  -13.4838   18.8562 O   0  0  0  0  0  0  0  0  0  0  0  0
   18.9972  -16.8811   27.1702 C   0  0  0  0  0  0  0  0  0  0  0  0
   17.4550  -12.3508   20.2557 C   0  0  2  0  0  0  0  0  0  0  0  0
   14.9182   -8.9597   19.0592 C   0  0  0  0  0  0  0  0  0  0  0  0
   13.3554   -6.2875   21.6497 Cl  0  0  0  0  0  0  0  0  0  0  0  0
   13.6549   -7.2692   20.2091 C   0  0  0  0  0  0  0  0  0  0  0  0
   14.6835   -8.1860   20.1980 C   0  0  0  0  0  0  0  0  0  0  0  0
   12.8359   -7.0833   19.1229 C   0  0  0  0  0  0  0  0  0  0  0  0
   13.0621   -7.8386   18.0068 C   0  0  0  0  0  0  0  0  0  0  0  0
   14.0973   -8.7694   17.9793 C   0  0  0  0  0  0  0  0  0  0  0  0
   14.3165   -9.5792   16.7551 C   0  0  0  0  0  0  0  0  0  0  0  0
   13.2243  -10.5272   16.5616 N   0  0  0  0  0  4  0  0  0  0  0  0
   16.0247   -9.9363   19.0701 C   0  0  0  0  0  0  0  0  0  0  0  0
   15.4576  -11.2572   19.2399 N   0  0  0  0  0  0  0  0  0  0  0  0
   16.2212  -12.4243   19.4015 C   0  0  0  0  0  0  0  0  0  0  0  0
   18.6063  -12.6478   19.3583 C   0  0  0  0  0  0  0  0  0  0  0  0
   18.9396  -14.1113   19.6553 C   0  0  0  0  0  0  0  0  0  0  0  0
   18.7078  -14.0719   21.1698 C   0  0  0  0  0  0  0  0  0  0  0  0
   17.4128  -13.4509   21.2722 N   0  0  0  0  0  0  0  0  0  0  0  0
   16.3012  -13.6673   22.1066 C   0  0  0  0  0  0  0  0  0  0  0  0
   15.9429  -14.9685   22.8194 C   0  0  2  0  0  0  0  0  0  0  0  0
   14.4655  -15.0633   22.7122 C   0  0  0  0  0  0  0  0  0  0  0  0
   13.8256  -15.3647   21.4352 C   0  0  0  0  0  0  0  0  0  0  0  0
   12.6126  -16.3078   21.6418 C   0  0  0  0  0  0  0  0  0  0  0  0
   11.7683  -15.8141   22.6855 N   0  0  0  0  0  0  0  0  0  0  0  0
   10.7755  -14.8196   22.4607 C   0  0  0  0  0  0  0  0  0  0  0  0
   10.0497  -14.7909   21.2416 N   0  0  0  0  0  0  0  0  0  0  0  0
   10.5544  -13.9524   23.3878 N   0  0  0  0  0  0  0  0  0  0  0  0
   16.4730  -14.9109   24.1137 N   0  0  0  0  0  0  0  0  0  0  0  0
   18.1234  -15.2546   24.2095 S   0  0  1  0  0  6  0  0  0  0  0  0
   18.7932  -15.0680   22.8247 O   0  0  0  0  0  0  0  0  0  0  0  0
   18.8596  -14.2086   25.0483 O   0  0  0  0  0  0  0  0  0  0  0  0
   18.6286  -16.8458   24.7360 C   0  0  0  0  0  0  0  0  0  0  0  0
   19.5245  -16.9213   25.8732 C   0  0  0  0  0  0  0  0  0  0  0  0
   20.8901  -17.0841   25.8113 C   0  0  0  0  0  0  0  0  0  0  0  0
   21.6951  -17.1993   26.9183 C   0  0  0  0  0  0  0  0  0  0  0  0
   21.1308  -17.1536   28.1730 C   0  0  0  0  0  0  0  0  0  0  0  0
   19.7806  -16.9943   28.2878 C   0  0  0  0  0  0  0  0  0  0  0  0
   11.0928  -13.9414   24.2539 H   0  0  0  0  0  0  0  0  0  0  0  0
 21  1  2  0
 16  2  2  0
 35  3  2  0
  3 39  1  0
  4 16  1  6
  4 17  1  0
 20  4  1  0
  5  8  1  0
  5 11  2  0
 14  5  1  0
  7  6  1  0
  8  7  2  0
  7  9  1  0
 10  9  2  0
 11 10  1  0
 11 12  1  0
 12 13  1  0
 15 14  1  0
 16 15  1  0
 18 17  1  0
 19 18  1  0
 20 19  1  0
 21 20  1  0
 22 21  1  0
 22 23  1  1
 30 22  1  0
 23 24  1  0
 24 25  1  0
 25 26  1  0
 26 27  1  0
 27 28  1  0
 27 29  2  0
 31 30  1  0
 31 32  2  0
 31 33  2  0
 31 34  1  1
 34 35  1  0
 35 36  1  0
 36 37  2  0
 37 38  1  0
 38 39  2  0
 29 40  1  0
M  CHG  1  13   1
M  END
$$$$
