
     RDKit          3D

 40 42  0  0  0  0  0  0  0  0999 V2000
   15.8015  -13.6708   22.1948 O   0  0  0  0  0  0  0  0  0  0  0  0
   17.2561  -11.2888   19.7158 O   0  0  0  0  0  0  0  0  0  0  0  0
   17.0258  -17.4749   22.1905 C   0  0  0  0  0  0  0  0  0  0  0  0
   17.5582  -13.6513   19.8807 C   0  0  2  0  0  0  0  0  0  0  0  0
   20.4142  -13.1297   22.5725 C   0  0  0  0  0  0  0  0  0  0  0  0
   22.2225  -11.9827   25.9942 Cl  0  0  0  0  0  0  0  0  0  0  0  0
   21.3613  -12.9280   24.7721 C   0  0  0  0  0  0  0  0  0  0  0  0
   21.0947  -12.3814   23.5356 C   0  0  0  0  0  0  0  0  0  0  0  0
   20.9765  -14.2045   25.1003 C   0  0  0  0  0  0  0  0  0  0  0  0
   20.3106  -14.9399   24.1605 C   0  0  0  0  0  0  0  0  0  0  0  0
   20.0334  -14.4024   22.9062 C   0  0  0  0  0  0  0  0  0  0  0  0
   19.3131  -15.2260   21.9037 C   0  0  0  0  0  0  0  0  0  0  0  0
   18.9509  -16.5229   22.4661 N   0  0  0  0  0  4  0  0  0  0  0  0
   20.1405  -12.5245   21.2545 C   0  0  0  0  0  0  0  0  0  0  0  0
   18.7941  -11.9933   21.2740 N   0  0  0  0  0  0  0  0  0  0  0  0
   17.8432  -12.2278   20.2680 C   0  0  0  0  0  0  0  0  0  0  0  0
   17.9756  -13.7918   18.4577 C   0  0  0  0  0  0  0  0  0  0  0  0
   16.6626  -13.7079   17.6765 C   0  0  0  0  0  0  0  0  0  0  0  0
   15.7919  -14.5086   18.6510 C   0  0  0  0  0  0  0  0  0  0  0  0
   16.0778  -13.8806   19.9147 N   0  0  0  0  0  0  0  0  0  0  0  0
   15.2870  -13.5519   21.0306 C   0  0  0  0  0  0  0  0  0  0  0  0
   13.8435  -13.0567   21.0042 C   0  0  2  0  0  0  0  0  0  0  0  0
   13.8670  -11.7837   21.7669 C   0  0  0  0  0  0  0  0  0  0  0  0
   12.8766  -10.7414   21.5143 C   0  0  0  0  0  0  0  0  0  0  0  0
   11.6403  -10.9298   22.4307 C   0  0  0  0  0  0  0  0  0  0  0  0
   10.7436   -9.8240   22.2931 N   0  0  0  0  0  0  0  0  0  0  0  0
    9.6384   -9.6217   23.1667 C   0  0  0  0  0  0  0  0  0  0  0  0
    9.1512   -8.3129   23.4186 N   0  0  0  0  0  0  0  0  0  0  0  0
    9.0953  -10.6520   23.7181 N   0  0  0  0  0  0  0  0  0  0  0  0
   13.0292  -14.0751   21.5132 N   0  0  0  0  0  0  0  0  0  0  0  0
   13.6382  -15.6343   21.2916 S   0  0  1  0  0  6  0  0  0  0  0  0
   13.0963  -16.5848   22.3888 O   0  0  0  0  0  0  0  0  0  0  0  0
   13.0709  -16.2760   20.0242 O   0  0  0  0  0  0  0  0  0  0  0  0
   15.3716  -15.8777   21.3101 C   0  0  0  0  0  0  0  0  0  0  0  0
   15.8552  -17.2361   21.4592 C   0  0  0  0  0  0  0  0  0  0  0  0
   15.2344  -18.3675   20.9800 C   0  0  0  0  0  0  0  0  0  0  0  0
   15.7050  -19.6413   21.1873 C   0  0  0  0  0  0  0  0  0  0  0  0
   16.8604  -19.8260   21.9124 C   0  0  0  0  0  0  0  0  0  0  0  0
   17.5130  -18.7359   22.4097 C   0  0  0  0  0  0  0  0  0  0  0  0
    9.4732  -11.5910   23.5934 H   0  0  0  0  0  0  0  0  0  0  0  0
 21  1  2  0
 16  2  2  0
 35  3  2  0
  3 39  1  0
  4 16  1  6
  4 17  1  0
 20  4  1  0
  5  8  1  0
  5 11  2  0
 14  5  1  0
  7  6  1  0
  8  7  2  0
  7  9  1  0
 10  9  2  0
 11 10  1  0
 11 12  1  0
 12 13  1  0
 15 14  1  0
 16 15  1  0
 18 17  1  0
 19 18  1  0
 20 19  1  0
 21 20  1  0
 22 21  1  0
 22 23  1  1
 30 22  1  0
 23 24  1  0
 24 25  1  0
 25 26  1  0
 26 27  1  0
 27 28  1  0
 27 29  2  0
 31 30  1  0
 31 32  2  0
 31 33  2  0
 31 34  1  6
 34 35  1  0
 35 36  1  0
 36 37  2  0
 37 38  1  0
 38 39  2  0
 29 40  1  0
M  CHG  1  13   1
M  END
$$$$
