
     RDKit          3D

 40 42  0  0  0  0  0  0  0  0999 V2000
   16.6236  -13.5139   22.8681 O   0  0  0  0  0  0  0  0  0  0  0  0
   16.8208  -12.3998   19.4061 O   0  0  0  0  0  0  0  0  0  0  0  0
   20.5887  -14.9804   25.0415 C   0  0  0  0  0  0  0  0  0  0  0  0
   18.1873  -11.6713   21.2233 C   0  0  2  0  0  0  0  0  0  0  0  0
   13.8154  -11.2394   21.0026 C   0  0  0  0  0  0  0  0  0  0  0  0
   13.5520  -14.9086   22.6643 Cl  0  0  0  0  0  0  0  0  0  0  0  0
   13.2443  -13.2194   22.2392 C   0  0  0  0  0  0  0  0  0  0  0  0
   14.0603  -12.5733   21.3363 C   0  0  0  0  0  0  0  0  0  0  0  0
   12.1790  -12.5905   22.8350 C   0  0  0  0  0  0  0  0  0  0  0  0
   11.9360  -11.2854   22.5109 C   0  0  0  0  0  0  0  0  0  0  0  0
   12.7511  -10.6180   21.6003 C   0  0  0  0  0  0  0  0  0  0  0  0
   12.4603   -9.2023   21.2636 C   0  0  0  0  0  0  0  0  0  0  0  0
   12.9412   -8.3128   22.3156 N   0  0  0  0  0  4  0  0  0  0  0  0
   14.7017  -10.5676   20.0323 C   0  0  0  0  0  0  0  0  0  0  0  0
   16.0454  -10.5742   20.5705 N   0  0  0  0  0  0  0  0  0  0  0  0
   16.9826  -11.5915   20.3291 C   0  0  0  0  0  0  0  0  0  0  0  0
   19.3420  -11.1845   20.4179 C   0  0  0  0  0  0  0  0  0  0  0  0
   20.0499  -12.4660   19.9729 C   0  0  0  0  0  0  0  0  0  0  0  0
   19.8723  -13.2605   21.2715 C   0  0  0  0  0  0  0  0  0  0  0  0
   18.4662  -13.1087   21.5415 N   0  0  0  0  0  0  0  0  0  0  0  0
   17.4790  -13.9784   22.0394 C   0  0  0  0  0  0  0  0  0  0  0  0
   17.3127  -15.4550   21.6910 C   0  0  2  0  0  0  0  0  0  0  0  0
   15.8447  -15.6682   21.6408 C   0  0  0  0  0  0  0  0  0  0  0  0
   15.1209  -15.5971   20.3750 C   0  0  0  0  0  0  0  0  0  0  0  0
   13.7482  -16.3084   20.4907 C   0  0  0  0  0  0  0  0  0  0  0  0
   12.8082  -15.4721   21.1711 N   0  0  0  0  0  0  0  0  0  0  0  0
   11.6962  -14.8769   20.5118 C   0  0  0  0  0  0  0  0  0  0  0  0
   10.6576  -15.6855   19.9817 N   0  0  0  0  0  0  0  0  0  0  0  0
   11.6579  -13.5929   20.4108 N   0  0  0  0  0  0  0  0  0  0  0  0
   18.0208  -16.2037   22.6383 N   0  0  0  0  0  0  0  0  0  0  0  0
   17.8229  -15.6820   24.2320 S   0  0  1  0  0  6  0  0  0  0  0  0
   16.3283  -15.7424   24.6364 O   0  0  0  0  0  0  0  0  0  0  0  0
   18.4467  -16.6693   25.2200 O   0  0  0  0  0  0  0  0  0  0  0  0
   18.3346  -14.0647   24.6641 C   0  0  0  0  0  0  0  0  0  0  0  0
   19.7238  -13.8786   25.0339 C   0  0  0  0  0  0  0  0  0  0  0  0
   20.3190  -12.6767   25.3440 C   0  0  0  0  0  0  0  0  0  0  0  0
   21.6531  -12.5410   25.6422 C   0  0  0  0  0  0  0  0  0  0  0  0
   22.4640  -13.6534   25.6372 C   0  0  0  0  0  0  0  0  0  0  0  0
   21.9217  -14.8684   25.3353 C   0  0  0  0  0  0  0  0  0  0  0  0
   12.4337  -13.0056   20.7163 H   0  0  0  0  0  0  0  0  0  0  0  0
 21  1  2  0
 16  2  2  0
 35  3  2  0
  3 39  1  0
  4 16  1  6
  4 17  1  0
 20  4  1  0
  5  8  1  0
  5 11  2  0
 14  5  1  0
  7  6  1  0
  8  7  2  0
  7  9  1  0
 10  9  2  0
 11 10  1  0
 11 12  1  0
 12 13  1  0
 15 14  1  0
 16 15  1  0
 18 17  1  0
 19 18  1  0
 20 19  1  0
 21 20  1  0
 22 21  1  0
 22 23  1  1
 30 22  1  0
 23 24  1  0
 24 25  1  0
 25 26  1  0
 26 27  1  0
 27 28  1  0
 27 29  2  0
 31 30  1  0
 31 32  2  0
 31 33  2  0
 31 34  1  6
 34 35  1  0
 35 36  1  0
 36 37  2  0
 37 38  1  0
 38 39  2  0
 29 40  1  0
M  CHG  1  13   1
M  END
$$$$
