
     RDKit          3D

 40 42  0  0  0  0  0  0  0  0999 V2000
   17.7818  -14.5018   19.5965 O   0  0  0  0  0  0  0  0  0  0  0  0
   16.2657  -11.9790   21.1761 O   0  0  0  0  0  0  0  0  0  0  0  0
   20.5845  -14.0664   25.9126 C   0  0  0  0  0  0  0  0  0  0  0  0
   14.9352  -13.9285   20.8166 C   0  0  2  0  0  0  0  0  0  0  0  0
   11.8851  -10.9945   22.1721 C   0  0  0  0  0  0  0  0  0  0  0  0
   11.8672   -7.4069   24.0221 Cl  0  0  0  0  0  0  0  0  0  0  0  0
   11.3993   -8.8135   23.0570 C   0  0  0  0  0  0  0  0  0  0  0  0
   12.2567   -9.8853   22.9350 C   0  0  0  0  0  0  0  0  0  0  0  0
   10.1699   -8.7935   22.4458 C   0  0  0  0  0  0  0  0  0  0  0  0
    9.8026   -9.8772   21.6987 C   0  0  0  0  0  0  0  0  0  0  0  0
   10.6574  -10.9684   21.5653 C   0  0  0  0  0  0  0  0  0  0  0  0
   10.2299  -12.1334   20.7517 C   0  0  0  0  0  0  0  0  0  0  0  0
    9.3593  -13.0117   21.5262 N   0  0  0  0  0  4  0  0  0  0  0  0
   12.8188  -12.1317   22.0562 C   0  0  0  0  0  0  0  0  0  0  0  0
   13.9910  -11.6801   21.3370 N   0  0  0  0  0  0  0  0  0  0  0  0
   15.1312  -12.4700   21.1197 C   0  0  0  0  0  0  0  0  0  0  0  0
   13.8327  -14.3977   21.7017 C   0  0  0  0  0  0  0  0  0  0  0  0
   14.5548  -15.1144   22.8446 C   0  0  0  0  0  0  0  0  0  0  0  0
   15.6526  -15.7811   22.0083 C   0  0  0  0  0  0  0  0  0  0  0  0
   16.1623  -14.6832   21.2286 N   0  0  0  0  0  0  0  0  0  0  0  0
   17.4543  -14.3088   20.8170 C   0  0  0  0  0  0  0  0  0  0  0  0
   18.5375  -13.6816   21.6905 C   0  0  2  0  0  0  0  0  0  0  0  0
   19.3577  -12.8741   20.7533 C   0  0  0  0  0  0  0  0  0  0  0  0
   18.7976  -11.7014   20.0882 C   0  0  0  0  0  0  0  0  0  0  0  0
   19.7653  -11.1799   18.9951 C   0  0  0  0  0  0  0  0  0  0  0  0
   19.1529  -10.1251   18.2479 N   0  0  0  0  0  0  0  0  0  0  0  0
   17.9886  -10.3256   17.4544 C   0  0  0  0  0  0  0  0  0  0  0  0
   16.8581  -10.9935   17.9926 N   0  0  0  0  0  0  0  0  0  0  0  0
   17.9884   -9.8865   16.2430 N   0  0  0  0  0  0  0  0  0  0  0  0
   19.1969  -14.7144   22.3672 N   0  0  0  0  0  0  0  0  0  0  0  0
   18.3072  -15.4067   23.6243 S   0  0  1  0  0  6  0  0  0  0  0  0
   17.1991  -14.4331   24.0992 O   0  0  0  0  0  0  0  0  0  0  0  0
   17.4791  -16.5937   23.1291 O   0  0  0  0  0  0  0  0  0  0  0  0
   19.1386  -15.8815   25.0898 C   0  0  0  0  0  0  0  0  0  0  0  0
   20.4590  -15.3289   25.3191 C   0  0  0  0  0  0  0  0  0  0  0  0
   21.6524  -15.9598   25.0492 C   0  0  0  0  0  0  0  0  0  0  0  0
   22.8826  -15.4160   25.3285 C   0  0  0  0  0  0  0  0  0  0  0  0
   22.9554  -14.1714   25.9121 C   0  0  0  0  0  0  0  0  0  0  0  0
   21.8001  -13.5051   26.2003 C   0  0  0  0  0  0  0  0  0  0  0  0
   18.7571   -9.3277   15.8729 H   0  0  0  0  0  0  0  0  0  0  0  0
 21  1  2  0
 16  2  2  0
 35  3  2  0
  3 39  1  0
  4 16  1  1
  4 17  1  0
 20  4  1  0
  5  8  1  0
  5 11  2  0
 14  5  1  0
  7  6  1  0
  8  7  2  0
  7  9  1  0
 10  9  2  0
 11 10  1  0
 11 12  1  0
 12 13  1  0
 15 14  1  0
 16 15  1  0
 18 17  1  0
 19 18  1  0
 20 19  1  0
 21 20  1  0
 22 21  1  0
 22 23  1  6
 30 22  1  0
 23 24  1  0
 24 25  1  0
 25 26  1  0
 26 27  1  0
 27 28  1  0
 27 29  2  0
 31 30  1  0
 31 32  2  0
 31 33  2  0
 31 34  1  1
 34 35  1  0
 35 36  1  0
 36 37  2  0
 37 38  1  0
 38 39  2  0
 29 40  1  0
M  CHG  1  13   1
M  END
$$$$
