
     RDKit          3D

 40 42  0  0  0  0  0  0  0  0999 V2000
   15.6461  -12.9395   21.9961 O   0  0  0  0  0  0  0  0  0  0  0  0
   16.6285  -11.2927   20.4752 O   0  0  0  0  0  0  0  0  0  0  0  0
   17.8624  -18.4076   21.1456 C   0  0  0  0  0  0  0  0  0  0  0  0
   17.5203  -13.4366   19.9199 C   0  0  2  0  0  0  0  0  0  0  0  0
   19.1518  -11.0579   23.1055 C   0  0  0  0  0  0  0  0  0  0  0  0
   17.5135  -10.2508   26.7052 Cl  0  0  0  0  0  0  0  0  0  0  0  0
   18.4509  -10.9961   25.4035 C   0  0  0  0  0  0  0  0  0  0  0  0
   18.4110  -10.4674   24.1316 C   0  0  0  0  0  0  0  0  0  0  0  0
   19.2056  -12.1023   25.7069 C   0  0  0  0  0  0  0  0  0  0  0  0
   19.9320  -12.6828   24.7056 C   0  0  0  0  0  0  0  0  0  0  0  0
   19.9026  -12.1609   23.4149 C   0  0  0  0  0  0  0  0  0  0  0  0
   20.7055  -12.8092   22.3485 C   0  0  0  0  0  0  0  0  0  0  0  0
   21.9235  -12.0497   22.0862 N   0  0  0  0  0  4  0  0  0  0  0  0
   19.0948  -10.4741   21.7511 C   0  0  0  0  0  0  0  0  0  0  0  0
   18.8899  -11.5505   20.8053 N   0  0  0  0  0  0  0  0  0  0  0  0
   17.6265  -12.0218   20.4142 C   0  0  0  0  0  0  0  0  0  0  0  0
   17.9537  -13.4180   18.4949 C   0  0  0  0  0  0  0  0  0  0  0  0
   16.6414  -13.4385   17.7082 C   0  0  0  0  0  0  0  0  0  0  0  0
   15.8751  -14.4109   18.6117 C   0  0  0  0  0  0  0  0  0  0  0  0
   16.0796  -13.8486   19.9213 N   0  0  0  0  0  0  0  0  0  0  0  0
   15.2528  -13.7040   21.0501 C   0  0  0  0  0  0  0  0  0  0  0  0
   13.9022  -14.3781   21.2765 C   0  0  2  0  0  0  0  0  0  0  0  0
   13.0667  -13.3397   21.9296 C   0  0  0  0  0  0  0  0  0  0  0  0
   12.0134  -12.6516   21.1890 C   0  0  0  0  0  0  0  0  0  0  0  0
   11.9525  -11.1553   21.5901 C   0  0  0  0  0  0  0  0  0  0  0  0
   11.6279  -11.0229   22.9768 N   0  0  0  0  0  0  0  0  0  0  0  0
   11.1129   -9.8172   23.5305 C   0  0  0  0  0  0  0  0  0  0  0  0
   11.5832   -8.5584   23.0745 N   0  0  0  0  0  0  0  0  0  0  0  0
   10.2138   -9.8989   24.4499 N   0  0  0  0  0  0  0  0  0  0  0  0
   14.1234  -15.5520   22.0061 N   0  0  0  0  0  0  0  0  0  0  0  0
   14.0981  -16.9651   21.0821 S   0  0  1  0  0  6  0  0  0  0  0  0
   13.4359  -18.1173   21.8790 O   0  0  0  0  0  0  0  0  0  0  0  0
   13.1474  -16.8317   19.8912 O   0  0  0  0  0  0  0  0  0  0  0  0
   15.6127  -17.6327   20.5126 C   0  0  0  0  0  0  0  0  0  0  0  0
   16.5352  -18.1433   21.5073 C   0  0  0  0  0  0  0  0  0  0  0  0
   16.2464  -18.3589   22.8359 C   0  0  0  0  0  0  0  0  0  0  0  0
   17.1677  -18.7992   23.7548 C   0  0  0  0  0  0  0  0  0  0  0  0
   18.4606  -19.0459   23.3517 C   0  0  0  0  0  0  0  0  0  0  0  0
   18.7975  -18.8466   22.0447 C   0  0  0  0  0  0  0  0  0  0  0  0
    9.2647  -10.2130   24.2481 H   0  0  0  0  0  0  0  0  0  0  0  0
 21  1  2  0
 16  2  2  0
 35  3  2  0
  3 39  1  0
  4 16  1  6
  4 17  1  0
 20  4  1  0
  5  8  1  0
  5 11  2  0
 14  5  1  0
  7  6  1  0
  8  7  2  0
  7  9  1  0
 10  9  2  0
 11 10  1  0
 11 12  1  0
 12 13  1  0
 15 14  1  0
 16 15  1  0
 18 17  1  0
 19 18  1  0
 20 19  1  0
 21 20  1  0
 22 21  1  0
 22 23  1  1
 30 22  1  0
 23 24  1  0
 24 25  1  0
 25 26  1  0
 26 27  1  0
 27 28  1  0
 27 29  2  0
 31 30  1  0
 31 32  2  0
 31 33  2  0
 31 34  1  6
 34 35  1  0
 35 36  1  0
 36 37  2  0
 37 38  1  0
 38 39  2  0
 29 40  1  0
M  CHG  1  13   1
M  END
$$$$
