
     RDKit          3D

 40 42  0  0  0  0  0  0  0  0999 V2000
   15.6680  -12.9906   22.4992 O   0  0  0  0  0  0  0  0  0  0  0  0
   15.4802  -12.1056   19.6322 O   0  0  0  0  0  0  0  0  0  0  0  0
   21.1057  -13.7546   24.9892 C   0  0  0  0  0  0  0  0  0  0  0  0
   17.4457  -11.5334   20.8607 C   0  0  2  0  0  0  0  0  0  0  0  0
   13.2419   -9.7078   21.3358 C   0  0  0  0  0  0  0  0  0  0  0  0
   12.2015   -7.2648   24.3761 Cl  0  0  0  0  0  0  0  0  0  0  0  0
   12.3139   -8.6531   23.2858 C   0  0  0  0  0  0  0  0  0  0  0  0
   13.1553   -8.6105   22.1954 C   0  0  0  0  0  0  0  0  0  0  0  0
   11.5424   -9.7541   23.5654 C   0  0  0  0  0  0  0  0  0  0  0  0
   11.6246  -10.8299   22.7268 C   0  0  0  0  0  0  0  0  0  0  0  0
   12.4699  -10.8029   21.6206 C   0  0  0  0  0  0  0  0  0  0  0  0
   12.5423  -11.9877   20.7300 C   0  0  0  0  0  0  0  0  0  0  0  0
   12.8638  -13.1884   21.4943 N   0  0  0  0  0  4  0  0  0  0  0  0
   14.1506   -9.6405   20.1748 C   0  0  0  0  0  0  0  0  0  0  0  0
   15.4740  -10.0268   20.6160 N   0  0  0  0  0  0  0  0  0  0  0  0
   16.0705  -11.2628   20.3195 C   0  0  0  0  0  0  0  0  0  0  0  0
   18.3963  -11.2708   19.7444 C   0  0  0  0  0  0  0  0  0  0  0  0
   18.7368  -12.6644   19.2121 C   0  0  0  0  0  0  0  0  0  0  0  0
   18.7981  -13.3902   20.5606 C   0  0  0  0  0  0  0  0  0  0  0  0
   17.5650  -12.9909   21.1874 N   0  0  0  0  0  0  0  0  0  0  0  0
   16.6262  -13.6655   21.9889 C   0  0  0  0  0  0  0  0  0  0  0  0
   16.6261  -15.1541   22.3263 C   0  0  2  0  0  0  0  0  0  0  0  0
   15.4975  -15.7183   21.5447 C   0  0  0  0  0  0  0  0  0  0  0  0
   14.1742  -15.1034   21.5904 C   0  0  0  0  0  0  0  0  0  0  0  0
   13.2199  -15.7863   20.5772 C   0  0  0  0  0  0  0  0  0  0  0  0
   11.9238  -15.1834   20.6275 N   0  0  0  0  0  0  0  0  0  0  0  0
   10.8357  -15.6409   19.8325 C   0  0  0  0  0  0  0  0  0  0  0  0
    9.8540  -16.5035   20.3857 N   0  0  0  0  0  0  0  0  0  0  0  0
   10.7660  -15.2528   18.6058 N   0  0  0  0  0  0  0  0  0  0  0  0
   16.5471  -15.2805   23.7181 N   0  0  0  0  0  0  0  0  0  0  0  0
   17.8514  -16.0896   24.4221 S   0  0  1  0  0  6  0  0  0  0  0  0
   17.6480  -16.2079   25.9536 O   0  0  0  0  0  0  0  0  0  0  0  0
   17.8823  -17.5606   24.0036 O   0  0  0  0  0  0  0  0  0  0  0  0
   19.4603  -15.4251   24.2380 C   0  0  0  0  0  0  0  0  0  0  0  0
   19.8533  -14.3628   25.1426 C   0  0  0  0  0  0  0  0  0  0  0  0
   19.0749  -13.8333   26.1470 C   0  0  0  0  0  0  0  0  0  0  0  0
   19.4714  -12.7920   26.9504 C   0  0  0  0  0  0  0  0  0  0  0  0
   20.7121  -12.2264   26.7618 C   0  0  0  0  0  0  0  0  0  0  0  0
   21.5215  -12.7153   25.7781 C   0  0  0  0  0  0  0  0  0  0  0  0
   11.5064  -14.7007   18.1731 H   0  0  0  0  0  0  0  0  0  0  0  0
 21  1  2  0
 16  2  2  0
 35  3  2  0
  3 39  1  0
  4 16  1  6
  4 17  1  0
 20  4  1  0
  5  8  1  0
  5 11  2  0
 14  5  1  0
  7  6  1  0
  8  7  2  0
  7  9  1  0
 10  9  2  0
 11 10  1  0
 11 12  1  0
 12 13  1  0
 15 14  1  0
 16 15  1  0
 18 17  1  0
 19 18  1  0
 20 19  1  0
 21 20  1  0
 22 21  1  0
 22 23  1  6
 30 22  1  0
 23 24  1  0
 24 25  1  0
 25 26  1  0
 26 27  1  0
 27 28  1  0
 27 29  2  0
 31 30  1  0
 31 32  2  0
 31 33  2  0
 31 34  1  1
 34 35  1  0
 35 36  1  0
 36 37  2  0
 37 38  1  0
 38 39  2  0
 29 40  1  0
M  CHG  1  13   1
M  END
$$$$
