
     RDKit          3D

 40 42  0  0  0  0  0  0  0  0999 V2000
   16.1483  -13.0124   22.1727 O   0  0  0  0  0  0  0  0  0  0  0  0
   15.6802  -13.6294   18.2898 O   0  0  0  0  0  0  0  0  0  0  0  0
   18.0991  -17.3193   26.1725 C   0  0  0  0  0  0  0  0  0  0  0  0
   17.6139  -13.0345   19.5574 C   0  0  2  0  0  0  0  0  0  0  0  0
   16.4630   -9.3106   19.7320 C   0  0  0  0  0  0  0  0  0  0  0  0
   13.8139   -6.2861   20.0903 Cl  0  0  0  0  0  0  0  0  0  0  0  0
   15.0800   -7.4735   20.4307 C   0  0  0  0  0  0  0  0  0  0  0  0
   15.4633   -8.3738   19.4606 C   0  0  0  0  0  0  0  0  0  0  0  0
   15.6538   -7.4614   21.6780 C   0  0  0  0  0  0  0  0  0  0  0  0
   16.6325   -8.3763   21.9474 C   0  0  0  0  0  0  0  0  0  0  0  0
   17.0315   -9.2930   20.9781 C   0  0  0  0  0  0  0  0  0  0  0  0
   18.1003  -10.2718   21.2972 C   0  0  0  0  0  0  0  0  0  0  0  0
   19.3290   -9.9455   20.5809 N   0  0  0  0  0  4  0  0  0  0  0  0
   16.8585  -10.2646   18.6776 C   0  0  0  0  0  0  0  0  0  0  0  0
   15.9429  -11.3851   18.7180 N   0  0  0  0  0  0  0  0  0  0  0  0
   16.3476  -12.7264   18.8098 C   0  0  0  0  0  0  0  0  0  0  0  0
   18.5670  -13.5933   18.5583 C   0  0  0  0  0  0  0  0  0  0  0  0
   18.5027  -15.1045   18.7898 C   0  0  0  0  0  0  0  0  0  0  0  0
   18.4052  -15.0744   20.3190 C   0  0  0  0  0  0  0  0  0  0  0  0
   17.3446  -14.1275   20.5464 N   0  0  0  0  0  0  0  0  0  0  0  0
   16.2824  -14.0698   21.4668 C   0  0  0  0  0  0  0  0  0  0  0  0
   15.2452  -15.1597   21.7233 C   0  0  2  0  0  0  0  0  0  0  0  0
   13.9579  -14.4326   21.8545 C   0  0  0  0  0  0  0  0  0  0  0  0
   12.6866  -15.1494   21.8201 C   0  0  0  0  0  0  0  0  0  0  0  0
   11.5608  -14.2946   22.4569 C   0  0  0  0  0  0  0  0  0  0  0  0
   10.6045  -13.9096   21.4654 N   0  0  0  0  0  0  0  0  0  0  0  0
    9.4749  -13.0978   21.7661 C   0  0  0  0  0  0  0  0  0  0  0  0
    9.6149  -11.6919   21.8988 N   0  0  0  0  0  0  0  0  0  0  0  0
    8.3296  -13.6698   21.9127 N   0  0  0  0  0  0  0  0  0  0  0  0
   15.6622  -15.8979   22.8371 N   0  0  0  0  0  0  0  0  0  0  0  0
   17.2686  -15.6375   23.2873 S   0  0  1  0  0  6  0  0  0  0  0  0
   18.0462  -14.9530   22.1349 O   0  0  0  0  0  0  0  0  0  0  0  0
   17.3709  -14.5847   24.3923 O   0  0  0  0  0  0  0  0  0  0  0  0
   18.2568  -17.0114   23.7348 C   0  0  0  0  0  0  0  0  0  0  0  0
   17.8365  -17.7932   24.8808 C   0  0  0  0  0  0  0  0  0  0  0  0
   17.1347  -18.9765   24.8329 C   0  0  0  0  0  0  0  0  0  0  0  0
   16.7145  -19.6595   25.9482 C   0  0  0  0  0  0  0  0  0  0  0  0
   16.9967  -19.1542   27.1972 C   0  0  0  0  0  0  0  0  0  0  0  0
   17.6896  -17.9832   27.2981 C   0  0  0  0  0  0  0  0  0  0  0  0
    8.1728  -14.6390   21.6368 H   0  0  0  0  0  0  0  0  0  0  0  0
 21  1  2  0
 16  2  2  0
 35  3  2  0
  3 39  1  0
  4 16  1  6
  4 17  1  0
 20  4  1  0
  5  8  1  0
  5 11  2  0
 14  5  1  0
  7  6  1  0
  8  7  2  0
  7  9  1  0
 10  9  2  0
 11 10  1  0
 11 12  1  0
 12 13  1  0
 15 14  1  0
 16 15  1  0
 18 17  1  0
 19 18  1  0
 20 19  1  0
 21 20  1  0
 22 21  1  0
 22 23  1  1
 30 22  1  0
 23 24  1  0
 24 25  1  0
 25 26  1  0
 26 27  1  0
 27 28  1  0
 27 29  2  0
 31 30  1  0
 31 32  2  0
 31 33  2  0
 31 34  1  1
 34 35  1  0
 35 36  1  0
 36 37  2  0
 37 38  1  0
 38 39  2  0
 29 40  1  0
M  CHG  1  13   1
M  END
$$$$
