
     RDKit          3D

 40 42  0  0  0  0  0  0  0  0999 V2000
   16.4722  -12.7839   23.3284 O   0  0  0  0  0  0  0  0  0  0  0  0
   15.8186  -12.5696   19.7703 O   0  0  0  0  0  0  0  0  0  0  0  0
   22.1184  -17.4764   24.0432 C   0  0  0  0  0  0  0  0  0  0  0  0
   17.5022  -11.4128   21.0061 C   0  0  2  0  0  0  0  0  0  0  0  0
   13.5313   -9.4637   22.1054 C   0  0  0  0  0  0  0  0  0  0  0  0
   13.0535   -5.6941   23.4677 Cl  0  0  0  0  0  0  0  0  0  0  0  0
   12.7777   -7.2567   22.6859 C   0  0  0  0  0  0  0  0  0  0  0  0
   13.7514   -8.2309   22.7238 C   0  0  0  0  0  0  0  0  0  0  0  0
   11.5761   -7.4549   22.0517 C   0  0  0  0  0  0  0  0  0  0  0  0
   11.3569   -8.6599   21.4457 C   0  0  0  0  0  0  0  0  0  0  0  0
   12.3305   -9.6550   21.4748 C   0  0  0  0  0  0  0  0  0  0  0  0
   12.0629  -10.9556   20.8123 C   0  0  0  0  0  0  0  0  0  0  0  0
   12.7601  -11.0358   19.5330 N   0  0  0  0  0  4  0  0  0  0  0  0
   14.5878  -10.4929   22.1595 C   0  0  0  0  0  0  0  0  0  0  0  0
   15.1364  -10.6450   20.8287 N   0  0  0  0  0  0  0  0  0  0  0  0
   16.1059  -11.6003   20.4839 C   0  0  0  0  0  0  0  0  0  0  0  0
   18.3610  -11.1362   19.8208 C   0  0  0  0  0  0  0  0  0  0  0  0
   19.0455  -12.4753   19.5388 C   0  0  0  0  0  0  0  0  0  0  0  0
   19.2818  -12.8960   20.9935 C   0  0  0  0  0  0  0  0  0  0  0  0
   17.9846  -12.7062   21.5888 N   0  0  0  0  0  0  0  0  0  0  0  0
   17.2430  -13.4305   22.5398 C   0  0  0  0  0  0  0  0  0  0  0  0
   17.2583  -14.9435   22.7398 C   0  0  2  0  0  0  0  0  0  0  0  0
   15.8371  -15.3545   22.6209 C   0  0  0  0  0  0  0  0  0  0  0  0
   15.0898  -15.1166   21.3896 C   0  0  0  0  0  0  0  0  0  0  0  0
   13.5666  -15.2632   21.6388 C   0  0  0  0  0  0  0  0  0  0  0  0
   12.9419  -13.9772   21.6835 N   0  0  0  0  0  0  0  0  0  0  0  0
   11.5611  -13.8073   21.9834 C   0  0  0  0  0  0  0  0  0  0  0  0
   11.0554  -14.1543   23.2631 N   0  0  0  0  0  0  0  0  0  0  0  0
   10.7882  -13.3323   21.0684 N   0  0  0  0  0  0  0  0  0  0  0  0
   17.8856  -15.2102   23.9625 N   0  0  0  0  0  0  0  0  0  0  0  0
   18.1319  -16.8504   24.2791 S   0  0  1  0  0  6  0  0  0  0  0  0
   17.9732  -17.1358   25.7939 O   0  0  0  0  0  0  0  0  0  0  0  0
   17.0082  -17.7038   23.6883 O   0  0  0  0  0  0  0  0  0  0  0  0
   19.6659  -17.5757   23.8491 C   0  0  0  0  0  0  0  0  0  0  0  0
   20.8593  -17.0344   24.4690 C   0  0  0  0  0  0  0  0  0  0  0  0
   20.8892  -16.0563   25.4372 C   0  0  0  0  0  0  0  0  0  0  0  0
   22.0481  -15.5383   25.9623 C   0  0  0  0  0  0  0  0  0  0  0  0
   23.2625  -16.0049   25.5123 C   0  0  0  0  0  0  0  0  0  0  0  0
   23.2864  -16.9741   24.5522 C   0  0  0  0  0  0  0  0  0  0  0  0
   11.1584  -12.8779   20.2337 H   0  0  0  0  0  0  0  0  0  0  0  0
 21  1  2  0
 16  2  2  0
 35  3  2  0
  3 39  1  0
  4 16  1  6
  4 17  1  0
 20  4  1  0
  5  8  1  0
  5 11  2  0
 14  5  1  0
  7  6  1  0
  8  7  2  0
  7  9  1  0
 10  9  2  0
 11 10  1  0
 11 12  1  0
 12 13  1  0
 15 14  1  0
 16 15  1  0
 18 17  1  0
 19 18  1  0
 20 19  1  0
 21 20  1  0
 22 21  1  0
 22 23  1  1
 30 22  1  0
 23 24  1  0
 24 25  1  0
 25 26  1  0
 26 27  1  0
 27 28  1  0
 27 29  2  0
 31 30  1  0
 31 32  2  0
 31 33  2  0
 31 34  1  6
 34 35  1  0
 35 36  1  0
 36 37  2  0
 37 38  1  0
 38 39  2  0
 29 40  1  0
M  CHG  1  13   1
M  END
$$$$
