
     RDKit          3D

 40 42  0  0  0  0  0  0  0  0999 V2000
   16.8843  -13.5649   23.1317 O   0  0  0  0  0  0  0  0  0  0  0  0
   15.0504  -12.7189   20.3283 O   0  0  0  0  0  0  0  0  0  0  0  0
   20.9706  -15.8151   26.1757 C   0  0  0  0  0  0  0  0  0  0  0  0
   17.2637  -11.9587   20.8009 C   0  0  2  0  0  0  0  0  0  0  0  0
   13.3655   -9.3994   21.4123 C   0  0  0  0  0  0  0  0  0  0  0  0
   13.4121   -5.5974   22.7673 Cl  0  0  0  0  0  0  0  0  0  0  0  0
   13.1721   -7.0287   21.7561 C   0  0  0  0  0  0  0  0  0  0  0  0
   13.5557   -8.2709   22.2128 C   0  0  0  0  0  0  0  0  0  0  0  0
   12.5990   -6.8541   20.5207 C   0  0  0  0  0  0  0  0  0  0  0  0
   12.4109   -7.9560   19.7346 C   0  0  0  0  0  0  0  0  0  0  0  0
   12.7930   -9.2184   20.1812 C   0  0  0  0  0  0  0  0  0  0  0  0
   12.5722  -10.3977   19.3079 C   0  0  0  0  0  0  0  0  0  0  0  0
   11.4327  -11.1798   19.7760 N   0  0  0  0  0  4  0  0  0  0  0  0
   13.7829  -10.7201   21.9222 C   0  0  0  0  0  0  0  0  0  0  0  0
   15.2029  -10.8666   21.6831 N   0  0  0  0  0  0  0  0  0  0  0  0
   15.7665  -11.8925   20.9076 C   0  0  0  0  0  0  0  0  0  0  0  0
   17.6024  -11.5881   19.3984 C   0  0  0  0  0  0  0  0  0  0  0  0
   17.8664  -12.9309   18.7139 C   0  0  0  0  0  0  0  0  0  0  0  0
   18.5940  -13.6149   19.8765 C   0  0  0  0  0  0  0  0  0  0  0  0
   17.7050  -13.3789   20.9843 N   0  0  0  0  0  0  0  0  0  0  0  0
   17.2978  -14.1619   22.0796 C   0  0  0  0  0  0  0  0  0  0  0  0
   17.2960  -15.6865   22.1529 C   0  0  2  0  0  0  0  0  0  0  0  0
   15.8939  -16.0471   22.4800 C   0  0  0  0  0  0  0  0  0  0  0  0
   14.8020  -15.7039   21.5739 C   0  0  0  0  0  0  0  0  0  0  0  0
   13.6999  -16.7937   21.6099 C   0  0  0  0  0  0  0  0  0  0  0  0
   12.7001  -16.4611   22.5771 N   0  0  0  0  0  0  0  0  0  0  0  0
   11.6972  -15.4808   22.3349 C   0  0  0  0  0  0  0  0  0  0  0  0
   12.0030  -14.0989   22.4372 N   0  0  0  0  0  0  0  0  0  0  0  0
   10.5125  -15.8792   22.0215 N   0  0  0  0  0  0  0  0  0  0  0  0
   18.2729  -16.0745   23.0774 N   0  0  0  0  0  0  0  0  0  0  0  0
   19.4219  -14.8859   23.4213 S   0  0  1  0  0  6  0  0  0  0  0  0
   20.8504  -15.4274   23.1623 O   0  0  0  0  0  0  0  0  0  0  0  0
   19.3453  -13.7340   22.4177 O   0  0  0  0  0  0  0  0  0  0  0  0
   19.4882  -14.2133   25.0361 C   0  0  0  0  0  0  0  0  0  0  0  0
   19.7520  -15.1259   26.1310 C   0  0  0  0  0  0  0  0  0  0  0  0
   18.9181  -15.3599   27.2010 C   0  0  0  0  0  0  0  0  0  0  0  0
   19.2314  -16.1989   28.2425 C   0  0  0  0  0  0  0  0  0  0  0  0
   20.4415  -16.8551   28.2423 C   0  0  0  0  0  0  0  0  0  0  0  0
   21.3040  -16.6560   27.2040 C   0  0  0  0  0  0  0  0  0  0  0  0
   10.2478  -16.8634   22.0605 H   0  0  0  0  0  0  0  0  0  0  0  0
 21  1  2  0
 16  2  2  0
 35  3  2  0
  3 39  1  0
  4 16  1  6
  4 17  1  0
 20  4  1  0
  5  8  1  0
  5 11  2  0
 14  5  1  0
  7  6  1  0
  8  7  2  0
  7  9  1  0
 10  9  2  0
 11 10  1  0
 11 12  1  0
 12 13  1  0
 15 14  1  0
 16 15  1  0
 18 17  1  0
 19 18  1  0
 20 19  1  0
 21 20  1  0
 22 21  1  0
 22 23  1  1
 30 22  1  0
 23 24  1  0
 24 25  1  0
 25 26  1  0
 26 27  1  0
 27 28  1  0
 27 29  2  0
 31 30  1  0
 31 32  2  0
 31 33  2  0
 31 34  1  1
 34 35  1  0
 35 36  1  0
 36 37  2  0
 37 38  1  0
 38 39  2  0
 29 40  1  0
M  CHG  1  13   1
M  END
$$$$
