
     RDKit          3D

 40 42  0  0  0  0  0  0  0  0999 V2000
   15.2097  -13.3612   20.2361 O   0  0  0  0  0  0  0  0  0  0  0  0
   15.5074  -16.4562   22.2761 O   0  0  0  0  0  0  0  0  0  0  0  0
   20.1532  -13.0555   17.8719 C   0  0  0  0  0  0  0  0  0  0  0  0
   17.0019  -15.5216   20.6659 C   0  0  2  0  0  0  0  0  0  0  0  0
   13.5973  -18.3840   20.1008 C   0  0  0  0  0  0  0  0  0  0  0  0
   16.4878  -21.1462   20.6569 Cl  0  0  0  0  0  0  0  0  0  0  0  0
   14.9745  -20.3510   20.2029 C   0  0  0  0  0  0  0  0  0  0  0  0
   14.7933  -19.0094   20.4600 C   0  0  0  0  0  0  0  0  0  0  0  0
   14.0060  -21.1114   19.5953 C   0  0  0  0  0  0  0  0  0  0  0  0
   12.8344  -20.5030   19.2421 C   0  0  0  0  0  0  0  0  0  0  0  0
   12.6355  -19.1482   19.4948 C   0  0  0  0  0  0  0  0  0  0  0  0
   11.3551  -18.5130   19.0958 C   0  0  0  0  0  0  0  0  0  0  0  0
   10.6921  -17.9187   20.2519 N   0  0  0  0  0  4  0  0  0  0  0  0
   13.4256  -16.9459   20.3848 C   0  0  0  0  0  0  0  0  0  0  0  0
   14.6880  -16.2837   20.1340 N   0  0  0  0  0  0  0  0  0  0  0  0
   15.6935  -16.1190   21.1001 C   0  0  0  0  0  0  0  0  0  0  0  0
   18.0706  -16.3467   21.2950 C   0  0  0  0  0  0  0  0  0  0  0  0
   18.5178  -15.5172   22.5005 C   0  0  0  0  0  0  0  0  0  0  0  0
   18.4404  -14.1363   21.8401 C   0  0  0  0  0  0  0  0  0  0  0  0
   17.1285  -14.1462   21.2468 N   0  0  0  0  0  0  0  0  0  0  0  0
   16.1228  -13.1721   21.1106 C   0  0  0  0  0  0  0  0  0  0  0  0
   15.9988  -11.8793   21.9123 C   0  0  2  0  0  0  0  0  0  0  0  0
   14.5435  -11.7275   22.1612 C   0  0  0  0  0  0  0  0  0  0  0  0
   13.7656  -12.8183   22.7411 C   0  0  0  0  0  0  0  0  0  0  0  0
   12.2584  -12.4565   22.7735 C   0  0  0  0  0  0  0  0  0  0  0  0
   12.0869  -11.0401   22.8744 N   0  0  0  0  0  0  0  0  0  0  0  0
   10.8348  -10.4414   23.1894 C   0  0  0  0  0  0  0  0  0  0  0  0
   10.0394   -9.8588   22.1688 N   0  0  0  0  0  0  0  0  0  0  0  0
   10.4453  -10.4433   24.4177 N   0  0  0  0  0  0  0  0  0  0  0  0
   16.6176  -10.8581   21.1818 N   0  0  0  0  0  0  0  0  0  0  0  0
   16.9564  -11.2538   19.5756 S   0  0  1  0  0  6  0  0  0  0  0  0
   15.6881  -11.8074   18.8786 O   0  0  0  0  0  0  0  0  0  0  0  0
   17.2398  -10.0014   18.7441 O   0  0  0  0  0  0  0  0  0  0  0  0
   18.2007  -12.4381   19.2388 C   0  0  0  0  0  0  0  0  0  0  0  0
   19.1152  -12.1570   18.1498 C   0  0  0  0  0  0  0  0  0  0  0  0
   19.0395  -11.0815   17.2939 C   0  0  0  0  0  0  0  0  0  0  0  0
   19.9016  -10.8809   16.2434 C   0  0  0  0  0  0  0  0  0  0  0  0
   20.9070  -11.7917   16.0099 C   0  0  0  0  0  0  0  0  0  0  0  0
   21.0239  -12.8758   16.8301 C   0  0  0  0  0  0  0  0  0  0  0  0
   11.0320  -10.8084   25.1678 H   0  0  0  0  0  0  0  0  0  0  0  0
 21  1  2  0
 16  2  2  0
 35  3  2  0
  3 39  1  0
  4 16  1  1
  4 17  1  0
 20  4  1  0
  5  8  1  0
  5 11  2  0
 14  5  1  0
  7  6  1  0
  8  7  2  0
  7  9  1  0
 10  9  2  0
 11 10  1  0
 11 12  1  0
 12 13  1  0
 15 14  1  0
 16 15  1  0
 18 17  1  0
 19 18  1  0
 20 19  1  0
 21 20  1  0
 22 21  1  0
 22 23  1  6
 30 22  1  0
 23 24  1  0
 24 25  1  0
 25 26  1  0
 26 27  1  0
 27 28  1  0
 27 29  2  0
 31 30  1  0
 31 32  2  0
 31 33  2  0
 31 34  1  1
 34 35  1  0
 35 36  1  0
 36 37  2  0
 37 38  1  0
 38 39  2  0
 29 40  1  0
M  CHG  1  13   1
M  END
$$$$
