
     RDKit          3D

 40 42  0  0  0  0  0  0  0  0999 V2000
   16.9787  -12.1031   20.9683 O   0  0  0  0  0  0  0  0  0  0  0  0
   18.2374  -11.2830   19.3459 O   0  0  0  0  0  0  0  0  0  0  0  0
   18.6734  -14.1255   25.4556 C   0  0  0  0  0  0  0  0  0  0  0  0
   17.7857  -13.5198   18.6440 C   0  0  2  0  0  0  0  0  0  0  0  0
   17.7050  -11.1128   14.8306 C   0  0  0  0  0  0  0  0  0  0  0  0
   14.5656   -8.6255   14.3296 Cl  0  0  0  0  0  0  0  0  0  0  0  0
   15.9944   -9.6252   14.0328 C   0  0  0  0  0  0  0  0  0  0  0  0
   16.5768  -10.3245   15.0675 C   0  0  0  0  0  0  0  0  0  0  0  0
   16.4898   -9.6744   12.7532 C   0  0  0  0  0  0  0  0  0  0  0  0
   17.5935  -10.4449   12.5174 C   0  0  0  0  0  0  0  0  0  0  0  0
   18.1940  -11.1578   13.5519 C   0  0  0  0  0  0  0  0  0  0  0  0
   19.3887  -11.9902   13.2654 C   0  0  0  0  0  0  0  0  0  0  0  0
   19.6423  -12.0512   11.8297 N   0  0  0  0  0  4  0  0  0  0  0  0
   18.3117  -11.8541   15.9535 C   0  0  0  0  0  0  0  0  0  0  0  0
   17.5760  -11.5292   17.1570 N   0  0  0  0  0  0  0  0  0  0  0  0
   17.8879  -12.0363   18.4285 C   0  0  0  0  0  0  0  0  0  0  0  0
   17.5384  -14.1233   17.3048 C   0  0  0  0  0  0  0  0  0  0  0  0
   16.0329  -14.3969   17.2940 C   0  0  0  0  0  0  0  0  0  0  0  0
   15.8972  -14.8574   18.7495 C   0  0  0  0  0  0  0  0  0  0  0  0
   16.5721  -13.8114   19.4730 N   0  0  0  0  0  0  0  0  0  0  0  0
   16.3164  -13.1617   20.6942 C   0  0  0  0  0  0  0  0  0  0  0  0
   15.3093  -13.5931   21.7568 C   0  0  2  0  0  0  0  0  0  0  0  0
   14.3612  -12.4560   21.8622 C   0  0  0  0  0  0  0  0  0  0  0  0
   13.5381  -12.0598   20.7234 C   0  0  0  0  0  0  0  0  0  0  0  0
   12.0653  -11.8521   21.1606 C   0  0  0  0  0  0  0  0  0  0  0  0
   11.9752  -10.8043   22.1300 N   0  0  0  0  0  0  0  0  0  0  0  0
   10.7435  -10.4229   22.7324 C   0  0  0  0  0  0  0  0  0  0  0  0
   10.5014   -9.0681   23.0781 N   0  0  0  0  0  0  0  0  0  0  0  0
    9.8600  -11.3345   22.9531 N   0  0  0  0  0  0  0  0  0  0  0  0
   16.0209  -13.9228   22.9163 N   0  0  0  0  0  0  0  0  0  0  0  0
   16.5064  -15.5377   23.0035 S   0  0  1  0  0  6  0  0  0  0  0  0
   15.2839  -16.4539   23.2629 O   0  0  0  0  0  0  0  0  0  0  0  0
   16.9862  -16.0466   21.6431 O   0  0  0  0  0  0  0  0  0  0  0  0
   17.6776  -16.0062   24.2172 C   0  0  0  0  0  0  0  0  0  0  0  0
   18.7865  -15.1048   24.4604 C   0  0  0  0  0  0  0  0  0  0  0  0
   20.0069  -15.1418   23.8246 C   0  0  0  0  0  0  0  0  0  0  0  0
   21.0477  -14.2962   24.1222 C   0  0  0  0  0  0  0  0  0  0  0  0
   20.8891  -13.3491   25.1085 C   0  0  0  0  0  0  0  0  0  0  0  0
   19.6978  -13.2724   25.7692 C   0  0  0  0  0  0  0  0  0  0  0  0
   10.0799  -12.3273   22.8747 H   0  0  0  0  0  0  0  0  0  0  0  0
 21  1  2  0
 16  2  2  0
 35  3  2  0
  3 39  1  0
  4 16  1  6
  4 17  1  0
 20  4  1  0
  5  8  1  0
  5 11  2  0
 14  5  1  0
  7  6  1  0
  8  7  2  0
  7  9  1  0
 10  9  2  0
 11 10  1  0
 11 12  1  0
 12 13  1  0
 15 14  1  0
 16 15  1  0
 18 17  1  0
 19 18  1  0
 20 19  1  0
 21 20  1  0
 22 21  1  0
 22 23  1  1
 30 22  1  0
 23 24  1  0
 24 25  1  0
 25 26  1  0
 26 27  1  0
 27 28  1  0
 27 29  2  0
 31 30  1  0
 31 32  2  0
 31 33  2  0
 31 34  1  1
 34 35  1  0
 35 36  1  0
 36 37  2  0
 37 38  1  0
 38 39  2  0
 29 40  1  0
M  CHG  1  13   1
M  END
$$$$
