
     RDKit          3D

 40 42  0  0  0  0  0  0  0  0999 V2000
   15.4252  -12.9926   22.9891 O   0  0  0  0  0  0  0  0  0  0  0  0
   15.3858  -12.2859   19.7897 O   0  0  0  0  0  0  0  0  0  0  0  0
   20.7957  -13.0952   23.9914 C   0  0  0  0  0  0  0  0  0  0  0  0
   17.3017  -11.8994   21.1609 C   0  0  2  0  0  0  0  0  0  0  0  0
   13.3235   -9.6133   21.5648 C   0  0  0  0  0  0  0  0  0  0  0  0
   12.3846   -6.6467   24.1360 Cl  0  0  0  0  0  0  0  0  0  0  0  0
   12.4651   -8.2140   23.3200 C   0  0  0  0  0  0  0  0  0  0  0  0
   13.2620   -8.3748   22.2075 C   0  0  0  0  0  0  0  0  0  0  0  0
   11.7147   -9.2440   23.8311 C   0  0  0  0  0  0  0  0  0  0  0  0
   11.7724  -10.4574   23.2052 C   0  0  0  0  0  0  0  0  0  0  0  0
   12.5728  -10.6366   22.0799 C   0  0  0  0  0  0  0  0  0  0  0  0
   12.6196  -11.9668   21.4236 C   0  0  0  0  0  0  0  0  0  0  0  0
   11.5225  -12.1113   20.4724 N   0  0  0  0  0  4  0  0  0  0  0  0
   14.1846   -9.7630   20.3754 C   0  0  0  0  0  0  0  0  0  0  0  0
   15.4824  -10.2296   20.8153 N   0  0  0  0  0  0  0  0  0  0  0  0
   15.9943  -11.5063   20.5335 C   0  0  0  0  0  0  0  0  0  0  0  0
   18.3238  -11.8343   20.0791 C   0  0  0  0  0  0  0  0  0  0  0  0
   18.5126  -13.2936   19.6595 C   0  0  0  0  0  0  0  0  0  0  0  0
   18.4272  -13.9216   21.0550 C   0  0  0  0  0  0  0  0  0  0  0  0
   17.2270  -13.3330   21.5902 N   0  0  0  0  0  0  0  0  0  0  0  0
   16.1794  -13.8305   22.3863 C   0  0  0  0  0  0  0  0  0  0  0  0
   15.8352  -15.2995   22.6167 C   0  0  2  0  0  0  0  0  0  0  0  0
   14.4129  -15.4223   22.2107 C   0  0  0  0  0  0  0  0  0  0  0  0
   14.0125  -15.2316   20.8199 C   0  0  0  0  0  0  0  0  0  0  0  0
   13.5614  -16.5757   20.1926 C   0  0  0  0  0  0  0  0  0  0  0  0
   12.4284  -16.3750   19.3430 N   0  0  0  0  0  0  0  0  0  0  0  0
   12.1872  -17.1711   18.1883 C   0  0  0  0  0  0  0  0  0  0  0  0
   11.1081  -16.8674   17.3182 N   0  0  0  0  0  0  0  0  0  0  0  0
   12.9702  -18.1677   17.9554 N   0  0  0  0  0  0  0  0  0  0  0  0
   16.1335  -15.6081   23.9491 N   0  0  0  0  0  0  0  0  0  0  0  0
   17.7468  -15.3586   24.3806 S   0  0  1  0  0  6  0  0  0  0  0  0
   17.9667  -15.7169   25.8720 O   0  0  0  0  0  0  0  0  0  0  0  0
   18.6681  -16.3631   23.6862 O   0  0  0  0  0  0  0  0  0  0  0  0
   18.4340  -13.7584   24.2026 C   0  0  0  0  0  0  0  0  0  0  0  0
   19.7327  -13.5175   24.7999 C   0  0  0  0  0  0  0  0  0  0  0  0
   20.0321  -13.6167   26.1399 C   0  0  0  0  0  0  0  0  0  0  0  0
   21.2675  -13.3313   26.6683 C   0  0  0  0  0  0  0  0  0  0  0  0
   22.2817  -12.9199   25.8336 C   0  0  0  0  0  0  0  0  0  0  0  0
   22.0352  -12.8049   24.4965 C   0  0  0  0  0  0  0  0  0  0  0  0
   13.9851  -18.0754   17.9948 H   0  0  0  0  0  0  0  0  0  0  0  0
 21  1  2  0
 16  2  2  0
 35  3  2  0
  3 39  1  0
  4 16  1  6
  4 17  1  0
 20  4  1  0
  5  8  1  0
  5 11  2  0
 14  5  1  0
  7  6  1  0
  8  7  2  0
  7  9  1  0
 10  9  2  0
 11 10  1  0
 11 12  1  0
 12 13  1  0
 15 14  1  0
 16 15  1  0
 18 17  1  0
 19 18  1  0
 20 19  1  0
 21 20  1  0
 22 21  1  0
 22 23  1  1
 30 22  1  0
 23 24  1  0
 24 25  1  0
 25 26  1  0
 26 27  1  0
 27 28  1  0
 27 29  2  0
 31 30  1  0
 31 32  2  0
 31 33  2  0
 31 34  1  1
 34 35  1  0
 35 36  1  0
 36 37  2  0
 37 38  1  0
 38 39  2  0
 29 40  1  0
M  CHG  1  13   1
M  END
$$$$
