
     RDKit          3D

 40 42  0  0  0  0  0  0  0  0999 V2000
   15.5217  -10.7961   19.7826 O   0  0  0  0  0  0  0  0  0  0  0  0
   15.2843  -13.4748   17.8308 O   0  0  0  0  0  0  0  0  0  0  0  0
   19.4810  -15.6932   24.2506 C   0  0  0  0  0  0  0  0  0  0  0  0
   17.3114  -12.2456   18.1133 C   0  0  2  0  0  0  0  0  0  0  0  0
   15.7450  -10.5096   14.3491 C   0  0  0  0  0  0  0  0  0  0  0  0
   15.0512   -6.8435   12.8088 Cl  0  0  0  0  0  0  0  0  0  0  0  0
   15.0377   -8.5902   13.0875 C   0  0  0  0  0  0  0  0  0  0  0  0
   15.7570   -9.1301   14.1315 C   0  0  0  0  0  0  0  0  0  0  0  0
   14.2951   -9.3711   12.2366 C   0  0  0  0  0  0  0  0  0  0  0  0
   14.2806  -10.7214   12.4465 C   0  0  0  0  0  0  0  0  0  0  0  0
   15.0020  -11.2828   13.4969 C   0  0  0  0  0  0  0  0  0  0  0  0
   14.9638  -12.7518   13.7037 C   0  0  0  0  0  0  0  0  0  0  0  0
   15.8451  -13.4287   12.7581 N   0  0  0  0  0  4  0  0  0  0  0  0
   16.5219  -11.0658   15.4740 C   0  0  0  0  0  0  0  0  0  0  0  0
   15.5998  -11.7201   16.3778 N   0  0  0  0  0  0  0  0  0  0  0  0
   15.9969  -12.5386   17.4473 C   0  0  0  0  0  0  0  0  0  0  0  0
   18.2560  -13.3066   17.6649 C   0  0  0  0  0  0  0  0  0  0  0  0
   18.3014  -14.2837   18.8416 C   0  0  0  0  0  0  0  0  0  0  0  0
   18.2673  -13.2476   19.9706 C   0  0  0  0  0  0  0  0  0  0  0  0
   17.1572  -12.4114   19.5945 N   0  0  0  0  0  0  0  0  0  0  0  0
   16.1336  -11.7794   20.3237 C   0  0  0  0  0  0  0  0  0  0  0  0
   15.6611  -12.1474   21.7276 C   0  0  2  0  0  0  0  0  0  0  0  0
   14.2270  -11.7660   21.7555 C   0  0  0  0  0  0  0  0  0  0  0  0
   13.2482  -12.4740   20.9357 C   0  0  0  0  0  0  0  0  0  0  0  0
   12.7320  -13.7373   21.6714 C   0  0  0  0  0  0  0  0  0  0  0  0
   11.8587  -13.3694   22.7428 N   0  0  0  0  0  0  0  0  0  0  0  0
   10.4516  -13.2402   22.5730 C   0  0  0  0  0  0  0  0  0  0  0  0
    9.7255  -14.2063   21.8293 N   0  0  0  0  0  0  0  0  0  0  0  0
    9.8588  -12.2298   23.1098 N   0  0  0  0  0  0  0  0  0  0  0  0
   16.4971  -11.5024   22.6466 N   0  0  0  0  0  0  0  0  0  0  0  0
   18.0246  -12.2025   22.8139 S   0  0  1  0  0  6  0  0  0  0  0  0
   18.8258  -12.0677   21.4945 O   0  0  0  0  0  0  0  0  0  0  0  0
   18.8971  -11.4040   23.7840 O   0  0  0  0  0  0  0  0  0  0  0  0
   18.1384  -13.8988   23.2308 C   0  0  0  0  0  0  0  0  0  0  0  0
   19.3562  -14.3495   23.8750 C   0  0  0  0  0  0  0  0  0  0  0  0
   20.4680  -13.5764   24.1230 C   0  0  0  0  0  0  0  0  0  0  0  0
   21.6205  -14.0591   24.6935 C   0  0  0  0  0  0  0  0  0  0  0  0
   21.6959  -15.3875   25.0463 C   0  0  0  0  0  0  0  0  0  0  0  0
   20.6203  -16.1960   24.8203 C   0  0  0  0  0  0  0  0  0  0  0  0
   10.3523  -11.5778   23.7193 H   0  0  0  0  0  0  0  0  0  0  0  0
 21  1  2  0
 16  2  2  0
 35  3  2  0
  3 39  1  0
  4 16  1  6
  4 17  1  0
 20  4  1  0
  5  8  1  0
  5 11  2  0
 14  5  1  0
  7  6  1  0
  8  7  2  0
  7  9  1  0
 10  9  2  0
 11 10  1  0
 11 12  1  0
 12 13  1  0
 15 14  1  0
 16 15  1  0
 18 17  1  0
 19 18  1  0
 20 19  1  0
 21 20  1  0
 22 21  1  0
 22 23  1  1
 30 22  1  0
 23 24  1  0
 24 25  1  0
 25 26  1  0
 26 27  1  0
 27 28  1  0
 27 29  2  0
 31 30  1  0
 31 32  2  0
 31 33  2  0
 31 34  1  1
 34 35  1  0
 35 36  1  0
 36 37  2  0
 37 38  1  0
 38 39  2  0
 29 40  1  0
M  CHG  1  13   1
M  END
$$$$
