
     RDKit          3D

 40 42  0  0  0  0  0  0  0  0999 V2000
   15.6849  -12.9547   22.9274 O   0  0  0  0  0  0  0  0  0  0  0  0
   16.4074  -11.7221   19.2439 O   0  0  0  0  0  0  0  0  0  0  0  0
   21.0870  -12.8975   26.2992 C   0  0  0  0  0  0  0  0  0  0  0  0
   17.6269  -11.6867   21.2960 C   0  0  2  0  0  0  0  0  0  0  0  0
   13.5428   -9.8639   22.1337 C   0  0  0  0  0  0  0  0  0  0  0  0
   12.6994   -7.1254   24.9767 Cl  0  0  0  0  0  0  0  0  0  0  0  0
   12.6810   -8.5840   23.9761 C   0  0  0  0  0  0  0  0  0  0  0  0
   13.5596   -8.7115   22.9224 C   0  0  0  0  0  0  0  0  0  0  0  0
   11.7721   -9.5651   24.2868 C   0  0  0  0  0  0  0  0  0  0  0  0
   11.7527  -10.6944   23.5176 C   0  0  0  0  0  0  0  0  0  0  0  0
   12.6339  -10.8389   22.4491 C   0  0  0  0  0  0  0  0  0  0  0  0
   12.5935  -12.0783   21.6340 C   0  0  0  0  0  0  0  0  0  0  0  0
   12.3046  -13.2374   22.4720 N   0  0  0  0  0  4  0  0  0  0  0  0
   14.4937   -9.9795   21.0108 C   0  0  0  0  0  0  0  0  0  0  0  0
   15.1777  -11.2497   21.1291 N   0  0  0  0  0  0  0  0  0  0  0  0
   16.3783  -11.5590   20.4702 C   0  0  0  0  0  0  0  0  0  0  0  0
   18.7713  -11.5260   20.3561 C   0  0  0  0  0  0  0  0  0  0  0  0
   19.2422  -12.9587   20.0974 C   0  0  0  0  0  0  0  0  0  0  0  0
   19.0554  -13.4967   21.5203 C   0  0  0  0  0  0  0  0  0  0  0  0
   17.7143  -13.0807   21.8386 N   0  0  0  0  0  0  0  0  0  0  0  0
   16.6530  -13.6902   22.5321 C   0  0  0  0  0  0  0  0  0  0  0  0
   16.5267  -15.1722   22.8746 C   0  0  2  0  0  0  0  0  0  0  0  0
   15.1930  -15.5671   22.3567 C   0  0  0  0  0  0  0  0  0  0  0  0
   14.8947  -15.5005   20.9292 C   0  0  0  0  0  0  0  0  0  0  0  0
   13.4462  -15.9785   20.6515 C   0  0  0  0  0  0  0  0  0  0  0  0
   12.6979  -14.9503   19.9969 N   0  0  0  0  0  0  0  0  0  0  0  0
   11.4607  -14.4631   20.5042 C   0  0  0  0  0  0  0  0  0  0  0  0
   11.4375  -13.5715   21.6079 N   0  0  0  0  0  0  0  0  0  0  0  0
   10.3700  -14.8502   19.9378 N   0  0  0  0  0  0  0  0  0  0  0  0
   16.7293  -15.3149   24.2523 N   0  0  0  0  0  0  0  0  0  0  0  0
   18.3482  -15.2672   24.7298 S   0  0  1  0  0  6  0  0  0  0  0  0
   18.5769  -16.1945   25.9500 O   0  0  0  0  0  0  0  0  0  0  0  0
   19.2548  -15.9134   23.6808 O   0  0  0  0  0  0  0  0  0  0  0  0
   19.0482  -13.7334   25.2007 C   0  0  0  0  0  0  0  0  0  0  0  0
   20.4934  -13.6534   25.2803 C   0  0  0  0  0  0  0  0  0  0  0  0
   21.3812  -14.3078   24.4565 C   0  0  0  0  0  0  0  0  0  0  0  0
   22.7457  -14.2407   24.5997 C   0  0  0  0  0  0  0  0  0  0  0  0
   23.2829  -13.4841   25.6165 C   0  0  0  0  0  0  0  0  0  0  0  0
   22.4445  -12.8166   26.4609 C   0  0  0  0  0  0  0  0  0  0  0  0
   10.3756  -15.4340   19.1016 H   0  0  0  0  0  0  0  0  0  0  0  0
 21  1  2  0
 16  2  2  0
 35  3  2  0
  3 39  1  0
  4 16  1  6
  4 17  1  0
 20  4  1  0
  5  8  1  0
  5 11  2  0
 14  5  1  0
  7  6  1  0
  8  7  2  0
  7  9  1  0
 10  9  2  0
 11 10  1  0
 11 12  1  0
 12 13  1  0
 15 14  1  0
 16 15  1  0
 18 17  1  0
 19 18  1  0
 20 19  1  0
 21 20  1  0
 22 21  1  0
 22 23  1  1
 30 22  1  0
 23 24  1  0
 24 25  1  0
 25 26  1  0
 26 27  1  0
 27 28  1  0
 27 29  2  0
 31 30  1  0
 31 32  2  0
 31 33  2  0
 31 34  1  1
 34 35  1  0
 35 36  1  0
 36 37  2  0
 37 38  1  0
 38 39  2  0
 29 40  1  0
M  CHG  1  13   1
M  END
$$$$
