
     RDKit          3D

 23 24  0  0  0  0  0  0  0  0999 V2000
   -6.3427  -32.1835  -14.9429 C   0  0  1  0  0  0  0  0  0  0  0  0
   -6.6075  -31.7653  -13.5434 C   0  0  1  0  0  0  0  0  0  0  0  0
   -7.8800  -30.9383  -13.5535 C   0  0  2  0  0  0  0  0  0  0  0  0
   -7.6037  -29.7158  -14.3872 C   0  0  1  0  0  0  0  0  0  0  0  0
   -6.7993  -30.0036  -15.6178 C   0  0  1  0  0  0  0  0  0  0  0  0
   -5.5036  -29.1891  -15.6093 C   0  0  0  0  0  0  0  0  0  0  0  0
   -7.1052  -33.3536  -15.1756 O   0  0  0  0  0  0  0  0  0  0  0  0
   -6.8993  -32.9073  -12.7741 O   0  0  0  0  0  0  0  0  0  0  0  0
   -8.3268  -30.6400  -12.2946 O   0  0  0  0  0  0  0  0  0  0  0  0
   -8.8257  -29.0989  -14.6519 O   0  0  0  0  0  0  0  0  0  0  0  0
   -6.6231  -31.3069  -15.9254 O   0  0  0  0  0  0  0  0  0  0  0  0
   -5.2466  -28.6872  -16.8823 O   0  0  0  0  0  0  0  0  0  0  0  0
   -6.3880  -34.3372  -15.8158 C   0  0  2  0  0  0  0  0  0  0  0  0
   -7.1621  -34.9684  -16.9428 C   0  0  1  0  0  0  0  0  0  0  0  0
   -7.4226  -36.4248  -16.7603 C   0  0  2  0  0  0  0  0  0  0  0  0
   -6.2569  -37.1933  -16.1894 C   0  0  1  0  0  0  0  0  0  0  0  0
   -5.3232  -36.3460  -15.3895 C   0  0  1  0  0  0  0  0  0  0  0  0
   -4.1249  -35.9598  -16.2486 C   0  0  0  0  0  0  0  0  0  0  0  0
   -8.4212  -34.3398  -17.0902 O   0  0  0  0  0  0  0  0  0  0  0  0
   -7.7016  -36.9731  -18.0126 O   0  0  0  0  0  0  0  0  0  0  0  0
   -6.6950  -38.2659  -15.4034 O   0  0  0  0  0  0  0  0  0  0  0  0
   -5.9643  -35.2512  -14.8661 O   0  0  0  0  0  0  0  0  0  0  0  0
   -2.9593  -36.2729  -15.5321 O   0  0  0  0  0  0  0  0  0  0  0  0
  1  2  1  0
  1  7  1  6
  1 11  1  0
  2  3  1  0
  2  8  1  1
  3  4  1  0
  3  9  1  1
  5  4  1  0
  4 10  1  6
  5  6  1  1
 11  5  1  0
  6 12  1  0
 13  7  1  1
 13 14  1  0
 22 13  1  0
 15 14  1  0
 14 19  1  1
 16 15  1  0
 15 20  1  6
 17 16  1  0
 16 21  1  1
 17 18  1  6
 17 22  1  0
 23 18  1  0
M  END
$$$$
