
     RDKit          3D

 23 24  0  0  0  0  0  0  0  0999 V2000
   -6.7762  -32.8470  -16.3509 C   0  0  1  0  0  0  0  0  0  0  0  0
   -7.6953  -31.7265  -16.0292 C   0  0  1  0  0  0  0  0  0  0  0  0
   -7.9418  -31.7618  -14.5321 C   0  0  2  0  0  0  0  0  0  0  0  0
   -8.6321  -33.0650  -14.2304 C   0  0  1  0  0  0  0  0  0  0  0  0
   -8.0786  -34.2244  -15.0010 C   0  0  1  0  0  0  0  0  0  0  0  0
   -9.1759  -34.8728  -15.8484 C   0  0  0  0  0  0  0  0  0  0  0  0
   -5.4595  -32.3804  -16.1198 O   0  0  0  0  0  0  0  0  0  0  0  0
   -7.0348  -30.5091  -16.2797 O   0  0  0  0  0  0  0  0  0  0  0  0
   -8.6359  -30.6703  -14.0846 O   0  0  0  0  0  0  0  0  0  0  0  0
   -8.6030  -33.2495  -12.8487 O   0  0  0  0  0  0  0  0  0  0  0  0
   -6.9292  -34.0006  -15.6741 O   0  0  0  0  0  0  0  0  0  0  0  0
   -8.7725  -36.1386  -16.2647 O   0  0  0  0  0  0  0  0  0  0  0  0
   -4.5823  -32.7503  -17.1125 C   0  0  2  0  0  0  0  0  0  0  0  0
   -3.6686  -33.8672  -16.6818 C   0  0  1  0  0  0  0  0  0  0  0  0
   -2.2231  -33.5025  -16.6776 C   0  0  2  0  0  0  0  0  0  0  0  0
   -1.7968  -32.6566  -17.8515 C   0  0  1  0  0  0  0  0  0  0  0  0
   -2.9146  -31.8695  -18.4518 C   0  0  1  0  0  0  0  0  0  0  0  0
   -3.4418  -32.5942  -19.6847 C   0  0  0  0  0  0  0  0  0  0  0  0
   -3.9905  -34.2912  -15.3708 O   0  0  0  0  0  0  0  0  0  0  0  0
   -1.4806  -34.6825  -16.7311 O   0  0  0  0  0  0  0  0  0  0  0  0
   -0.7583  -31.7870  -17.4972 O   0  0  0  0  0  0  0  0  0  0  0  0
   -3.9018  -31.6197  -17.5317 O   0  0  0  0  0  0  0  0  0  0  0  0
   -2.8548  -32.0069  -20.8164 O   0  0  0  0  0  0  0  0  0  0  0  0
  1  2  1  0
  1  7  1  1
  1 11  1  0
  2  3  1  0
  2  8  1  1
  3  4  1  0
  3  9  1  6
  5  4  1  0
  4 10  1  1
  5  6  1  6
 11  5  1  0
  6 12  1  0
 13  7  1  1
 13 14  1  0
 22 13  1  0
 15 14  1  0
 14 19  1  1
 16 15  1  0
 15 20  1  6
 17 16  1  0
 16 21  1  1
 17 18  1  6
 17 22  1  0
 23 18  1  0
M  END
$$$$
