
     RDKit          3D

 23 24  0  0  0  0  0  0  0  0999 V2000
   -6.3770  -34.3980  -15.8400 C   0  0  1  0  0  0  0  0  0  0  0  0
   -5.5698  -35.1018  -14.8119 C   0  0  1  0  0  0  0  0  0  0  0  0
   -4.1686  -35.2632  -15.3723 C   0  0  2  0  0  0  0  0  0  0  0  0
   -4.2805  -36.1381  -16.5921 C   0  0  1  0  0  0  0  0  0  0  0  0
   -5.4755  -35.8270  -17.4403 C   0  0  1  0  0  0  0  0  0  0  0  0
   -6.3682  -37.0628  -17.5760 C   0  0  0  0  0  0  0  0  0  0  0  0
   -6.1455  -33.0117  -15.6692 O   0  0  0  0  0  0  0  0  0  0  0  0
   -5.4380  -34.2671  -13.6862 O   0  0  0  0  0  0  0  0  0  0  0  0
   -3.2811  -35.7426  -14.4471 O   0  0  0  0  0  0  0  0  0  0  0  0
   -3.0716  -36.0592  -17.2820 O   0  0  0  0  0  0  0  0  0  0  0  0
   -6.1493  -34.6976  -17.1326 O   0  0  0  0  0  0  0  0  0  0  0  0
   -7.0643  -37.0190  -18.7810 O   0  0  0  0  0  0  0  0  0  0  0  0
   -7.2945  -32.3118  -15.3835 C   0  0  2  0  0  0  0  0  0  0  0  0
   -7.3375  -30.9752  -16.0758 C   0  0  1  0  0  0  0  0  0  0  0  0
   -7.3793  -29.8104  -15.1464 C   0  0  2  0  0  0  0  0  0  0  0  0
   -8.2702  -30.0107  -13.9458 C   0  0  1  0  0  0  0  0  0  0  0  0
   -8.4676  -31.4467  -13.5873 C   0  0  1  0  0  0  0  0  0  0  0  0
   -9.7989  -31.9323  -14.1485 C   0  0  0  0  0  0  0  0  0  0  0  0
   -6.1972  -30.8069  -16.8965 O   0  0  0  0  0  0  0  0  0  0  0  0
   -7.8800  -28.7148  -15.8505 O   0  0  0  0  0  0  0  0  0  0  0  0
   -7.7792  -29.3202  -12.8312 O   0  0  0  0  0  0  0  0  0  0  0  0
   -7.4124  -32.2173  -14.0072 O   0  0  0  0  0  0  0  0  0  0  0  0
  -10.2319  -33.0122  -13.3633 O   0  0  0  0  0  0  0  0  0  0  0  0
  1  2  1  0
  1  7  1  6
  1 11  1  0
  2  3  1  0
  2  8  1  1
  3  4  1  0
  3  9  1  1
  5  4  1  0
  4 10  1  6
  5  6  1  1
 11  5  1  0
  6 12  1  0
 13  7  1  1
 13 14  1  0
 22 13  1  0
 15 14  1  0
 14 19  1  1
 16 15  1  0
 15 20  1  6
 17 16  1  0
 16 21  1  1
 17 18  1  6
 17 22  1  0
 23 18  1  0
M  END
$$$$
