
     RDKit          3D

 23 24  0  0  0  0  0  0  0  0999 V2000
   -7.3451  -32.6724  -14.3448 C   0  0  1  0  0  0  0  0  0  0  0  0
   -8.3603  -31.7595  -14.9275 C   0  0  1  0  0  0  0  0  0  0  0  0
   -7.7442  -30.3734  -14.9768 C   0  0  2  0  0  0  0  0  0  0  0  0
   -7.4727  -29.9617  -13.5546 C   0  0  1  0  0  0  0  0  0  0  0  0
   -6.9338  -31.0723  -12.7058 C   0  0  1  0  0  0  0  0  0  0  0  0
   -7.8555  -31.3237  -11.5101 C   0  0  0  0  0  0  0  0  0  0  0  0
   -6.5008  -33.0819  -15.4050 O   0  0  0  0  0  0  0  0  0  0  0  0
   -8.5865  -32.1257  -16.2676 O   0  0  0  0  0  0  0  0  0  0  0  0
   -8.5196  -29.4740  -15.6574 O   0  0  0  0  0  0  0  0  0  0  0  0
   -6.6493  -28.8371  -13.5893 O   0  0  0  0  0  0  0  0  0  0  0  0
   -6.5643  -32.1967  -13.3566 O   0  0  0  0  0  0  0  0  0  0  0  0
   -7.1023  -31.4624  -10.3473 O   0  0  0  0  0  0  0  0  0  0  0  0
   -6.2523  -34.4346  -15.3950 C   0  0  2  0  0  0  0  0  0  0  0  0
   -4.7841  -34.7477  -15.5141 C   0  0  1  0  0  0  0  0  0  0  0  0
   -4.4255  -35.5254  -16.7343 C   0  0  2  0  0  0  0  0  0  0  0  0
   -5.4087  -36.6151  -17.0825 C   0  0  1  0  0  0  0  0  0  0  0  0
   -6.7829  -36.3640  -16.5554 C   0  0  1  0  0  0  0  0  0  0  0  0
   -6.9851  -37.1527  -15.2669 C   0  0  0  0  0  0  0  0  0  0  0  0
   -4.0255  -33.5538  -15.5486 O   0  0  0  0  0  0  0  0  0  0  0  0
   -3.1943  -36.1410  -16.5069 O   0  0  0  0  0  0  0  0  0  0  0  0
   -5.4744  -36.8131  -18.4670 O   0  0  0  0  0  0  0  0  0  0  0  0
   -7.0177  -35.0223  -16.3879 O   0  0  0  0  0  0  0  0  0  0  0  0
   -8.2276  -37.8008  -15.3460 O   0  0  0  0  0  0  0  0  0  0  0  0
  1  2  1  0
  1  7  1  6
  1 11  1  0
  2  3  1  0
  2  8  1  6
  3  4  1  0
  3  9  1  1
  5  4  1  0
  4 10  1  6
  5  6  1  1
 11  5  1  0
  6 12  1  0
 13  7  1  6
 13 14  1  0
 22 13  1  0
 15 14  1  0
 14 19  1  6
 16 15  1  0
 15 20  1  1
 17 16  1  0
 16 21  1  6
 17 18  1  1
 17 22  1  0
 23 18  1  0
M  END
$$$$
