
     RDKit          3D

 23 24  0  0  0  0  0  0  0  0999 V2000
   -6.1747  -33.9901  -15.8146 C   0  0  1  0  0  0  0  0  0  0  0  0
   -7.0781  -34.7472  -16.7171 C   0  0  1  0  0  0  0  0  0  0  0  0
   -7.4855  -36.0140  -15.9873 C   0  0  2  0  0  0  0  0  0  0  0  0
   -6.2312  -36.8155  -15.7632 C   0  0  1  0  0  0  0  0  0  0  0  0
   -5.0533  -35.9794  -15.3660 C   0  0  1  0  0  0  0  0  0  0  0  0
   -3.9125  -36.1553  -16.3710 C   0  0  0  0  0  0  0  0  0  0  0  0
   -6.9977  -33.2304  -14.9485 O   0  0  0  0  0  0  0  0  0  0  0  0
   -8.2641  -34.0108  -16.8969 O   0  0  0  0  0  0  0  0  0  0  0  0
   -8.4595  -36.7140  -16.6467 O   0  0  0  0  0  0  0  0  0  0  0  0
   -6.5315  -37.8250  -14.8496 O   0  0  0  0  0  0  0  0  0  0  0  0
   -5.3128  -34.6911  -15.0542 O   0  0  0  0  0  0  0  0  0  0  0  0
   -2.7010  -36.2932  -15.6989 O   0  0  0  0  0  0  0  0  0  0  0  0
   -6.5965  -31.9187  -14.8483 C   0  0  2  0  0  0  0  0  0  0  0  0
   -6.8528  -31.3448  -13.4799 C   0  0  1  0  0  0  0  0  0  0  0  0
   -7.8013  -30.1947  -13.4710 C   0  0  2  0  0  0  0  0  0  0  0  0
   -7.6122  -29.2302  -14.6152 C   0  0  1  0  0  0  0  0  0  0  0  0
   -6.9713  -29.8500  -15.8130 C   0  0  1  0  0  0  0  0  0  0  0  0
   -5.4833  -29.5196  -15.8214 C   0  0  0  0  0  0  0  0  0  0  0  0
   -7.3945  -32.3323  -12.6234 O   0  0  0  0  0  0  0  0  0  0  0  0
   -7.5979  -29.4772  -12.2917 O   0  0  0  0  0  0  0  0  0  0  0  0
   -8.8286  -28.6482  -14.9919 O   0  0  0  0  0  0  0  0  0  0  0  0
   -7.2059  -31.2012  -15.8636 O   0  0  0  0  0  0  0  0  0  0  0  0
   -5.0663  -29.4333  -17.1588 O   0  0  0  0  0  0  0  0  0  0  0  0
  1  2  1  0
  1  7  1  1
  1 11  1  0
  2  3  1  0
  2  8  1  1
  3  4  1  0
  3  9  1  6
  5  4  1  0
  4 10  1  1
  5  6  1  6
 11  5  1  0
  6 12  1  0
 13  7  1  1
 13 14  1  0
 22 13  1  0
 15 14  1  0
 14 19  1  1
 16 15  1  0
 15 20  1  1
 17 16  1  0
 16 21  1  6
 17 18  1  1
 17 22  1  0
 23 18  1  0
M  END
$$$$
