
     RDKit          3D

 23 24  0  0  0  0  0  0  0  0999 V2000
   -5.9764  -31.9545  -14.6792 C   0  0  1  0  0  0  0  0  0  0  0  0
   -6.4569  -31.4040  -13.3870 C   0  0  1  0  0  0  0  0  0  0  0  0
   -7.5769  -30.4293  -13.7013 C   0  0  2  0  0  0  0  0  0  0  0  0
   -6.9754  -29.3156  -14.5160 C   0  0  1  0  0  0  0  0  0  0  0  0
   -5.9874  -29.7911  -15.5368 C   0  0  1  0  0  0  0  0  0  0  0  0
   -4.6212  -29.1444  -15.2970 C   0  0  0  0  0  0  0  0  0  0  0  0
   -6.8287  -33.0356  -15.0101 O   0  0  0  0  0  0  0  0  0  0  0  0
   -7.0496  -32.4409  -12.6423 O   0  0  0  0  0  0  0  0  0  0  0  0
   -8.2222  -29.9855  -12.5788 O   0  0  0  0  0  0  0  0  0  0  0  0
   -8.0240  -28.5740  -15.0585 O   0  0  0  0  0  0  0  0  0  0  0  0
   -5.9322  -31.1254  -15.7389 O   0  0  0  0  0  0  0  0  0  0  0  0
   -4.2914  -28.3147  -16.3653 O   0  0  0  0  0  0  0  0  0  0  0  0
   -6.1756  -34.0406  -15.6847 C   0  0  2  0  0  0  0  0  0  0  0  0
   -6.7221  -34.2473  -17.0726 C   0  0  1  0  0  0  0  0  0  0  0  0
   -7.3083  -35.5989  -17.2999 C   0  0  2  0  0  0  0  0  0  0  0  0
   -6.5213  -36.7254  -16.6778 C   0  0  1  0  0  0  0  0  0  0  0  0
   -5.6920  -36.2961  -15.5127 C   0  0  1  0  0  0  0  0  0  0  0  0
   -4.2525  -36.0813  -15.9650 C   0  0  0  0  0  0  0  0  0  0  0  0
   -7.7408  -33.3046  -17.3480 O   0  0  0  0  0  0  0  0  0  0  0  0
   -7.3382  -35.8302  -18.6756 O   0  0  0  0  0  0  0  0  0  0  0  0
   -7.3629  -37.7728  -16.2843 O   0  0  0  0  0  0  0  0  0  0  0  0
   -6.2193  -35.1841  -14.9053 O   0  0  0  0  0  0  0  0  0  0  0  0
   -3.4046  -36.5686  -14.9582 O   0  0  0  0  0  0  0  0  0  0  0  0
  1  2  1  0
  1  7  1  6
  1 11  1  0
  2  3  1  0
  2  8  1  1
  3  4  1  0
  3  9  1  1
  5  4  1  0
  4 10  1  6
  5  6  1  1
 11  5  1  0
  6 12  1  0
 13  7  1  1
 13 14  1  0
 22 13  1  0
 15 14  1  0
 14 19  1  1
 16 15  1  0
 15 20  1  6
 17 16  1  0
 16 21  1  1
 17 18  1  6
 17 22  1  0
 23 18  1  0
M  END
$$$$
