
     RDKit          3D

 23 24  0  0  0  0  0  0  0  0999 V2000
   -6.4220  -32.6587  -14.6373 C   0  0  1  0  0  0  0  0  0  0  0  0
   -7.0095  -32.1562  -13.3699 C   0  0  1  0  0  0  0  0  0  0  0  0
   -7.5217  -30.7527  -13.6363 C   0  0  2  0  0  0  0  0  0  0  0  0
   -6.3273  -29.9085  -13.9922 C   0  0  1  0  0  0  0  0  0  0  0  0
   -5.3465  -30.6094  -14.8816 C   0  0  1  0  0  0  0  0  0  0  0  0
   -3.9725  -30.6756  -14.2109 C   0  0  0  0  0  0  0  0  0  0  0  0
   -7.4871  -33.1894  -15.4044 O   0  0  0  0  0  0  0  0  0  0  0  0
   -8.1461  -32.9257  -13.0582 O   0  0  0  0  0  0  0  0  0  0  0  0
   -8.2447  -30.2462  -12.5903 O   0  0  0  0  0  0  0  0  0  0  0  0
   -6.7998  -28.7080  -14.5207 O   0  0  0  0  0  0  0  0  0  0  0  0
   -5.7529  -31.7836  -15.4112 O   0  0  0  0  0  0  0  0  0  0  0  0
   -2.9782  -30.8303  -15.1732 O   0  0  0  0  0  0  0  0  0  0  0  0
   -7.1419  -34.3449  -16.0659 C   0  0  2  0  0  0  0  0  0  0  0  0
   -7.5956  -34.3396  -17.5018 C   0  0  1  0  0  0  0  0  0  0  0  0
   -8.5705  -35.4171  -17.8351 C   0  0  2  0  0  0  0  0  0  0  0  0
   -8.2589  -36.7492  -17.1997 C   0  0  1  0  0  0  0  0  0  0  0  0
   -7.4457  -36.6352  -15.9526 C   0  0  1  0  0  0  0  0  0  0  0  0
   -5.9804  -36.9039  -16.2750 C   0  0  0  0  0  0  0  0  0  0  0  0
   -8.2173  -33.1088  -17.8191 O   0  0  0  0  0  0  0  0  0  0  0  0
   -8.5478  -35.6065  -19.2173 O   0  0  0  0  0  0  0  0  0  0  0  0
   -9.4308  -37.4634  -16.9228 O   0  0  0  0  0  0  0  0  0  0  0  0
   -7.6312  -35.4197  -15.3431 O   0  0  0  0  0  0  0  0  0  0  0  0
   -5.4300  -37.6359  -15.2114 O   0  0  0  0  0  0  0  0  0  0  0  0
  1  2  1  0
  1  7  1  6
  1 11  1  0
  2  3  1  0
  2  8  1  6
  3  4  1  0
  3  9  1  1
  5  4  1  0
  4 10  1  6
  5  6  1  1
 11  5  1  0
  6 12  1  0
 13  7  1  1
 13 14  1  0
 22 13  1  0
 15 14  1  0
 14 19  1  1
 16 15  1  0
 15 20  1  6
 17 16  1  0
 16 21  1  1
 17 18  1  6
 17 22  1  0
 23 18  1  0
M  END
$$$$
