
     RDKit          3D

 23 24  0  0  0  0  0  0  0  0999 V2000
   -6.0124  -32.0998  -14.6993 C   0  0  1  0  0  0  0  0  0  0  0  0
   -6.4261  -31.5801  -13.3717 C   0  0  1  0  0  0  0  0  0  0  0  0
   -7.5843  -30.6269  -13.6021 C   0  0  2  0  0  0  0  0  0  0  0  0
   -7.0578  -29.4873  -14.4329 C   0  0  1  0  0  0  0  0  0  0  0  0
   -6.1230  -29.9245  -15.5188 C   0  0  1  0  0  0  0  0  0  0  0  0
   -4.7594  -29.2501  -15.3507 C   0  0  0  0  0  0  0  0  0  0  0  0
   -6.8591  -33.1950  -14.9963 O   0  0  0  0  0  0  0  0  0  0  0  0
   -6.9497  -32.6416  -12.6100 O   0  0  0  0  0  0  0  0  0  0  0  0
   -8.1703  -30.2151  -12.4357 O   0  0  0  0  0  0  0  0  0  0  0  0
   -8.1534  -28.7620  -14.8992 O   0  0  0  0  0  0  0  0  0  0  0  0
   -6.0506  -31.2539  -15.7460 O   0  0  0  0  0  0  0  0  0  0  0  0
   -4.1622  -29.0637  -16.5946 O   0  0  0  0  0  0  0  0  0  0  0  0
   -6.2054  -34.2086  -15.6575 C   0  0  2  0  0  0  0  0  0  0  0  0
   -6.9479  -34.6622  -16.8865 C   0  0  1  0  0  0  0  0  0  0  0  0
   -7.3845  -36.0869  -16.8417 C   0  0  2  0  0  0  0  0  0  0  0  0
   -6.3645  -37.0264  -16.2481 C   0  0  1  0  0  0  0  0  0  0  0  0
   -5.4123  -36.3543  -15.3147 C   0  0  1  0  0  0  0  0  0  0  0  0
   -4.1103  -36.0524  -16.0473 C   0  0  0  0  0  0  0  0  0  0  0  0
   -8.1117  -33.8804  -17.0775 O   0  0  0  0  0  0  0  0  0  0  0  0
   -7.6170  -36.5081  -18.1513 O   0  0  0  0  0  0  0  0  0  0  0  0
   -6.9846  -38.0928  -15.5859 O   0  0  0  0  0  0  0  0  0  0  0  0
   -5.9682  -35.2314  -14.7549 O   0  0  0  0  0  0  0  0  0  0  0  0
   -3.0622  -36.6553  -15.3344 O   0  0  0  0  0  0  0  0  0  0  0  0
  1  2  1  0
  1  7  1  6
  1 11  1  0
  2  3  1  0
  2  8  1  1
  3  4  1  0
  3  9  1  1
  5  4  1  0
  4 10  1  6
  5  6  1  1
 11  5  1  0
  6 12  1  0
 13  7  1  1
 13 14  1  0
 22 13  1  0
 15 14  1  0
 14 19  1  1
 16 15  1  0
 15 20  1  6
 17 16  1  0
 16 21  1  1
 17 18  1  6
 17 22  1  0
 23 18  1  0
M  END
$$$$
