
     RDKit          3D

 23 24  0  0  0  0  0  0  0  0999 V2000
   -6.8364  -32.6761  -15.9151 C   0  0  1  0  0  0  0  0  0  0  0  0
   -6.5477  -31.2256  -15.7879 C   0  0  1  0  0  0  0  0  0  0  0  0
   -7.4383  -30.6842  -14.6846 C   0  0  2  0  0  0  0  0  0  0  0  0
   -8.8617  -30.8632  -15.1404 C   0  0  1  0  0  0  0  0  0  0  0  0
   -9.1065  -32.1712  -15.8284 C   0  0  1  0  0  0  0  0  0  0  0  0
   -9.6276  -31.9365  -17.2482 C   0  0  0  0  0  0  0  0  0  0  0  0
   -6.0463  -33.3411  -14.9465 O   0  0  0  0  0  0  0  0  0  0  0  0
   -5.2273  -31.0624  -15.3285 O   0  0  0  0  0  0  0  0  0  0  0  0
   -7.1399  -29.3907  -14.3511 O   0  0  0  0  0  0  0  0  0  0  0  0
   -9.6889  -30.6497  -14.0386 O   0  0  0  0  0  0  0  0  0  0  0  0
   -8.1105  -33.0806  -15.7555 O   0  0  0  0  0  0  0  0  0  0  0  0
  -10.2243  -33.0961  -17.7358 O   0  0  0  0  0  0  0  0  0  0  0  0
   -5.4096  -34.4512  -15.4505 C   0  0  2  0  0  0  0  0  0  0  0  0
   -5.4841  -35.6281  -14.5140 C   0  0  1  0  0  0  0  0  0  0  0  0
   -4.1571  -36.1041  -14.0292 C   0  0  2  0  0  0  0  0  0  0  0  0
   -3.0807  -36.1118  -15.0860 C   0  0  1  0  0  0  0  0  0  0  0  0
   -3.3317  -35.1436  -16.1947 C   0  0  1  0  0  0  0  0  0  0  0  0
   -3.9383  -35.8789  -17.3840 C   0  0  0  0  0  0  0  0  0  0  0  0
   -6.2479  -35.3007  -13.3687 O   0  0  0  0  0  0  0  0  0  0  0  0
   -4.3061  -37.4186  -13.5859 O   0  0  0  0  0  0  0  0  0  0  0  0
   -1.8223  -35.8577  -14.5275 O   0  0  0  0  0  0  0  0  0  0  0  0
   -4.1120  -34.0948  -15.7766 O   0  0  0  0  0  0  0  0  0  0  0  0
   -3.1017  -35.6744  -18.4923 O   0  0  0  0  0  0  0  0  0  0  0  0
  1  2  1  0
  1  7  1  1
  1 11  1  0
  2  3  1  0
  2  8  1  1
  3  4  1  0
  3  9  1  6
  5  4  1  0
  4 10  1  1
  5  6  1  6
 11  5  1  0
  6 12  1  0
 13  7  1  1
 13 14  1  0
 22 13  1  0
 15 14  1  0
 14 19  1  1
 16 15  1  0
 15 20  1  6
 17 16  1  0
 16 21  1  1
 17 18  1  6
 17 22  1  0
 23 18  1  0
M  END
$$$$
