
     RDKit          3D

 23 24  0  0  0  0  0  0  0  0999 V2000
   -5.9267  -34.8636  -15.6573 C   0  0  1  0  0  0  0  0  0  0  0  0
   -6.8722  -35.4738  -16.6255 C   0  0  1  0  0  0  0  0  0  0  0  0
   -7.4599  -36.7073  -15.9647 C   0  0  2  0  0  0  0  0  0  0  0  0
   -6.3211  -37.6616  -15.7227 C   0  0  1  0  0  0  0  0  0  0  0  0
   -5.0713  -36.9882  -15.2446 C   0  0  1  0  0  0  0  0  0  0  0  0
   -3.9154  -37.2647  -16.2088 C   0  0  0  0  0  0  0  0  0  0  0  0
   -6.6918  -34.0413  -14.7952 O   0  0  0  0  0  0  0  0  0  0  0  0
   -7.9529  -34.5940  -16.8232 O   0  0  0  0  0  0  0  0  0  0  0  0
   -8.4794  -37.2611  -16.6908 O   0  0  0  0  0  0  0  0  0  0  0  0
   -6.7802  -38.6592  -14.8637 O   0  0  0  0  0  0  0  0  0  0  0  0
   -5.1895  -35.6898  -14.8916 O   0  0  0  0  0  0  0  0  0  0  0  0
   -3.3740  -38.5225  -15.9572 O   0  0  0  0  0  0  0  0  0  0  0  0
   -6.2517  -32.7384  -14.7739 C   0  0  2  0  0  0  0  0  0  0  0  0
   -6.5821  -32.0439  -13.4792 C   0  0  1  0  0  0  0  0  0  0  0  0
   -7.4870  -30.8693  -13.6332 C   0  0  2  0  0  0  0  0  0  0  0  0
   -7.1842  -30.0107  -14.8358 C   0  0  1  0  0  0  0  0  0  0  0  0
   -6.4840  -30.7480  -15.9292 C   0  0  1  0  0  0  0  0  0  0  0  0
   -4.9882  -30.4642  -15.8568 C   0  0  0  0  0  0  0  0  0  0  0  0
   -7.2172  -32.9392  -12.5862 O   0  0  0  0  0  0  0  0  0  0  0  0
   -7.3408  -30.0615  -12.5050 O   0  0  0  0  0  0  0  0  0  0  0  0
   -8.3497  -29.4263  -15.3460 O   0  0  0  0  0  0  0  0  0  0  0  0
   -6.7627  -32.0911  -15.8860 O   0  0  0  0  0  0  0  0  0  0  0  0
   -4.4680  -30.5470  -17.1579 O   0  0  0  0  0  0  0  0  0  0  0  0
  1  2  1  0
  1  7  1  1
  1 11  1  0
  2  3  1  0
  2  8  1  1
  3  4  1  0
  3  9  1  6
  5  4  1  0
  4 10  1  1
  5  6  1  6
 11  5  1  0
  6 12  1  0
 13  7  1  1
 13 14  1  0
 22 13  1  0
 15 14  1  0
 14 19  1  1
 16 15  1  0
 15 20  1  1
 17 16  1  0
 16 21  1  6
 17 18  1  1
 17 22  1  0
 23 18  1  0
M  END
$$$$
