
     RDKit          3D

 23 24  0  0  0  0  0  0  0  0999 V2000
   -5.9975  -34.1299  -15.8812 C   0  0  1  0  0  0  0  0  0  0  0  0
   -6.7703  -34.7031  -17.0117 C   0  0  1  0  0  0  0  0  0  0  0  0
   -7.4063  -35.9890  -16.5163 C   0  0  2  0  0  0  0  0  0  0  0  0
   -6.2836  -36.9276  -16.1634 C   0  0  1  0  0  0  0  0  0  0  0  0
   -5.1404  -36.2537  -15.4682 C   0  0  1  0  0  0  0  0  0  0  0  0
   -3.8474  -36.4418  -16.2652 C   0  0  0  0  0  0  0  0  0  0  0  0
   -6.9075  -33.3813  -15.0963 O   0  0  0  0  0  0  0  0  0  0  0  0
   -7.8396  -33.8400  -17.3166 O   0  0  0  0  0  0  0  0  0  0  0  0
   -8.2897  -36.5225  -17.4154 O   0  0  0  0  0  0  0  0  0  0  0  0
   -6.8294  -37.9870  -15.4397 O   0  0  0  0  0  0  0  0  0  0  0  0
   -5.3526  -34.9828  -15.0633 O   0  0  0  0  0  0  0  0  0  0  0  0
   -2.7777  -36.6478  -15.3982 O   0  0  0  0  0  0  0  0  0  0  0  0
   -6.4835  -32.0918  -14.8751 C   0  0  2  0  0  0  0  0  0  0  0  0
   -6.8082  -31.6131  -13.4847 C   0  0  1  0  0  0  0  0  0  0  0  0
   -7.7293  -30.4416  -13.4449 C   0  0  2  0  0  0  0  0  0  0  0  0
   -7.4503  -29.4012  -14.5009 C   0  0  1  0  0  0  0  0  0  0  0  0
   -6.7530  -29.9485  -15.7025 C   0  0  1  0  0  0  0  0  0  0  0  0
   -5.2602  -29.6587  -15.5998 C   0  0  0  0  0  0  0  0  0  0  0  0
   -7.4224  -32.6458  -12.7374 O   0  0  0  0  0  0  0  0  0  0  0  0
   -7.5808  -29.8183  -12.2055 O   0  0  0  0  0  0  0  0  0  0  0  0
   -8.6285  -28.7606  -14.9029 O   0  0  0  0  0  0  0  0  0  0  0  0
   -7.0146  -31.2856  -15.8676 O   0  0  0  0  0  0  0  0  0  0  0  0
   -4.8323  -29.1471  -16.8348 O   0  0  0  0  0  0  0  0  0  0  0  0
  1  2  1  0
  1  7  1  1
  1 11  1  0
  2  3  1  0
  2  8  1  1
  3  4  1  0
  3  9  1  6
  5  4  1  0
  4 10  1  1
  5  6  1  6
 11  5  1  0
  6 12  1  0
 13  7  1  6
 13 14  1  0
 22 13  1  0
 15 14  1  0
 14 19  1  1
 16 15  1  0
 15 20  1  1
 17 16  1  0
 16 21  1  6
 17 18  1  1
 17 22  1  0
 23 18  1  0
M  END
$$$$
