
     RDKit          3D

 23 24  0  0  0  0  0  0  0  0999 V2000
   -6.3151  -32.1298  -14.8909 C   0  0  1  0  0  0  0  0  0  0  0  0
   -6.9450  -31.7351  -13.6060 C   0  0  1  0  0  0  0  0  0  0  0  0
   -7.8916  -30.5865  -13.9025 C   0  0  2  0  0  0  0  0  0  0  0  0
   -7.0523  -29.4441  -14.4090 C   0  0  1  0  0  0  0  0  0  0  0  0
   -5.9621  -29.8743  -15.3422 C   0  0  1  0  0  0  0  0  0  0  0  0
   -4.5960  -29.4560  -14.7936 C   0  0  0  0  0  0  0  0  0  0  0  0
   -7.2066  -33.0251  -15.5301 O   0  0  0  0  0  0  0  0  0  0  0  0
   -7.7563  -32.7922  -13.1526 O   0  0  0  0  0  0  0  0  0  0  0  0
   -8.6658  -30.2478  -12.8258 O   0  0  0  0  0  0  0  0  0  0  0  0
   -7.9146  -28.4965  -14.9586 O   0  0  0  0  0  0  0  0  0  0  0  0
   -6.0108  -31.1551  -15.7682 O   0  0  0  0  0  0  0  0  0  0  0  0
   -4.0160  -28.5060  -15.6300 O   0  0  0  0  0  0  0  0  0  0  0  0
   -6.5577  -34.0534  -16.1730 C   0  0  2  0  0  0  0  0  0  0  0  0
   -7.2274  -34.4320  -17.4675 C   0  0  1  0  0  0  0  0  0  0  0  0
   -7.7387  -35.8320  -17.5005 C   0  0  2  0  0  0  0  0  0  0  0  0
   -6.8161  -36.8409  -16.8633 C   0  0  1  0  0  0  0  0  0  0  0  0
   -5.9040  -36.2472  -15.8410 C   0  0  1  0  0  0  0  0  0  0  0  0
   -4.5365  -35.9952  -16.4652 C   0  0  0  0  0  0  0  0  0  0  0  0
   -8.3318  -33.5839  -17.7191 O   0  0  0  0  0  0  0  0  0  0  0  0
   -7.8928  -36.2034  -18.8366 O   0  0  0  0  0  0  0  0  0  0  0  0
   -7.5385  -37.8907  -16.2831 O   0  0  0  0  0  0  0  0  0  0  0  0
   -6.4422  -35.1122  -15.2884 O   0  0  0  0  0  0  0  0  0  0  0  0
   -3.5825  -36.7058  -15.7201 O   0  0  0  0  0  0  0  0  0  0  0  0
  1  2  1  0
  1  7  1  6
  1 11  1  0
  2  3  1  0
  2  8  1  6
  3  4  1  0
  3  9  1  1
  5  4  1  0
  4 10  1  6
  5  6  1  1
 11  5  1  0
  6 12  1  0
 13  7  1  1
 13 14  1  0
 22 13  1  0
 15 14  1  0
 14 19  1  1
 16 15  1  0
 15 20  1  6
 17 16  1  0
 16 21  1  1
 17 18  1  6
 17 22  1  0
 23 18  1  0
M  END
$$$$
