
     RDKit          3D

 23 24  0  0  0  0  0  0  0  0999 V2000
   -6.4029  -34.0492  -15.7956 C   0  0  1  0  0  0  0  0  0  0  0  0
   -7.3278  -34.8819  -16.6049 C   0  0  1  0  0  0  0  0  0  0  0  0
   -7.6205  -36.1376  -15.8044 C   0  0  2  0  0  0  0  0  0  0  0  0
   -6.3155  -36.8701  -15.6418 C   0  0  1  0  0  0  0  0  0  0  0  0
   -5.1560  -35.9649  -15.3583 C   0  0  1  0  0  0  0  0  0  0  0  0
   -4.0799  -36.1253  -16.4348 C   0  0  0  0  0  0  0  0  0  0  0  0
   -7.2009  -33.2965  -14.9004 O   0  0  0  0  0  0  0  0  0  0  0  0
   -8.5584  -34.2096  -16.7258 O   0  0  0  0  0  0  0  0  0  0  0  0
   -8.6017  -36.9074  -16.3683 O   0  0  0  0  0  0  0  0  0  0  0  0
   -6.5016  -37.8568  -14.6746 O   0  0  0  0  0  0  0  0  0  0  0  0
   -5.4569  -34.6792  -15.0741 O   0  0  0  0  0  0  0  0  0  0  0  0
   -2.8280  -35.8191  -15.9080 O   0  0  0  0  0  0  0  0  0  0  0  0
   -6.7684  -31.9979  -14.7656 C   0  0  2  0  0  0  0  0  0  0  0  0
   -7.1001  -31.4216  -13.4144 C   0  0  1  0  0  0  0  0  0  0  0  0
   -8.0122  -30.2434  -13.4634 C   0  0  2  0  0  0  0  0  0  0  0  0
   -7.7168  -29.2808  -14.5865 C   0  0  1  0  0  0  0  0  0  0  0  0
   -7.0145  -29.9152  -15.7415 C   0  0  1  0  0  0  0  0  0  0  0  0
   -5.5203  -29.6299  -15.6467 C   0  0  0  0  0  0  0  0  0  0  0  0
   -7.7282  -32.3955  -12.6025 O   0  0  0  0  0  0  0  0  0  0  0  0
   -7.8683  -29.5368  -12.2689 O   0  0  0  0  0  0  0  0  0  0  0  0
   -8.8867  -28.6609  -15.0417 O   0  0  0  0  0  0  0  0  0  0  0  0
   -7.2854  -31.2585  -15.8158 O   0  0  0  0  0  0  0  0  0  0  0  0
   -5.0910  -29.1498  -16.8938 O   0  0  0  0  0  0  0  0  0  0  0  0
  1  2  1  0
  1  7  1  1
  1 11  1  0
  2  3  1  0
  2  8  1  1
  3  4  1  0
  3  9  1  6
  5  4  1  0
  4 10  1  1
  5  6  1  6
 11  5  1  0
  6 12  1  0
 13  7  1  1
 13 14  1  0
 22 13  1  0
 15 14  1  0
 14 19  1  1
 16 15  1  0
 15 20  1  1
 17 16  1  0
 16 21  1  6
 17 18  1  1
 17 22  1  0
 23 18  1  0
M  END
$$$$
