
     RDKit          3D

 23 24  0  0  0  0  0  0  0  0999 V2000
   -6.2773  -32.2036  -14.5032 C   0  0  1  0  0  0  0  0  0  0  0  0
   -6.7462  -31.6406  -13.2122 C   0  0  1  0  0  0  0  0  0  0  0  0
   -7.9161  -30.7237  -13.5191 C   0  0  2  0  0  0  0  0  0  0  0  0
   -7.3863  -29.6068  -14.3780 C   0  0  1  0  0  0  0  0  0  0  0  0
   -6.4064  -30.0659  -15.4141 C   0  0  1  0  0  0  0  0  0  0  0  0
   -5.0639  -29.3548  -15.2291 C   0  0  0  0  0  0  0  0  0  0  0  0
   -7.0900  -33.3287  -14.7827 O   0  0  0  0  0  0  0  0  0  0  0  0
   -7.2725  -32.6822  -12.4253 O   0  0  0  0  0  0  0  0  0  0  0  0
   -8.5495  -30.2788  -12.3902 O   0  0  0  0  0  0  0  0  0  0  0  0
   -8.4807  -28.9257  -14.9091 O   0  0  0  0  0  0  0  0  0  0  0  0
   -6.2982  -31.4015  -15.5842 O   0  0  0  0  0  0  0  0  0  0  0  0
   -5.2582  -27.9778  -15.1608 O   0  0  0  0  0  0  0  0  0  0  0  0
   -6.4112  -34.3231  -15.4477 C   0  0  2  0  0  0  0  0  0  0  0  0
   -7.0968  -34.7278  -16.7260 C   0  0  1  0  0  0  0  0  0  0  0  0
   -7.5430  -36.1500  -16.7524 C   0  0  2  0  0  0  0  0  0  0  0  0
   -6.5578  -37.1171  -16.1448 C   0  0  1  0  0  0  0  0  0  0  0  0
   -5.6474  -36.4853  -15.1440 C   0  0  1  0  0  0  0  0  0  0  0  0
   -4.3102  -36.1673  -15.8029 C   0  0  0  0  0  0  0  0  0  0  0  0
   -8.2458  -33.9313  -16.9441 O   0  0  0  0  0  0  0  0  0  0  0  0
   -7.7151  -36.5231  -18.0858 O   0  0  0  0  0  0  0  0  0  0  0  0
   -7.2147  -38.2016  -15.5510 O   0  0  0  0  0  0  0  0  0  0  0  0
   -6.2231  -35.3787  -14.5718 O   0  0  0  0  0  0  0  0  0  0  0  0
   -3.3160  -36.2217  -14.8136 O   0  0  0  0  0  0  0  0  0  0  0  0
  1  2  1  0
  1  7  1  6
  1 11  1  0
  2  3  1  0
  2  8  1  1
  3  4  1  0
  3  9  1  1
  5  4  1  0
  4 10  1  6
  5  6  1  1
 11  5  1  0
  6 12  1  0
 13  7  1  1
 13 14  1  0
 22 13  1  0
 15 14  1  0
 14 19  1  1
 16 15  1  0
 15 20  1  6
 17 16  1  0
 16 21  1  1
 17 18  1  6
 17 22  1  0
 23 18  1  0
M  END
$$$$
