
     RDKit          3D

 23 24  0  0  0  0  0  0  0  0999 V2000
   -6.4330  -32.6336  -14.3669 C   0  0  1  0  0  0  0  0  0  0  0  0
   -7.4100  -32.1060  -13.3816 C   0  0  1  0  0  0  0  0  0  0  0  0
   -7.6819  -30.6585  -13.7476 C   0  0  2  0  0  0  0  0  0  0  0  0
   -6.3820  -29.9147  -13.5964 C   0  0  1  0  0  0  0  0  0  0  0  0
   -5.1958  -30.6812  -14.0961 C   0  0  1  0  0  0  0  0  0  0  0  0
   -4.1774  -30.8792  -12.9708 C   0  0  0  0  0  0  0  0  0  0  0  0
   -7.1736  -33.0552  -15.4977 O   0  0  0  0  0  0  0  0  0  0  0  0
   -8.6346  -32.7796  -13.5487 O   0  0  0  0  0  0  0  0  0  0  0  0
   -8.7019  -30.1110  -13.0174 O   0  0  0  0  0  0  0  0  0  0  0  0
   -6.5349  -28.6679  -14.2014 O   0  0  0  0  0  0  0  0  0  0  0  0
   -5.4621  -31.8055  -14.7957 O   0  0  0  0  0  0  0  0  0  0  0  0
   -2.8956  -30.9954  -13.5018 O   0  0  0  0  0  0  0  0  0  0  0  0
   -6.6046  -34.1336  -16.1342 C   0  0  2  0  0  0  0  0  0  0  0  0
   -6.5497  -33.9527  -17.6282 C   0  0  1  0  0  0  0  0  0  0  0  0
   -7.3355  -34.9632  -18.3921 C   0  0  2  0  0  0  0  0  0  0  0  0
   -7.2305  -36.3662  -17.8481 C   0  0  1  0  0  0  0  0  0  0  0  0
   -6.8857  -36.4146  -16.3961 C   0  0  1  0  0  0  0  0  0  0  0  0
   -5.3925  -36.6755  -16.2367 C   0  0  0  0  0  0  0  0  0  0  0  0
   -7.0517  -32.6804  -17.9906 O   0  0  0  0  0  0  0  0  0  0  0  0
   -6.8464  -34.9921  -19.6984 O   0  0  0  0  0  0  0  0  0  0  0  0
   -8.4137  -37.0825  -18.0655 O   0  0  0  0  0  0  0  0  0  0  0  0
   -7.2880  -35.2740  -15.7475 O   0  0  0  0  0  0  0  0  0  0  0  0
   -5.2115  -37.4741  -15.0967 O   0  0  0  0  0  0  0  0  0  0  0  0
  1  2  1  0
  1  7  1  6
  1 11  1  0
  2  3  1  0
  2  8  1  6
  3  4  1  0
  3  9  1  1
  5  4  1  0
  4 10  1  6
  5  6  1  1
 11  5  1  0
  6 12  1  0
 13  7  1  1
 13 14  1  0
 22 13  1  0
 15 14  1  0
 14 19  1  1
 16 15  1  0
 15 20  1  6
 17 16  1  0
 16 21  1  1
 17 18  1  6
 17 22  1  0
 23 18  1  0
M  END
$$$$
