
     RDKit          3D

 23 24  0  0  0  0  0  0  0  0999 V2000
   -6.2724  -32.1588  -14.7765 C   0  0  1  0  0  0  0  0  0  0  0  0
   -6.6333  -31.7421  -13.3982 C   0  0  1  0  0  0  0  0  0  0  0  0
   -7.8327  -30.8183  -13.5064 C   0  0  2  0  0  0  0  0  0  0  0  0
   -7.3877  -29.6088  -14.2843 C   0  0  1  0  0  0  0  0  0  0  0  0
   -6.4968  -29.9402  -15.4422 C   0  0  1  0  0  0  0  0  0  0  0  0
   -5.1492  -29.2293  -15.2974 C   0  0  0  0  0  0  0  0  0  0  0  0
   -7.0970  -33.2624  -15.1036 O   0  0  0  0  0  0  0  0  0  0  0  0
   -7.0816  -32.8691  -12.6841 O   0  0  0  0  0  0  0  0  0  0  0  0
   -8.3704  -30.5049  -12.2874 O   0  0  0  0  0  0  0  0  0  0  0  0
   -8.5293  -28.8948  -14.6460 O   0  0  0  0  0  0  0  0  0  0  0  0
   -6.3927  -31.2486  -15.7610 O   0  0  0  0  0  0  0  0  0  0  0  0
   -4.6648  -28.8641  -16.5506 O   0  0  0  0  0  0  0  0  0  0  0  0
   -6.4089  -34.2713  -15.7364 C   0  0  2  0  0  0  0  0  0  0  0  0
   -7.2447  -34.9686  -16.7770 C   0  0  1  0  0  0  0  0  0  0  0  0
   -7.4738  -36.4159  -16.5027 C   0  0  2  0  0  0  0  0  0  0  0  0
   -6.2642  -37.1416  -15.9685 C   0  0  1  0  0  0  0  0  0  0  0  0
   -5.2929  -36.2442  -15.2752 C   0  0  1  0  0  0  0  0  0  0  0  0
   -4.1567  -35.8920  -16.2283 C   0  0  0  0  0  0  0  0  0  0  0  0
   -8.5188  -34.3612  -16.8759 O   0  0  0  0  0  0  0  0  0  0  0  0
   -7.8245  -37.0322  -17.7043 O   0  0  0  0  0  0  0  0  0  0  0  0
   -6.6373  -38.1756  -15.1013 O   0  0  0  0  0  0  0  0  0  0  0  0
   -5.9137  -35.1297  -14.7695 O   0  0  0  0  0  0  0  0  0  0  0  0
   -2.9474  -36.0235  -15.5281 O   0  0  0  0  0  0  0  0  0  0  0  0
  1  2  1  0
  1  7  1  6
  1 11  1  0
  2  3  1  0
  2  8  1  1
  3  4  1  0
  3  9  1  1
  5  4  1  0
  4 10  1  6
  5  6  1  1
 11  5  1  0
  6 12  1  0
 13  7  1  1
 13 14  1  0
 22 13  1  0
 15 14  1  0
 14 19  1  1
 16 15  1  0
 15 20  1  6
 17 16  1  0
 16 21  1  1
 17 18  1  6
 17 22  1  0
 23 18  1  0
M  END
$$$$
