
     RDKit          3D

 21 20  0  0  0  0  0  0  0  0999 V2000
   12.9273   48.6063   40.1974 O   0  0  0  0  0  0  0  0  0  0  0  0
   13.2355   47.3074   40.5616 C   0  0  0  0  0  0  0  0  0  0  0  0
   12.4265   46.4159   40.2687 O   0  0  0  0  0  0  0  0  0  0  0  0
   14.4814   47.0106   41.2703 C   0  0  0  0  0  0  0  0  0  0  0  0
   14.7845   45.5642   41.2806 C   0  0  0  0  0  0  0  0  0  0  0  0
   16.2726   45.3068   41.2784 C   0  0  1  0  0  0  0  0  0  0  0  0
   17.0325   46.3365   40.5364 C   0  0  0  0  0  0  0  0  0  0  0  0
   17.6410   47.2255   41.1678 O   0  0  0  0  0  0  0  0  0  0  0  0
   17.0800   46.3280   39.1583 O   0  0  0  0  0  0  0  0  0  0  0  0
   16.7556   45.3519   42.6818 N   0  0  0  0  0  0  0  0  0  0  0  0
   18.0529   44.8590   42.9989 C   0  0  0  0  0  0  0  0  0  0  0  0
   18.6783   44.1546   42.1639 O   0  0  0  0  0  0  0  0  0  0  0  0
   18.6946   45.1221   44.2286 N   0  0  0  0  0  0  0  0  0  0  0  0
   20.1489   45.0315   44.4075 C   0  0  2  0  0  0  0  0  0  0  0  0
   20.4849   45.0049   45.8414 C   0  0  0  0  0  0  0  0  0  0  0  0
   20.0530   46.0827   46.6318 O   0  0  0  0  0  0  0  0  0  0  0  0
   21.1184   44.0873   46.3550 O   0  0  0  0  0  0  0  0  0  0  0  0
   20.8539   46.0758   43.6316 C   0  0  0  0  0  0  0  0  0  0  0  0
   22.3251   46.1036   43.8921 C   0  0  2  0  0  0  0  0  0  0  0  0
   22.9582   47.3639   43.2815 C   0  0  0  0  0  0  0  0  0  0  0  0
   23.0957   44.9095   43.4567 C   0  0  0  0  0  0  0  0  0  0  0  0
  1  2  1  0
  2  3  2  0
  2  4  1  0
  4  5  1  0
  6  5  1  1
  6  7  1  0
  6 10  1  0
  7  8  2  0
  7  9  1  0
 10 11  1  0
 11 12  2  0
 11 13  1  0
 13 14  1  0
 14 15  1  0
 14 18  1  1
 15 16  1  0
 15 17  2  0
 18 19  1  0
 19 20  1  6
 19 21  1  0
M  END
$$$$
