
     RDKit          3D

 21 20  0  0  0  0  0  0  0  0999 V2000
   13.4320   47.5647   41.7492 O   0  0  0  0  0  0  0  0  0  0  0  0
   14.4128   47.6772   40.7796 C   0  0  0  0  0  0  0  0  0  0  0  0
   14.3587   48.6470   40.0104 O   0  0  0  0  0  0  0  0  0  0  0  0
   15.4746   46.6749   40.6775 C   0  0  0  0  0  0  0  0  0  0  0  0
   15.5332   45.8030   41.8693 C   0  0  0  0  0  0  0  0  0  0  0  0
   16.3564   44.5631   41.6126 C   0  0  1  0  0  0  0  0  0  0  0  0
   16.3172   44.1302   40.1985 C   0  0  0  0  0  0  0  0  0  0  0  0
   16.9923   44.7466   39.3480 O   0  0  0  0  0  0  0  0  0  0  0  0
   15.5473   43.0554   39.8065 O   0  0  0  0  0  0  0  0  0  0  0  0
   17.7751   44.8731   41.9223 N   0  0  0  0  0  0  0  0  0  0  0  0
   18.1988   44.9644   43.2782 C   0  0  0  0  0  0  0  0  0  0  0  0
   17.4885   45.5764   44.1181 O   0  0  0  0  0  0  0  0  0  0  0  0
   19.4017   44.3927   43.7467 N   0  0  0  0  0  0  0  0  0  0  0  0
   20.4545   45.1738   44.4075 C   0  0  2  0  0  0  0  0  0  0  0  0
   19.9101   45.8657   45.5885 C   0  0  0  0  0  0  0  0  0  0  0  0
   20.2361   45.3498   46.8535 O   0  0  0  0  0  0  0  0  0  0  0  0
   19.1946   46.8594   45.5009 O   0  0  0  0  0  0  0  0  0  0  0  0
   21.1540   46.0566   43.4477 C   0  0  0  0  0  0  0  0  0  0  0  0
   22.3905   46.6738   44.0163 C   0  0  2  0  0  0  0  0  0  0  0  0
   23.1333   47.4836   42.9419 C   0  0  0  0  0  0  0  0  0  0  0  0
   23.3464   45.7480   44.6785 C   0  0  0  0  0  0  0  0  0  0  0  0
  1  2  1  0
  2  3  2  0
  2  4  1  0
  4  5  1  0
  6  5  1  6
  6  7  1  0
  6 10  1  0
  7  8  2  0
  7  9  1  0
 10 11  1  0
 11 12  2  0
 11 13  1  0
 13 14  1  0
 14 15  1  0
 14 18  1  6
 15 16  1  0
 15 17  2  0
 18 19  1  0
 19 20  1  6
 19 21  1  0
M  END
$$$$
