
     RDKit          3D

 21 20  0  0  0  0  0  0  0  0999 V2000
   12.2198   44.5851   40.6725 O   0  0  0  0  0  0  0  0  0  0  0  0
   13.1589   45.5094   40.2499 C   0  0  0  0  0  0  0  0  0  0  0  0
   12.9841   46.0515   39.1495 O   0  0  0  0  0  0  0  0  0  0  0  0
   14.3172   45.8270   41.0865 C   0  0  0  0  0  0  0  0  0  0  0  0
   15.3524   46.5749   40.3427 C   0  0  0  0  0  0  0  0  0  0  0  0
   16.4271   47.1032   41.2628 C   0  0  1  0  0  0  0  0  0  0  0  0
   15.8818   47.8895   42.3911 C   0  0  0  0  0  0  0  0  0  0  0  0
   15.7635   47.3542   43.5130 O   0  0  0  0  0  0  0  0  0  0  0  0
   15.5038   49.2048   42.2222 O   0  0  0  0  0  0  0  0  0  0  0  0
   17.1414   45.9456   41.8584 N   0  0  0  0  0  0  0  0  0  0  0  0
   18.4991   46.0850   42.2630 C   0  0  0  0  0  0  0  0  0  0  0  0
   19.0757   47.1986   42.1534 O   0  0  0  0  0  0  0  0  0  0  0  0
   19.2552   45.0176   42.7942 N   0  0  0  0  0  0  0  0  0  0  0  0
   20.6974   45.1098   43.0525 C   0  0  2  0  0  0  0  0  0  0  0  0
   21.3715   43.8718   42.6248 C   0  0  0  0  0  0  0  0  0  0  0  0
   20.6007   42.6995   42.5599 O   0  0  0  0  0  0  0  0  0  0  0  0
   22.5626   43.8358   42.3296 O   0  0  0  0  0  0  0  0  0  0  0  0
   20.9706   45.5047   44.4521 C   0  0  0  0  0  0  0  0  0  0  0  0
   20.5559   44.4662   45.4435 C   0  0  2  0  0  0  0  0  0  0  0  0
   19.4457   45.0059   46.3589 C   0  0  0  0  0  0  0  0  0  0  0  0
   21.6374   43.8817   46.2791 C   0  0  0  0  0  0  0  0  0  0  0  0
  1  2  1  0
  2  3  2  0
  2  4  1  0
  4  5  1  0
  6  5  1  6
  6  7  1  0
  6 10  1  0
  7  8  2  0
  7  9  1  0
 10 11  1  0
 11 12  2  0
 11 13  1  0
 13 14  1  0
 14 15  1  0
 14 18  1  1
 15 16  1  0
 15 17  2  0
 18 19  1  0
 19 20  1  1
 19 21  1  0
M  END
$$$$
