
     RDKit          3D

 21 20  0  0  0  0  0  0  0  0999 V2000
   13.4595   48.8552   40.9849 O   0  0  0  0  0  0  0  0  0  0  0  0
   13.6301   47.5291   40.6287 C   0  0  0  0  0  0  0  0  0  0  0  0
   12.6930   46.9584   40.0532 O   0  0  0  0  0  0  0  0  0  0  0  0
   14.8834   46.8348   40.9286 C   0  0  0  0  0  0  0  0  0  0  0  0
   14.6845   45.3818   41.1115 C   0  0  0  0  0  0  0  0  0  0  0  0
   15.9773   44.6817   41.4569 C   0  0  1  0  0  0  0  0  0  0  0  0
   16.9332   44.6511   40.3284 C   0  0  0  0  0  0  0  0  0  0  0  0
   18.0324   45.2334   40.4378 O   0  0  0  0  0  0  0  0  0  0  0  0
   16.6288   43.9879   39.1583 O   0  0  0  0  0  0  0  0  0  0  0  0
   16.6377   45.4360   42.5522 N   0  0  0  0  0  0  0  0  0  0  0  0
   17.8687   44.9664   43.0914 C   0  0  0  0  0  0  0  0  0  0  0  0
   18.4252   43.9523   42.5952 O   0  0  0  0  0  0  0  0  0  0  0  0
   18.5177   45.5898   44.1793 N   0  0  0  0  0  0  0  0  0  0  0  0
   19.9562   45.4525   44.4379 C   0  0  2  0  0  0  0  0  0  0  0  0
   20.2860   45.9792   45.7734 C   0  0  0  0  0  0  0  0  0  0  0  0
   19.9778   47.3238   46.0377 O   0  0  0  0  0  0  0  0  0  0  0  0
   20.8117   45.2914   46.6439 O   0  0  0  0  0  0  0  0  0  0  0  0
   20.7596   46.0274   43.3362 C   0  0  0  0  0  0  0  0  0  0  0  0
   22.2231   46.0609   43.6367 C   0  0  2  0  0  0  0  0  0  0  0  0
   22.9729   46.8865   42.5793 C   0  0  0  0  0  0  0  0  0  0  0  0
   22.8950   44.7447   43.7958 C   0  0  0  0  0  0  0  0  0  0  0  0
  1  2  1  0
  2  3  2  0
  2  4  1  0
  4  5  1  0
  6  5  1  6
  6  7  1  0
  6 10  1  0
  7  8  2  0
  7  9  1  0
 10 11  1  0
 11 12  2  0
 11 13  1  0
 13 14  1  0
 14 15  1  0
 14 18  1  6
 15 16  1  0
 15 17  2  0
 18 19  1  0
 19 20  1  6
 19 21  1  0
M  END
$$$$
