
     RDKit          3D

 21 20  0  0  0  0  0  0  0  0999 V2000
   13.1518   47.0719   39.7810 O   0  0  0  0  0  0  0  0  0  0  0  0
   14.0780   47.7282   40.5722 C   0  0  0  0  0  0  0  0  0  0  0  0
   14.0078   48.9631   40.6436 O   0  0  0  0  0  0  0  0  0  0  0  0
   15.1029   46.9746   41.2963 C   0  0  0  0  0  0  0  0  0  0  0  0
   14.9370   45.5148   41.1366 C   0  0  0  0  0  0  0  0  0  0  0  0
   16.2219   44.7737   41.4205 C   0  0  1  0  0  0  0  0  0  0  0  0
   17.2111   44.8995   40.3277 C   0  0  0  0  0  0  0  0  0  0  0  0
   17.1387   44.1362   39.3422 O   0  0  0  0  0  0  0  0  0  0  0  0
   18.2105   45.8481   40.3810 O   0  0  0  0  0  0  0  0  0  0  0  0
   16.8464   45.3694   42.6288 N   0  0  0  0  0  0  0  0  0  0  0  0
   18.1140   44.8989   43.0741 C   0  0  0  0  0  0  0  0  0  0  0  0
   18.7143   44.0027   42.4254 O   0  0  0  0  0  0  0  0  0  0  0  0
   18.7528   45.3932   44.2320 N   0  0  0  0  0  0  0  0  0  0  0  0
   20.1961   45.2632   44.4667 C   0  0  2  0  0  0  0  0  0  0  0  0
   20.5138   45.5741   45.8710 C   0  0  0  0  0  0  0  0  0  0  0  0
   20.2104   46.8638   46.3374 O   0  0  0  0  0  0  0  0  0  0  0  0
   21.0255   44.7558   46.6297 O   0  0  0  0  0  0  0  0  0  0  0  0
   20.9756   46.0377   43.4755 C   0  0  0  0  0  0  0  0  0  0  0  0
   22.4340   46.0962   43.7963 C   0  0  2  0  0  0  0  0  0  0  0  0
   23.1451   47.1173   42.8943 C   0  0  0  0  0  0  0  0  0  0  0  0
   23.1723   44.8069   43.7515 C   0  0  0  0  0  0  0  0  0  0  0  0
  1  2  1  0
  2  3  2  0
  2  4  1  0
  4  5  1  0
  6  5  1  6
  6  7  1  0
  6 10  1  0
  7  8  2  0
  7  9  1  0
 10 11  1  0
 11 12  2  0
 11 13  1  0
 13 14  1  0
 14 15  1  0
 14 18  1  6
 15 16  1  0
 15 17  2  0
 18 19  1  0
 19 20  1  6
 19 21  1  0
M  END
$$$$
