
     RDKit          3D

 21 20  0  0  0  0  0  0  0  0999 V2000
   13.5785   48.6644   40.6249 O   0  0  0  0  0  0  0  0  0  0  0  0
   13.8788   47.3484   40.3210 C   0  0  0  0  0  0  0  0  0  0  0  0
   13.1270   46.7477   39.5405 O   0  0  0  0  0  0  0  0  0  0  0  0
   15.0508   46.6989   40.9102 C   0  0  0  0  0  0  0  0  0  0  0  0
   14.9137   45.2278   40.9435 C   0  0  0  0  0  0  0  0  0  0  0  0
   16.2105   44.5559   41.3276 C   0  0  1  0  0  0  0  0  0  0  0  0
   17.2067   44.5626   40.2340 C   0  0  0  0  0  0  0  0  0  0  0  0
   18.1591   45.3691   40.2748 O   0  0  0  0  0  0  0  0  0  0  0  0
   17.0997   43.6903   39.1713 O   0  0  0  0  0  0  0  0  0  0  0  0
   16.8121   45.3133   42.4542 N   0  0  0  0  0  0  0  0  0  0  0  0
   18.0691   44.9091   42.9862 C   0  0  0  0  0  0  0  0  0  0  0  0
   18.7208   43.9887   42.4270 O   0  0  0  0  0  0  0  0  0  0  0  0
   18.6413   45.4971   44.1351 N   0  0  0  0  0  0  0  0  0  0  0  0
   20.0662   45.3800   44.4684 C   0  0  2  0  0  0  0  0  0  0  0  0
   20.3143   45.8875   45.8288 C   0  0  0  0  0  0  0  0  0  0  0  0
   19.9372   47.2110   46.1093 O   0  0  0  0  0  0  0  0  0  0  0  0
   20.8305   45.2013   46.7063 O   0  0  0  0  0  0  0  0  0  0  0  0
   20.9167   45.9893   43.4219 C   0  0  0  0  0  0  0  0  0  0  0  0
   22.3654   46.0140   43.7880 C   0  0  2  0  0  0  0  0  0  0  0  0
   23.0893   47.1525   43.0519 C   0  0  0  0  0  0  0  0  0  0  0  0
   23.1183   44.7477   43.5904 C   0  0  0  0  0  0  0  0  0  0  0  0
  1  2  1  0
  2  3  2  0
  2  4  1  0
  4  5  1  0
  6  5  1  6
  6  7  1  0
  6 10  1  0
  7  8  2  0
  7  9  1  0
 10 11  1  0
 11 12  2  0
 11 13  1  0
 13 14  1  0
 14 15  1  0
 14 18  1  6
 15 16  1  0
 15 17  2  0
 18 19  1  0
 19 20  1  6
 19 21  1  0
M  END
$$$$
