
     RDKit          3D

 21 20  0  0  0  0  0  0  0  0999 V2000
   13.5958   48.7706   41.0242 O   0  0  0  0  0  0  0  0  0  0  0  0
   13.8235   47.4560   40.6575 C   0  0  0  0  0  0  0  0  0  0  0  0
   12.9636   46.8892   39.9686 O   0  0  0  0  0  0  0  0  0  0  0  0
   15.0460   46.7690   41.0772 C   0  0  0  0  0  0  0  0  0  0  0  0
   14.8074   45.3413   41.3754 C   0  0  0  0  0  0  0  0  0  0  0  0
   16.0585   44.6604   41.8772 C   0  0  1  0  0  0  0  0  0  0  0  0
   17.1320   44.6099   40.8606 C   0  0  0  0  0  0  0  0  0  0  0  0
   18.1417   45.3319   40.9963 O   0  0  0  0  0  0  0  0  0  0  0  0
   17.0346   43.7761   39.7665 O   0  0  0  0  0  0  0  0  0  0  0  0
   16.5915   45.4466   43.0185 N   0  0  0  0  0  0  0  0  0  0  0  0
   17.8391   45.0876   43.6026 C   0  0  0  0  0  0  0  0  0  0  0  0
   18.4219   44.0328   43.2395 O   0  0  0  0  0  0  0  0  0  0  0  0
   18.4763   45.8678   44.5918 N   0  0  0  0  0  0  0  0  0  0  0  0
   19.8730   45.6635   44.9949 C   0  0  2  0  0  0  0  0  0  0  0  0
   20.7722   46.4492   44.1324 C   0  0  0  0  0  0  0  0  0  0  0  0
   21.1295   45.8985   42.8908 O   0  0  0  0  0  0  0  0  0  0  0  0
   21.2092   47.5485   44.4606 O   0  0  0  0  0  0  0  0  0  0  0  0
   20.2055   44.2239   45.0777 C   0  0  0  0  0  0  0  0  0  0  0  0
   21.2293   43.9202   46.1231 C   0  0  2  0  0  0  0  0  0  0  0  0
   22.5040   44.7454   45.8867 C   0  0  0  0  0  0  0  0  0  0  0  0
   21.5971   42.4899   46.2914 C   0  0  0  0  0  0  0  0  0  0  0  0
  1  2  1  0
  2  3  2  0
  2  4  1  0
  4  5  1  0
  6  5  1  6
  6  7  1  0
  6 10  1  0
  7  8  2  0
  7  9  1  0
 10 11  1  0
 11 12  2  0
 11 13  1  0
 13 14  1  0
 14 15  1  0
 14 18  1  6
 15 16  1  0
 15 17  2  0
 18 19  1  0
 19 20  1  6
 19 21  1  0
M  END
$$$$
