
     RDKit          3D

 21 20  0  0  0  0  0  0  0  0999 V2000
   13.8596   48.9640   40.6221 O   0  0  0  0  0  0  0  0  0  0  0  0
   13.9307   47.5933   40.4464 C   0  0  0  0  0  0  0  0  0  0  0  0
   12.9690   47.0275   39.9076 O   0  0  0  0  0  0  0  0  0  0  0  0
   15.1107   46.8481   40.8878 C   0  0  0  0  0  0  0  0  0  0  0  0
   14.8722   45.3898   40.9080 C   0  0  0  0  0  0  0  0  0  0  0  0
   16.0935   44.6319   41.3716 C   0  0  1  0  0  0  0  0  0  0  0  0
   17.1596   44.5788   40.3473 C   0  0  0  0  0  0  0  0  0  0  0  0
   18.1277   45.3635   40.4263 O   0  0  0  0  0  0  0  0  0  0  0  0
   17.1005   43.6746   39.3078 O   0  0  0  0  0  0  0  0  0  0  0  0
   16.6659   45.3421   42.5433 N   0  0  0  0  0  0  0  0  0  0  0  0
   17.9982   45.0610   42.9585 C   0  0  0  0  0  0  0  0  0  0  0  0
   18.6294   44.1044   42.4379 O   0  0  0  0  0  0  0  0  0  0  0  0
   18.6693   45.8137   43.9465 N   0  0  0  0  0  0  0  0  0  0  0  0
   20.0955   45.6439   44.2502 C   0  0  2  0  0  0  0  0  0  0  0  0
   20.3682   46.0274   45.6460 C   0  0  0  0  0  0  0  0  0  0  0  0
   19.8395   47.2461   46.1018 O   0  0  0  0  0  0  0  0  0  0  0  0
   21.0304   45.3273   46.4065 O   0  0  0  0  0  0  0  0  0  0  0  0
   20.9451   46.3267   43.2493 C   0  0  0  0  0  0  0  0  0  0  0  0
   22.4063   46.1198   43.4851 C   0  0  2  0  0  0  0  0  0  0  0  0
   23.2355   47.0573   42.5934 C   0  0  0  0  0  0  0  0  0  0  0  0
   22.9093   44.7294   43.3334 C   0  0  0  0  0  0  0  0  0  0  0  0
  1  2  1  0
  2  3  2  0
  2  4  1  0
  4  5  1  0
  6  5  1  6
  6  7  1  0
  6 10  1  0
  7  8  2  0
  7  9  1  0
 10 11  1  0
 11 12  2  0
 11 13  1  0
 13 14  1  0
 14 15  1  0
 14 18  1  6
 15 16  1  0
 15 17  2  0
 18 19  1  0
 19 20  1  6
 19 21  1  0
M  END
$$$$
