
     RDKit          3D

 21 20  0  0  0  0  0  0  0  0999 V2000
   13.7992   49.1790   40.7828 O   0  0  0  0  0  0  0  0  0  0  0  0
   13.8210   47.7979   40.7010 C   0  0  0  0  0  0  0  0  0  0  0  0
   12.8099   47.2269   40.2687 O   0  0  0  0  0  0  0  0  0  0  0  0
   15.0077   47.0480   41.1156 C   0  0  0  0  0  0  0  0  0  0  0  0
   14.7217   45.6093   41.2962 C   0  0  0  0  0  0  0  0  0  0  0  0
   15.9708   44.8313   41.6356 C   0  0  1  0  0  0  0  0  0  0  0  0
   17.0395   44.9915   40.6254 C   0  0  0  0  0  0  0  0  0  0  0  0
   17.0379   44.2669   39.6085 O   0  0  0  0  0  0  0  0  0  0  0  0
   18.0363   45.9302   40.7896 O   0  0  0  0  0  0  0  0  0  0  0  0
   16.5135   45.3557   42.9144 N   0  0  0  0  0  0  0  0  0  0  0  0
   17.8439   45.0312   43.3034 C   0  0  0  0  0  0  0  0  0  0  0  0
   18.4786   44.1375   42.6847 O   0  0  0  0  0  0  0  0  0  0  0  0
   18.5091   45.6715   44.3715 N   0  0  0  0  0  0  0  0  0  0  0  0
   19.9399   45.4911   44.6459 C   0  0  2  0  0  0  0  0  0  0  0  0
   20.1858   45.5062   46.0981 C   0  0  0  0  0  0  0  0  0  0  0  0
   19.8270   46.6640   46.8076 O   0  0  0  0  0  0  0  0  0  0  0  0
   20.6850   44.5559   46.6939 O   0  0  0  0  0  0  0  0  0  0  0  0
   20.7621   46.4496   43.8746 C   0  0  0  0  0  0  0  0  0  0  0  0
   22.2226   46.3362   44.1702 C   0  0  2  0  0  0  0  0  0  0  0  0
   22.9641   47.6068   43.7254 C   0  0  0  0  0  0  0  0  0  0  0  0
   22.9181   45.1452   43.6161 C   0  0  0  0  0  0  0  0  0  0  0  0
  1  2  1  0
  2  3  2  0
  2  4  1  0
  4  5  1  0
  6  5  1  6
  6  7  1  0
  6 10  1  0
  7  8  2  0
  7  9  1  0
 10 11  1  0
 11 12  2  0
 11 13  1  0
 13 14  1  0
 14 15  1  0
 14 18  1  6
 15 16  1  0
 15 17  2  0
 18 19  1  0
 19 20  1  6
 19 21  1  0
M  END
$$$$
