
     RDKit          3D

 21 20  0  0  0  0  0  0  0  0999 V2000
   13.1294   47.0451   39.9304 O   0  0  0  0  0  0  0  0  0  0  0  0
   14.1140   47.6357   40.7025 C   0  0  0  0  0  0  0  0  0  0  0  0
   13.9676   48.8249   41.0182 O   0  0  0  0  0  0  0  0  0  0  0  0
   15.2862   46.8681   41.1260 C   0  0  0  0  0  0  0  0  0  0  0  0
   14.9847   45.4291   41.2752 C   0  0  0  0  0  0  0  0  0  0  0  0
   16.2188   44.6354   41.6327 C   0  0  1  0  0  0  0  0  0  0  0  0
   17.2405   44.6494   40.5630 C   0  0  0  0  0  0  0  0  0  0  0  0
   17.1302   43.8657   39.5972 O   0  0  0  0  0  0  0  0  0  0  0  0
   18.3119   45.5160   40.6162 O   0  0  0  0  0  0  0  0  0  0  0  0
   16.8450   45.2594   42.8258 N   0  0  0  0  0  0  0  0  0  0  0  0
   18.1305   44.8261   43.2573 C   0  0  0  0  0  0  0  0  0  0  0  0
   18.7306   43.9165   42.6273 O   0  0  0  0  0  0  0  0  0  0  0  0
   18.7876   45.3728   44.3809 N   0  0  0  0  0  0  0  0  0  0  0  0
   20.2440   45.3230   44.5585 C   0  0  2  0  0  0  0  0  0  0  0  0
   20.6176   45.8923   45.8647 C   0  0  0  0  0  0  0  0  0  0  0  0
   20.9720   44.9977   46.8878 O   0  0  0  0  0  0  0  0  0  0  0  0
   20.6277   47.1008   46.0805 O   0  0  0  0  0  0  0  0  0  0  0  0
   20.9491   45.9225   43.4039 C   0  0  0  0  0  0  0  0  0  0  0  0
   22.4230   45.6769   43.4279 C   0  0  2  0  0  0  0  0  0  0  0  0
   22.7964   44.7446   44.5912 C   0  0  0  0  0  0  0  0  0  0  0  0
   23.2927   46.8816   43.4686 C   0  0  0  0  0  0  0  0  0  0  0  0
  1  2  1  0
  2  3  2  0
  2  4  1  0
  4  5  1  0
  6  5  1  6
  6  7  1  0
  6 10  1  0
  7  8  2  0
  7  9  1  0
 10 11  1  0
 11 12  2  0
 11 13  1  0
 13 14  1  0
 14 15  1  0
 14 18  1  6
 15 16  1  0
 15 17  2  0
 18 19  1  0
 19 20  1  1
 19 21  1  0
M  END
$$$$
