
     RDKit          3D

 21 20  0  0  0  0  0  0  0  0999 V2000
   13.9582   48.8704   40.7318 O   0  0  0  0  0  0  0  0  0  0  0  0
   13.9995   47.5035   40.5210 C   0  0  0  0  0  0  0  0  0  0  0  0
   12.9978   46.9618   40.0329 O   0  0  0  0  0  0  0  0  0  0  0  0
   15.1954   46.7342   40.8684 C   0  0  0  0  0  0  0  0  0  0  0  0
   14.8618   45.3908   41.3862 C   0  0  0  0  0  0  0  0  0  0  0  0
   16.0909   44.6599   41.8719 C   0  0  1  0  0  0  0  0  0  0  0  0
   17.0689   44.4007   40.7927 C   0  0  0  0  0  0  0  0  0  0  0  0
   18.1327   45.0536   40.7573 O   0  0  0  0  0  0  0  0  0  0  0  0
   16.8237   43.4479   39.8264 O   0  0  0  0  0  0  0  0  0  0  0  0
   16.7785   45.5167   42.8709 N   0  0  0  0  0  0  0  0  0  0  0  0
   17.9995   45.0783   43.4569 C   0  0  0  0  0  0  0  0  0  0  0  0
   18.4355   43.9237   43.2097 O   0  0  0  0  0  0  0  0  0  0  0  0
   18.7691   45.8860   44.3221 N   0  0  0  0  0  0  0  0  0  0  0  0
   20.0422   45.4459   44.9058 C   0  0  2  0  0  0  0  0  0  0  0  0
   19.8853   45.2104   46.3513 C   0  0  0  0  0  0  0  0  0  0  0  0
   20.6374   44.1738   46.9279 O   0  0  0  0  0  0  0  0  0  0  0  0
   19.1318   45.8800   47.0522 O   0  0  0  0  0  0  0  0  0  0  0  0
   21.1452   46.3661   44.5504 C   0  0  0  0  0  0  0  0  0  0  0  0
   21.7552   46.0605   43.2208 C   0  0  2  0  0  0  0  0  0  0  0  0
   22.4732   44.7021   43.2552 C   0  0  0  0  0  0  0  0  0  0  0  0
   22.6763   47.0863   42.6653 C   0  0  0  0  0  0  0  0  0  0  0  0
  1  2  1  0
  2  3  2  0
  2  4  1  0
  4  5  1  0
  6  5  1  6
  6  7  1  0
  6 10  1  0
  7  8  2  0
  7  9  1  0
 10 11  1  0
 11 12  2  0
 11 13  1  0
 13 14  1  0
 14 15  1  0
 14 18  1  1
 15 16  1  0
 15 17  2  0
 18 19  1  0
 19 20  1  1
 19 21  1  0
M  END
$$$$
