
     RDKit          3D

 21 20  0  0  0  0  0  0  0  0999 V2000
   13.4014   48.9706   41.5247 O   0  0  0  0  0  0  0  0  0  0  0  0
   13.8433   47.8280   40.8816 C   0  0  0  0  0  0  0  0  0  0  0  0
   13.4250   47.6092   39.7360 O   0  0  0  0  0  0  0  0  0  0  0  0
   14.7754   46.9154   41.5455 C   0  0  0  0  0  0  0  0  0  0  0  0
   15.1178   45.7551   40.6966 C   0  0  0  0  0  0  0  0  0  0  0  0
   16.1873   44.8975   41.3302 C   0  0  1  0  0  0  0  0  0  0  0  0
   17.2421   44.4951   40.3741 C   0  0  0  0  0  0  0  0  0  0  0  0
   16.9186   44.0550   39.2513 O   0  0  0  0  0  0  0  0  0  0  0  0
   18.5768   44.6004   40.7042 O   0  0  0  0  0  0  0  0  0  0  0  0
   16.8565   45.6940   42.3898 N   0  0  0  0  0  0  0  0  0  0  0  0
   17.9995   45.1667   43.0546 C   0  0  0  0  0  0  0  0  0  0  0  0
   18.4469   44.0351   42.7323 O   0  0  0  0  0  0  0  0  0  0  0  0
   18.6775   45.8588   44.0814 N   0  0  0  0  0  0  0  0  0  0  0  0
   19.9841   45.4381   44.6022 C   0  0  2  0  0  0  0  0  0  0  0  0
   20.3884   46.3040   45.7231 C   0  0  0  0  0  0  0  0  0  0  0  0
   20.0970   47.6745   45.6255 O   0  0  0  0  0  0  0  0  0  0  0  0
   20.9607   45.8715   46.7194 O   0  0  0  0  0  0  0  0  0  0  0  0
   20.9865   45.3286   43.5192 C   0  0  0  0  0  0  0  0  0  0  0  0
   22.3660   45.6958   43.9611 C   0  0  2  0  0  0  0  0  0  0  0  0
   22.3256   46.9037   44.9105 C   0  0  0  0  0  0  0  0  0  0  0  0
   23.3578   45.9534   42.8844 C   0  0  0  0  0  0  0  0  0  0  0  0
  1  2  1  0
  2  3  2  0
  2  4  1  0
  4  5  1  0
  6  5  1  6
  6  7  1  0
  6 10  1  0
  7  8  2  0
  7  9  1  0
 10 11  1  0
 11 12  2  0
 11 13  1  0
 13 14  1  0
 14 15  1  0
 14 18  1  6
 15 16  1  0
 15 17  2  0
 18 19  1  0
 19 20  1  6
 19 21  1  0
M  END
$$$$
