
     RDKit          3D

 21 20  0  0  0  0  0  0  0  0999 V2000
   13.9884   48.8345   40.3318 O   0  0  0  0  0  0  0  0  0  0  0  0
   13.9263   47.4665   40.5304 C   0  0  0  0  0  0  0  0  0  0  0  0
   12.9193   46.8675   40.1276 O   0  0  0  0  0  0  0  0  0  0  0  0
   15.0229   46.7623   41.1968 C   0  0  0  0  0  0  0  0  0  0  0  0
   14.8321   45.2968   41.1842 C   0  0  0  0  0  0  0  0  0  0  0  0
   16.1057   44.5661   41.5375 C   0  0  1  0  0  0  0  0  0  0  0  0
   17.0841   44.5480   40.4281 C   0  0  0  0  0  0  0  0  0  0  0  0
   18.0352   45.3570   40.4340 O   0  0  0  0  0  0  0  0  0  0  0  0
   16.9620   43.6499   39.3888 O   0  0  0  0  0  0  0  0  0  0  0  0
   16.7558   45.2809   42.6651 N   0  0  0  0  0  0  0  0  0  0  0  0
   18.0250   44.8451   43.1402 C   0  0  0  0  0  0  0  0  0  0  0  0
   18.6728   43.9789   42.4963 O   0  0  0  0  0  0  0  0  0  0  0  0
   18.6137   45.3422   44.3232 N   0  0  0  0  0  0  0  0  0  0  0  0
   20.0568   45.2808   44.5855 C   0  0  2  0  0  0  0  0  0  0  0  0
   20.3700   45.9371   45.8664 C   0  0  0  0  0  0  0  0  0  0  0  0
   21.0760   45.1917   46.8248 O   0  0  0  0  0  0  0  0  0  0  0  0
   20.0386   47.0927   46.1155 O   0  0  0  0  0  0  0  0  0  0  0  0
   20.8364   45.7830   43.4323 C   0  0  0  0  0  0  0  0  0  0  0  0
   22.3095   45.7939   43.6836 C   0  0  2  0  0  0  0  0  0  0  0  0
   23.0211   46.7205   42.6851 C   0  0  0  0  0  0  0  0  0  0  0  0
   22.9880   44.4715   43.6921 C   0  0  0  0  0  0  0  0  0  0  0  0
  1  2  1  0
  2  3  2  0
  2  4  1  0
  4  5  1  0
  6  5  1  6
  6  7  1  0
  6 10  1  0
  7  8  2  0
  7  9  1  0
 10 11  1  0
 11 12  2  0
 11 13  1  0
 13 14  1  0
 14 15  1  0
 14 18  1  6
 15 16  1  0
 15 17  2  0
 18 19  1  0
 19 20  1  6
 19 21  1  0
M  END
$$$$
