
     RDKit          3D

 21 20  0  0  0  0  0  0  0  0999 V2000
   13.7658   48.7382   40.5173 O   0  0  0  0  0  0  0  0  0  0  0  0
   13.8346   47.3593   40.4254 C   0  0  0  0  0  0  0  0  0  0  0  0
   12.9803   46.7809   39.7393 O   0  0  0  0  0  0  0  0  0  0  0  0
   14.8887   46.6202   41.1220 C   0  0  0  0  0  0  0  0  0  0  0  0
   14.6719   45.1593   41.0689 C   0  0  0  0  0  0  0  0  0  0  0  0
   15.9350   44.3966   41.3908 C   0  0  1  0  0  0  0  0  0  0  0  0
   16.9083   44.4008   40.2768 C   0  0  0  0  0  0  0  0  0  0  0  0
   17.8508   45.2198   40.2869 O   0  0  0  0  0  0  0  0  0  0  0  0
   16.7906   43.5128   39.2283 O   0  0  0  0  0  0  0  0  0  0  0  0
   16.6015   45.0619   42.5390 N   0  0  0  0  0  0  0  0  0  0  0  0
   17.8974   44.6368   42.9471 C   0  0  0  0  0  0  0  0  0  0  0  0
   18.4181   43.6180   42.4224 O   0  0  0  0  0  0  0  0  0  0  0  0
   18.6513   45.3106   43.9323 N   0  0  0  0  0  0  0  0  0  0  0  0
   20.0493   44.9802   44.2347 C   0  0  2  0  0  0  0  0  0  0  0  0
   20.3213   45.1805   45.6684 C   0  0  0  0  0  0  0  0  0  0  0  0
   20.7886   44.0784   46.4030 O   0  0  0  0  0  0  0  0  0  0  0  0
   20.1549   46.2604   46.2283 O   0  0  0  0  0  0  0  0  0  0  0  0
   20.9794   45.6903   43.3289 C   0  0  0  0  0  0  0  0  0  0  0  0
   22.3730   45.7637   43.8635 C   0  0  2  0  0  0  0  0  0  0  0  0
   23.0764   47.0362   43.3655 C   0  0  0  0  0  0  0  0  0  0  0  0
   23.2443   44.5887   43.5998 C   0  0  0  0  0  0  0  0  0  0  0  0
  1  2  1  0
  2  3  2  0
  2  4  1  0
  4  5  1  0
  6  5  1  6
  6  7  1  0
  6 10  1  0
  7  8  2  0
  7  9  1  0
 10 11  1  0
 11 12  2  0
 11 13  1  0
 13 14  1  0
 14 15  1  0
 14 18  1  6
 15 16  1  0
 15 17  2  0
 18 19  1  0
 19 20  1  6
 19 21  1  0
M  END
$$$$
