
     RDKit          3D

 21 20  0  0  0  0  0  0  0  0999 V2000
   12.8264   46.9401   40.0155 O   0  0  0  0  0  0  0  0  0  0  0  0
   13.9066   47.5917   40.5841 C   0  0  0  0  0  0  0  0  0  0  0  0
   13.8154   48.8137   40.7673 O   0  0  0  0  0  0  0  0  0  0  0  0
   15.1125   46.8483   40.9525 C   0  0  0  0  0  0  0  0  0  0  0  0
   14.8227   45.4299   41.2494 C   0  0  0  0  0  0  0  0  0  0  0  0
   16.0770   44.6677   41.6052 C   0  0  1  0  0  0  0  0  0  0  0  0
   17.0759   44.6639   40.5141 C   0  0  0  0  0  0  0  0  0  0  0  0
   18.0446   45.4502   40.5647 O   0  0  0  0  0  0  0  0  0  0  0  0
   16.9536   43.8040   39.4430 O   0  0  0  0  0  0  0  0  0  0  0  0
   16.7174   45.3391   42.7645 N   0  0  0  0  0  0  0  0  0  0  0  0
   17.9862   44.8905   43.2286 C   0  0  0  0  0  0  0  0  0  0  0  0
   18.5195   43.8734   42.7133 O   0  0  0  0  0  0  0  0  0  0  0  0
   18.6990   45.5385   44.2607 N   0  0  0  0  0  0  0  0  0  0  0  0
   20.1313   45.3239   44.5005 C   0  0  2  0  0  0  0  0  0  0  0  0
   20.4769   45.6926   45.8841 C   0  0  0  0  0  0  0  0  0  0  0  0
   20.2035   47.0074   46.2955 O   0  0  0  0  0  0  0  0  0  0  0  0
   20.9864   44.9005   46.6716 O   0  0  0  0  0  0  0  0  0  0  0  0
   20.9565   45.9851   43.4653 C   0  0  0  0  0  0  0  0  0  0  0  0
   22.4019   46.0683   43.8358 C   0  0  2  0  0  0  0  0  0  0  0  0
   23.1901   46.8408   42.7663 C   0  0  0  0  0  0  0  0  0  0  0  0
   23.0880   44.7791   44.1126 C   0  0  0  0  0  0  0  0  0  0  0  0
  1  2  1  0
  2  3  2  0
  2  4  1  0
  4  5  1  0
  6  5  1  6
  6  7  1  0
  6 10  1  0
  7  8  2  0
  7  9  1  0
 10 11  1  0
 11 12  2  0
 11 13  1  0
 13 14  1  0
 14 15  1  0
 14 18  1  6
 15 16  1  0
 15 17  2  0
 18 19  1  0
 19 20  1  6
 19 21  1  0
M  END
$$$$
