
     RDKit          3D

 21 20  0  0  0  0  0  0  0  0999 V2000
   12.7635   47.3875   40.8285 O   0  0  0  0  0  0  0  0  0  0  0  0
   13.4108   46.1934   40.5645 C   0  0  0  0  0  0  0  0  0  0  0  0
   12.9888   45.4999   39.6285 O   0  0  0  0  0  0  0  0  0  0  0  0
   14.5567   45.7752   41.3736 C   0  0  0  0  0  0  0  0  0  0  0  0
   14.9555   46.8100   42.3504 C   0  0  0  0  0  0  0  0  0  0  0  0
   16.2669   46.4703   43.0178 C   0  0  1  0  0  0  0  0  0  0  0  0
   16.1270   45.4354   44.0656 C   0  0  0  0  0  0  0  0  0  0  0  0
   15.8310   45.7755   45.2300 O   0  0  0  0  0  0  0  0  0  0  0  0
   16.3171   44.1008   43.7747 O   0  0  0  0  0  0  0  0  0  0  0  0
   17.1824   45.9127   41.9902 N   0  0  0  0  0  0  0  0  0  0  0  0
   18.5554   45.7061   42.3042 C   0  0  0  0  0  0  0  0  0  0  0  0
   19.0229   46.1379   43.3903 O   0  0  0  0  0  0  0  0  0  0  0  0
   19.4456   45.0268   41.4445 N   0  0  0  0  0  0  0  0  0  0  0  0
   20.9043   45.0744   41.6037 C   0  0  2  0  0  0  0  0  0  0  0  0
   21.5625   45.0120   40.2874 C   0  0  0  0  0  0  0  0  0  0  0  0
   20.9995   44.1672   39.3169 O   0  0  0  0  0  0  0  0  0  0  0  0
   22.5680   45.6635   40.0197 O   0  0  0  0  0  0  0  0  0  0  0  0
   21.3744   44.0601   42.5732 C   0  0  0  0  0  0  0  0  0  0  0  0
   22.0469   44.6597   43.7655 C   0  0  2  0  0  0  0  0  0  0  0  0
   23.2136   45.5610   43.3313 C   0  0  0  0  0  0  0  0  0  0  0  0
   22.5243   43.7080   44.8027 C   0  0  0  0  0  0  0  0  0  0  0  0
  1  2  1  0
  2  3  2  0
  2  4  1  0
  4  5  1  0
  6  5  1  6
  6  7  1  0
  6 10  1  0
  7  8  2  0
  7  9  1  0
 10 11  1  0
 11 12  2  0
 11 13  1  0
 13 14  1  0
 14 15  1  0
 14 18  1  1
 15 16  1  0
 15 17  2  0
 18 19  1  0
 19 20  1  6
 19 21  1  0
M  END
$$$$
