
     RDKit          3D

 21 20  0  0  0  0  0  0  0  0999 V2000
   13.1698   46.5272   39.7388 O   0  0  0  0  0  0  0  0  0  0  0  0
   14.0680   47.2174   40.5334 C   0  0  0  0  0  0  0  0  0  0  0  0
   13.8601   48.4229   40.7305 O   0  0  0  0  0  0  0  0  0  0  0  0
   15.2228   46.5324   41.1163 C   0  0  0  0  0  0  0  0  0  0  0  0
   15.0692   45.0628   41.0909 C   0  0  0  0  0  0  0  0  0  0  0  0
   16.3665   44.3613   41.4160 C   0  0  1  0  0  0  0  0  0  0  0  0
   17.3577   44.4506   40.3215 C   0  0  0  0  0  0  0  0  0  0  0  0
   18.2687   45.3022   40.3852 O   0  0  0  0  0  0  0  0  0  0  0  0
   17.2911   43.6065   39.2331 O   0  0  0  0  0  0  0  0  0  0  0  0
   16.9746   45.0287   42.5948 N   0  0  0  0  0  0  0  0  0  0  0  0
   18.2230   44.5688   43.1013 C   0  0  0  0  0  0  0  0  0  0  0  0
   18.8360   43.6407   42.5121 O   0  0  0  0  0  0  0  0  0  0  0  0
   18.8284   45.1087   44.2568 N   0  0  0  0  0  0  0  0  0  0  0  0
   20.2678   45.0080   44.5272 C   0  0  2  0  0  0  0  0  0  0  0  0
   20.5713   45.5299   45.8707 C   0  0  0  0  0  0  0  0  0  0  0  0
   20.1904   46.8510   46.1578 O   0  0  0  0  0  0  0  0  0  0  0  0
   21.1359   44.8577   46.7290 O   0  0  0  0  0  0  0  0  0  0  0  0
   21.0649   45.6156   43.4386 C   0  0  0  0  0  0  0  0  0  0  0  0
   22.5272   45.6645   43.7428 C   0  0  2  0  0  0  0  0  0  0  0  0
   23.2619   46.5492   42.7234 C   0  0  0  0  0  0  0  0  0  0  0  0
   23.2244   44.3558   43.8463 C   0  0  0  0  0  0  0  0  0  0  0  0
  1  2  1  0
  2  3  2  0
  2  4  1  0
  4  5  1  0
  6  5  1  6
  6  7  1  0
  6 10  1  0
  7  8  2  0
  7  9  1  0
 10 11  1  0
 11 12  2  0
 11 13  1  0
 13 14  1  0
 14 15  1  0
 14 18  1  6
 15 16  1  0
 15 17  2  0
 18 19  1  0
 19 20  1  6
 19 21  1  0
M  END
$$$$
