
     RDKit          3D

 42 42  0  0  0  0  0  0  0  0999 V2000
   38.9557  -18.2336    5.6860 N   0  0  0  0  0  4  0  0  0  0  0  0
   38.4642  -18.4110    7.1129 C   0  0  2  0  0  0  0  0  0  0  0  0
   36.9996  -18.3869    7.0720 C   0  0  0  0  0  0  0  0  0  0  0  0
   36.4656  -17.7533    6.1149 O   0  0  0  0  0  0  0  0  0  0  0  0
   39.1156  -17.3024    7.8400 C   0  0  2  0  0  0  0  0  0  0  0  0
   38.9082  -15.9273    7.3190 C   0  0  0  0  0  0  0  0  0  0  0  0
   40.6113  -17.5906    8.0575 C   0  0  0  0  0  0  0  0  0  0  0  0
   39.1325  -14.8077    8.2860 C   0  0  0  0  0  0  0  0  0  0  0  0
   36.1119  -18.9994    7.9719 N   0  0  0  0  0  0  0  0  0  0  0  0
   34.6832  -18.9166    7.8941 C   0  0  2  0  0  0  0  0  0  0  0  0
   34.1323  -17.8262    8.7033 C   0  0  0  0  0  0  0  0  0  0  0  0
   34.8653  -16.9617    9.2794 O   0  0  0  0  0  0  0  0  0  0  0  0
   34.0002  -20.1898    8.3349 C   0  0  0  0  0  0  0  0  0  0  0  0
   34.4054  -21.3656    7.4478 C   0  0  0  0  0  0  0  0  0  0  0  0
   33.6789  -22.9063    8.0257 S   0  0  0  0  0  0  0  0  0  0  0  0
   34.1978  -23.3533    9.6777 C   0  0  0  0  0  0  0  0  0  0  0  0
   32.7236  -17.6784    8.8866 N   0  0  0  0  0  0  0  0  0  0  0  0
   31.9852  -16.4701    8.9299 C   0  0  2  0  0  0  0  0  0  0  0  0
   30.5111  -16.5717    9.0560 C   0  0  0  0  0  0  0  0  0  0  0  0
   29.8293  -15.9071    8.2382 O   0  0  0  0  0  0  0  0  0  0  0  0
   32.5021  -15.3055    8.1949 C   0  0  2  0  0  0  0  0  0  0  0  0
   32.6091  -15.3221    6.7276 C   0  0  0  0  0  0  0  0  0  0  0  0
   33.9289  -15.0471    8.7315 C   0  0  0  0  0  0  0  0  0  0  0  0
   32.9167  -14.0422    6.0266 C   0  0  0  0  0  0  0  0  0  0  0  0
   29.8643  -17.3528   10.0279 N   0  0  0  0  0  0  0  0  0  0  0  0
   28.9305  -16.8651   10.9942 C   0  0  2  0  0  0  0  0  0  0  0  0
   29.2093  -15.5187   11.5328 C   0  0  0  0  0  0  0  0  0  0  0  0
   29.9765  -14.8138   10.7860 O   0  0  0  0  0  0  0  0  0  0  0  0
   28.8772  -17.8332   12.1536 C   0  0  0  0  0  0  0  0  0  0  0  0
   29.5402  -19.0201   11.7711 O   0  0  0  0  0  0  0  0  0  0  0  0
   28.7354  -14.9721   12.7267 N   0  0  0  0  0  0  0  0  0  0  0  0
   29.1582  -13.6289   13.1156 C   0  0  2  0  0  0  0  0  0  0  0  0
   30.5839  -13.6635   13.5345 C   0  0  0  0  0  0  0  0  0  0  0  0
   31.2729  -14.7344   13.4164 O   0  0  0  0  0  0  0  0  0  0  0  0
   28.2897  -13.0758   14.1895 C   0  0  0  0  0  0  0  0  0  0  0  0
   28.3106  -13.8540   15.4390 C   0  0  0  0  0  0  0  0  0  0  0  0
   28.0786  -13.2369   16.6475 C   0  0  0  0  0  0  0  0  0  0  0  0
   28.5625  -15.2261   15.4587 C   0  0  0  0  0  0  0  0  0  0  0  0
   28.0891  -13.9262   17.8462 C   0  0  0  0  0  0  0  0  0  0  0  0
   28.5745  -15.9220   16.6563 C   0  0  0  0  0  0  0  0  0  0  0  0
   28.3378  -15.2835   17.8718 C   0  0  0  0  0  0  0  0  0  0  0  0
   31.1945  -12.5429   14.0557 O   0  0  0  0  0  0  0  0  0  0  0  0
  2  1  1  6
  2  3  1  0
  2  5  1  0
  3  4  2  0
  3  9  1  0
  5  6  1  0
  5  7  1  6
  6  8  1  0
  9 10  1  0
 10 11  1  0
 10 13  1  1
 11 12  2  0
 11 17  1  0
 13 14  1  0
 14 15  1  0
 15 16  1  0
 18 17  1  6
 18 19  1  0
 18 21  1  0
 19 20  2  0
 19 25  1  0
 21 22  1  0
 21 23  1  1
 22 24  1  0
 25 26  1  0
 26 27  1  0
 26 29  1  1
 27 28  2  0
 27 31  1  0
 29 30  1  0
 31 32  1  0
 32 33  1  0
 32 35  1  1
 33 34  2  0
 33 42  1  0
 35 36  1  0
 36 37  2  0
 36 38  1  0
 37 39  1  0
 38 40  2  0
 39 41  2  0
 40 41  1  0
M  CHG  1   1   1
M  END
$$$$
