
     RDKit          3D

 42 42  0  0  0  0  0  0  0  0999 V2000
   36.1568  -14.3834    9.4379 N   0  0  0  0  0  4  0  0  0  0  0  0
   35.4060  -13.7330   10.5877 C   0  0  2  0  0  0  0  0  0  0  0  0
   33.9752  -13.8805   10.3085 C   0  0  0  0  0  0  0  0  0  0  0  0
   33.1771  -13.2767   11.0838 O   0  0  0  0  0  0  0  0  0  0  0  0
   35.9299  -12.3519   10.6013 C   0  0  2  0  0  0  0  0  0  0  0  0
   35.8884  -11.5920    9.3261 C   0  0  0  0  0  0  0  0  0  0  0  0
   37.3342  -12.3021   11.2282 C   0  0  0  0  0  0  0  0  0  0  0  0
   36.1686  -10.1249    9.4155 C   0  0  0  0  0  0  0  0  0  0  0  0
   33.3813  -14.6105    9.2657 N   0  0  0  0  0  0  0  0  0  0  0  0
   31.9713  -14.6840    9.0197 C   0  0  2  0  0  0  0  0  0  0  0  0
   31.2365  -15.3270   10.1124 C   0  0  0  0  0  0  0  0  0  0  0  0
   31.7603  -15.5597   11.2473 O   0  0  0  0  0  0  0  0  0  0  0  0
   31.6386  -15.4370    7.7531 C   0  0  0  0  0  0  0  0  0  0  0  0
   32.2202  -14.7341    6.5278 C   0  0  0  0  0  0  0  0  0  0  0  0
   31.7749  -15.5865    5.0077 S   0  0  0  0  0  0  0  0  0  0  0  0
   30.9705  -17.1583    5.2915 C   0  0  0  0  0  0  0  0  0  0  0  0
   29.8753  -15.7294    9.9538 N   0  0  0  0  0  0  0  0  0  0  0  0
   29.0252  -16.2903   10.9385 C   0  0  2  0  0  0  0  0  0  0  0  0
   27.6442  -16.6445   10.5307 C   0  0  0  0  0  0  0  0  0  0  0  0
   27.0943  -15.8902    9.6916 O   0  0  0  0  0  0  0  0  0  0  0  0
   29.2118  -15.8842   12.3400 C   0  0  2  0  0  0  0  0  0  0  0  0
   29.3662  -16.8872   13.4053 C   0  0  0  0  0  0  0  0  0  0  0  0
   27.9759  -15.0357   12.7182 C   0  0  0  0  0  0  0  0  0  0  0  0
   30.4897  -16.7243   14.3723 C   0  0  0  0  0  0  0  0  0  0  0  0
   26.9433  -17.7529   11.0339 N   0  0  0  0  0  0  0  0  0  0  0  0
   26.7823  -19.0045   10.3623 C   0  0  2  0  0  0  0  0  0  0  0  0
   26.0790  -20.0556   11.1247 C   0  0  0  0  0  0  0  0  0  0  0  0
   26.8633  -20.8251   11.7850 O   0  0  0  0  0  0  0  0  0  0  0  0
   28.1460  -19.5332    9.9814 C   0  0  0  0  0  0  0  0  0  0  0  0
   28.7155  -18.6512    9.0368 O   0  0  0  0  0  0  0  0  0  0  0  0
   24.7019  -20.2759   11.1862 N   0  0  0  0  0  0  0  0  0  0  0  0
   24.1579  -21.1073   12.2572 C   0  0  2  0  0  0  0  0  0  0  0  0
   22.7100  -21.3384   12.0138 C   0  0  0  0  0  0  0  0  0  0  0  0
   22.0206  -22.0593   12.8143 O   0  0  0  0  0  0  0  0  0  0  0  0
   24.3935  -20.4953   13.5926 C   0  0  0  0  0  0  0  0  0  0  0  0
   23.3469  -19.5490   14.0125 C   0  0  0  0  0  0  0  0  0  0  0  0
   23.4219  -18.9267   15.2382 C   0  0  0  0  0  0  0  0  0  0  0  0
   22.2501  -19.2441   13.2058 C   0  0  0  0  0  0  0  0  0  0  0  0
   22.4626  -18.0319   15.6755 C   0  0  0  0  0  0  0  0  0  0  0  0
   21.2858  -18.3488   13.6384 C   0  0  0  0  0  0  0  0  0  0  0  0
   21.3756  -17.7266   14.8818 C   0  0  0  0  0  0  0  0  0  0  0  0
   22.0788  -20.7793   10.9233 O   0  0  0  0  0  0  0  0  0  0  0  0
  2  1  1  6
  2  3  1  0
  2  5  1  0
  3  4  2  0
  3  9  1  0
  5  6  1  0
  5  7  1  6
  6  8  1  0
  9 10  1  0
 10 11  1  0
 10 13  1  6
 11 12  2  0
 11 17  1  0
 13 14  1  0
 14 15  1  0
 15 16  1  0
 18 17  1  6
 18 19  1  0
 18 21  1  0
 19 20  2  0
 19 25  1  0
 21 22  1  0
 21 23  1  1
 22 24  1  0
 25 26  1  0
 26 27  1  0
 26 29  1  1
 27 28  2  0
 27 31  1  0
 29 30  1  0
 31 32  1  0
 32 33  1  0
 32 35  1  1
 33 34  2  0
 33 42  1  0
 35 36  1  0
 36 37  2  0
 36 38  1  0
 37 39  1  0
 38 40  2  0
 39 41  2  0
 40 41  1  0
M  CHG  1   1   1
M  END
$$$$
