
     RDKit          3D

 42 42  0  0  0  0  0  0  0  0999 V2000
   31.0841  -25.8185    7.4312 N   0  0  0  0  0  4  0  0  0  0  0  0
   30.9405  -26.3420    8.8505 C   0  0  2  0  0  0  0  0  0  0  0  0
   30.4399  -25.2358    9.6709 C   0  0  0  0  0  0  0  0  0  0  0  0
   30.0850  -25.5171   10.8531 O   0  0  0  0  0  0  0  0  0  0  0  0
   32.2957  -26.8333    9.1732 C   0  0  2  0  0  0  0  0  0  0  0  0
   32.6651  -26.9281   10.6084 C   0  0  0  0  0  0  0  0  0  0  0  0
   33.3642  -26.0631    8.3778 C   0  0  0  0  0  0  0  0  0  0  0  0
   31.6943  -27.6351   11.5009 C   0  0  0  0  0  0  0  0  0  0  0  0
   30.3174  -23.8868    9.2993 N   0  0  0  0  0  0  0  0  0  0  0  0
   30.9844  -22.7968    9.9482 C   0  0  2  0  0  0  0  0  0  0  0  0
   30.6920  -21.5016    9.3284 C   0  0  0  0  0  0  0  0  0  0  0  0
   31.2538  -21.1119    8.2564 O   0  0  0  0  0  0  0  0  0  0  0  0
   32.4864  -22.9572    9.9620 C   0  0  0  0  0  0  0  0  0  0  0  0
   33.1581  -21.7764   10.6606 C   0  0  0  0  0  0  0  0  0  0  0  0
   34.9419  -21.9918   10.7475 S   0  0  0  0  0  0  0  0  0  0  0  0
   35.4278  -23.5952   11.3729 C   0  0  0  0  0  0  0  0  0  0  0  0
   29.7470  -20.6001    9.9065 N   0  0  0  0  0  0  0  0  0  0  0  0
   29.3270  -19.3492    9.3911 C   0  0  2  0  0  0  0  0  0  0  0  0
   29.6208  -18.1412   10.1994 C   0  0  0  0  0  0  0  0  0  0  0  0
   29.6451  -18.2902   11.4455 O   0  0  0  0  0  0  0  0  0  0  0  0
   28.1130  -19.3042    8.5615 C   0  0  2  0  0  0  0  0  0  0  0  0
   26.8094  -18.9505    9.1448 C   0  0  0  0  0  0  0  0  0  0  0  0
   27.9473  -20.7151    7.9511 C   0  0  0  0  0  0  0  0  0  0  0  0
   25.6169  -18.9283    8.2495 C   0  0  0  0  0  0  0  0  0  0  0  0
   29.8600  -16.8726    9.6459 N   0  0  0  0  0  0  0  0  0  0  0  0
   30.1176  -15.6800   10.3909 C   0  0  2  0  0  0  0  0  0  0  0  0
   28.9264  -14.9773   10.9083 C   0  0  0  0  0  0  0  0  0  0  0  0
   27.8251  -15.5909   10.6764 O   0  0  0  0  0  0  0  0  0  0  0  0
   30.8893  -14.7167    9.5187 C   0  0  0  0  0  0  0  0  0  0  0  0
   29.9728  -13.8128    8.9377 O   0  0  0  0  0  0  0  0  0  0  0  0
   28.8945  -13.7615   11.5937 N   0  0  0  0  0  0  0  0  0  0  0  0
   27.9543  -13.5878   12.6982 C   0  0  2  0  0  0  0  0  0  0  0  0
   28.1518  -12.2461   13.3065 C   0  0  0  0  0  0  0  0  0  0  0  0
   27.1743  -11.4286   13.4153 O   0  0  0  0  0  0  0  0  0  0  0  0
   28.0986  -14.6694   13.7095 C   0  0  0  0  0  0  0  0  0  0  0  0
   28.1969  -16.0206   13.1336 C   0  0  0  0  0  0  0  0  0  0  0  0
   29.4270  -16.6095   12.9454 C   0  0  0  0  0  0  0  0  0  0  0  0
   27.0715  -16.7544   12.7570 C   0  0  0  0  0  0  0  0  0  0  0  0
   29.5685  -17.8755   12.4074 C   0  0  0  0  0  0  0  0  0  0  0  0
   27.2069  -18.0228   12.2174 C   0  0  0  0  0  0  0  0  0  0  0  0
   28.4588  -18.6058   12.0331 C   0  0  0  0  0  0  0  0  0  0  0  0
   29.3904  -11.8553   13.7685 O   0  0  0  0  0  0  0  0  0  0  0  0
  2  1  1  6
  2  3  1  0
  2  5  1  0
  3  4  2  0
  3  9  1  0
  5  6  1  0
  5  7  1  6
  6  8  1  0
  9 10  1  0
 10 11  1  0
 10 13  1  6
 11 12  2  0
 11 17  1  0
 13 14  1  0
 14 15  1  0
 15 16  1  0
 18 17  1  1
 18 19  1  0
 18 21  1  0
 19 20  2  0
 19 25  1  0
 21 22  1  0
 21 23  1  1
 22 24  1  0
 25 26  1  0
 26 27  1  0
 26 29  1  6
 27 28  2  0
 27 31  1  0
 29 30  1  0
 31 32  1  0
 32 33  1  0
 32 35  1  1
 33 34  2  0
 33 42  1  0
 35 36  1  0
 36 37  2  0
 36 38  1  0
 37 39  1  0
 38 40  2  0
 39 41  2  0
 40 41  1  0
M  CHG  1   1   1
M  END
$$$$
