
     RDKit          3D

 42 42  0  0  0  0  0  0  0  0999 V2000
   38.2162  -12.1313    8.8277 N   0  0  0  0  0  4  0  0  0  0  0  0
   36.7121  -11.9151    8.8392 C   0  0  2  0  0  0  0  0  0  0  0  0
   36.0991  -13.1641    9.2988 C   0  0  0  0  0  0  0  0  0  0  0  0
   36.8853  -14.0751    9.6918 O   0  0  0  0  0  0  0  0  0  0  0  0
   36.4131  -11.5133    7.4495 C   0  0  2  0  0  0  0  0  0  0  0  0
   36.7018  -12.4977    6.3758 C   0  0  0  0  0  0  0  0  0  0  0  0
   37.0370  -10.1445    7.1260 C   0  0  0  0  0  0  0  0  0  0  0  0
   35.7982  -12.4672    5.1835 C   0  0  0  0  0  0  0  0  0  0  0  0
   34.7290  -13.4669    9.3652 N   0  0  0  0  0  0  0  0  0  0  0  0
   34.1876  -14.6992    9.8575 C   0  0  2  0  0  0  0  0  0  0  0  0
   32.7232  -14.7331    9.8166 C   0  0  0  0  0  0  0  0  0  0  0  0
   32.0063  -13.7139   10.0693 O   0  0  0  0  0  0  0  0  0  0  0  0
   34.6021  -14.9913   11.2804 C   0  0  0  0  0  0  0  0  0  0  0  0
   34.6448  -13.7115   12.1135 C   0  0  0  0  0  0  0  0  0  0  0  0
   35.1846  -14.0408   13.7975 S   0  0  0  0  0  0  0  0  0  0  0  0
   35.0340  -12.6218   14.8753 C   0  0  0  0  0  0  0  0  0  0  0  0
   32.0188  -15.9305    9.4851 N   0  0  0  0  0  0  0  0  0  0  0  0
   30.6208  -16.0862    9.3175 C   0  0  2  0  0  0  0  0  0  0  0  0
   29.8323  -16.5149   10.4980 C   0  0  0  0  0  0  0  0  0  0  0  0
   30.4193  -16.4866   11.6071 O   0  0  0  0  0  0  0  0  0  0  0  0
   30.1146  -16.5076    8.0021 C   0  0  2  0  0  0  0  0  0  0  0  0
   30.6740  -17.6829    7.3162 C   0  0  0  0  0  0  0  0  0  0  0  0
   30.3221  -15.3085    7.0485 C   0  0  0  0  0  0  0  0  0  0  0  0
   30.1295  -18.0448    5.9758 C   0  0  0  0  0  0  0  0  0  0  0  0
   28.4970  -16.9450   10.4286 N   0  0  0  0  0  0  0  0  0  0  0  0
   27.7097  -17.3819   11.5389 C   0  0  2  0  0  0  0  0  0  0  0  0
   26.3572  -17.8759   11.2112 C   0  0  0  0  0  0  0  0  0  0  0  0
   25.6997  -17.0988   10.4322 O   0  0  0  0  0  0  0  0  0  0  0  0
   27.5680  -16.2384   12.5170 C   0  0  0  0  0  0  0  0  0  0  0  0
   26.5239  -16.5501   13.4154 O   0  0  0  0  0  0  0  0  0  0  0  0
   25.7593  -19.0569   11.6545 N   0  0  0  0  0  0  0  0  0  0  0  0
   24.4518  -19.4384   11.1260 C   0  0  2  0  0  0  0  0  0  0  0  0
   23.3873  -18.9191   12.0239 C   0  0  0  0  0  0  0  0  0  0  0  0
   23.6863  -18.3491   13.1289 O   0  0  0  0  0  0  0  0  0  0  0  0
   24.3452  -20.9121   10.9525 C   0  0  0  0  0  0  0  0  0  0  0  0
   24.8685  -21.6898   12.0876 C   0  0  0  0  0  0  0  0  0  0  0  0
   24.7884  -23.0641   12.0861 C   0  0  0  0  0  0  0  0  0  0  0  0
   25.4578  -21.0841   13.1979 C   0  0  0  0  0  0  0  0  0  0  0  0
   25.2651  -23.8359   13.1297 C   0  0  0  0  0  0  0  0  0  0  0  0
   25.9369  -21.8518   14.2465 C   0  0  0  0  0  0  0  0  0  0  0  0
   25.8488  -23.2423   14.2305 C   0  0  0  0  0  0  0  0  0  0  0  0
   22.0565  -19.0379   11.6843 O   0  0  0  0  0  0  0  0  0  0  0  0
  2  1  1  6
  2  3  1  0
  2  5  1  0
  3  4  2  0
  3  9  1  0
  5  6  1  0
  5  7  1  6
  6  8  1  0
  9 10  1  0
 10 11  1  0
 10 13  1  1
 11 12  2  0
 11 17  1  0
 13 14  1  0
 14 15  1  0
 15 16  1  0
 18 17  1  1
 18 19  1  0
 18 21  1  0
 19 20  2  0
 19 25  1  0
 21 22  1  0
 21 23  1  6
 22 24  1  0
 25 26  1  0
 26 27  1  0
 26 29  1  1
 27 28  2  0
 27 31  1  0
 29 30  1  0
 31 32  1  0
 32 33  1  0
 32 35  1  1
 33 34  2  0
 33 42  1  0
 35 36  1  0
 36 37  2  0
 36 38  1  0
 37 39  1  0
 38 40  2  0
 39 41  2  0
 40 41  1  0
M  CHG  1   1   1
M  END
$$$$
