
     RDKit          3D

 42 42  0  0  0  0  0  0  0  0999 V2000
   35.7162  -12.1326   11.2956 N   0  0  0  0  0  4  0  0  0  0  0  0
   35.3879  -13.0191   10.1059 C   0  0  2  0  0  0  0  0  0  0  0  0
   33.9279  -13.1182   10.0302 C   0  0  0  0  0  0  0  0  0  0  0  0
   33.3095  -13.2818   11.1226 O   0  0  0  0  0  0  0  0  0  0  0  0
   36.1132  -14.2716   10.4015 C   0  0  2  0  0  0  0  0  0  0  0  0
   37.5882  -14.2648   10.2293 C   0  0  0  0  0  0  0  0  0  0  0  0
   35.4768  -15.4631    9.6645 C   0  0  0  0  0  0  0  0  0  0  0  0
   38.0947  -14.1259    8.8282 C   0  0  0  0  0  0  0  0  0  0  0  0
   33.1272  -13.0411    8.8787 N   0  0  0  0  0  0  0  0  0  0  0  0
   31.8251  -13.6256    8.7484 C   0  0  2  0  0  0  0  0  0  0  0  0
   31.4747  -14.4902    9.8784 C   0  0  0  0  0  0  0  0  0  0  0  0
   32.2268  -15.4338   10.2790 O   0  0  0  0  0  0  0  0  0  0  0  0
   31.6793  -14.4510    7.4917 C   0  0  0  0  0  0  0  0  0  0  0  0
   30.7380  -13.7746    6.4968 C   0  0  0  0  0  0  0  0  0  0  0  0
   31.6246  -13.1922    5.0441 S   0  0  0  0  0  0  0  0  0  0  0  0
   32.7882  -14.3891    4.4026 C   0  0  0  0  0  0  0  0  0  0  0  0
   30.2529  -14.3121   10.5964 N   0  0  0  0  0  0  0  0  0  0  0  0
   29.6372  -15.2283   11.4843 C   0  0  2  0  0  0  0  0  0  0  0  0
   28.4766  -15.9997   10.9773 C   0  0  0  0  0  0  0  0  0  0  0  0
   27.6777  -15.3868   10.2278 O   0  0  0  0  0  0  0  0  0  0  0  0
   29.6439  -14.9229   12.9233 C   0  0  2  0  0  0  0  0  0  0  0  0
   28.3863  -14.7859   13.6745 C   0  0  0  0  0  0  0  0  0  0  0  0
   30.3933  -13.5799   13.0823 C   0  0  0  0  0  0  0  0  0  0  0  0
   28.4578  -14.3529   15.0998 C   0  0  0  0  0  0  0  0  0  0  0  0
   28.2371  -17.3466   11.2961 N   0  0  0  0  0  0  0  0  0  0  0  0
   27.1508  -18.1333   10.8015 C   0  0  2  0  0  0  0  0  0  0  0  0
   26.6162  -19.1462   11.7336 C   0  0  0  0  0  0  0  0  0  0  0  0
   26.7353  -20.3501   11.3097 O   0  0  0  0  0  0  0  0  0  0  0  0
   27.5946  -18.8414    9.5422 C   0  0  0  0  0  0  0  0  0  0  0  0
   28.7372  -19.6135    9.8468 O   0  0  0  0  0  0  0  0  0  0  0  0
   26.0198  -18.9198   12.9753 N   0  0  0  0  0  0  0  0  0  0  0  0
   24.6118  -19.2602   13.1650 C   0  0  2  0  0  0  0  0  0  0  0  0
   24.4813  -20.1914   14.3161 C   0  0  0  0  0  0  0  0  0  0  0  0
   24.9470  -21.3806   14.2495 O   0  0  0  0  0  0  0  0  0  0  0  0
   24.0217  -19.8391   11.9281 C   0  0  0  0  0  0  0  0  0  0  0  0
   22.5704  -20.0725   12.0076 C   0  0  0  0  0  0  0  0  0  0  0  0
   22.0781  -21.3478   12.1702 C   0  0  0  0  0  0  0  0  0  0  0  0
   21.6424  -19.0341   11.9225 C   0  0  0  0  0  0  0  0  0  0  0  0
   20.7237  -21.6155   12.2490 C   0  0  0  0  0  0  0  0  0  0  0  0
   20.2845  -19.2959   12.0005 C   0  0  0  0  0  0  0  0  0  0  0  0
   19.8013  -20.5922   12.1654 C   0  0  0  0  0  0  0  0  0  0  0  0
   23.8588  -19.7932   15.4799 O   0  0  0  0  0  0  0  0  0  0  0  0
  2  1  1  1
  2  3  1  0
  2  5  1  0
  3  4  2  0
  3  9  1  0
  5  6  1  0
  5  7  1  6
  6  8  1  0
  9 10  1  0
 10 11  1  0
 10 13  1  6
 11 12  2  0
 11 17  1  0
 13 14  1  0
 14 15  1  0
 15 16  1  0
 18 17  1  6
 18 19  1  0
 18 21  1  0
 19 20  2  0
 19 25  1  0
 21 22  1  0
 21 23  1  6
 22 24  1  0
 25 26  1  0
 26 27  1  0
 26 29  1  6
 27 28  2  0
 27 31  1  0
 29 30  1  0
 31 32  1  0
 32 33  1  0
 32 35  1  6
 33 34  2  0
 33 42  1  0
 35 36  1  0
 36 37  2  0
 36 38  1  0
 37 39  1  0
 38 40  2  0
 39 41  2  0
 40 41  1  0
M  CHG  1   1   1
M  END
$$$$
