
     RDKit          3D

 42 42  0  0  0  0  0  0  0  0999 V2000
   34.6433  -14.0241   11.3334 N   0  0  0  0  0  4  0  0  0  0  0  0
   33.3835  -13.4117   10.7445 C   0  0  2  0  0  0  0  0  0  0  0  0
   32.2771  -13.7492   11.6441 C   0  0  0  0  0  0  0  0  0  0  0  0
   31.5701  -12.7873   12.0653 O   0  0  0  0  0  0  0  0  0  0  0  0
   33.3223  -13.9921    9.3875 C   0  0  2  0  0  0  0  0  0  0  0  0
   33.2224  -15.4699    9.2795 C   0  0  0  0  0  0  0  0  0  0  0  0
   34.4603  -13.4498    8.5051 C   0  0  0  0  0  0  0  0  0  0  0  0
   33.1297  -16.0319    7.8959 C   0  0  0  0  0  0  0  0  0  0  0  0
   31.8997  -15.0272   12.0883 N   0  0  0  0  0  0  0  0  0  0  0  0
   30.6795  -15.3248   12.7787 C   0  0  2  0  0  0  0  0  0  0  0  0
   29.5354  -15.4684   11.8745 C   0  0  0  0  0  0  0  0  0  0  0  0
   29.5223  -14.9774   10.7017 O   0  0  0  0  0  0  0  0  0  0  0  0
   30.3144  -14.2717   13.7983 C   0  0  0  0  0  0  0  0  0  0  0  0
   29.8019  -14.9105   15.0878 C   0  0  0  0  0  0  0  0  0  0  0  0
   29.8545  -13.7510   16.4620 S   0  0  0  0  0  0  0  0  0  0  0  0
   28.9742  -14.3309   17.9067 C   0  0  0  0  0  0  0  0  0  0  0  0
   28.3614  -16.1781   12.2719 N   0  0  0  0  0  0  0  0  0  0  0  0
   27.6029  -17.0872   11.4942 C   0  0  2  0  0  0  0  0  0  0  0  0
   26.4827  -17.7926   12.1626 C   0  0  0  0  0  0  0  0  0  0  0  0
   26.7862  -18.5652   13.1041 O   0  0  0  0  0  0  0  0  0  0  0  0
   28.2766  -17.8103   10.4046 C   0  0  2  0  0  0  0  0  0  0  0  0
   28.5925  -19.2420   10.5272 C   0  0  0  0  0  0  0  0  0  0  0  0
   29.6224  -17.0875   10.1660 C   0  0  0  0  0  0  0  0  0  0  0  0
   29.2156  -19.9310    9.3606 C   0  0  0  0  0  0  0  0  0  0  0  0
   25.1359  -17.6418   11.7932 N   0  0  0  0  0  0  0  0  0  0  0  0
   24.0314  -18.3182   12.3981 C   0  0  2  0  0  0  0  0  0  0  0  0
   23.8739  -19.7409   12.0351 C   0  0  0  0  0  0  0  0  0  0  0  0
   24.4272  -20.0528   10.9217 O   0  0  0  0  0  0  0  0  0  0  0  0
   22.7558  -17.5956   12.0306 C   0  0  0  0  0  0  0  0  0  0  0  0
   21.6905  -18.1842   12.7471 O   0  0  0  0  0  0  0  0  0  0  0  0
   23.2066  -20.7288   12.7615 N   0  0  0  0  0  0  0  0  0  0  0  0
   22.9118  -22.0094   12.1232 C   0  0  2  0  0  0  0  0  0  0  0  0
   21.5387  -22.4402   12.4950 C   0  0  0  0  0  0  0  0  0  0  0  0
   20.8825  -21.8190   13.4000 O   0  0  0  0  0  0  0  0  0  0  0  0
   23.9212  -23.0410   12.4837 C   0  0  0  0  0  0  0  0  0  0  0  0
   24.1222  -23.2039   13.9329 C   0  0  0  0  0  0  0  0  0  0  0  0
   23.1926  -23.8765   14.6935 C   0  0  0  0  0  0  0  0  0  0  0  0
   25.2409  -22.6938   14.5925 C   0  0  0  0  0  0  0  0  0  0  0  0
   23.3382  -24.0532   16.0572 C   0  0  0  0  0  0  0  0  0  0  0  0
   25.3922  -22.8674   15.9583 C   0  0  0  0  0  0  0  0  0  0  0  0
   24.4426  -23.5508   16.7150 C   0  0  0  0  0  0  0  0  0  0  0  0
   20.9424  -23.5153   11.8714 O   0  0  0  0  0  0  0  0  0  0  0  0
  2  1  1  1
  2  3  1  0
  2  5  1  0
  3  4  2  0
  3  9  1  0
  5  6  1  0
  5  7  1  6
  6  8  1  0
  9 10  1  0
 10 11  1  0
 10 13  1  1
 11 12  2  0
 11 17  1  0
 13 14  1  0
 14 15  1  0
 15 16  1  0
 18 17  1  1
 18 19  1  0
 18 21  1  0
 19 20  2  0
 19 25  1  0
 21 22  1  0
 21 23  1  1
 22 24  1  0
 25 26  1  0
 26 27  1  0
 26 29  1  6
 27 28  2  0
 27 31  1  0
 29 30  1  0
 31 32  1  0
 32 33  1  0
 32 35  1  1
 33 34  2  0
 33 42  1  0
 35 36  1  0
 36 37  2  0
 36 38  1  0
 37 39  1  0
 38 40  2  0
 39 41  2  0
 40 41  1  0
M  CHG  1   1   1
M  END
$$$$
