
     RDKit          3D

 42 42  0  0  0  0  0  0  0  0999 V2000
   37.3794  -12.8066   11.5115 N   0  0  0  0  0  4  0  0  0  0  0  0
   37.1977  -12.0860   10.1861 C   0  0  2  0  0  0  0  0  0  0  0  0
   36.2517  -12.8739    9.3915 C   0  0  0  0  0  0  0  0  0  0  0  0
   36.3551  -12.7901    8.1326 O   0  0  0  0  0  0  0  0  0  0  0  0
   38.5735  -11.9896    9.6570 C   0  0  2  0  0  0  0  0  0  0  0  0
   39.5812  -11.2912   10.4949 C   0  0  0  0  0  0  0  0  0  0  0  0
   38.5733  -11.4394    8.2201 C   0  0  0  0  0  0  0  0  0  0  0  0
   40.9954  -11.3310   10.0079 C   0  0  0  0  0  0  0  0  0  0  0  0
   35.2424  -13.7271    9.8676 N   0  0  0  0  0  0  0  0  0  0  0  0
   34.4278  -14.5691    9.0421 C   0  0  2  0  0  0  0  0  0  0  0  0
   33.0550  -14.6951    9.5388 C   0  0  0  0  0  0  0  0  0  0  0  0
   32.7859  -15.0744   10.7222 O   0  0  0  0  0  0  0  0  0  0  0  0
   34.9842  -15.9668    8.9059 C   0  0  0  0  0  0  0  0  0  0  0  0
   34.4467  -16.8812   10.0052 C   0  0  0  0  0  0  0  0  0  0  0  0
   35.0930  -18.5522    9.8451 S   0  0  0  0  0  0  0  0  0  0  0  0
   34.4086  -19.6897   11.0434 C   0  0  0  0  0  0  0  0  0  0  0  0
   31.9349  -14.3928    8.7057 N   0  0  0  0  0  0  0  0  0  0  0  0
   30.5682  -14.6463    8.9788 C   0  0  2  0  0  0  0  0  0  0  0  0
   30.2467  -15.7949    9.8600 C   0  0  0  0  0  0  0  0  0  0  0  0
   31.2074  -16.5252   10.2054 O   0  0  0  0  0  0  0  0  0  0  0  0
   29.5731  -14.3111    7.9486 C   0  0  2  0  0  0  0  0  0  0  0  0
   29.5251  -15.0451    6.6743 C   0  0  0  0  0  0  0  0  0  0  0  0
   29.8020  -12.8257    7.5857 C   0  0  0  0  0  0  0  0  0  0  0  0
   28.8666  -14.3920    5.5065 C   0  0  0  0  0  0  0  0  0  0  0  0
   28.9492  -16.0951   10.3064 N   0  0  0  0  0  0  0  0  0  0  0  0
   28.5899  -17.2244   11.1059 C   0  0  2  0  0  0  0  0  0  0  0  0
   27.1418  -17.4806   11.2399 C   0  0  0  0  0  0  0  0  0  0  0  0
   26.4265  -16.4171   11.2206 O   0  0  0  0  0  0  0  0  0  0  0  0
   29.1653  -17.0442   12.4919 C   0  0  0  0  0  0  0  0  0  0  0  0
   28.4365  -16.0263   13.1457 O   0  0  0  0  0  0  0  0  0  0  0  0
   26.5129  -18.7190   11.3803 N   0  0  0  0  0  0  0  0  0  0  0  0
   25.0535  -18.7810   11.4055 C   0  0  2  0  0  0  0  0  0  0  0  0
   24.5978  -19.0911   12.7858 C   0  0  0  0  0  0  0  0  0  0  0  0
   25.4436  -19.2571   13.7305 O   0  0  0  0  0  0  0  0  0  0  0  0
   24.5351  -19.7737   10.4262 C   0  0  0  0  0  0  0  0  0  0  0  0
   25.2973  -21.0326   10.3868 C   0  0  0  0  0  0  0  0  0  0  0  0
   25.4939  -21.6905    9.1936 C   0  0  0  0  0  0  0  0  0  0  0  0
   25.8449  -21.6089   11.5334 C   0  0  0  0  0  0  0  0  0  0  0  0
   26.2016  -22.8753    9.1079 C   0  0  0  0  0  0  0  0  0  0  0  0
   26.5546  -22.7957   11.4540 C   0  0  0  0  0  0  0  0  0  0  0  0
   26.7455  -23.4500   10.2387 C   0  0  0  0  0  0  0  0  0  0  0  0
   23.2552  -19.2034   13.0780 O   0  0  0  0  0  0  0  0  0  0  0  0
  2  1  1  1
  2  3  1  0
  2  5  1  0
  3  4  2  0
  3  9  1  0
  5  6  1  0
  5  7  1  6
  6  8  1  0
  9 10  1  0
 10 11  1  0
 10 13  1  1
 11 12  2  0
 11 17  1  0
 13 14  1  0
 14 15  1  0
 15 16  1  0
 18 17  1  6
 18 19  1  0
 18 21  1  0
 19 20  2  0
 19 25  1  0
 21 22  1  0
 21 23  1  6
 22 24  1  0
 25 26  1  0
 26 27  1  0
 26 29  1  1
 27 28  2  0
 27 31  1  0
 29 30  1  0
 31 32  1  0
 32 33  1  0
 32 35  1  6
 33 34  2  0
 33 42  1  0
 35 36  1  0
 36 37  2  0
 36 38  1  0
 37 39  1  0
 38 40  2  0
 39 41  2  0
 40 41  1  0
M  CHG  1   1   1
M  END
$$$$
