
     RDKit          3D

 42 42  0  0  0  0  0  0  0  0999 V2000
   33.1029  -19.5329    3.6768 N   0  0  0  0  0  4  0  0  0  0  0  0
   32.9270  -19.9823    5.1177 C   0  0  2  0  0  0  0  0  0  0  0  0
   31.8092  -19.2169    5.6760 C   0  0  0  0  0  0  0  0  0  0  0  0
   30.8641  -18.9273    4.8851 O   0  0  0  0  0  0  0  0  0  0  0  0
   34.2534  -19.7339    5.7185 C   0  0  2  0  0  0  0  0  0  0  0  0
   35.4406  -20.2559    4.9950 C   0  0  0  0  0  0  0  0  0  0  0  0
   34.2764  -20.1599    7.1969 C   0  0  0  0  0  0  0  0  0  0  0  0
   36.7640  -20.0761    5.6697 C   0  0  0  0  0  0  0  0  0  0  0  0
   31.6574  -18.7731    7.0001 N   0  0  0  0  0  0  0  0  0  0  0  0
   30.4101  -18.7114    7.7031 C   0  0  2  0  0  0  0  0  0  0  0  0
   30.5449  -18.1550    9.0520 C   0  0  0  0  0  0  0  0  0  0  0  0
   31.3396  -18.6403    9.9178 O   0  0  0  0  0  0  0  0  0  0  0  0
   29.7506  -20.0634    7.8409 C   0  0  0  0  0  0  0  0  0  0  0  0
   28.7514  -20.3045    6.7108 C   0  0  0  0  0  0  0  0  0  0  0  0
   27.1255  -19.6531    7.1205 S   0  0  0  0  0  0  0  0  0  0  0  0
   25.8217  -20.8677    6.9693 C   0  0  0  0  0  0  0  0  0  0  0  0
   29.7792  -17.0228    9.4664 N   0  0  0  0  0  0  0  0  0  0  0  0
   30.1939  -15.9715   10.3206 C   0  0  2  0  0  0  0  0  0  0  0  0
   29.6236  -15.9345   11.6889 C   0  0  0  0  0  0  0  0  0  0  0  0
   30.3541  -16.3643   12.6148 O   0  0  0  0  0  0  0  0  0  0  0  0
   30.5412  -14.6747    9.7192 C   0  0  2  0  0  0  0  0  0  0  0  0
   31.4005  -14.5981    8.5273 C   0  0  0  0  0  0  0  0  0  0  0  0
   31.2537  -13.8576   10.8215 C   0  0  0  0  0  0  0  0  0  0  0  0
   32.8660  -14.8162    8.6971 C   0  0  0  0  0  0  0  0  0  0  0  0
   28.3354  -15.4583   11.9835 N   0  0  0  0  0  0  0  0  0  0  0  0
   27.5238  -15.8905   13.0780 C   0  0  2  0  0  0  0  0  0  0  0  0
   28.1176  -15.7276   14.4202 C   0  0  0  0  0  0  0  0  0  0  0  0
   27.4721  -16.3351   15.3462 O   0  0  0  0  0  0  0  0  0  0  0  0
   27.1856  -17.3512   12.8880 C   0  0  0  0  0  0  0  0  0  0  0  0
   26.5344  -17.8109   14.0539 O   0  0  0  0  0  0  0  0  0  0  0  0
   29.2638  -15.0042   14.7543 N   0  0  0  0  0  0  0  0  0  0  0  0
   29.5568  -14.7381   16.1605 C   0  0  2  0  0  0  0  0  0  0  0  0
   30.0116  -15.9930   16.8146 C   0  0  0  0  0  0  0  0  0  0  0  0
   30.0513  -16.0871   18.0894 O   0  0  0  0  0  0  0  0  0  0  0  0
   28.3796  -14.1567   16.8600 C   0  0  0  0  0  0  0  0  0  0  0  0
   28.4427  -14.2577   18.3273 C   0  0  0  0  0  0  0  0  0  0  0  0
   29.5856  -14.7125   18.9454 C   0  0  0  0  0  0  0  0  0  0  0  0
   27.3689  -13.9058   19.1458 C   0  0  0  0  0  0  0  0  0  0  0  0
   29.6908  -14.8252   20.3196 C   0  0  0  0  0  0  0  0  0  0  0  0
   27.4682  -14.0167   20.5229 C   0  0  0  0  0  0  0  0  0  0  0  0
   28.6319  -14.4786   21.1341 C   0  0  0  0  0  0  0  0  0  0  0  0
   30.3972  -17.0820   16.0625 O   0  0  0  0  0  0  0  0  0  0  0  0
  2  1  1  6
  2  3  1  0
  2  5  1  0
  3  4  2  0
  3  9  1  0
  5  6  1  0
  5  7  1  1
  6  8  1  0
  9 10  1  0
 10 11  1  0
 10 13  1  1
 11 12  2  0
 11 17  1  0
 13 14  1  0
 14 15  1  0
 15 16  1  0
 18 17  1  6
 18 19  1  0
 18 21  1  0
 19 20  2  0
 19 25  1  0
 21 22  1  0
 21 23  1  1
 22 24  1  0
 25 26  1  0
 26 27  1  0
 26 29  1  6
 27 28  2  0
 27 31  1  0
 29 30  1  0
 31 32  1  0
 32 33  1  0
 32 35  1  1
 33 34  2  0
 33 42  1  0
 35 36  1  0
 36 37  2  0
 36 38  1  0
 37 39  1  0
 38 40  2  0
 39 41  2  0
 40 41  1  0
M  CHG  1   1   1
M  END
$$$$
