
     RDKit          3D

 42 42  0  0  0  0  0  0  0  0999 V2000
   34.7866  -12.6614   11.4549 N   0  0  0  0  0  4  0  0  0  0  0  0
   33.6210  -13.0407   10.5568 C   0  0  2  0  0  0  0  0  0  0  0  0
   32.7597  -13.9442   11.3243 C   0  0  0  0  0  0  0  0  0  0  0  0
   33.3189  -14.6413   12.2210 O   0  0  0  0  0  0  0  0  0  0  0  0
   34.2790  -13.6190    9.3673 C   0  0  2  0  0  0  0  0  0  0  0  0
   35.0122  -12.6891    8.4713 C   0  0  0  0  0  0  0  0  0  0  0  0
   33.2997  -14.4975    8.5693 C   0  0  0  0  0  0  0  0  0  0  0  0
   34.1822  -11.7022    7.7124 C   0  0  0  0  0  0  0  0  0  0  0  0
   31.3729  -14.1202   11.1876 N   0  0  0  0  0  0  0  0  0  0  0  0
   30.5807  -15.0135   11.9805 C   0  0  2  0  0  0  0  0  0  0  0  0
   29.2314  -15.2062   11.4425 C   0  0  0  0  0  0  0  0  0  0  0  0
   28.8014  -14.5741   10.4265 O   0  0  0  0  0  0  0  0  0  0  0  0
   30.4300  -14.5475   13.4094 C   0  0  0  0  0  0  0  0  0  0  0  0
   29.0493  -13.9381   13.6455 C   0  0  0  0  0  0  0  0  0  0  0  0
   28.8321  -13.4467   15.3622 S   0  0  0  0  0  0  0  0  0  0  0  0
   29.8863  -14.3478   16.4912 C   0  0  0  0  0  0  0  0  0  0  0  0
   28.3195  -16.1279   12.0416 N   0  0  0  0  0  0  0  0  0  0  0  0
   27.7689  -17.2945   11.4562 C   0  0  2  0  0  0  0  0  0  0  0  0
   26.8251  -18.0927   12.2755 C   0  0  0  0  0  0  0  0  0  0  0  0
   27.0097  -18.0818   13.5171 O   0  0  0  0  0  0  0  0  0  0  0  0
   28.5778  -18.0369   10.4772 C   0  0  2  0  0  0  0  0  0  0  0  0
   28.9845  -17.4183    9.2058 C   0  0  0  0  0  0  0  0  0  0  0  0
   27.7661  -19.2993   10.1060 C   0  0  0  0  0  0  0  0  0  0  0  0
   29.8534  -18.2043    8.2831 C   0  0  0  0  0  0  0  0  0  0  0  0
   25.7678  -18.8437   11.7362 N   0  0  0  0  0  0  0  0  0  0  0  0
   24.5520  -19.1669   12.4150 C   0  0  2  0  0  0  0  0  0  0  0  0
   23.5788  -19.9650   11.6426 C   0  0  0  0  0  0  0  0  0  0  0  0
   23.8309  -20.0098   10.3866 O   0  0  0  0  0  0  0  0  0  0  0  0
   23.8750  -17.8846   12.8411 C   0  0  0  0  0  0  0  0  0  0  0  0
   23.2281  -18.1136   14.0755 O   0  0  0  0  0  0  0  0  0  0  0  0
   22.4614  -20.6415   12.1350 N   0  0  0  0  0  0  0  0  0  0  0  0
   22.1844  -21.9982   11.6696 C   0  0  2  0  0  0  0  0  0  0  0  0
   20.9332  -22.4903   12.3033 C   0  0  0  0  0  0  0  0  0  0  0  0
   20.3700  -23.5615   11.8901 O   0  0  0  0  0  0  0  0  0  0  0  0
   23.3273  -22.9103   11.9436 C   0  0  0  0  0  0  0  0  0  0  0  0
   23.4509  -23.3108   13.3548 C   0  0  0  0  0  0  0  0  0  0  0  0
   22.6615  -24.3168   13.8647 C   0  0  0  0  0  0  0  0  0  0  0  0
   24.3545  -22.7020   14.2263 C   0  0  0  0  0  0  0  0  0  0  0  0
   22.7416  -24.7261   15.1831 C   0  0  0  0  0  0  0  0  0  0  0  0
   24.4392  -23.1074   15.5480 C   0  0  0  0  0  0  0  0  0  0  0  0
   23.6335  -24.1275   16.0497 C   0  0  0  0  0  0  0  0  0  0  0  0
   20.3551  -21.8053   13.3507 O   0  0  0  0  0  0  0  0  0  0  0  0
  2  1  1  1
  2  3  1  0
  2  5  1  0
  3  4  2  0
  3  9  1  0
  5  6  1  0
  5  7  1  6
  6  8  1  0
  9 10  1  0
 10 11  1  0
 10 13  1  1
 11 12  2  0
 11 17  1  0
 13 14  1  0
 14 15  1  0
 15 16  1  0
 18 17  1  1
 18 19  1  0
 18 21  1  0
 19 20  2  0
 19 25  1  0
 21 22  1  0
 21 23  1  6
 22 24  1  0
 25 26  1  0
 26 27  1  0
 26 29  1  6
 27 28  2  0
 27 31  1  0
 29 30  1  0
 31 32  1  0
 32 33  1  0
 32 35  1  1
 33 34  2  0
 33 42  1  0
 35 36  1  0
 36 37  2  0
 36 38  1  0
 37 39  1  0
 38 40  2  0
 39 41  2  0
 40 41  1  0
M  CHG  1   1   1
M  END
$$$$
