
     RDKit          3D

 42 42  0  0  0  0  0  0  0  0999 V2000
   33.6910  -14.5692    9.3956 N   0  0  0  0  0  4  0  0  0  0  0  0
   32.8357  -14.5741   10.6516 C   0  0  2  0  0  0  0  0  0  0  0  0
   31.5285  -15.1238   10.2825 C   0  0  0  0  0  0  0  0  0  0  0  0
   31.1988  -15.0426    9.0630 O   0  0  0  0  0  0  0  0  0  0  0  0
   32.8520  -13.1613   11.0828 C   0  0  2  0  0  0  0  0  0  0  0  0
   34.1686  -12.5659   11.4252 C   0  0  0  0  0  0  0  0  0  0  0  0
   31.8269  -12.9162   12.2038 C   0  0  0  0  0  0  0  0  0  0  0  0
   34.8547  -13.1173   12.6351 C   0  0  0  0  0  0  0  0  0  0  0  0
   30.5957  -15.7454   11.1290 N   0  0  0  0  0  0  0  0  0  0  0  0
   29.5368  -16.6043   10.6872 C   0  0  2  0  0  0  0  0  0  0  0  0
   28.6655  -17.0413   11.7813 C   0  0  0  0  0  0  0  0  0  0  0  0
   28.5747  -16.4084   12.8803 O   0  0  0  0  0  0  0  0  0  0  0  0
   30.0444  -17.8477    9.9957 C   0  0  0  0  0  0  0  0  0  0  0  0
   28.9510  -18.9106    9.9053 C   0  0  0  0  0  0  0  0  0  0  0  0
   29.5340  -20.3829    9.0520 S   0  0  0  0  0  0  0  0  0  0  0  0
   30.4295  -20.0168    7.5480 C   0  0  0  0  0  0  0  0  0  0  0  0
   27.8630  -18.2171   11.6649 N   0  0  0  0  0  0  0  0  0  0  0  0
   26.5637  -18.4255   12.1893 C   0  0  2  0  0  0  0  0  0  0  0  0
   25.9780  -19.7809   12.0515 C   0  0  0  0  0  0  0  0  0  0  0  0
   26.3010  -20.4320   11.0281 O   0  0  0  0  0  0  0  0  0  0  0  0
   25.6178  -17.2988   12.1883 C   0  0  2  0  0  0  0  0  0  0  0  0
   24.7654  -17.0263   11.0205 C   0  0  0  0  0  0  0  0  0  0  0  0
   26.4579  -16.0217   12.4203 C   0  0  0  0  0  0  0  0  0  0  0  0
   23.3129  -16.7765   11.2483 C   0  0  0  0  0  0  0  0  0  0  0  0
   25.0977  -20.3481   12.9876 N   0  0  0  0  0  0  0  0  0  0  0  0
   24.6747  -21.7135   13.0039 C   0  0  2  0  0  0  0  0  0  0  0  0
   23.2195  -21.9326   13.1264 C   0  0  0  0  0  0  0  0  0  0  0  0
   22.5784  -20.9079   13.5534 O   0  0  0  0  0  0  0  0  0  0  0  0
   25.3547  -22.4215   14.1531 C   0  0  0  0  0  0  0  0  0  0  0  0
   24.9029  -23.7593   14.1794 O   0  0  0  0  0  0  0  0  0  0  0  0
   22.5139  -23.1011   12.8339 N   0  0  0  0  0  0  0  0  0  0  0  0
   21.0536  -23.0831   12.8719 C   0  0  2  0  0  0  0  0  0  0  0  0
   20.5667  -24.2557   13.6445 C   0  0  0  0  0  0  0  0  0  0  0  0
   21.3466  -25.2353   13.9046 O   0  0  0  0  0  0  0  0  0  0  0  0
   20.4751  -23.0570   11.5015 C   0  0  0  0  0  0  0  0  0  0  0  0
   21.1619  -22.1400   10.5771 C   0  0  0  0  0  0  0  0  0  0  0  0
   20.8520  -20.7987   10.5685 C   0  0  0  0  0  0  0  0  0  0  0  0
   22.1393  -22.5770    9.6824 C   0  0  0  0  0  0  0  0  0  0  0  0
   21.4697  -19.9004    9.7178 C   0  0  0  0  0  0  0  0  0  0  0  0
   22.7614  -21.6820    8.8277 C   0  0  0  0  0  0  0  0  0  0  0  0
   22.4371  -20.3270    8.8307 C   0  0  0  0  0  0  0  0  0  0  0  0
   19.2666  -24.3115   14.0995 O   0  0  0  0  0  0  0  0  0  0  0  0
  2  1  1  6
  2  3  1  0
  2  5  1  0
  3  4  2  0
  3  9  1  0
  5  6  1  0
  5  7  1  1
  6  8  1  0
  9 10  1  0
 10 11  1  0
 10 13  1  1
 11 12  2  0
 11 17  1  0
 13 14  1  0
 14 15  1  0
 15 16  1  0
 18 17  1  6
 18 19  1  0
 18 21  1  0
 19 20  2  0
 19 25  1  0
 21 22  1  0
 21 23  1  6
 22 24  1  0
 25 26  1  0
 26 27  1  0
 26 29  1  1
 27 28  2  0
 27 31  1  0
 29 30  1  0
 31 32  1  0
 32 33  1  0
 32 35  1  6
 33 34  2  0
 33 42  1  0
 35 36  1  0
 36 37  2  0
 36 38  1  0
 37 39  1  0
 38 40  2  0
 39 41  2  0
 40 41  1  0
M  CHG  1   1   1
M  END
$$$$
