
     RDKit          3D

 42 42  0  0  0  0  0  0  0  0999 V2000
   33.0878  -13.4395   13.0274 N   0  0  0  0  0  4  0  0  0  0  0  0
   32.2932  -14.6307   13.5359 C   0  0  2  0  0  0  0  0  0  0  0  0
   31.5177  -15.1478   12.4053 C   0  0  0  0  0  0  0  0  0  0  0  0
   31.1754  -14.3122   11.5181 O   0  0  0  0  0  0  0  0  0  0  0  0
   31.5153  -14.0694   14.6592 C   0  0  2  0  0  0  0  0  0  0  0  0
   30.7841  -12.7996   14.4178 C   0  0  0  0  0  0  0  0  0  0  0  0
   32.3746  -13.9781   15.9324 C   0  0  0  0  0  0  0  0  0  0  0  0
   29.3991  -12.7117   14.9773 C   0  0  0  0  0  0  0  0  0  0  0  0
   31.1161  -16.4755   12.1835 N   0  0  0  0  0  0  0  0  0  0  0  0
   30.4871  -16.9496   10.9863 C   0  0  2  0  0  0  0  0  0  0  0  0
   29.0491  -17.1779   11.1519 C   0  0  0  0  0  0  0  0  0  0  0  0
   28.5361  -17.5482   12.2548 O   0  0  0  0  0  0  0  0  0  0  0  0
   31.0896  -18.2399   10.4823 C   0  0  0  0  0  0  0  0  0  0  0  0
   30.4036  -18.7012    9.1977 C   0  0  0  0  0  0  0  0  0  0  0  0
   31.0778  -20.2645    8.6171 S   0  0  0  0  0  0  0  0  0  0  0  0
   30.5480  -21.6659    9.5937 C   0  0  0  0  0  0  0  0  0  0  0  0
   28.1396  -16.9922   10.0665 N   0  0  0  0  0  0  0  0  0  0  0  0
   26.7507  -17.2712   10.0524 C   0  0  2  0  0  0  0  0  0  0  0  0
   26.2765  -18.4316   10.8445 C   0  0  0  0  0  0  0  0  0  0  0  0
   27.0889  -18.9216   11.6664 O   0  0  0  0  0  0  0  0  0  0  0  0
   25.9821  -16.9453    8.8412 C   0  0  2  0  0  0  0  0  0  0  0  0
   24.5120  -17.0027    8.8386 C   0  0  0  0  0  0  0  0  0  0  0  0
   26.4570  -17.9260    7.7443 C   0  0  0  0  0  0  0  0  0  0  0  0
   23.7904  -16.5884    7.6009 C   0  0  0  0  0  0  0  0  0  0  0  0
   24.9959  -18.9935   10.7131 N   0  0  0  0  0  0  0  0  0  0  0  0
   24.4417  -19.9981   11.5660 C   0  0  2  0  0  0  0  0  0  0  0  0
   23.0889  -20.4690   11.2071 C   0  0  0  0  0  0  0  0  0  0  0  0
   22.2811  -19.5244   10.8934 O   0  0  0  0  0  0  0  0  0  0  0  0
   24.3943  -19.4662   12.9799 C   0  0  0  0  0  0  0  0  0  0  0  0
   23.1431  -18.8417   13.1771 O   0  0  0  0  0  0  0  0  0  0  0  0
   22.6331  -21.7882   11.1818 N   0  0  0  0  0  0  0  0  0  0  0  0
   21.2579  -22.0618   10.7717 C   0  0  2  0  0  0  0  0  0  0  0  0
   20.3868  -22.1153   11.9748 C   0  0  0  0  0  0  0  0  0  0  0  0
   19.1843  -22.5426   11.8913 O   0  0  0  0  0  0  0  0  0  0  0  0
   21.1673  -23.3175    9.9790 C   0  0  0  0  0  0  0  0  0  0  0  0
   22.1514  -24.3426   10.3635 C   0  0  0  0  0  0  0  0  0  0  0  0
   23.3501  -24.4430    9.6939 C   0  0  0  0  0  0  0  0  0  0  0  0
   21.9213  -25.2445   11.4028 C   0  0  0  0  0  0  0  0  0  0  0  0
   24.3039  -25.3899   10.0187 C   0  0  0  0  0  0  0  0  0  0  0  0
   22.8728  -26.1954   11.7328 C   0  0  0  0  0  0  0  0  0  0  0  0
   24.0817  -26.2846   11.0458 C   0  0  0  0  0  0  0  0  0  0  0  0
   20.8562  -21.7089   13.2055 O   0  0  0  0  0  0  0  0  0  0  0  0
  2  1  1  6
  2  3  1  0
  2  5  1  0
  3  4  2  0
  3  9  1  0
  5  6  1  0
  5  7  1  1
  6  8  1  0
  9 10  1  0
 10 11  1  0
 10 13  1  1
 11 12  2  0
 11 17  1  0
 13 14  1  0
 14 15  1  0
 15 16  1  0
 18 17  1  6
 18 19  1  0
 18 21  1  0
 19 20  2  0
 19 25  1  0
 21 22  1  0
 21 23  1  6
 22 24  1  0
 25 26  1  0
 26 27  1  0
 26 29  1  1
 27 28  2  0
 27 31  1  0
 29 30  1  0
 31 32  1  0
 32 33  1  0
 32 35  1  1
 33 34  2  0
 33 42  1  0
 35 36  1  0
 36 37  2  0
 36 38  1  0
 37 39  1  0
 38 40  2  0
 39 41  2  0
 40 41  1  0
M  CHG  1   1   1
M  END
$$$$
