
     RDKit          3D

 42 42  0  0  0  0  0  0  0  0999 V2000
   32.9473  -14.7396    9.7777 N   0  0  0  0  0  4  0  0  0  0  0  0
   31.6626  -15.2619    9.1566 C   0  0  2  0  0  0  0  0  0  0  0  0
   30.6805  -15.3890   10.2367 C   0  0  0  0  0  0  0  0  0  0  0  0
   29.5295  -15.8067    9.9153 O   0  0  0  0  0  0  0  0  0  0  0  0
   32.0834  -16.5192    8.5052 C   0  0  2  0  0  0  0  0  0  0  0  0
   33.0945  -17.3488    9.2085 C   0  0  0  0  0  0  0  0  0  0  0  0
   32.4933  -16.2710    7.0430 C   0  0  0  0  0  0  0  0  0  0  0  0
   33.3442  -18.7130    8.6467 C   0  0  0  0  0  0  0  0  0  0  0  0
   30.8722  -15.1099   11.5999 N   0  0  0  0  0  0  0  0  0  0  0  0
   30.0020  -15.5435   12.6529 C   0  0  2  0  0  0  0  0  0  0  0  0
   28.7537  -16.1272   12.1544 C   0  0  0  0  0  0  0  0  0  0  0  0
   28.4164  -16.0814   10.9293 O   0  0  0  0  0  0  0  0  0  0  0  0
   29.6272  -14.4259   13.5975 C   0  0  0  0  0  0  0  0  0  0  0  0
   30.5870  -14.3653   14.7843 C   0  0  0  0  0  0  0  0  0  0  0  0
   30.6388  -12.7178   15.5046 S   0  0  0  0  0  0  0  0  0  0  0  0
   30.8512  -11.4240   14.2885 C   0  0  0  0  0  0  0  0  0  0  0  0
   27.8413  -16.7867   13.0333 N   0  0  0  0  0  0  0  0  0  0  0  0
   26.6951  -17.5382   12.6753 C   0  0  2  0  0  0  0  0  0  0  0  0
   26.9096  -18.8036   11.9325 C   0  0  0  0  0  0  0  0  0  0  0  0
   28.0935  -19.2115   11.8459 O   0  0  0  0  0  0  0  0  0  0  0  0
   25.4430  -16.8180   12.3967 C   0  0  2  0  0  0  0  0  0  0  0  0
   24.1565  -17.5295   12.3391 C   0  0  0  0  0  0  0  0  0  0  0  0
   25.6257  -16.1386   11.0200 C   0  0  0  0  0  0  0  0  0  0  0  0
   22.9390  -16.8308   12.8425 C   0  0  0  0  0  0  0  0  0  0  0  0
   25.8745  -19.5406   11.3336 N   0  0  0  0  0  0  0  0  0  0  0  0
   25.9520  -20.9159   10.9516 C   0  0  2  0  0  0  0  0  0  0  0  0
   24.7341  -21.4799   10.3357 C   0  0  0  0  0  0  0  0  0  0  0  0
   23.7537  -21.6032   11.1523 O   0  0  0  0  0  0  0  0  0  0  0  0
   26.2880  -21.7431   12.1710 C   0  0  0  0  0  0  0  0  0  0  0  0
   25.9969  -23.0949   11.8839 O   0  0  0  0  0  0  0  0  0  0  0  0
   24.5643  -21.8733    9.0071 N   0  0  0  0  0  0  0  0  0  0  0  0
   24.2450  -23.2674    8.7094 C   0  0  2  0  0  0  0  0  0  0  0  0
   25.4946  -24.0722    8.7224 C   0  0  0  0  0  0  0  0  0  0  0  0
   26.3333  -23.9597    9.6813 O   0  0  0  0  0  0  0  0  0  0  0  0
   23.5297  -23.3955    7.4113 C   0  0  0  0  0  0  0  0  0  0  0  0
   22.1125  -23.7722    7.5412 C   0  0  0  0  0  0  0  0  0  0  0  0
   21.5854  -24.0849    8.7739 C   0  0  0  0  0  0  0  0  0  0  0  0
   21.2529  -23.8307    6.4438 C   0  0  0  0  0  0  0  0  0  0  0  0
   20.2613  -24.4451    8.9444 C   0  0  0  0  0  0  0  0  0  0  0  0
   19.9257  -24.1911    6.6082 C   0  0  0  0  0  0  0  0  0  0  0  0
   19.4064  -24.5047    7.8625 C   0  0  0  0  0  0  0  0  0  0  0  0
   25.7749  -24.9582    7.7041 O   0  0  0  0  0  0  0  0  0  0  0  0
  2  1  1  1
  2  3  1  0
  2  5  1  0
  3  4  2  0
  3  9  1  0
  5  6  1  0
  5  7  1  6
  6  8  1  0
  9 10  1  0
 10 11  1  0
 10 13  1  1
 11 12  2  0
 11 17  1  0
 13 14  1  0
 14 15  1  0
 15 16  1  0
 18 17  1  6
 18 19  1  0
 18 21  1  0
 19 20  2  0
 19 25  1  0
 21 22  1  0
 21 23  1  6
 22 24  1  0
 25 26  1  0
 26 27  1  0
 26 29  1  1
 27 28  2  0
 27 31  1  0
 29 30  1  0
 31 32  1  0
 32 33  1  0
 32 35  1  6
 33 34  2  0
 33 42  1  0
 35 36  1  0
 36 37  2  0
 36 38  1  0
 37 39  1  0
 38 40  2  0
 39 41  2  0
 40 41  1  0
M  CHG  1   1   1
M  END
$$$$
