
     RDKit          3D

 42 42  0  0  0  0  0  0  0  0999 V2000
   36.3599  -12.3300   10.4715 N   0  0  0  0  0  4  0  0  0  0  0  0
   34.9827  -12.6320    9.9047 C   0  0  2  0  0  0  0  0  0  0  0  0
   34.7962  -14.0839    9.9717 C   0  0  0  0  0  0  0  0  0  0  0  0
   35.4150  -14.6970   10.8903 O   0  0  0  0  0  0  0  0  0  0  0  0
   35.0322  -12.0417    8.5514 C   0  0  2  0  0  0  0  0  0  0  0  0
   36.0916  -12.5279    7.6314 C   0  0  0  0  0  0  0  0  0  0  0  0
   35.0240  -10.5046    8.6210 C   0  0  0  0  0  0  0  0  0  0  0  0
   35.8495  -12.3229    6.1691 C   0  0  0  0  0  0  0  0  0  0  0  0
   33.9956  -14.8797    9.1358 N   0  0  0  0  0  0  0  0  0  0  0  0
   33.4117  -16.1324    9.5150 C   0  0  2  0  0  0  0  0  0  0  0  0
   31.9468  -16.1084    9.4867 C   0  0  0  0  0  0  0  0  0  0  0  0
   31.2693  -15.1106    9.8893 O   0  0  0  0  0  0  0  0  0  0  0  0
   33.8251  -16.5735   10.8993 C   0  0  0  0  0  0  0  0  0  0  0  0
   35.2396  -17.1503   10.8921 C   0  0  0  0  0  0  0  0  0  0  0  0
   35.2259  -18.9215   10.5783 S   0  0  0  0  0  0  0  0  0  0  0  0
   35.9438  -19.3626    9.0009 C   0  0  0  0  0  0  0  0  0  0  0  0
   31.1968  -17.2211    8.9974 N   0  0  0  0  0  0  0  0  0  0  0  0
   29.7881  -17.3282    8.8929 C   0  0  2  0  0  0  0  0  0  0  0  0
   29.0269  -17.5970   10.1369 C   0  0  0  0  0  0  0  0  0  0  0  0
   29.6791  -17.5853   11.2093 O   0  0  0  0  0  0  0  0  0  0  0  0
   29.2155  -17.8580    7.6458 C   0  0  2  0  0  0  0  0  0  0  0  0
   29.8582  -17.6003    6.3476 C   0  0  0  0  0  0  0  0  0  0  0  0
   27.7835  -17.2842    7.5431 C   0  0  0  0  0  0  0  0  0  0  0  0
   30.4018  -16.2365    6.0862 C   0  0  0  0  0  0  0  0  0  0  0  0
   27.6479  -17.8627   10.1644 N   0  0  0  0  0  0  0  0  0  0  0  0
   26.8506  -17.9763   11.3454 C   0  0  2  0  0  0  0  0  0  0  0  0
   25.4245  -18.2919   11.1285 C   0  0  0  0  0  0  0  0  0  0  0  0
   24.8078  -17.4246   10.4139 O   0  0  0  0  0  0  0  0  0  0  0  0
   26.9326  -16.6790   12.1164 C   0  0  0  0  0  0  0  0  0  0  0  0
   26.0817  -16.7759   13.2394 O   0  0  0  0  0  0  0  0  0  0  0  0
   24.7215  -19.3975   11.6106 N   0  0  0  0  0  0  0  0  0  0  0  0
   23.3805  -19.6705   11.0994 C   0  0  2  0  0  0  0  0  0  0  0  0
   22.3723  -19.1324   12.0499 C   0  0  0  0  0  0  0  0  0  0  0  0
   22.7362  -18.5911   13.1499 O   0  0  0  0  0  0  0  0  0  0  0  0
   23.1772  -21.1242   10.8571 C   0  0  0  0  0  0  0  0  0  0  0  0
   23.6229  -21.9856   11.9646 C   0  0  0  0  0  0  0  0  0  0  0  0
   24.8422  -22.6220   11.9044 C   0  0  0  0  0  0  0  0  0  0  0  0
   22.8468  -22.1955   13.1049 C   0  0  0  0  0  0  0  0  0  0  0  0
   25.3021  -23.4409   12.9193 C   0  0  0  0  0  0  0  0  0  0  0  0
   23.3019  -23.0149   14.1247 C   0  0  0  0  0  0  0  0  0  0  0  0
   24.5386  -23.6523   14.0495 C   0  0  0  0  0  0  0  0  0  0  0  0
   21.0252  -19.2023   11.7654 O   0  0  0  0  0  0  0  0  0  0  0  0
  2  1  1  6
  2  3  1  0
  2  5  1  0
  3  4  2  0
  3  9  1  0
  5  6  1  0
  5  7  1  1
  6  8  1  0
  9 10  1  0
 10 11  1  0
 10 13  1  1
 11 12  2  0
 11 17  1  0
 13 14  1  0
 14 15  1  0
 15 16  1  0
 18 17  1  1
 18 19  1  0
 18 21  1  0
 19 20  2  0
 19 25  1  0
 21 22  1  0
 21 23  1  6
 22 24  1  0
 25 26  1  0
 26 27  1  0
 26 29  1  6
 27 28  2  0
 27 31  1  0
 29 30  1  0
 31 32  1  0
 32 33  1  0
 32 35  1  1
 33 34  2  0
 33 42  1  0
 35 36  1  0
 36 37  2  0
 36 38  1  0
 37 39  1  0
 38 40  2  0
 39 41  2  0
 40 41  1  0
M  CHG  1   1   1
M  END
$$$$
