
     RDKit          3D

 42 42  0  0  0  0  0  0  0  0999 V2000
   33.5497  -13.0948    8.8646 N   0  0  0  0  0  4  0  0  0  0  0  0
   33.1885  -14.2601    9.7704 C   0  0  2  0  0  0  0  0  0  0  0  0
   31.7486  -14.4901    9.6260 C   0  0  0  0  0  0  0  0  0  0  0  0
   31.0757  -13.5690    9.0770 O   0  0  0  0  0  0  0  0  0  0  0  0
   33.6486  -13.8148   11.1016 C   0  0  2  0  0  0  0  0  0  0  0  0
   35.1105  -13.6422   11.2976 C   0  0  0  0  0  0  0  0  0  0  0  0
   33.0416  -14.6875   12.2141 C   0  0  0  0  0  0  0  0  0  0  0  0
   35.5741  -12.2721   11.6806 C   0  0  0  0  0  0  0  0  0  0  0  0
   31.0237  -15.6273   10.0187 N   0  0  0  0  0  0  0  0  0  0  0  0
   30.3633  -16.5262    9.1188 C   0  0  2  0  0  0  0  0  0  0  0  0
   29.8556  -17.7278    9.7864 C   0  0  0  0  0  0  0  0  0  0  0  0
   30.6174  -18.6648   10.1845 O   0  0  0  0  0  0  0  0  0  0  0  0
   31.2580  -16.9851    7.9915 C   0  0  0  0  0  0  0  0  0  0  0  0
   31.2457  -15.9832    6.8384 C   0  0  0  0  0  0  0  0  0  0  0  0
   29.8610  -16.2754    5.7281 S   0  0  0  0  0  0  0  0  0  0  0  0
   28.8508  -17.6688    6.2140 C   0  0  0  0  0  0  0  0  0  0  0  0
   28.4593  -17.9078   10.0269 N   0  0  0  0  0  0  0  0  0  0  0  0
   27.8107  -18.0139   11.2819 C   0  0  2  0  0  0  0  0  0  0  0  0
   26.3398  -18.2021   11.2795 C   0  0  0  0  0  0  0  0  0  0  0  0
   25.6685  -17.3809   10.6083 O   0  0  0  0  0  0  0  0  0  0  0  0
   28.3772  -17.2863   12.4280 C   0  0  2  0  0  0  0  0  0  0  0  0
   29.8292  -17.2561   12.6635 C   0  0  0  0  0  0  0  0  0  0  0  0
   27.7444  -17.9052   13.6956 C   0  0  0  0  0  0  0  0  0  0  0  0
   30.3468  -16.4159   13.7816 C   0  0  0  0  0  0  0  0  0  0  0  0
   25.6843  -19.2272   11.9813 N   0  0  0  0  0  0  0  0  0  0  0  0
   24.3374  -19.6516   11.7596 C   0  0  2  0  0  0  0  0  0  0  0  0
   23.8662  -20.7615   12.6120 C   0  0  0  0  0  0  0  0  0  0  0  0
   23.9402  -21.9107   12.0489 O   0  0  0  0  0  0  0  0  0  0  0  0
   24.1898  -20.0728   10.3156 C   0  0  0  0  0  0  0  0  0  0  0  0
   24.7096  -21.3789   10.1793 O   0  0  0  0  0  0  0  0  0  0  0  0
   23.3697  -20.6744   13.9138 N   0  0  0  0  0  0  0  0  0  0  0  0
   21.9332  -20.8110   14.1418 C   0  0  2  0  0  0  0  0  0  0  0  0
   21.2388  -20.9542   12.8354 C   0  0  0  0  0  0  0  0  0  0  0  0
   20.4510  -21.9382   12.6195 O   0  0  0  0  0  0  0  0  0  0  0  0
   21.3953  -19.6628   14.9200 C   0  0  0  0  0  0  0  0  0  0  0  0
   19.9799  -19.8049   15.2992 C   0  0  0  0  0  0  0  0  0  0  0  0
   19.2805  -20.9428   14.9655 C   0  0  0  0  0  0  0  0  0  0  0  0
   19.2924  -18.8131   15.9994 C   0  0  0  0  0  0  0  0  0  0  0  0
   17.9504  -21.1202   15.2992 C   0  0  0  0  0  0  0  0  0  0  0  0
   17.9599  -18.9850   16.3363 C   0  0  0  0  0  0  0  0  0  0  0  0
   17.2653  -20.1426   15.9918 C   0  0  0  0  0  0  0  0  0  0  0  0
   21.4262  -20.0292   11.8306 O   0  0  0  0  0  0  0  0  0  0  0  0
  2  1  1  6
  2  3  1  0
  2  5  1  0
  3  4  2  0
  3  9  1  0
  5  6  1  0
  5  7  1  1
  6  8  1  0
  9 10  1  0
 10 11  1  0
 10 13  1  6
 11 12  2  0
 11 17  1  0
 13 14  1  0
 14 15  1  0
 15 16  1  0
 18 17  1  6
 18 19  1  0
 18 21  1  0
 19 20  2  0
 19 25  1  0
 21 22  1  0
 21 23  1  1
 22 24  1  0
 25 26  1  0
 26 27  1  0
 26 29  1  6
 27 28  2  0
 27 31  1  0
 29 30  1  0
 31 32  1  0
 32 33  1  0
 32 35  1  6
 33 34  2  0
 33 42  1  0
 35 36  1  0
 36 37  2  0
 36 38  1  0
 37 39  1  0
 38 40  2  0
 39 41  2  0
 40 41  1  0
M  CHG  1   1   1
M  END
$$$$
