
     RDKit          3D

 74 76  0  0  0  0  0  0  0  0999 V2000
   28.7471   -4.6451   44.5132 N   0  0  0  0  0  4  0  0  0  0  0  0
   27.6614   -4.2609   45.3628 C   0  0  2  0  0  0  0  0  0  0  0  0
   26.5267   -3.6047   44.6651 C   0  0  0  0  0  0  0  0  0  0  0  0
   25.3426   -4.0564   44.8185 O   0  0  0  0  0  0  0  0  0  0  0  0
   28.1507   -3.3547   46.4593 C   0  0  0  0  0  0  0  0  0  0  0  0
   27.1090   -2.8221   47.3710 C   0  0  0  0  0  0  0  0  0  0  0  0
   27.6660   -1.6464   48.5961 S   0  0  0  0  0  0  0  0  0  0  0  0
   26.2809   -1.0773   49.5825 C   0  0  0  0  0  0  0  0  0  0  0  0
   26.6454   -2.4936   43.8205 N   0  0  0  0  0  0  0  0  0  0  0  0
   25.5536   -1.6860   43.3627 C   0  0  2  0  0  0  0  0  0  0  0  0
   24.8801   -2.2461   42.1690 C   0  0  0  0  0  0  0  0  0  0  0  0
   23.7086   -1.8905   41.9168 O   0  0  0  0  0  0  0  0  0  0  0  0
   26.0111   -0.2985   43.0420 C   0  0  0  0  0  0  0  0  0  0  0  0
   25.1934    0.3872   42.0353 C   0  0  0  0  0  0  0  0  0  0  0  0
   25.4244    0.3506   40.6700 C   0  0  0  0  0  0  0  0  0  0  0  0
   24.0636    1.1461   42.2284 C   0  0  0  0  0  0  0  0  0  0  0  0
   24.4626    1.0642   40.0847 N   0  0  0  0  0  0  0  0  0  0  0  0
   23.6126    1.5658   41.0010 C   0  0  0  0  0  0  0  0  0  0  0  0
   23.3786    1.5364   43.3607 C   0  0  0  0  0  0  0  0  0  0  0  0
   22.5009    2.3616   40.8621 C   0  0  0  0  0  0  0  0  0  0  0  0
   22.2452    2.3473   43.2406 C   0  0  0  0  0  0  0  0  0  0  0  0
   21.8370    2.7377   41.9899 C   0  0  0  0  0  0  0  0  0  0  0  0
   25.5128   -3.1577   41.3150 N   0  0  0  0  0  0  0  0  0  0  0  0
   24.8797   -4.0027   40.3666 C   0  0  2  0  0  0  0  0  0  0  0  0
   23.4516   -4.2877   40.5798 C   0  0  0  0  0  0  0  0  0  0  0  0
   22.7959   -4.7358   39.6415 O   0  0  0  0  0  0  0  0  0  0  0  0
   25.7419   -5.1735   40.0675 C   0  0  0  0  0  0  0  0  0  0  0  0
   26.7614   -4.9993   39.0019 C   0  0  1  0  0  0  0  0  0  0  0  0
   26.5020   -5.8554   37.7780 C   0  0  0  0  0  0  0  0  0  0  0  0
   26.6833   -3.5534   38.5055 C   0  0  0  0  0  0  0  0  0  0  0  0
   22.8913   -4.0393   41.8425 N   0  0  0  0  0  0  0  0  0  0  0  0
   21.5696   -4.2996   42.2755 C   0  0  2  0  0  0  0  0  0  0  0  0
   20.5079   -3.5095   41.6400 C   0  0  0  0  0  0  0  0  0  0  0  0
   19.2653   -3.7419   41.8351 O   0  0  0  0  0  0  0  0  0  0  0  0
   21.3715   -4.5118   43.7601 C   0  0  0  0  0  0  0  0  0  0  0  0
   19.9498   -4.7023   44.1400 C   0  0  1  0  0  0  0  0  0  0  0  0
   19.9382   -5.8607   45.1644 C   0  0  0  0  0  0  0  0  0  0  0  0
   19.6452   -3.4725   45.0750 C   0  0  0  0  0  0  0  0  0  0  0  0
   20.7926   -2.4077   40.7534 N   0  0  0  0  0  0  0  0  0  0  0  0
   19.7479   -1.5131   40.3278 C   0  0  2  0  0  0  0  0  0  0  0  0
   20.1761   -0.6149   39.2618 C   0  0  0  0  0  0  0  0  0  0  0  0
   19.3086   -0.2690   38.3865 O   0  0  0  0  0  0  0  0  0  0  0  0
   19.2137   -0.8176   41.5542 C   0  0  0  0  0  0  0  0  0  0  0  0
   17.7839   -1.0304   41.8664 C   0  0  1  0  0  0  0  0  0  0  0  0
   17.1671   -0.1233   42.8749 C   0  0  0  0  0  0  0  0  0  0  0  0
   17.0228   -0.7769   40.5480 C   0  0  0  0  0  0  0  0  0  0  0  0
   21.4519   -0.0919   39.1015 N   0  0  0  0  0  0  0  0  0  0  0  0
   22.1526   -0.2008   37.8099 C   0  0  2  0  0  0  0  0  0  0  0  0
   21.5448   -1.2435   36.9936 C   0  0  0  0  0  0  0  0  0  0  0  0
   21.2589   -0.8546   35.7803 O   0  0  0  0  0  0  0  0  0  0  0  0
   23.6133   -0.3122   38.0481 C   0  0  0  0  0  0  0  0  0  0  0  0
   24.4937    0.0612   36.9074 C   0  0  1  0  0  0  0  0  0  0  0  0
   23.5604    0.5053   35.7694 C   0  0  0  0  0  0  0  0  0  0  0  0
   25.2613    1.3645   37.2844 C   0  0  0  0  0  0  0  0  0  0  0  0
   21.2081   -2.5569   37.2258 N   0  0  0  0  0  0  0  0  0  0  0  0
   20.6461   -3.4998   36.2830 C   0  0  2  0  0  0  0  0  0  0  0  0
   19.1891   -3.1669   36.0330 C   0  0  0  0  0  0  0  0  0  0  0  0
   18.2710   -3.4977   36.8241 O   0  0  0  0  0  0  0  0  0  0  0  0
   20.8867   -4.9235   36.5011 C   0  0  0  0  0  0  0  0  0  0  0  0
   19.8949   -5.8873   36.0116 C   0  0  0  0  0  0  0  0  0  0  0  0
   18.5726   -5.4688   35.9890 C   0  0  0  0  0  0  0  0  0  0  0  0
   20.2147   -7.1626   35.5881 C   0  0  0  0  0  0  0  0  0  0  0  0
   17.5547   -6.2969   35.5527 C   0  0  0  0  0  0  0  0  0  0  0  0
   19.2202   -8.0009   35.1503 C   0  0  0  0  0  0  0  0  0  0  0  0
   17.8802   -7.5652   35.1322 C   0  0  0  0  0  0  0  0  0  0  0  0
   18.8095   -2.4568   34.8750 N   0  0  0  0  0  0  0  0  0  0  0  0
   17.4865   -1.8636   34.8388 C   0  0  2  0  0  0  0  0  0  0  0  0
   17.2832   -1.2276   33.4735 C   0  0  0  0  0  0  0  0  0  0  0  0
   16.0295   -0.8967   33.0020 O   0  0  0  0  0  1  0  0  0  0  0  0
   17.4547   -0.7892   35.8934 C   0  0  0  0  0  0  0  0  0  0  0  0
   16.1756   -0.0164   35.9682 C   0  0  1  0  0  0  0  0  0  0  0  0
   16.4220    1.2434   36.7784 C   0  0  0  0  0  0  0  0  0  0  0  0
   15.7865    0.3856   34.5679 C   0  0  0  0  0  0  0  0  0  0  0  0
   18.2832   -0.9980   32.7564 O   0  0  0  0  0  0  0  0  0  0  0  0
  2  1  1  6
  2  3  1  0
  2  5  1  0
  3  4  2  0
  3  9  1  0
  5  6  1  0
  6  7  1  0
  7  8  1  0
  9 10  1  0
 10 11  1  0
 10 13  1  6
 11 12  2  0
 11 23  1  0
 13 14  1  0
 14 15  2  0
 14 16  1  0
 15 17  1  0
 16 18  2  0
 16 19  1  0
 17 18  1  0
 18 20  1  0
 19 21  2  0
 20 22  2  0
 21 22  1  0
 23 24  1  0
 24 25  1  0
 24 27  1  1
 25 26  2  0
 25 31  1  0
 27 28  1  0
 28 29  1  6
 28 30  1  0
 31 32  1  0
 32 33  1  0
 32 35  1  1
 33 34  2  0
 33 39  1  0
 35 36  1  0
 36 37  1  1
 36 38  1  0
 39 40  1  0
 40 41  1  0
 40 43  1  1
 41 42  2  0
 41 47  1  0
 43 44  1  0
 44 45  1  1
 44 46  1  0
 47 48  1  0
 48 49  1  0
 48 51  1  1
 49 50  2  0
 49 55  1  0
 51 52  1  0
 52 53  1  6
 52 54  1  0
 55 56  1  0
 56 57  1  0
 56 59  1  1
 57 58  2  0
 57 66  1  0
 59 60  1  0
 60 61  2  0
 60 62  1  0
 61 63  1  0
 62 64  2  0
 63 65  2  0
 64 65  1  0
 66 67  1  0
 67 68  1  0
 67 70  1  1
 68 69  1  0
 68 74  2  0
 70 71  1  0
 71 72  1  1
 71 73  1  0
M  CHG  2   1   1  69  -1
M  END
$$$$
