
     RDKit          3D

 74 76  0  0  0  0  0  0  0  0999 V2000
   27.4661   -2.1759   43.6908 N   0  0  0  0  0  4  0  0  0  0  0  0
   26.6571   -1.5216   44.6733 C   0  0  2  0  0  0  0  0  0  0  0  0
   25.3491   -1.0270   44.1740 C   0  0  0  0  0  0  0  0  0  0  0  0
   24.3274   -1.0557   44.9389 O   0  0  0  0  0  0  0  0  0  0  0  0
   27.4096   -0.3749   45.2911 C   0  0  0  0  0  0  0  0  0  0  0  0
   28.0941   -0.6669   46.5740 C   0  0  0  0  0  0  0  0  0  0  0  0
   28.0747    0.6432   47.7891 S   0  0  0  0  0  0  0  0  0  0  0  0
   26.8982    0.2648   49.0885 C   0  0  0  0  0  0  0  0  0  0  0  0
   25.1284   -0.5143   42.8892 N   0  0  0  0  0  0  0  0  0  0  0  0
   23.8723   -0.0269   42.4010 C   0  0  2  0  0  0  0  0  0  0  0  0
   22.9949   -1.1025   41.8857 C   0  0  0  0  0  0  0  0  0  0  0  0
   23.5000   -2.0085   41.1882 O   0  0  0  0  0  0  0  0  0  0  0  0
   24.0745    0.9814   41.3148 C   0  0  0  0  0  0  0  0  0  0  0  0
   23.7972    0.4765   39.9656 C   0  0  0  0  0  0  0  0  0  0  0  0
   24.6828   -0.2651   39.2010 C   0  0  0  0  0  0  0  0  0  0  0  0
   22.6433    0.6026   39.2292 C   0  0  0  0  0  0  0  0  0  0  0  0
   24.0678   -0.5622   38.0563 N   0  0  0  0  0  0  0  0  0  0  0  0
   22.8219   -0.0513   38.0348 C   0  0  0  0  0  0  0  0  0  0  0  0
   21.4438    1.2411   39.4681 C   0  0  0  0  0  0  0  0  0  0  0  0
   21.8454   -0.0916   37.0687 C   0  0  0  0  0  0  0  0  0  0  0  0
   20.4374    1.2126   38.4969 C   0  0  0  0  0  0  0  0  0  0  0  0
   20.6678    0.5440   37.3208 C   0  0  0  0  0  0  0  0  0  0  0  0
   21.6214   -1.1377   42.1555 N   0  0  0  0  0  0  0  0  0  0  0  0
   20.7214   -2.1797   41.8107 C   0  0  2  0  0  0  0  0  0  0  0  0
   20.4406   -2.3678   40.3783 C   0  0  0  0  0  0  0  0  0  0  0  0
   19.7835   -3.3476   40.0326 O   0  0  0  0  0  0  0  0  0  0  0  0
   19.5408   -2.1555   42.7103 C   0  0  0  0  0  0  0  0  0  0  0  0
   18.8067   -0.8692   42.8169 C   0  0  1  0  0  0  0  0  0  0  0  0
   17.5973   -0.9427   43.7280 C   0  0  0  0  0  0  0  0  0  0  0  0
   19.7398    0.1545   43.4685 C   0  0  0  0  0  0  0  0  0  0  0  0
   20.9306   -1.4250   39.4612 N   0  0  0  0  0  0  0  0  0  0  0  0
   20.7810   -1.4190   38.0542 C   0  0  2  0  0  0  0  0  0  0  0  0
   21.9166   -1.9286   37.2757 C   0  0  0  0  0  0  0  0  0  0  0  0
   21.9607   -1.8648   35.9989 O   0  0  0  0  0  0  0  0  0  0  0  0
   20.1180   -0.2020   37.4477 C   0  0  0  0  0  0  0  0  0  0  0  0
   18.6365   -0.2458   37.5183 C   0  0  1  0  0  0  0  0  0  0  0  0
   18.1916    1.1747   37.9373 C   0  0  0  0  0  0  0  0  0  0  0  0
   18.1912   -0.2658   36.0080 C   0  0  0  0  0  0  0  0  0  0  0  0
   23.0689   -2.5329   37.8986 N   0  0  0  0  0  0  0  0  0  0  0  0
   23.9516   -3.3871   37.1474 C   0  0  2  0  0  0  0  0  0  0  0  0
   23.8716   -4.7828   37.5626 C   0  0  0  0  0  0  0  0  0  0  0  0
   24.9122   -5.5125   37.4110 O   0  0  0  0  0  0  0  0  0  0  0  0
   25.3349   -2.7920   37.2195 C   0  0  0  0  0  0  0  0  0  0  0  0
   25.9423   -2.6886   38.5639 C   0  0  1  0  0  0  0  0  0  0  0  0
   26.3223   -1.3267   39.0342 C   0  0  0  0  0  0  0  0  0  0  0  0
   24.8682   -3.1925   39.5511 C   0  0  0  0  0  0  0  0  0  0  0  0
   22.7601   -5.4058   38.1133 N   0  0  0  0  0  0  0  0  0  0  0  0
   22.8883   -6.7031   38.8002 C   0  0  2  0  0  0  0  0  0  0  0  0
   21.6330   -7.4390   38.7248 C   0  0  0  0  0  0  0  0  0  0  0  0
   21.7405   -8.5912   38.1195 O   0  0  0  0  0  0  0  0  0  0  0  0
   23.4516   -6.4903   40.1567 C   0  0  0  0  0  0  0  0  0  0  0  0
   24.8333   -6.9975   40.3795 C   0  0  1  0  0  0  0  0  0  0  0  0
   25.6629   -6.5351   39.1706 C   0  0  0  0  0  0  0  0  0  0  0  0
   25.4573   -6.2161   41.5753 C   0  0  0  0  0  0  0  0  0  0  0  0
   20.3531   -7.1819   39.1584 N   0  0  0  0  0  0  0  0  0  0  0  0
   19.1405   -7.1857   38.3689 C   0  0  2  0  0  0  0  0  0  0  0  0
   19.4885   -7.2711   36.8966 C   0  0  0  0  0  0  0  0  0  0  0  0
   18.8251   -7.9578   36.0802 O   0  0  0  0  0  0  0  0  0  0  0  0
   18.1179   -6.1866   38.6663 C   0  0  0  0  0  0  0  0  0  0  0  0
   17.3174   -6.3413   39.8859 C   0  0  0  0  0  0  0  0  0  0  0  0
   17.9931   -6.2535   41.0942 C   0  0  0  0  0  0  0  0  0  0  0  0
   15.9552   -6.5698   39.8805 C   0  0  0  0  0  0  0  0  0  0  0  0
   17.3392   -6.3901   42.3051 C   0  0  0  0  0  0  0  0  0  0  0  0
   15.2861   -6.7077   41.0708 C   0  0  0  0  0  0  0  0  0  0  0  0
   15.9829   -6.6172   42.2923 C   0  0  0  0  0  0  0  0  0  0  0  0
   20.5962   -6.5640   36.3845 N   0  0  0  0  0  0  0  0  0  0  0  0
   20.4629   -5.9293   35.0873 C   0  0  2  0  0  0  0  0  0  0  0  0
   21.8229   -5.3908   34.6746 C   0  0  0  0  0  0  0  0  0  0  0  0
   22.0702   -4.9360   33.3958 O   0  0  0  0  0  1  0  0  0  0  0  0
   19.5064   -4.7783   35.2545 C   0  0  0  0  0  0  0  0  0  0  0  0
   19.9695   -3.4827   34.6665 C   0  0  1  0  0  0  0  0  0  0  0  0
   20.0995   -3.6560   33.1641 C   0  0  0  0  0  0  0  0  0  0  0  0
   18.9144   -2.4398   34.9368 C   0  0  0  0  0  0  0  0  0  0  0  0
   22.7450   -5.3598   35.5205 O   0  0  0  0  0  0  0  0  0  0  0  0
  2  1  1  6
  2  3  1  0
  2  5  1  0
  3  4  2  0
  3  9  1  0
  5  6  1  0
  6  7  1  0
  7  8  1  0
  9 10  1  0
 10 11  1  0
 10 13  1  6
 11 12  2  0
 11 23  1  0
 13 14  1  0
 14 15  2  0
 14 16  1  0
 15 17  1  0
 16 18  2  0
 16 19  1  0
 17 18  1  0
 18 20  1  0
 19 21  2  0
 20 22  2  0
 21 22  1  0
 23 24  1  0
 24 25  1  0
 24 27  1  1
 25 26  2  0
 25 31  1  0
 27 28  1  0
 28 29  1  1
 28 30  1  0
 31 32  1  0
 32 33  1  0
 32 35  1  6
 33 34  2  0
 33 39  1  0
 35 36  1  0
 36 37  1  6
 36 38  1  0
 39 40  1  0
 40 41  1  0
 40 43  1  1
 41 42  2  0
 41 47  1  0
 43 44  1  0
 44 45  1  1
 44 46  1  0
 47 48  1  0
 48 49  1  0
 48 51  1  1
 49 50  2  0
 49 55  1  0
 51 52  1  0
 52 53  1  6
 52 54  1  0
 55 56  1  0
 56 57  1  0
 56 59  1  6
 57 58  2  0
 57 66  1  0
 59 60  1  0
 60 61  2  0
 60 62  1  0
 61 63  1  0
 62 64  2  0
 63 65  2  0
 64 65  1  0
 66 67  1  0
 67 68  1  0
 67 70  1  1
 68 69  1  0
 68 74  2  0
 70 71  1  0
 71 72  1  6
 71 73  1  0
M  CHG  2   1   1  69  -1
M  END
$$$$
