
     RDKit          3D

 74 76  0  0  0  0  0  0  0  0999 V2000
   28.6868   -5.7164   46.6418 N   0  0  0  0  0  4  0  0  0  0  0  0
   28.0605   -4.6353   47.3396 C   0  0  2  0  0  0  0  0  0  0  0  0
   27.5165   -3.5634   46.4678 C   0  0  0  0  0  0  0  0  0  0  0  0
   26.3024   -3.1927   46.6027 O   0  0  0  0  0  0  0  0  0  0  0  0
   29.0185   -4.0242   48.3254 C   0  0  0  0  0  0  0  0  0  0  0  0
   28.4667   -2.9435   49.1784 C   0  0  0  0  0  0  0  0  0  0  0  0
   29.6080   -2.1953   50.3320 S   0  0  0  0  0  0  0  0  0  0  0  0
   28.7863   -0.9042   51.2664 C   0  0  0  0  0  0  0  0  0  0  0  0
   28.2443   -2.8996   45.4719 N   0  0  0  0  0  0  0  0  0  0  0  0
   27.9054   -1.6230   44.9160 C   0  0  2  0  0  0  0  0  0  0  0  0
   26.6557   -1.6506   44.1225 C   0  0  0  0  0  0  0  0  0  0  0  0
   26.2160   -2.7531   43.7308 O   0  0  0  0  0  0  0  0  0  0  0  0
   29.0080   -1.1073   44.0467 C   0  0  0  0  0  0  0  0  0  0  0  0
   28.6691    0.1119   43.3046 C   0  0  0  0  0  0  0  0  0  0  0  0
   28.0490    0.1377   42.0662 C   0  0  0  0  0  0  0  0  0  0  0  0
   28.8600    1.4199   43.6823 C   0  0  0  0  0  0  0  0  0  0  0  0
   27.8832    1.4172   41.7310 N   0  0  0  0  0  0  0  0  0  0  0  0
   28.3645    2.2304   42.6905 C   0  0  0  0  0  0  0  0  0  0  0  0
   29.4366    2.0002   44.7933 C   0  0  0  0  0  0  0  0  0  0  0  0
   28.4230    3.6013   42.7675 C   0  0  0  0  0  0  0  0  0  0  0  0
   29.5067    3.3940   44.8901 C   0  0  0  0  0  0  0  0  0  0  0  0
   28.9954    4.1574   43.8708 C   0  0  0  0  0  0  0  0  0  0  0  0
   25.9519   -0.4841   43.7991 N   0  0  0  0  0  0  0  0  0  0  0  0
   24.5745   -0.3955   43.4683 C   0  0  2  0  0  0  0  0  0  0  0  0
   24.2379    0.2671   42.1979 C   0  0  0  0  0  0  0  0  0  0  0  0
   24.2382    1.4957   42.1584 O   0  0  0  0  0  0  0  0  0  0  0  0
   23.7890    0.0284   44.6544 C   0  0  0  0  0  0  0  0  0  0  0  0
   23.0080   -1.0248   45.3514 C   0  0  1  0  0  0  0  0  0  0  0  0
   22.2314   -0.5045   46.5449 C   0  0  0  0  0  0  0  0  0  0  0  0
   21.9482   -1.5483   44.3789 C   0  0  0  0  0  0  0  0  0  0  0  0
   23.9302   -0.5246   41.0805 N   0  0  0  0  0  0  0  0  0  0  0  0
   23.5873   -0.0953   39.7766 C   0  0  2  0  0  0  0  0  0  0  0  0
   23.1067   -1.1316   38.8543 C   0  0  0  0  0  0  0  0  0  0  0  0
   23.0112   -0.9411   37.5931 O   0  0  0  0  0  0  0  0  0  0  0  0
   24.5055    0.9205   39.1335 C   0  0  0  0  0  0  0  0  0  0  0  0
   25.8916    0.8738   39.6609 C   0  0  1  0  0  0  0  0  0  0  0  0
   26.7731    0.3842   38.4884 C   0  0  0  0  0  0  0  0  0  0  0  0
   26.3125    2.3891   39.7395 C   0  0  0  0  0  0  0  0  0  0  0  0
   22.7138   -2.4439   39.3066 N   0  0  0  0  0  0  0  0  0  0  0  0
   21.4685   -3.0291   38.8824 C   0  0  2  0  0  0  0  0  0  0  0  0
   20.7349   -2.1780   37.9529 C   0  0  0  0  0  0  0  0  0  0  0  0
   20.6326   -0.9336   38.2347 O   0  0  0  0  0  0  0  0  0  0  0  0
   20.6980   -3.4119   40.1204 C   0  0  0  0  0  0  0  0  0  0  0  0
   19.9001   -4.6548   40.0461 C   0  0  1  0  0  0  0  0  0  0  0  0
   19.9575   -5.5695   41.2211 C   0  0  0  0  0  0  0  0  0  0  0  0
   18.4283   -4.2043   39.9324 C   0  0  0  0  0  0  0  0  0  0  0  0
   20.1274   -2.5927   36.7757 N   0  0  0  0  0  0  0  0  0  0  0  0
   19.7821   -1.6197   35.7243 C   0  0  2  0  0  0  0  0  0  0  0  0
   19.1708   -2.2998   34.5900 C   0  0  0  0  0  0  0  0  0  0  0  0
   19.8351   -2.1531   33.4753 O   0  0  0  0  0  0  0  0  0  0  0  0
   20.9630   -0.7702   35.4303 C   0  0  0  0  0  0  0  0  0  0  0  0
   20.7630    0.3021   34.4173 C   0  0  1  0  0  0  0  0  0  0  0  0
   19.7668    1.2976   35.0337 C   0  0  0  0  0  0  0  0  0  0  0  0
   22.0827    1.1239   34.3038 C   0  0  0  0  0  0  0  0  0  0  0  0
   18.0404   -3.0692   34.4397 N   0  0  0  0  0  0  0  0  0  0  0  0
   17.6026   -3.7645   33.2486 C   0  0  2  0  0  0  0  0  0  0  0  0
   16.8258   -2.8156   32.3585 C   0  0  0  0  0  0  0  0  0  0  0  0
   16.4900   -3.1074   31.1837 O   0  0  0  0  0  0  0  0  0  0  0  0
   16.9639   -5.0685   33.4036 C   0  0  0  0  0  0  0  0  0  0  0  0
   17.4779   -5.9859   34.4265 C   0  0  0  0  0  0  0  0  0  0  0  0
   16.8960   -5.9123   35.6836 C   0  0  0  0  0  0  0  0  0  0  0  0
   18.4942   -6.8927   34.1967 C   0  0  0  0  0  0  0  0  0  0  0  0
   17.3065   -6.7254   36.7241 C   0  0  0  0  0  0  0  0  0  0  0  0
   18.9166   -7.7101   35.2150 C   0  0  0  0  0  0  0  0  0  0  0  0
   18.3186   -7.6262   36.4882 C   0  0  0  0  0  0  0  0  0  0  0  0
   16.4460   -1.5432   32.8340 N   0  0  0  0  0  0  0  0  0  0  0  0
   15.6973   -0.6757   31.9451 C   0  0  2  0  0  0  0  0  0  0  0  0
   16.5994    0.4721   31.5227 C   0  0  0  0  0  0  0  0  0  0  0  0
   17.8526    0.6548   32.0701 O   0  0  0  0  0  1  0  0  0  0  0  0
   14.5382   -0.1276   32.7349 C   0  0  0  0  0  0  0  0  0  0  0  0
   13.3794   -1.0621   32.8857 C   0  0  1  0  0  0  0  0  0  0  0  0
   13.3977   -1.6269   34.2945 C   0  0  0  0  0  0  0  0  0  0  0  0
   12.1094   -0.2690   32.7062 C   0  0  0  0  0  0  0  0  0  0  0  0
   16.1924    1.2749   30.6528 O   0  0  0  0  0  0  0  0  0  0  0  0
  2  1  1  6
  2  3  1  0
  2  5  1  0
  3  4  2  0
  3  9  1  0
  5  6  1  0
  6  7  1  0
  7  8  1  0
  9 10  1  0
 10 11  1  0
 10 13  1  6
 11 12  2  0
 11 23  1  0
 13 14  1  0
 14 15  2  0
 14 16  1  0
 15 17  1  0
 16 18  2  0
 16 19  1  0
 17 18  1  0
 18 20  1  0
 19 21  2  0
 20 22  2  0
 21 22  1  0
 23 24  1  0
 24 25  1  0
 24 27  1  1
 25 26  2  0
 25 31  1  0
 27 28  1  0
 28 29  1  1
 28 30  1  0
 31 32  1  0
 32 33  1  0
 32 35  1  6
 33 34  2  0
 33 39  1  0
 35 36  1  0
 36 37  1  6
 36 38  1  0
 39 40  1  0
 40 41  1  0
 40 43  1  1
 41 42  2  0
 41 47  1  0
 43 44  1  0
 44 45  1  1
 44 46  1  0
 47 48  1  0
 48 49  1  0
 48 51  1  6
 49 50  2  0
 49 55  1  0
 51 52  1  0
 52 53  1  1
 52 54  1  0
 55 56  1  0
 56 57  1  0
 56 59  1  1
 57 58  2  0
 57 66  1  0
 59 60  1  0
 60 61  2  0
 60 62  1  0
 61 63  1  0
 62 64  2  0
 63 65  2  0
 64 65  1  0
 66 67  1  0
 67 68  1  0
 67 70  1  1
 68 69  1  0
 68 74  2  0
 70 71  1  0
 71 72  1  1
 71 73  1  0
M  CHG  2   1   1  69  -1
M  END
$$$$
