
     RDKit          3D

 74 76  0  0  0  0  0  0  0  0999 V2000
   26.0727   -7.9183   43.0893 N   0  0  0  0  0  4  0  0  0  0  0  0
   26.1858   -6.7740   42.2371 C   0  0  2  0  0  0  0  0  0  0  0  0
   25.1505   -6.6826   41.1766 C   0  0  0  0  0  0  0  0  0  0  0  0
   25.1777   -5.7126   40.3472 O   0  0  0  0  0  0  0  0  0  0  0  0
   27.5464   -6.7312   41.5968 C   0  0  0  0  0  0  0  0  0  0  0  0
   27.6909   -5.8059   40.4467 C   0  0  0  0  0  0  0  0  0  0  0  0
   29.3478   -5.5989   39.8103 S   0  0  0  0  0  0  0  0  0  0  0  0
   29.4531   -4.0983   38.8344 C   0  0  0  0  0  0  0  0  0  0  0  0
   24.1067   -7.5999   41.0004 N   0  0  0  0  0  0  0  0  0  0  0  0
   23.3426   -7.7579   39.7983 C   0  0  2  0  0  0  0  0  0  0  0  0
   22.0258   -7.0835   39.8566 C   0  0  0  0  0  0  0  0  0  0  0  0
   21.3331   -7.0254   38.8177 O   0  0  0  0  0  0  0  0  0  0  0  0
   23.1212   -9.2048   39.4904 C   0  0  0  0  0  0  0  0  0  0  0  0
   24.1303   -9.7924   38.6023 C   0  0  0  0  0  0  0  0  0  0  0  0
   25.4193   -9.3112   38.4417 C   0  0  0  0  0  0  0  0  0  0  0  0
   24.0193  -10.9084   37.8074 C   0  0  0  0  0  0  0  0  0  0  0  0
   26.0408  -10.1181   37.5819 N   0  0  0  0  0  0  0  0  0  0  0  0
   25.2209  -11.1049   37.1720 C   0  0  0  0  0  0  0  0  0  0  0  0
   22.9789  -11.7779   37.5520 C   0  0  0  0  0  0  0  0  0  0  0  0
   25.4226  -12.1395   36.2903 C   0  0  0  0  0  0  0  0  0  0  0  0
   23.1638  -12.8368   36.6569 C   0  0  0  0  0  0  0  0  0  0  0  0
   24.3852  -12.9880   36.0498 C   0  0  0  0  0  0  0  0  0  0  0  0
   21.5325   -6.5117   41.0356 N   0  0  0  0  0  0  0  0  0  0  0  0
   20.4441   -5.6070   41.1422 C   0  0  2  0  0  0  0  0  0  0  0  0
   20.7492   -4.1776   40.9694 C   0  0  0  0  0  0  0  0  0  0  0  0
   19.9489   -3.4767   40.3534 O   0  0  0  0  0  0  0  0  0  0  0  0
   19.5986   -5.9580   42.3107 C   0  0  0  0  0  0  0  0  0  0  0  0
   20.1890   -5.7358   43.6550 C   0  0  1  0  0  0  0  0  0  0  0  0
   19.2158   -5.9959   44.7879 C   0  0  0  0  0  0  0  0  0  0  0  0
   21.3152   -6.7541   43.8503 C   0  0  0  0  0  0  0  0  0  0  0  0
   21.9384   -3.6671   41.5128 N   0  0  0  0  0  0  0  0  0  0  0  0
   22.5620   -2.4280   41.2339 C   0  0  2  0  0  0  0  0  0  0  0  0
   23.3359   -2.3534   39.9885 C   0  0  0  0  0  0  0  0  0  0  0  0
   24.0459   -1.3356   39.6784 O   0  0  0  0  0  0  0  0  0  0  0  0
   23.2084   -1.7158   42.4016 C   0  0  0  0  0  0  0  0  0  0  0  0
   23.8412   -0.4277   42.0245 C   0  0  1  0  0  0  0  0  0  0  0  0
   24.2342    0.2550   43.3552 C   0  0  0  0  0  0  0  0  0  0  0  0
   25.2551   -0.8526   41.4769 C   0  0  0  0  0  0  0  0  0  0  0  0
   23.3553   -3.4291   39.0275 N   0  0  0  0  0  0  0  0  0  0  0  0
   23.3431   -3.1567   37.6138 C   0  0  2  0  0  0  0  0  0  0  0  0
   21.9935   -3.0142   37.0801 C   0  0  0  0  0  0  0  0  0  0  0  0
   21.8686   -2.6740   35.8524 O   0  0  0  0  0  0  0  0  0  0  0  0
   24.1742   -4.2167   36.9366 C   0  0  0  0  0  0  0  0  0  0  0  0
   24.1644   -4.2218   35.4578 C   0  0  1  0  0  0  0  0  0  0  0  0
   25.2873   -4.9231   34.7739 C   0  0  0  0  0  0  0  0  0  0  0  0
   22.8821   -4.9767   35.0479 C   0  0  0  0  0  0  0  0  0  0  0  0
   20.8142   -3.2138   37.7846 N   0  0  0  0  0  0  0  0  0  0  0  0
   19.5212   -2.7841   37.2239 C   0  0  2  0  0  0  0  0  0  0  0  0
   19.2772   -1.3823   37.5375 C   0  0  0  0  0  0  0  0  0  0  0  0
   18.2125   -0.8967   36.9579 O   0  0  0  0  0  0  0  0  0  0  0  0
   18.4648   -3.7466   37.6242 C   0  0  0  0  0  0  0  0  0  0  0  0
   17.0600   -3.3103   37.3958 C   0  0  1  0  0  0  0  0  0  0  0  0
   16.8134   -3.4240   35.8827 C   0  0  0  0  0  0  0  0  0  0  0  0
   16.1066   -4.3820   38.0062 C   0  0  0  0  0  0  0  0  0  0  0  0
   19.9282   -0.4560   38.3188 N   0  0  0  0  0  0  0  0  0  0  0  0
   19.5257    0.9085   38.5837 C   0  0  2  0  0  0  0  0  0  0  0  0
   20.1592    1.8357   37.5664 C   0  0  0  0  0  0  0  0  0  0  0  0
   20.1920    3.0831   37.7116 O   0  0  0  0  0  0  0  0  0  0  0  0
   19.6160    1.4029   39.9548 C   0  0  0  0  0  0  0  0  0  0  0  0
   18.5752    1.0135   40.9125 C   0  0  0  0  0  0  0  0  0  0  0  0
   17.3034    0.7975   40.4025 C   0  0  0  0  0  0  0  0  0  0  0  0
   18.8026    0.8618   42.2665 C   0  0  0  0  0  0  0  0  0  0  0  0
   16.2458    0.4329   41.2154 C   0  0  0  0  0  0  0  0  0  0  0  0
   17.7674    0.4996   43.0915 C   0  0  0  0  0  0  0  0  0  0  0  0
   16.4793    0.2834   42.5624 C   0  0  0  0  0  0  0  0  0  0  0  0
   20.7469    1.3132   36.3955 N   0  0  0  0  0  0  0  0  0  0  0  0
   22.0848    1.7514   36.0470 C   0  0  2  0  0  0  0  0  0  0  0  0
   22.5155    1.0208   34.7858 C   0  0  0  0  0  0  0  0  0  0  0  0
   23.4221   -0.0187   34.8181 O   0  0  0  0  0  1  0  0  0  0  0  0
   22.9904    1.3526   37.1820 C   0  0  0  0  0  0  0  0  0  0  0  0
   23.1393    2.3787   38.2607 C   0  0  1  0  0  0  0  0  0  0  0  0
   22.4788    1.8503   39.5212 C   0  0  0  0  0  0  0  0  0  0  0  0
   24.6107    2.5631   38.5345 C   0  0  0  0  0  0  0  0  0  0  0  0
   22.0332    1.3736   33.6859 O   0  0  0  0  0  0  0  0  0  0  0  0
  2  1  1  6
  2  3  1  0
  2  5  1  0
  3  4  2  0
  3  9  1  0
  5  6  1  0
  6  7  1  0
  7  8  1  0
  9 10  1  0
 10 11  1  0
 10 13  1  1
 11 12  2  0
 11 23  1  0
 13 14  1  0
 14 15  2  0
 14 16  1  0
 15 17  1  0
 16 18  2  0
 16 19  1  0
 17 18  1  0
 18 20  1  0
 19 21  2  0
 20 22  2  0
 21 22  1  0
 23 24  1  0
 24 25  1  0
 24 27  1  1
 25 26  2  0
 25 31  1  0
 27 28  1  0
 28 29  1  1
 28 30  1  0
 31 32  1  0
 32 33  1  0
 32 35  1  1
 33 34  2  0
 33 39  1  0
 35 36  1  0
 36 37  1  1
 36 38  1  0
 39 40  1  0
 40 41  1  0
 40 43  1  6
 41 42  2  0
 41 47  1  0
 43 44  1  0
 44 45  1  6
 44 46  1  0
 47 48  1  0
 48 49  1  0
 48 51  1  1
 49 50  2  0
 49 55  1  0
 51 52  1  0
 52 53  1  6
 52 54  1  0
 55 56  1  0
 56 57  1  0
 56 59  1  1
 57 58  2  0
 57 66  1  0
 59 60  1  0
 60 61  2  0
 60 62  1  0
 61 63  1  0
 62 64  2  0
 63 65  2  0
 64 65  1  0
 66 67  1  0
 67 68  1  0
 67 70  1  1
 68 69  1  0
 68 74  2  0
 70 71  1  0
 71 72  1  1
 71 73  1  0
M  CHG  2   1   1  69  -1
M  END
$$$$
