
     RDKit          3D

 74 76  0  0  0  0  0  0  0  0999 V2000
   15.9608    1.3321   33.4324 N   0  0  0  0  0  4  0  0  0  0  0  0
   16.9703    0.3225   33.5317 C   0  0  2  0  0  0  0  0  0  0  0  0
   17.4101    0.0158   34.9163 C   0  0  0  0  0  0  0  0  0  0  0  0
   17.3378    0.9167   35.8179 O   0  0  0  0  0  0  0  0  0  0  0  0
   18.1719    0.7018   32.7100 C   0  0  0  0  0  0  0  0  0  0  0  0
   19.3453   -0.1979   32.8270 C   0  0  0  0  0  0  0  0  0  0  0  0
   20.7307    0.1781   31.7627 S   0  0  0  0  0  0  0  0  0  0  0  0
   21.9205   -1.1630   31.7986 C   0  0  0  0  0  0  0  0  0  0  0  0
   17.9180   -1.2204   35.3361 N   0  0  0  0  0  0  0  0  0  0  0  0
   17.7575   -1.7748   36.6478 C   0  0  2  0  0  0  0  0  0  0  0  0
   18.9348   -1.5533   37.5178 C   0  0  0  0  0  0  0  0  0  0  0  0
   18.9211   -2.0174   38.6784 O   0  0  0  0  0  0  0  0  0  0  0  0
   17.4883   -3.2445   36.5790 C   0  0  0  0  0  0  0  0  0  0  0  0
   17.5265   -3.9248   37.8782 C   0  0  0  0  0  0  0  0  0  0  0  0
   16.6219   -3.7173   38.9067 C   0  0  0  0  0  0  0  0  0  0  0  0
   18.4082   -4.8866   38.3107 C   0  0  0  0  0  0  0  0  0  0  0  0
   16.9634   -4.5300   39.9066 N   0  0  0  0  0  0  0  0  0  0  0  0
   18.0477   -5.2599   39.5822 C   0  0  0  0  0  0  0  0  0  0  0  0
   19.5137   -5.4740   37.7304 C   0  0  0  0  0  0  0  0  0  0  0  0
   18.7509   -6.1999   40.2967 C   0  0  0  0  0  0  0  0  0  0  0  0
   20.2434   -6.4323   38.4417 C   0  0  0  0  0  0  0  0  0  0  0  0
   19.8392   -6.7694   39.7090 C   0  0  0  0  0  0  0  0  0  0  0  0
   20.0606   -0.8437   37.0825 N   0  0  0  0  0  0  0  0  0  0  0  0
   21.3227   -0.7865   37.7294 C   0  0  2  0  0  0  0  0  0  0  0  0
   21.3569   -0.1697   39.0653 C   0  0  0  0  0  0  0  0  0  0  0  0
   20.9852    0.9960   39.1834 O   0  0  0  0  0  0  0  0  0  0  0  0
   22.3675   -0.3372   36.7754 C   0  0  0  0  0  0  0  0  0  0  0  0
   23.7570   -0.2572   37.2932 C   0  0  1  0  0  0  0  0  0  0  0  0
   24.6015    0.7842   36.5858 C   0  0  0  0  0  0  0  0  0  0  0  0
   23.6915    0.2012   38.7522 C   0  0  0  0  0  0  0  0  0  0  0  0
   21.8103   -0.9320   40.1532 N   0  0  0  0  0  0  0  0  0  0  0  0
   21.7229   -0.6218   41.5309 C   0  0  2  0  0  0  0  0  0  0  0  0
   22.4951   -1.4758   42.4418 C   0  0  0  0  0  0  0  0  0  0  0  0
   22.3943   -1.3943   43.7143 O   0  0  0  0  0  0  0  0  0  0  0  0
   20.3553   -0.2438   42.0557 C   0  0  0  0  0  0  0  0  0  0  0  0
   20.2793   -0.2321   43.5376 C   0  0  1  0  0  0  0  0  0  0  0  0
   20.9756    1.0739   43.9857 C   0  0  0  0  0  0  0  0  0  0  0  0
   18.7720    0.1160   43.8314 C   0  0  0  0  0  0  0  0  0  0  0  0
   23.4197   -2.4747   41.9637 N   0  0  0  0  0  0  0  0  0  0  0  0
   23.2057   -3.8714   42.2396 C   0  0  2  0  0  0  0  0  0  0  0  0
   24.2400   -4.7233   41.6641 C   0  0  0  0  0  0  0  0  0  0  0  0
   23.8816   -5.8483   41.1697 O   0  0  0  0  0  0  0  0  0  0  0  0
   21.8024   -4.2133   41.8072 C   0  0  0  0  0  0  0  0  0  0  0  0
   20.8791   -4.6808   42.8635 C   0  0  1  0  0  0  0  0  0  0  0  0
   20.8912   -6.1369   43.1798 C   0  0  0  0  0  0  0  0  0  0  0  0
   21.3209   -3.9635   44.1567 C   0  0  0  0  0  0  0  0  0  0  0  0
   25.5949   -4.4286   41.6002 N   0  0  0  0  0  0  0  0  0  0  0  0
   26.1497   -3.6849   40.4556 C   0  0  2  0  0  0  0  0  0  0  0  0
   26.9046   -2.5299   40.9236 C   0  0  0  0  0  0  0  0  0  0  0  0
   26.4939   -1.3990   40.4159 O   0  0  0  0  0  0  0  0  0  0  0  0
   25.0720   -3.4179   39.4708 C   0  0  0  0  0  0  0  0  0  0  0  0
   24.5542   -4.6003   38.7292 C   0  0  1  0  0  0  0  0  0  0  0  0
   23.1909   -4.9384   39.3541 C   0  0  0  0  0  0  0  0  0  0  0  0
   24.1945   -4.1531   37.2798 C   0  0  0  0  0  0  0  0  0  0  0  0
   27.9601   -2.3725   41.7915 N   0  0  0  0  0  0  0  0  0  0  0  0
   28.7315   -1.1714   42.0283 C   0  0  2  0  0  0  0  0  0  0  0  0
   27.9987   -0.2774   43.0080 C   0  0  0  0  0  0  0  0  0  0  0  0
   28.5773    0.6129   43.6794 O   0  0  0  0  0  0  0  0  0  0  0  0
   29.2654   -0.4529   40.8745 C   0  0  0  0  0  0  0  0  0  0  0  0
   29.2669    1.0139   40.8988 C   0  0  0  0  0  0  0  0  0  0  0  0
   29.5591    1.6202   42.1116 C   0  0  0  0  0  0  0  0  0  0  0  0
   28.9915    1.7954   39.7936 C   0  0  0  0  0  0  0  0  0  0  0  0
   29.5824    2.9960   42.2503 C   0  0  0  0  0  0  0  0  0  0  0  0
   29.0099    3.1628   39.9086 C   0  0  0  0  0  0  0  0  0  0  0  0
   29.3076    3.7680   41.1459 C   0  0  0  0  0  0  0  0  0  0  0  0
   26.6089   -0.4208   43.2007 N   0  0  0  0  0  0  0  0  0  0  0  0
   26.0891   -0.3021   44.5494 C   0  0  2  0  0  0  0  0  0  0  0  0
   24.6103   -0.6523   44.5261 C   0  0  0  0  0  0  0  0  0  0  0  0
   24.1706   -1.9587   44.4684 O   0  0  0  0  0  1  0  0  0  0  0  0
   26.2488    1.1379   44.9598 C   0  0  0  0  0  0  0  0  0  0  0  0
   26.4227    1.3595   46.4293 C   0  0  1  0  0  0  0  0  0  0  0  0
   26.0701    2.8023   46.7427 C   0  0  0  0  0  0  0  0  0  0  0  0
   25.4538    0.4627   47.1579 C   0  0  0  0  0  0  0  0  0  0  0  0
   23.7675    0.2725   44.5599 O   0  0  0  0  0  0  0  0  0  0  0  0
  2  1  1  1
  2  3  1  0
  2  5  1  0
  3  4  2  0
  3  9  1  0
  5  6  1  0
  6  7  1  0
  7  8  1  0
  9 10  1  0
 10 11  1  0
 10 13  1  6
 11 12  2  0
 11 23  1  0
 13 14  1  0
 14 15  2  0
 14 16  1  0
 15 17  1  0
 16 18  2  0
 16 19  1  0
 17 18  1  0
 18 20  1  0
 19 21  2  0
 20 22  2  0
 21 22  1  0
 23 24  1  0
 24 25  1  0
 24 27  1  6
 25 26  2  0
 25 31  1  0
 27 28  1  0
 28 29  1  6
 28 30  1  0
 31 32  1  0
 32 33  1  0
 32 35  1  1
 33 34  2  0
 33 39  1  0
 35 36  1  0
 36 37  1  1
 36 38  1  0
 39 40  1  0
 40 41  1  0
 40 43  1  6
 41 42  2  0
 41 47  1  0
 43 44  1  0
 44 45  1  1
 44 46  1  0
 47 48  1  0
 48 49  1  0
 48 51  1  6
 49 50  2  0
 49 55  1  0
 51 52  1  0
 52 53  1  1
 52 54  1  0
 55 56  1  0
 56 57  1  0
 56 59  1  6
 57 58  2  0
 57 66  1  0
 59 60  1  0
 60 61  2  0
 60 62  1  0
 61 63  1  0
 62 64  2  0
 63 65  2  0
 64 65  1  0
 66 67  1  0
 67 68  1  0
 67 70  1  6
 68 69  1  0
 68 74  2  0
 70 71  1  0
 71 72  1  6
 71 73  1  0
M  CHG  2   1   1  69  -1
M  END
$$$$
