
     RDKit          3D

 74 76  0  0  0  0  0  0  0  0999 V2000
   24.9052  -10.9419   43.9552 N   0  0  0  0  0  4  0  0  0  0  0  0
   24.6647   -9.5347   44.0561 C   0  0  2  0  0  0  0  0  0  0  0  0
   23.9868   -8.9329   42.8800 C   0  0  0  0  0  0  0  0  0  0  0  0
   24.2785   -9.3381   41.7051 O   0  0  0  0  0  0  0  0  0  0  0  0
   25.9536   -8.8004   44.3058 C   0  0  0  0  0  0  0  0  0  0  0  0
   26.0995   -7.4966   43.6140 C   0  0  0  0  0  0  0  0  0  0  0  0
   27.5952   -6.5847   43.9669 S   0  0  0  0  0  0  0  0  0  0  0  0
   27.5419   -5.9303   45.6355 C   0  0  0  0  0  0  0  0  0  0  0  0
   23.0208   -7.9209   42.9481 N   0  0  0  0  0  0  0  0  0  0  0  0
   22.1467   -7.5425   41.8774 C   0  0  2  0  0  0  0  0  0  0  0  0
   22.8619   -6.9275   40.7361 C   0  0  0  0  0  0  0  0  0  0  0  0
   24.1117   -6.9490   40.7273 O   0  0  0  0  0  0  0  0  0  0  0  0
   21.1003   -6.5852   42.3528 C   0  0  0  0  0  0  0  0  0  0  0  0
   19.8580   -7.2247   42.7998 C   0  0  0  0  0  0  0  0  0  0  0  0
   19.7341   -8.5623   43.1378 C   0  0  0  0  0  0  0  0  0  0  0  0
   18.6258   -6.6479   42.9963 C   0  0  0  0  0  0  0  0  0  0  0  0
   18.4722   -8.7610   43.5187 N   0  0  0  0  0  0  0  0  0  0  0  0
   17.7640   -7.6177   43.4468 C   0  0  0  0  0  0  0  0  0  0  0  0
   18.1507   -5.3657   42.8121 C   0  0  0  0  0  0  0  0  0  0  0  0
   16.4435   -7.3541   43.7211 C   0  0  0  0  0  0  0  0  0  0  0  0
   16.8093   -5.0773   43.0847 C   0  0  0  0  0  0  0  0  0  0  0  0
   15.9913   -6.0835   43.5336 C   0  0  0  0  0  0  0  0  0  0  0  0
   22.1846   -6.3256   39.6687 N   0  0  0  0  0  0  0  0  0  0  0  0
   22.6965   -6.1042   38.3635 C   0  0  2  0  0  0  0  0  0  0  0  0
   21.7753   -5.5116   37.3805 C   0  0  0  0  0  0  0  0  0  0  0  0
   22.2256   -4.7152   36.5595 O   0  0  0  0  0  0  0  0  0  0  0  0
   23.4654   -7.2890   37.9068 C   0  0  0  0  0  0  0  0  0  0  0  0
   24.8213   -7.0359   37.3568 C   0  0  1  0  0  0  0  0  0  0  0  0
   25.0896   -7.7732   36.0598 C   0  0  0  0  0  0  0  0  0  0  0  0
   24.9172   -5.5498   37.0022 C   0  0  0  0  0  0  0  0  0  0  0  0
   20.4203   -5.8762   37.4147 N   0  0  0  0  0  0  0  0  0  0  0  0
   19.3011   -5.1076   37.0160 C   0  0  2  0  0  0  0  0  0  0  0  0
   19.1401   -3.8029   37.6696 C   0  0  0  0  0  0  0  0  0  0  0  0
   18.5857   -2.8060   37.0908 O   0  0  0  0  0  0  0  0  0  0  0  0
   18.0024   -5.8559   36.8115 C   0  0  0  0  0  0  0  0  0  0  0  0
   18.1353   -7.0225   35.9042 C   0  0  1  0  0  0  0  0  0  0  0  0
   16.8005   -7.7958   36.0126 C   0  0  0  0  0  0  0  0  0  0  0  0
   18.0016   -6.3944   34.4664 C   0  0  0  0  0  0  0  0  0  0  0  0
   19.5912   -3.5550   39.0173 N   0  0  0  0  0  0  0  0  0  0  0  0
   19.7664   -2.2106   39.5019 C   0  0  2  0  0  0  0  0  0  0  0  0
   21.0860   -1.6702   39.1964 C   0  0  0  0  0  0  0  0  0  0  0  0
   22.0770   -2.4803   39.1888 O   0  0  0  0  0  0  0  0  0  0  0  0
   19.4119   -2.2028   40.9672 C   0  0  0  0  0  0  0  0  0  0  0  0
   19.5645   -0.9154   41.6788 C   0  0  1  0  0  0  0  0  0  0  0  0
   18.7899    0.2452   41.1560 C   0  0  0  0  0  0  0  0  0  0  0  0
   19.0432   -1.1614   43.1105 C   0  0  0  0  0  0  0  0  0  0  0  0
   21.3757   -0.3432   38.9098 N   0  0  0  0  0  0  0  0  0  0  0  0
   22.7476    0.0695   38.5653 C   0  0  2  0  0  0  0  0  0  0  0  0
   23.4781    0.4443   39.7690 C   0  0  0  0  0  0  0  0  0  0  0  0
   24.7279    0.7499   39.5457 O   0  0  0  0  0  0  0  0  0  0  0  0
   22.7016    1.0775   37.4769 C   0  0  0  0  0  0  0  0  0  0  0  0
   22.3939    0.5588   36.1159 C   0  0  1  0  0  0  0  0  0  0  0  0
   22.6911    1.7078   35.1388 C   0  0  0  0  0  0  0  0  0  0  0  0
   23.4565   -0.5211   35.7491 C   0  0  0  0  0  0  0  0  0  0  0  0
   23.1326    0.5490   41.0964 N   0  0  0  0  0  0  0  0  0  0  0  0
   23.9846    0.9427   42.1978 C   0  0  2  0  0  0  0  0  0  0  0  0
   25.1113    1.8171   41.6861 C   0  0  0  0  0  0  0  0  0  0  0  0
   26.0297    2.2457   42.4284 O   0  0  0  0  0  0  0  0  0  0  0  0
   24.4285   -0.0880   43.1321 C   0  0  0  0  0  0  0  0  0  0  0  0
   25.3047    0.3001   44.2428 C   0  0  0  0  0  0  0  0  0  0  0  0
   26.6699    0.1546   44.0443 C   0  0  0  0  0  0  0  0  0  0  0  0
   24.8382    0.7870   45.4483 C   0  0  0  0  0  0  0  0  0  0  0  0
   27.5870    0.4839   45.0256 C   0  0  0  0  0  0  0  0  0  0  0  0
   25.7309    1.1209   46.4358 C   0  0  0  0  0  0  0  0  0  0  0  0
   27.1155    0.9684   46.2233 C   0  0  0  0  0  0  0  0  0  0  0  0
   25.1650    2.1859   40.3258 N   0  0  0  0  0  0  0  0  0  0  0  0
   26.0402    3.2785   39.9468 C   0  0  2  0  0  0  0  0  0  0  0  0
   25.5604    3.8387   38.6181 C   0  0  0  0  0  0  0  0  0  0  0  0
   25.6784    5.1773   38.3052 O   0  0  0  0  0  1  0  0  0  0  0  0
   27.4189    2.6994   39.7693 C   0  0  0  0  0  0  0  0  0  0  0  0
   28.1842    2.4918   41.0382 C   0  0  1  0  0  0  0  0  0  0  0  0
   29.4765    1.7676   40.7070 C   0  0  0  0  0  0  0  0  0  0  0  0
   28.5282    3.8455   41.6066 C   0  0  0  0  0  0  0  0  0  0  0  0
   25.0428    3.0621   37.7839 O   0  0  0  0  0  0  0  0  0  0  0  0
  2  1  1  6
  2  3  1  0
  2  5  1  0
  3  4  2  0
  3  9  1  0
  5  6  1  0
  6  7  1  0
  7  8  1  0
  9 10  1  0
 10 11  1  0
 10 13  1  1
 11 12  2  0
 11 23  1  0
 13 14  1  0
 14 15  2  0
 14 16  1  0
 15 17  1  0
 16 18  2  0
 16 19  1  0
 17 18  1  0
 18 20  1  0
 19 21  2  0
 20 22  2  0
 21 22  1  0
 23 24  1  0
 24 25  1  0
 24 27  1  6
 25 26  2  0
 25 31  1  0
 27 28  1  0
 28 29  1  6
 28 30  1  0
 31 32  1  0
 32 33  1  0
 32 35  1  1
 33 34  2  0
 33 39  1  0
 35 36  1  0
 36 37  1  1
 36 38  1  0
 39 40  1  0
 40 41  1  0
 40 43  1  1
 41 42  2  0
 41 47  1  0
 43 44  1  0
 44 45  1  6
 44 46  1  0
 47 48  1  0
 48 49  1  0
 48 51  1  6
 49 50  2  0
 49 55  1  0
 51 52  1  0
 52 53  1  6
 52 54  1  0
 55 56  1  0
 56 57  1  0
 56 59  1  6
 57 58  2  0
 57 66  1  0
 59 60  1  0
 60 61  2  0
 60 62  1  0
 61 63  1  0
 62 64  2  0
 63 65  2  0
 64 65  1  0
 66 67  1  0
 67 68  1  0
 67 70  1  6
 68 69  1  0
 68 74  2  0
 70 71  1  0
 71 72  1  6
 71 73  1  0
M  CHG  2   1   1  69  -1
M  END
$$$$
