
     RDKit          3D

 74 76  0  0  0  0  0  0  0  0999 V2000
   28.3195   -6.8069   43.4152 N   0  0  0  0  0  4  0  0  0  0  0  0
   27.9138   -5.6961   42.6091 C   0  0  2  0  0  0  0  0  0  0  0  0
   26.5946   -5.1160   42.9668 C   0  0  0  0  0  0  0  0  0  0  0  0
   25.8049   -5.7634   43.7330 O   0  0  0  0  0  0  0  0  0  0  0  0
   27.8996   -6.0825   41.1553 C   0  0  0  0  0  0  0  0  0  0  0  0
   29.2107   -6.4608   40.5740 C   0  0  0  0  0  0  0  0  0  0  0  0
   29.1858   -7.0070   38.8728 S   0  0  0  0  0  0  0  0  0  0  0  0
   28.9697   -5.6052   37.7757 C   0  0  0  0  0  0  0  0  0  0  0  0
   26.1216   -3.8756   42.5199 N   0  0  0  0  0  0  0  0  0  0  0  0
   24.8424   -3.3162   42.8433 C   0  0  2  0  0  0  0  0  0  0  0  0
   23.7281   -3.9571   42.1085 C   0  0  0  0  0  0  0  0  0  0  0  0
   23.9480   -4.4246   40.9703 O   0  0  0  0  0  0  0  0  0  0  0  0
   24.8133   -1.8474   42.5621 C   0  0  0  0  0  0  0  0  0  0  0  0
   25.7611   -1.0628   43.3610 C   0  0  0  0  0  0  0  0  0  0  0  0
   26.8312   -0.3506   42.8447 C   0  0  0  0  0  0  0  0  0  0  0  0
   25.7636   -0.8569   44.7201 C   0  0  0  0  0  0  0  0  0  0  0  0
   27.4389    0.2510   43.8672 N   0  0  0  0  0  0  0  0  0  0  0  0
   26.8179   -0.0326   45.0282 C   0  0  0  0  0  0  0  0  0  0  0  0
   24.9579   -1.3200   45.7400 C   0  0  0  0  0  0  0  0  0  0  0  0
   27.0978    0.3475   46.3188 C   0  0  0  0  0  0  0  0  0  0  0  0
   25.2267   -0.9454   47.0607 C   0  0  0  0  0  0  0  0  0  0  0  0
   26.2927   -0.1188   47.3130 C   0  0  0  0  0  0  0  0  0  0  0  0
   22.4396   -4.0572   42.6474 N   0  0  0  0  0  0  0  0  0  0  0  0
   21.3155   -4.6703   42.0351 C   0  0  2  0  0  0  0  0  0  0  0  0
   20.3234   -3.7741   41.4195 C   0  0  0  0  0  0  0  0  0  0  0  0
   19.2297   -4.2378   41.1034 O   0  0  0  0  0  0  0  0  0  0  0  0
   20.7749   -5.7400   42.9110 C   0  0  0  0  0  0  0  0  0  0  0  0
   19.5683   -6.4566   42.4257 C   0  0  1  0  0  0  0  0  0  0  0  0
   19.8859   -7.7747   41.7475 C   0  0  0  0  0  0  0  0  0  0  0  0
   18.7166   -6.8253   43.6430 C   0  0  0  0  0  0  0  0  0  0  0  0
   20.6600   -2.4266   41.2167 N   0  0  0  0  0  0  0  0  0  0  0  0
   19.8014   -1.3574   40.8676 C   0  0  2  0  0  0  0  0  0  0  0  0
   20.4511   -0.1182   40.4228 C   0  0  0  0  0  0  0  0  0  0  0  0
   19.7993    0.8562   39.9112 O   0  0  0  0  0  0  0  0  0  0  0  0
   18.5991   -1.1344   41.7582 C   0  0  0  0  0  0  0  0  0  0  0  0
   17.3063   -1.2896   41.0465 C   0  0  1  0  0  0  0  0  0  0  0  0
   16.2494   -0.5920   41.9340 C   0  0  0  0  0  0  0  0  0  0  0  0
   17.4134   -0.2702   39.8511 C   0  0  0  0  0  0  0  0  0  0  0  0
   21.8738    0.0906   40.5384 N   0  0  0  0  0  0  0  0  0  0  0  0
   22.5809    0.9037   39.5834 C   0  0  2  0  0  0  0  0  0  0  0  0
   23.1110    0.1284   38.4678 C   0  0  0  0  0  0  0  0  0  0  0  0
   22.5533    0.2679   37.3241 O   0  0  0  0  0  0  0  0  0  0  0  0
   23.6148    1.7005   40.3379 C   0  0  0  0  0  0  0  0  0  0  0  0
   23.4122    1.8355   41.7966 C   0  0  1  0  0  0  0  0  0  0  0  0
   24.6032    1.6331   42.6689 C   0  0  0  0  0  0  0  0  0  0  0  0
   22.9628    3.2940   42.0261 C   0  0  0  0  0  0  0  0  0  0  0  0
   24.1764   -0.7594   38.5270 N   0  0  0  0  0  0  0  0  0  0  0  0
   24.4493   -1.6822   37.4112 C   0  0  2  0  0  0  0  0  0  0  0  0
   23.2404   -1.8944   36.6260 C   0  0  0  0  0  0  0  0  0  0  0  0
   23.4768   -2.2084   35.3807 O   0  0  0  0  0  0  0  0  0  0  0  0
   25.1251   -2.8977   37.9294 C   0  0  0  0  0  0  0  0  0  0  0  0
   26.5928   -2.9818   37.6950 C   0  0  1  0  0  0  0  0  0  0  0  0
   27.1117   -1.5347   37.6846 C   0  0  0  0  0  0  0  0  0  0  0  0
   27.2582   -3.6029   38.9605 C   0  0  0  0  0  0  0  0  0  0  0  0
   21.8968   -1.8378   36.9158 N   0  0  0  0  0  0  0  0  0  0  0  0
   20.8019   -2.3275   36.1063 C   0  0  2  0  0  0  0  0  0  0  0  0
   20.2049   -1.1861   35.3084 C   0  0  0  0  0  0  0  0  0  0  0  0
   19.3228   -0.4211   35.7721 O   0  0  0  0  0  0  0  0  0  0  0  0
   19.7992   -3.1789   36.7405 C   0  0  0  0  0  0  0  0  0  0  0  0
   20.0726   -4.6149   36.8636 C   0  0  0  0  0  0  0  0  0  0  0  0
   19.0195   -5.4782   36.5995 C   0  0  0  0  0  0  0  0  0  0  0  0
   21.3021   -5.1291   37.2271 C   0  0  0  0  0  0  0  0  0  0  0  0
   19.1632   -6.8506   36.6908 C   0  0  0  0  0  0  0  0  0  0  0  0
   21.4671   -6.4881   37.3230 C   0  0  0  0  0  0  0  0  0  0  0  0
   20.3900   -7.3556   37.0529 C   0  0  0  0  0  0  0  0  0  0  0  0
   20.6324   -0.9410   33.9869 N   0  0  0  0  0  0  0  0  0  0  0  0
   19.7530   -0.1907   33.1110 C   0  0  2  0  0  0  0  0  0  0  0  0
   18.3217   -0.6233   33.3832 C   0  0  0  0  0  0  0  0  0  0  0  0
   17.3039    0.2913   33.5598 O   0  0  0  0  0  1  0  0  0  0  0  0
   20.1190   -0.5574   31.6971 C   0  0  0  0  0  0  0  0  0  0  0  0
   21.5465   -0.3019   31.3285 C   0  0  1  0  0  0  0  0  0  0  0  0
   21.6286   -0.1161   29.8242 C   0  0  0  0  0  0  0  0  0  0  0  0
   21.9811    0.9807   31.9920 C   0  0  0  0  0  0  0  0  0  0  0  0
   18.0597   -1.8455   33.4491 O   0  0  0  0  0  0  0  0  0  0  0  0
  2  1  1  1
  2  3  1  0
  2  5  1  0
  3  4  2  0
  3  9  1  0
  5  6  1  0
  6  7  1  0
  7  8  1  0
  9 10  1  0
 10 11  1  0
 10 13  1  6
 11 12  2  0
 11 23  1  0
 13 14  1  0
 14 15  2  0
 14 16  1  0
 15 17  1  0
 16 18  2  0
 16 19  1  0
 17 18  1  0
 18 20  1  0
 19 21  2  0
 20 22  2  0
 21 22  1  0
 23 24  1  0
 24 25  1  0
 24 27  1  1
 25 26  2  0
 25 31  1  0
 27 28  1  0
 28 29  1  1
 28 30  1  0
 31 32  1  0
 32 33  1  0
 32 35  1  1
 33 34  2  0
 33 39  1  0
 35 36  1  0
 36 37  1  1
 36 38  1  0
 39 40  1  0
 40 41  1  0
 40 43  1  1
 41 42  2  0
 41 47  1  0
 43 44  1  0
 44 45  1  1
 44 46  1  0
 47 48  1  0
 48 49  1  0
 48 51  1  1
 49 50  2  0
 49 55  1  0
 51 52  1  0
 52 53  1  1
 52 54  1  0
 55 56  1  0
 56 57  1  0
 56 59  1  1
 57 58  2  0
 57 66  1  0
 59 60  1  0
 60 61  2  0
 60 62  1  0
 61 63  1  0
 62 64  2  0
 63 65  2  0
 64 65  1  0
 66 67  1  0
 67 68  1  0
 67 70  1  6
 68 69  1  0
 68 74  2  0
 70 71  1  0
 71 72  1  6
 71 73  1  0
M  CHG  2   1   1  69  -1
M  END
$$$$
