
     RDKit          3D

 74 76  0  0  0  0  0  0  0  0999 V2000
   16.9190   -7.0806   33.3425 N   0  0  0  0  0  4  0  0  0  0  0  0
   18.2486   -7.6066   33.4008 C   0  0  2  0  0  0  0  0  0  0  0  0
   18.3291   -9.0848   33.5168 C   0  0  0  0  0  0  0  0  0  0  0  0
   17.6727   -9.6847   34.4328 O   0  0  0  0  0  0  0  0  0  0  0  0
   19.0074   -6.9850   34.5413 C   0  0  0  0  0  0  0  0  0  0  0  0
   20.3813   -6.5221   34.2279 C   0  0  0  0  0  0  0  0  0  0  0  0
   21.0000   -5.1725   35.2224 S   0  0  0  0  0  0  0  0  0  0  0  0
   22.5075   -4.5165   34.5065 C   0  0  0  0  0  0  0  0  0  0  0  0
   19.0914   -9.9098   32.6800 N   0  0  0  0  0  0  0  0  0  0  0  0
   19.4145  -11.2804   32.9462 C   0  0  2  0  0  0  0  0  0  0  0  0
   20.0657  -11.4767   34.2613 C   0  0  0  0  0  0  0  0  0  0  0  0
   21.2528  -11.1128   34.4052 O   0  0  0  0  0  0  0  0  0  0  0  0
   20.3113  -11.8352   31.8854 C   0  0  0  0  0  0  0  0  0  0  0  0
   20.6774  -13.2421   32.0821 C   0  0  0  0  0  0  0  0  0  0  0  0
   19.7950  -14.3072   32.0067 C   0  0  0  0  0  0  0  0  0  0  0  0
   21.9200  -13.7712   32.3386 C   0  0  0  0  0  0  0  0  0  0  0  0
   20.4975  -15.4211   32.2125 N   0  0  0  0  0  0  0  0  0  0  0  0
   21.7977  -15.1367   32.4186 C   0  0  0  0  0  0  0  0  0  0  0  0
   23.1609  -13.1994   32.5309 C   0  0  0  0  0  0  0  0  0  0  0  0
   22.8704  -15.9539   32.6832 C   0  0  0  0  0  0  0  0  0  0  0  0
   24.2653  -14.0140   32.8024 C   0  0  0  0  0  0  0  0  0  0  0  0
   24.0877  -15.3731   32.8705 C   0  0  0  0  0  0  0  0  0  0  0  0
   19.3952  -12.0540   35.3465 N   0  0  0  0  0  0  0  0  0  0  0  0
   19.9750  -12.4563   36.5779 C   0  0  2  0  0  0  0  0  0  0  0  0
   21.3503  -12.0042   36.8436 C   0  0  0  0  0  0  0  0  0  0  0  0
   21.7656  -12.0360   38.0001 O   0  0  0  0  0  0  0  0  0  0  0  0
   19.6998  -13.8933   36.8286 C   0  0  0  0  0  0  0  0  0  0  0  0
   20.3976  -14.5174   37.9813 C   0  0  1  0  0  0  0  0  0  0  0  0
   19.6724  -14.3227   39.2983 C   0  0  0  0  0  0  0  0  0  0  0  0
   20.4218  -16.0312   37.7553 C   0  0  0  0  0  0  0  0  0  0  0  0
   22.1360  -11.5552   35.7707 N   0  0  0  0  0  0  0  0  0  0  0  0
   23.5320  -11.3256   35.7496 C   0  0  2  0  0  0  0  0  0  0  0  0
   23.9614   -9.9222   35.7109 C   0  0  0  0  0  0  0  0  0  0  0  0
   25.1935   -9.5784   35.7079 O   0  0  0  0  0  0  0  0  0  0  0  0
   24.3575  -12.2442   34.8760 C   0  0  0  0  0  0  0  0  0  0  0  0
   25.3218  -13.0714   35.6427 C   0  0  1  0  0  0  0  0  0  0  0  0
   26.1676  -13.8210   34.5872 C   0  0  0  0  0  0  0  0  0  0  0  0
   26.3695  -12.0243   36.1773 C   0  0  0  0  0  0  0  0  0  0  0  0
   23.0208   -8.8293   35.6663 N   0  0  0  0  0  0  0  0  0  0  0  0
   23.4636   -7.4839   35.4082 C   0  0  2  0  0  0  0  0  0  0  0  0
   22.4473   -6.4869   35.7242 C   0  0  0  0  0  0  0  0  0  0  0  0
   22.8286   -5.2766   35.8921 O   0  0  0  0  0  0  0  0  0  0  0  0
   23.9687   -7.4330   33.9886 C   0  0  0  0  0  0  0  0  0  0  0  0
   24.7222   -6.2224   33.5965 C   0  0  1  0  0  0  0  0  0  0  0  0
   25.2784   -6.1869   32.2146 C   0  0  0  0  0  0  0  0  0  0  0  0
   23.7154   -5.0554   33.6773 C   0  0  0  0  0  0  0  0  0  0  0  0
   21.0873   -6.7269   35.8636 N   0  0  0  0  0  0  0  0  0  0  0  0
   20.2460   -5.8349   36.6808 C   0  0  2  0  0  0  0  0  0  0  0  0
   20.9275   -5.4994   37.9241 C   0  0  0  0  0  0  0  0  0  0  0  0
   20.7484   -4.2611   38.2982 O   0  0  0  0  0  0  0  0  0  0  0  0
   18.8862   -6.4161   36.8061 C   0  0  0  0  0  0  0  0  0  0  0  0
   17.7681   -5.5876   36.2775 C   0  0  1  0  0  0  0  0  0  0  0  0
   16.9136   -5.1906   37.4922 C   0  0  0  0  0  0  0  0  0  0  0  0
   18.3535   -4.2314   35.7795 C   0  0  0  0  0  0  0  0  0  0  0  0
   21.7207   -6.2100   38.7948 N   0  0  0  0  0  0  0  0  0  0  0  0
   21.6898   -6.1735   40.2411 C   0  0  2  0  0  0  0  0  0  0  0  0
   22.8292   -5.3174   40.7559 C   0  0  0  0  0  0  0  0  0  0  0  0
   22.7922   -4.0617   40.7498 O   0  0  0  0  0  0  0  0  0  0  0  0
   21.5397   -7.4343   40.9622 C   0  0  0  0  0  0  0  0  0  0  0  0
   20.8261   -7.4306   42.2439 C   0  0  0  0  0  0  0  0  0  0  0  0
   19.8982   -8.4413   42.4475 C   0  0  0  0  0  0  0  0  0  0  0  0
   21.0313   -6.4838   43.2286 C   0  0  0  0  0  0  0  0  0  0  0  0
   19.1643   -8.5307   43.6162 C   0  0  0  0  0  0  0  0  0  0  0  0
   20.3144   -6.5541   44.3967 C   0  0  0  0  0  0  0  0  0  0  0  0
   19.3739   -7.5850   44.5924 C   0  0  0  0  0  0  0  0  0  0  0  0
   23.9959   -5.9196   41.2711 N   0  0  0  0  0  0  0  0  0  0  0  0
   25.1038   -5.0598   41.6407 C   0  0  2  0  0  0  0  0  0  0  0  0
   26.1472   -5.1208   40.5373 C   0  0  0  0  0  0  0  0  0  0  0  0
   27.3376   -4.4283   40.6195 O   0  0  0  0  0  1  0  0  0  0  0  0
   25.6933   -5.6188   42.9087 C   0  0  0  0  0  0  0  0  0  0  0  0
   26.9245   -6.4478   42.7201 C   0  0  1  0  0  0  0  0  0  0  0  0
   28.1099   -5.5155   42.5475 C   0  0  0  0  0  0  0  0  0  0  0  0
   27.1377   -7.2642   43.9699 C   0  0  0  0  0  0  0  0  0  0  0  0
   25.9185   -5.8199   39.5245 O   0  0  0  0  0  0  0  0  0  0  0  0
  2  1  1  1
  2  3  1  0
  2  5  1  0
  3  4  2  0
  3  9  1  0
  5  6  1  0
  6  7  1  0
  7  8  1  0
  9 10  1  0
 10 11  1  0
 10 13  1  6
 11 12  2  0
 11 23  1  0
 13 14  1  0
 14 15  2  0
 14 16  1  0
 15 17  1  0
 16 18  2  0
 16 19  1  0
 17 18  1  0
 18 20  1  0
 19 21  2  0
 20 22  2  0
 21 22  1  0
 23 24  1  0
 24 25  1  0
 24 27  1  6
 25 26  2  0
 25 31  1  0
 27 28  1  0
 28 29  1  1
 28 30  1  0
 31 32  1  0
 32 33  1  0
 32 35  1  6
 33 34  2  0
 33 39  1  0
 35 36  1  0
 36 37  1  6
 36 38  1  0
 39 40  1  0
 40 41  1  0
 40 43  1  6
 41 42  2  0
 41 47  1  0
 43 44  1  0
 44 45  1  6
 44 46  1  0
 47 48  1  0
 48 49  1  0
 48 51  1  1
 49 50  2  0
 49 55  1  0
 51 52  1  0
 52 53  1  1
 52 54  1  0
 55 56  1  0
 56 57  1  0
 56 59  1  1
 57 58  2  0
 57 66  1  0
 59 60  1  0
 60 61  2  0
 60 62  1  0
 61 63  1  0
 62 64  2  0
 63 65  2  0
 64 65  1  0
 66 67  1  0
 67 68  1  0
 67 70  1  1
 68 69  1  0
 68 74  2  0
 70 71  1  0
 71 72  1  1
 71 73  1  0
M  CHG  2   1   1  69  -1
M  END
$$$$
