
     RDKit          3D

 74 76  0  0  0  0  0  0  0  0999 V2000
   22.4183   -8.7606   41.7628 N   0  0  0  0  0  4  0  0  0  0  0  0
   23.0559   -7.4794   41.7716 C   0  0  2  0  0  0  0  0  0  0  0  0
   22.3894   -6.4465   40.9386 C   0  0  0  0  0  0  0  0  0  0  0  0
   22.4332   -6.5343   39.6658 O   0  0  0  0  0  0  0  0  0  0  0  0
   24.4906   -7.6061   41.3375 C   0  0  0  0  0  0  0  0  0  0  0  0
   25.0446   -8.9819   41.3296 C   0  0  0  0  0  0  0  0  0  0  0  0
   26.7083   -9.1608   41.9567 S   0  0  0  0  0  0  0  0  0  0  0  0
   27.8965   -8.6550   40.7127 C   0  0  0  0  0  0  0  0  0  0  0  0
   21.6924   -5.3419   41.4448 N   0  0  0  0  0  0  0  0  0  0  0  0
   22.2992   -4.1640   41.9908 C   0  0  2  0  0  0  0  0  0  0  0  0
   23.0785   -3.3983   40.9915 C   0  0  0  0  0  0  0  0  0  0  0  0
   22.9968   -2.1510   40.9922 O   0  0  0  0  0  0  0  0  0  0  0  0
   23.2007   -4.5066   43.1342 C   0  0  0  0  0  0  0  0  0  0  0  0
   22.5707   -4.3884   44.4537 C   0  0  0  0  0  0  0  0  0  0  0  0
   23.1703   -3.8275   45.5693 C   0  0  0  0  0  0  0  0  0  0  0  0
   21.3027   -4.7640   44.8290 C   0  0  0  0  0  0  0  0  0  0  0  0
   22.2833   -3.8738   46.5632 N   0  0  0  0  0  0  0  0  0  0  0  0
   21.1315   -4.4377   46.1520 C   0  0  0  0  0  0  0  0  0  0  0  0
   20.2690   -5.3803   44.1540 C   0  0  0  0  0  0  0  0  0  0  0  0
   19.9644   -4.7038   46.8269 C   0  0  0  0  0  0  0  0  0  0  0  0
   19.0732   -5.6606   44.8236 C   0  0  0  0  0  0  0  0  0  0  0  0
   18.9546   -5.3125   46.1457 C   0  0  0  0  0  0  0  0  0  0  0  0
   23.9032   -4.0252   40.0495 N   0  0  0  0  0  0  0  0  0  0  0  0
   23.9664   -3.7375   38.6611 C   0  0  2  0  0  0  0  0  0  0  0  0
   22.8490   -4.2171   37.8318 C   0  0  0  0  0  0  0  0  0  0  0  0
   22.9866   -5.2708   37.2138 O   0  0  0  0  0  0  0  0  0  0  0  0
   25.3299   -4.0125   38.1424 C   0  0  0  0  0  0  0  0  0  0  0  0
   26.1849   -4.9163   38.9532 C   0  0  1  0  0  0  0  0  0  0  0  0
   27.2560   -5.6170   38.1409 C   0  0  0  0  0  0  0  0  0  0  0  0
   26.9457   -4.0607   39.9693 C   0  0  0  0  0  0  0  0  0  0  0  0
   21.6700   -3.4574   37.7769 N   0  0  0  0  0  0  0  0  0  0  0  0
   20.5005   -3.7175   37.0242 C   0  0  2  0  0  0  0  0  0  0  0  0
   19.4064   -2.7485   37.1638 C   0  0  0  0  0  0  0  0  0  0  0  0
   18.8201   -2.2214   36.1566 O   0  0  0  0  0  0  0  0  0  0  0  0
   20.0407   -5.1574   36.9610 C   0  0  0  0  0  0  0  0  0  0  0  0
   19.4560   -5.6419   38.2358 C   0  0  1  0  0  0  0  0  0  0  0  0
   18.9210   -7.0627   37.9418 C   0  0  0  0  0  0  0  0  0  0  0  0
   20.7148   -5.9733   39.1218 C   0  0  0  0  0  0  0  0  0  0  0  0
   18.9099   -2.3268   38.4509 N   0  0  0  0  0  0  0  0  0  0  0  0
   18.4163   -0.9890   38.6499 C   0  0  2  0  0  0  0  0  0  0  0  0
   19.4552   -0.0662   39.0921 C   0  0  0  0  0  0  0  0  0  0  0  0
   19.1533    0.7838   40.0003 O   0  0  0  0  0  0  0  0  0  0  0  0
   17.2234   -1.0735   39.5681 C   0  0  0  0  0  0  0  0  0  0  0  0
   16.3071   -2.2155   39.3602 C   0  0  1  0  0  0  0  0  0  0  0  0
   16.8364   -3.5747   39.6646 C   0  0  0  0  0  0  0  0  0  0  0  0
   15.1294   -1.9927   40.3325 C   0  0  0  0  0  0  0  0  0  0  0  0
   20.7583   -0.0189   38.6161 N   0  0  0  0  0  0  0  0  0  0  0  0
   21.7306    0.9345   39.1792 C   0  0  2  0  0  0  0  0  0  0  0  0
   22.3462    1.7144   38.1136 C   0  0  0  0  0  0  0  0  0  0  0  0
   22.3892    2.9953   38.3641 O   0  0  0  0  0  0  0  0  0  0  0  0
   22.6534    0.2168   40.0936 C   0  0  0  0  0  0  0  0  0  0  0  0
   23.6381    1.0599   40.8253 C   0  0  1  0  0  0  0  0  0  0  0  0
   23.3777    0.8267   42.3224 C   0  0  0  0  0  0  0  0  0  0  0  0
   25.0602    0.4622   40.6010 C   0  0  0  0  0  0  0  0  0  0  0  0
   22.8973    1.3906   36.8956 N   0  0  0  0  0  0  0  0  0  0  0  0
   23.6270    2.2633   36.0013 C   0  0  2  0  0  0  0  0  0  0  0  0
   25.1143    2.1343   36.2609 C   0  0  0  0  0  0  0  0  0  0  0  0
   25.8921    3.1208   36.2613 O   0  0  0  0  0  0  0  0  0  0  0  0
   23.1794    3.6466   35.8661 C   0  0  0  0  0  0  0  0  0  0  0  0
   21.7814    3.9008   35.5013 C   0  0  0  0  0  0  0  0  0  0  0  0
   20.9407    2.7994   35.4361 C   0  0  0  0  0  0  0  0  0  0  0  0
   21.2822    5.1582   35.2225 C   0  0  0  0  0  0  0  0  0  0  0  0
   19.6058    2.9221   35.0963 C   0  0  0  0  0  0  0  0  0  0  0  0
   19.9601    5.3030   34.8838 C   0  0  0  0  0  0  0  0  0  0  0  0
   19.1154    4.1769   34.8203 C   0  0  0  0  0  0  0  0  0  0  0  0
   25.6856    0.8705   36.5171 N   0  0  0  0  0  0  0  0  0  0  0  0
   27.1229    0.7920   36.6937 C   0  0  2  0  0  0  0  0  0  0  0  0
   27.4947   -0.6566   36.9640 C   0  0  0  0  0  0  0  0  0  0  0  0
   26.5395   -1.6444   37.0869 O   0  0  0  0  0  1  0  0  0  0  0  0
   27.4661    1.6233   37.9015 C   0  0  0  0  0  0  0  0  0  0  0  0
   28.9309    1.7925   38.1554 C   0  0  1  0  0  0  0  0  0  0  0  0
   29.1738    3.2097   38.6419 C   0  0  0  0  0  0  0  0  0  0  0  0
   29.3317    0.8368   39.2509 C   0  0  0  0  0  0  0  0  0  0  0  0
   28.7034   -0.9612   37.0787 O   0  0  0  0  0  0  0  0  0  0  0  0
  2  1  1  6
  2  3  1  0
  2  5  1  0
  3  4  2  0
  3  9  1  0
  5  6  1  0
  6  7  1  0
  7  8  1  0
  9 10  1  0
 10 11  1  0
 10 13  1  1
 11 12  2  0
 11 23  1  0
 13 14  1  0
 14 15  2  0
 14 16  1  0
 15 17  1  0
 16 18  2  0
 16 19  1  0
 17 18  1  0
 18 20  1  0
 19 21  2  0
 20 22  2  0
 21 22  1  0
 23 24  1  0
 24 25  1  0
 24 27  1  6
 25 26  2  0
 25 31  1  0
 27 28  1  0
 28 29  1  6
 28 30  1  0
 31 32  1  0
 32 33  1  0
 32 35  1  1
 33 34  2  0
 33 39  1  0
 35 36  1  0
 36 37  1  6
 36 38  1  0
 39 40  1  0
 40 41  1  0
 40 43  1  1
 41 42  2  0
 41 47  1  0
 43 44  1  0
 44 45  1  1
 44 46  1  0
 47 48  1  0
 48 49  1  0
 48 51  1  6
 49 50  2  0
 49 55  1  0
 51 52  1  0
 52 53  1  1
 52 54  1  0
 55 56  1  0
 56 57  1  0
 56 59  1  1
 57 58  2  0
 57 66  1  0
 59 60  1  0
 60 61  2  0
 60 62  1  0
 61 63  1  0
 62 64  2  0
 63 65  2  0
 64 65  1  0
 66 67  1  0
 67 68  1  0
 67 70  1  1
 68 69  1  0
 68 74  2  0
 70 71  1  0
 71 72  1  1
 71 73  1  0
M  CHG  2   1   1  69  -1
M  END
$$$$
