
     RDKit          3D

 74 76  0  0  0  0  0  0  0  0999 V2000
   33.1715   -2.0551   40.1084 N   0  0  0  0  0  4  0  0  0  0  0  0
   31.7521   -2.2334   40.1492 C   0  0  2  0  0  0  0  0  0  0  0  0
   31.0682   -1.5314   41.2647 C   0  0  0  0  0  0  0  0  0  0  0  0
   31.7144   -1.2563   42.3307 O   0  0  0  0  0  0  0  0  0  0  0  0
   31.4104   -3.6971   40.2103 C   0  0  0  0  0  0  0  0  0  0  0  0
   29.9643   -4.0254   40.1774 C   0  0  0  0  0  0  0  0  0  0  0  0
   29.3539   -5.0149   41.5344 S   0  0  0  0  0  0  0  0  0  0  0  0
   29.7584   -6.7420   41.2720 C   0  0  0  0  0  0  0  0  0  0  0  0
   29.7259   -1.1311   41.2509 N   0  0  0  0  0  0  0  0  0  0  0  0
   29.1744   -0.0697   42.0403 C   0  0  2  0  0  0  0  0  0  0  0  0
   28.2004   -0.5447   43.0492 C   0  0  0  0  0  0  0  0  0  0  0  0
   27.4463   -1.4974   42.7557 O   0  0  0  0  0  0  0  0  0  0  0  0
   28.5022    0.9482   41.1746 C   0  0  0  0  0  0  0  0  0  0  0  0
   29.2359    2.2126   41.0519 C   0  0  0  0  0  0  0  0  0  0  0  0
   30.4432    2.3658   40.3902 C   0  0  0  0  0  0  0  0  0  0  0  0
   28.8772    3.4546   41.5196 C   0  0  0  0  0  0  0  0  0  0  0  0
   30.7792    3.6533   40.4687 N   0  0  0  0  0  0  0  0  0  0  0  0
   29.8498    4.3508   41.1494 C   0  0  0  0  0  0  0  0  0  0  0  0
   27.7993    3.9044   42.2542 C   0  0  0  0  0  0  0  0  0  0  0  0
   29.7855    5.6817   41.4856 C   0  0  0  0  0  0  0  0  0  0  0  0
   27.7160    5.2554   42.6073 C   0  0  0  0  0  0  0  0  0  0  0  0
   28.7151    6.1086   42.2109 C   0  0  0  0  0  0  0  0  0  0  0  0
   28.0985    0.0369   44.3188 N   0  0  0  0  0  0  0  0  0  0  0  0
   27.1983   -0.3410   45.3490 C   0  0  2  0  0  0  0  0  0  0  0  0
   25.7683   -0.0913   45.1060 C   0  0  0  0  0  0  0  0  0  0  0  0
   24.9454   -0.6167   45.8529 O   0  0  0  0  0  0  0  0  0  0  0  0
   27.7214    0.0892   46.6699 C   0  0  0  0  0  0  0  0  0  0  0  0
   26.8796   -0.2151   47.8547 C   0  0  1  0  0  0  0  0  0  0  0  0
   27.1124   -1.6044   48.4149 C   0  0  0  0  0  0  0  0  0  0  0  0
   27.2810    0.7442   48.9780 C   0  0  0  0  0  0  0  0  0  0  0  0
   25.3964    0.7355   44.0345 N   0  0  0  0  0  0  0  0  0  0  0  0
   24.0908    1.0448   43.5853 C   0  0  2  0  0  0  0  0  0  0  0  0
   23.7882    0.7183   42.1863 C   0  0  0  0  0  0  0  0  0  0  0  0
   22.6870    1.0470   41.6246 O   0  0  0  0  0  0  0  0  0  0  0  0
   23.5086    2.3623   44.0477 C   0  0  0  0  0  0  0  0  0  0  0  0
   23.0436    2.3349   45.4565 C   0  0  1  0  0  0  0  0  0  0  0  0
   22.1338    3.5740   45.6249 C   0  0  0  0  0  0  0  0  0  0  0  0
   21.9777    1.1760   45.4754 C   0  0  0  0  0  0  0  0  0  0  0  0
   24.7175    0.0075   41.3423 N   0  0  0  0  0  0  0  0  0  0  0  0
   24.3574   -0.3683   39.9999 C   0  0  2  0  0  0  0  0  0  0  0  0
   23.4529   -1.5114   39.9594 C   0  0  0  0  0  0  0  0  0  0  0  0
   22.1977   -1.2850   40.0674 O   0  0  0  0  0  0  0  0  0  0  0  0
   25.6337   -0.5534   39.2189 C   0  0  0  0  0  0  0  0  0  0  0  0
   25.4996   -1.0963   37.8498 C   0  0  1  0  0  0  0  0  0  0  0  0
   24.8640   -2.4368   37.7104 C   0  0  0  0  0  0  0  0  0  0  0  0
   24.5813   -0.1122   37.0947 C   0  0  0  0  0  0  0  0  0  0  0  0
   23.8265   -2.8404   39.8139 N   0  0  0  0  0  0  0  0  0  0  0  0
   23.5116   -3.8290   40.8601 C   0  0  2  0  0  0  0  0  0  0  0  0
   22.0829   -3.8221   41.1459 C   0  0  0  0  0  0  0  0  0  0  0  0
   21.6308   -4.9723   41.5678 O   0  0  0  0  0  0  0  0  0  0  0  0
   24.4201   -3.6306   42.0168 C   0  0  0  0  0  0  0  0  0  0  0  0
   23.7725   -3.2421   43.2997 C   0  0  1  0  0  0  0  0  0  0  0  0
   22.3845   -3.9030   43.2999 C   0  0  0  0  0  0  0  0  0  0  0  0
   24.5214   -3.9570   44.4650 C   0  0  0  0  0  0  0  0  0  0  0  0
   21.1030   -2.8597   41.0693 N   0  0  0  0  0  0  0  0  0  0  0  0
   19.6893   -3.0616   40.8362 C   0  0  2  0  0  0  0  0  0  0  0  0
   19.3746   -2.8346   39.3714 C   0  0  0  0  0  0  0  0  0  0  0  0
   18.2535   -3.0967   38.8687 O   0  0  0  0  0  0  0  0  0  0  0  0
   18.7399   -2.4181   41.7401 C   0  0  0  0  0  0  0  0  0  0  0  0
   17.3054   -2.6382   41.5259 C   0  0  0  0  0  0  0  0  0  0  0  0
   16.6494   -1.7365   40.7008 C   0  0  0  0  0  0  0  0  0  0  0  0
   16.5986   -3.6763   42.1010 C   0  0  0  0  0  0  0  0  0  0  0  0
   15.2967   -1.8449   40.4346 C   0  0  0  0  0  0  0  0  0  0  0  0
   15.2555   -3.8033   41.8496 C   0  0  0  0  0  0  0  0  0  0  0  0
   14.5993   -2.8810   41.0102 C   0  0  0  0  0  0  0  0  0  0  0  0
   20.3557   -2.3084   38.5055 N   0  0  0  0  0  0  0  0  0  0  0  0
   19.9718   -2.0044   37.1404 C   0  0  2  0  0  0  0  0  0  0  0  0
   20.0344   -3.2870   36.3275 C   0  0  0  0  0  0  0  0  0  0  0  0
   20.3024   -4.5083   36.9106 O   0  0  0  0  0  1  0  0  0  0  0  0
   20.9855   -1.0293   36.6027 C   0  0  0  0  0  0  0  0  0  0  0  0
   20.7114    0.4064   36.9229 C   0  0  1  0  0  0  0  0  0  0  0  0
   21.2113    0.6894   38.3279 C   0  0  0  0  0  0  0  0  0  0  0  0
   21.4932    1.2611   35.9573 C   0  0  0  0  0  0  0  0  0  0  0  0
   19.8373   -3.2325   35.0925 O   0  0  0  0  0  0  0  0  0  0  0  0
  2  1  1  1
  2  3  1  0
  2  5  1  0
  3  4  2  0
  3  9  1  0
  5  6  1  0
  6  7  1  0
  7  8  1  0
  9 10  1  0
 10 11  1  0
 10 13  1  6
 11 12  2  0
 11 23  1  0
 13 14  1  0
 14 15  2  0
 14 16  1  0
 15 17  1  0
 16 18  2  0
 16 19  1  0
 17 18  1  0
 18 20  1  0
 19 21  2  0
 20 22  2  0
 21 22  1  0
 23 24  1  0
 24 25  1  0
 24 27  1  1
 25 26  2  0
 25 31  1  0
 27 28  1  0
 28 29  1  1
 28 30  1  0
 31 32  1  0
 32 33  1  0
 32 35  1  6
 33 34  2  0
 33 39  1  0
 35 36  1  0
 36 37  1  6
 36 38  1  0
 39 40  1  0
 40 41  1  0
 40 43  1  6
 41 42  2  0
 41 47  1  0
 43 44  1  0
 44 45  1  1
 44 46  1  0
 47 48  1  0
 48 49  1  0
 48 51  1  1
 49 50  2  0
 49 55  1  0
 51 52  1  0
 52 53  1  6
 52 54  1  0
 55 56  1  0
 56 57  1  0
 56 59  1  1
 57 58  2  0
 57 66  1  0
 59 60  1  0
 60 61  2  0
 60 62  1  0
 61 63  1  0
 62 64  2  0
 63 65  2  0
 64 65  1  0
 66 67  1  0
 67 68  1  0
 67 70  1  6
 68 69  1  0
 68 74  2  0
 70 71  1  0
 71 72  1  1
 71 73  1  0
M  CHG  2   1   1  69  -1
M  END
$$$$
