
     RDKit          3D

 74 76  0  0  0  0  0  0  0  0999 V2000
   29.9122   -7.1251   43.2823 N   0  0  0  0  0  4  0  0  0  0  0  0
   29.0872   -5.9595   43.1882 C   0  0  2  0  0  0  0  0  0  0  0  0
   27.7212   -6.2044   42.6601 C   0  0  0  0  0  0  0  0  0  0  0  0
   27.5667   -6.9049   41.6041 O   0  0  0  0  0  0  0  0  0  0  0  0
   29.7574   -4.9113   42.3426 C   0  0  0  0  0  0  0  0  0  0  0  0
   28.8965   -3.7851   41.9061 C   0  0  0  0  0  0  0  0  0  0  0  0
   29.6717   -2.5689   40.8510 S   0  0  0  0  0  0  0  0  0  0  0  0
   28.4588   -1.8446   39.7465 C   0  0  0  0  0  0  0  0  0  0  0  0
   26.5432   -5.7149   43.2387 N   0  0  0  0  0  0  0  0  0  0  0  0
   25.2354   -5.8233   42.6628 C   0  0  2  0  0  0  0  0  0  0  0  0
   25.2449   -5.7370   41.1847 C   0  0  0  0  0  0  0  0  0  0  0  0
   26.0222   -4.9275   40.6343 O   0  0  0  0  0  0  0  0  0  0  0  0
   24.3262   -4.7610   43.1941 C   0  0  0  0  0  0  0  0  0  0  0  0
   23.5128   -5.1827   44.3397 C   0  0  0  0  0  0  0  0  0  0  0  0
   23.4804   -6.4674   44.8568 C   0  0  0  0  0  0  0  0  0  0  0  0
   22.6778   -4.4180   45.1193 C   0  0  0  0  0  0  0  0  0  0  0  0
   22.6545   -6.4544   45.9030 N   0  0  0  0  0  0  0  0  0  0  0  0
   22.1447   -5.2229   46.0961 C   0  0  0  0  0  0  0  0  0  0  0  0
   22.3061   -3.0901   45.0717 C   0  0  0  0  0  0  0  0  0  0  0  0
   21.2533   -4.7501   47.0289 C   0  0  0  0  0  0  0  0  0  0  0  0
   21.3991   -2.5897   46.0118 C   0  0  0  0  0  0  0  0  0  0  0  0
   20.8972   -3.4372   46.9674 C   0  0  0  0  0  0  0  0  0  0  0  0
   24.4141   -6.5323   40.3861 N   0  0  0  0  0  0  0  0  0  0  0  0
   24.2596   -6.4405   38.9782 C   0  0  2  0  0  0  0  0  0  0  0  0
   22.8875   -6.2825   38.4695 C   0  0  0  0  0  0  0  0  0  0  0  0
   22.6777   -6.4821   37.2749 O   0  0  0  0  0  0  0  0  0  0  0  0
   25.0923   -7.4675   38.3033 C   0  0  0  0  0  0  0  0  0  0  0  0
   24.7954   -8.8866   38.6238 C   0  0  1  0  0  0  0  0  0  0  0  0
   23.3113   -9.1911   38.6792 C   0  0  0  0  0  0  0  0  0  0  0  0
   25.3415   -9.7521   37.4855 C   0  0  0  0  0  0  0  0  0  0  0  0
   21.8710   -5.9116   39.3635 N   0  0  0  0  0  0  0  0  0  0  0  0
   20.5925   -5.3871   39.0597 C   0  0  2  0  0  0  0  0  0  0  0  0
   20.4548   -4.7164   37.7610 C   0  0  0  0  0  0  0  0  0  0  0  0
   21.2876   -3.8381   37.3473 O   0  0  0  0  0  0  0  0  0  0  0  0
   19.8565   -4.6978   40.1874 C   0  0  0  0  0  0  0  0  0  0  0  0
   20.3978   -3.3530   40.5044 C   0  0  1  0  0  0  0  0  0  0  0  0
   19.3115   -2.6494   41.3506 C   0  0  0  0  0  0  0  0  0  0  0  0
   21.4919   -3.6397   41.6000 C   0  0  0  0  0  0  0  0  0  0  0  0
   19.3707   -5.0069   36.8546 N   0  0  0  0  0  0  0  0  0  0  0  0
   19.3061   -4.3856   35.5574 C   0  0  2  0  0  0  0  0  0  0  0  0
   19.1321   -2.9398   35.6343 C   0  0  0  0  0  0  0  0  0  0  0  0
   19.0180   -2.2919   34.5363 O   0  0  0  0  0  0  0  0  0  0  0  0
   18.2454   -5.1012   34.7600 C   0  0  0  0  0  0  0  0  0  0  0  0
   17.2195   -4.2550   34.1130 C   0  0  1  0  0  0  0  0  0  0  0  0
   17.6746   -3.3563   33.0151 C   0  0  0  0  0  0  0  0  0  0  0  0
   16.2124   -5.2319   33.4699 C   0  0  0  0  0  0  0  0  0  0  0  0
   19.0784   -2.1872   36.7994 N   0  0  0  0  0  0  0  0  0  0  0  0
   18.9028   -0.7253   36.7431 C   0  0  2  0  0  0  0  0  0  0  0  0
   19.3087   -0.1204   38.0049 C   0  0  0  0  0  0  0  0  0  0  0  0
   18.8854    1.1059   38.1544 O   0  0  0  0  0  0  0  0  0  0  0  0
   17.5328   -0.4103   36.2672 C   0  0  0  0  0  0  0  0  0  0  0  0
   16.4238   -0.7206   37.2105 C   0  0  1  0  0  0  0  0  0  0  0  0
   16.3605    0.4520   38.2027 C   0  0  0  0  0  0  0  0  0  0  0  0
   15.0755   -0.6200   36.4346 C   0  0  0  0  0  0  0  0  0  0  0  0
   20.0431   -0.5656   39.0795 N   0  0  0  0  0  0  0  0  0  0  0  0
   20.8587    0.2261   39.9750 C   0  0  2  0  0  0  0  0  0  0  0  0
   22.2391    0.4135   39.3791 C   0  0  0  0  0  0  0  0  0  0  0  0
   23.1762    0.9757   39.9987 O   0  0  0  0  0  0  0  0  0  0  0  0
   20.8815   -0.1333   41.3902 C   0  0  0  0  0  0  0  0  0  0  0  0
   19.7426    0.2504   42.2315 C   0  0  0  0  0  0  0  0  0  0  0  0
   19.3423    1.5774   42.1770 C   0  0  0  0  0  0  0  0  0  0  0  0
   19.0731   -0.6313   43.0576 C   0  0  0  0  0  0  0  0  0  0  0  0
   18.2846    2.0499   42.9323 C   0  0  0  0  0  0  0  0  0  0  0  0
   18.0200   -0.1838   43.8153 C   0  0  0  0  0  0  0  0  0  0  0  0
   17.6224    1.1666   43.7524 C   0  0  0  0  0  0  0  0  0  0  0  0
   22.5216   -0.0496   38.0771 N   0  0  0  0  0  0  0  0  0  0  0  0
   23.8195    0.2581   37.5078 C   0  0  2  0  0  0  0  0  0  0  0  0
   24.8918   -0.1986   38.4833 C   0  0  0  0  0  0  0  0  0  0  0  0
   26.2333   -0.1610   38.1633 O   0  0  0  0  0  1  0  0  0  0  0  0
   23.8933    1.7547   37.3584 C   0  0  0  0  0  0  0  0  0  0  0  0
   23.6947    2.2601   35.9641 C   0  0  1  0  0  0  0  0  0  0  0  0
   23.3992    3.7476   36.0297 C   0  0  0  0  0  0  0  0  0  0  0  0
   24.9824    2.0626   35.2046 C   0  0  0  0  0  0  0  0  0  0  0  0
   24.5465   -0.6213   39.6097 O   0  0  0  0  0  0  0  0  0  0  0  0
  2  1  1  6
  2  3  1  0
  2  5  1  0
  3  4  2  0
  3  9  1  0
  5  6  1  0
  6  7  1  0
  7  8  1  0
  9 10  1  0
 10 11  1  0
 10 13  1  1
 11 12  2  0
 11 23  1  0
 13 14  1  0
 14 15  2  0
 14 16  1  0
 15 17  1  0
 16 18  2  0
 16 19  1  0
 17 18  1  0
 18 20  1  0
 19 21  2  0
 20 22  2  0
 21 22  1  0
 23 24  1  0
 24 25  1  0
 24 27  1  6
 25 26  2  0
 25 31  1  0
 27 28  1  0
 28 29  1  6
 28 30  1  0
 31 32  1  0
 32 33  1  0
 32 35  1  1
 33 34  2  0
 33 39  1  0
 35 36  1  0
 36 37  1  1
 36 38  1  0
 39 40  1  0
 40 41  1  0
 40 43  1  6
 41 42  2  0
 41 47  1  0
 43 44  1  0
 44 45  1  6
 44 46  1  0
 47 48  1  0
 48 49  1  0
 48 51  1  1
 49 50  2  0
 49 55  1  0
 51 52  1  0
 52 53  1  1
 52 54  1  0
 55 56  1  0
 56 57  1  0
 56 59  1  1
 57 58  2  0
 57 66  1  0
 59 60  1  0
 60 61  2  0
 60 62  1  0
 61 63  1  0
 62 64  2  0
 63 65  2  0
 64 65  1  0
 66 67  1  0
 67 68  1  0
 67 70  1  1
 68 69  1  0
 68 74  2  0
 70 71  1  0
 71 72  1  1
 71 73  1  0
M  CHG  2   1   1  69  -1
M  END
$$$$
