
     RDKit          3D

 74 76  0  0  0  0  0  0  0  0999 V2000
   19.0708   -5.3489   36.9532 N   0  0  0  0  0  4  0  0  0  0  0  0
   20.2188   -4.9397   36.2030 C   0  0  2  0  0  0  0  0  0  0  0  0
   20.6862   -3.5585   36.4836 C   0  0  0  0  0  0  0  0  0  0  0  0
   21.9251   -3.3413   36.7017 O   0  0  0  0  0  0  0  0  0  0  0  0
   19.9558   -5.0764   34.7282 C   0  0  0  0  0  0  0  0  0  0  0  0
   21.1542   -5.0692   33.8542 C   0  0  0  0  0  0  0  0  0  0  0  0
   20.8523   -5.2967   32.1077 S   0  0  0  0  0  0  0  0  0  0  0  0
   22.3952   -5.2175   31.1974 C   0  0  0  0  0  0  0  0  0  0  0  0
   19.8566   -2.4309   36.5338 N   0  0  0  0  0  0  0  0  0  0  0  0
   20.3064   -1.0852   36.7351 C   0  0  2  0  0  0  0  0  0  0  0  0
   20.1901   -0.6406   38.1426 C   0  0  0  0  0  0  0  0  0  0  0  0
   19.5483    0.4024   38.3930 O   0  0  0  0  0  0  0  0  0  0  0  0
   19.5442   -0.1308   35.8717 C   0  0  0  0  0  0  0  0  0  0  0  0
   18.1269    0.0013   36.2262 C   0  0  0  0  0  0  0  0  0  0  0  0
   17.5906    1.0409   36.9683 C   0  0  0  0  0  0  0  0  0  0  0  0
   17.0825   -0.8245   35.8841 C   0  0  0  0  0  0  0  0  0  0  0  0
   16.2774    0.8299   37.0574 N   0  0  0  0  0  0  0  0  0  0  0  0
   15.9280   -0.2976   36.4089 C   0  0  0  0  0  0  0  0  0  0  0  0
   17.0153   -2.0062   35.1751 C   0  0  0  0  0  0  0  0  0  0  0  0
   14.7067   -0.9076   36.2512 C   0  0  0  0  0  0  0  0  0  0  0  0
   15.7816   -2.6433   35.0043 C   0  0  0  0  0  0  0  0  0  0  0  0
   14.6584   -2.0732   35.5489 C   0  0  0  0  0  0  0  0  0  0  0  0
   20.7734   -1.3503   39.1993 N   0  0  0  0  0  0  0  0  0  0  0  0
   20.5906   -1.1005   40.5844 C   0  0  2  0  0  0  0  0  0  0  0  0
   21.6401   -1.5915   41.4921 C   0  0  0  0  0  0  0  0  0  0  0  0
   22.2120   -0.7829   42.2201 O   0  0  0  0  0  0  0  0  0  0  0  0
   19.1918   -1.4024   40.9792 C   0  0  0  0  0  0  0  0  0  0  0  0
   18.4966   -0.3867   41.8100 C   0  0  1  0  0  0  0  0  0  0  0  0
   17.7810    0.6697   40.9916 C   0  0  0  0  0  0  0  0  0  0  0  0
   17.3954   -1.0972   42.6011 C   0  0  0  0  0  0  0  0  0  0  0  0
   21.9489   -2.9607   41.4946 N   0  0  0  0  0  0  0  0  0  0  0  0
   23.1814   -3.5750   41.8198 C   0  0  2  0  0  0  0  0  0  0  0  0
   24.1655   -3.6764   40.7350 C   0  0  0  0  0  0  0  0  0  0  0  0
   25.3821   -4.0154   40.9378 O   0  0  0  0  0  0  0  0  0  0  0  0
   23.1161   -4.7996   42.7055 C   0  0  0  0  0  0  0  0  0  0  0  0
   21.7556   -5.3850   42.7963 C   0  0  1  0  0  0  0  0  0  0  0  0
   21.0822   -4.7019   44.0092 C   0  0  0  0  0  0  0  0  0  0  0  0
   20.9788   -4.7110   41.6037 C   0  0  0  0  0  0  0  0  0  0  0  0
   23.8265   -3.4066   39.3590 N   0  0  0  0  0  0  0  0  0  0  0  0
   24.7726   -2.7769   38.4751 C   0  0  2  0  0  0  0  0  0  0  0  0
   25.0566   -1.3957   38.8469 C   0  0  0  0  0  0  0  0  0  0  0  0
   25.9778   -0.7809   38.2052 O   0  0  0  0  0  0  0  0  0  0  0  0
   24.2689   -2.9536   37.0651 C   0  0  0  0  0  0  0  0  0  0  0  0
   23.7180   -4.2819   36.7201 C   0  0  1  0  0  0  0  0  0  0  0  0
   22.9712   -4.3942   35.4355 C   0  0  0  0  0  0  0  0  0  0  0  0
   24.9356   -5.2205   36.5849 C   0  0  0  0  0  0  0  0  0  0  0  0
   24.4163   -0.6731   39.8442 N   0  0  0  0  0  0  0  0  0  0  0  0
   24.8991    0.6639   40.2322 C   0  0  2  0  0  0  0  0  0  0  0  0
   25.5415    0.6078   41.5388 C   0  0  0  0  0  0  0  0  0  0  0  0
   26.3689    1.5946   41.7550 O   0  0  0  0  0  0  0  0  0  0  0  0
   23.8014    1.6504   40.0749 C   0  0  0  0  0  0  0  0  0  0  0  0
   23.3274    1.8871   38.6837 C   0  0  1  0  0  0  0  0  0  0  0  0
   21.8195    1.5883   38.6850 C   0  0  0  0  0  0  0  0  0  0  0  0
   23.3998    3.4169   38.3930 C   0  0  0  0  0  0  0  0  0  0  0  0
   25.4618   -0.2635   42.6003 N   0  0  0  0  0  0  0  0  0  0  0  0
   26.0391   -0.0995   43.9170 C   0  0  2  0  0  0  0  0  0  0  0  0
   27.4129   -0.7376   43.9566 C   0  0  0  0  0  0  0  0  0  0  0  0
   28.1883   -0.6208   44.9380 O   0  0  0  0  0  0  0  0  0  0  0  0
   25.2156   -0.4224   45.0789 C   0  0  0  0  0  0  0  0  0  0  0  0
   25.8701   -0.5816   46.3821 C   0  0  0  0  0  0  0  0  0  0  0  0
   25.2722    0.0469   47.4645 C   0  0  0  0  0  0  0  0  0  0  0  0
   27.0297   -1.3084   46.5698 C   0  0  0  0  0  0  0  0  0  0  0  0
   25.8066   -0.0313   48.7376 C   0  0  0  0  0  0  0  0  0  0  0  0
   27.5768   -1.3999   47.8250 C   0  0  0  0  0  0  0  0  0  0  0  0
   26.9610   -0.7568   48.9173 C   0  0  0  0  0  0  0  0  0  0  0  0
   27.8747   -1.5021   42.8650 N   0  0  0  0  0  0  0  0  0  0  0  0
   29.2018   -2.0811   42.9477 C   0  0  2  0  0  0  0  0  0  0  0  0
   30.2157   -0.9505   43.0063 C   0  0  0  0  0  0  0  0  0  0  0  0
   30.4113   -0.0899   41.9459 O   0  0  0  0  0  1  0  0  0  0  0  0
   29.4181   -2.8730   41.6852 C   0  0  0  0  0  0  0  0  0  0  0  0
   29.0062   -4.3093   41.7631 C   0  0  1  0  0  0  0  0  0  0  0  0
   28.5242   -4.7461   40.3916 C   0  0  0  0  0  0  0  0  0  0  0  0
   30.2201   -5.1276   42.1250 C   0  0  0  0  0  0  0  0  0  0  0  0
   30.8929   -0.7966   44.0478 O   0  0  0  0  0  0  0  0  0  0  0  0
  2  1  1  1
  2  3  1  0
  2  5  1  0
  3  4  2  0
  3  9  1  0
  5  6  1  0
  6  7  1  0
  7  8  1  0
  9 10  1  0
 10 11  1  0
 10 13  1  6
 11 12  2  0
 11 23  1  0
 13 14  1  0
 14 15  2  0
 14 16  1  0
 15 17  1  0
 16 18  2  0
 16 19  1  0
 17 18  1  0
 18 20  1  0
 19 21  2  0
 20 22  2  0
 21 22  1  0
 23 24  1  0
 24 25  1  0
 24 27  1  1
 25 26  2  0
 25 31  1  0
 27 28  1  0
 28 29  1  6
 28 30  1  0
 31 32  1  0
 32 33  1  0
 32 35  1  6
 33 34  2  0
 33 39  1  0
 35 36  1  0
 36 37  1  1
 36 38  1  0
 39 40  1  0
 40 41  1  0
 40 43  1  6
 41 42  2  0
 41 47  1  0
 43 44  1  0
 44 45  1  6
 44 46  1  0
 47 48  1  0
 48 49  1  0
 48 51  1  1
 49 50  2  0
 49 55  1  0
 51 52  1  0
 52 53  1  1
 52 54  1  0
 55 56  1  0
 56 57  1  0
 56 59  1  1
 57 58  2  0
 57 66  1  0
 59 60  1  0
 60 61  2  0
 60 62  1  0
 61 63  1  0
 62 64  2  0
 63 65  2  0
 64 65  1  0
 66 67  1  0
 67 68  1  0
 67 70  1  6
 68 69  1  0
 68 74  2  0
 70 71  1  0
 71 72  1  6
 71 73  1  0
M  CHG  2   1   1  69  -1
M  END
$$$$
