
     RDKit          3D

 74 76  0  0  0  0  0  0  0  0999 V2000
   31.3067    1.7184   42.7838 N   0  0  0  0  0  4  0  0  0  0  0  0
   30.0235    1.0889   42.7100 C   0  0  2  0  0  0  0  0  0  0  0  0
   29.6987    0.4900   41.3907 C   0  0  0  0  0  0  0  0  0  0  0  0
   30.6288    0.2918   40.5390 O   0  0  0  0  0  0  0  0  0  0  0  0
   28.9405    2.0636   43.0842 C   0  0  0  0  0  0  0  0  0  0  0  0
   28.8795    2.4440   44.5164 C   0  0  0  0  0  0  0  0  0  0  0  0
   27.6531    3.6690   44.9508 S   0  0  0  0  0  0  0  0  0  0  0  0
   27.9308    5.1786   44.0240 C   0  0  0  0  0  0  0  0  0  0  0  0
   28.4137    0.1107   40.9820 N   0  0  0  0  0  0  0  0  0  0  0  0
   28.0832   -1.1326   40.3504 C   0  0  2  0  0  0  0  0  0  0  0  0
   26.6300   -1.2954   40.1181 C   0  0  0  0  0  0  0  0  0  0  0  0
   25.8728   -1.4171   41.1052 O   0  0  0  0  0  0  0  0  0  0  0  0
   28.5663   -2.2915   41.1633 C   0  0  0  0  0  0  0  0  0  0  0  0
   27.9509   -3.5746   40.8072 C   0  0  0  0  0  0  0  0  0  0  0  0
   27.1221   -4.3119   41.6369 C   0  0  0  0  0  0  0  0  0  0  0  0
   28.0405   -4.2622   39.6202 C   0  0  0  0  0  0  0  0  0  0  0  0
   26.7403   -5.3938   40.9583 N   0  0  0  0  0  0  0  0  0  0  0  0
   27.2789   -5.4003   39.7239 C   0  0  0  0  0  0  0  0  0  0  0  0
   28.7281   -4.0234   38.4481 C   0  0  0  0  0  0  0  0  0  0  0  0
   27.1779   -6.3100   38.6989 C   0  0  0  0  0  0  0  0  0  0  0  0
   28.6391   -4.9378   37.3932 C   0  0  0  0  0  0  0  0  0  0  0  0
   27.8632   -6.0589   37.5493 C   0  0  0  0  0  0  0  0  0  0  0  0
   26.0783   -1.3157   38.8314 N   0  0  0  0  0  0  0  0  0  0  0  0
   24.7066   -1.4785   38.5052 C   0  0  2  0  0  0  0  0  0  0  0  0
   23.9602   -2.4964   39.2622 C   0  0  0  0  0  0  0  0  0  0  0  0
   23.2187   -3.2595   38.6465 O   0  0  0  0  0  0  0  0  0  0  0  0
   24.5295   -1.4999   37.0315 C   0  0  0  0  0  0  0  0  0  0  0  0
   23.2849   -0.8907   36.4979 C   0  0  1  0  0  0  0  0  0  0  0  0
   22.1393   -1.8760   36.3760 C   0  0  0  0  0  0  0  0  0  0  0  0
   22.8059    0.1610   37.5018 C   0  0  0  0  0  0  0  0  0  0  0  0
   24.1215   -2.5600   40.6550 N   0  0  0  0  0  0  0  0  0  0  0  0
   23.3742   -3.3211   41.5846 C   0  0  2  0  0  0  0  0  0  0  0  0
   21.9356   -3.0364   41.6534 C   0  0  0  0  0  0  0  0  0  0  0  0
   21.1574   -3.6165   42.4866 O   0  0  0  0  0  0  0  0  0  0  0  0
   24.0163   -3.5669   42.9321 C   0  0  0  0  0  0  0  0  0  0  0  0
   23.5345   -4.8048   43.5934 C   0  0  1  0  0  0  0  0  0  0  0  0
   24.1303   -5.9772   42.7799 C   0  0  0  0  0  0  0  0  0  0  0  0
   24.3960   -4.8848   44.9091 C   0  0  0  0  0  0  0  0  0  0  0  0
   21.2980   -2.0743   40.7880 N   0  0  0  0  0  0  0  0  0  0  0  0
   19.9881   -1.5605   41.0932 C   0  0  2  0  0  0  0  0  0  0  0  0
   19.4386   -0.7455   40.0159 C   0  0  0  0  0  0  0  0  0  0  0  0
   18.1669   -0.6130   39.9552 O   0  0  0  0  0  0  0  0  0  0  0  0
   20.0703   -0.8611   42.4263 C   0  0  0  0  0  0  0  0  0  0  0  0
   19.3030    0.3957   42.5634 C   0  0  1  0  0  0  0  0  0  0  0  0
   19.4285    1.1302   43.8538 C   0  0  0  0  0  0  0  0  0  0  0  0
   19.8551    1.3464   41.4802 C   0  0  0  0  0  0  0  0  0  0  0  0
   20.1715   -0.0909   39.0355 N   0  0  0  0  0  0  0  0  0  0  0  0
   19.7746   -0.1735   37.6189 C   0  0  2  0  0  0  0  0  0  0  0  0
   19.5320   -1.5604   37.2439 C   0  0  0  0  0  0  0  0  0  0  0  0
   18.3479   -1.7618   36.7314 O   0  0  0  0  0  0  0  0  0  0  0  0
   20.7489    0.5772   36.7883 C   0  0  0  0  0  0  0  0  0  0  0  0
   20.1725    1.5515   35.8217 C   0  0  1  0  0  0  0  0  0  0  0  0
   20.5218    1.0264   34.4197 C   0  0  0  0  0  0  0  0  0  0  0  0
   18.6186    1.4417   35.8799 C   0  0  0  0  0  0  0  0  0  0  0  0
   20.2862   -2.7088   37.3110 N   0  0  0  0  0  0  0  0  0  0  0  0
   19.9329   -4.0223   36.8173 C   0  0  2  0  0  0  0  0  0  0  0  0
   18.9523   -4.6795   37.7674 C   0  0  0  0  0  0  0  0  0  0  0  0
   19.0642   -5.8738   38.1405 O   0  0  0  0  0  0  0  0  0  0  0  0
   21.0077   -4.9118   36.3860 C   0  0  0  0  0  0  0  0  0  0  0  0
   21.8128   -4.5282   35.2212 C   0  0  0  0  0  0  0  0  0  0  0  0
   21.1730   -3.7987   34.2299 C   0  0  0  0  0  0  0  0  0  0  0  0
   23.1456   -4.8592   35.0726 C   0  0  0  0  0  0  0  0  0  0  0  0
   21.8340   -3.3896   33.0861 C   0  0  0  0  0  0  0  0  0  0  0  0
   23.8212   -4.4627   33.9457 C   0  0  0  0  0  0  0  0  0  0  0  0
   23.1609   -3.7224   32.9449 C   0  0  0  0  0  0  0  0  0  0  0  0
   17.8561   -3.9517   38.2752 N   0  0  0  0  0  0  0  0  0  0  0  0
   17.2238   -4.4260   39.4912 C   0  0  2  0  0  0  0  0  0  0  0  0
   16.1851   -3.4036   39.9220 C   0  0  0  0  0  0  0  0  0  0  0  0
   15.6666   -3.3843   41.2004 O   0  0  0  0  0  1  0  0  0  0  0  0
   18.2976   -4.5121   40.5434 C   0  0  0  0  0  0  0  0  0  0  0  0
   18.8371   -5.8870   40.7832 C   0  0  1  0  0  0  0  0  0  0  0  0
   20.2509   -5.7614   41.3212 C   0  0  0  0  0  0  0  0  0  0  0  0
   17.9837   -6.5501   41.8348 C   0  0  0  0  0  0  0  0  0  0  0  0
   15.7889   -2.5548   39.0917 O   0  0  0  0  0  0  0  0  0  0  0  0
  2  1  1  6
  2  3  1  0
  2  5  1  0
  3  4  2  0
  3  9  1  0
  5  6  1  0
  6  7  1  0
  7  8  1  0
  9 10  1  0
 10 11  1  0
 10 13  1  1
 11 12  2  0
 11 23  1  0
 13 14  1  0
 14 15  2  0
 14 16  1  0
 15 17  1  0
 16 18  2  0
 16 19  1  0
 17 18  1  0
 18 20  1  0
 19 21  2  0
 20 22  2  0
 21 22  1  0
 23 24  1  0
 24 25  1  0
 24 27  1  6
 25 26  2  0
 25 31  1  0
 27 28  1  0
 28 29  1  1
 28 30  1  0
 31 32  1  0
 32 33  1  0
 32 35  1  1
 33 34  2  0
 33 39  1  0
 35 36  1  0
 36 37  1  6
 36 38  1  0
 39 40  1  0
 40 41  1  0
 40 43  1  1
 41 42  2  0
 41 47  1  0
 43 44  1  0
 44 45  1  1
 44 46  1  0
 47 48  1  0
 48 49  1  0
 48 51  1  6
 49 50  2  0
 49 55  1  0
 51 52  1  0
 52 53  1  6
 52 54  1  0
 55 56  1  0
 56 57  1  0
 56 59  1  1
 57 58  2  0
 57 66  1  0
 59 60  1  0
 60 61  2  0
 60 62  1  0
 61 63  1  0
 62 64  2  0
 63 65  2  0
 64 65  1  0
 66 67  1  0
 67 68  1  0
 67 70  1  1
 68 69  1  0
 68 74  2  0
 70 71  1  0
 71 72  1  1
 71 73  1  0
M  CHG  2   1   1  69  -1
M  END
$$$$
