
     RDKit          3D

 74 76  0  0  0  0  0  0  0  0999 V2000
   24.9576   -2.7205   41.7031 N   0  0  0  0  0  4  0  0  0  0  0  0
   24.0580   -3.2357   42.6897 C   0  0  2  0  0  0  0  0  0  0  0  0
   22.6680   -3.4502   42.2135 C   0  0  0  0  0  0  0  0  0  0  0  0
   21.9749   -2.4553   41.8142 O   0  0  0  0  0  0  0  0  0  0  0  0
   24.0286   -2.3332   43.8928 C   0  0  0  0  0  0  0  0  0  0  0  0
   23.3381   -2.8730   45.0894 C   0  0  0  0  0  0  0  0  0  0  0  0
   23.4076   -1.8588   46.5590 S   0  0  0  0  0  0  0  0  0  0  0  0
   22.9396   -0.1722   46.1698 C   0  0  0  0  0  0  0  0  0  0  0  0
   22.0253   -4.6938   42.1636 N   0  0  0  0  0  0  0  0  0  0  0  0
   20.6247   -4.8889   41.9310 C   0  0  2  0  0  0  0  0  0  0  0  0
   20.0011   -3.7730   41.1840 C   0  0  0  0  0  0  0  0  0  0  0  0
   19.0342   -4.0191   40.4311 O   0  0  0  0  0  0  0  0  0  0  0  0
   19.8873   -5.0674   43.2200 C   0  0  0  0  0  0  0  0  0  0  0  0
   19.8400   -6.4531   43.6994 C   0  0  0  0  0  0  0  0  0  0  0  0
   19.3480   -6.8471   44.9329 C   0  0  0  0  0  0  0  0  0  0  0  0
   20.2270   -7.5960   43.0409 C   0  0  0  0  0  0  0  0  0  0  0  0
   19.4445   -8.1752   44.9938 N   0  0  0  0  0  0  0  0  0  0  0  0
   19.9755   -8.6698   43.8593 C   0  0  0  0  0  0  0  0  0  0  0  0
   20.7961   -7.8182   41.8038 C   0  0  0  0  0  0  0  0  0  0  0  0
   20.2710   -9.9593   43.4873 C   0  0  0  0  0  0  0  0  0  0  0  0
   21.1053   -9.1234   41.4069 C   0  0  0  0  0  0  0  0  0  0  0  0
   20.8324  -10.1605   42.2632 C   0  0  0  0  0  0  0  0  0  0  0  0
   20.4579   -2.4541   41.2951 N   0  0  0  0  0  0  0  0  0  0  0  0
   19.9444   -1.3237   40.6073 C   0  0  2  0  0  0  0  0  0  0  0  0
   20.8913   -0.2340   40.3207 C   0  0  0  0  0  0  0  0  0  0  0  0
   20.4489    0.8322   39.8982 O   0  0  0  0  0  0  0  0  0  0  0  0
   18.6396   -0.9195   41.1884 C   0  0  0  0  0  0  0  0  0  0  0  0
   17.5502   -1.9280   41.1539 C   0  0  1  0  0  0  0  0  0  0  0  0
   16.2813   -1.4638   41.8414 C   0  0  0  0  0  0  0  0  0  0  0  0
   17.1574   -2.1488   39.6909 C   0  0  0  0  0  0  0  0  0  0  0  0
   22.2608   -0.4498   40.5400 N   0  0  0  0  0  0  0  0  0  0  0  0
   23.3493   -0.0092   39.7508 C   0  0  2  0  0  0  0  0  0  0  0  0
   23.8803   -0.9714   38.7772 C   0  0  0  0  0  0  0  0  0  0  0  0
   24.8794   -0.7084   38.0230 O   0  0  0  0  0  0  0  0  0  0  0  0
   24.4144    0.8012   40.4560 C   0  0  0  0  0  0  0  0  0  0  0  0
   25.7264    0.7728   39.7635 C   0  0  1  0  0  0  0  0  0  0  0  0
   25.8624    2.1432   39.0602 C   0  0  0  0  0  0  0  0  0  0  0  0
   26.7692    0.9315   40.9328 C   0  0  0  0  0  0  0  0  0  0  0  0
   23.3149   -2.2877   38.6073 N   0  0  0  0  0  0  0  0  0  0  0  0
   23.6195   -3.0777   37.4429 C   0  0  2  0  0  0  0  0  0  0  0  0
   22.8231   -2.6983   36.2817 C   0  0  0  0  0  0  0  0  0  0  0  0
   22.9577   -3.3890   35.2125 O   0  0  0  0  0  0  0  0  0  0  0  0
   23.5043   -4.5296   37.8323 C   0  0  0  0  0  0  0  0  0  0  0  0
   23.8560   -5.5235   36.7952 C   0  0  1  0  0  0  0  0  0  0  0  0
   24.8018   -5.0871   35.7297 C   0  0  0  0  0  0  0  0  0  0  0  0
   24.5607   -6.6773   37.5396 C   0  0  0  0  0  0  0  0  0  0  0  0
   21.9208   -1.6451   36.2224 N   0  0  0  0  0  0  0  0  0  0  0  0
   21.0829   -1.4389   35.0281 C   0  0  2  0  0  0  0  0  0  0  0  0
   20.3279   -0.1988   35.1505 C   0  0  0  0  0  0  0  0  0  0  0  0
   19.4567   -0.2134   36.1231 O   0  0  0  0  0  0  0  0  0  0  0  0
   20.2979   -2.6690   34.7570 C   0  0  0  0  0  0  0  0  0  0  0  0
   18.8471   -2.4742   34.4865 C   0  0  1  0  0  0  0  0  0  0  0  0
   18.1336   -3.7167   35.0438 C   0  0  0  0  0  0  0  0  0  0  0  0
   18.3292   -1.3151   35.3910 C   0  0  0  0  0  0  0  0  0  0  0  0
   20.3369    0.9914   34.4607 N   0  0  0  0  0  0  0  0  0  0  0  0
   20.5536    2.3172   34.9985 C   0  0  2  0  0  0  0  0  0  0  0  0
   22.0306    2.6526   34.9534 C   0  0  0  0  0  0  0  0  0  0  0  0
   22.4631    3.8290   35.0385 O   0  0  0  0  0  0  0  0  0  0  0  0
   19.9188    2.6615   36.2677 C   0  0  0  0  0  0  0  0  0  0  0  0
   20.0977    4.0175   36.7981 C   0  0  0  0  0  0  0  0  0  0  0  0
   19.4601    4.3115   37.9945 C   0  0  0  0  0  0  0  0  0  0  0  0
   20.8511    4.9895   36.1692 C   0  0  0  0  0  0  0  0  0  0  0  0
   19.5552    5.5597   38.5820 C   0  0  0  0  0  0  0  0  0  0  0  0
   20.9597    6.2350   36.7352 C   0  0  0  0  0  0  0  0  0  0  0  0
   20.3071    6.5226   37.9506 C   0  0  0  0  0  0  0  0  0  0  0  0
   22.9895    1.6282   34.8114 N   0  0  0  0  0  0  0  0  0  0  0  0
   24.2685    1.9655   34.2165 C   0  0  2  0  0  0  0  0  0  0  0  0
   24.1086    1.9686   32.7051 C   0  0  0  0  0  0  0  0  0  0  0  0
   24.3069    0.8324   31.9480 O   0  0  0  0  0  1  0  0  0  0  0  0
   25.2379    0.8817   34.6080 C   0  0  0  0  0  0  0  0  0  0  0  0
   25.6779    0.9152   36.0377 C   0  0  1  0  0  0  0  0  0  0  0  0
   26.3691   -0.3975   36.3587 C   0  0  0  0  0  0  0  0  0  0  0  0
   26.6785    2.0323   36.1956 C   0  0  0  0  0  0  0  0  0  0  0  0
   23.7878    3.0338   32.1314 O   0  0  0  0  0  0  0  0  0  0  0  0
  2  1  1  6
  2  3  1  0
  2  5  1  0
  3  4  2  0
  3  9  1  0
  5  6  1  0
  6  7  1  0
  7  8  1  0
  9 10  1  0
 10 11  1  0
 10 13  1  1
 11 12  2  0
 11 23  1  0
 13 14  1  0
 14 15  2  0
 14 16  1  0
 15 17  1  0
 16 18  2  0
 16 19  1  0
 17 18  1  0
 18 20  1  0
 19 21  2  0
 20 22  2  0
 21 22  1  0
 23 24  1  0
 24 25  1  0
 24 27  1  1
 25 26  2  0
 25 31  1  0
 27 28  1  0
 28 29  1  1
 28 30  1  0
 31 32  1  0
 32 33  1  0
 32 35  1  1
 33 34  2  0
 33 39  1  0
 35 36  1  0
 36 37  1  6
 36 38  1  0
 39 40  1  0
 40 41  1  0
 40 43  1  1
 41 42  2  0
 41 47  1  0
 43 44  1  0
 44 45  1  6
 44 46  1  0
 47 48  1  0
 48 49  1  0
 48 51  1  1
 49 50  2  0
 49 55  1  0
 51 52  1  0
 52 53  1  1
 52 54  1  0
 55 56  1  0
 56 57  1  0
 56 59  1  1
 57 58  2  0
 57 66  1  0
 59 60  1  0
 60 61  2  0
 60 62  1  0
 61 63  1  0
 62 64  2  0
 63 65  2  0
 64 65  1  0
 66 67  1  0
 67 68  1  0
 67 70  1  6
 68 69  1  0
 68 74  2  0
 70 71  1  0
 71 72  1  6
 71 73  1  0
M  CHG  2   1   1  69  -1
M  END
$$$$
