
     RDKit          3D

 74 76  0  0  0  0  0  0  0  0999 V2000
   27.2665   -5.9490   44.4605 N   0  0  0  0  0  4  0  0  0  0  0  0
   26.9995   -6.1473   43.0686 C   0  0  2  0  0  0  0  0  0  0  0  0
   25.6425   -5.7338   42.6297 C   0  0  0  0  0  0  0  0  0  0  0  0
   25.3574   -5.7162   41.3855 O   0  0  0  0  0  0  0  0  0  0  0  0
   27.2161   -7.5882   42.6946 C   0  0  0  0  0  0  0  0  0  0  0  0
   26.0848   -8.5058   42.9739 C   0  0  0  0  0  0  0  0  0  0  0  0
   26.1743  -10.1171   42.2063 S   0  0  0  0  0  0  0  0  0  0  0  0
   24.7709  -11.1173   42.7014 C   0  0  0  0  0  0  0  0  0  0  0  0
   24.6096   -5.3451   43.4923 N   0  0  0  0  0  0  0  0  0  0  0  0
   23.3920   -4.7081   43.0855 C   0  0  2  0  0  0  0  0  0  0  0  0
   23.6142   -3.3971   42.4344 C   0  0  0  0  0  0  0  0  0  0  0  0
   23.0873   -2.3799   42.9347 O   0  0  0  0  0  0  0  0  0  0  0  0
   22.4758   -4.5097   44.2511 C   0  0  0  0  0  0  0  0  0  0  0  0
   21.2054   -3.8583   43.9139 C   0  0  0  0  0  0  0  0  0  0  0  0
   20.9810   -2.4920   43.9569 C   0  0  0  0  0  0  0  0  0  0  0  0
   20.0395   -4.4402   43.4758 C   0  0  0  0  0  0  0  0  0  0  0  0
   19.7266   -2.2822   43.5579 N   0  0  0  0  0  0  0  0  0  0  0  0
   19.1189   -3.4454   43.2551 C   0  0  0  0  0  0  0  0  0  0  0  0
   19.6705   -5.7518   43.2582 C   0  0  0  0  0  0  0  0  0  0  0  0
   17.8415   -3.7120   42.8242 C   0  0  0  0  0  0  0  0  0  0  0  0
   18.3745   -6.0441   42.8204 C   0  0  0  0  0  0  0  0  0  0  0  0
   17.4940   -5.0118   42.6146 C   0  0  0  0  0  0  0  0  0  0  0  0
   24.3950   -3.2606   41.2802 N   0  0  0  0  0  0  0  0  0  0  0  0
   24.4060   -2.1497   40.3969 C   0  0  2  0  0  0  0  0  0  0  0  0
   24.0499   -2.4136   38.9934 C   0  0  0  0  0  0  0  0  0  0  0  0
   23.7461   -1.4627   38.2760 O   0  0  0  0  0  0  0  0  0  0  0  0
   25.6240   -1.3306   40.6189 C   0  0  0  0  0  0  0  0  0  0  0  0
   26.6086   -1.2804   39.5084 C   0  0  1  0  0  0  0  0  0  0  0  0
   27.3920    0.0166   39.4599 C   0  0  0  0  0  0  0  0  0  0  0  0
   27.6529   -2.3724   39.7535 C   0  0  0  0  0  0  0  0  0  0  0  0
   24.0704   -3.7367   38.5255 N   0  0  0  0  0  0  0  0  0  0  0  0
   23.3813   -4.2786   37.4148 C   0  0  2  0  0  0  0  0  0  0  0  0
   21.9851   -3.8576   37.2450 C   0  0  0  0  0  0  0  0  0  0  0  0
   21.5441   -3.3571   36.1536 O   0  0  0  0  0  0  0  0  0  0  0  0
   23.6217   -5.7418   37.1152 C   0  0  0  0  0  0  0  0  0  0  0  0
   22.8434   -6.2373   35.9531 C   0  0  1  0  0  0  0  0  0  0  0  0
   23.5193   -5.6294   34.7022 C   0  0  0  0  0  0  0  0  0  0  0  0
   23.2801   -7.7449   35.8267 C   0  0  0  0  0  0  0  0  0  0  0  0
   21.0080   -3.9855   38.2985 N   0  0  0  0  0  0  0  0  0  0  0  0
   19.6842   -3.4395   38.1483 C   0  0  2  0  0  0  0  0  0  0  0  0
   19.5530   -2.1123   38.7382 C   0  0  0  0  0  0  0  0  0  0  0  0
   18.3725   -1.6479   38.9093 O   0  0  0  0  0  0  0  0  0  0  0  0
   18.7067   -4.4580   38.6776 C   0  0  0  0  0  0  0  0  0  0  0  0
   18.9204   -5.8606   38.2602 C   0  0  1  0  0  0  0  0  0  0  0  0
   18.0220   -6.8901   38.8546 C   0  0  0  0  0  0  0  0  0  0  0  0
   18.6535   -5.8930   36.7404 C   0  0  0  0  0  0  0  0  0  0  0  0
   20.5991   -1.2917   39.1370 N   0  0  0  0  0  0  0  0  0  0  0  0
   20.3357    0.0534   39.6777 C   0  0  2  0  0  0  0  0  0  0  0  0
   20.0510    0.9850   38.5942 C   0  0  0  0  0  0  0  0  0  0  0  0
   18.8996    1.5889   38.7158 O   0  0  0  0  0  0  0  0  0  0  0  0
   21.4266    0.4336   40.6095 C   0  0  0  0  0  0  0  0  0  0  0  0
   21.4150    1.8416   41.0925 C   0  0  1  0  0  0  0  0  0  0  0  0
   20.3374    1.9135   42.1866 C   0  0  0  0  0  0  0  0  0  0  0  0
   22.7427    2.1077   41.8648 C   0  0  0  0  0  0  0  0  0  0  0  0
   20.7383    1.3696   37.4664 N   0  0  0  0  0  0  0  0  0  0  0  0
   20.2938    2.2818   36.4348 C   0  0  2  0  0  0  0  0  0  0  0  0
   21.1981    2.1655   35.2245 C   0  0  0  0  0  0  0  0  0  0  0  0
   21.1828    2.9964   34.2824 O   0  0  0  0  0  0  0  0  0  0  0  0
   20.0018    3.6623   36.8104 C   0  0  0  0  0  0  0  0  0  0  0  0
   21.0590    4.4568   37.4455 C   0  0  0  0  0  0  0  0  0  0  0  0
   21.1496    5.7902   37.0741 C   0  0  0  0  0  0  0  0  0  0  0  0
   21.9477    3.9437   38.3701 C   0  0  0  0  0  0  0  0  0  0  0  0
   22.1119    6.6295   37.6049 C   0  0  0  0  0  0  0  0  0  0  0  0
   22.9103    4.7593   38.9102 C   0  0  0  0  0  0  0  0  0  0  0  0
   22.9933    6.1122   38.5251 C   0  0  0  0  0  0  0  0  0  0  0  0
   22.1083    1.0935   35.1160 N   0  0  0  0  0  0  0  0  0  0  0  0
   22.4903    0.6517   33.7885 C   0  0  2  0  0  0  0  0  0  0  0  0
   21.2540    0.1126   33.0880 C   0  0  0  0  0  0  0  0  0  0  0  0
   20.6542    0.7868   32.0444 O   0  0  0  0  0  1  0  0  0  0  0  0
   23.4850   -0.4653   33.9634 C   0  0  0  0  0  0  0  0  0  0  0  0
   24.7819   -0.0624   34.5918 C   0  0  1  0  0  0  0  0  0  0  0  0
   25.6670   -1.2911   34.6970 C   0  0  0  0  0  0  0  0  0  0  0  0
   25.4554    0.9342   33.6825 C   0  0  0  0  0  0  0  0  0  0  0  0
   20.7664   -0.9751   33.4701 O   0  0  0  0  0  0  0  0  0  0  0  0
  2  1  1  1
  2  3  1  0
  2  5  1  0
  3  4  2  0
  3  9  1  0
  5  6  1  0
  6  7  1  0
  7  8  1  0
  9 10  1  0
 10 11  1  0
 10 13  1  1
 11 12  2  0
 11 23  1  0
 13 14  1  0
 14 15  2  0
 14 16  1  0
 15 17  1  0
 16 18  2  0
 16 19  1  0
 17 18  1  0
 18 20  1  0
 19 21  2  0
 20 22  2  0
 21 22  1  0
 23 24  1  0
 24 25  1  0
 24 27  1  6
 25 26  2  0
 25 31  1  0
 27 28  1  0
 28 29  1  1
 28 30  1  0
 31 32  1  0
 32 33  1  0
 32 35  1  1
 33 34  2  0
 33 39  1  0
 35 36  1  0
 36 37  1  6
 36 38  1  0
 39 40  1  0
 40 41  1  0
 40 43  1  1
 41 42  2  0
 41 47  1  0
 43 44  1  0
 44 45  1  1
 44 46  1  0
 47 48  1  0
 48 49  1  0
 48 51  1  6
 49 50  2  0
 49 55  1  0
 51 52  1  0
 52 53  1  1
 52 54  1  0
 55 56  1  0
 56 57  1  0
 56 59  1  1
 57 58  2  0
 57 66  1  0
 59 60  1  0
 60 61  2  0
 60 62  1  0
 61 63  1  0
 62 64  2  0
 63 65  2  0
 64 65  1  0
 66 67  1  0
 67 68  1  0
 67 70  1  1
 68 69  1  0
 68 74  2  0
 70 71  1  0
 71 72  1  6
 71 73  1  0
M  CHG  2   1   1  69  -1
M  END
$$$$
