
     RDKit          3D

 25 27  0  0  0  0  0  0  0  0999 V2000
   17.0038   24.1589   21.3531 C   0  0  0  0  0  0  0  0  0  0  0  0
   15.6653   23.8375   21.4250 C   0  0  0  0  0  0  0  0  0  0  0  0
   14.9300   23.6553   20.2956 C   0  0  0  0  0  0  0  0  0  0  0  0
   15.4863   23.7830   19.0305 C   0  0  0  0  0  0  0  0  0  0  0  0
   14.7263   23.5949   17.8966 C   0  0  0  0  0  0  0  0  0  0  0  0
   13.3867   23.2732   17.9708 C   0  0  0  0  0  0  0  0  0  0  0  0
   12.8295   23.1453   19.2241 C   0  0  0  0  0  0  0  0  0  0  0  0
   11.8113   28.1591   25.0335 C   0  0  0  0  0  0  0  0  0  0  0  0
   13.0543   28.8333   24.5572 C   0  0  0  0  0  0  0  0  0  0  0  0
   14.2174   28.1098   24.3913 C   0  0  0  0  0  0  0  0  0  0  0  0
   14.1675   26.7677   24.6821 F   0  0  0  0  0  0  0  0  0  0  0  0
   15.3750   28.6823   23.9593 C   0  0  0  0  0  0  0  0  0  0  0  0
   15.3632   30.0458   23.6808 C   0  0  0  0  0  0  0  0  0  0  0  0
   14.2116   30.7600   23.8455 C   0  0  0  0  0  0  0  0  0  0  0  0
   13.0580   30.1721   24.2797 C   0  0  0  0  0  0  0  0  0  0  0  0
   16.6252   27.9750   23.7664 C   0  0  0  0  0  0  0  0  0  0  0  0
   17.7151   28.6100   23.9657 O   0  0  0  0  0  0  0  0  0  0  0  0
   16.7929   26.6394   23.3761 N   0  0  0  0  0  0  0  0  0  0  0  0
   18.0550   26.0820   23.1507 N   0  0  0  0  0  0  0  0  0  0  0  0
   17.9518   24.3922   22.8273 S   0  0  1  0  0  6  0  0  0  0  0  0
   17.2645   23.6517   23.9091 O   0  0  0  0  0  0  0  0  0  0  0  0
   19.3423   23.8798   22.6421 O   0  0  0  0  0  0  0  0  0  0  0  0
   13.5883   23.3331   20.3606 C   0  0  0  0  0  0  0  0  0  0  0  0
   16.8255   24.1047   18.9849 C   0  0  0  0  0  0  0  0  0  0  0  0
   17.5729   24.2897   20.1062 C   0  0  0  0  0  0  0  0  0  0  0  0
  1  2  2  0
 20  1  1  0
  1 25  1  0
  2  3  1  0
  3  4  2  0
  3 23  1  0
  4  5  1  0
  4 24  1  0
  5  6  2  0
  7  6  1  0
 23  7  2  0
  9  8  1  0
 10  9  2  0
  9 15  1  0
 10 11  1  0
 12 10  1  0
 12 13  2  0
 16 12  1  0
 13 14  1  0
 14 15  2  0
 16 17  2  0
 18 16  1  0
 19 18  1  0
 20 19  1  1
 20 21  2  0
 20 22  2  0
 24 25  2  0
M  END
$$$$
