
     RDKit          3D

 25 27  0  0  0  0  0  0  0  0999 V2000
   19.2067   20.0742   37.8424 C   0  0  0  0  0  0  0  0  0  0  0  0
   20.1721   20.9241   38.3382 C   0  0  0  0  0  0  0  0  0  0  0  0
   20.1825   22.2412   37.9996 C   0  0  0  0  0  0  0  0  0  0  0  0
   19.2319   22.7864   37.1480 C   0  0  0  0  0  0  0  0  0  0  0  0
   19.2576   24.1234   36.8155 C   0  0  0  0  0  0  0  0  0  0  0  0
   20.2248   24.9723   37.3129 C   0  0  0  0  0  0  0  0  0  0  0  0
   21.1708   24.4362   38.1587 C   0  0  0  0  0  0  0  0  0  0  0  0
   17.2851   14.5425   31.7207 C   0  0  0  0  0  0  0  0  0  0  0  0
   18.4427   15.4457   31.9867 C   0  0  0  0  0  0  0  0  0  0  0  0
   18.8664   15.6696   33.2806 C   0  0  0  0  0  0  0  0  0  0  0  0
   18.1797   15.0301   34.2845 F   0  0  0  0  0  0  0  0  0  0  0  0
   19.9175   16.4853   33.5711 C   0  0  0  0  0  0  0  0  0  0  0  0
   20.5735   17.1050   32.5117 C   0  0  0  0  0  0  0  0  0  0  0  0
   20.1529   16.8824   31.2322 C   0  0  0  0  0  0  0  0  0  0  0  0
   19.0971   16.0616   30.9561 C   0  0  0  0  0  0  0  0  0  0  0  0
   20.4073   16.7582   34.9075 C   0  0  0  0  0  0  0  0  0  0  0  0
   21.6236   16.4746   35.1744 O   0  0  0  0  0  0  0  0  0  0  0  0
   19.6906   17.3117   35.9773 N   0  0  0  0  0  0  0  0  0  0  0  0
   20.2680   17.5173   37.2338 N   0  0  0  0  0  0  0  0  0  0  0  0
   19.2006   18.3636   38.2897 S   0  0  1  0  0  6  0  0  0  0  0  0
   19.6253   18.2819   39.7053 O   0  0  0  0  0  0  0  0  0  0  0  0
   17.8358   17.7822   38.1170 O   0  0  0  0  0  0  0  0  0  0  0  0
   21.1471   23.0981   38.4929 C   0  0  0  0  0  0  0  0  0  0  0  0
   18.2777   21.9169   36.6657 C   0  0  0  0  0  0  0  0  0  0  0  0
   18.2552   20.5975   36.9959 C   0  0  0  0  0  0  0  0  0  0  0  0
  1  2  2  0
 20  1  1  0
  1 25  1  0
  2  3  1  0
  3  4  2  0
  3 23  1  0
  4  5  1  0
  4 24  1  0
  5  6  2  0
  7  6  1  0
 23  7  2  0
  9  8  1  0
 10  9  2  0
  9 15  1  0
 10 11  1  0
 12 10  1  0
 12 13  2  0
 16 12  1  0
 13 14  1  0
 14 15  2  0
 16 17  2  0
 18 16  1  0
 19 18  1  0
 20 19  1  6
 20 21  2  0
 20 22  2  0
 24 25  2  0
M  END
$$$$
