
     RDKit          3D

 25 27  0  0  0  0  0  0  0  0999 V2000
   15.9783   30.4403   29.3948 C   0  0  0  0  0  0  0  0  0  0  0  0
   16.4915   30.5688   30.6677 C   0  0  0  0  0  0  0  0  0  0  0  0
   17.7811   30.9528   30.8645 C   0  0  0  0  0  0  0  0  0  0  0  0
   18.6328   31.2306   29.8044 C   0  0  0  0  0  0  0  0  0  0  0  0
   19.9370   31.6186   30.0222 C   0  0  0  0  0  0  0  0  0  0  0  0
   20.4486   31.7465   31.2971 C   0  0  0  0  0  0  0  0  0  0  0  0
   19.6074   31.4719   32.3529 C   0  0  0  0  0  0  0  0  0  0  0  0
   19.4795   25.2929   28.7008 C   0  0  0  0  0  0  0  0  0  0  0  0
   18.5290   25.5292   27.5751 C   0  0  0  0  0  0  0  0  0  0  0  0
   17.6790   26.6158   27.5998 C   0  0  0  0  0  0  0  0  0  0  0  0
   17.7554   27.4466   28.6917 F   0  0  0  0  0  0  0  0  0  0  0  0
   16.7954   26.8712   26.5955 C   0  0  0  0  0  0  0  0  0  0  0  0
   16.7645   25.9936   25.5159 C   0  0  0  0  0  0  0  0  0  0  0  0
   17.6062   24.9191   25.4932 C   0  0  0  0  0  0  0  0  0  0  0  0
   18.4872   24.6756   26.5078 C   0  0  0  0  0  0  0  0  0  0  0  0
   15.8798   27.9943   26.5659 C   0  0  0  0  0  0  0  0  0  0  0  0
   16.1364   28.9618   25.7728 O   0  0  0  0  0  0  0  0  0  0  0  0
   14.7112   28.1564   27.3227 N   0  0  0  0  0  0  0  0  0  0  0  0
   14.1195   29.4075   27.5206 N   0  0  0  0  0  0  0  0  0  0  0  0
   14.2997   29.9420   29.1493 S   0  0  1  0  0  6  0  0  0  0  0  0
   14.0156   28.8699   30.1295 O   0  0  0  0  0  0  0  0  0  0  0  0
   13.3755   31.0973   29.3526 O   0  0  0  0  0  0  0  0  0  0  0  0
   18.3015   31.0834   32.1373 C   0  0  0  0  0  0  0  0  0  0  0  0
   18.0967   31.0951   28.5422 C   0  0  0  0  0  0  0  0  0  0  0  0
   16.8088   30.7119   28.3307 C   0  0  0  0  0  0  0  0  0  0  0  0
  1  2  2  0
 20  1  1  0
  1 25  1  0
  2  3  1  0
  3  4  2  0
  3 23  1  0
  4  5  1  0
  4 24  1  0
  5  6  2  0
  7  6  1  0
 23  7  2  0
  9  8  1  0
 10  9  2  0
  9 15  1  0
 10 11  1  0
 12 10  1  0
 12 13  2  0
 16 12  1  0
 13 14  1  0
 14 15  2  0
 16 17  2  0
 18 16  1  0
 19 18  1  0
 20 19  1  6
 20 21  2  0
 20 22  2  0
 24 25  2  0
M  END
$$$$
