
     RDKit          3D

 25 27  0  0  0  0  0  0  0  0999 V2000
   13.6889   23.7116   21.5770 C   0  0  0  0  0  0  0  0  0  0  0  0
   14.9174   23.5293   20.9789 C   0  0  0  0  0  0  0  0  0  0  0  0
   16.0642   23.8815   21.6193 C   0  0  0  0  0  0  0  0  0  0  0  0
   16.0523   24.4355   22.8919 C   0  0  0  0  0  0  0  0  0  0  0  0
   17.2242   24.7866   23.5260 C   0  0  0  0  0  0  0  0  0  0  0  0
   18.4528   24.6032   22.9256 C   0  0  0  0  0  0  0  0  0  0  0  0
   18.4701   24.0537   21.6625 C   0  0  0  0  0  0  0  0  0  0  0  0
    7.9655   15.8442   18.5790 C   0  0  0  0  0  0  0  0  0  0  0  0
    8.4234   17.2482   18.3649 C   0  0  0  0  0  0  0  0  0  0  0  0
    9.3689   17.8059   19.2008 C   0  0  0  0  0  0  0  0  0  0  0  0
    9.8526   17.0155   20.2155 F   0  0  0  0  0  0  0  0  0  0  0  0
    9.8164   19.0824   19.0437 C   0  0  0  0  0  0  0  0  0  0  0  0
    9.2891   19.8337   17.9977 C   0  0  0  0  0  0  0  0  0  0  0  0
    8.3537   19.2803   17.1717 C   0  0  0  0  0  0  0  0  0  0  0  0
    7.9143   17.9986   17.3415 C   0  0  0  0  0  0  0  0  0  0  0  0
   10.8059   19.7212   19.8883 C   0  0  0  0  0  0  0  0  0  0  0  0
   11.7172   18.9926   20.4078 O   0  0  0  0  0  0  0  0  0  0  0  0
   10.8906   21.0811   20.2167 N   0  0  0  0  0  0  0  0  0  0  0  0
   11.8898   21.5843   21.0550 N   0  0  0  0  0  0  0  0  0  0  0  0
   12.2035   23.2490   20.7369 S   0  0  1  0  0  6  0  0  0  0  0  0
   11.1263   24.1318   21.2382 O   0  0  0  0  0  0  0  0  0  0  0  0
   12.3663   23.4062   19.2607 O   0  0  0  0  0  0  0  0  0  0  0  0
   17.2983   23.7014   21.0256 C   0  0  0  0  0  0  0  0  0  0  0  0
   14.8127   24.6077   23.4684 C   0  0  0  0  0  0  0  0  0  0  0  0
   13.6577   24.2600   22.8396 C   0  0  0  0  0  0  0  0  0  0  0  0
  1  2  2  0
 20  1  1  0
  1 25  1  0
  2  3  1  0
  3  4  2  0
  3 23  1  0
  4  5  1  0
  4 24  1  0
  5  6  2  0
  7  6  1  0
 23  7  2  0
  9  8  1  0
 10  9  2  0
  9 15  1  0
 10 11  1  0
 12 10  1  0
 12 13  2  0
 16 12  1  0
 13 14  1  0
 14 15  2  0
 16 17  2  0
 18 16  1  0
 19 18  1  0
 20 19  1  6
 20 21  2  0
 20 22  2  0
 24 25  2  0
M  END
$$$$
