
     RDKit          3D

 25 27  0  0  0  0  0  0  0  0999 V2000
   15.0708   23.5524   20.3947 C   0  0  0  0  0  0  0  0  0  0  0  0
   14.3393   23.2656   19.2621 C   0  0  0  0  0  0  0  0  0  0  0  0
   14.9406   23.1856   18.0450 C   0  0  0  0  0  0  0  0  0  0  0  0
   16.3048   23.3867   17.8870 C   0  0  0  0  0  0  0  0  0  0  0  0
   16.8976   23.3018   16.6459 C   0  0  0  0  0  0  0  0  0  0  0  0
   16.1635   23.0146   15.5136 C   0  0  0  0  0  0  0  0  0  0  0  0
   14.8090   22.8141   15.6649 C   0  0  0  0  0  0  0  0  0  0  0  0
   18.3493   28.6729   27.4234 C   0  0  0  0  0  0  0  0  0  0  0  0
   18.0938   28.3878   25.9812 C   0  0  0  0  0  0  0  0  0  0  0  0
   17.7160   27.1231   25.5791 C   0  0  0  0  0  0  0  0  0  0  0  0
   17.5916   26.1657   26.5569 F   0  0  0  0  0  0  0  0  0  0  0  0
   17.4724   26.8169   24.2747 C   0  0  0  0  0  0  0  0  0  0  0  0
   17.6152   27.8289   23.3302 C   0  0  0  0  0  0  0  0  0  0  0  0
   17.9890   29.0796   23.7298 C   0  0  0  0  0  0  0  0  0  0  0  0
   18.2300   29.3720   25.0417 C   0  0  0  0  0  0  0  0  0  0  0  0
   17.0735   25.5094   23.7933 C   0  0  0  0  0  0  0  0  0  0  0  0
   17.9875   24.6529   23.5445 O   0  0  0  0  0  0  0  0  0  0  0  0
   15.7691   25.0531   23.5592 N   0  0  0  0  0  0  0  0  0  0  0  0
   15.4968   23.7321   23.1912 N   0  0  0  0  0  0  0  0  0  0  0  0
   14.2802   23.6527   21.9730 S   0  0  1  0  0  6  0  0  0  0  0  0
   13.4211   24.8580   21.9542 O   0  0  0  0  0  0  0  0  0  0  0  0
   13.4622   22.4293   22.2275 O   0  0  0  0  0  0  0  0  0  0  0  0
   14.2134   22.8986   16.9062 C   0  0  0  0  0  0  0  0  0  0  0  0
   17.0140   23.6718   19.0335 C   0  0  0  0  0  0  0  0  0  0  0  0
   16.4258   23.7549   20.2571 C   0  0  0  0  0  0  0  0  0  0  0  0
  1  2  2  0
 20  1  1  0
  1 25  1  0
  2  3  1  0
  3  4  2  0
  3 23  1  0
  4  5  1  0
  4 24  1  0
  5  6  2  0
  7  6  1  0
 23  7  2  0
  9  8  1  0
 10  9  2  0
  9 15  1  0
 10 11  1  0
 12 10  1  0
 12 13  2  0
 16 12  1  0
 13 14  1  0
 14 15  2  0
 16 17  2  0
 18 16  1  0
 19 18  1  0
 20 19  1  1
 20 21  2  0
 20 22  2  0
 24 25  2  0
M  END
$$$$
