
     RDKit          3D

 25 27  0  0  0  0  0  0  0  0999 V2000
   17.0804   25.9898   23.4112 C   0  0  0  0  0  0  0  0  0  0  0  0
   17.3877   26.0576   24.7532 C   0  0  0  0  0  0  0  0  0  0  0  0
   18.6705   26.2379   25.1669 C   0  0  0  0  0  0  0  0  0  0  0  0
   19.7202   26.3608   24.2672 C   0  0  0  0  0  0  0  0  0  0  0  0
   21.0143   26.5430   24.7041 C   0  0  0  0  0  0  0  0  0  0  0  0
   21.3196   26.6107   26.0479 C   0  0  0  0  0  0  0  0  0  0  0  0
   20.2814   26.4893   26.9451 C   0  0  0  0  0  0  0  0  0  0  0  0
   16.3155   20.9233   15.8227 C   0  0  0  0  0  0  0  0  0  0  0  0
   16.9214   21.4426   17.0835 C   0  0  0  0  0  0  0  0  0  0  0  0
   16.1151   21.8261   18.1354 C   0  0  0  0  0  0  0  0  0  0  0  0
   14.7575   21.7058   17.9607 F   0  0  0  0  0  0  0  0  0  0  0  0
   16.6233   22.3056   19.3044 C   0  0  0  0  0  0  0  0  0  0  0  0
   18.0065   22.4042   19.4216 C   0  0  0  0  0  0  0  0  0  0  0  0
   18.8027   22.0243   18.3799 C   0  0  0  0  0  0  0  0  0  0  0  0
   18.2787   21.5452   17.2134 C   0  0  0  0  0  0  0  0  0  0  0  0
   15.8281   22.7231   20.4418 C   0  0  0  0  0  0  0  0  0  0  0  0
   14.8185   22.0114   20.7664 O   0  0  0  0  0  0  0  0  0  0  0  0
   16.0348   23.8453   21.2555 N   0  0  0  0  0  0  0  0  0  0  0  0
   15.2226   24.1257   22.3584 N   0  0  0  0  0  0  0  0  0  0  0  0
   15.4092   25.7568   22.8831 S   0  0  1  0  0  6  0  0  0  0  0  0
   14.5388   26.0816   24.0354 O   0  0  0  0  0  0  0  0  0  0  0  0
   15.0978   26.6450   21.7235 O   0  0  0  0  0  0  0  0  0  0  0  0
   18.9851   26.3068   26.5102 C   0  0  0  0  0  0  0  0  0  0  0  0
   19.3877   26.2897   22.9318 C   0  0  0  0  0  0  0  0  0  0  0  0
   18.1091   26.1097   22.5038 C   0  0  0  0  0  0  0  0  0  0  0  0
  1  2  2  0
 20  1  1  0
  1 25  1  0
  2  3  1  0
  3  4  2  0
  3 23  1  0
  4  5  1  0
  4 24  1  0
  5  6  2  0
  7  6  1  0
 23  7  2  0
  9  8  1  0
 10  9  2  0
  9 15  1  0
 10 11  1  0
 12 10  1  0
 12 13  2  0
 16 12  1  0
 13 14  1  0
 14 15  2  0
 16 17  2  0
 18 16  1  0
 19 18  1  0
 20 19  1  6
 20 21  2  0
 20 22  2  0
 24 25  2  0
M  END
$$$$
