
     RDKit          3D

 25 27  0  0  0  0  0  0  0  0999 V2000
   14.1684   21.8694   19.5421 C   0  0  0  0  0  0  0  0  0  0  0  0
   15.2368   22.6915   19.2545 C   0  0  0  0  0  0  0  0  0  0  0  0
   16.2853   22.2401   18.5153 C   0  0  0  0  0  0  0  0  0  0  0  0
   16.3289   20.9441   18.0206 C   0  0  0  0  0  0  0  0  0  0  0  0
   17.3994   20.5033   17.2732 C   0  0  0  0  0  0  0  0  0  0  0  0
   18.4678   21.3279   16.9866 C   0  0  0  0  0  0  0  0  0  0  0  0
   18.4294   22.6153   17.4753 C   0  0  0  0  0  0  0  0  0  0  0  0
    7.7488   16.2215   17.5862 C   0  0  0  0  0  0  0  0  0  0  0  0
    8.3825   16.9694   18.7111 C   0  0  0  0  0  0  0  0  0  0  0  0
    8.7605   18.2860   18.5446 C   0  0  0  0  0  0  0  0  0  0  0  0
    8.5263   18.8546   17.3157 F   0  0  0  0  0  0  0  0  0  0  0  0
    9.3419   19.0076   19.5424 C   0  0  0  0  0  0  0  0  0  0  0  0
    9.5533   18.3769   20.7647 C   0  0  0  0  0  0  0  0  0  0  0  0
    9.1787   17.0744   20.9277 C   0  0  0  0  0  0  0  0  0  0  0  0
    8.5966   16.3630   19.9178 C   0  0  0  0  0  0  0  0  0  0  0  0
    9.7594   20.3907   19.4268 C   0  0  0  0  0  0  0  0  0  0  0  0
    8.8561   21.2868   19.3161 O   0  0  0  0  0  0  0  0  0  0  0  0
   11.0715   20.8833   19.4211 N   0  0  0  0  0  0  0  0  0  0  0  0
   11.3588   22.2399   19.5994 N   0  0  0  0  0  0  0  0  0  0  0  0
   12.8092   22.4661   20.5026 S   0  0  1  0  0  6  0  0  0  0  0  0
   12.8067   21.7065   21.7731 O   0  0  0  0  0  0  0  0  0  0  0  0
   12.9563   23.9287   20.7661 O   0  0  0  0  0  0  0  0  0  0  0  0
   17.3589   23.0588   18.2236 C   0  0  0  0  0  0  0  0  0  0  0  0
   15.2496   20.1419   18.3214 C   0  0  0  0  0  0  0  0  0  0  0  0
   14.1943   20.5802   19.0595 C   0  0  0  0  0  0  0  0  0  0  0  0
  1  2  2  0
 20  1  1  0
  1 25  1  0
  2  3  1  0
  3  4  2  0
  3 23  1  0
  4  5  1  0
  4 24  1  0
  5  6  2  0
  7  6  1  0
 23  7  2  0
  9  8  1  0
 10  9  2  0
  9 15  1  0
 10 11  1  0
 12 10  1  0
 12 13  2  0
 16 12  1  0
 13 14  1  0
 14 15  2  0
 16 17  2  0
 18 16  1  0
 19 18  1  0
 20 19  1  6
 20 21  2  0
 20 22  2  0
 24 25  2  0
M  END
$$$$
