
     RDKit          3D

 25 27  0  0  0  0  0  0  0  0999 V2000
    7.1505   14.1650   15.7011 C   0  0  0  0  0  0  0  0  0  0  0  0
    6.3210   15.0720   15.0770 C   0  0  0  0  0  0  0  0  0  0  0  0
    6.6288   15.5688   13.8491 C   0  0  0  0  0  0  0  0  0  0  0  0
    7.7803   15.1904   13.1731 C   0  0  0  0  0  0  0  0  0  0  0  0
    8.0766   15.7040   11.9292 C   0  0  0  0  0  0  0  0  0  0  0  0
    7.2449   16.6118   11.3064 C   0  0  0  0  0  0  0  0  0  0  0  0
    6.1005   16.9907   11.9731 C   0  0  0  0  0  0  0  0  0  0  0  0
    9.0874   19.5785   21.9472 C   0  0  0  0  0  0  0  0  0  0  0  0
    9.5088   19.1377   20.5854 C   0  0  0  0  0  0  0  0  0  0  0  0
    9.1717   17.8809   20.1264 C   0  0  0  0  0  0  0  0  0  0  0  0
    8.4446   17.0788   20.9728 F   0  0  0  0  0  0  0  0  0  0  0  0
    9.5343   17.4359   18.8915 C   0  0  0  0  0  0  0  0  0  0  0  0
   10.2701   18.2941   18.0798 C   0  0  0  0  0  0  0  0  0  0  0  0
   10.6028   19.5371   18.5355 C   0  0  0  0  0  0  0  0  0  0  0  0
   10.2321   19.9698   19.7766 C   0  0  0  0  0  0  0  0  0  0  0  0
    9.2099   16.1289   18.3558 C   0  0  0  0  0  0  0  0  0  0  0  0
   10.0927   15.5271   17.6561 O   0  0  0  0  0  0  0  0  0  0  0  0
    8.0109   15.4207   18.5144 N   0  0  0  0  0  0  0  0  0  0  0  0
    7.9503   14.0273   18.4170 N   0  0  0  0  0  0  0  0  0  0  0  0
    6.7410   13.5235   17.2970 S   0  0  1  0  0  6  0  0  0  0  0  0
    5.3991   14.0429   17.6442 O   0  0  0  0  0  0  0  0  0  0  0  0
    6.7362   12.0302   17.2755 O   0  0  0  0  0  0  0  0  0  0  0  0
    5.8019   16.4779   13.2184 C   0  0  0  0  0  0  0  0  0  0  0  0
    8.5930   14.2830   13.8173 C   0  0  0  0  0  0  0  0  0  0  0  0
    8.2977   13.7779   15.0453 C   0  0  0  0  0  0  0  0  0  0  0  0
  1  2  2  0
 20  1  1  0
  1 25  1  0
  2  3  1  0
  3  4  2  0
  3 23  1  0
  4  5  1  0
  4 24  1  0
  5  6  2  0
  7  6  1  0
 23  7  2  0
  9  8  1  0
 10  9  2  0
  9 15  1  0
 10 11  1  0
 12 10  1  0
 12 13  2  0
 16 12  1  0
 13 14  1  0
 14 15  2  0
 16 17  2  0
 18 16  1  0
 19 18  1  0
 20 19  1  1
 20 21  2  0
 20 22  2  0
 24 25  2  0
M  END
$$$$
