
     RDKit          3D

 25 27  0  0  0  0  0  0  0  0999 V2000
   18.1326   25.9209   23.8540 C   0  0  0  0  0  0  0  0  0  0  0  0
   19.1018   26.8550   24.1510 C   0  0  0  0  0  0  0  0  0  0  0  0
   18.7873   27.9999   24.8140 C   0  0  0  0  0  0  0  0  0  0  0  0
   17.4895   28.2793   25.2190 C   0  0  0  0  0  0  0  0  0  0  0  0
   17.1887   29.4446   25.8900 C   0  0  0  0  0  0  0  0  0  0  0  0
   18.1604   30.3783   26.1862 C   0  0  0  0  0  0  0  0  0  0  0  0
   19.4502   30.1059   25.7865 C   0  0  0  0  0  0  0  0  0  0  0  0
   11.6060   22.0950   18.2498 C   0  0  0  0  0  0  0  0  0  0  0  0
   12.2115   22.7585   19.4413 C   0  0  0  0  0  0  0  0  0  0  0  0
   13.5318   23.1585   19.4178 C   0  0  0  0  0  0  0  0  0  0  0  0
   14.2393   22.9174   18.2647 F   0  0  0  0  0  0  0  0  0  0  0  0
   14.1265   23.7674   20.4809 C   0  0  0  0  0  0  0  0  0  0  0  0
   13.3585   23.9844   21.6209 C   0  0  0  0  0  0  0  0  0  0  0  0
   12.0524   23.5879   21.6424 C   0  0  0  0  0  0  0  0  0  0  0  0
   11.4694   22.9784   20.5684 C   0  0  0  0  0  0  0  0  0  0  0  0
   15.5065   24.2089   20.5148 C   0  0  0  0  0  0  0  0  0  0  0  0
   15.9969   24.7388   19.4613 O   0  0  0  0  0  0  0  0  0  0  0  0
   16.3981   24.1245   21.5929 N   0  0  0  0  0  0  0  0  0  0  0  0
   17.7535   24.4427   21.4654 N   0  0  0  0  0  0  0  0  0  0  0  0
   18.5516   24.4346   22.9930 S   0  0  1  0  0  6  0  0  0  0  0  0
   20.0256   24.4093   22.8591 O   0  0  0  0  0  0  0  0  0  0  0  0
   18.0728   23.2388   23.7489 O   0  0  0  0  0  0  0  0  0  0  0  0
   19.7537   28.9400   25.1146 C   0  0  0  0  0  0  0  0  0  0  0  0
   16.5389   27.3305   24.9107 C   0  0  0  0  0  0  0  0  0  0  0  0
   16.8392   26.1811   24.2481 C   0  0  0  0  0  0  0  0  0  0  0  0
  1  2  2  0
 20  1  1  0
  1 25  1  0
  2  3  1  0
  3  4  2  0
  3 23  1  0
  4  5  1  0
  4 24  1  0
  5  6  2  0
  7  6  1  0
 23  7  2  0
  9  8  1  0
 10  9  2  0
  9 15  1  0
 10 11  1  0
 12 10  1  0
 12 13  2  0
 16 12  1  0
 13 14  1  0
 14 15  2  0
 16 17  2  0
 18 16  1  0
 19 18  1  0
 20 19  1  6
 20 21  2  0
 20 22  2  0
 24 25  2  0
M  END
$$$$
