
     RDKit          3D

 25 27  0  0  0  0  0  0  0  0999 V2000
   18.8326   27.6808   23.3895 C   0  0  0  0  0  0  0  0  0  0  0  0
   19.1656   26.9874   22.2456 C   0  0  0  0  0  0  0  0  0  0  0  0
   19.6577   27.6350   21.1557 C   0  0  0  0  0  0  0  0  0  0  0  0
   19.8459   29.0100   21.1434 C   0  0  0  0  0  0  0  0  0  0  0  0
   20.3457   29.6499   20.0300 C   0  0  0  0  0  0  0  0  0  0  0  0
   20.6783   28.9539   18.8861 C   0  0  0  0  0  0  0  0  0  0  0  0
   20.4934   27.5889   18.8930 C   0  0  0  0  0  0  0  0  0  0  0  0
   15.0278   24.0449   18.3266 C   0  0  0  0  0  0  0  0  0  0  0  0
   14.4970   24.1682   19.7157 C   0  0  0  0  0  0  0  0  0  0  0  0
   15.3443   24.4846   20.7578 C   0  0  0  0  0  0  0  0  0  0  0  0
   16.6704   24.6747   20.4517 F   0  0  0  0  0  0  0  0  0  0  0  0
   14.9049   24.6076   22.0409 C   0  0  0  0  0  0  0  0  0  0  0  0
   13.5508   24.4031   22.2883 C   0  0  0  0  0  0  0  0  0  0  0  0
   12.7141   24.0901   21.2561 C   0  0  0  0  0  0  0  0  0  0  0  0
   13.1691   23.9701   19.9742 C   0  0  0  0  0  0  0  0  0  0  0  0
   15.7457   24.9372   23.1744 C   0  0  0  0  0  0  0  0  0  0  0  0
   15.1906   25.0857   24.3149 O   0  0  0  0  0  0  0  0  0  0  0  0
   17.1354   25.1192   23.1755 N   0  0  0  0  0  0  0  0  0  0  0  0
   17.8759   25.1949   24.3589 N   0  0  0  0  0  0  0  0  0  0  0  0
   18.1951   26.8297   24.8020 S   0  0  1  0  0  6  0  0  0  0  0  0
   19.2134   26.9358   25.8711 O   0  0  0  0  0  0  0  0  0  0  0  0
   16.9055   27.4403   25.2433 O   0  0  0  0  0  0  0  0  0  0  0  0
   19.9933   26.9461   20.0064 C   0  0  0  0  0  0  0  0  0  0  0  0
   19.5059   29.6805   22.2982 C   0  0  0  0  0  0  0  0  0  0  0  0
   19.0128   29.0458   23.3956 C   0  0  0  0  0  0  0  0  0  0  0  0
  1  2  2  0
 20  1  1  0
  1 25  1  0
  2  3  1  0
  3  4  2  0
  3 23  1  0
  4  5  1  0
  4 24  1  0
  5  6  2  0
  7  6  1  0
 23  7  2  0
  9  8  1  0
 10  9  2  0
  9 15  1  0
 10 11  1  0
 12 10  1  0
 12 13  2  0
 16 12  1  0
 13 14  1  0
 14 15  2  0
 16 17  2  0
 18 16  1  0
 19 18  1  0
 20 19  1  6
 20 21  2  0
 20 22  2  0
 24 25  2  0
M  END
$$$$
