
     RDKit          3D

 25 27  0  0  0  0  0  0  0  0999 V2000
    7.2809   14.4076   16.5290 C   0  0  0  0  0  0  0  0  0  0  0  0
    6.7352   15.2356   15.5715 C   0  0  0  0  0  0  0  0  0  0  0  0
    7.3162   15.3659   14.3489 C   0  0  0  0  0  0  0  0  0  0  0  0
    8.4737   14.6788   14.0106 C   0  0  0  0  0  0  0  0  0  0  0  0
    9.0490   14.8228   12.7668 C   0  0  0  0  0  0  0  0  0  0  0  0
    8.5011   15.6522   11.8099 C   0  0  0  0  0  0  0  0  0  0  0  0
    7.3521   16.3364   12.1405 C   0  0  0  0  0  0  0  0  0  0  0  0
   11.7916   20.5891   18.4218 C   0  0  0  0  0  0  0  0  0  0  0  0
   10.4315   20.1409   18.0024 C   0  0  0  0  0  0  0  0  0  0  0  0
    9.8396   19.0535   18.6116 C   0  0  0  0  0  0  0  0  0  0  0  0
   10.5551   18.4230   19.6008 F   0  0  0  0  0  0  0  0  0  0  0  0
    8.6008   18.6089   18.2619 C   0  0  0  0  0  0  0  0  0  0  0  0
    7.9253   19.2887   17.2529 C   0  0  0  0  0  0  0  0  0  0  0  0
    8.5125   20.3642   16.6513 C   0  0  0  0  0  0  0  0  0  0  0  0
    9.7556   20.7988   17.0125 C   0  0  0  0  0  0  0  0  0  0  0  0
    7.9292   17.4748   18.8647 C   0  0  0  0  0  0  0  0  0  0  0  0
    6.9650   17.7027   19.6706 O   0  0  0  0  0  0  0  0  0  0  0  0
    8.2143   16.1168   18.6675 N   0  0  0  0  0  0  0  0  0  0  0  0
    7.4643   15.1029   19.2708 N   0  0  0  0  0  0  0  0  0  0  0  0
    6.5173   14.2436   18.1153 S   0  0  1  0  0  6  0  0  0  0  0  0
    5.1447   14.7848   17.9962 O   0  0  0  0  0  0  0  0  0  0  0  0
    6.4816   12.8103   18.5334 O   0  0  0  0  0  0  0  0  0  0  0  0
    6.7745   16.1939   13.3850 C   0  0  0  0  0  0  0  0  0  0  0  0
    8.9997   13.8578   14.9842 C   0  0  0  0  0  0  0  0  0  0  0  0
    8.4293   13.7178   16.2112 C   0  0  0  0  0  0  0  0  0  0  0  0
  1  2  2  0
 20  1  1  0
  1 25  1  0
  2  3  1  0
  3  4  2  0
  3 23  1  0
  4  5  1  0
  4 24  1  0
  5  6  2  0
  7  6  1  0
 23  7  2  0
  9  8  1  0
 10  9  2  0
  9 15  1  0
 10 11  1  0
 12 10  1  0
 12 13  2  0
 16 12  1  0
 13 14  1  0
 14 15  2  0
 16 17  2  0
 18 16  1  0
 19 18  1  0
 20 19  1  1
 20 21  2  0
 20 22  2  0
 24 25  2  0
M  END
$$$$
