
     RDKit          3D

 25 27  0  0  0  0  0  0  0  0999 V2000
   18.5851   26.4366   23.1166 C   0  0  0  0  0  0  0  0  0  0  0  0
   19.0951   26.5549   24.3918 C   0  0  0  0  0  0  0  0  0  0  0  0
   20.4173   26.8004   24.5942 C   0  0  0  0  0  0  0  0  0  0  0  0
   21.3065   26.9418   23.5380 C   0  0  0  0  0  0  0  0  0  0  0  0
   22.6433   27.1903   23.7615 C   0  0  0  0  0  0  0  0  0  0  0  0
   23.1517   27.3084   25.0387 C   0  0  0  0  0  0  0  0  0  0  0  0
   22.2733   27.1688   26.0907 C   0  0  0  0  0  0  0  0  0  0  0  0
   12.0566   22.1556   17.4563 C   0  0  0  0  0  0  0  0  0  0  0  0
   13.3813   22.6966   17.8794 C   0  0  0  0  0  0  0  0  0  0  0  0
   13.6818   22.8293   19.2195 C   0  0  0  0  0  0  0  0  0  0  0  0
   12.7169   22.4450   20.1192 F   0  0  0  0  0  0  0  0  0  0  0  0
   14.8771   23.3179   19.6521 C   0  0  0  0  0  0  0  0  0  0  0  0
   15.8142   23.6905   18.6931 C   0  0  0  0  0  0  0  0  0  0  0  0
   15.5151   23.5585   17.3677 C   0  0  0  0  0  0  0  0  0  0  0  0
   14.3120   23.0669   16.9487 C   0  0  0  0  0  0  0  0  0  0  0  0
   15.2489   23.4799   21.0435 C   0  0  0  0  0  0  0  0  0  0  0  0
   14.3828   23.1936   21.9372 O   0  0  0  0  0  0  0  0  0  0  0  0
   16.4788   23.9256   21.5466 N   0  0  0  0  0  0  0  0  0  0  0  0
   16.6181   24.4132   22.8495 N   0  0  0  0  0  0  0  0  0  0  0  0
   16.8643   26.1190   22.8636 S   0  0  1  0  0  6  0  0  0  0  0  0
   16.1317   26.7856   23.9636 O   0  0  0  0  0  0  0  0  0  0  0  0
   16.4225   26.6523   21.5403 O   0  0  0  0  0  0  0  0  0  0  0  0
   20.9347   26.9201   25.8694 C   0  0  0  0  0  0  0  0  0  0  0  0
   20.7727   26.8194   22.2735 C   0  0  0  0  0  0  0  0  0  0  0  0
   19.4525   26.5740   22.0562 C   0  0  0  0  0  0  0  0  0  0  0  0
  1  2  2  0
 20  1  1  0
  1 25  1  0
  2  3  1  0
  3  4  2  0
  3 23  1  0
  4  5  1  0
  4 24  1  0
  5  6  2  0
  7  6  1  0
 23  7  2  0
  9  8  1  0
 10  9  2  0
  9 15  1  0
 10 11  1  0
 12 10  1  0
 12 13  2  0
 16 12  1  0
 13 14  1  0
 14 15  2  0
 16 17  2  0
 18 16  1  0
 19 18  1  0
 20 19  1  6
 20 21  2  0
 20 22  2  0
 24 25  2  0
M  END
$$$$
