
     RDKit          3D

 25 27  0  0  0  0  0  0  0  0999 V2000
    8.1778   18.3454   18.8032 C   0  0  0  0  0  0  0  0  0  0  0  0
    9.0443   17.3699   18.3585 C   0  0  0  0  0  0  0  0  0  0  0  0
    8.8809   16.7960   17.1365 C   0  0  0  0  0  0  0  0  0  0  0  0
    7.8450   17.1612   16.2881 C   0  0  0  0  0  0  0  0  0  0  0  0
    7.6943   16.5689   15.0530 C   0  0  0  0  0  0  0  0  0  0  0  0
    8.5628   15.5927   14.6100 C   0  0  0  0  0  0  0  0  0  0  0  0
    9.5928   15.2265   15.4483 C   0  0  0  0  0  0  0  0  0  0  0  0
   14.7928   23.1847   16.7845 C   0  0  0  0  0  0  0  0  0  0  0  0
   14.2229   22.8241   18.1156 C   0  0  0  0  0  0  0  0  0  0  0  0
   12.8669   22.6114   18.2564 C   0  0  0  0  0  0  0  0  0  0  0  0
   12.0909   22.7471   17.1304 F   0  0  0  0  0  0  0  0  0  0  0  0
   12.3026   22.2807   19.4509 C   0  0  0  0  0  0  0  0  0  0  0  0
   13.1401   22.1579   20.5554 C   0  0  0  0  0  0  0  0  0  0  0  0
   14.4814   22.3686   20.4142 C   0  0  0  0  0  0  0  0  0  0  0  0
   15.0333   22.6998   19.2098 C   0  0  0  0  0  0  0  0  0  0  0  0
   10.8878   22.0456   19.6597 C   0  0  0  0  0  0  0  0  0  0  0  0
   10.0906   23.0391   19.5673 O   0  0  0  0  0  0  0  0  0  0  0  0
   10.2655   20.8261   19.9597 N   0  0  0  0  0  0  0  0  0  0  0  0
    8.8871   20.7250   20.1702 N   0  0  0  0  0  0  0  0  0  0  0  0
    8.3996   19.0869   20.3929 S   0  0  1  0  0  6  0  0  0  0  0  0
    7.1094   18.9748   21.1098 O   0  0  0  0  0  0  0  0  0  0  0  0
    9.4824   18.3899   21.1492 O   0  0  0  0  0  0  0  0  0  0  0  0
    9.7456   15.8179   16.6851 C   0  0  0  0  0  0  0  0  0  0  0  0
    6.9925   18.1380   16.7549 C   0  0  0  0  0  0  0  0  0  0  0  0
    7.1440   18.7206   17.9747 C   0  0  0  0  0  0  0  0  0  0  0  0
  1  2  2  0
 20  1  1  0
  1 25  1  0
  2  3  1  0
  3  4  2  0
  3 23  1  0
  4  5  1  0
  4 24  1  0
  5  6  2  0
  7  6  1  0
 23  7  2  0
  9  8  1  0
 10  9  2  0
  9 15  1  0
 10 11  1  0
 12 10  1  0
 12 13  2  0
 16 12  1  0
 13 14  1  0
 14 15  2  0
 16 17  2  0
 18 16  1  0
 19 18  1  0
 20 19  1  6
 20 21  2  0
 20 22  2  0
 24 25  2  0
M  END
$$$$
