
     RDKit          3D

 25 27  0  0  0  0  0  0  0  0999 V2000
   16.2412   25.1818   23.5176 C   0  0  0  0  0  0  0  0  0  0  0  0
   14.8725   25.3323   23.5811 C   0  0  0  0  0  0  0  0  0  0  0  0
   14.3153   26.3626   24.2720 C   0  0  0  0  0  0  0  0  0  0  0  0
   15.0899   27.3014   24.9390 C   0  0  0  0  0  0  0  0  0  0  0  0
   14.5083   28.3392   25.6344 C   0  0  0  0  0  0  0  0  0  0  0  0
   13.1380   28.4879   25.6966 C   0  0  0  0  0  0  0  0  0  0  0  0
   12.3646   27.5588   25.0363 C   0  0  0  0  0  0  0  0  0  0  0  0
   17.4342   20.6608   15.4627 C   0  0  0  0  0  0  0  0  0  0  0  0
   16.4542   21.5726   16.1220 C   0  0  0  0  0  0  0  0  0  0  0  0
   16.8107   22.2728   17.2563 C   0  0  0  0  0  0  0  0  0  0  0  0
   18.0864   22.0874   17.7321 F   0  0  0  0  0  0  0  0  0  0  0  0
   15.9501   23.1157   17.8914 C   0  0  0  0  0  0  0  0  0  0  0  0
   14.6714   23.2619   17.3619 C   0  0  0  0  0  0  0  0  0  0  0  0
   14.3205   22.5684   16.2397 C   0  0  0  0  0  0  0  0  0  0  0  0
   15.1944   21.7265   15.6134 C   0  0  0  0  0  0  0  0  0  0  0  0
   16.2671   23.8763   19.0837 C   0  0  0  0  0  0  0  0  0  0  0  0
   15.6177   24.9539   19.3028 O   0  0  0  0  0  0  0  0  0  0  0  0
   17.2273   23.5674   20.0568 N   0  0  0  0  0  0  0  0  0  0  0  0
   17.5323   24.4398   21.1058 N   0  0  0  0  0  0  0  0  0  0  0  0
   16.9563   23.8399   22.6154 S   0  0  1  0  0  6  0  0  0  0  0  0
   18.0425   23.2820   23.4521 O   0  0  0  0  0  0  0  0  0  0  0  0
   15.9278   22.7963   22.3264 O   0  0  0  0  0  0  0  0  0  0  0  0
   12.9445   26.5191   24.3396 C   0  0  0  0  0  0  0  0  0  0  0  0
   16.4548   27.1295   24.8607 C   0  0  0  0  0  0  0  0  0  0  0  0
   17.0258   26.1039   24.1734 C   0  0  0  0  0  0  0  0  0  0  0  0
  1  2  2  0
 20  1  1  0
  1 25  1  0
  2  3  1  0
  3  4  2  0
  3 23  1  0
  4  5  1  0
  4 24  1  0
  5  6  2  0
  7  6  1  0
 23  7  2  0
  9  8  1  0
 10  9  2  0
  9 15  1  0
 10 11  1  0
 12 10  1  0
 12 13  2  0
 16 12  1  0
 13 14  1  0
 14 15  2  0
 16 17  2  0
 18 16  1  0
 19 18  1  0
 20 19  1  6
 20 21  2  0
 20 22  2  0
 24 25  2  0
M  END
$$$$
