
     RDKit          3D

 25 27  0  0  0  0  0  0  0  0999 V2000
   22.6368   17.6161   36.1368 C   0  0  0  0  0  0  0  0  0  0  0  0
   22.5340   17.1252   37.4208 C   0  0  0  0  0  0  0  0  0  0  0  0
   23.0883   15.9298   37.7571 C   0  0  0  0  0  0  0  0  0  0  0  0
   23.7765   15.1555   36.8334 C   0  0  0  0  0  0  0  0  0  0  0  0
   24.3320   13.9464   37.1916 C   0  0  0  0  0  0  0  0  0  0  0  0
   24.2279   13.4569   38.4774 C   0  0  0  0  0  0  0  0  0  0  0  0
   23.5458   14.2216   39.3981 C   0  0  0  0  0  0  0  0  0  0  0  0
   16.9583   13.8380   31.4586 C   0  0  0  0  0  0  0  0  0  0  0  0
   17.5314   15.2097   31.5867 C   0  0  0  0  0  0  0  0  0  0  0  0
   17.9717   15.6673   32.8117 C   0  0  0  0  0  0  0  0  0  0  0  0
   17.8554   14.8102   33.8795 F   0  0  0  0  0  0  0  0  0  0  0  0
   18.5015   16.9109   32.9761 C   0  0  0  0  0  0  0  0  0  0  0  0
   18.5933   17.7333   31.8572 C   0  0  0  0  0  0  0  0  0  0  0  0
   18.1572   17.2789   30.6460 C   0  0  0  0  0  0  0  0  0  0  0  0
   17.6280   16.0290   30.4963 C   0  0  0  0  0  0  0  0  0  0  0  0
   18.9798   17.4457   34.2354 C   0  0  0  0  0  0  0  0  0  0  0  0
   18.6978   16.8108   35.3070 O   0  0  0  0  0  0  0  0  0  0  0  0
   19.7369   18.6090   34.4303 N   0  0  0  0  0  0  0  0  0  0  0  0
   20.1999   18.9938   35.6921 N   0  0  0  0  0  0  0  0  0  0  0  0
   21.9141   19.1722   35.7097 S   0  0  1  0  0  6  0  0  0  0  0  0
   22.3685   20.1553   36.7186 O   0  0  0  0  0  0  0  0  0  0  0  0
   22.3410   19.5896   34.3408 O   0  0  0  0  0  0  0  0  0  0  0  0
   22.9889   15.4323   39.0419 C   0  0  0  0  0  0  0  0  0  0  0  0
   23.8656   15.6675   35.5572 C   0  0  0  0  0  0  0  0  0  0  0  0
   23.3161   16.8615   35.2069 C   0  0  0  0  0  0  0  0  0  0  0  0
  1  2  2  0
 20  1  1  0
  1 25  1  0
  2  3  1  0
  3  4  2  0
  3 23  1  0
  4  5  1  0
  4 24  1  0
  5  6  2  0
  7  6  1  0
 23  7  2  0
  9  8  1  0
 10  9  2  0
  9 15  1  0
 10 11  1  0
 12 10  1  0
 12 13  2  0
 16 12  1  0
 13 14  1  0
 14 15  2  0
 16 17  2  0
 18 16  1  0
 19 18  1  0
 20 19  1  6
 20 21  2  0
 20 22  2  0
 24 25  2  0
M  END
$$$$
