
     RDKit          3D

 25 27  0  0  0  0  0  0  0  0999 V2000
   19.5124   20.6109   38.0938 C   0  0  0  0  0  0  0  0  0  0  0  0
   18.5283   19.8169   37.5450 C   0  0  0  0  0  0  0  0  0  0  0  0
   18.5046   19.5578   36.2102 C   0  0  0  0  0  0  0  0  0  0  0  0
   19.4599   20.0749   35.3463 C   0  0  0  0  0  0  0  0  0  0  0  0
   19.4206   19.8020   33.9962 C   0  0  0  0  0  0  0  0  0  0  0  0
   18.4346   19.0071   33.4490 C   0  0  0  0  0  0  0  0  0  0  0  0
   17.4839   18.4912   34.3021 C   0  0  0  0  0  0  0  0  0  0  0  0
   14.0159   27.1973   41.7659 C   0  0  0  0  0  0  0  0  0  0  0  0
   14.5442   26.2917   40.7041 C   0  0  0  0  0  0  0  0  0  0  0  0
   15.8290   25.7958   40.7898 C   0  0  0  0  0  0  0  0  0  0  0  0
   16.5751   26.1735   41.8801 F   0  0  0  0  0  0  0  0  0  0  0  0
   16.3533   24.9668   39.8451 C   0  0  0  0  0  0  0  0  0  0  0  0
   15.5489   24.6200   38.7637 C   0  0  0  0  0  0  0  0  0  0  0  0
   14.2781   25.1115   38.6806 C   0  0  0  0  0  0  0  0  0  0  0  0
   13.7657   25.9421   39.6358 C   0  0  0  0  0  0  0  0  0  0  0  0
   17.6931   24.4155   39.8810 C   0  0  0  0  0  0  0  0  0  0  0  0
   18.6787   25.2264   39.9274 O   0  0  0  0  0  0  0  0  0  0  0  0
   18.0539   23.0612   39.8709 N   0  0  0  0  0  0  0  0  0  0  0  0
   19.3723   22.6399   40.0681 N   0  0  0  0  0  0  0  0  0  0  0  0
   19.5357   20.9406   39.8307 S   0  0  1  0  0  6  0  0  0  0  0  0
   18.4205   20.1770   40.4343 O   0  0  0  0  0  0  0  0  0  0  0  0
   20.8403   20.5227   40.4256 O   0  0  0  0  0  0  0  0  0  0  0  0
   17.5212   18.7630   35.6539 C   0  0  0  0  0  0  0  0  0  0  0  0
   20.4328   20.8652   35.9187 C   0  0  0  0  0  0  0  0  0  0  0  0
   20.4688   21.1327   37.2519 C   0  0  0  0  0  0  0  0  0  0  0  0
  1  2  2  0
 20  1  1  0
  1 25  1  0
  2  3  1  0
  3  4  2  0
  3 23  1  0
  4  5  1  0
  4 24  1  0
  5  6  2  0
  7  6  1  0
 23  7  2  0
  9  8  1  0
 10  9  2  0
  9 15  1  0
 10 11  1  0
 12 10  1  0
 12 13  2  0
 16 12  1  0
 13 14  1  0
 14 15  2  0
 16 17  2  0
 18 16  1  0
 19 18  1  0
 20 19  1  6
 20 21  2  0
 20 22  2  0
 24 25  2  0
M  END
$$$$
