
     RDKit          3D

 25 27  0  0  0  0  0  0  0  0999 V2000
   15.4208   25.9210   24.4663 C   0  0  0  0  0  0  0  0  0  0  0  0
   15.7712   26.3269   25.7362 C   0  0  0  0  0  0  0  0  0  0  0  0
   15.0110   27.2267   26.4157 C   0  0  0  0  0  0  0  0  0  0  0  0
   13.8585   27.7734   25.8687 C   0  0  0  0  0  0  0  0  0  0  0  0
   13.0999   28.6841   26.5716 C   0  0  0  0  0  0  0  0  0  0  0  0
   13.4526   29.0889   27.8426 C   0  0  0  0  0  0  0  0  0  0  0  0
   14.5957   28.5493   28.3901 C   0  0  0  0  0  0  0  0  0  0  0  0
   20.0477   31.7699   23.5760 C   0  0  0  0  0  0  0  0  0  0  0  0
   20.3653   30.3752   24.0006 C   0  0  0  0  0  0  0  0  0  0  0  0
   19.6784   29.3095   23.4562 C   0  0  0  0  0  0  0  0  0  0  0  0
   18.7101   29.5981   22.5248 F   0  0  0  0  0  0  0  0  0  0  0  0
   19.9340   28.0205   23.8131 C   0  0  0  0  0  0  0  0  0  0  0  0
   20.9264   27.7915   24.7615 C   0  0  0  0  0  0  0  0  0  0  0  0
   21.6050   28.8470   25.2991 C   0  0  0  0  0  0  0  0  0  0  0  0
   21.3377   30.1347   24.9314 C   0  0  0  0  0  0  0  0  0  0  0  0
   19.2469   26.8626   23.2768 C   0  0  0  0  0  0  0  0  0  0  0  0
   19.9205   25.7938   23.0898 O   0  0  0  0  0  0  0  0  0  0  0  0
   17.8932   26.7660   22.9269 N   0  0  0  0  0  0  0  0  0  0  0  0
   17.3401   25.5922   22.4065 N   0  0  0  0  0  0  0  0  0  0  0  0
   16.4148   24.7494   23.5915 S   0  0  1  0  0  6  0  0  0  0  0  0
   17.2664   24.0674   24.5919 O   0  0  0  0  0  0  0  0  0  0  0  0
   15.5526   23.7619   22.8761 O   0  0  0  0  0  0  0  0  0  0  0  0
   15.3566   27.6375   27.6884 C   0  0  0  0  0  0  0  0  0  0  0  0
   13.5293   27.3521   24.5987 C   0  0  0  0  0  0  0  0  0  0  0  0
   14.2803   26.4529   23.9075 C   0  0  0  0  0  0  0  0  0  0  0  0
  1  2  2  0
 20  1  1  0
  1 25  1  0
  2  3  1  0
  3  4  2  0
  3 23  1  0
  4  5  1  0
  4 24  1  0
  5  6  2  0
  7  6  1  0
 23  7  2  0
  9  8  1  0
 10  9  2  0
  9 15  1  0
 10 11  1  0
 12 10  1  0
 12 13  2  0
 16 12  1  0
 13 14  1  0
 14 15  2  0
 16 17  2  0
 18 16  1  0
 19 18  1  0
 20 19  1  6
 20 21  2  0
 20 22  2  0
 24 25  2  0
M  END
$$$$
