
     RDKit          3D

 25 27  0  0  0  0  0  0  0  0999 V2000
   13.4257   25.5859   22.7814 C   0  0  0  0  0  0  0  0  0  0  0  0
   14.3773   26.0290   23.6748 C   0  0  0  0  0  0  0  0  0  0  0  0
   14.6525   27.3549   23.8004 C   0  0  0  0  0  0  0  0  0  0  0  0
   13.9953   28.3146   23.0432 C   0  0  0  0  0  0  0  0  0  0  0  0
   14.2868   29.6540   23.1834 C   0  0  0  0  0  0  0  0  0  0  0  0
   15.2397   30.0954   24.0783 C   0  0  0  0  0  0  0  0  0  0  0  0
   15.8950   29.1469   24.8324 C   0  0  0  0  0  0  0  0  0  0  0  0
   19.6413   21.4644   17.4489 C   0  0  0  0  0  0  0  0  0  0  0  0
   19.1214   22.2638   18.5966 C   0  0  0  0  0  0  0  0  0  0  0  0
   17.7664   22.4879   18.7302 C   0  0  0  0  0  0  0  0  0  0  0  0
   16.9443   21.9470   17.7712 F   0  0  0  0  0  0  0  0  0  0  0  0
   17.2468   23.2109   19.7605 C   0  0  0  0  0  0  0  0  0  0  0  0
   18.1300   23.7333   20.7006 C   0  0  0  0  0  0  0  0  0  0  0  0
   19.4701   23.5107   20.5668 C   0  0  0  0  0  0  0  0  0  0  0  0
   19.9769   22.7834   19.5281 C   0  0  0  0  0  0  0  0  0  0  0  0
   15.8356   23.4790   19.9531 C   0  0  0  0  0  0  0  0  0  0  0  0
   15.1786   23.9829   18.9807 O   0  0  0  0  0  0  0  0  0  0  0  0
   15.0779   23.2470   21.1091 N   0  0  0  0  0  0  0  0  0  0  0  0
   13.6813   23.3110   21.1098 N   0  0  0  0  0  0  0  0  0  0  0  0
   13.0739   23.8601   22.6265 S   0  0  1  0  0  6  0  0  0  0  0  0
   13.7183   23.1794   23.7721 O   0  0  0  0  0  0  0  0  0  0  0  0
   11.5993   23.6233   22.6374 O   0  0  0  0  0  0  0  0  0  0  0  0
   15.6048   27.8055   24.6937 C   0  0  0  0  0  0  0  0  0  0  0  0
   13.0488   27.8469   22.1576 C   0  0  0  0  0  0  0  0  0  0  0  0
   12.7634   26.5239   22.0215 C   0  0  0  0  0  0  0  0  0  0  0  0
  1  2  2  0
 20  1  1  0
  1 25  1  0
  2  3  1  0
  3  4  2  0
  3 23  1  0
  4  5  1  0
  4 24  1  0
  5  6  2  0
  7  6  1  0
 23  7  2  0
  9  8  1  0
 10  9  2  0
  9 15  1  0
 10 11  1  0
 12 10  1  0
 12 13  2  0
 16 12  1  0
 13 14  1  0
 14 15  2  0
 16 17  2  0
 18 16  1  0
 19 18  1  0
 20 19  1  6
 20 21  2  0
 20 22  2  0
 24 25  2  0
M  END
$$$$
