
     RDKit          3D

 25 27  0  0  0  0  0  0  0  0999 V2000
    8.7873   18.7343   20.3343 C   0  0  0  0  0  0  0  0  0  0  0  0
    8.8071   17.5816   21.0900 C   0  0  0  0  0  0  0  0  0  0  0  0
    9.0284   17.6303   22.4309 C   0  0  0  0  0  0  0  0  0  0  0  0
    9.2425   18.8299   23.0952 C   0  0  0  0  0  0  0  0  0  0  0  0
    9.4653   18.8607   24.4547 C   0  0  0  0  0  0  0  0  0  0  0  0
    9.4847   17.7057   25.2092 C   0  0  0  0  0  0  0  0  0  0  0  0
    9.2726   16.5123   24.5547 C   0  0  0  0  0  0  0  0  0  0  0  0
   13.5013   24.4824   18.1829 C   0  0  0  0  0  0  0  0  0  0  0  0
   13.7143   23.0777   17.7271 C   0  0  0  0  0  0  0  0  0  0  0  0
   12.8153   22.0904   18.0750 C   0  0  0  0  0  0  0  0  0  0  0  0
   11.7405   22.4645   18.8451 F   0  0  0  0  0  0  0  0  0  0  0  0
   12.9688   20.7955   17.6821 C   0  0  0  0  0  0  0  0  0  0  0  0
   14.0775   20.4779   16.9033 C   0  0  0  0  0  0  0  0  0  0  0  0
   14.9658   21.4560   16.5601 C   0  0  0  0  0  0  0  0  0  0  0  0
   14.7988   22.7505   16.9614 C   0  0  0  0  0  0  0  0  0  0  0  0
   12.0596   19.7173   18.0158 C   0  0  0  0  0  0  0  0  0  0  0  0
   12.5007   18.7548   18.7300 O   0  0  0  0  0  0  0  0  0  0  0  0
   10.7147   19.5949   17.6408 N   0  0  0  0  0  0  0  0  0  0  0  0
   10.0037   18.4012   17.7958 N   0  0  0  0  0  0  0  0  0  0  0  0
    8.4972   18.6608   18.5917 S   0  0  1  0  0  6  0  0  0  0  0  0
    7.5373   17.5590   18.3558 O   0  0  0  0  0  0  0  0  0  0  0  0
    7.9407   19.9560   18.0986 O   0  0  0  0  0  0  0  0  0  0  0  0
    9.0495   16.4790   23.1939 C   0  0  0  0  0  0  0  0  0  0  0  0
    9.2180   19.9678   22.3183 C   0  0  0  0  0  0  0  0  0  0  0  0
    8.9978   19.9339   20.9764 C   0  0  0  0  0  0  0  0  0  0  0  0
  1  2  2  0
 20  1  1  0
  1 25  1  0
  2  3  1  0
  3  4  2  0
  3 23  1  0
  4  5  1  0
  4 24  1  0
  5  6  2  0
  7  6  1  0
 23  7  2  0
  9  8  1  0
 10  9  2  0
  9 15  1  0
 10 11  1  0
 12 10  1  0
 12 13  2  0
 16 12  1  0
 13 14  1  0
 14 15  2  0
 16 17  2  0
 18 16  1  0
 19 18  1  0
 20 19  1  6
 20 21  2  0
 20 22  2  0
 24 25  2  0
M  END
$$$$
