
     RDKit          3D

 25 27  0  0  0  0  0  0  0  0999 V2000
   15.6206   23.5278   19.8632 C   0  0  0  0  0  0  0  0  0  0  0  0
   15.6242   22.1936   19.5170 C   0  0  0  0  0  0  0  0  0  0  0  0
   16.1886   21.7766   18.3521 C   0  0  0  0  0  0  0  0  0  0  0  0
   16.7813   22.6652   17.4659 C   0  0  0  0  0  0  0  0  0  0  0  0
   17.3485   22.2252   16.2896 C   0  0  0  0  0  0  0  0  0  0  0  0
   17.3510   20.8891   15.9451 C   0  0  0  0  0  0  0  0  0  0  0  0
   16.7639   20.0030   16.8213 C   0  0  0  0  0  0  0  0  0  0  0  0
   21.3924   27.9324   23.1687 C   0  0  0  0  0  0  0  0  0  0  0  0
   19.9523   28.0038   23.5531 C   0  0  0  0  0  0  0  0  0  0  0  0
   19.1463   26.8899   23.4379 C   0  0  0  0  0  0  0  0  0  0  0  0
   19.7298   25.7407   22.9614 F   0  0  0  0  0  0  0  0  0  0  0  0
   17.8274   26.9082   23.7765 C   0  0  0  0  0  0  0  0  0  0  0  0
   17.2935   28.1017   24.2531 C   0  0  0  0  0  0  0  0  0  0  0  0
   18.0924   29.2027   24.3664 C   0  0  0  0  0  0  0  0  0  0  0  0
   19.4137   29.1694   24.0230 C   0  0  0  0  0  0  0  0  0  0  0  0
   16.9328   25.7722   23.6774 C   0  0  0  0  0  0  0  0  0  0  0  0
   15.9815   25.6772   24.5242 O   0  0  0  0  0  0  0  0  0  0  0  0
   16.9827   24.7322   22.7391 N   0  0  0  0  0  0  0  0  0  0  0  0
   15.9927   23.7480   22.6646 N   0  0  0  0  0  0  0  0  0  0  0  0
   14.8858   24.0600   21.3808 S   0  0  1  0  0  6  0  0  0  0  0  0
   14.5818   25.5014   21.2359 O   0  0  0  0  0  0  0  0  0  0  0  0
   13.6390   23.2861   21.6585 O   0  0  0  0  0  0  0  0  0  0  0  0
   16.1955   20.4411   17.9993 C   0  0  0  0  0  0  0  0  0  0  0  0
   16.7650   23.9929   17.8341 C   0  0  0  0  0  0  0  0  0  0  0  0
   16.2043   24.4240   18.9960 C   0  0  0  0  0  0  0  0  0  0  0  0
  1  2  2  0
 20  1  1  0
  1 25  1  0
  2  3  1  0
  3  4  2  0
  3 23  1  0
  4  5  1  0
  4 24  1  0
  5  6  2  0
  7  6  1  0
 23  7  2  0
  9  8  1  0
 10  9  2  0
  9 15  1  0
 10 11  1  0
 12 10  1  0
 12 13  2  0
 16 12  1  0
 13 14  1  0
 14 15  2  0
 16 17  2  0
 18 16  1  0
 19 18  1  0
 20 19  1  1
 20 21  2  0
 20 22  2  0
 24 25  2  0
M  END
$$$$
