
     RDKit          3D

 25 27  0  0  0  0  0  0  0  0999 V2000
   17.6722   28.2145   25.8265 C   0  0  0  0  0  0  0  0  0  0  0  0
   17.2805   26.8943   25.7634 C   0  0  0  0  0  0  0  0  0  0  0  0
   17.3810   26.0841   26.8509 C   0  0  0  0  0  0  0  0  0  0  0  0
   17.8773   26.5428   28.0631 C   0  0  0  0  0  0  0  0  0  0  0  0
   17.9722   25.7077   29.1551 C   0  0  0  0  0  0  0  0  0  0  0  0
   17.5796   24.3867   29.0896 C   0  0  0  0  0  0  0  0  0  0  0  0
   17.0862   23.9262   27.8887 C   0  0  0  0  0  0  0  0  0  0  0  0
   23.4721   24.9137   22.6102 C   0  0  0  0  0  0  0  0  0  0  0  0
   23.5241   26.2251   23.3201 C   0  0  0  0  0  0  0  0  0  0  0  0
   22.4714   27.1115   23.2205 C   0  0  0  0  0  0  0  0  0  0  0  0
   21.3999   26.7280   22.4503 F   0  0  0  0  0  0  0  0  0  0  0  0
   22.4748   28.3188   23.8504 C   0  0  0  0  0  0  0  0  0  0  0  0
   23.5883   28.6510   24.6163 C   0  0  0  0  0  0  0  0  0  0  0  0
   24.6289   27.7729   24.7137 C   0  0  0  0  0  0  0  0  0  0  0  0
   24.6114   26.5654   24.0762 C   0  0  0  0  0  0  0  0  0  0  0  0
   21.4005   29.2893   23.7831 C   0  0  0  0  0  0  0  0  0  0  0  0
   21.7070   30.5289   23.7630 O   0  0  0  0  0  0  0  0  0  0  0  0
   20.0240   29.0293   23.7359 N   0  0  0  0  0  0  0  0  0  0  0  0
   19.0725   29.9828   24.1100 N   0  0  0  0  0  0  0  0  0  0  0  0
   17.5362   29.2605   24.4076 S   0  0  1  0  0  6  0  0  0  0  0  0
   17.0844   28.4117   23.2822 O   0  0  0  0  0  0  0  0  0  0  0  0
   16.5586   30.3610   24.6602 O   0  0  0  0  0  0  0  0  0  0  0  0
   16.9904   24.7603   26.7942 C   0  0  0  0  0  0  0  0  0  0  0  0
   18.2620   27.8655   28.1011 C   0  0  0  0  0  0  0  0  0  0  0  0
   18.1671   28.6873   27.0212 C   0  0  0  0  0  0  0  0  0  0  0  0
  1  2  2  0
 20  1  1  0
  1 25  1  0
  2  3  1  0
  3  4  2  0
  3 23  1  0
  4  5  1  0
  4 24  1  0
  5  6  2  0
  7  6  1  0
 23  7  2  0
  9  8  1  0
 10  9  2  0
  9 15  1  0
 10 11  1  0
 12 10  1  0
 12 13  2  0
 16 12  1  0
 13 14  1  0
 14 15  2  0
 16 17  2  0
 18 16  1  0
 19 18  1  0
 20 19  1  6
 20 21  2  0
 20 22  2  0
 24 25  2  0
M  END
$$$$
