
     RDKit          3D

 76 77  0  0  0  0  0  0  0  0999 V2000
   54.5218  -33.9538   -3.2343 N   0  0  0  0  0  0  0  0  0  0  0  0
   53.8909  -35.2367   -3.3568 C   0  0  2  0  0  0  0  0  0  0  0  0
   52.9765  -35.4348   -2.1682 C   0  0  0  0  0  0  0  0  0  0  0  0
   53.6300  -35.5801   -1.0717 O   0  0  0  0  0  0  0  0  0  0  0  0
   54.8930  -36.3238   -3.4450 C   0  0  0  0  0  0  0  0  0  0  0  0
   56.0645  -36.3449   -2.5717 C   0  0  0  0  0  0  0  0  0  0  0  0
   56.3077  -35.3293   -1.5443 C   0  0  0  0  0  0  0  0  0  0  0  0
   55.4979  -35.3529   -0.3598 N   0  0  0  0  0  0  0  0  0  0  0  0
   55.7309  -34.5245    0.7637 C   0  0  0  0  0  0  0  0  0  0  0  0
   55.9818  -35.0663    1.8977 N   0  0  0  0  0  0  0  0  0  0  0  0
   55.6893  -33.0881    0.6599 N   0  0  0  0  0  0  0  0  0  0  0  0
   51.6026  -35.4748   -2.1284 N   0  0  0  0  0  0  0  0  0  0  0  0
   50.5993  -34.4376   -2.4282 C   0  0  2  0  0  0  0  0  0  0  0  0
   49.2901  -35.1455   -2.5102 C   0  0  0  0  0  0  0  0  0  0  0  0
   49.1078  -35.8840   -1.4615 O   0  0  0  0  0  0  0  0  0  0  0  0
   50.9275  -33.6358   -3.6136 C   0  0  0  0  0  0  0  0  0  0  0  0
   49.9394  -33.7592   -4.7195 C   0  0  0  0  0  0  0  0  0  0  0  0
   48.6449  -34.4470   -4.3974 C   0  0  0  0  0  0  0  0  0  0  0  0
   47.5722  -33.6762   -3.8975 N   0  0  0  0  0  0  0  0  0  0  0  0
   47.7643  -32.2911   -3.6443 C   0  0  0  0  0  0  0  0  0  0  0  0
   46.7600  -31.4407   -3.1154 N   0  0  0  0  0  0  0  0  0  0  0  0
   48.9476  -31.8161   -3.9243 N   0  0  0  0  0  0  0  0  0  0  0  0
   48.2753  -35.1584   -3.4561 N   0  0  0  0  0  0  0  0  0  0  0  0
   48.1792  -35.6238   -4.8058 C   0  0  2  0  0  0  0  0  0  0  0  0
   49.3026  -36.5580   -5.1733 C   0  0  0  0  0  0  0  0  0  0  0  0
   49.8587  -37.0661   -4.1421 O   0  0  0  0  0  0  0  0  0  0  0  0
   47.8009  -34.7185   -5.8769 C   0  0  0  0  0  0  0  0  0  0  0  0
   47.1628  -35.1512   -7.1407 C   0  0  0  0  0  0  0  0  0  0  0  0
   46.4146  -36.4100   -7.2202 C   0  0  0  0  0  0  0  0  0  0  0  0
   46.7446  -37.1757   -5.9911 N   0  0  0  0  0  0  0  0  0  0  0  0
   46.1901  -38.4360   -5.7067 C   0  0  0  0  0  0  0  0  0  0  0  0
   46.8169  -39.5967   -6.2669 N   0  0  0  0  0  0  0  0  0  0  0  0
   45.1449  -38.5477   -4.9575 N   0  0  0  0  0  0  0  0  0  0  0  0
   49.7834  -36.9176   -6.4077 N   0  0  0  0  0  0  0  0  0  0  0  0
   50.2121  -36.1670   -7.5560 C   0  0  2  0  0  0  0  0  0  0  0  0
   49.4493  -36.5742   -8.7303 C   0  0  0  0  0  0  0  0  0  0  0  0
   48.4882  -37.4058   -8.5707 O   0  0  0  0  0  0  0  0  0  0  0  0
   51.6966  -36.3148   -7.7638 C   0  0  0  0  0  0  0  0  0  0  0  0
   52.1712  -37.6713   -8.1518 C   0  0  0  0  0  0  0  0  0  0  0  0
   53.1547  -37.5047   -9.3232 C   0  0  0  0  0  0  0  0  0  0  0  0
   54.4563  -36.9589   -8.7638 C   0  0  0  0  0  0  0  0  0  0  0  0
   54.7542  -35.6402   -9.2701 N   0  0  0  0  0  0  0  0  0  0  0  0
   49.6414  -36.1533  -10.0706 N   0  0  0  0  0  0  0  0  0  0  0  0
   48.7005  -36.4344  -11.1089 C   0  0  2  0  0  0  0  0  0  0  0  0
   48.5341  -37.9450  -11.2495 C   0  0  0  0  0  0  0  0  0  0  0  0
   49.4388  -38.7361  -10.9608 O   0  0  0  0  0  0  0  0  0  0  0  0
   49.1933  -35.9250  -12.4396 C   0  0  0  0  0  0  0  0  0  0  0  0
   50.1841  -34.8253  -12.2812 C   0  0  0  0  0  0  0  0  0  0  0  0
   51.1297  -34.5212  -13.3657 C   0  0  0  0  0  0  0  0  0  0  0  0
   52.0292  -33.4777  -13.2775 N   0  0  0  0  0  0  0  0  0  0  0  0
   53.2707  -33.2327  -13.8584 C   0  0  0  0  0  0  0  0  0  0  0  0
   53.8302  -34.1418  -14.8406 N   0  0  0  0  0  0  0  0  0  0  0  0
   54.0093  -32.2525  -13.5346 N   0  0  0  0  0  0  0  0  0  0  0  0
   47.2969  -38.4153  -11.7221 N   0  0  0  0  0  0  0  0  0  0  0  0
   46.8749  -38.3800  -13.1195 C   0  0  0  0  0  0  0  0  0  0  0  0
   45.4213  -38.5362  -13.2715 C   0  0  0  0  0  0  0  0  0  0  0  0
   44.8221  -38.2574  -14.4863 C   0  0  0  0  0  0  0  0  0  0  0  0
   43.4518  -38.4100  -14.5820 C   0  0  0  0  0  0  0  0  0  0  0  0
   42.6550  -38.8250  -13.5304 C   0  0  0  0  0  0  0  0  0  0  0  0
   41.2237  -38.9640  -13.6806 C   0  0  0  0  0  0  0  0  0  0  0  0
   40.6590  -38.8048  -14.9921 N   0  0  0  0  0  0  0  0  0  0  0  0
   40.3968  -39.2186  -12.7508 N   0  0  0  0  0  0  0  0  0  0  0  0
   43.2843  -39.0943  -12.3333 C   0  0  0  0  0  0  0  0  0  0  0  0
   44.6515  -38.9485  -12.2146 C   0  0  0  0  0  0  0  0  0  0  0  0
   54.9144  -33.2090   -4.4127 C   0  0  0  0  0  0  0  0  0  0  0  0
   54.1589  -33.1317   -5.6525 C   0  0  0  0  0  0  0  0  0  0  0  0
   54.4051  -34.1976   -6.6762 C   0  0  0  0  0  0  0  0  0  0  0  0
   55.6809  -34.0159   -7.4648 C   0  0  0  0  0  0  0  0  0  0  0  0
   55.6557  -34.6845   -8.7843 C   0  0  0  0  0  0  0  0  0  0  0  0
   56.0054  -32.5747   -4.3470 O   0  0  0  0  0  0  0  0  0  0  0  0
   56.6219  -34.2896   -9.5552 O   0  0  0  0  0  0  0  0  0  0  0  0
   55.9648  -34.4827    2.7775 H   0  0  0  0  0  0  0  0  0  0  0  0
   49.4664  -31.1514   -3.3136 H   0  0  0  0  0  0  0  0  0  0  0  0
   44.2044  -38.5156   -5.3913 H   0  0  0  0  0  0  0  0  0  0  0  0
   53.7939  -31.5198  -12.8577 H   0  0  0  0  0  0  0  0  0  0  0  0
   40.6744  -39.3036  -11.7702 H   0  0  0  0  0  0  0  0  0  0  0  0
  1  2  1  0
  1 65  1  0
  2  3  1  0
  2  5  1  1
  3  4  2  0
  3 12  1  0
  5  6  1  0
  6  7  1  0
  7  8  1  0
  8  9  1  0
  9 10  2  0
  9 11  1  0
 12 13  1  0
 13 14  1  0
 13 16  1  6
 14 15  2  0
 14 23  1  0
 16 17  1  0
 17 18  1  0
 18 19  1  0
 19 20  1  0
 20 21  1  0
 20 22  2  0
 23 24  1  0
 24 25  1  0
 24 27  1  6
 25 26  2  0
 25 34  1  0
 27 28  1  0
 28 29  1  0
 29 30  1  0
 30 31  1  0
 31 32  1  0
 31 33  2  0
 34 35  1  0
 35 36  1  6
 35 38  1  0
 36 37  2  0
 36 43  1  0
 38 39  1  0
 39 40  1  0
 40 41  1  0
 41 42  1  0
 42 69  1  0
 43 44  1  0
 44 45  1  0
 44 47  1  6
 45 46  2  0
 45 54  1  0
 47 48  1  0
 48 49  1  0
 49 50  1  0
 50 51  1  0
 51 52  1  0
 51 53  2  0
 54 55  1  0
 55 56  1  0
 56 57  2  0
 56 64  1  0
 57 58  1  0
 58 59  2  0
 59 60  1  0
 59 63  1  0
 60 61  1  0
 60 62  2  0
 63 64  2  0
 65 66  1  0
 65 70  2  0
 66 67  1  0
 67 68  1  0
 68 69  1  0
 69 71  2  0
 10 72  1  0
 22 73  1  0
 33 74  1  0
 53 75  1  0
 62 76  1  0
M  END
$$$$
