
     RDKit          3D

 76 77  0  0  0  0  0  0  0  0999 V2000
   44.9363  -38.5265   -9.5021 N   0  0  0  0  0  0  0  0  0  0  0  0
   45.2885  -37.1703   -9.1930 C   0  0  2  0  0  0  0  0  0  0  0  0
   45.3314  -37.0189   -7.6885 C   0  0  0  0  0  0  0  0  0  0  0  0
   44.1640  -37.1021   -7.1587 O   0  0  0  0  0  0  0  0  0  0  0  0
   44.3326  -36.2141   -9.7976 C   0  0  0  0  0  0  0  0  0  0  0  0
   42.9205  -36.5552   -9.9565 C   0  0  0  0  0  0  0  0  0  0  0  0
   42.1416  -37.2216   -8.9100 C   0  0  0  0  0  0  0  0  0  0  0  0
   41.2582  -38.2856   -9.2935 N   0  0  0  0  0  0  0  0  0  0  0  0
   41.1395  -39.5003   -8.5771 C   0  0  0  0  0  0  0  0  0  0  0  0
   41.5206  -40.5915   -9.1306 N   0  0  0  0  0  0  0  0  0  0  0  0
   40.5978  -39.5359   -7.2425 N   0  0  0  0  0  0  0  0  0  0  0  0
   46.4158  -36.8141   -6.8683 N   0  0  0  0  0  0  0  0  0  0  0  0
   47.5804  -37.6699   -6.5789 C   0  0  2  0  0  0  0  0  0  0  0  0
   48.5619  -36.8002   -5.8703 C   0  0  0  0  0  0  0  0  0  0  0  0
   47.9935  -36.1898   -4.8789 O   0  0  0  0  0  0  0  0  0  0  0  0
   48.1181  -38.3425   -7.7682 C   0  0  0  0  0  0  0  0  0  0  0  0
   47.1437  -39.2382   -8.4485 C   0  0  0  0  0  0  0  0  0  0  0  0
   45.6935  -38.8669   -8.3417 C   0  0  0  0  0  0  0  0  0  0  0  0
   44.9083  -39.4763   -7.3384 N   0  0  0  0  0  0  0  0  0  0  0  0
   44.6710  -38.7853   -6.1194 C   0  0  0  0  0  0  0  0  0  0  0  0
   44.7718  -39.3885   -4.8398 N   0  0  0  0  0  0  0  0  0  0  0  0
   44.3488  -37.5250   -6.2287 N   0  0  0  0  0  0  0  0  0  0  0  0
   49.9101  -36.5366   -6.0640 N   0  0  0  0  0  0  0  0  0  0  0  0
   50.6587  -35.8887   -7.0972 C   0  0  2  0  0  0  0  0  0  0  0  0
   49.7874  -35.0610   -8.0058 C   0  0  0  0  0  0  0  0  0  0  0  0
   48.6710  -34.7666   -7.4601 O   0  0  0  0  0  0  0  0  0  0  0  0
   51.7236  -36.5904   -7.7924 C   0  0  0  0  0  0  0  0  0  0  0  0
   53.1471  -36.5446   -7.3889 C   0  0  0  0  0  0  0  0  0  0  0  0
   53.5649  -35.8665   -6.1574 C   0  0  0  0  0  0  0  0  0  0  0  0
   54.6551  -34.9327   -6.5387 N   0  0  0  0  0  0  0  0  0  0  0  0
   54.9678  -34.6323   -7.8761 C   0  0  0  0  0  0  0  0  0  0  0  0
   56.2108  -35.1081   -8.4073 N   0  0  0  0  0  0  0  0  0  0  0  0
   54.1557  -33.9481   -8.6102 N   0  0  0  0  0  0  0  0  0  0  0  0
   50.0226  -34.6040   -9.2786 N   0  0  0  0  0  0  0  0  0  0  0  0
   50.4490  -35.2436  -10.4929 C   0  0  2  0  0  0  0  0  0  0  0  0
   51.6504  -34.5933  -11.0032 C   0  0  0  0  0  0  0  0  0  0  0  0
   51.7002  -34.3040  -12.2500 O   0  0  0  0  0  0  0  0  0  0  0  0
   49.3354  -35.2553  -11.5071 C   0  0  0  0  0  0  0  0  0  0  0  0
   48.9265  -33.9290  -12.0453 C   0  0  0  0  0  0  0  0  0  0  0  0
   48.8125  -34.0602  -13.5740 C   0  0  0  0  0  0  0  0  0  0  0  0
   47.5419  -34.8326  -13.8811 C   0  0  0  0  0  0  0  0  0  0  0  0
   47.8168  -36.0995  -14.5161 N   0  0  0  0  0  0  0  0  0  0  0  0
   52.8087  -34.2279  -10.2717 N   0  0  0  0  0  0  0  0  0  0  0  0
   53.8064  -35.1751   -9.8848 C   0  0  2  0  0  0  0  0  0  0  0  0
   54.8156  -34.5017   -8.9588 C   0  0  0  0  0  0  0  0  0  0  0  0
   54.8315  -33.2786   -8.7814 O   0  0  0  0  0  0  0  0  0  0  0  0
   54.5772  -35.6703  -11.0822 C   0  0  0  0  0  0  0  0  0  0  0  0
   55.4013  -36.8665  -10.7566 C   0  0  0  0  0  0  0  0  0  0  0  0
   56.8107  -36.7089  -10.3675 C   0  0  0  0  0  0  0  0  0  0  0  0
   57.2089  -36.7289   -9.0459 N   0  0  0  0  0  0  0  0  0  0  0  0
   58.4070  -36.4289   -8.4026 C   0  0  0  0  0  0  0  0  0  0  0  0
   59.6306  -36.2270   -9.1551 N   0  0  0  0  0  0  0  0  0  0  0  0
   58.5233  -36.3706   -7.1400 N   0  0  0  0  0  0  0  0  0  0  0  0
   55.7391  -35.3316   -8.3004 N   0  0  0  0  0  0  0  0  0  0  0  0
   55.4330  -36.6578   -7.7717 C   0  0  0  0  0  0  0  0  0  0  0  0
   54.6195  -37.4579   -8.6982 C   0  0  0  0  0  0  0  0  0  0  0  0
   55.2209  -38.4237   -9.4843 C   0  0  0  0  0  0  0  0  0  0  0  0
   54.4192  -39.1470  -10.3472 C   0  0  0  0  0  0  0  0  0  0  0  0
   53.0545  -38.9543  -10.4630 C   0  0  0  0  0  0  0  0  0  0  0  0
   52.2604  -39.7344  -11.3857 C   0  0  0  0  0  0  0  0  0  0  0  0
   51.4691  -39.0359  -12.3605 N   0  0  0  0  0  0  0  0  0  0  0  0
   52.1902  -41.0020  -11.4234 N   0  0  0  0  0  0  0  0  0  0  0  0
   52.4869  -37.9834   -9.6650 C   0  0  0  0  0  0  0  0  0  0  0  0
   53.2682  -37.2488   -8.7962 C   0  0  0  0  0  0  0  0  0  0  0  0
   45.4077  -39.1520  -10.7202 C   0  0  0  0  0  0  0  0  0  0  0  0
   46.7257  -38.9704  -11.3065 C   0  0  0  0  0  0  0  0  0  0  0  0
   46.9083  -37.8176  -12.2458 C   0  0  0  0  0  0  0  0  0  0  0  0
   46.3464  -38.0506  -13.6287 C   0  0  0  0  0  0  0  0  0  0  0  0
   46.9845  -37.2156  -14.6701 C   0  0  0  0  0  0  0  0  0  0  0  0
   44.5991  -39.9201  -11.3146 O   0  0  0  0  0  0  0  0  0  0  0  0
   46.7014  -37.6221  -15.8694 O   0  0  0  0  0  0  0  0  0  0  0  0
   41.4247  -41.5075   -8.6143 H   0  0  0  0  0  0  0  0  0  0  0  0
   45.0267  -36.7701   -6.4626 H   0  0  0  0  0  0  0  0  0  0  0  0
   53.8819  -34.3143   -9.5400 H   0  0  0  0  0  0  0  0  0  0  0  0
   58.3821  -35.5511   -6.5484 H   0  0  0  0  0  0  0  0  0  0  0  0
   51.5374  -41.5381  -10.8471 H   0  0  0  0  0  0  0  0  0  0  0  0
  1  2  1  0
  1 65  1  0
  2  3  1  0
  2  5  1  1
  3  4  2  0
  3 12  1  0
  5  6  1  0
  6  7  1  0
  7  8  1  0
  8  9  1  0
  9 10  2  0
  9 11  1  0
 12 13  1  0
 13 14  1  0
 13 16  1  6
 14 15  2  0
 14 23  1  0
 16 17  1  0
 17 18  1  0
 18 19  1  0
 19 20  1  0
 20 21  1  0
 20 22  2  0
 23 24  1  0
 24 25  1  0
 24 27  1  6
 25 26  2  0
 25 34  1  0
 27 28  1  0
 28 29  1  0
 29 30  1  0
 30 31  1  0
 31 32  1  0
 31 33  2  0
 34 35  1  0
 35 36  1  6
 35 38  1  0
 36 37  2  0
 36 43  1  0
 38 39  1  0
 39 40  1  0
 40 41  1  0
 41 42  1  0
 42 69  1  0
 43 44  1  0
 44 45  1  0
 44 47  1  6
 45 46  2  0
 45 54  1  0
 47 48  1  0
 48 49  1  0
 49 50  1  0
 50 51  1  0
 51 52  1  0
 51 53  2  0
 54 55  1  0
 55 56  1  0
 56 57  2  0
 56 64  1  0
 57 58  1  0
 58 59  2  0
 59 60  1  0
 59 63  1  0
 60 61  1  0
 60 62  2  0
 63 64  2  0
 65 66  1  0
 65 70  2  0
 66 67  1  0
 67 68  1  0
 68 69  1  0
 69 71  2  0
 10 72  1  0
 22 73  1  0
 33 74  1  0
 53 75  1  0
 62 76  1  0
M  END
$$$$
