
     RDKit          3D

 76 77  0  0  0  0  0  0  0  0999 V2000
   50.8396  -34.0257   -5.1262 N   0  0  0  0  0  0  0  0  0  0  0  0
   50.8170  -35.4365   -5.3874 C   0  0  2  0  0  0  0  0  0  0  0  0
   50.2649  -36.1395   -4.1671 C   0  0  0  0  0  0  0  0  0  0  0  0
   51.0703  -36.0820   -3.1678 O   0  0  0  0  0  0  0  0  0  0  0  0
   52.1662  -35.9430   -5.7291 C   0  0  0  0  0  0  0  0  0  0  0  0
   53.1898  -36.1206   -4.7014 C   0  0  0  0  0  0  0  0  0  0  0  0
   52.8693  -36.2911   -3.2822 C   0  0  0  0  0  0  0  0  0  0  0  0
   52.6552  -35.1154   -2.4875 N   0  0  0  0  0  0  0  0  0  0  0  0
   52.4045  -35.1474   -1.0951 C   0  0  0  0  0  0  0  0  0  0  0  0
   52.1541  -34.0512   -0.4803 N   0  0  0  0  0  0  0  0  0  0  0  0
   52.4275  -36.3836   -0.3555 N   0  0  0  0  0  0  0  0  0  0  0  0
   49.0667  -36.7962   -4.0128 N   0  0  0  0  0  0  0  0  0  0  0  0
   47.6809  -36.2966   -4.0604 C   0  0  2  0  0  0  0  0  0  0  0  0
   46.8119  -37.5054   -4.1339 C   0  0  0  0  0  0  0  0  0  0  0  0
   47.1244  -38.3457   -3.1986 O   0  0  0  0  0  0  0  0  0  0  0  0
   47.4506  -35.3212   -5.1335 C   0  0  0  0  0  0  0  0  0  0  0  0
   48.6723  -34.9774   -5.9105 C   0  0  0  0  0  0  0  0  0  0  0  0
   49.8584  -35.8814   -5.7425 C   0  0  0  0  0  0  0  0  0  0  0  0
   50.3523  -36.5710   -6.8717 N   0  0  0  0  0  0  0  0  0  0  0  0
   51.5369  -36.1123   -7.5089 C   0  0  0  0  0  0  0  0  0  0  0  0
   52.2944  -35.0017   -7.0572 N   0  0  0  0  0  0  0  0  0  0  0  0
   51.9162  -36.7819   -8.5634 N   0  0  0  0  0  0  0  0  0  0  0  0
   45.7761  -37.8803   -4.9772 N   0  0  0  0  0  0  0  0  0  0  0  0
   45.6938  -38.2047   -6.3685 C   0  0  2  0  0  0  0  0  0  0  0  0
   47.0434  -38.4937   -6.9724 C   0  0  0  0  0  0  0  0  0  0  0  0
   47.9099  -38.7958   -6.0843 O   0  0  0  0  0  0  0  0  0  0  0  0
   44.8073  -37.4661   -7.2508 C   0  0  0  0  0  0  0  0  0  0  0  0
   43.8863  -36.3998   -6.7966 C   0  0  0  0  0  0  0  0  0  0  0  0
   42.6838  -36.7167   -6.0191 C   0  0  0  0  0  0  0  0  0  0  0  0
   43.1369  -37.5005   -4.8417 N   0  0  0  0  0  0  0  0  0  0  0  0
   42.2488  -38.0092   -3.8777 C   0  0  0  0  0  0  0  0  0  0  0  0
   40.8636  -38.1285   -4.2250 N   0  0  0  0  0  0  0  0  0  0  0  0
   42.6688  -38.3638   -2.7097 N   0  0  0  0  0  0  0  0  0  0  0  0
   47.4452  -38.4763   -8.2848 N   0  0  0  0  0  0  0  0  0  0  0  0
   47.3318  -37.5049   -9.3380 C   0  0  2  0  0  0  0  0  0  0  0  0
   46.6574  -38.0943  -10.4889 C   0  0  0  0  0  0  0  0  0  0  0  0
   46.0764  -39.2258  -10.3372 O   0  0  0  0  0  0  0  0  0  0  0  0
   48.6850  -36.9488   -9.6963 C   0  0  0  0  0  0  0  0  0  0  0  0
   49.6380  -37.9022  -10.3278 C   0  0  0  0  0  0  0  0  0  0  0  0
   50.2677  -37.1979  -11.5421 C   0  0  0  0  0  0  0  0  0  0  0  0
   51.2705  -36.1831  -11.0229 C   0  0  0  0  0  0  0  0  0  0  0  0
   50.8891  -34.8287  -11.3456 N   0  0  0  0  0  0  0  0  0  0  0  0
   46.5588  -37.5575  -11.7974 N   0  0  0  0  0  0  0  0  0  0  0  0
   47.1453  -38.1908  -12.9364 C   0  0  2  0  0  0  0  0  0  0  0  0
   47.7174  -39.5453  -12.5271 C   0  0  0  0  0  0  0  0  0  0  0  0
   47.5300  -40.0263  -11.4041 O   0  0  0  0  0  0  0  0  0  0  0  0
   48.2947  -37.3782  -13.4766 C   0  0  0  0  0  0  0  0  0  0  0  0
   47.9847  -35.9223  -13.4967 C   0  0  0  0  0  0  0  0  0  0  0  0
   48.2174  -35.1344  -14.7165 C   0  0  0  0  0  0  0  0  0  0  0  0
   49.1931  -34.1599  -14.7800 N   0  0  0  0  0  0  0  0  0  0  0  0
   50.5587  -34.1537  -14.5078 C   0  0  0  0  0  0  0  0  0  0  0  0
   51.0897  -33.4460  -13.3583 N   0  0  0  0  0  0  0  0  0  0  0  0
   51.4208  -34.7034  -15.2600 N   0  0  0  0  0  0  0  0  0  0  0  0
   48.4733  -40.2413  -13.4859 N   0  0  0  0  0  0  0  0  0  0  0  0
   49.3340  -39.6096  -14.4820 C   0  0  0  0  0  0  0  0  0  0  0  0
   50.6691  -39.2962  -13.9531 C   0  0  0  0  0  0  0  0  0  0  0  0
   51.3251  -40.2130  -13.1522 C   0  0  0  0  0  0  0  0  0  0  0  0
   52.5751  -39.8735  -12.6701 C   0  0  0  0  0  0  0  0  0  0  0  0
   53.1987  -38.6704  -12.9471 C   0  0  0  0  0  0  0  0  0  0  0  0
   54.5064  -38.3608  -12.4134 C   0  0  0  0  0  0  0  0  0  0  0  0
   54.9258  -36.9867  -12.3964 N   0  0  0  0  0  0  0  0  0  0  0  0
   55.3399  -39.1981  -11.9474 N   0  0  0  0  0  0  0  0  0  0  0  0
   52.5170  -37.7790  -13.7484 C   0  0  0  0  0  0  0  0  0  0  0  0
   51.2675  -38.0967  -14.2408 C   0  0  0  0  0  0  0  0  0  0  0  0
   50.6923  -33.0728   -6.2067 C   0  0  0  0  0  0  0  0  0  0  0  0
   49.8047  -33.2223   -7.3484 C   0  0  0  0  0  0  0  0  0  0  0  0
   50.3350  -33.9581   -8.5409 C   0  0  0  0  0  0  0  0  0  0  0  0
   51.2743  -33.1464   -9.4020 C   0  0  0  0  0  0  0  0  0  0  0  0
   51.3476  -33.6225  -10.8008 C   0  0  0  0  0  0  0  0  0  0  0  0
   51.3968  -32.0257   -6.1413 O   0  0  0  0  0  0  0  0  0  0  0  0
   51.9219  -32.7623  -11.5845 O   0  0  0  0  0  0  0  0  0  0  0  0
   52.8496  -33.2574   -0.5109 H   0  0  0  0  0  0  0  0  0  0  0  0
   51.8898  -36.4031   -9.5328 H   0  0  0  0  0  0  0  0  0  0  0  0
   42.0346  -38.8894   -2.0810 H   0  0  0  0  0  0  0  0  0  0  0  0
   51.3339  -34.8868  -16.2602 H   0  0  0  0  0  0  0  0  0  0  0  0
   55.0715  -40.1373  -11.6446 H   0  0  0  0  0  0  0  0  0  0  0  0
  1  2  1  0
  1 65  1  0
  2  3  1  0
  2  5  1  1
  3  4  2  0
  3 12  1  0
  5  6  1  0
  6  7  1  0
  7  8  1  0
  8  9  1  0
  9 10  2  0
  9 11  1  0
 12 13  1  0
 13 14  1  0
 13 16  1  6
 14 15  2  0
 14 23  1  0
 16 17  1  0
 17 18  1  0
 18 19  1  0
 19 20  1  0
 20 21  1  0
 20 22  2  0
 23 24  1  0
 24 25  1  0
 24 27  1  6
 25 26  2  0
 25 34  1  0
 27 28  1  0
 28 29  1  0
 29 30  1  0
 30 31  1  0
 31 32  1  0
 31 33  2  0
 34 35  1  0
 35 36  1  6
 35 38  1  0
 36 37  2  0
 36 43  1  0
 38 39  1  0
 39 40  1  0
 40 41  1  0
 41 42  1  0
 42 69  1  0
 43 44  1  0
 44 45  1  0
 44 47  1  1
 45 46  2  0
 45 54  1  0
 47 48  1  0
 48 49  1  0
 49 50  1  0
 50 51  1  0
 51 52  1  0
 51 53  2  0
 54 55  1  0
 55 56  1  0
 56 57  2  0
 56 64  1  0
 57 58  1  0
 58 59  2  0
 59 60  1  0
 59 63  1  0
 60 61  1  0
 60 62  2  0
 63 64  2  0
 65 66  1  0
 65 70  2  0
 66 67  1  0
 67 68  1  0
 68 69  1  0
 69 71  2  0
 10 72  1  0
 22 73  1  0
 33 74  1  0
 53 75  1  0
 62 76  1  0
M  END
$$$$
