
     RDKit          3D

 76 77  0  0  0  0  0  0  0  0999 V2000
   54.5295  -35.2407   -4.5816 N   0  0  0  0  0  0  0  0  0  0  0  0
   53.4303  -36.1244   -4.8455 C   0  0  2  0  0  0  0  0  0  0  0  0
   52.5019  -36.1018   -3.6514 C   0  0  0  0  0  0  0  0  0  0  0  0
   53.0267  -36.6556   -2.6178 O   0  0  0  0  0  0  0  0  0  0  0  0
   53.9008  -37.5000   -5.1285 C   0  0  0  0  0  0  0  0  0  0  0  0
   55.2917  -37.7638   -5.4910 C   0  0  0  0  0  0  0  0  0  0  0  0
   56.0364  -36.9330   -6.4403 C   0  0  0  0  0  0  0  0  0  0  0  0
   57.4628  -37.0797   -6.4988 N   0  0  0  0  0  0  0  0  0  0  0  0
   58.2928  -36.3197   -7.3569 C   0  0  0  0  0  0  0  0  0  0  0  0
   57.7699  -35.3945   -8.0731 N   0  0  0  0  0  0  0  0  0  0  0  0
   59.7097  -36.5658   -7.4439 N   0  0  0  0  0  0  0  0  0  0  0  0
   51.2316  -35.5852   -3.5506 N   0  0  0  0  0  0  0  0  0  0  0  0
   50.7438  -34.1986   -3.6582 C   0  0  2  0  0  0  0  0  0  0  0  0
   49.2606  -34.2935   -3.7713 C   0  0  0  0  0  0  0  0  0  0  0  0
   48.7805  -35.0361   -2.8244 O   0  0  0  0  0  0  0  0  0  0  0  0
   51.3844  -33.4386   -4.7390 C   0  0  0  0  0  0  0  0  0  0  0  0
   52.1252  -32.2345   -4.2745 C   0  0  0  0  0  0  0  0  0  0  0  0
   52.7812  -32.3206   -2.9274 C   0  0  0  0  0  0  0  0  0  0  0  0
   52.2383  -33.1973   -1.9623 N   0  0  0  0  0  0  0  0  0  0  0  0
   51.7530  -32.6721   -0.7343 C   0  0  0  0  0  0  0  0  0  0  0  0
   51.4764  -33.4666    0.4075 N   0  0  0  0  0  0  0  0  0  0  0  0
   51.5693  -31.3801   -0.6965 N   0  0  0  0  0  0  0  0  0  0  0  0
   48.3398  -33.7571   -4.6597 N   0  0  0  0  0  0  0  0  0  0  0  0
   48.0766  -33.9447   -6.0537 C   0  0  2  0  0  0  0  0  0  0  0  0
   48.7234  -35.1916   -6.5984 C   0  0  0  0  0  0  0  0  0  0  0  0
   49.0115  -36.0239   -5.6736 O   0  0  0  0  0  0  0  0  0  0  0  0
   48.1136  -32.8206   -6.9729 C   0  0  0  0  0  0  0  0  0  0  0  0
   47.9011  -31.4125   -6.5686 C   0  0  0  0  0  0  0  0  0  0  0  0
   48.2928  -30.9383   -5.2372 C   0  0  0  0  0  0  0  0  0  0  0  0
   49.3296  -31.8795   -4.7421 N   0  0  0  0  0  0  0  0  0  0  0  0
   49.9808  -31.7145   -3.5071 C   0  0  0  0  0  0  0  0  0  0  0  0
   51.2115  -32.4153   -3.2882 N   0  0  0  0  0  0  0  0  0  0  0  0
   49.4864  -30.9488   -2.5928 N   0  0  0  0  0  0  0  0  0  0  0  0
   49.0285  -35.5347   -7.8919 N   0  0  0  0  0  0  0  0  0  0  0  0
   49.7394  -34.8672   -8.9477 C   0  0  2  0  0  0  0  0  0  0  0  0
   48.8897  -34.7563  -10.1278 C   0  0  0  0  0  0  0  0  0  0  0  0
   49.4523  -34.5881  -11.2662 O   0  0  0  0  0  0  0  0  0  0  0  0
   51.0356  -35.5741   -9.2457 C   0  0  0  0  0  0  0  0  0  0  0  0
   50.9178  -36.9355   -9.8361 C   0  0  0  0  0  0  0  0  0  0  0  0
   51.8962  -37.0171  -11.0207 C   0  0  0  0  0  0  0  0  0  0  0  0
   53.3010  -37.1337  -10.4567 C   0  0  0  0  0  0  0  0  0  0  0  0
   54.1180  -35.9923  -10.7939 N   0  0  0  0  0  0  0  0  0  0  0  0
   47.4739  -34.8132  -10.1782 N   0  0  0  0  0  0  0  0  0  0  0  0
   46.7524  -36.0467  -10.1927 C   0  0  2  0  0  0  0  0  0  0  0  0
   45.2535  -35.7595  -10.1971 C   0  0  0  0  0  0  0  0  0  0  0  0
   44.7917  -34.6688   -9.8438 O   0  0  0  0  0  0  0  0  0  0  0  0
   47.0369  -36.8558   -8.9527 C   0  0  0  0  0  0  0  0  0  0  0  0
   45.9907  -36.6633   -7.9114 C   0  0  0  0  0  0  0  0  0  0  0  0
   46.1151  -37.3309   -6.6069 C   0  0  0  0  0  0  0  0  0  0  0  0
   45.1326  -38.1699   -6.1206 N   0  0  0  0  0  0  0  0  0  0  0  0
   44.9435  -38.8169   -4.9021 C   0  0  0  0  0  0  0  0  0  0  0  0
   43.7802  -38.5410   -4.0807 N   0  0  0  0  0  0  0  0  0  0  0  0
   45.7840  -39.6297   -4.4080 N   0  0  0  0  0  0  0  0  0  0  0  0
   44.4014  -36.7912  -10.6267 N   0  0  0  0  0  0  0  0  0  0  0  0
   44.5410  -37.5108  -11.8895 C   0  0  0  0  0  0  0  0  0  0  0  0
   43.8671  -38.8169  -11.8694 C   0  0  0  0  0  0  0  0  0  0  0  0
   43.4933  -39.3803  -10.6630 C   0  0  0  0  0  0  0  0  0  0  0  0
   42.8696  -40.6134  -10.6904 C   0  0  0  0  0  0  0  0  0  0  0  0
   42.6021  -41.3074  -11.8565 C   0  0  0  0  0  0  0  0  0  0  0  0
   41.9513  -42.5983  -11.8310 C   0  0  0  0  0  0  0  0  0  0  0  0
   41.5733  -43.1441  -10.5568 N   0  0  0  0  0  0  0  0  0  0  0  0
   41.6731  -43.3141  -12.8425 N   0  0  0  0  0  0  0  0  0  0  0  0
   42.9881  -40.7174  -13.0416 C   0  0  0  0  0  0  0  0  0  0  0  0
   43.6128  -39.4867  -13.0382 C   0  0  0  0  0  0  0  0  0  0  0  0
   55.2054  -34.5594   -5.6661 C   0  0  0  0  0  0  0  0  0  0  0  0
   54.5614  -34.0050   -6.8458 C   0  0  0  0  0  0  0  0  0  0  0  0
   54.3612  -34.9202   -8.0150 C   0  0  0  0  0  0  0  0  0  0  0  0
   55.6082  -35.1617   -8.8329 C   0  0  0  0  0  0  0  0  0  0  0  0
   55.3262  -35.5658  -10.2279 C   0  0  0  0  0  0  0  0  0  0  0  0
   56.4597  -34.4398   -5.5685 O   0  0  0  0  0  0  0  0  0  0  0  0
   56.3778  -35.4918  -10.9845 O   0  0  0  0  0  0  0  0  0  0  0  0
   57.7399  -35.4929   -9.1239 H   0  0  0  0  0  0  0  0  0  0  0  0
   51.3825  -30.8451    0.1769 H   0  0  0  0  0  0  0  0  0  0  0  0
   49.5265  -31.2508   -1.6025 H   0  0  0  0  0  0  0  0  0  0  0  0
   46.5736  -40.0626   -4.8881 H   0  0  0  0  0  0  0  0  0  0  0  0
   42.2273  -43.2983  -13.7019 H   0  0  0  0  0  0  0  0  0  0  0  0
  1  2  1  0
  1 65  1  0
  2  3  1  0
  2  5  1  1
  3  4  2  0
  3 12  1  0
  5  6  1  0
  6  7  1  0
  7  8  1  0
  8  9  1  0
  9 10  2  0
  9 11  1  0
 12 13  1  0
 13 14  1  0
 13 16  1  6
 14 15  2  0
 14 23  1  0
 16 17  1  0
 17 18  1  0
 18 19  1  0
 19 20  1  0
 20 21  1  0
 20 22  2  0
 23 24  1  0
 24 25  1  0
 24 27  1  6
 25 26  2  0
 25 34  1  0
 27 28  1  0
 28 29  1  0
 29 30  1  0
 30 31  1  0
 31 32  1  0
 31 33  2  0
 34 35  1  0
 35 36  1  6
 35 38  1  0
 36 37  2  0
 36 43  1  0
 38 39  1  0
 39 40  1  0
 40 41  1  0
 41 42  1  0
 42 69  1  0
 43 44  1  0
 44 45  1  0
 44 47  1  1
 45 46  2  0
 45 54  1  0
 47 48  1  0
 48 49  1  0
 49 50  1  0
 50 51  1  0
 51 52  1  0
 51 53  2  0
 54 55  1  0
 55 56  1  0
 56 57  2  0
 56 64  1  0
 57 58  1  0
 58 59  2  0
 59 60  1  0
 59 63  1  0
 60 61  1  0
 60 62  2  0
 63 64  2  0
 65 66  1  0
 65 70  2  0
 66 67  1  0
 67 68  1  0
 68 69  1  0
 69 71  2  0
 10 72  1  0
 22 73  1  0
 33 74  1  0
 53 75  1  0
 62 76  1  0
M  END
$$$$
