
     RDKit          3D

 76 77  0  0  0  0  0  0  0  0999 V2000
   49.6191  -35.9004   -3.2775 N   0  0  0  0  0  0  0  0  0  0  0  0
   49.6929  -36.8393   -4.3601 C   0  0  2  0  0  0  0  0  0  0  0  0
   48.7251  -37.9678   -4.0805 C   0  0  0  0  0  0  0  0  0  0  0  0
   49.1009  -38.6956   -3.0908 O   0  0  0  0  0  0  0  0  0  0  0  0
   51.0716  -37.3511   -4.5364 C   0  0  0  0  0  0  0  0  0  0  0  0
   51.9699  -37.5124   -3.3951 C   0  0  0  0  0  0  0  0  0  0  0  0
   51.4996  -37.5112   -2.0077 C   0  0  0  0  0  0  0  0  0  0  0  0
   51.3613  -36.2496   -1.3378 N   0  0  0  0  0  0  0  0  0  0  0  0
   50.9047  -36.1176   -0.0048 C   0  0  0  0  0  0  0  0  0  0  0  0
   50.3484  -35.0220    0.3591 N   0  0  0  0  0  0  0  0  0  0  0  0
   51.0542  -37.1861    0.9501 N   0  0  0  0  0  0  0  0  0  0  0  0
   47.5545  -38.2864   -4.7277 N   0  0  0  0  0  0  0  0  0  0  0  0
   46.2868  -37.5441   -4.8474 C   0  0  2  0  0  0  0  0  0  0  0  0
   45.5056  -38.2364   -5.9115 C   0  0  0  0  0  0  0  0  0  0  0  0
   45.4461  -39.5088   -5.6748 O   0  0  0  0  0  0  0  0  0  0  0  0
   46.4740  -36.1056   -5.0749 C   0  0  0  0  0  0  0  0  0  0  0  0
   46.7695  -35.7507   -6.4895 C   0  0  0  0  0  0  0  0  0  0  0  0
   46.8607  -36.8853   -7.4676 C   0  0  0  0  0  0  0  0  0  0  0  0
   46.7100  -38.2064   -6.9915 N   0  0  0  0  0  0  0  0  0  0  0  0
   46.5344  -39.2687   -7.9190 C   0  0  0  0  0  0  0  0  0  0  0  0
   45.9472  -40.5159   -7.5859 N   0  0  0  0  0  0  0  0  0  0  0  0
   46.9468  -39.0402   -9.1365 N   0  0  0  0  0  0  0  0  0  0  0  0
   44.8574  -37.7920   -7.0547 N   0  0  0  0  0  0  0  0  0  0  0  0
   45.2982  -37.2132   -8.2869 C   0  0  2  0  0  0  0  0  0  0  0  0
   46.7752  -37.4031   -8.5155 C   0  0  0  0  0  0  0  0  0  0  0  0
   47.2485  -38.3600   -7.8147 O   0  0  0  0  0  0  0  0  0  0  0  0
   44.8050  -35.9157   -8.7148 C   0  0  0  0  0  0  0  0  0  0  0  0
   43.5606  -35.7175   -9.4916 C   0  0  0  0  0  0  0  0  0  0  0  0
   42.6821  -36.8458   -9.8175 C   0  0  0  0  0  0  0  0  0  0  0  0
   42.7747  -37.7952   -8.6791 N   0  0  0  0  0  0  0  0  0  0  0  0
   42.0976  -37.5952   -7.4633 C   0  0  0  0  0  0  0  0  0  0  0  0
   42.6568  -38.1629   -6.2721 N   0  0  0  0  0  0  0  0  0  0  0  0
   41.0015  -36.9148   -7.4179 N   0  0  0  0  0  0  0  0  0  0  0  0
   47.6365  -36.7184   -9.3362 N   0  0  0  0  0  0  0  0  0  0  0  0
   47.9249  -35.3222   -9.5181 C   0  0  2  0  0  0  0  0  0  0  0  0
   47.7262  -34.9502  -10.9141 C   0  0  0  0  0  0  0  0  0  0  0  0
   47.5936  -33.7081  -11.1977 O   0  0  0  0  0  0  0  0  0  0  0  0
   49.3152  -34.9993   -9.0367 C   0  0  0  0  0  0  0  0  0  0  0  0
   50.4331  -35.5963   -9.8176 C   0  0  0  0  0  0  0  0  0  0  0  0
   51.4707  -34.4885  -10.0695 C   0  0  0  0  0  0  0  0  0  0  0  0
   52.2099  -34.2386   -8.7672 C   0  0  0  0  0  0  0  0  0  0  0  0
   51.9782  -32.9077   -8.2581 N   0  0  0  0  0  0  0  0  0  0  0  0
   47.6593  -35.8160  -12.0350 N   0  0  0  0  0  0  0  0  0  0  0  0
   48.7922  -36.5415  -12.5170 C   0  0  2  0  0  0  0  0  0  0  0  0
   50.0719  -35.8168  -12.1088 C   0  0  0  0  0  0  0  0  0  0  0  0
   50.0631  -34.6579  -11.6793 O   0  0  0  0  0  0  0  0  0  0  0  0
   48.7919  -36.6092  -14.0232 C   0  0  0  0  0  0  0  0  0  0  0  0
   49.9914  -35.9507  -14.6092 C   0  0  0  0  0  0  0  0  0  0  0  0
   49.9598  -35.4550  -15.9935 C   0  0  0  0  0  0  0  0  0  0  0  0
   50.7791  -35.9776  -16.9740 N   0  0  0  0  0  0  0  0  0  0  0  0
   51.9262  -36.7664  -16.9426 C   0  0  0  0  0  0  0  0  0  0  0  0
   52.2013  -37.6430  -15.8201 N   0  0  0  0  0  0  0  0  0  0  0  0
   52.8197  -36.7315  -17.8435 N   0  0  0  0  0  0  0  0  0  0  0  0
   51.2803  -36.5231  -12.2355 N   0  0  0  0  0  0  0  0  0  0  0  0
   52.5944  -35.9870  -11.8923 C   0  0  0  0  0  0  0  0  0  0  0  0
   53.4384  -35.7681  -13.0756 C   0  0  0  0  0  0  0  0  0  0  0  0
   54.6517  -36.4223  -13.1864 C   0  0  0  0  0  0  0  0  0  0  0  0
   55.4166  -36.1807  -14.3119 C   0  0  0  0  0  0  0  0  0  0  0  0
   55.0317  -35.3230  -15.3264 C   0  0  0  0  0  0  0  0  0  0  0  0
   55.8714  -35.1001  -16.4821 C   0  0  0  0  0  0  0  0  0  0  0  0
   55.4697  -34.0996  -17.4317 N   0  0  0  0  0  0  0  0  0  0  0  0
   56.9520  -35.7119  -16.7487 N   0  0  0  0  0  0  0  0  0  0  0  0
   53.8165  -34.6867  -15.1842 C   0  0  0  0  0  0  0  0  0  0  0  0
   53.0362  -34.9127  -14.0685 C   0  0  0  0  0  0  0  0  0  0  0  0
   49.8860  -34.4946   -3.5005 C   0  0  0  0  0  0  0  0  0  0  0  0
   49.4868  -33.7358   -4.6747 C   0  0  0  0  0  0  0  0  0  0  0  0
   50.4216  -33.7369   -5.8455 C   0  0  0  0  0  0  0  0  0  0  0  0
   51.6152  -32.8246   -5.6857 C   0  0  0  0  0  0  0  0  0  0  0  0
   52.2031  -32.3958   -6.9738 C   0  0  0  0  0  0  0  0  0  0  0  0
   50.5173  -33.8846   -2.5915 O   0  0  0  0  0  0  0  0  0  0  0  0
   53.0292  -31.4051   -6.8329 O   0  0  0  0  0  0  0  0  0  0  0  0
   49.3208  -34.8644    0.1747 H   0  0  0  0  0  0  0  0  0  0  0  0
   46.5734  -39.5274   -9.9774 H   0  0  0  0  0  0  0  0  0  0  0  0
   40.0940  -37.4148   -7.4211 H   0  0  0  0  0  0  0  0  0  0  0  0
   52.8151  -36.1613  -18.6898 H   0  0  0  0  0  0  0  0  0  0  0  0
   57.4267  -35.6308  -17.6509 H   0  0  0  0  0  0  0  0  0  0  0  0
  1  2  1  0
  1 65  1  0
  2  3  1  0
  2  5  1  1
  3  4  2  0
  3 12  1  0
  5  6  1  0
  6  7  1  0
  7  8  1  0
  8  9  1  0
  9 10  2  0
  9 11  1  0
 12 13  1  0
 13 14  1  0
 13 16  1  6
 14 15  2  0
 14 23  1  0
 16 17  1  0
 17 18  1  0
 18 19  1  0
 19 20  1  0
 20 21  1  0
 20 22  2  0
 23 24  1  0
 24 25  1  0
 24 27  1  1
 25 26  2  0
 25 34  1  0
 27 28  1  0
 28 29  1  0
 29 30  1  0
 30 31  1  0
 31 32  1  0
 31 33  2  0
 34 35  1  0
 35 36  1  6
 35 38  1  0
 36 37  2  0
 36 43  1  0
 38 39  1  0
 39 40  1  0
 40 41  1  0
 41 42  1  0
 42 69  1  0
 43 44  1  0
 44 45  1  0
 44 47  1  6
 45 46  2  0
 45 54  1  0
 47 48  1  0
 48 49  1  0
 49 50  1  0
 50 51  1  0
 51 52  1  0
 51 53  2  0
 54 55  1  0
 55 56  1  0
 56 57  2  0
 56 64  1  0
 57 58  1  0
 58 59  2  0
 59 60  1  0
 59 63  1  0
 60 61  1  0
 60 62  2  0
 63 64  2  0
 65 66  1  0
 65 70  2  0
 66 67  1  0
 67 68  1  0
 68 69  1  0
 69 71  2  0
 10 72  1  0
 22 73  1  0
 33 74  1  0
 53 75  1  0
 62 76  1  0
M  END
$$$$
