
     RDKit          3D

 76 77  0  0  0  0  0  0  0  0999 V2000
   53.1176  -34.5270   -6.2963 N   0  0  0  0  0  0  0  0  0  0  0  0
   52.4218  -35.7817   -6.3145 C   0  0  2  0  0  0  0  0  0  0  0  0
   51.2742  -35.7059   -5.3318 C   0  0  0  0  0  0  0  0  0  0  0  0
   51.6803  -35.6616   -4.1137 O   0  0  0  0  0  0  0  0  0  0  0  0
   53.3292  -36.9060   -5.9882 C   0  0  0  0  0  0  0  0  0  0  0  0
   53.8826  -37.0655   -4.6451 C   0  0  0  0  0  0  0  0  0  0  0  0
   53.1007  -36.8244   -3.4300 C   0  0  0  0  0  0  0  0  0  0  0  0
   53.1016  -35.5022   -2.8721 N   0  0  0  0  0  0  0  0  0  0  0  0
   52.4433  -35.1614   -1.6665 C   0  0  0  0  0  0  0  0  0  0  0  0
   52.5947  -35.9119   -0.6387 N   0  0  0  0  0  0  0  0  0  0  0  0
   51.6064  -33.9926   -1.5716 N   0  0  0  0  0  0  0  0  0  0  0  0
   49.9218  -35.6801   -5.5784 N   0  0  0  0  0  0  0  0  0  0  0  0
   49.0870  -34.6804   -6.2684 C   0  0  2  0  0  0  0  0  0  0  0  0
   47.7677  -35.3354   -6.4967 C   0  0  0  0  0  0  0  0  0  0  0  0
   47.3190  -35.8470   -5.3942 O   0  0  0  0  0  0  0  0  0  0  0  0
   49.7108  -34.1396   -7.4827 C   0  0  0  0  0  0  0  0  0  0  0  0
   50.7537  -33.1111   -7.2199 C   0  0  0  0  0  0  0  0  0  0  0  0
   51.5377  -33.2511   -5.9479 C   0  0  0  0  0  0  0  0  0  0  0  0
   50.8861  -33.0098   -4.7183 N   0  0  0  0  0  0  0  0  0  0  0  0
   51.6249  -33.0915   -3.5070 C   0  0  0  0  0  0  0  0  0  0  0  0
   52.9249  -32.5501   -3.3396 N   0  0  0  0  0  0  0  0  0  0  0  0
   51.0350  -33.7040   -2.5164 N   0  0  0  0  0  0  0  0  0  0  0  0
   46.9659  -35.4902   -7.6182 N   0  0  0  0  0  0  0  0  0  0  0  0
   47.1051  -36.2056   -8.8496 C   0  0  2  0  0  0  0  0  0  0  0  0
   48.1995  -37.2395   -8.7935 C   0  0  0  0  0  0  0  0  0  0  0  0
   48.4939  -37.5595   -7.5928 O   0  0  0  0  0  0  0  0  0  0  0  0
   47.0246  -35.5117  -10.1232 C   0  0  0  0  0  0  0  0  0  0  0  0
   47.2378  -34.0561  -10.2885 C   0  0  0  0  0  0  0  0  0  0  0  0
   48.5220  -33.4344   -9.9492 C   0  0  0  0  0  0  0  0  0  0  0  0
   48.3100  -32.6937   -8.6794 N   0  0  0  0  0  0  0  0  0  0  0  0
   48.7977  -31.3924   -8.4661 C   0  0  0  0  0  0  0  0  0  0  0  0
   47.8664  -30.3705   -8.0891 N   0  0  0  0  0  0  0  0  0  0  0  0
   50.0528  -31.1231   -8.6023 N   0  0  0  0  0  0  0  0  0  0  0  0
   48.8874  -37.8527   -9.8108 N   0  0  0  0  0  0  0  0  0  0  0  0
   49.5976  -37.3591  -10.9587 C   0  0  2  0  0  0  0  0  0  0  0  0
   49.0556  -37.9554  -12.1741 C   0  0  0  0  0  0  0  0  0  0  0  0
   49.8748  -38.4631  -13.0178 O   0  0  0  0  0  0  0  0  0  0  0  0
   51.0765  -37.6064  -10.8157 C   0  0  0  0  0  0  0  0  0  0  0  0
   51.5072  -39.0311  -10.8402 C   0  0  0  0  0  0  0  0  0  0  0  0
   52.7161  -39.1373  -11.7860 C   0  0  0  0  0  0  0  0  0  0  0  0
   53.9190  -38.5476  -11.0716 C   0  0  0  0  0  0  0  0  0  0  0  0
   54.4189  -37.3666  -11.7343 N   0  0  0  0  0  0  0  0  0  0  0  0
   47.6928  -38.0486  -12.5541 N   0  0  0  0  0  0  0  0  0  0  0  0
   46.6515  -38.3468  -11.6218 C   0  0  2  0  0  0  0  0  0  0  0  0
   45.2952  -38.1425  -12.2910 C   0  0  0  0  0  0  0  0  0  0  0  0
   44.2564  -37.9897  -11.6391 O   0  0  0  0  0  0  0  0  0  0  0  0
   46.6986  -37.4125  -10.4393 C   0  0  0  0  0  0  0  0  0  0  0  0
   46.5833  -38.1442   -9.1481 C   0  0  0  0  0  0  0  0  0  0  0  0
   46.2840  -37.4121   -7.9083 C   0  0  0  0  0  0  0  0  0  0  0  0
   45.7996  -38.0497   -6.7838 N   0  0  0  0  0  0  0  0  0  0  0  0
   46.4002  -38.7973   -5.7741 C   0  0  0  0  0  0  0  0  0  0  0  0
   46.0474  -38.5946   -4.3818 N   0  0  0  0  0  0  0  0  0  0  0  0
   47.3187  -39.6465   -5.9895 N   0  0  0  0  0  0  0  0  0  0  0  0
   45.2659  -38.1297  -13.6961 N   0  0  0  0  0  0  0  0  0  0  0  0
   44.6730  -39.1769  -14.5231 C   0  0  0  0  0  0  0  0  0  0  0  0
   43.8913  -40.1402  -13.7348 C   0  0  0  0  0  0  0  0  0  0  0  0
   44.1397  -40.2854  -12.3821 C   0  0  0  0  0  0  0  0  0  0  0  0
   43.3866  -41.2085  -11.6814 C   0  0  0  0  0  0  0  0  0  0  0  0
   42.4034  -41.9892  -12.2617 C   0  0  0  0  0  0  0  0  0  0  0  0
   41.6463  -42.9454  -11.4851 C   0  0  0  0  0  0  0  0  0  0  0  0
   42.0300  -43.1672  -10.1184 N   0  0  0  0  0  0  0  0  0  0  0  0
   40.6547  -43.6236  -11.8970 N   0  0  0  0  0  0  0  0  0  0  0  0
   42.1816  -41.8196  -13.6121 C   0  0  0  0  0  0  0  0  0  0  0  0
   42.9218  -40.9038  -14.3319 C   0  0  0  0  0  0  0  0  0  0  0  0
   53.7981  -34.0434   -7.4797 C   0  0  0  0  0  0  0  0  0  0  0  0
   53.3159  -34.1780   -8.8446 C   0  0  0  0  0  0  0  0  0  0  0  0
   53.6749  -35.4324   -9.5810 C   0  0  0  0  0  0  0  0  0  0  0  0
   55.0935  -35.4614  -10.0999 C   0  0  0  0  0  0  0  0  0  0  0  0
   55.2794  -36.3729  -11.2503 C   0  0  0  0  0  0  0  0  0  0  0  0
   54.9017  -33.4545   -7.3001 O   0  0  0  0  0  0  0  0  0  0  0  0
   56.4096  -36.1766  -11.8568 O   0  0  0  0  0  0  0  0  0  0  0  0
   53.0947  -36.8374   -0.7292 H   0  0  0  0  0  0  0  0  0  0  0  0
   51.1236  -33.4160   -1.5199 H   0  0  0  0  0  0  0  0  0  0  0  0
   50.6546  -31.0717   -7.7604 H   0  0  0  0  0  0  0  0  0  0  0  0
   47.3937  -40.2798   -6.7862 H   0  0  0  0  0  0  0  0  0  0  0  0
   40.1043  -44.2291  -11.2837 H   0  0  0  0  0  0  0  0  0  0  0  0
  1  2  1  0
  1 65  1  0
  2  3  1  0
  2  5  1  1
  3  4  2  0
  3 12  1  0
  5  6  1  0
  6  7  1  0
  7  8  1  0
  8  9  1  0
  9 10  2  0
  9 11  1  0
 12 13  1  0
 13 14  1  0
 13 16  1  6
 14 15  2  0
 14 23  1  0
 16 17  1  0
 17 18  1  0
 18 19  1  0
 19 20  1  0
 20 21  1  0
 20 22  2  0
 23 24  1  0
 24 25  1  0
 24 27  1  6
 25 26  2  0
 25 34  1  0
 27 28  1  0
 28 29  1  0
 29 30  1  0
 30 31  1  0
 31 32  1  0
 31 33  2  0
 34 35  1  0
 35 36  1  6
 35 38  1  0
 36 37  2  0
 36 43  1  0
 38 39  1  0
 39 40  1  0
 40 41  1  0
 41 42  1  0
 42 69  1  0
 43 44  1  0
 44 45  1  0
 44 47  1  1
 45 46  2  0
 45 54  1  0
 47 48  1  0
 48 49  1  0
 49 50  1  0
 50 51  1  0
 51 52  1  0
 51 53  2  0
 54 55  1  0
 55 56  1  0
 56 57  2  0
 56 64  1  0
 57 58  1  0
 58 59  2  0
 59 60  1  0
 59 63  1  0
 60 61  1  0
 60 62  2  0
 63 64  2  0
 65 66  1  0
 65 70  2  0
 66 67  1  0
 67 68  1  0
 68 69  1  0
 69 71  2  0
 10 72  1  0
 22 73  1  0
 33 74  1  0
 53 75  1  0
 62 76  1  0
M  END
$$$$
