
     RDKit          3D

 76 77  0  0  0  0  0  0  0  0999 V2000
   51.7104  -32.7624   -2.7720 N   0  0  0  0  0  0  0  0  0  0  0  0
   51.5946  -34.1926   -2.7765 C   0  0  2  0  0  0  0  0  0  0  0  0
   50.4384  -34.5811   -1.8817 C   0  0  0  0  0  0  0  0  0  0  0  0
   50.6861  -34.3531   -0.6419 O   0  0  0  0  0  0  0  0  0  0  0  0
   52.8521  -34.8365   -2.3317 C   0  0  0  0  0  0  0  0  0  0  0  0
   53.6754  -34.2418   -1.2810 C   0  0  0  0  0  0  0  0  0  0  0  0
   53.1084  -33.6490   -0.0674 C   0  0  0  0  0  0  0  0  0  0  0  0
   52.2077  -32.5407   -0.2089 N   0  0  0  0  0  0  0  0  0  0  0  0
   52.6156  -31.2485   -0.6168 C   0  0  0  0  0  0  0  0  0  0  0  0
   53.8214  -30.8752   -0.3949 N   0  0  0  0  0  0  0  0  0  0  0  0
   51.7049  -30.3448   -1.2723 N   0  0  0  0  0  0  0  0  0  0  0  0
   49.2205  -35.1199   -2.2237 N   0  0  0  0  0  0  0  0  0  0  0  0
   48.1106  -34.5654   -3.0194 C   0  0  2  0  0  0  0  0  0  0  0  0
   47.2005  -35.7104   -3.3069 C   0  0  0  0  0  0  0  0  0  0  0  0
   46.9097  -36.3433   -2.2145 O   0  0  0  0  0  0  0  0  0  0  0  0
   48.5579  -33.8354   -4.2123 C   0  0  0  0  0  0  0  0  0  0  0  0
   50.0341  -33.8301   -4.3997 C   0  0  0  0  0  0  0  0  0  0  0  0
   50.6522  -35.0845   -4.9446 C   0  0  0  0  0  0  0  0  0  0  0  0
   49.8747  -35.9183   -5.7782 N   0  0  0  0  0  0  0  0  0  0  0  0
   50.2812  -37.2620   -5.9988 C   0  0  0  0  0  0  0  0  0  0  0  0
   51.6216  -37.6470   -6.2567 N   0  0  0  0  0  0  0  0  0  0  0  0
   49.3367  -38.1619   -5.9483 N   0  0  0  0  0  0  0  0  0  0  0  0
   46.6305  -36.2007   -4.4728 N   0  0  0  0  0  0  0  0  0  0  0  0
   47.1544  -36.8149   -5.6543 C   0  0  2  0  0  0  0  0  0  0  0  0
   48.5675  -37.3038   -5.4701 C   0  0  0  0  0  0  0  0  0  0  0  0
   48.8647  -37.4539   -4.2372 O   0  0  0  0  0  0  0  0  0  0  0  0
   46.9043  -36.2371   -6.9633 C   0  0  0  0  0  0  0  0  0  0  0  0
   45.7298  -36.5647   -7.8028 C   0  0  0  0  0  0  0  0  0  0  0  0
   44.9524  -37.7873   -7.5754 C   0  0  0  0  0  0  0  0  0  0  0  0
   43.6784  -37.6222   -8.3206 N   0  0  0  0  0  0  0  0  0  0  0  0
   42.4314  -37.5073   -7.6815 C   0  0  0  0  0  0  0  0  0  0  0  0
   41.2537  -37.4402   -8.4954 N   0  0  0  0  0  0  0  0  0  0  0  0
   42.3464  -37.4665   -6.3941 N   0  0  0  0  0  0  0  0  0  0  0  0
   49.5296  -37.5950   -6.4048 N   0  0  0  0  0  0  0  0  0  0  0  0
   50.0691  -36.8711   -7.5231 C   0  0  2  0  0  0  0  0  0  0  0  0
   49.9241  -37.6579   -8.7425 C   0  0  0  0  0  0  0  0  0  0  0  0
   48.8766  -38.3832   -8.8751 O   0  0  0  0  0  0  0  0  0  0  0  0
   51.5014  -36.4835   -7.2645 C   0  0  0  0  0  0  0  0  0  0  0  0
   52.4789  -37.6035   -7.1879 C   0  0  0  0  0  0  0  0  0  0  0  0
   53.7002  -37.2168   -8.0400 C   0  0  0  0  0  0  0  0  0  0  0  0
   54.4904  -36.1715   -7.2731 C   0  0  0  0  0  0  0  0  0  0  0  0
   54.5160  -34.9005   -7.9571 N   0  0  0  0  0  0  0  0  0  0  0  0
   50.8235  -37.7247   -9.8365 N   0  0  0  0  0  0  0  0  0  0  0  0
   50.4187  -37.4713  -11.1834 C   0  0  2  0  0  0  0  0  0  0  0  0
   51.5810  -37.7648  -12.1279 C   0  0  0  0  0  0  0  0  0  0  0  0
   52.6626  -37.1725  -12.0440 O   0  0  0  0  0  0  0  0  0  0  0  0
   50.0563  -36.0207  -11.3769 C   0  0  0  0  0  0  0  0  0  0  0  0
   48.6423  -35.8545  -11.8116 C   0  0  0  0  0  0  0  0  0  0  0  0
   48.1258  -34.5199  -12.1508 C   0  0  0  0  0  0  0  0  0  0  0  0
   47.5744  -34.2437  -13.3859 N   0  0  0  0  0  0  0  0  0  0  0  0
   46.3263  -34.4878  -13.9530 C   0  0  0  0  0  0  0  0  0  0  0  0
   46.1494  -34.5087  -15.3926 N   0  0  0  0  0  0  0  0  0  0  0  0
   45.2696  -34.6467  -13.2679 N   0  0  0  0  0  0  0  0  0  0  0  0
   51.3798  -38.7497  -13.1101 N   0  0  0  0  0  0  0  0  0  0  0  0
   51.8971  -38.6793  -14.4738 C   0  0  0  0  0  0  0  0  0  0  0  0
   52.1271  -40.0089  -15.0567 C   0  0  0  0  0  0  0  0  0  0  0  0
   51.0504  -40.7986  -15.4165 C   0  0  0  0  0  0  0  0  0  0  0  0
   51.3128  -42.0448  -15.9533 C   0  0  0  0  0  0  0  0  0  0  0  0
   52.5902  -42.5384  -16.1475 C   0  0  0  0  0  0  0  0  0  0  0  0
   52.8115  -43.8525  -16.7086 C   0  0  0  0  0  0  0  0  0  0  0  0
   54.1533  -44.2224  -17.0649 N   0  0  0  0  0  0  0  0  0  0  0  0
   51.9211  -44.7324  -16.9226 N   0  0  0  0  0  0  0  0  0  0  0  0
   53.6410  -41.7255  -15.7778 C   0  0  0  0  0  0  0  0  0  0  0  0
   53.4025  -40.4773  -15.2394 C   0  0  0  0  0  0  0  0  0  0  0  0
   52.2300  -32.0605   -3.9273 C   0  0  0  0  0  0  0  0  0  0  0  0
   51.9625  -32.4046   -5.3143 C   0  0  0  0  0  0  0  0  0  0  0  0
   52.8652  -33.4109   -5.9603 C   0  0  0  0  0  0  0  0  0  0  0  0
   54.2092  -32.8601   -6.3763 C   0  0  0  0  0  0  0  0  0  0  0  0
   54.8490  -33.6324   -7.4640 C   0  0  0  0  0  0  0  0  0  0  0  0
   52.9755  -31.0657   -3.7002 O   0  0  0  0  0  0  0  0  0  0  0  0
   55.8461  -32.9971   -7.9987 O   0  0  0  0  0  0  0  0  0  0  0  0
   54.0511  -30.3180    0.4720 H   0  0  0  0  0  0  0  0  0  0  0  0
   48.3761  -37.9766   -5.5921 H   0  0  0  0  0  0  0  0  0  0  0  0
   41.4605  -37.1582   -5.9540 H   0  0  0  0  0  0  0  0  0  0  0  0
   44.9939  -34.1239  -12.4359 H   0  0  0  0  0  0  0  0  0  0  0  0
   51.1281  -44.8825  -16.2947 H   0  0  0  0  0  0  0  0  0  0  0  0
  1  2  1  0
  1 65  1  0
  2  3  1  0
  2  5  1  1
  3  4  2  0
  3 12  1  0
  5  6  1  0
  6  7  1  0
  7  8  1  0
  8  9  1  0
  9 10  2  0
  9 11  1  0
 12 13  1  0
 13 14  1  0
 13 16  1  6
 14 15  2  0
 14 23  1  0
 16 17  1  0
 17 18  1  0
 18 19  1  0
 19 20  1  0
 20 21  1  0
 20 22  2  0
 23 24  1  0
 24 25  1  0
 24 27  1  6
 25 26  2  0
 25 34  1  0
 27 28  1  0
 28 29  1  0
 29 30  1  0
 30 31  1  0
 31 32  1  0
 31 33  2  0
 34 35  1  0
 35 36  1  6
 35 38  1  0
 36 37  2  0
 36 43  1  0
 38 39  1  0
 39 40  1  0
 40 41  1  0
 41 42  1  0
 42 69  1  0
 43 44  1  0
 44 45  1  0
 44 47  1  1
 45 46  2  0
 45 54  1  0
 47 48  1  0
 48 49  1  0
 49 50  1  0
 50 51  1  0
 51 52  1  0
 51 53  2  0
 54 55  1  0
 55 56  1  0
 56 57  2  0
 56 64  1  0
 57 58  1  0
 58 59  2  0
 59 60  1  0
 59 63  1  0
 60 61  1  0
 60 62  2  0
 63 64  2  0
 65 66  1  0
 65 70  2  0
 66 67  1  0
 67 68  1  0
 68 69  1  0
 69 71  2  0
 10 72  1  0
 22 73  1  0
 33 74  1  0
 53 75  1  0
 62 76  1  0
M  END
$$$$
