
     RDKit          3D

 76 77  0  0  0  0  0  0  0  0999 V2000
   52.2438  -34.0636   -4.3617 N   0  0  0  0  0  0  0  0  0  0  0  0
   51.5120  -35.2958   -4.2894 C   0  0  2  0  0  0  0  0  0  0  0  0
   50.1876  -35.0257   -3.6103 C   0  0  0  0  0  0  0  0  0  0  0  0
   50.3291  -34.7442   -2.3648 O   0  0  0  0  0  0  0  0  0  0  0  0
   52.2789  -36.3364   -3.5665 C   0  0  0  0  0  0  0  0  0  0  0  0
   53.3432  -35.9784   -2.6313 C   0  0  0  0  0  0  0  0  0  0  0  0
   53.5130  -34.6229   -2.1022 C   0  0  0  0  0  0  0  0  0  0  0  0
   52.5043  -34.1052   -1.2224 N   0  0  0  0  0  0  0  0  0  0  0  0
   52.5924  -32.8432   -0.5881 C   0  0  0  0  0  0  0  0  0  0  0  0
   51.5564  -32.3632   -0.0060 N   0  0  0  0  0  0  0  0  0  0  0  0
   53.8190  -32.0873   -0.5855 N   0  0  0  0  0  0  0  0  0  0  0  0
   48.9201  -35.0453   -4.1431 N   0  0  0  0  0  0  0  0  0  0  0  0
   48.2952  -34.1983   -5.1748 C   0  0  2  0  0  0  0  0  0  0  0  0
   47.0258  -34.8821   -5.5527 C   0  0  0  0  0  0  0  0  0  0  0  0
   46.3322  -35.1662   -4.4960 O   0  0  0  0  0  0  0  0  0  0  0  0
   49.1847  -33.9079   -6.3064 C   0  0  0  0  0  0  0  0  0  0  0  0
   50.6284  -33.8746   -5.9475 C   0  0  0  0  0  0  0  0  0  0  0  0
   51.0822  -34.8232   -4.8767 C   0  0  0  0  0  0  0  0  0  0  0  0
   52.0105  -34.3680   -3.9146 N   0  0  0  0  0  0  0  0  0  0  0  0
   51.8845  -33.0542   -3.3876 C   0  0  0  0  0  0  0  0  0  0  0  0
   52.9895  -32.2329   -3.0475 N   0  0  0  0  0  0  0  0  0  0  0  0
   50.6653  -32.6157   -3.2272 N   0  0  0  0  0  0  0  0  0  0  0  0
   46.4725  -35.2519   -6.7700 N   0  0  0  0  0  0  0  0  0  0  0  0
   46.8362  -36.1953   -7.7825 C   0  0  2  0  0  0  0  0  0  0  0  0
   47.8467  -37.2010   -7.2952 C   0  0  0  0  0  0  0  0  0  0  0  0
   47.8667  -37.2798   -6.0208 O   0  0  0  0  0  0  0  0  0  0  0  0
   47.0573  -35.7647   -9.1520 C   0  0  0  0  0  0  0  0  0  0  0  0
   45.9779  -35.3377  -10.0707 C   0  0  0  0  0  0  0  0  0  0  0  0
   44.6503  -34.9748   -9.5641 C   0  0  0  0  0  0  0  0  0  0  0  0
   44.6344  -35.3373   -8.1239 N   0  0  0  0  0  0  0  0  0  0  0  0
   44.0807  -36.5384   -7.6467 C   0  0  0  0  0  0  0  0  0  0  0  0
   44.4218  -36.9653   -6.3219 N   0  0  0  0  0  0  0  0  0  0  0  0
   43.2823  -37.2389   -8.3803 N   0  0  0  0  0  0  0  0  0  0  0  0
   48.7057  -38.0036   -8.0038 N   0  0  0  0  0  0  0  0  0  0  0  0
   49.6634  -37.7466   -9.0442 C   0  0  2  0  0  0  0  0  0  0  0  0
   49.3638  -38.5685  -10.2111 C   0  0  0  0  0  0  0  0  0  0  0  0
   48.8977  -39.7461  -10.0198 O   0  0  0  0  0  0  0  0  0  0  0  0
   51.0663  -37.9648   -8.5412 C   0  0  0  0  0  0  0  0  0  0  0  0
   51.4283  -39.3677   -8.1996 C   0  0  0  0  0  0  0  0  0  0  0  0
   52.8035  -39.6606   -8.8243 C   0  0  0  0  0  0  0  0  0  0  0  0
   53.8537  -38.9451   -7.9935 C   0  0  0  0  0  0  0  0  0  0  0  0
   54.5345  -37.9184   -8.7459 N   0  0  0  0  0  0  0  0  0  0  0  0
   49.5275  -38.2192  -11.5755 N   0  0  0  0  0  0  0  0  0  0  0  0
   48.7388  -37.2123  -12.2131 C   0  0  2  0  0  0  0  0  0  0  0  0
   48.8514  -37.3610  -13.7279 C   0  0  0  0  0  0  0  0  0  0  0  0
   49.9036  -37.1324  -14.3348 O   0  0  0  0  0  0  0  0  0  0  0  0
   49.2425  -35.8327  -11.8725 C   0  0  0  0  0  0  0  0  0  0  0  0
   50.4406  -35.8806  -10.9904 C   0  0  0  0  0  0  0  0  0  0  0  0
   51.4346  -34.7977  -11.0350 C   0  0  0  0  0  0  0  0  0  0  0  0
   51.1549  -33.5313  -10.5619 N   0  0  0  0  0  0  0  0  0  0  0  0
   51.9331  -32.3971  -10.3453 C   0  0  0  0  0  0  0  0  0  0  0  0
   53.3002  -32.3244  -10.8247 N   0  0  0  0  0  0  0  0  0  0  0  0
   51.5315  -31.3946   -9.6783 N   0  0  0  0  0  0  0  0  0  0  0  0
   47.7020  -37.7770  -14.4213 N   0  0  0  0  0  0  0  0  0  0  0  0
   46.3384  -37.3824  -14.0793 C   0  0  0  0  0  0  0  0  0  0  0  0
   45.5996  -38.4516  -13.3926 C   0  0  0  0  0  0  0  0  0  0  0  0
   46.1362  -39.7242  -13.3230 C   0  0  0  0  0  0  0  0  0  0  0  0
   45.4037  -40.7007  -12.6750 C   0  0  0  0  0  0  0  0  0  0  0  0
   44.1688  -40.4703  -12.0963 C   0  0  0  0  0  0  0  0  0  0  0  0
   43.4394  -41.5284  -11.4338 C   0  0  0  0  0  0  0  0  0  0  0  0
   44.0460  -42.8286  -11.3587 N   0  0  0  0  0  0  0  0  0  0  0  0
   42.2921  -41.4229  -10.8993 N   0  0  0  0  0  0  0  0  0  0  0  0
   43.6627  -39.1905  -12.1840 C   0  0  0  0  0  0  0  0  0  0  0  0
   44.3767  -38.1996  -12.8267 C   0  0  0  0  0  0  0  0  0  0  0  0
   53.1795  -33.8234   -5.4406 C   0  0  0  0  0  0  0  0  0  0  0  0
   52.9905  -34.2220   -6.8259 C   0  0  0  0  0  0  0  0  0  0  0  0
   53.4403  -35.5974   -7.2140 C   0  0  0  0  0  0  0  0  0  0  0  0
   54.9337  -35.7312   -7.3994 C   0  0  0  0  0  0  0  0  0  0  0  0
   55.3171  -36.8512   -8.2868 C   0  0  0  0  0  0  0  0  0  0  0  0
   54.2457  -33.2135   -5.1432 O   0  0  0  0  0  0  0  0  0  0  0  0
   56.5574  -36.7807   -8.6614 O   0  0  0  0  0  0  0  0  0  0  0  0
   51.5122  -32.3262    1.0482 H   0  0  0  0  0  0  0  0  0  0  0  0
   50.0689  -32.8448   -2.4052 H   0  0  0  0  0  0  0  0  0  0  0  0
   42.8519  -38.0951   -7.9862 H   0  0  0  0  0  0  0  0  0  0  0  0
   51.8131  -30.4218   -9.8040 H   0  0  0  0  0  0  0  0  0  0  0  0
   41.4231  -41.5589  -11.4210 H   0  0  0  0  0  0  0  0  0  0  0  0
  1  2  1  0
  1 65  1  0
  2  3  1  0
  2  5  1  1
  3  4  2  0
  3 12  1  0
  5  6  1  0
  6  7  1  0
  7  8  1  0
  8  9  1  0
  9 10  2  0
  9 11  1  0
 12 13  1  0
 13 14  1  0
 13 16  1  6
 14 15  2  0
 14 23  1  0
 16 17  1  0
 17 18  1  0
 18 19  1  0
 19 20  1  0
 20 21  1  0
 20 22  2  0
 23 24  1  0
 24 25  1  0
 24 27  1  6
 25 26  2  0
 25 34  1  0
 27 28  1  0
 28 29  1  0
 29 30  1  0
 30 31  1  0
 31 32  1  0
 31 33  2  0
 34 35  1  0
 35 36  1  6
 35 38  1  0
 36 37  2  0
 36 43  1  0
 38 39  1  0
 39 40  1  0
 40 41  1  0
 41 42  1  0
 42 69  1  0
 43 44  1  0
 44 45  1  0
 44 47  1  6
 45 46  2  0
 45 54  1  0
 47 48  1  0
 48 49  1  0
 49 50  1  0
 50 51  1  0
 51 52  1  0
 51 53  2  0
 54 55  1  0
 55 56  1  0
 56 57  2  0
 56 64  1  0
 57 58  1  0
 58 59  2  0
 59 60  1  0
 59 63  1  0
 60 61  1  0
 60 62  2  0
 63 64  2  0
 65 66  1  0
 65 70  2  0
 66 67  1  0
 67 68  1  0
 68 69  1  0
 69 71  2  0
 10 72  1  0
 22 73  1  0
 33 74  1  0
 53 75  1  0
 62 76  1  0
M  END
$$$$
