
     RDKit          3D

 76 77  0  0  0  0  0  0  0  0999 V2000
   53.7434  -35.4430   -5.6600 N   0  0  0  0  0  0  0  0  0  0  0  0
   52.9999  -36.6289   -5.9761 C   0  0  2  0  0  0  0  0  0  0  0  0
   52.2540  -37.0699   -4.7362 C   0  0  0  0  0  0  0  0  0  0  0  0
   53.0454  -37.5057   -3.8228 O   0  0  0  0  0  0  0  0  0  0  0  0
   53.8876  -37.7046   -6.4746 C   0  0  0  0  0  0  0  0  0  0  0  0
   55.3377  -37.5290   -6.5175 C   0  0  0  0  0  0  0  0  0  0  0  0
   55.9823  -36.2172   -6.4185 C   0  0  0  0  0  0  0  0  0  0  0  0
   57.3901  -36.1704   -6.1438 N   0  0  0  0  0  0  0  0  0  0  0  0
   58.1298  -34.9674   -6.0534 C   0  0  0  0  0  0  0  0  0  0  0  0
   59.1154  -34.9001   -5.2370 N   0  0  0  0  0  0  0  0  0  0  0  0
   57.7972  -33.8184   -6.8565 N   0  0  0  0  0  0  0  0  0  0  0  0
   50.9017  -37.0583   -4.4879 N   0  0  0  0  0  0  0  0  0  0  0  0
   49.9526  -35.9366   -4.3730 C   0  0  2  0  0  0  0  0  0  0  0  0
   48.5924  -36.5454   -4.4077 C   0  0  0  0  0  0  0  0  0  0  0  0
   48.5047  -37.5080   -3.5450 O   0  0  0  0  0  0  0  0  0  0  0  0
   50.1695  -34.8858   -5.3753 C   0  0  0  0  0  0  0  0  0  0  0  0
   50.8093  -33.6563   -4.8336 C   0  0  0  0  0  0  0  0  0  0  0  0
   51.0641  -33.6207   -3.3550 C   0  0  0  0  0  0  0  0  0  0  0  0
   52.2732  -33.0605   -2.8874 N   0  0  0  0  0  0  0  0  0  0  0  0
   53.3414  -32.8413   -3.7987 C   0  0  0  0  0  0  0  0  0  0  0  0
   54.5440  -32.1722   -3.4561 N   0  0  0  0  0  0  0  0  0  0  0  0
   53.1665  -33.3015   -5.0078 N   0  0  0  0  0  0  0  0  0  0  0  0
   47.4538  -36.2836   -5.1558 N   0  0  0  0  0  0  0  0  0  0  0  0
   47.1262  -36.4023   -6.5436 C   0  0  2  0  0  0  0  0  0  0  0  0
   48.1055  -37.2673   -7.2937 C   0  0  0  0  0  0  0  0  0  0  0  0
   48.7621  -38.0347   -6.5121 O   0  0  0  0  0  0  0  0  0  0  0  0
   46.6713  -35.2483   -7.2993 C   0  0  0  0  0  0  0  0  0  0  0  0
   47.4968  -34.0457   -7.5521 C   0  0  0  0  0  0  0  0  0  0  0  0
   48.4713  -33.5732   -6.5632 C   0  0  0  0  0  0  0  0  0  0  0  0
   48.1451  -34.2602   -5.2875 N   0  0  0  0  0  0  0  0  0  0  0  0
   48.8964  -34.0820   -4.1125 C   0  0  0  0  0  0  0  0  0  0  0  0
   48.3222  -33.3130   -3.0482 N   0  0  0  0  0  0  0  0  0  0  0  0
   50.0727  -34.5999   -3.9917 N   0  0  0  0  0  0  0  0  0  0  0  0
   48.3722  -37.3368   -8.6384 N   0  0  0  0  0  0  0  0  0  0  0  0
   48.6894  -36.3491   -9.6331 C   0  0  2  0  0  0  0  0  0  0  0  0
   47.7344  -36.4249  -10.7327 C   0  0  0  0  0  0  0  0  0  0  0  0
   48.1123  -36.9727  -11.8272 O   0  0  0  0  0  0  0  0  0  0  0  0
   50.1114  -36.5066  -10.1042 C   0  0  0  0  0  0  0  0  0  0  0  0
   50.4138  -37.7475  -10.8688 C   0  0  0  0  0  0  0  0  0  0  0  0
   51.2277  -37.3443  -12.1106 C   0  0  0  0  0  0  0  0  0  0  0  0
   52.6364  -37.0082  -11.6546 C   0  0  0  0  0  0  0  0  0  0  0  0
   52.9634  -35.6203  -11.8800 N   0  0  0  0  0  0  0  0  0  0  0  0
   46.3969  -35.9546  -10.7458 N   0  0  0  0  0  0  0  0  0  0  0  0
   45.3302  -36.6472  -10.0941 C   0  0  2  0  0  0  0  0  0  0  0  0
   44.7031  -37.6445  -11.0645 C   0  0  0  0  0  0  0  0  0  0  0  0
   43.7550  -38.3689  -10.7419 O   0  0  0  0  0  0  0  0  0  0  0  0
   44.2368  -35.6944   -9.6822 C   0  0  0  0  0  0  0  0  0  0  0  0
   44.3920  -35.2473   -8.2708 C   0  0  0  0  0  0  0  0  0  0  0  0
   44.1756  -36.1954   -7.1676 C   0  0  0  0  0  0  0  0  0  0  0  0
   43.0794  -37.0336   -7.1310 N   0  0  0  0  0  0  0  0  0  0  0  0
   42.6889  -38.0619   -6.2770 C   0  0  0  0  0  0  0  0  0  0  0  0
   41.4158  -38.7354   -6.4494 N   0  0  0  0  0  0  0  0  0  0  0  0
   43.3754  -38.4338   -5.2762 N   0  0  0  0  0  0  0  0  0  0  0  0
   45.2451  -37.7107  -12.3595 N   0  0  0  0  0  0  0  0  0  0  0  0
   44.7833  -38.6175  -13.4067 C   0  0  0  0  0  0  0  0  0  0  0  0
   45.2952  -39.9842  -13.2323 C   0  0  0  0  0  0  0  0  0  0  0  0
   44.4151  -41.0504  -13.2017 C   0  0  0  0  0  0  0  0  0  0  0  0
   44.9393  -42.3173  -13.0276 C   0  0  0  0  0  0  0  0  0  0  0  0
   46.2913  -42.5705  -12.8835 C   0  0  0  0  0  0  0  0  0  0  0  0
   46.7892  -43.9153  -12.6984 C   0  0  0  0  0  0  0  0  0  0  0  0
   48.2101  -44.1077  -12.6068 N   0  0  0  0  0  0  0  0  0  0  0  0
   46.0827  -44.9667  -12.6060 N   0  0  0  0  0  0  0  0  0  0  0  0
   47.1412  -41.4851  -12.9184 C   0  0  0  0  0  0  0  0  0  0  0  0
   46.6399  -40.2108  -13.0909 C   0  0  0  0  0  0  0  0  0  0  0  0
   54.0202  -34.4521   -6.6791 C   0  0  0  0  0  0  0  0  0  0  0  0
   53.1021  -34.0428   -7.7296 C   0  0  0  0  0  0  0  0  0  0  0  0
   53.1107  -34.8376   -8.9996 C   0  0  0  0  0  0  0  0  0  0  0  0
   54.2695  -34.5255   -9.9174 C   0  0  0  0  0  0  0  0  0  0  0  0
   53.9998  -34.8516  -11.3351 C   0  0  0  0  0  0  0  0  0  0  0  0
   55.1568  -33.9010   -6.6424 O   0  0  0  0  0  0  0  0  0  0  0  0
   54.8731  -34.3238  -12.1367 O   0  0  0  0  0  0  0  0  0  0  0  0
   59.1360  -35.5185   -4.3814 H   0  0  0  0  0  0  0  0  0  0  0  0
   52.8738  -32.7145   -5.8163 H   0  0  0  0  0  0  0  0  0  0  0  0
   50.8281  -34.0448   -3.5503 H   0  0  0  0  0  0  0  0  0  0  0  0
   43.3976  -39.3653   -4.8600 H   0  0  0  0  0  0  0  0  0  0  0  0
   45.1949  -44.9950  -12.0994 H   0  0  0  0  0  0  0  0  0  0  0  0
  1  2  1  0
  1 65  1  0
  2  3  1  0
  2  5  1  1
  3  4  2  0
  3 12  1  0
  5  6  1  0
  6  7  1  0
  7  8  1  0
  8  9  1  0
  9 10  2  0
  9 11  1  0
 12 13  1  0
 13 14  1  0
 13 16  1  6
 14 15  2  0
 14 23  1  0
 16 17  1  0
 17 18  1  0
 18 19  1  0
 19 20  1  0
 20 21  1  0
 20 22  2  0
 23 24  1  0
 24 25  1  0
 24 27  1  6
 25 26  2  0
 25 34  1  0
 27 28  1  0
 28 29  1  0
 29 30  1  0
 30 31  1  0
 31 32  1  0
 31 33  2  0
 34 35  1  0
 35 36  1  6
 35 38  1  0
 36 37  2  0
 36 43  1  0
 38 39  1  0
 39 40  1  0
 40 41  1  0
 41 42  1  0
 42 69  1  0
 43 44  1  0
 44 45  1  0
 44 47  1  6
 45 46  2  0
 45 54  1  0
 47 48  1  0
 48 49  1  0
 49 50  1  0
 50 51  1  0
 51 52  1  0
 51 53  2  0
 54 55  1  0
 55 56  1  0
 56 57  2  0
 56 64  1  0
 57 58  1  0
 58 59  2  0
 59 60  1  0
 59 63  1  0
 60 61  1  0
 60 62  2  0
 63 64  2  0
 65 66  1  0
 65 70  2  0
 66 67  1  0
 67 68  1  0
 68 69  1  0
 69 71  2  0
 10 72  1  0
 22 73  1  0
 33 74  1  0
 53 75  1  0
 62 76  1  0
M  END
$$$$
