
     RDKit          3D

 76 77  0  0  0  0  0  0  0  0999 V2000
   50.5132  -35.1113   -4.1091 N   0  0  0  0  0  0  0  0  0  0  0  0
   50.5149  -34.1952   -5.2135 C   0  0  2  0  0  0  0  0  0  0  0  0
   51.9477  -33.9629   -5.6394 C   0  0  0  0  0  0  0  0  0  0  0  0
   52.6135  -33.3006   -4.7627 O   0  0  0  0  0  0  0  0  0  0  0  0
   49.8518  -32.9198   -4.8568 C   0  0  0  0  0  0  0  0  0  0  0  0
   50.1613  -32.2308   -3.6058 C   0  0  0  0  0  0  0  0  0  0  0  0
   51.1304  -32.7445   -2.6347 C   0  0  0  0  0  0  0  0  0  0  0  0
   50.6519  -33.1405   -1.3410 N   0  0  0  0  0  0  0  0  0  0  0  0
   51.4988  -33.5673   -0.2907 C   0  0  0  0  0  0  0  0  0  0  0  0
   51.0547  -34.4105    0.5662 N   0  0  0  0  0  0  0  0  0  0  0  0
   52.8461  -33.0728   -0.1635 N   0  0  0  0  0  0  0  0  0  0  0  0
   52.5843  -34.3575   -6.7925 N   0  0  0  0  0  0  0  0  0  0  0  0
   52.8971  -35.7020   -7.3089 C   0  0  2  0  0  0  0  0  0  0  0  0
   53.3094  -35.5102   -8.7284 C   0  0  0  0  0  0  0  0  0  0  0  0
   54.2241  -34.5967   -8.8150 O   0  0  0  0  0  0  0  0  0  0  0  0
   51.8049  -36.6656   -7.1224 C   0  0  0  0  0  0  0  0  0  0  0  0
   51.7465  -37.2565   -5.7579 C   0  0  0  0  0  0  0  0  0  0  0  0
   52.6345  -36.6425   -4.7153 C   0  0  0  0  0  0  0  0  0  0  0  0
   52.6655  -35.2359   -4.5923 N   0  0  0  0  0  0  0  0  0  0  0  0
   52.5931  -34.6445   -3.3021 C   0  0  0  0  0  0  0  0  0  0  0  0
   52.2559  -33.2856   -3.0766 N   0  0  0  0  0  0  0  0  0  0  0  0
   52.8550  -35.4330   -2.2951 N   0  0  0  0  0  0  0  0  0  0  0  0
   52.9162  -36.1024   -9.9197 N   0  0  0  0  0  0  0  0  0  0  0  0
   51.6995  -36.1098  -10.6729 C   0  0  2  0  0  0  0  0  0  0  0  0
   50.7549  -35.0148  -10.2503 C   0  0  0  0  0  0  0  0  0  0  0  0
   51.3581  -34.0762   -9.6291 O   0  0  0  0  0  0  0  0  0  0  0  0
   51.0343  -37.3604  -10.9945 C   0  0  0  0  0  0  0  0  0  0  0  0
   49.8777  -37.4715  -11.9118 C   0  0  0  0  0  0  0  0  0  0  0  0
   49.7729  -36.6264  -13.1059 C   0  0  0  0  0  0  0  0  0  0  0  0
   48.6898  -35.6467  -12.8358 N   0  0  0  0  0  0  0  0  0  0  0  0
   48.2864  -34.6794  -13.7730 C   0  0  0  0  0  0  0  0  0  0  0  0
   47.6861  -35.1256  -14.9954 N   0  0  0  0  0  0  0  0  0  0  0  0
   48.4486  -33.4202  -13.5392 N   0  0  0  0  0  0  0  0  0  0  0  0
   49.3998  -34.8979  -10.4354 N   0  0  0  0  0  0  0  0  0  0  0  0
   48.2896  -35.7721  -10.1728 C   0  0  2  0  0  0  0  0  0  0  0  0
   47.5306  -35.9951  -11.3979 C   0  0  0  0  0  0  0  0  0  0  0  0
   47.9715  -35.4830  -12.4860 O   0  0  0  0  0  0  0  0  0  0  0  0
   47.4304  -35.2221   -9.0646 C   0  0  0  0  0  0  0  0  0  0  0  0
   46.6987  -33.9618   -9.3680 C   0  0  0  0  0  0  0  0  0  0  0  0
   45.2466  -34.1384   -8.8913 C   0  0  0  0  0  0  0  0  0  0  0  0
   45.2400  -34.0469   -7.3758 C   0  0  0  0  0  0  0  0  0  0  0  0
   44.8320  -35.2865   -6.7588 N   0  0  0  0  0  0  0  0  0  0  0  0
   46.3274  -36.7308  -11.5437 N   0  0  0  0  0  0  0  0  0  0  0  0
   46.3015  -38.1574  -11.6248 C   0  0  2  0  0  0  0  0  0  0  0  0
   47.5083  -38.7311  -10.8874 C   0  0  0  0  0  0  0  0  0  0  0  0
   48.5709  -38.9875  -11.4643 O   0  0  0  0  0  0  0  0  0  0  0  0
   46.4051  -38.6210  -13.0558 C   0  0  0  0  0  0  0  0  0  0  0  0
   45.1011  -39.1173  -13.5748 C   0  0  0  0  0  0  0  0  0  0  0  0
   45.0662  -40.0715  -14.6933 C   0  0  0  0  0  0  0  0  0  0  0  0
   43.8794  -40.5832  -15.1784 N   0  0  0  0  0  0  0  0  0  0  0  0
   42.6620  -40.9050  -14.5840 C   0  0  0  0  0  0  0  0  0  0  0  0
   42.5451  -41.0444  -13.1449 N   0  0  0  0  0  0  0  0  0  0  0  0
   41.6076  -41.1511  -15.2466 N   0  0  0  0  0  0  0  0  0  0  0  0
   47.3712  -38.9584   -9.5073 N   0  0  0  0  0  0  0  0  0  0  0  0
   48.3433  -39.6715   -8.6834 C   0  0  0  0  0  0  0  0  0  0  0  0
   49.5169  -38.8480   -8.3597 C   0  0  0  0  0  0  0  0  0  0  0  0
   50.4882  -39.3388   -7.5064 C   0  0  0  0  0  0  0  0  0  0  0  0
   51.5706  -38.5274   -7.2232 C   0  0  0  0  0  0  0  0  0  0  0  0
   51.7299  -37.2573   -7.7472 C   0  0  0  0  0  0  0  0  0  0  0  0
   52.8793  -36.4454   -7.4151 C   0  0  0  0  0  0  0  0  0  0  0  0
   52.9356  -35.8482   -6.1096 N   0  0  0  0  0  0  0  0  0  0  0  0
   53.8661  -36.2016   -8.1766 N   0  0  0  0  0  0  0  0  0  0  0  0
   50.7431  -36.7986   -8.5942 C   0  0  0  0  0  0  0  0  0  0  0  0
   49.6532  -37.5915   -8.8909 C   0  0  0  0  0  0  0  0  0  0  0  0
   49.3916  -36.0007   -3.8898 C   0  0  0  0  0  0  0  0  0  0  0  0
   48.6347  -36.6767   -4.9310 C   0  0  0  0  0  0  0  0  0  0  0  0
   47.4776  -35.9378   -5.5309 C   0  0  0  0  0  0  0  0  0  0  0  0
   46.2382  -35.9218   -4.6671 C   0  0  0  0  0  0  0  0  0  0  0  0
   44.9904  -35.7145   -5.4345 C   0  0  0  0  0  0  0  0  0  0  0  0
   49.0513  -36.2013   -2.6894 O   0  0  0  0  0  0  0  0  0  0  0  0
   43.9313  -35.9849   -4.7352 O   0  0  0  0  0  0  0  0  0  0  0  0
   50.0988  -34.2756    0.9939 H   0  0  0  0  0  0  0  0  0  0  0  0
   53.3811  -35.1369   -1.4468 H   0  0  0  0  0  0  0  0  0  0  0  0
   47.9215  -32.9763  -12.7654 H   0  0  0  0  0  0  0  0  0  0  0  0
   41.4922  -41.0938  -16.2589 H   0  0  0  0  0  0  0  0  0  0  0  0
   54.1990  -36.8635   -8.8815 H   0  0  0  0  0  0  0  0  0  0  0  0
  1  2  1  0
  1 65  1  0
  2  3  1  0
  2  5  1  1
  3  4  2  0
  3 12  1  0
  5  6  1  0
  6  7  1  0
  7  8  1  0
  8  9  1  0
  9 10  2  0
  9 11  1  0
 12 13  1  0
 13 14  1  0
 13 16  1  6
 14 15  2  0
 14 23  1  0
 16 17  1  0
 17 18  1  0
 18 19  1  0
 19 20  1  0
 20 21  1  0
 20 22  2  0
 23 24  1  0
 24 25  1  0
 24 27  1  1
 25 26  2  0
 25 34  1  0
 27 28  1  0
 28 29  1  0
 29 30  1  0
 30 31  1  0
 31 32  1  0
 31 33  2  0
 34 35  1  0
 35 36  1  6
 35 38  1  0
 36 37  2  0
 36 43  1  0
 38 39  1  0
 39 40  1  0
 40 41  1  0
 41 42  1  0
 42 69  1  0
 43 44  1  0
 44 45  1  0
 44 47  1  6
 45 46  2  0
 45 54  1  0
 47 48  1  0
 48 49  1  0
 49 50  1  0
 50 51  1  0
 51 52  1  0
 51 53  2  0
 54 55  1  0
 55 56  1  0
 56 57  2  0
 56 64  1  0
 57 58  1  0
 58 59  2  0
 59 60  1  0
 59 63  1  0
 60 61  1  0
 60 62  2  0
 63 64  2  0
 65 66  1  0
 65 70  2  0
 66 67  1  0
 67 68  1  0
 68 69  1  0
 69 71  2  0
 10 72  1  0
 22 73  1  0
 33 74  1  0
 53 75  1  0
 62 76  1  0
M  END
$$$$
