
     RDKit          3D

 76 77  0  0  0  0  0  0  0  0999 V2000
   52.4895  -34.7160   -5.3855 N   0  0  0  0  0  0  0  0  0  0  0  0
   52.0218  -36.0639   -5.5384 C   0  0  2  0  0  0  0  0  0  0  0  0
   50.8479  -36.2708   -4.6071 C   0  0  0  0  0  0  0  0  0  0  0  0
   51.2015  -36.2664   -3.3720 O   0  0  0  0  0  0  0  0  0  0  0  0
   53.0990  -37.0425   -5.2635 C   0  0  0  0  0  0  0  0  0  0  0  0
   53.8459  -37.0118   -4.0078 C   0  0  0  0  0  0  0  0  0  0  0  0
   53.3905  -36.2683   -2.8306 C   0  0  0  0  0  0  0  0  0  0  0  0
   53.7252  -36.7797   -1.5321 N   0  0  0  0  0  0  0  0  0  0  0  0
   53.3991  -36.1195   -0.3236 C   0  0  0  0  0  0  0  0  0  0  0  0
   52.1920  -36.1611    0.1047 N   0  0  0  0  0  0  0  0  0  0  0  0
   54.3933  -35.4011    0.4322 N   0  0  0  0  0  0  0  0  0  0  0  0
   49.5199  -36.4528   -4.9133 N   0  0  0  0  0  0  0  0  0  0  0  0
   48.5471  -35.5519   -5.5571 C   0  0  2  0  0  0  0  0  0  0  0  0
   47.3687  -36.3982   -5.8991 C   0  0  0  0  0  0  0  0  0  0  0  0
   46.9805  -37.0739   -4.8641 O   0  0  0  0  0  0  0  0  0  0  0  0
   49.1062  -34.8079   -6.6928 C   0  0  0  0  0  0  0  0  0  0  0  0
   49.9334  -33.6352   -6.2991 C   0  0  0  0  0  0  0  0  0  0  0  0
   50.8941  -33.8348   -5.1634 C   0  0  0  0  0  0  0  0  0  0  0  0
   52.2582  -34.0520   -5.4577 N   0  0  0  0  0  0  0  0  0  0  0  0
   53.2452  -33.2342   -4.8441 C   0  0  0  0  0  0  0  0  0  0  0  0
   54.1257  -33.6895   -3.8298 N   0  0  0  0  0  0  0  0  0  0  0  0
   53.3144  -32.0022   -5.2705 N   0  0  0  0  0  0  0  0  0  0  0  0
   46.6416  -36.5867   -7.0655 N   0  0  0  0  0  0  0  0  0  0  0  0
   46.9413  -37.1562   -8.3435 C   0  0  2  0  0  0  0  0  0  0  0  0
   48.1955  -37.9906   -8.3215 C   0  0  0  0  0  0  0  0  0  0  0  0
   48.5027  -38.3611   -7.1386 O   0  0  0  0  0  0  0  0  0  0  0  0
   46.7825  -36.3760   -9.5584 C   0  0  0  0  0  0  0  0  0  0  0  0
   45.4774  -36.0962  -10.1986 C   0  0  0  0  0  0  0  0  0  0  0  0
   44.2176  -36.3207   -9.4822 C   0  0  0  0  0  0  0  0  0  0  0  0
   44.1531  -37.7750   -9.1874 N   0  0  0  0  0  0  0  0  0  0  0  0
   42.9872  -38.4065   -8.7198 C   0  0  0  0  0  0  0  0  0  0  0  0
   43.1265  -39.4965   -7.7998 N   0  0  0  0  0  0  0  0  0  0  0  0
   41.8194  -38.0141   -9.1053 N   0  0  0  0  0  0  0  0  0  0  0  0
   49.0109  -38.3859   -9.3525 N   0  0  0  0  0  0  0  0  0  0  0  0
   49.6611  -37.6794  -10.4220 C   0  0  2  0  0  0  0  0  0  0  0  0
   49.2690  -38.2489  -11.7060 C   0  0  0  0  0  0  0  0  0  0  0  0
   50.1379  -38.2788  -12.6468 O   0  0  0  0  0  0  0  0  0  0  0  0
   51.1552  -37.6842  -10.2313 C   0  0  0  0  0  0  0  0  0  0  0  0
   51.8261  -39.0075  -10.3524 C   0  0  0  0  0  0  0  0  0  0  0  0
   53.0645  -38.8233  -11.2466 C   0  0  0  0  0  0  0  0  0  0  0  0
   54.1242  -38.1039  -10.4313 C   0  0  0  0  0  0  0  0  0  0  0  0
   54.4333  -36.8013  -10.9713 N   0  0  0  0  0  0  0  0  0  0  0  0
   48.0075  -38.7922  -12.0581 N   0  0  0  0  0  0  0  0  0  0  0  0
   46.7744  -38.2466  -11.5848 C   0  0  2  0  0  0  0  0  0  0  0  0
   47.0043  -36.8201  -11.0935 C   0  0  0  0  0  0  0  0  0  0  0  0
   46.8840  -35.8406  -11.8377 O   0  0  0  0  0  0  0  0  0  0  0  0
   46.2495  -39.0323  -10.4099 C   0  0  0  0  0  0  0  0  0  0  0  0
   45.7236  -40.3627  -10.8215 C   0  0  0  0  0  0  0  0  0  0  0  0
   46.6398  -41.5018  -10.9818 C   0  0  0  0  0  0  0  0  0  0  0  0
   47.0322  -41.9525  -12.2262 N   0  0  0  0  0  0  0  0  0  0  0  0
   46.3386  -42.4501  -13.3264 C   0  0  0  0  0  0  0  0  0  0  0  0
   44.8940  -42.5798  -13.3046 N   0  0  0  0  0  0  0  0  0  0  0  0
   46.9115  -42.8706  -14.3782 N   0  0  0  0  0  0  0  0  0  0  0  0
   47.3593  -36.6531   -9.7439 N   0  0  0  0  0  0  0  0  0  0  0  0
   46.4075  -36.5725   -8.6396 C   0  0  0  0  0  0  0  0  0  0  0  0
   47.0255  -36.0803   -7.4001 C   0  0  0  0  0  0  0  0  0  0  0  0
   47.1973  -34.7216   -7.2087 C   0  0  0  0  0  0  0  0  0  0  0  0
   47.7901  -34.3036   -6.0323 C   0  0  0  0  0  0  0  0  0  0  0  0
   48.2173  -35.1708   -5.0431 C   0  0  0  0  0  0  0  0  0  0  0  0
   48.8372  -34.6829   -3.8314 C   0  0  0  0  0  0  0  0  0  0  0  0
   48.8043  -35.5218   -2.6655 N   0  0  0  0  0  0  0  0  0  0  0  0
   49.4211  -33.5639   -3.6900 N   0  0  0  0  0  0  0  0  0  0  0  0
   48.0313  -36.5189   -5.2659 C   0  0  0  0  0  0  0  0  0  0  0  0
   47.4418  -36.9591   -6.4336 C   0  0  0  0  0  0  0  0  0  0  0  0
   53.1133  -34.0212   -6.4924 C   0  0  0  0  0  0  0  0  0  0  0  0
   52.7050  -34.1143   -7.8847 C   0  0  0  0  0  0  0  0  0  0  0  0
   53.2985  -35.2195   -8.7038 C   0  0  0  0  0  0  0  0  0  0  0  0
   54.7165  -34.9616   -9.1570 C   0  0  0  0  0  0  0  0  0  0  0  0
   55.0934  -35.7230  -10.3682 C   0  0  0  0  0  0  0  0  0  0  0  0
   54.0924  -33.2721   -6.2143 O   0  0  0  0  0  0  0  0  0  0  0  0
   56.1913  -35.2852  -10.9036 O   0  0  0  0  0  0  0  0  0  0  0  0
   51.9795  -35.9201    1.1105 H   0  0  0  0  0  0  0  0  0  0  0  0
   53.9850  -31.2964   -4.9015 H   0  0  0  0  0  0  0  0  0  0  0  0
   40.9855  -38.5703   -8.8429 H   0  0  0  0  0  0  0  0  0  0  0  0
   47.2903  -43.8046  -14.5385 H   0  0  0  0  0  0  0  0  0  0  0  0
   50.2738  -33.4497   -3.1372 H   0  0  0  0  0  0  0  0  0  0  0  0
  1  2  1  0
  1 65  1  0
  2  3  1  0
  2  5  1  1
  3  4  2  0
  3 12  1  0
  5  6  1  0
  6  7  1  0
  7  8  1  0
  8  9  1  0
  9 10  2  0
  9 11  1  0
 12 13  1  0
 13 14  1  0
 13 16  1  6
 14 15  2  0
 14 23  1  0
 16 17  1  0
 17 18  1  0
 18 19  1  0
 19 20  1  0
 20 21  1  0
 20 22  2  0
 23 24  1  0
 24 25  1  0
 24 27  1  6
 25 26  2  0
 25 34  1  0
 27 28  1  0
 28 29  1  0
 29 30  1  0
 30 31  1  0
 31 32  1  0
 31 33  2  0
 34 35  1  0
 35 36  1  6
 35 38  1  0
 36 37  2  0
 36 43  1  0
 38 39  1  0
 39 40  1  0
 40 41  1  0
 41 42  1  0
 42 69  1  0
 43 44  1  0
 44 45  1  0
 44 47  1  1
 45 46  2  0
 45 54  1  0
 47 48  1  0
 48 49  1  0
 49 50  1  0
 50 51  1  0
 51 52  1  0
 51 53  2  0
 54 55  1  0
 55 56  1  0
 56 57  2  0
 56 64  1  0
 57 58  1  0
 58 59  2  0
 59 60  1  0
 59 63  1  0
 60 61  1  0
 60 62  2  0
 63 64  2  0
 65 66  1  0
 65 70  2  0
 66 67  1  0
 67 68  1  0
 68 69  1  0
 69 71  2  0
 10 72  1  0
 22 73  1  0
 33 74  1  0
 53 75  1  0
 62 76  1  0
M  END
$$$$
