
     RDKit          3D

 76 77  0  0  0  0  0  0  0  0999 V2000
   54.1977  -32.9959   -5.1952 N   0  0  0  0  0  0  0  0  0  0  0  0
   53.4781  -34.0827   -4.5952 C   0  0  2  0  0  0  0  0  0  0  0  0
   52.4212  -33.5076   -3.6785 C   0  0  0  0  0  0  0  0  0  0  0  0
   52.9315  -32.9426   -2.6436 O   0  0  0  0  0  0  0  0  0  0  0  0
   54.3877  -34.9890   -3.8571 C   0  0  0  0  0  0  0  0  0  0  0  0
   54.1265  -35.3540   -2.4664 C   0  0  0  0  0  0  0  0  0  0  0  0
   53.5538  -34.4198   -1.4941 C   0  0  0  0  0  0  0  0  0  0  0  0
   52.5199  -33.5278   -1.9358 N   0  0  0  0  0  0  0  0  0  0  0  0
   51.7994  -32.6743   -1.0669 C   0  0  0  0  0  0  0  0  0  0  0  0
   50.6360  -32.2655   -1.4161 N   0  0  0  0  0  0  0  0  0  0  0  0
   52.3463  -32.2540    0.1981 N   0  0  0  0  0  0  0  0  0  0  0  0
   51.0533  -33.5190   -3.8177 N   0  0  0  0  0  0  0  0  0  0  0  0
   50.1822  -32.8915   -4.8275 C   0  0  2  0  0  0  0  0  0  0  0  0
   48.8354  -33.5032   -4.6439 C   0  0  0  0  0  0  0  0  0  0  0  0
   48.4732  -33.4372   -3.4018 O   0  0  0  0  0  0  0  0  0  0  0  0
   50.7097  -32.9918   -6.1941 C   0  0  0  0  0  0  0  0  0  0  0  0
   52.1713  -33.2638   -6.2596 C   0  0  0  0  0  0  0  0  0  0  0  0
   52.8518  -33.6223   -4.9709 C   0  0  0  0  0  0  0  0  0  0  0  0
   52.0619  -33.8136   -3.8159 N   0  0  0  0  0  0  0  0  0  0  0  0
   52.6084  -34.5049   -2.7010 C   0  0  0  0  0  0  0  0  0  0  0  0
   51.8452  -34.9184   -1.5795 N   0  0  0  0  0  0  0  0  0  0  0  0
   53.8882  -34.7573   -2.7546 N   0  0  0  0  0  0  0  0  0  0  0  0
   47.9370  -34.1007   -5.5161 N   0  0  0  0  0  0  0  0  0  0  0  0
   47.9555  -35.3005   -6.2956 C   0  0  2  0  0  0  0  0  0  0  0  0
   49.0299  -36.2586   -5.8511 C   0  0  0  0  0  0  0  0  0  0  0  0
   49.4203  -36.0198   -4.6589 O   0  0  0  0  0  0  0  0  0  0  0  0
   47.7794  -35.2511   -7.7366 C   0  0  0  0  0  0  0  0  0  0  0  0
   46.9297  -34.2595   -8.4338 C   0  0  0  0  0  0  0  0  0  0  0  0
   47.5193  -33.2187   -9.2824 C   0  0  0  0  0  0  0  0  0  0  0  0
   46.4936  -32.8718  -10.2990 N   0  0  0  0  0  0  0  0  0  0  0  0
   45.6197  -31.7796  -10.1574 C   0  0  0  0  0  0  0  0  0  0  0  0
   44.8741  -31.3522  -11.3043 N   0  0  0  0  0  0  0  0  0  0  0  0
   45.4878  -31.1775   -9.0232 N   0  0  0  0  0  0  0  0  0  0  0  0
   49.6154  -37.3021   -6.5238 N   0  0  0  0  0  0  0  0  0  0  0  0
   50.2337  -37.4194   -7.8159 C   0  0  2  0  0  0  0  0  0  0  0  0
   49.5773  -38.4673   -8.5891 C   0  0  0  0  0  0  0  0  0  0  0  0
   49.0625  -39.4552   -7.9567 O   0  0  0  0  0  0  0  0  0  0  0  0
   51.7143  -37.6591   -7.6771 C   0  0  0  0  0  0  0  0  0  0  0  0
   52.1129  -38.9641   -7.0822 C   0  0  0  0  0  0  0  0  0  0  0  0
   53.2335  -39.5532   -7.9565 C   0  0  0  0  0  0  0  0  0  0  0  0
   54.5049  -38.7742   -7.6705 C   0  0  0  0  0  0  0  0  0  0  0  0
   54.9692  -38.0486   -8.8288 N   0  0  0  0  0  0  0  0  0  0  0  0
   49.4307  -38.5348   -9.9977 N   0  0  0  0  0  0  0  0  0  0  0  0
   48.4491  -37.7764  -10.7075 C   0  0  2  0  0  0  0  0  0  0  0  0
   47.2608  -38.6723  -11.0460 C   0  0  0  0  0  0  0  0  0  0  0  0
   47.3372  -39.9056  -11.0159 O   0  0  0  0  0  0  0  0  0  0  0  0
   48.9985  -37.2690  -12.0166 C   0  0  0  0  0  0  0  0  0  0  0  0
   49.0196  -35.7815  -12.0711 C   0  0  0  0  0  0  0  0  0  0  0  0
   49.6814  -35.0926  -13.1892 C   0  0  0  0  0  0  0  0  0  0  0  0
   49.0777  -34.0501  -13.8633 N   0  0  0  0  0  0  0  0  0  0  0  0
   47.8621  -33.9174  -14.5295 C   0  0  0  0  0  0  0  0  0  0  0  0
   47.7937  -33.9596  -15.9778 N   0  0  0  0  0  0  0  0  0  0  0  0
   46.7629  -33.6965  -13.9344 N   0  0  0  0  0  0  0  0  0  0  0  0
   46.0557  -38.0390  -11.3950 N   0  0  0  0  0  0  0  0  0  0  0  0
   44.9844  -37.7188  -10.4558 C   0  0  0  0  0  0  0  0  0  0  0  0
   44.7646  -38.7860   -9.4694 C   0  0  0  0  0  0  0  0  0  0  0  0
   43.7340  -39.6900   -9.6510 C   0  0  0  0  0  0  0  0  0  0  0  0
   43.5586  -40.6721   -8.6945 C   0  0  0  0  0  0  0  0  0  0  0  0
   44.3573  -40.7953   -7.5721 C   0  0  0  0  0  0  0  0  0  0  0  0
   44.1288  -41.8384   -6.5972 C   0  0  0  0  0  0  0  0  0  0  0  0
   43.2635  -42.9276   -6.9570 N   0  0  0  0  0  0  0  0  0  0  0  0
   44.6263  -41.8912   -5.4299 N   0  0  0  0  0  0  0  0  0  0  0  0
   45.3755  -39.8777   -7.4214 C   0  0  0  0  0  0  0  0  0  0  0  0
   45.5690  -38.8882   -8.3639 C   0  0  0  0  0  0  0  0  0  0  0  0
   54.7832  -33.1364   -6.5122 C   0  0  0  0  0  0  0  0  0  0  0  0
   54.1826  -33.8436   -7.6316 C   0  0  0  0  0  0  0  0  0  0  0  0
   54.4519  -35.3133   -7.7416 C   0  0  0  0  0  0  0  0  0  0  0  0
   55.8197  -35.6531   -8.2858 C   0  0  0  0  0  0  0  0  0  0  0  0
   55.8877  -36.9939   -8.9075 C   0  0  0  0  0  0  0  0  0  0  0  0
   55.9097  -32.5933   -6.6945 O   0  0  0  0  0  0  0  0  0  0  0  0
   56.9651  -37.1562   -9.6122 O   0  0  0  0  0  0  0  0  0  0  0  0
   50.4816  -31.2474   -1.6492 H   0  0  0  0  0  0  0  0  0  0  0  0
   54.3335  -35.3495   -3.4860 H   0  0  0  0  0  0  0  0  0  0  0  0
   45.6731  -31.6996   -8.1476 H   0  0  0  0  0  0  0  0  0  0  0  0
   46.6336  -33.4816  -12.9451 H   0  0  0  0  0  0  0  0  0  0  0  0
   44.0758  -42.1347   -4.6033 H   0  0  0  0  0  0  0  0  0  0  0  0
  1  2  1  0
  1 65  1  0
  2  3  1  0
  2  5  1  1
  3  4  2  0
  3 12  1  0
  5  6  1  0
  6  7  1  0
  7  8  1  0
  8  9  1  0
  9 10  2  0
  9 11  1  0
 12 13  1  0
 13 14  1  0
 13 16  1  6
 14 15  2  0
 14 23  1  0
 16 17  1  0
 17 18  1  0
 18 19  1  0
 19 20  1  0
 20 21  1  0
 20 22  2  0
 23 24  1  0
 24 25  1  0
 24 27  1  6
 25 26  2  0
 25 34  1  0
 27 28  1  0
 28 29  1  0
 29 30  1  0
 30 31  1  0
 31 32  1  0
 31 33  2  0
 34 35  1  0
 35 36  1  1
 35 38  1  0
 36 37  2  0
 36 43  1  0
 38 39  1  0
 39 40  1  0
 40 41  1  0
 41 42  1  0
 42 69  1  0
 43 44  1  0
 44 45  1  0
 44 47  1  6
 45 46  2  0
 45 54  1  0
 47 48  1  0
 48 49  1  0
 49 50  1  0
 50 51  1  0
 51 52  1  0
 51 53  2  0
 54 55  1  0
 55 56  1  0
 56 57  2  0
 56 64  1  0
 57 58  1  0
 58 59  2  0
 59 60  1  0
 59 63  1  0
 60 61  1  0
 60 62  2  0
 63 64  2  0
 65 66  1  0
 65 70  2  0
 66 67  1  0
 67 68  1  0
 68 69  1  0
 69 71  2  0
 10 72  1  0
 22 73  1  0
 33 74  1  0
 53 75  1  0
 62 76  1  0
M  END
$$$$
