
     RDKit          3D

 76 77  0  0  0  0  0  0  0  0999 V2000
   53.0577  -34.0720   -3.8374 N   0  0  0  0  0  0  0  0  0  0  0  0
   53.3949  -35.2657   -4.5586 C   0  0  2  0  0  0  0  0  0  0  0  0
   53.0452  -36.4591   -3.6973 C   0  0  0  0  0  0  0  0  0  0  0  0
   53.8131  -36.5596   -2.6722 O   0  0  0  0  0  0  0  0  0  0  0  0
   54.8274  -35.2816   -4.9346 C   0  0  0  0  0  0  0  0  0  0  0  0
   55.8063  -34.4670   -4.2179 C   0  0  0  0  0  0  0  0  0  0  0  0
   55.5507  -33.9029   -2.8903 C   0  0  0  0  0  0  0  0  0  0  0  0
   55.4166  -34.8053   -1.7825 N   0  0  0  0  0  0  0  0  0  0  0  0
   55.3026  -34.3810   -0.4373 C   0  0  0  0  0  0  0  0  0  0  0  0
   56.2158  -34.7080    0.4003 N   0  0  0  0  0  0  0  0  0  0  0  0
   54.1823  -33.5930    0.0098 N   0  0  0  0  0  0  0  0  0  0  0  0
   52.0550  -37.3963   -3.8752 N   0  0  0  0  0  0  0  0  0  0  0  0
   50.5874  -37.2605   -3.8698 C   0  0  2  0  0  0  0  0  0  0  0  0
   50.0555  -38.5401   -4.4190 C   0  0  0  0  0  0  0  0  0  0  0  0
   50.5757  -39.5509   -3.7977 O   0  0  0  0  0  0  0  0  0  0  0  0
   50.1116  -36.0596   -4.5680 C   0  0  0  0  0  0  0  0  0  0  0  0
   51.0258  -34.8912   -4.4527 C   0  0  0  0  0  0  0  0  0  0  0  0
   52.1866  -35.0298   -3.5115 C   0  0  0  0  0  0  0  0  0  0  0  0
   52.5926  -36.3244   -3.1195 N   0  0  0  0  0  0  0  0  0  0  0  0
   52.0056  -36.9246   -1.9728 C   0  0  0  0  0  0  0  0  0  0  0  0
   50.6182  -36.8777   -1.6825 N   0  0  0  0  0  0  0  0  0  0  0  0
   52.8248  -37.5477   -1.1697 N   0  0  0  0  0  0  0  0  0  0  0  0
   49.1464  -38.8368   -5.4241 N   0  0  0  0  0  0  0  0  0  0  0  0
   49.1443  -38.6684   -6.8451 C   0  0  2  0  0  0  0  0  0  0  0  0
   50.5208  -38.3960   -7.3939 C   0  0  0  0  0  0  0  0  0  0  0  0
   51.4391  -38.7693   -6.5888 O   0  0  0  0  0  0  0  0  0  0  0  0
   48.0953  -37.9062   -7.4997 C   0  0  0  0  0  0  0  0  0  0  0  0
   46.8548  -38.5027   -8.0445 C   0  0  0  0  0  0  0  0  0  0  0  0
   46.5377  -39.9188   -7.8326 C   0  0  0  0  0  0  0  0  0  0  0  0
   47.0709  -40.6515   -9.0094 N   0  0  0  0  0  0  0  0  0  0  0  0
   46.4928  -41.8379   -9.4940 C   0  0  0  0  0  0  0  0  0  0  0  0
   47.2898  -43.0289   -9.5018 N   0  0  0  0  0  0  0  0  0  0  0  0
   45.2739  -41.8573   -9.9188 N   0  0  0  0  0  0  0  0  0  0  0  0
   50.8997  -37.8284   -8.5849 N   0  0  0  0  0  0  0  0  0  0  0  0
   50.5381  -36.6099   -9.2558 C   0  0  2  0  0  0  0  0  0  0  0  0
   50.0321  -36.9076  -10.5908 C   0  0  0  0  0  0  0  0  0  0  0  0
   50.8212  -37.4737  -11.4260 O   0  0  0  0  0  0  0  0  0  0  0  0
   51.7031  -35.6558   -9.2899 C   0  0  0  0  0  0  0  0  0  0  0  0
   52.8655  -36.0718  -10.1216 C   0  0  0  0  0  0  0  0  0  0  0  0
   53.2899  -34.8607  -10.9702 C   0  0  0  0  0  0  0  0  0  0  0  0
   54.0024  -33.8793  -10.0568 C   0  0  0  0  0  0  0  0  0  0  0  0
   53.2867  -32.6315   -9.9366 N   0  0  0  0  0  0  0  0  0  0  0  0
   48.7355  -36.6422  -11.0994 N   0  0  0  0  0  0  0  0  0  0  0  0
   47.9420  -35.5416  -10.6505 C   0  0  2  0  0  0  0  0  0  0  0  0
   47.6391  -35.7056   -9.1637 C   0  0  0  0  0  0  0  0  0  0  0  0
   46.8457  -36.5553   -8.7438 O   0  0  0  0  0  0  0  0  0  0  0  0
   46.6142  -35.5040  -11.3637 C   0  0  0  0  0  0  0  0  0  0  0  0
   46.1616  -34.1095  -11.6221 C   0  0  0  0  0  0  0  0  0  0  0  0
   45.5077  -33.7690  -12.8946 C   0  0  0  0  0  0  0  0  0  0  0  0
   45.4057  -34.6783  -13.9282 N   0  0  0  0  0  0  0  0  0  0  0  0
   44.3814  -35.5097  -14.3739 C   0  0  0  0  0  0  0  0  0  0  0  0
   44.6304  -36.5386  -15.3656 N   0  0  0  0  0  0  0  0  0  0  0  0
   43.1750  -35.3907  -13.9976 N   0  0  0  0  0  0  0  0  0  0  0  0
   48.3054  -34.8474   -8.2722 N   0  0  0  0  0  0  0  0  0  0  0  0
   48.0828  -34.8146   -6.8295 C   0  0  0  0  0  0  0  0  0  0  0  0
   48.8926  -33.7872   -6.1594 C   0  0  0  0  0  0  0  0  0  0  0  0
   48.2813  -32.6644   -5.6321 C   0  0  0  0  0  0  0  0  0  0  0  0
   49.0820  -31.7200   -5.0178 C   0  0  0  0  0  0  0  0  0  0  0  0
   50.4551  -31.8411   -4.9048 C   0  0  0  0  0  0  0  0  0  0  0  0
   51.2493  -30.8213   -4.2569 C   0  0  0  0  0  0  0  0  0  0  0  0
   50.6678  -29.5201   -4.0749 N   0  0  0  0  0  0  0  0  0  0  0  0
   52.4343  -30.9619   -3.8222 N   0  0  0  0  0  0  0  0  0  0  0  0
   51.0326  -32.9725   -5.4415 C   0  0  0  0  0  0  0  0  0  0  0  0
   50.2525  -33.9286   -6.0597 C   0  0  0  0  0  0  0  0  0  0  0  0
   52.6678  -32.8689   -4.5430 C   0  0  0  0  0  0  0  0  0  0  0  0
   51.8434  -32.8222   -5.7397 C   0  0  0  0  0  0  0  0  0  0  0  0
   52.5394  -32.9481   -7.0604 C   0  0  0  0  0  0  0  0  0  0  0  0
   53.2371  -31.6876   -7.5153 C   0  0  0  0  0  0  0  0  0  0  0  0
   53.4242  -31.6165   -8.9812 C   0  0  0  0  0  0  0  0  0  0  0  0
   53.0820  -31.7728   -4.0697 O   0  0  0  0  0  0  0  0  0  0  0  0
   53.7569  -30.4267   -9.3782 O   0  0  0  0  0  0  0  0  0  0  0  0
   55.9545  -34.9901    1.3836 H   0  0  0  0  0  0  0  0  0  0  0  0
   52.5201  -38.0865   -0.3326 H   0  0  0  0  0  0  0  0  0  0  0  0
   45.0167  -42.4970  -10.6923 H   0  0  0  0  0  0  0  0  0  0  0  0
   42.3718  -35.9213  -14.3365 H   0  0  0  0  0  0  0  0  0  0  0  0
   52.6440  -31.1825   -2.8459 H   0  0  0  0  0  0  0  0  0  0  0  0
  1  2  1  0
  1 65  1  0
  2  3  1  0
  2  5  1  1
  3  4  2  0
  3 12  1  0
  5  6  1  0
  6  7  1  0
  7  8  1  0
  8  9  1  0
  9 10  2  0
  9 11  1  0
 12 13  1  0
 13 14  1  0
 13 16  1  6
 14 15  2  0
 14 23  1  0
 16 17  1  0
 17 18  1  0
 18 19  1  0
 19 20  1  0
 20 21  1  0
 20 22  2  0
 23 24  1  0
 24 25  1  0
 24 27  1  1
 25 26  2  0
 25 34  1  0
 27 28  1  0
 28 29  1  0
 29 30  1  0
 30 31  1  0
 31 32  1  0
 31 33  2  0
 34 35  1  0
 35 36  1  6
 35 38  1  0
 36 37  2  0
 36 43  1  0
 38 39  1  0
 39 40  1  0
 40 41  1  0
 41 42  1  0
 42 69  1  0
 43 44  1  0
 44 45  1  0
 44 47  1  6
 45 46  2  0
 45 54  1  0
 47 48  1  0
 48 49  1  0
 49 50  1  0
 50 51  1  0
 51 52  1  0
 51 53  2  0
 54 55  1  0
 55 56  1  0
 56 57  2  0
 56 64  1  0
 57 58  1  0
 58 59  2  0
 59 60  1  0
 59 63  1  0
 60 61  1  0
 60 62  2  0
 63 64  2  0
 65 66  1  0
 65 70  2  0
 66 67  1  0
 67 68  1  0
 68 69  1  0
 69 71  2  0
 10 72  1  0
 22 73  1  0
 33 74  1  0
 53 75  1  0
 62 76  1  0
M  END
$$$$
