
     RDKit          3D

 76 77  0  0  0  0  0  0  0  0999 V2000
   53.9329  -35.5818   -6.8736 N   0  0  0  0  0  0  0  0  0  0  0  0
   53.1244  -34.5257   -7.4120 C   0  0  2  0  0  0  0  0  0  0  0  0
   53.2698  -34.5327   -8.9176 C   0  0  0  0  0  0  0  0  0  0  0  0
   54.4427  -34.1677   -9.2938 O   0  0  0  0  0  0  0  0  0  0  0  0
   53.5074  -33.2117   -6.8459 C   0  0  0  0  0  0  0  0  0  0  0  0
   54.7416  -33.0491   -6.0805 C   0  0  0  0  0  0  0  0  0  0  0  0
   55.3621  -34.1446   -5.3316 C   0  0  0  0  0  0  0  0  0  0  0  0
   56.7946  -34.2274   -5.3096 N   0  0  0  0  0  0  0  0  0  0  0  0
   57.5495  -34.9721   -6.2468 C   0  0  0  0  0  0  0  0  0  0  0  0
   58.1007  -34.3625   -7.2302 N   0  0  0  0  0  0  0  0  0  0  0  0
   57.7087  -36.3984   -6.1201 N   0  0  0  0  0  0  0  0  0  0  0  0
   52.3427  -34.8666   -9.8766 N   0  0  0  0  0  0  0  0  0  0  0  0
   51.6800  -36.1498  -10.1709 C   0  0  2  0  0  0  0  0  0  0  0  0
   50.5625  -35.8294  -11.1039 C   0  0  0  0  0  0  0  0  0  0  0  0
   50.9932  -35.1237  -12.1014 O   0  0  0  0  0  0  0  0  0  0  0  0
   51.2697  -36.8825   -8.9664 C   0  0  0  0  0  0  0  0  0  0  0  0
   52.3705  -37.1057   -7.9903 C   0  0  0  0  0  0  0  0  0  0  0  0
   53.5633  -36.2009   -8.0960 C   0  0  0  0  0  0  0  0  0  0  0  0
   53.7666  -35.4821   -9.2946 N   0  0  0  0  0  0  0  0  0  0  0  0
   54.1478  -36.1796  -10.4727 C   0  0  0  0  0  0  0  0  0  0  0  0
   55.4556  -36.6765  -10.7052 N   0  0  0  0  0  0  0  0  0  0  0  0
   53.2098  -36.3548  -11.3636 N   0  0  0  0  0  0  0  0  0  0  0  0
   49.2091  -36.1343  -11.1045 N   0  0  0  0  0  0  0  0  0  0  0  0
   48.1072  -35.7716  -10.2667 C   0  0  2  0  0  0  0  0  0  0  0  0
   48.4158  -34.5837   -9.3930 C   0  0  0  0  0  0  0  0  0  0  0  0
   49.3946  -33.8991   -9.8448 O   0  0  0  0  0  0  0  0  0  0  0  0
   47.3130  -36.7912   -9.6037 C   0  0  0  0  0  0  0  0  0  0  0  0
   46.0430  -37.3308  -10.1399 C   0  0  0  0  0  0  0  0  0  0  0  0
   46.0207  -38.5516  -10.9523 C   0  0  0  0  0  0  0  0  0  0  0  0
   47.3953  -38.7284  -11.4864 N   0  0  0  0  0  0  0  0  0  0  0  0
   47.9570  -39.9919  -11.7409 C   0  0  0  0  0  0  0  0  0  0  0  0
   49.3840  -40.0980  -11.8209 N   0  0  0  0  0  0  0  0  0  0  0  0
   47.2086  -41.0322  -11.8956 N   0  0  0  0  0  0  0  0  0  0  0  0
   47.8144  -34.1605   -8.2339 N   0  0  0  0  0  0  0  0  0  0  0  0
   47.4873  -34.8150   -6.9969 C   0  0  2  0  0  0  0  0  0  0  0  0
   46.0607  -34.6822   -6.7250 C   0  0  0  0  0  0  0  0  0  0  0  0
   45.6992  -34.0005   -5.7026 O   0  0  0  0  0  0  0  0  0  0  0  0
   48.3322  -34.2778   -5.8715 C   0  0  0  0  0  0  0  0  0  0  0  0
   48.0847  -32.8615   -5.4860 C   0  0  0  0  0  0  0  0  0  0  0  0
   47.9915  -32.8045   -3.9513 C   0  0  0  0  0  0  0  0  0  0  0  0
   49.3963  -32.9506   -3.3942 C   0  0  0  0  0  0  0  0  0  0  0  0
   49.5503  -34.1589   -2.6196 N   0  0  0  0  0  0  0  0  0  0  0  0
   44.9869  -35.2288   -7.4725 N   0  0  0  0  0  0  0  0  0  0  0  0
   45.1357  -36.3799   -8.3063 C   0  0  2  0  0  0  0  0  0  0  0  0
   45.2188  -35.9434   -9.7663 C   0  0  0  0  0  0  0  0  0  0  0  0
   45.0213  -34.7743  -10.1156 O   0  0  0  0  0  0  0  0  0  0  0  0
   43.9397  -37.2906   -8.1916 C   0  0  0  0  0  0  0  0  0  0  0  0
   43.5312  -37.4957   -6.7748 C   0  0  0  0  0  0  0  0  0  0  0  0
   43.7366  -38.8005   -6.1283 C   0  0  0  0  0  0  0  0  0  0  0  0
   43.7009  -38.9480   -4.7562 N   0  0  0  0  0  0  0  0  0  0  0  0
   42.7391  -39.4256   -3.8697 C   0  0  0  0  0  0  0  0  0  0  0  0
   41.7987  -40.4554   -4.2689 N   0  0  0  0  0  0  0  0  0  0  0  0
   42.5824  -38.9639   -2.6977 N   0  0  0  0  0  0  0  0  0  0  0  0
   45.5362  -36.9294  -10.7162 N   0  0  0  0  0  0  0  0  0  0  0  0
   46.5627  -37.9525  -10.5386 C   0  0  0  0  0  0  0  0  0  0  0  0
   47.8181  -37.6136  -11.2238 C   0  0  0  0  0  0  0  0  0  0  0  0
   48.0584  -38.0940  -12.4981 C   0  0  0  0  0  0  0  0  0  0  0  0
   49.2553  -37.7573  -13.1016 C   0  0  0  0  0  0  0  0  0  0  0  0
   50.2186  -36.9689  -12.4986 C   0  0  0  0  0  0  0  0  0  0  0  0
   51.4580  -36.6494  -13.1711 C   0  0  0  0  0  0  0  0  0  0  0  0
   51.4417  -35.6213  -14.1746 N   0  0  0  0  0  0  0  0  0  0  0  0
   52.5844  -37.1969  -12.9600 N   0  0  0  0  0  0  0  0  0  0  0  0
   49.9473  -36.5067  -11.2280 C   0  0  0  0  0  0  0  0  0  0  0  0
   48.7587  -36.8306  -10.6059 C   0  0  0  0  0  0  0  0  0  0  0  0
   53.5589  -36.2419   -5.6401 C   0  0  0  0  0  0  0  0  0  0  0  0
   52.2017  -36.5756   -5.2395 C   0  0  0  0  0  0  0  0  0  0  0  0
   51.4245  -35.5283   -4.5021 C   0  0  0  0  0  0  0  0  0  0  0  0
   51.7998  -35.3898   -3.0452 C   0  0  0  0  0  0  0  0  0  0  0  0
   50.7216  -34.8111   -2.2136 C   0  0  0  0  0  0  0  0  0  0  0  0
   54.4984  -36.5517   -4.8536 O   0  0  0  0  0  0  0  0  0  0  0  0
   50.9442  -34.9610   -0.9441 O   0  0  0  0  0  0  0  0  0  0  0  0
   59.1252  -34.5121   -7.4374 H   0  0  0  0  0  0  0  0  0  0  0  0
   52.3946  -36.9889  -11.2320 H   0  0  0  0  0  0  0  0  0  0  0  0
   47.6058  -41.8812  -12.3373 H   0  0  0  0  0  0  0  0  0  0  0  0
   43.3008  -38.8523   -1.9815 H   0  0  0  0  0  0  0  0  0  0  0  0
   53.3837  -37.0798  -13.5871 H   0  0  0  0  0  0  0  0  0  0  0  0
  1  2  1  0
  1 65  1  0
  2  3  1  0
  2  5  1  1
  3  4  2  0
  3 12  1  0
  5  6  1  0
  6  7  1  0
  7  8  1  0
  8  9  1  0
  9 10  2  0
  9 11  1  0
 12 13  1  0
 13 14  1  0
 13 16  1  1
 14 15  2  0
 14 23  1  0
 16 17  1  0
 17 18  1  0
 18 19  1  0
 19 20  1  0
 20 21  1  0
 20 22  2  0
 23 24  1  0
 24 25  1  0
 24 27  1  1
 25 26  2  0
 25 34  1  0
 27 28  1  0
 28 29  1  0
 29 30  1  0
 30 31  1  0
 31 32  1  0
 31 33  2  0
 34 35  1  0
 35 36  1  1
 35 38  1  0
 36 37  2  0
 36 43  1  0
 38 39  1  0
 39 40  1  0
 40 41  1  0
 41 42  1  0
 42 69  1  0
 43 44  1  0
 44 45  1  0
 44 47  1  6
 45 46  2  0
 45 54  1  0
 47 48  1  0
 48 49  1  0
 49 50  1  0
 50 51  1  0
 51 52  1  0
 51 53  2  0
 54 55  1  0
 55 56  1  0
 56 57  2  0
 56 64  1  0
 57 58  1  0
 58 59  2  0
 59 60  1  0
 59 63  1  0
 60 61  1  0
 60 62  2  0
 63 64  2  0
 65 66  1  0
 65 70  2  0
 66 67  1  0
 67 68  1  0
 68 69  1  0
 69 71  2  0
 10 72  1  0
 22 73  1  0
 33 74  1  0
 53 75  1  0
 62 76  1  0
M  END
$$$$
