
     RDKit          3D

 76 77  0  0  0  0  0  0  0  0999 V2000
   46.4247  -39.2897  -10.0369 N   0  0  0  0  0  0  0  0  0  0  0  0
   46.3077  -37.8642  -10.1522 C   0  0  2  0  0  0  0  0  0  0  0  0
   45.3126  -37.3815   -9.1203 C   0  0  0  0  0  0  0  0  0  0  0  0
   44.1133  -37.7545   -9.3906 O   0  0  0  0  0  0  0  0  0  0  0  0
   45.8946  -37.4662  -11.5177 C   0  0  0  0  0  0  0  0  0  0  0  0
   44.8058  -38.1536  -12.2087 C   0  0  0  0  0  0  0  0  0  0  0  0
   44.3550  -39.4980  -11.8409 C   0  0  0  0  0  0  0  0  0  0  0  0
   43.2658  -39.6201  -10.9145 N   0  0  0  0  0  0  0  0  0  0  0  0
   42.5435  -40.8198  -10.7101 C   0  0  0  0  0  0  0  0  0  0  0  0
   43.0381  -41.9255  -11.1285 N   0  0  0  0  0  0  0  0  0  0  0  0
   41.2653  -40.8235  -10.0452 N   0  0  0  0  0  0  0  0  0  0  0  0
   45.5318  -36.6313   -7.9890 N   0  0  0  0  0  0  0  0  0  0  0  0
   46.2964  -36.9332   -6.7657 C   0  0  2  0  0  0  0  0  0  0  0  0
   46.4328  -35.6395   -6.0379 C   0  0  0  0  0  0  0  0  0  0  0  0
   45.2770  -35.0686   -5.9082 O   0  0  0  0  0  0  0  0  0  0  0  0
   47.5699  -37.6150   -7.0289 C   0  0  0  0  0  0  0  0  0  0  0  0
   47.4237  -39.0524   -7.3853 C   0  0  0  0  0  0  0  0  0  0  0  0
   46.8302  -39.3600   -8.7289 C   0  0  0  0  0  0  0  0  0  0  0  0
   45.7607  -38.5653   -9.1972 N   0  0  0  0  0  0  0  0  0  0  0  0
   45.3505  -38.6731  -10.5536 C   0  0  0  0  0  0  0  0  0  0  0  0
   45.4556  -39.8645  -11.3157 N   0  0  0  0  0  0  0  0  0  0  0  0
   44.8502  -37.5924  -11.0884 N   0  0  0  0  0  0  0  0  0  0  0  0
   47.5169  -34.9647   -5.4958 N   0  0  0  0  0  0  0  0  0  0  0  0
   48.6769  -34.3371   -6.0510 C   0  0  2  0  0  0  0  0  0  0  0  0
   48.5452  -34.0926   -7.5318 C   0  0  0  0  0  0  0  0  0  0  0  0
   47.3259  -34.1007   -7.9113 O   0  0  0  0  0  0  0  0  0  0  0  0
   50.0091  -34.7502   -5.6454 C   0  0  0  0  0  0  0  0  0  0  0  0
   50.4413  -34.8855   -4.2361 C   0  0  0  0  0  0  0  0  0  0  0  0
   50.7578  -33.7064   -3.4234 C   0  0  0  0  0  0  0  0  0  0  0  0
   49.5575  -33.4316   -2.5929 N   0  0  0  0  0  0  0  0  0  0  0  0
   49.4038  -33.9308   -1.2876 C   0  0  0  0  0  0  0  0  0  0  0  0
   48.7094  -35.1721   -1.1116 N   0  0  0  0  0  0  0  0  0  0  0  0
   49.8782  -33.2908   -0.2718 N   0  0  0  0  0  0  0  0  0  0  0  0
   49.5135  -33.8729   -8.4796 N   0  0  0  0  0  0  0  0  0  0  0  0
   50.7182  -34.5697   -8.8385 C   0  0  2  0  0  0  0  0  0  0  0  0
   51.8592  -33.6648   -8.7602 C   0  0  0  0  0  0  0  0  0  0  0  0
   51.7292  -32.4826   -9.2360 O   0  0  0  0  0  0  0  0  0  0  0  0
   50.5837  -35.1971  -10.2012 C   0  0  0  0  0  0  0  0  0  0  0  0
   50.4808  -34.2543  -11.3485 C   0  0  0  0  0  0  0  0  0  0  0  0
   51.4375  -34.7492  -12.4471 C   0  0  0  0  0  0  0  0  0  0  0  0
   50.8087  -35.9689  -13.0969 C   0  0  0  0  0  0  0  0  0  0  0  0
   51.5920  -37.1624  -12.8833 N   0  0  0  0  0  0  0  0  0  0  0  0
   53.1361  -33.9346   -8.2062 N   0  0  0  0  0  0  0  0  0  0  0  0
   53.3268  -34.2422   -6.8236 C   0  0  2  0  0  0  0  0  0  0  0  0
   54.5694  -33.5211   -6.3086 C   0  0  0  0  0  0  0  0  0  0  0  0
   55.6468  -33.5535   -6.9134 O   0  0  0  0  0  0  0  0  0  0  0  0
   53.5656  -35.7174   -6.6243 C   0  0  0  0  0  0  0  0  0  0  0  0
   54.9500  -35.9977   -6.1542 C   0  0  0  0  0  0  0  0  0  0  0  0
   55.2147  -36.2148   -4.7240 C   0  0  0  0  0  0  0  0  0  0  0  0
   55.7262  -37.4061   -4.2498 N   0  0  0  0  0  0  0  0  0  0  0  0
   55.2158  -38.4068   -3.4270 C   0  0  0  0  0  0  0  0  0  0  0  0
   54.7402  -39.6606   -3.9801 N   0  0  0  0  0  0  0  0  0  0  0  0
   55.0789  -38.2736   -2.1721 N   0  0  0  0  0  0  0  0  0  0  0  0
   54.4459  -32.8039   -5.1063 N   0  0  0  0  0  0  0  0  0  0  0  0
   53.7350  -33.2825   -3.9241 C   0  0  0  0  0  0  0  0  0  0  0  0
   53.8753  -32.3732   -2.7778 C   0  0  0  0  0  0  0  0  0  0  0  0
   53.8611  -32.8800   -1.4912 C   0  0  0  0  0  0  0  0  0  0  0  0
   53.9879  -31.9881   -0.4430 C   0  0  0  0  0  0  0  0  0  0  0  0
   54.1275  -30.6230   -0.6154 C   0  0  0  0  0  0  0  0  0  0  0  0
   54.2514  -29.7308    0.5156 C   0  0  0  0  0  0  0  0  0  0  0  0
   53.1308  -28.8956    0.8488 N   0  0  0  0  0  0  0  0  0  0  0  0
   55.2723  -29.6080    1.2611 N   0  0  0  0  0  0  0  0  0  0  0  0
   54.1375  -30.1509   -1.9111 C   0  0  0  0  0  0  0  0  0  0  0  0
   54.0121  -31.0232   -2.9732 C   0  0  0  0  0  0  0  0  0  0  0  0
   47.6631  -39.9584  -10.3778 C   0  0  0  0  0  0  0  0  0  0  0  0
   48.9984  -39.4550  -10.0992 C   0  0  0  0  0  0  0  0  0  0  0  0
   49.6186  -38.5482  -11.1179 C   0  0  0  0  0  0  0  0  0  0  0  0
   50.1624  -39.2624  -12.3332 C   0  0  0  0  0  0  0  0  0  0  0  0
   51.2238  -38.5056  -13.0328 C   0  0  0  0  0  0  0  0  0  0  0  0
   47.5644  -41.0734  -10.9644 O   0  0  0  0  0  0  0  0  0  0  0  0
   51.8703  -39.2385  -13.8865 O   0  0  0  0  0  0  0  0  0  0  0  0
   43.1016  -42.7554  -10.4789 H   0  0  0  0  0  0  0  0  0  0  0  0
   43.8834  -37.2498  -10.9101 H   0  0  0  0  0  0  0  0  0  0  0  0
   49.9328  -33.7669    0.6469 H   0  0  0  0  0  0  0  0  0  0  0  0
   54.9330  -39.0175   -1.4889 H   0  0  0  0  0  0  0  0  0  0  0  0
   56.2261  -29.7568    0.9237 H   0  0  0  0  0  0  0  0  0  0  0  0
  1  2  1  0
  1 65  1  0
  2  3  1  0
  2  5  1  6
  3  4  2  0
  3 12  1  0
  5  6  1  0
  6  7  1  0
  7  8  1  0
  8  9  1  0
  9 10  2  0
  9 11  1  0
 12 13  1  0
 13 14  1  0
 13 16  1  6
 14 15  2  0
 14 23  1  0
 16 17  1  0
 17 18  1  0
 18 19  1  0
 19 20  1  0
 20 21  1  0
 20 22  2  0
 23 24  1  0
 24 25  1  0
 24 27  1  6
 25 26  2  0
 25 34  1  0
 27 28  1  0
 28 29  1  0
 29 30  1  0
 30 31  1  0
 31 32  1  0
 31 33  2  0
 34 35  1  0
 35 36  1  6
 35 38  1  0
 36 37  2  0
 36 43  1  0
 38 39  1  0
 39 40  1  0
 40 41  1  0
 41 42  1  0
 42 69  1  0
 43 44  1  0
 44 45  1  0
 44 47  1  6
 45 46  2  0
 45 54  1  0
 47 48  1  0
 48 49  1  0
 49 50  1  0
 50 51  1  0
 51 52  1  0
 51 53  2  0
 54 55  1  0
 55 56  1  0
 56 57  2  0
 56 64  1  0
 57 58  1  0
 58 59  2  0
 59 60  1  0
 59 63  1  0
 60 61  1  0
 60 62  2  0
 63 64  2  0
 65 66  1  0
 65 70  2  0
 66 67  1  0
 67 68  1  0
 68 69  1  0
 69 71  2  0
 10 72  1  0
 22 73  1  0
 33 74  1  0
 53 75  1  0
 62 76  1  0
M  END
$$$$
