
     RDKit          3D

 76 77  0  0  0  0  0  0  0  0999 V2000
   54.0270  -36.4303  -12.3530 N   0  0  0  0  0  0  0  0  0  0  0  0
   53.2844  -35.3724  -11.7299 C   0  0  2  0  0  0  0  0  0  0  0  0
   52.8513  -34.3970  -12.8020 C   0  0  0  0  0  0  0  0  0  0  0  0
   53.8434  -33.7489  -13.2982 O   0  0  0  0  0  0  0  0  0  0  0  0
   54.0859  -34.6943  -10.6851 C   0  0  0  0  0  0  0  0  0  0  0  0
   55.5283  -34.9050  -10.5831 C   0  0  0  0  0  0  0  0  0  0  0  0
   56.3591  -35.2821  -11.7292 C   0  0  0  0  0  0  0  0  0  0  0  0
   57.7181  -34.8225  -11.7643 N   0  0  0  0  0  0  0  0  0  0  0  0
   58.6593  -35.2373  -12.7364 C   0  0  0  0  0  0  0  0  0  0  0  0
   58.9959  -34.4231  -13.6671 N   0  0  0  0  0  0  0  0  0  0  0  0
   59.2436  -36.5539  -12.7030 N   0  0  0  0  0  0  0  0  0  0  0  0
   51.5882  -34.1388  -13.2801 N   0  0  0  0  0  0  0  0  0  0  0  0
   50.6401  -34.9985  -14.0110 C   0  0  2  0  0  0  0  0  0  0  0  0
   49.3338  -34.2809  -13.9869 C   0  0  0  0  0  0  0  0  0  0  0  0
   49.4811  -33.0580  -14.3886 O   0  0  0  0  0  0  0  0  0  0  0  0
   50.5839  -36.3723  -13.4957 C   0  0  0  0  0  0  0  0  0  0  0  0
   51.8865  -37.0902  -13.5449 C   0  0  0  0  0  0  0  0  0  0  0  0
   53.0971  -36.2736  -13.8911 C   0  0  0  0  0  0  0  0  0  0  0  0
   54.3008  -36.5135  -13.1924 N   0  0  0  0  0  0  0  0  0  0  0  0
   55.4990  -35.8843  -13.6261 C   0  0  0  0  0  0  0  0  0  0  0  0
   56.3300  -36.3971  -14.6545 N   0  0  0  0  0  0  0  0  0  0  0  0
   55.8134  -34.7714  -13.0202 N   0  0  0  0  0  0  0  0  0  0  0  0
   48.0476  -34.6619  -13.6332 N   0  0  0  0  0  0  0  0  0  0  0  0
   47.4266  -35.0449  -12.4022 C   0  0  2  0  0  0  0  0  0  0  0  0
   48.2524  -34.6679  -11.1998 C   0  0  0  0  0  0  0  0  0  0  0  0
   49.0984  -33.7501  -11.4694 O   0  0  0  0  0  0  0  0  0  0  0  0
   46.7659  -36.3322  -12.2743 C   0  0  0  0  0  0  0  0  0  0  0  0
   46.7200  -37.3501  -13.3481 C   0  0  0  0  0  0  0  0  0  0  0  0
   47.7036  -37.3498  -14.4359 C   0  0  0  0  0  0  0  0  0  0  0  0
   49.0359  -37.1851  -13.8003 N   0  0  0  0  0  0  0  0  0  0  0  0
   49.5253  -35.9398  -13.3689 C   0  0  0  0  0  0  0  0  0  0  0  0
   50.9377  -35.7054  -13.4316 N   0  0  0  0  0  0  0  0  0  0  0  0
   48.7243  -35.0275  -12.9300 N   0  0  0  0  0  0  0  0  0  0  0  0
   48.2177  -35.1555   -9.9172 N   0  0  0  0  0  0  0  0  0  0  0  0
   48.2637  -36.4815   -9.3647 C   0  0  2  0  0  0  0  0  0  0  0  0
   47.0934  -36.7125   -8.5258 C   0  0  0  0  0  0  0  0  0  0  0  0
   46.1950  -35.8009   -8.4740 O   0  0  0  0  0  0  0  0  0  0  0  0
   49.5517  -36.7009   -8.6152 C   0  0  0  0  0  0  0  0  0  0  0  0
   49.7312  -35.8991   -7.3739 C   0  0  0  0  0  0  0  0  0  0  0  0
   50.2319  -36.8494   -6.2723 C   0  0  0  0  0  0  0  0  0  0  0  0
   51.6905  -37.1619   -6.5551 C   0  0  0  0  0  0  0  0  0  0  0  0
   51.8988  -38.5593   -6.8516 N   0  0  0  0  0  0  0  0  0  0  0  0
   46.8130  -37.8549   -7.7342 N   0  0  0  0  0  0  0  0  0  0  0  0
   45.6876  -37.9268   -6.8563 C   0  0  2  0  0  0  0  0  0  0  0  0
   45.9738  -37.1169   -5.5948 C   0  0  0  0  0  0  0  0  0  0  0  0
   45.0749  -36.7551   -4.8274 O   0  0  0  0  0  0  0  0  0  0  0  0
   45.4343  -39.3459   -6.4145 C   0  0  0  0  0  0  0  0  0  0  0  0
   44.1347  -39.4823   -5.7015 C   0  0  0  0  0  0  0  0  0  0  0  0
   43.4575  -40.7864   -5.6433 C   0  0  0  0  0  0  0  0  0  0  0  0
   43.4015  -41.5277   -4.4801 N   0  0  0  0  0  0  0  0  0  0  0  0
   42.7533  -41.3480   -3.2608 C   0  0  0  0  0  0  0  0  0  0  0  0
   41.3921  -40.8500   -3.2029 N   0  0  0  0  0  0  0  0  0  0  0  0
   43.3134  -41.5458   -2.1391 N   0  0  0  0  0  0  0  0  0  0  0  0
   47.3151  -36.7940   -5.3273 N   0  0  0  0  0  0  0  0  0  0  0  0
   47.9143  -36.7750   -3.9959 C   0  0  0  0  0  0  0  0  0  0  0  0
   47.4368  -35.6488   -3.1809 C   0  0  0  0  0  0  0  0  0  0  0  0
   47.7717  -34.3539   -3.5323 C   0  0  0  0  0  0  0  0  0  0  0  0
   47.3079  -33.3261   -2.7331 C   0  0  0  0  0  0  0  0  0  0  0  0
   46.5305  -33.5266   -1.6068 C   0  0  0  0  0  0  0  0  0  0  0  0
   46.0744  -32.4166   -0.8003 C   0  0  0  0  0  0  0  0  0  0  0  0
   45.5513  -31.2587   -1.4710 N   0  0  0  0  0  0  0  0  0  0  0  0
   46.0892  -32.3600    0.4684 N   0  0  0  0  0  0  0  0  0  0  0  0
   46.2151  -34.8299   -1.2847 C   0  0  0  0  0  0  0  0  0  0  0  0
   46.6676  -35.8721   -2.0683 C   0  0  0  0  0  0  0  0  0  0  0  0
   54.0281  -37.7635  -11.7875 C   0  0  0  0  0  0  0  0  0  0  0  0
   52.8834  -38.4238  -11.1812 C   0  0  0  0  0  0  0  0  0  0  0  0
   52.6455  -38.1865   -9.7212 C   0  0  0  0  0  0  0  0  0  0  0  0
   53.5578  -38.9731   -8.8093 C   0  0  0  0  0  0  0  0  0  0  0  0
   52.9956  -39.1854   -7.4573 C   0  0  0  0  0  0  0  0  0  0  0  0
   55.1196  -38.3988  -11.8315 O   0  0  0  0  0  0  0  0  0  0  0  0
   53.6460  -40.0880   -6.7895 O   0  0  0  0  0  0  0  0  0  0  0  0
   59.3828  -33.4717  -13.4225 H   0  0  0  0  0  0  0  0  0  0  0  0
   56.6525  -34.6565  -12.4147 H   0  0  0  0  0  0  0  0  0  0  0  0
   48.7981  -34.0646  -13.3057 H   0  0  0  0  0  0  0  0  0  0  0  0
   44.3096  -41.6855   -1.9673 H   0  0  0  0  0  0  0  0  0  0  0  0
   46.8493  -31.9232    0.9948 H   0  0  0  0  0  0  0  0  0  0  0  0
  1  2  1  0
  1 65  1  0
  2  3  1  0
  2  5  1  1
  3  4  2  0
  3 12  1  0
  5  6  1  0
  6  7  1  0
  7  8  1  0
  8  9  1  0
  9 10  2  0
  9 11  1  0
 12 13  1  0
 13 14  1  0
 13 16  1  1
 14 15  2  0
 14 23  1  0
 16 17  1  0
 17 18  1  0
 18 19  1  0
 19 20  1  0
 20 21  1  0
 20 22  2  0
 23 24  1  0
 24 25  1  0
 24 27  1  6
 25 26  2  0
 25 34  1  0
 27 28  1  0
 28 29  1  0
 29 30  1  0
 30 31  1  0
 31 32  1  0
 31 33  2  0
 34 35  1  0
 35 36  1  1
 35 38  1  0
 36 37  2  0
 36 43  1  0
 38 39  1  0
 39 40  1  0
 40 41  1  0
 41 42  1  0
 42 69  1  0
 43 44  1  0
 44 45  1  0
 44 47  1  1
 45 46  2  0
 45 54  1  0
 47 48  1  0
 48 49  1  0
 49 50  1  0
 50 51  1  0
 51 52  1  0
 51 53  2  0
 54 55  1  0
 55 56  1  0
 56 57  2  0
 56 64  1  0
 57 58  1  0
 58 59  2  0
 59 60  1  0
 59 63  1  0
 60 61  1  0
 60 62  2  0
 63 64  2  0
 65 66  1  0
 65 70  2  0
 66 67  1  0
 67 68  1  0
 68 69  1  0
 69 71  2  0
 10 72  1  0
 22 73  1  0
 33 74  1  0
 53 75  1  0
 62 76  1  0
M  END
$$$$
