
     RDKit          3D

 76 77  0  0  0  0  0  0  0  0999 V2000
   50.8923  -35.3707   -4.7794 N   0  0  0  0  0  0  0  0  0  0  0  0
   50.5516  -36.7041   -5.1852 C   0  0  2  0  0  0  0  0  0  0  0  0
   49.8625  -37.3941   -4.0288 C   0  0  0  0  0  0  0  0  0  0  0  0
   50.6659  -37.6261   -3.0535 O   0  0  0  0  0  0  0  0  0  0  0  0
   51.7503  -37.4587   -5.6180 C   0  0  0  0  0  0  0  0  0  0  0  0
   53.0956  -37.0015   -5.2762 C   0  0  0  0  0  0  0  0  0  0  0  0
   53.4924  -36.6514   -3.9102 C   0  0  0  0  0  0  0  0  0  0  0  0
   53.2618  -35.3090   -3.4582 N   0  0  0  0  0  0  0  0  0  0  0  0
   53.6161  -34.8462   -2.1686 C   0  0  0  0  0  0  0  0  0  0  0  0
   53.7646  -33.5879   -1.9757 N   0  0  0  0  0  0  0  0  0  0  0  0
   53.8154  -35.7582   -1.0712 N   0  0  0  0  0  0  0  0  0  0  0  0
   48.5483  -37.7799   -3.9079 N   0  0  0  0  0  0  0  0  0  0  0  0
   47.3100  -36.9818   -3.8619 C   0  0  2  0  0  0  0  0  0  0  0  0
   46.1910  -37.9512   -4.0348 C   0  0  0  0  0  0  0  0  0  0  0  0
   46.3119  -38.9361   -3.2019 O   0  0  0  0  0  0  0  0  0  0  0  0
   47.2988  -35.8694   -4.8202 C   0  0  0  0  0  0  0  0  0  0  0  0
   47.5444  -34.5376   -4.2035 C   0  0  0  0  0  0  0  0  0  0  0  0
   48.9433  -34.2535   -3.7399 C   0  0  0  0  0  0  0  0  0  0  0  0
   49.2521  -32.9597   -3.2653 N   0  0  0  0  0  0  0  0  0  0  0  0
   50.3488  -32.7828   -2.3790 C   0  0  0  0  0  0  0  0  0  0  0  0
   51.3664  -33.7509   -2.1823 N   0  0  0  0  0  0  0  0  0  0  0  0
   50.3857  -31.6493   -1.7324 N   0  0  0  0  0  0  0  0  0  0  0  0
   45.0926  -37.9922   -4.8813 N   0  0  0  0  0  0  0  0  0  0  0  0
   44.9315  -38.1377   -6.2956 C   0  0  2  0  0  0  0  0  0  0  0  0
   46.1781  -38.6532   -6.9664 C   0  0  0  0  0  0  0  0  0  0  0  0
   46.9596  -39.2352   -6.1409 O   0  0  0  0  0  0  0  0  0  0  0  0
   44.2288  -37.1290   -7.0694 C   0  0  0  0  0  0  0  0  0  0  0  0
   43.2001  -36.2235   -6.5098 C   0  0  0  0  0  0  0  0  0  0  0  0
   43.3076  -35.7071   -5.1414 C   0  0  0  0  0  0  0  0  0  0  0  0
   42.4876  -36.6029   -4.2865 N   0  0  0  0  0  0  0  0  0  0  0  0
   42.3731  -36.4337   -2.8955 C   0  0  0  0  0  0  0  0  0  0  0  0
   43.0713  -37.3467   -2.0395 N   0  0  0  0  0  0  0  0  0  0  0  0
   41.6603  -35.4786   -2.3993 N   0  0  0  0  0  0  0  0  0  0  0  0
   46.5659  -38.5840   -8.2813 N   0  0  0  0  0  0  0  0  0  0  0  0
   46.6679  -37.5037   -9.2238 C   0  0  2  0  0  0  0  0  0  0  0  0
   45.8716  -37.7999  -10.4091 C   0  0  0  0  0  0  0  0  0  0  0  0
   44.8814  -38.6036  -10.2890 O   0  0  0  0  0  0  0  0  0  0  0  0
   48.1094  -37.2279   -9.5626 C   0  0  0  0  0  0  0  0  0  0  0  0
   48.8199  -38.2958  -10.3180 C   0  0  0  0  0  0  0  0  0  0  0  0
   49.5849  -37.6225  -11.4707 C   0  0  0  0  0  0  0  0  0  0  0  0
   50.7933  -36.9191  -10.8788 C   0  0  0  0  0  0  0  0  0  0  0  0
   50.7243  -35.4870  -11.0473 N   0  0  0  0  0  0  0  0  0  0  0  0
   46.0590  -37.2954  -11.7208 N   0  0  0  0  0  0  0  0  0  0  0  0
   47.3538  -37.0614  -12.2787 C   0  0  2  0  0  0  0  0  0  0  0  0
   47.2119  -36.2912  -13.5886 C   0  0  0  0  0  0  0  0  0  0  0  0
   46.8595  -36.8391  -14.6390 O   0  0  0  0  0  0  0  0  0  0  0  0
   48.0441  -38.3602  -12.6100 C   0  0  0  0  0  0  0  0  0  0  0  0
   49.5262  -38.2286  -12.5661 C   0  0  0  0  0  0  0  0  0  0  0  0
   50.3144  -38.3378  -13.8029 C   0  0  0  0  0  0  0  0  0  0  0  0
   51.6318  -37.9301  -13.8663 N   0  0  0  0  0  0  0  0  0  0  0  0
   52.6741  -38.1948  -14.7510 C   0  0  0  0  0  0  0  0  0  0  0  0
   54.0129  -37.6956  -14.5014 N   0  0  0  0  0  0  0  0  0  0  0  0
   52.5181  -38.8258  -15.8413 N   0  0  0  0  0  0  0  0  0  0  0  0
   47.4958  -34.9151  -13.5606 N   0  0  0  0  0  0  0  0  0  0  0  0
   48.5866  -34.2779  -14.2930 C   0  0  0  0  0  0  0  0  0  0  0  0
   49.1085  -35.1264  -15.3738 C   0  0  0  0  0  0  0  0  0  0  0  0
   48.3816  -36.2227  -15.8006 C   0  0  0  0  0  0  0  0  0  0  0  0
   48.9140  -36.9974  -16.8138 C   0  0  0  0  0  0  0  0  0  0  0  0
   50.1295  -36.7327  -17.4183 C   0  0  0  0  0  0  0  0  0  0  0  0
   50.6454  -37.5780  -18.4718 C   0  0  0  0  0  0  0  0  0  0  0  0
   49.8497  -38.6960  -18.8975 N   0  0  0  0  0  0  0  0  0  0  0  0
   51.7545  -37.4293  -19.0725 N   0  0  0  0  0  0  0  0  0  0  0  0
   50.8286  -35.6324  -16.9688 C   0  0  0  0  0  0  0  0  0  0  0  0
   50.3164  -34.8446  -15.9579 C   0  0  0  0  0  0  0  0  0  0  0  0
   50.9569  -34.2978   -5.7499 C   0  0  0  0  0  0  0  0  0  0  0  0
   50.0518  -34.1213   -6.8740 C   0  0  0  0  0  0  0  0  0  0  0  0
   50.3963  -34.8234   -8.1519 C   0  0  0  0  0  0  0  0  0  0  0  0
   51.4891  -34.1533   -8.9514 C   0  0  0  0  0  0  0  0  0  0  0  0
   51.4455  -34.4796  -10.3938 C   0  0  0  0  0  0  0  0  0  0  0  0
   51.8792  -33.4475   -5.5969 O   0  0  0  0  0  0  0  0  0  0  0  0
   52.1940  -33.6895  -11.1005 O   0  0  0  0  0  0  0  0  0  0  0  0
   54.4017  -33.2426   -1.2079 H   0  0  0  0  0  0  0  0  0  0  0  0
   50.4155  -30.7171   -2.1951 H   0  0  0  0  0  0  0  0  0  0  0  0
   41.7518  -34.5227   -2.7888 H   0  0  0  0  0  0  0  0  0  0  0  0
   52.1217  -39.7588  -15.9585 H   0  0  0  0  0  0  0  0  0  0  0  0
   52.4169  -36.6866  -18.8372 H   0  0  0  0  0  0  0  0  0  0  0  0
  1  2  1  0
  1 65  1  0
  2  3  1  0
  2  5  1  1
  3  4  2  0
  3 12  1  0
  5  6  1  0
  6  7  1  0
  7  8  1  0
  8  9  1  0
  9 10  2  0
  9 11  1  0
 12 13  1  0
 13 14  1  0
 13 16  1  6
 14 15  2  0
 14 23  1  0
 16 17  1  0
 17 18  1  0
 18 19  1  0
 19 20  1  0
 20 21  1  0
 20 22  2  0
 23 24  1  0
 24 25  1  0
 24 27  1  6
 25 26  2  0
 25 34  1  0
 27 28  1  0
 28 29  1  0
 29 30  1  0
 30 31  1  0
 31 32  1  0
 31 33  2  0
 34 35  1  0
 35 36  1  6
 35 38  1  0
 36 37  2  0
 36 43  1  0
 38 39  1  0
 39 40  1  0
 40 41  1  0
 41 42  1  0
 42 69  1  0
 43 44  1  0
 44 45  1  0
 44 47  1  6
 45 46  2  0
 45 54  1  0
 47 48  1  0
 48 49  1  0
 49 50  1  0
 50 51  1  0
 51 52  1  0
 51 53  2  0
 54 55  1  0
 55 56  1  0
 56 57  2  0
 56 64  1  0
 57 58  1  0
 58 59  2  0
 59 60  1  0
 59 63  1  0
 60 61  1  0
 60 62  2  0
 63 64  2  0
 65 66  1  0
 65 70  2  0
 66 67  1  0
 67 68  1  0
 68 69  1  0
 69 71  2  0
 10 72  1  0
 22 73  1  0
 33 74  1  0
 53 75  1  0
 62 76  1  0
M  END
$$$$
