
     RDKit          3D

 76 77  0  0  0  0  0  0  0  0999 V2000
   49.7652  -36.8082  -12.2821 N   0  0  0  0  0  0  0  0  0  0  0  0
   49.4793  -35.4864  -11.8024 C   0  0  2  0  0  0  0  0  0  0  0  0
   48.0952  -35.0966  -12.2722 C   0  0  0  0  0  0  0  0  0  0  0  0
   48.0463  -34.9184  -13.5436 O   0  0  0  0  0  0  0  0  0  0  0  0
   50.4938  -34.5129  -12.2682 C   0  0  0  0  0  0  0  0  0  0  0  0
   50.7335  -34.2942  -13.6931 C   0  0  0  0  0  0  0  0  0  0  0  0
   49.8834  -34.8682  -14.7389 C   0  0  0  0  0  0  0  0  0  0  0  0
   50.3212  -34.7683  -16.1019 N   0  0  0  0  0  0  0  0  0  0  0  0
   49.5913  -34.0955  -17.1106 C   0  0  0  0  0  0  0  0  0  0  0  0
   49.0754  -34.7751  -18.0668 N   0  0  0  0  0  0  0  0  0  0  0  0
   49.4189  -32.6653  -17.0864 N   0  0  0  0  0  0  0  0  0  0  0  0
   46.9472  -34.9212  -11.5361 N   0  0  0  0  0  0  0  0  0  0  0  0
   46.1525  -35.8795  -10.7471 C   0  0  2  0  0  0  0  0  0  0  0  0
   45.2114  -35.0589   -9.9329 C   0  0  0  0  0  0  0  0  0  0  0  0
   44.5773  -34.2163  -10.6856 O   0  0  0  0  0  0  0  0  0  0  0  0
   46.9741  -36.8110   -9.9640 C   0  0  0  0  0  0  0  0  0  0  0  0
   47.8249  -37.7089  -10.7911 C   0  0  0  0  0  0  0  0  0  0  0  0
   49.0128  -37.0858  -11.4642 C   0  0  0  0  0  0  0  0  0  0  0  0
   50.1676  -36.8210  -10.6955 N   0  0  0  0  0  0  0  0  0  0  0  0
   51.4317  -36.7336  -11.3391 C   0  0  0  0  0  0  0  0  0  0  0  0
   51.7795  -37.4771  -12.4956 N   0  0  0  0  0  0  0  0  0  0  0  0
   52.2902  -35.9074  -10.8055 N   0  0  0  0  0  0  0  0  0  0  0  0
   44.9000  -35.0323   -8.5813 N   0  0  0  0  0  0  0  0  0  0  0  0
   45.6268  -34.6812   -7.3997 C   0  0  2  0  0  0  0  0  0  0  0  0
   46.8757  -33.8957   -7.7049 C   0  0  0  0  0  0  0  0  0  0  0  0
   46.8296  -33.3541   -8.8605 O   0  0  0  0  0  0  0  0  0  0  0  0
   45.7901  -35.6372   -6.3183 C   0  0  0  0  0  0  0  0  0  0  0  0
   45.0008  -36.8827   -6.1874 C   0  0  0  0  0  0  0  0  0  0  0  0
   44.1142  -37.3354   -7.2644 C   0  0  0  0  0  0  0  0  0  0  0  0
   44.9919  -37.8635   -8.3398 N   0  0  0  0  0  0  0  0  0  0  0  0
   46.0864  -37.1446   -8.8516 C   0  0  0  0  0  0  0  0  0  0  0  0
   46.0158  -36.6679  -10.2012 N   0  0  0  0  0  0  0  0  0  0  0  0
   47.1286  -36.9156   -8.1250 N   0  0  0  0  0  0  0  0  0  0  0  0
   48.0002  -33.6948   -6.9437 N   0  0  0  0  0  0  0  0  0  0  0  0
   48.8905  -34.5820   -6.2466 C   0  0  2  0  0  0  0  0  0  0  0  0
   48.9640  -34.2089   -4.8386 C   0  0  0  0  0  0  0  0  0  0  0  0
   48.4480  -33.0928   -4.4794 O   0  0  0  0  0  0  0  0  0  0  0  0
   50.2468  -34.5968   -6.9015 C   0  0  0  0  0  0  0  0  0  0  0  0
   51.0274  -33.3320   -6.8185 C   0  0  0  0  0  0  0  0  0  0  0  0
   52.4629  -33.6955   -6.4010 C   0  0  0  0  0  0  0  0  0  0  0  0
   53.1550  -34.3124   -7.6033 C   0  0  0  0  0  0  0  0  0  0  0  0
   53.5095  -35.6933   -7.3764 N   0  0  0  0  0  0  0  0  0  0  0  0
   49.5525  -34.9479   -3.7814 N   0  0  0  0  0  0  0  0  0  0  0  0
   49.8491  -36.3419   -3.8875 C   0  0  2  0  0  0  0  0  0  0  0  0
   48.6418  -37.1554   -3.4294 C   0  0  0  0  0  0  0  0  0  0  0  0
   47.9007  -36.7753   -2.5161 O   0  0  0  0  0  0  0  0  0  0  0  0
   50.9971  -36.7220   -2.9871 C   0  0  0  0  0  0  0  0  0  0  0  0
   52.1499  -35.7916   -3.1338 C   0  0  0  0  0  0  0  0  0  0  0  0
   52.3455  -34.6998   -2.1681 C   0  0  0  0  0  0  0  0  0  0  0  0
   53.4699  -34.6242   -1.3709 N   0  0  0  0  0  0  0  0  0  0  0  0
   54.8051  -34.9689   -1.5642 C   0  0  0  0  0  0  0  0  0  0  0  0
   55.2509  -36.3426   -1.4283 N   0  0  0  0  0  0  0  0  0  0  0  0
   55.7151  -34.1184   -1.8088 N   0  0  0  0  0  0  0  0  0  0  0  0
   48.3935  -38.3690   -4.0932 N   0  0  0  0  0  0  0  0  0  0  0  0
   49.4296  -39.2642   -4.6004 C   0  0  0  0  0  0  0  0  0  0  0  0
   49.2357  -39.6020   -6.0177 C   0  0  0  0  0  0  0  0  0  0  0  0
   49.8802  -38.8664   -6.9953 C   0  0  0  0  0  0  0  0  0  0  0  0
   49.6628  -39.2137   -8.3153 C   0  0  0  0  0  0  0  0  0  0  0  0
   48.8381  -40.2535   -8.7048 C   0  0  0  0  0  0  0  0  0  0  0  0
   48.6395  -40.5736  -10.1007 C   0  0  0  0  0  0  0  0  0  0  0  0
   49.4606  -39.9085  -11.0742 N   0  0  0  0  0  0  0  0  0  0  0  0
   47.7949  -41.4013  -10.5640 N   0  0  0  0  0  0  0  0  0  0  0  0
   48.2106  -40.9664   -7.7049 C   0  0  0  0  0  0  0  0  0  0  0  0
   48.4129  -40.6371   -6.3800 C   0  0  0  0  0  0  0  0  0  0  0  0
   50.6432  -37.6887  -11.5398 C   0  0  0  0  0  0  0  0  0  0  0  0
   50.6961  -37.8024  -10.0913 C   0  0  0  0  0  0  0  0  0  0  0  0
   51.6023  -36.8601   -9.3595 C   0  0  0  0  0  0  0  0  0  0  0  0
   53.0650  -37.2330   -9.4229 C   0  0  0  0  0  0  0  0  0  0  0  0
   53.8598  -36.6845   -8.3020 C   0  0  0  0  0  0  0  0  0  0  0  0
   51.4232  -38.4168  -12.2169 O   0  0  0  0  0  0  0  0  0  0  0  0
   55.0303  -37.2373   -8.2113 O   0  0  0  0  0  0  0  0  0  0  0  0
   48.4689  -35.6124  -17.8526 H   0  0  0  0  0  0  0  0  0  0  0  0
   53.2403  -36.1850  -10.4828 H   0  0  0  0  0  0  0  0  0  0  0  0
   47.9825  -36.5327   -8.5698 H   0  0  0  0  0  0  0  0  0  0  0  0
   55.5864  -33.1357   -2.0521 H   0  0  0  0  0  0  0  0  0  0  0  0
   46.7854  -41.2426  -10.5262 H   0  0  0  0  0  0  0  0  0  0  0  0
  1  2  1  0
  1 65  1  0
  2  3  1  0
  2  5  1  6
  3  4  2  0
  3 12  1  0
  5  6  1  0
  6  7  1  0
  7  8  1  0
  8  9  1  0
  9 10  2  0
  9 11  1  0
 12 13  1  0
 13 14  1  0
 13 16  1  1
 14 15  2  0
 14 23  1  0
 16 17  1  0
 17 18  1  0
 18 19  1  0
 19 20  1  0
 20 21  1  0
 20 22  2  0
 23 24  1  0
 24 25  1  0
 24 27  1  6
 25 26  2  0
 25 34  1  0
 27 28  1  0
 28 29  1  0
 29 30  1  0
 30 31  1  0
 31 32  1  0
 31 33  2  0
 34 35  1  0
 35 36  1  1
 35 38  1  0
 36 37  2  0
 36 43  1  0
 38 39  1  0
 39 40  1  0
 40 41  1  0
 41 42  1  0
 42 69  1  0
 43 44  1  0
 44 45  1  0
 44 47  1  1
 45 46  2  0
 45 54  1  0
 47 48  1  0
 48 49  1  0
 49 50  1  0
 50 51  1  0
 51 52  1  0
 51 53  2  0
 54 55  1  0
 55 56  1  0
 56 57  2  0
 56 64  1  0
 57 58  1  0
 58 59  2  0
 59 60  1  0
 59 63  1  0
 60 61  1  0
 60 62  2  0
 63 64  2  0
 65 66  1  0
 65 70  2  0
 66 67  1  0
 67 68  1  0
 68 69  1  0
 69 71  2  0
 10 72  1  0
 22 73  1  0
 33 74  1  0
 53 75  1  0
 62 76  1  0
M  END
$$$$
