
     RDKit          3D

 76 77  0  0  0  0  0  0  0  0999 V2000
   52.7856  -33.3796   -2.9478 N   0  0  0  0  0  0  0  0  0  0  0  0
   52.3540  -34.7452   -3.0360 C   0  0  2  0  0  0  0  0  0  0  0  0
   51.3994  -35.0192   -1.8950 C   0  0  0  0  0  0  0  0  0  0  0  0
   51.9918  -35.0163   -0.7550 O   0  0  0  0  0  0  0  0  0  0  0  0
   53.5046  -35.6773   -3.0035 C   0  0  0  0  0  0  0  0  0  0  0  0
   54.7178  -35.3548   -2.2554 C   0  0  0  0  0  0  0  0  0  0  0  0
   55.3107  -34.0153   -2.2426 C   0  0  0  0  0  0  0  0  0  0  0  0
   55.0295  -33.1580   -1.1265 N   0  0  0  0  0  0  0  0  0  0  0  0
   55.6468  -31.8995   -0.9319 C   0  0  0  0  0  0  0  0  0  0  0  0
   55.3059  -31.1860    0.0767 N   0  0  0  0  0  0  0  0  0  0  0  0
   56.6463  -31.4036   -1.8434 N   0  0  0  0  0  0  0  0  0  0  0  0
   50.0458  -35.2575   -1.9352 N   0  0  0  0  0  0  0  0  0  0  0  0
   48.9271  -34.3930   -2.3518 C   0  0  2  0  0  0  0  0  0  0  0  0
   47.7408  -35.2874   -2.4723 C   0  0  0  0  0  0  0  0  0  0  0  0
   47.5957  -35.9951   -1.3968 O   0  0  0  0  0  0  0  0  0  0  0  0
   49.2164  -33.6079   -3.5584 C   0  0  0  0  0  0  0  0  0  0  0  0
   50.1202  -32.4493   -3.3235 C   0  0  0  0  0  0  0  0  0  0  0  0
   51.2506  -32.6569   -2.3584 C   0  0  0  0  0  0  0  0  0  0  0  0
   51.5670  -33.9731   -1.9557 N   0  0  0  0  0  0  0  0  0  0  0  0
   51.9776  -34.2156   -0.6170 C   0  0  0  0  0  0  0  0  0  0  0  0
   52.6091  -35.4121   -0.1915 N   0  0  0  0  0  0  0  0  0  0  0  0
   51.7456  -33.2552    0.2364 N   0  0  0  0  0  0  0  0  0  0  0  0
   46.8041  -35.4923   -3.4750 N   0  0  0  0  0  0  0  0  0  0  0  0
   46.8663  -36.0291   -4.7999 C   0  0  2  0  0  0  0  0  0  0  0  0
   48.1337  -36.8053   -5.0470 C   0  0  0  0  0  0  0  0  0  0  0  0
   48.6861  -37.1783   -3.9577 O   0  0  0  0  0  0  0  0  0  0  0  0
   46.4356  -35.2396   -5.9406 C   0  0  0  0  0  0  0  0  0  0  0  0
   45.1354  -34.5360   -6.0175 C   0  0  0  0  0  0  0  0  0  0  0  0
   43.9533  -35.0481   -5.3165 C   0  0  0  0  0  0  0  0  0  0  0  0
   44.3357  -36.3679   -4.7528 N   0  0  0  0  0  0  0  0  0  0  0  0
   43.8356  -37.5833   -5.2522 C   0  0  0  0  0  0  0  0  0  0  0  0
   43.9081  -38.7440   -4.4147 N   0  0  0  0  0  0  0  0  0  0  0  0
   43.3205  -37.6539   -6.4338 N   0  0  0  0  0  0  0  0  0  0  0  0
   48.7428  -37.1479   -6.2284 N   0  0  0  0  0  0  0  0  0  0  0  0
   49.1361  -36.3971   -7.3891 C   0  0  2  0  0  0  0  0  0  0  0  0
   48.5200  -36.9655   -8.5824 C   0  0  0  0  0  0  0  0  0  0  0  0
   48.2449  -38.2165   -8.5855 O   0  0  0  0  0  0  0  0  0  0  0  0
   50.6371  -36.3360   -7.4993 C   0  0  0  0  0  0  0  0  0  0  0  0
   51.3255  -37.6253   -7.7820 C   0  0  0  0  0  0  0  0  0  0  0  0
   52.3516  -37.3716   -8.9000 C   0  0  0  0  0  0  0  0  0  0  0  0
   53.5214  -36.6161   -8.2951 C   0  0  0  0  0  0  0  0  0  0  0  0
   53.6614  -35.2931   -8.8554 N   0  0  0  0  0  0  0  0  0  0  0  0
   48.1745  -36.2882   -9.7792 N   0  0  0  0  0  0  0  0  0  0  0  0
   47.1904  -36.7845  -10.6889 C   0  0  2  0  0  0  0  0  0  0  0  0
   47.5944  -38.1768  -11.1659 C   0  0  0  0  0  0  0  0  0  0  0  0
   48.0741  -38.3743  -12.2878 O   0  0  0  0  0  0  0  0  0  0  0  0
   47.0983  -35.9136  -11.9162 C   0  0  0  0  0  0  0  0  0  0  0  0
   45.9755  -36.3219  -12.8042 C   0  0  0  0  0  0  0  0  0  0  0  0
   45.6384  -35.5156  -13.9870 C   0  0  0  0  0  0  0  0  0  0  0  0
   46.2775  -35.6943  -15.1976 N   0  0  0  0  0  0  0  0  0  0  0  0
   46.5701  -34.8433  -16.2602 C   0  0  0  0  0  0  0  0  0  0  0  0
   47.6002  -33.8286  -16.1449 N   0  0  0  0  0  0  0  0  0  0  0  0
   45.9320  -34.8553  -17.3574 N   0  0  0  0  0  0  0  0  0  0  0  0
   47.4039  -39.2443  -10.2719 N   0  0  0  0  0  0  0  0  0  0  0  0
   46.4892  -40.3603  -10.4952 C   0  0  0  0  0  0  0  0  0  0  0  0
   45.8511  -40.3076  -11.8182 C   0  0  0  0  0  0  0  0  0  0  0  0
   44.9519  -41.2907  -12.1887 C   0  0  0  0  0  0  0  0  0  0  0  0
   44.3819  -41.2062  -13.4449 C   0  0  0  0  0  0  0  0  0  0  0  0
   44.6640  -40.1940  -14.3443 C   0  0  0  0  0  0  0  0  0  0  0  0
   44.0443  -40.1537  -15.6500 C   0  0  0  0  0  0  0  0  0  0  0  0
   43.0153  -41.1123  -15.9441 N   0  0  0  0  0  0  0  0  0  0  0  0
   44.3228  -39.3390  -16.5836 N   0  0  0  0  0  0  0  0  0  0  0  0
   45.5650  -39.2301  -13.9433 C   0  0  0  0  0  0  0  0  0  0  0  0
   46.1467  -39.2945  -12.6934 C   0  0  0  0  0  0  0  0  0  0  0  0
   53.1461  -32.6412   -4.1402 C   0  0  0  0  0  0  0  0  0  0  0  0
   52.4724  -32.7328   -5.4254 C   0  0  0  0  0  0  0  0  0  0  0  0
   52.9364  -33.7978   -6.3715 C   0  0  0  0  0  0  0  0  0  0  0  0
   54.2233  -33.4686   -7.0914 C   0  0  0  0  0  0  0  0  0  0  0  0
   54.3825  -34.1944   -8.3707 C   0  0  0  0  0  0  0  0  0  0  0  0
   54.1285  -31.8520   -4.0450 O   0  0  0  0  0  0  0  0  0  0  0  0
   55.3321  -33.6990   -9.1033 O   0  0  0  0  0  0  0  0  0  0  0  0
   55.9380  -31.1274    0.9203 H   0  0  0  0  0  0  0  0  0  0  0  0
   51.5260  -32.2751   -0.0376 H   0  0  0  0  0  0  0  0  0  0  0  0
   43.2700  -38.5724   -6.9108 H   0  0  0  0  0  0  0  0  0  0  0  0
   45.7878  -34.0688  -17.9915 H   0  0  0  0  0  0  0  0  0  0  0  0
   45.1500  -38.7379  -16.5662 H   0  0  0  0  0  0  0  0  0  0  0  0
  1  2  1  0
  1 65  1  0
  2  3  1  0
  2  5  1  1
  3  4  2  0
  3 12  1  0
  5  6  1  0
  6  7  1  0
  7  8  1  0
  8  9  1  0
  9 10  2  0
  9 11  1  0
 12 13  1  0
 13 14  1  0
 13 16  1  6
 14 15  2  0
 14 23  1  0
 16 17  1  0
 17 18  1  0
 18 19  1  0
 19 20  1  0
 20 21  1  0
 20 22  2  0
 23 24  1  0
 24 25  1  0
 24 27  1  6
 25 26  2  0
 25 34  1  0
 27 28  1  0
 28 29  1  0
 29 30  1  0
 30 31  1  0
 31 32  1  0
 31 33  2  0
 34 35  1  0
 35 36  1  6
 35 38  1  0
 36 37  2  0
 36 43  1  0
 38 39  1  0
 39 40  1  0
 40 41  1  0
 41 42  1  0
 42 69  1  0
 43 44  1  0
 44 45  1  0
 44 47  1  6
 45 46  2  0
 45 54  1  0
 47 48  1  0
 48 49  1  0
 49 50  1  0
 50 51  1  0
 51 52  1  0
 51 53  2  0
 54 55  1  0
 55 56  1  0
 56 57  2  0
 56 64  1  0
 57 58  1  0
 58 59  2  0
 59 60  1  0
 59 63  1  0
 60 61  1  0
 60 62  2  0
 63 64  2  0
 65 66  1  0
 65 70  2  0
 66 67  1  0
 67 68  1  0
 68 69  1  0
 69 71  2  0
 10 72  1  0
 22 73  1  0
 33 74  1  0
 53 75  1  0
 62 76  1  0
M  END
$$$$
