
     RDKit          3D

 20 22  0  0  0  0  0  0  0  0999 V2000
  -11.8047   94.1493  -57.9819 C   0  0  0  0  0  0  0  0  0  0  0  0
  -10.4505   95.2972  -59.4068 C   0  0  0  0  0  0  0  0  0  0  0  0
  -10.8449   96.1802  -58.3056 C   0  0  0  0  0  0  0  0  0  0  0  0
  -11.6671   95.4881  -57.4381 C   0  0  0  0  0  0  0  0  0  0  0  0
  -12.1831   96.1199  -56.2912 C   0  0  0  0  0  0  0  0  0  0  0  0
  -13.2159   95.5259  -54.0303 C   0  0  0  0  0  0  0  0  0  0  0  0
  -12.8039   94.3754  -53.2222 C   0  0  0  0  0  0  0  0  0  0  0  0
  -11.5348   93.9480  -53.0156 C   0  0  0  0  0  0  0  0  0  0  0  0
  -11.2520   92.8102  -52.2345 C   0  0  0  0  0  0  0  0  0  0  0  0
  -12.2851   92.1043  -51.6588 C   0  0  0  0  0  0  0  0  0  0  0  0
  -13.5826   92.5245  -51.8574 C   0  0  0  0  0  0  0  0  0  0  0  0
  -13.8348   93.6399  -52.6255 C   0  0  0  0  0  0  0  0  0  0  0  0
  -11.8527   97.4352  -56.0555 C   0  0  0  0  0  0  0  0  0  0  0  0
  -11.0270   98.0990  -56.9436 C   0  0  0  0  0  0  0  0  0  0  0  0
  -10.5167   97.4964  -58.0646 C   0  0  0  0  0  0  0  0  0  0  0  0
  -11.0475   94.0338  -59.2055 N   0  0  0  0  0  0  0  0  0  0  0  0
  -13.0358   95.4173  -55.4372 N   0  0  0  0  0  0  0  0  0  0  0  0
  -12.4880   93.2326  -57.4529 O   0  0  0  0  0  0  0  0  0  0  0  0
   -9.9382   92.4141  -52.0541 O   0  0  0  0  0  0  0  0  0  0  0  0
   -9.7101   95.5796  -60.3802 O   0  0  0  0  0  0  0  0  0  0  0  0
  4  1  1  0
  1 16  1  0
  1 18  2  0
  3  2  1  0
  2 16  1  0
  2 20  2  0
  4  3  2  0
  3 15  1  0
  5  4  1  0
  5 13  2  0
 17  5  1  0
  6  7  1  0
  6 17  1  0
  7  8  2  0
  7 12  1  0
  8  9  1  0
  9 10  2  0
  9 19  1  0
 10 11  1  0
 11 12  2  0
 13 14  1  0
 14 15  2  0
M  END
$$$$
