
     RDKit          3D

 20 22  0  0  0  0  0  0  0  0999 V2000
   -1.5218   91.4462  -49.9389 C   0  0  0  0  0  0  0  0  0  0  0  0
   -2.8218   91.5618  -48.0739 C   0  0  0  0  0  0  0  0  0  0  0  0
   -2.2424   92.8822  -48.3361 C   0  0  0  0  0  0  0  0  0  0  0  0
   -1.4524   92.8172  -49.4672 C   0  0  0  0  0  0  0  0  0  0  0  0
   -0.7806   93.9632  -49.9320 C   0  0  0  0  0  0  0  0  0  0  0  0
    1.0867   94.7321  -51.4984 C   0  0  0  0  0  0  0  0  0  0  0  0
    0.7487   96.1444  -51.6927 C   0  0  0  0  0  0  0  0  0  0  0  0
    1.4596   97.2114  -51.2546 C   0  0  0  0  0  0  0  0  0  0  0  0
    1.0289   98.5338  -51.4789 C   0  0  0  0  0  0  0  0  0  0  0  0
   -0.1453   98.7620  -52.1619 C   0  0  0  0  0  0  0  0  0  0  0  0
   -0.8815   97.6889  -52.6158 C   0  0  0  0  0  0  0  0  0  0  0  0
   -0.4404   96.4045  -52.3841 C   0  0  0  0  0  0  0  0  0  0  0  0
   -0.9271   95.1429  -49.2380 C   0  0  0  0  0  0  0  0  0  0  0  0
   -1.7256   95.1738  -48.1099 C   0  0  0  0  0  0  0  0  0  0  0  0
   -2.3862   94.0657  -47.6455 C   0  0  0  0  0  0  0  0  0  0  0  0
   -2.3736   90.6684  -49.0709 N   0  0  0  0  0  0  0  0  0  0  0  0
    0.0373   93.8772  -51.0606 N   0  0  0  0  0  0  0  0  0  0  0  0
   -0.9215   91.0126  -50.9581 O   0  0  0  0  0  0  0  0  0  0  0  0
    1.7909   99.5899  -51.0103 O   0  0  0  0  0  0  0  0  0  0  0  0
   -3.5894   91.2413  -47.1340 O   0  0  0  0  0  0  0  0  0  0  0  0
  4  1  1  0
  1 16  1  0
  1 18  2  0
  3  2  1  0
  2 16  1  0
  2 20  2  0
  4  3  2  0
  3 15  1  0
  5  4  1  0
  5 13  2  0
 17  5  1  0
  6  7  1  0
  6 17  1  0
  7  8  2  0
  7 12  1  0
  8  9  1  0
  9 10  2  0
  9 19  1  0
 10 11  1  0
 11 12  2  0
 13 14  1  0
 14 15  2  0
M  END
$$$$
