
     RDKit          3D

 20 22  0  0  0  0  0  0  0  0999 V2000
   -0.2498   91.7840  -48.1877 C   0  0  0  0  0  0  0  0  0  0  0  0
   -1.5502   91.8885  -46.3223 C   0  0  0  0  0  0  0  0  0  0  0  0
   -1.9525   92.9525  -47.2464 C   0  0  0  0  0  0  0  0  0  0  0  0
   -1.1660   92.8933  -48.3803 C   0  0  0  0  0  0  0  0  0  0  0  0
   -1.3568   93.8148  -49.4267 C   0  0  0  0  0  0  0  0  0  0  0  0
   -0.4054   94.6768  -51.6365 C   0  0  0  0  0  0  0  0  0  0  0  0
    0.2942   95.9330  -51.3558 C   0  0  0  0  0  0  0  0  0  0  0  0
   -0.1044   96.9040  -50.4990 C   0  0  0  0  0  0  0  0  0  0  0  0
    0.6375   98.0884  -50.3212 C   0  0  0  0  0  0  0  0  0  0  0  0
    1.8024   98.2764  -51.0317 C   0  0  0  0  0  0  0  0  0  0  0  0
    2.2240   97.2992  -51.9074 C   0  0  0  0  0  0  0  0  0  0  0  0
    1.4817   96.1495  -52.0648 C   0  0  0  0  0  0  0  0  0  0  0  0
   -2.3382   94.7709  -49.2953 C   0  0  0  0  0  0  0  0  0  0  0  0
   -3.1082   94.8023  -48.1476 C   0  0  0  0  0  0  0  0  0  0  0  0
   -2.9339   93.9110  -47.1203 C   0  0  0  0  0  0  0  0  0  0  0  0
   -0.4910   91.1615  -46.9077 N   0  0  0  0  0  0  0  0  0  0  0  0
   -0.5362   93.7615  -50.5554 N   0  0  0  0  0  0  0  0  0  0  0  0
    0.6228   91.4278  -49.0237 O   0  0  0  0  0  0  0  0  0  0  0  0
    0.1873   99.0506  -49.4342 O   0  0  0  0  0  0  0  0  0  0  0  0
   -2.0397   91.6354  -45.1946 O   0  0  0  0  0  0  0  0  0  0  0  0
  4  1  1  0
  1 16  1  0
  1 18  2  0
  3  2  1  0
  2 16  1  0
  2 20  2  0
  4  3  2  0
  3 15  1  0
  5  4  1  0
  5 13  2  0
 17  5  1  0
  6  7  1  0
  6 17  1  0
  7  8  2  0
  7 12  1  0
  8  9  1  0
  9 10  2  0
  9 19  1  0
 10 11  1  0
 11 12  2  0
 13 14  1  0
 14 15  2  0
M  END
$$$$
