
     RDKit          3D

 20 22  0  0  0  0  0  0  0  0999 V2000
    3.6339   93.2505  -50.7779 C   0  0  0  0  0  0  0  0  0  0  0  0
    3.3379   91.0051  -51.0068 C   0  0  0  0  0  0  0  0  0  0  0  0
    2.2337   91.7037  -51.6707 C   0  0  0  0  0  0  0  0  0  0  0  0
    2.4088   93.0669  -51.5345 C   0  0  0  0  0  0  0  0  0  0  0  0
    1.4759   93.9625  -52.0898 C   0  0  0  0  0  0  0  0  0  0  0  0
    0.7961   96.4191  -52.2746 C   0  0  0  0  0  0  0  0  0  0  0  0
   -0.2303   96.7952  -51.2992 C   0  0  0  0  0  0  0  0  0  0  0  0
   -1.5622   96.5683  -51.4019 C   0  0  0  0  0  0  0  0  0  0  0  0
   -2.4671   96.9947  -50.4099 C   0  0  0  0  0  0  0  0  0  0  0  0
   -1.9976   97.6612  -49.2997 C   0  0  0  0  0  0  0  0  0  0  0  0
   -0.6458   97.9004  -49.1776 C   0  0  0  0  0  0  0  0  0  0  0  0
    0.2200   97.4742  -50.1608 C   0  0  0  0  0  0  0  0  0  0  0  0
    0.3915   93.4525  -52.7669 C   0  0  0  0  0  0  0  0  0  0  0  0
    0.2461   92.0828  -52.8854 C   0  0  0  0  0  0  0  0  0  0  0  0
    1.1468   91.1984  -52.3501 C   0  0  0  0  0  0  0  0  0  0  0  0
    4.2090   91.9673  -50.4513 N   0  0  0  0  0  0  0  0  0  0  0  0
    1.6499   95.3377  -51.9207 N   0  0  0  0  0  0  0  0  0  0  0  0
    4.1133   94.3714  -50.4600 O   0  0  0  0  0  0  0  0  0  0  0  0
   -3.8188   96.7391  -50.5620 O   0  0  0  0  0  0  0  0  0  0  0  0
    3.5134   89.7650  -50.9249 O   0  0  0  0  0  0  0  0  0  0  0  0
  4  1  1  0
  1 16  1  0
  1 18  2  0
  3  2  1  0
  2 16  1  0
  2 20  2  0
  4  3  2  0
  3 15  1  0
  5  4  1  0
  5 13  2  0
 17  5  1  0
  6  7  1  0
  6 17  1  0
  7  8  2  0
  7 12  1  0
  8  9  1  0
  9 10  2  0
  9 19  1  0
 10 11  1  0
 11 12  2  0
 13 14  1  0
 14 15  2  0
M  END
$$$$
