
     RDKit          3D

 20 22  0  0  0  0  0  0  0  0999 V2000
   -0.7993   96.5126  -52.1229 C   0  0  0  0  0  0  0  0  0  0  0  0
   -2.4254   96.9345  -50.5868 C   0  0  0  0  0  0  0  0  0  0  0  0
   -1.8580   95.6076  -50.3311 C   0  0  0  0  0  0  0  0  0  0  0  0
   -0.8706   95.3469  -51.2610 C   0  0  0  0  0  0  0  0  0  0  0  0
   -0.1675   94.1281  -51.2287 C   0  0  0  0  0  0  0  0  0  0  0  0
    1.6576   92.7349  -52.3509 C   0  0  0  0  0  0  0  0  0  0  0  0
    2.8819   92.7111  -51.5466 C   0  0  0  0  0  0  0  0  0  0  0  0
    3.3469   93.7085  -50.7561 C   0  0  0  0  0  0  0  0  0  0  0  0
    4.5540   93.5872  -50.0399 C   0  0  0  0  0  0  0  0  0  0  0  0
    5.2909   92.4276  -50.1368 C   0  0  0  0  0  0  0  0  0  0  0  0
    4.8332   91.4019  -50.9356 C   0  0  0  0  0  0  0  0  0  0  0  0
    3.6501   91.5436  -51.6269 C   0  0  0  0  0  0  0  0  0  0  0  0
   -0.4846   93.2072  -50.2560 C   0  0  0  0  0  0  0  0  0  0  0  0
   -1.4779   93.4997  -49.3401 C   0  0  0  0  0  0  0  0  0  0  0  0
   -2.1709   94.6827  -49.3591 C   0  0  0  0  0  0  0  0  0  0  0  0
   -1.7668   97.4976  -51.7014 N   0  0  0  0  0  0  0  0  0  0  0  0
    0.8090   93.8655  -52.1917 N   0  0  0  0  0  0  0  0  0  0  0  0
   -0.0046   96.6335  -53.0930 O   0  0  0  0  0  0  0  0  0  0  0  0
    4.9864   94.6354  -49.2462 O   0  0  0  0  0  0  0  0  0  0  0  0
   -3.3408   97.5064  -49.9463 O   0  0  0  0  0  0  0  0  0  0  0  0
  4  1  1  0
  1 16  1  0
  1 18  2  0
  3  2  1  0
  2 16  1  0
  2 20  2  0
  4  3  2  0
  3 15  1  0
  5  4  1  0
  5 13  2  0
 17  5  1  0
  6  7  1  0
  6 17  1  0
  7  8  2  0
  7 12  1  0
  8  9  1  0
  9 10  2  0
  9 19  1  0
 10 11  1  0
 11 12  2  0
 13 14  1  0
 14 15  2  0
M  END
$$$$
