
     RDKit          3D

 20 22  0  0  0  0  0  0  0  0999 V2000
   -0.3123   92.6339  -46.7344 C   0  0  0  0  0  0  0  0  0  0  0  0
   -1.8201   90.9436  -46.5084 C   0  0  0  0  0  0  0  0  0  0  0  0
   -2.2871   91.8659  -47.5472 C   0  0  0  0  0  0  0  0  0  0  0  0
   -1.3753   92.8937  -47.6881 C   0  0  0  0  0  0  0  0  0  0  0  0
   -1.5962   93.9160  -48.6299 C   0  0  0  0  0  0  0  0  0  0  0  0
   -0.5860   95.9968  -49.7166 C   0  0  0  0  0  0  0  0  0  0  0  0
    0.1675   95.6873  -50.9343 C   0  0  0  0  0  0  0  0  0  0  0  0
    1.4830   95.3716  -51.0104 C   0  0  0  0  0  0  0  0  0  0  0  0
    2.1147   95.1126  -52.2427 C   0  0  0  0  0  0  0  0  0  0  0  0
    1.3860   95.1782  -53.4097 C   0  0  0  0  0  0  0  0  0  0  0  0
    0.0464   95.4971  -53.3518 C   0  0  0  0  0  0  0  0  0  0  0  0
   -0.5496   95.7467  -52.1352 C   0  0  0  0  0  0  0  0  0  0  0  0
   -2.7347   93.8691  -49.4021 C   0  0  0  0  0  0  0  0  0  0  0  0
   -3.6269   92.8261  -49.2362 C   0  0  0  0  0  0  0  0  0  0  0  0
   -3.4247   91.8233  -48.3232 C   0  0  0  0  0  0  0  0  0  0  0  0
   -0.5915   91.4213  -46.0027 N   0  0  0  0  0  0  0  0  0  0  0  0
   -0.6806   94.9642  -48.7427 N   0  0  0  0  0  0  0  0  0  0  0  0
    0.6999   93.3678  -46.5789 O   0  0  0  0  0  0  0  0  0  0  0  0
    3.4616   94.7950  -52.2671 O   0  0  0  0  0  0  0  0  0  0  0  0
   -2.3875   89.8977  -46.1090 O   0  0  0  0  0  0  0  0  0  0  0  0
  4  1  1  0
  1 16  1  0
  1 18  2  0
  3  2  1  0
  2 16  1  0
  2 20  2  0
  4  3  2  0
  3 15  1  0
  5  4  1  0
  5 13  2  0
 17  5  1  0
  6  7  1  0
  6 17  1  0
  7  8  2  0
  7 12  1  0
  8  9  1  0
  9 10  2  0
  9 19  1  0
 10 11  1  0
 11 12  2  0
 13 14  1  0
 14 15  2  0
M  END
$$$$
