
     RDKit          3D

 20 22  0  0  0  0  0  0  0  0999 V2000
   11.3318   93.1632  -46.5023 C   0  0  0  0  0  0  0  0  0  0  0  0
   10.5365   93.4287  -48.6187 C   0  0  0  0  0  0  0  0  0  0  0  0
   11.5717   94.4351  -48.3666 C   0  0  0  0  0  0  0  0  0  0  0  0
   12.0576   94.2781  -47.0832 C   0  0  0  0  0  0  0  0  0  0  0  0
   13.0676   95.1287  -46.5964 C   0  0  0  0  0  0  0  0  0  0  0  0
   13.0849   95.5882  -44.0824 C   0  0  0  0  0  0  0  0  0  0  0  0
   12.0760   96.6426  -44.2116 C   0  0  0  0  0  0  0  0  0  0  0  0
   12.3021   97.9410  -44.5260 C   0  0  0  0  0  0  0  0  0  0  0  0
   11.2549   98.8803  -44.6018 C   0  0  0  0  0  0  0  0  0  0  0  0
    9.9607   98.4803  -44.3523 C   0  0  0  0  0  0  0  0  0  0  0  0
    9.7113   97.1633  -44.0316 C   0  0  0  0  0  0  0  0  0  0  0  0
   10.7516   96.2629  -43.9631 C   0  0  0  0  0  0  0  0  0  0  0  0
   13.5568   96.1150  -47.4226 C   0  0  0  0  0  0  0  0  0  0  0  0
   13.0490   96.2448  -48.7018 C   0  0  0  0  0  0  0  0  0  0  0  0
   12.0655   95.4234  -49.1897 C   0  0  0  0  0  0  0  0  0  0  0  0
   10.3872   92.6375  -47.4590 N   0  0  0  0  0  0  0  0  0  0  0  0
   13.5301   94.9772  -45.2875 N   0  0  0  0  0  0  0  0  0  0  0  0
   11.5105   92.7288  -45.3334 O   0  0  0  0  0  0  0  0  0  0  0  0
   11.5383  100.1955  -44.9263 O   0  0  0  0  0  0  0  0  0  0  0  0
    9.8740   93.2667  -49.6723 O   0  0  0  0  0  0  0  0  0  0  0  0
  4  1  1  0
  1 16  1  0
  1 18  2  0
  3  2  1  0
  2 16  1  0
  2 20  2  0
  4  3  2  0
  3 15  1  0
  5  4  1  0
  5 13  2  0
 17  5  1  0
  6  7  1  0
  6 17  1  0
  7  8  2  0
  7 12  1  0
  8  9  1  0
  9 10  2  0
  9 19  1  0
 10 11  1  0
 11 12  2  0
 13 14  1  0
 14 15  2  0
M  END
$$$$
