
     RDKit          3D

 20 22  0  0  0  0  0  0  0  0999 V2000
   -1.9661   93.0767  -48.9930 C   0  0  0  0  0  0  0  0  0  0  0  0
   -3.1021   91.6855  -50.3916 C   0  0  0  0  0  0  0  0  0  0  0  0
   -2.0645   92.3869  -51.1529 C   0  0  0  0  0  0  0  0  0  0  0  0
   -1.3722   93.2326  -50.3084 C   0  0  0  0  0  0  0  0  0  0  0  0
   -0.3175   94.0230  -50.8018 C   0  0  0  0  0  0  0  0  0  0  0  0
    1.1069   96.0674  -50.2333 C   0  0  0  0  0  0  0  0  0  0  0  0
    0.3562   97.3208  -50.3421 C   0  0  0  0  0  0  0  0  0  0  0  0
   -0.8648   97.5780  -49.8138 C   0  0  0  0  0  0  0  0  0  0  0  0
   -1.5085   98.8173  -49.9995 C   0  0  0  0  0  0  0  0  0  0  0  0
   -0.8899   99.8034  -50.7357 C   0  0  0  0  0  0  0  0  0  0  0  0
    0.3527   99.5602  -51.2802 C   0  0  0  0  0  0  0  0  0  0  0  0
    0.9624   98.3403  -51.0855 C   0  0  0  0  0  0  0  0  0  0  0  0
    0.0063   93.9353  -52.1367 C   0  0  0  0  0  0  0  0  0  0  0  0
   -0.7064   93.0785  -52.9548 C   0  0  0  0  0  0  0  0  0  0  0  0
   -1.7359   92.3023  -52.4881 C   0  0  0  0  0  0  0  0  0  0  0  0
   -3.0409   92.1146  -49.0480 N   0  0  0  0  0  0  0  0  0  0  0  0
    0.3558   94.8945  -49.9433 N   0  0  0  0  0  0  0  0  0  0  0  0
   -1.5886   93.6966  -47.9633 O   0  0  0  0  0  0  0  0  0  0  0  0
   -2.7561   99.0303  -49.4397 O   0  0  0  0  0  0  0  0  0  0  0  0
   -3.9233   90.8410  -50.8249 O   0  0  0  0  0  0  0  0  0  0  0  0
  4  1  1  0
  1 16  1  0
  1 18  2  0
  3  2  1  0
  2 16  1  0
  2 20  2  0
  4  3  2  0
  3 15  1  0
  5  4  1  0
  5 13  2  0
 17  5  1  0
  6  7  1  0
  6 17  1  0
  7  8  2  0
  7 12  1  0
  8  9  1  0
  9 10  2  0
  9 19  1  0
 10 11  1  0
 11 12  2  0
 13 14  1  0
 14 15  2  0
M  END
$$$$
