
     RDKit          3D

 20 22  0  0  0  0  0  0  0  0999 V2000
   12.1894   92.1103  -46.1213 C   0  0  0  0  0  0  0  0  0  0  0  0
   11.6279   91.5675  -48.2596 C   0  0  0  0  0  0  0  0  0  0  0  0
   11.4465   93.0092  -48.0683 C   0  0  0  0  0  0  0  0  0  0  0  0
   11.7860   93.3436  -46.7719 C   0  0  0  0  0  0  0  0  0  0  0  0
   11.6977   94.6788  -46.3358 C   0  0  0  0  0  0  0  0  0  0  0  0
   11.3556   95.8598  -44.0954 C   0  0  0  0  0  0  0  0  0  0  0  0
   11.4429   97.2982  -44.3595 C   0  0  0  0  0  0  0  0  0  0  0  0
   12.4474   97.9404  -45.0033 C   0  0  0  0  0  0  0  0  0  0  0  0
   12.4406   99.3376  -45.1837 C   0  0  0  0  0  0  0  0  0  0  0  0
   11.3892  100.0828  -44.6976 C   0  0  0  0  0  0  0  0  0  0  0  0
   10.3580   99.4468  -44.0406 C   0  0  0  0  0  0  0  0  0  0  0  0
   10.3867   98.0794  -43.8759 C   0  0  0  0  0  0  0  0  0  0  0  0
   11.2674   95.6378  -47.2245 C   0  0  0  0  0  0  0  0  0  0  0  0
   10.9358   95.2695  -48.5151 C   0  0  0  0  0  0  0  0  0  0  0  0
   11.0172   93.9731  -48.9541 C   0  0  0  0  0  0  0  0  0  0  0  0
   12.0901   91.0082  -47.0484 N   0  0  0  0  0  0  0  0  0  0  0  0
   12.0171   94.9989  -45.0146 N   0  0  0  0  0  0  0  0  0  0  0  0
   12.5685   92.0285  -44.9227 O   0  0  0  0  0  0  0  0  0  0  0  0
   13.4912   99.9464  -45.8479 O   0  0  0  0  0  0  0  0  0  0  0  0
   11.4187   90.9069  -49.3061 O   0  0  0  0  0  0  0  0  0  0  0  0
  4  1  1  0
  1 16  1  0
  1 18  2  0
  3  2  1  0
  2 16  1  0
  2 20  2  0
  4  3  2  0
  3 15  1  0
  5  4  1  0
  5 13  2  0
 17  5  1  0
  6  7  1  0
  6 17  1  0
  7  8  2  0
  7 12  1  0
  8  9  1  0
  9 10  2  0
  9 19  1  0
 10 11  1  0
 11 12  2  0
 13 14  1  0
 14 15  2  0
M  END
$$$$
