
     RDKit          3D

 20 22  0  0  0  0  0  0  0  0999 V2000
   -0.4784   92.7996  -52.9021 C   0  0  0  0  0  0  0  0  0  0  0  0
    1.3979   93.3035  -54.0884 C   0  0  0  0  0  0  0  0  0  0  0  0
    1.2180   94.3016  -53.0303 C   0  0  0  0  0  0  0  0  0  0  0  0
    0.0804   94.0001  -52.3075 C   0  0  0  0  0  0  0  0  0  0  0  0
   -0.3128   94.8136  -51.2285 C   0  0  0  0  0  0  0  0  0  0  0  0
   -2.0702   95.1691  -49.4074 C   0  0  0  0  0  0  0  0  0  0  0  0
   -1.6602   94.7065  -48.0792 C   0  0  0  0  0  0  0  0  0  0  0  0
   -1.0065   95.4310  -47.1391 C   0  0  0  0  0  0  0  0  0  0  0  0
   -0.6389   94.8771  -45.8970 C   0  0  0  0  0  0  0  0  0  0  0  0
   -0.9473   93.5641  -45.6179 C   0  0  0  0  0  0  0  0  0  0  0  0
   -1.6126   92.8117  -46.5617 C   0  0  0  0  0  0  0  0  0  0  0  0
   -1.9615   93.3750  -47.7695 C   0  0  0  0  0  0  0  0  0  0  0  0
    0.4568   95.9101  -50.9121 C   0  0  0  0  0  0  0  0  0  0  0  0
    1.5898   96.1834  -51.6556 C   0  0  0  0  0  0  0  0  0  0  0  0
    1.9852   95.3998  -52.7090 C   0  0  0  0  0  0  0  0  0  0  0  0
    0.3426   92.3690  -54.0087 N   0  0  0  0  0  0  0  0  0  0  0  0
   -1.4804   94.5136  -50.5237 N   0  0  0  0  0  0  0  0  0  0  0  0
   -1.5269   92.2278  -52.5008 O   0  0  0  0  0  0  0  0  0  0  0  0
    0.0285   95.6590  -44.9704 O   0  0  0  0  0  0  0  0  0  0  0  0
    2.3198   93.2545  -54.9388 O   0  0  0  0  0  0  0  0  0  0  0  0
  4  1  1  0
  1 16  1  0
  1 18  2  0
  3  2  1  0
  2 16  1  0
  2 20  2  0
  4  3  2  0
  3 15  1  0
  5  4  1  0
  5 13  2  0
 17  5  1  0
  6  7  1  0
  6 17  1  0
  7  8  2  0
  7 12  1  0
  8  9  1  0
  9 10  2  0
  9 19  1  0
 10 11  1  0
 11 12  2  0
 13 14  1  0
 14 15  2  0
M  END
$$$$
