
     RDKit          3D

 20 22  0  0  0  0  0  0  0  0999 V2000
   -8.2583   83.1893  -17.2885 C   0  0  0  0  0  0  0  0  0  0  0  0
   -7.5722   81.0843  -16.7592 C   0  0  0  0  0  0  0  0  0  0  0  0
   -8.6852   81.0004  -17.7091 C   0  0  0  0  0  0  0  0  0  0  0  0
   -9.1052   82.2756  -18.0334 C   0  0  0  0  0  0  0  0  0  0  0  0
  -10.1689   82.4660  -18.9350 C   0  0  0  0  0  0  0  0  0  0  0  0
  -11.6118   84.2033  -20.1312 C   0  0  0  0  0  0  0  0  0  0  0  0
  -11.2924   84.1505  -21.5600 C   0  0  0  0  0  0  0  0  0  0  0  0
  -10.1615   84.6063  -22.1509 C   0  0  0  0  0  0  0  0  0  0  0  0
   -9.9664   84.5247  -23.5438 C   0  0  0  0  0  0  0  0  0  0  0  0
  -10.9443   83.9677  -24.3379 C   0  0  0  0  0  0  0  0  0  0  0  0
  -12.1012   83.4980  -23.7544 C   0  0  0  0  0  0  0  0  0  0  0  0
  -12.2697   83.5889  -22.3901 C   0  0  0  0  0  0  0  0  0  0  0  0
  -10.7779   81.3596  -19.4825 C   0  0  0  0  0  0  0  0  0  0  0  0
  -10.3328   80.0972  -19.1371 C   0  0  0  0  0  0  0  0  0  0  0  0
   -9.2977   79.8964  -18.2605 C   0  0  0  0  0  0  0  0  0  0  0  0
   -7.3066   82.4460  -16.4975 N   0  0  0  0  0  0  0  0  0  0  0  0
  -10.6021   83.7597  -19.2327 N   0  0  0  0  0  0  0  0  0  0  0  0
   -8.3514   84.4448  -17.3351 O   0  0  0  0  0  0  0  0  0  0  0  0
   -8.7934   85.0055  -24.0992 O   0  0  0  0  0  0  0  0  0  0  0  0
   -6.9383   80.1311  -16.2444 O   0  0  0  0  0  0  0  0  0  0  0  0
  4  1  1  0
  1 16  1  0
  1 18  2  0
  3  2  1  0
  2 16  1  0
  2 20  2  0
  4  3  2  0
  3 15  1  0
  5  4  1  0
  5 13  2  0
 17  5  1  0
  6  7  1  0
  6 17  1  0
  7  8  2  0
  7 12  1  0
  8  9  1  0
  9 10  2  0
  9 19  1  0
 10 11  1  0
 11 12  2  0
 13 14  1  0
 14 15  2  0
M  END
$$$$
