
     RDKit          3D

 20 22  0  0  0  0  0  0  0  0999 V2000
  -11.4136   93.2074  -55.5780 C   0  0  0  0  0  0  0  0  0  0  0  0
  -11.6298   92.8595  -53.3388 C   0  0  0  0  0  0  0  0  0  0  0  0
  -12.0473   94.2288  -53.6530 C   0  0  0  0  0  0  0  0  0  0  0  0
  -11.9178   94.4448  -55.0111 C   0  0  0  0  0  0  0  0  0  0  0  0
  -12.2582   95.6916  -55.5683 C   0  0  0  0  0  0  0  0  0  0  0  0
  -12.1202   97.1164  -57.6854 C   0  0  0  0  0  0  0  0  0  0  0  0
  -11.4058   97.1163  -58.9644 C   0  0  0  0  0  0  0  0  0  0  0  0
  -10.0628   97.0706  -59.1380 C   0  0  0  0  0  0  0  0  0  0  0  0
   -9.4779   97.0981  -60.4193 C   0  0  0  0  0  0  0  0  0  0  0  0
  -10.2826   97.1727  -61.5347 C   0  0  0  0  0  0  0  0  0  0  0  0
  -11.6511   97.2193  -61.3778 C   0  0  0  0  0  0  0  0  0  0  0  0
  -12.2001   97.1914  -60.1146 C   0  0  0  0  0  0  0  0  0  0  0  0
  -12.7195   96.6849  -54.7345 C   0  0  0  0  0  0  0  0  0  0  0  0
  -12.8377   96.4357  -53.3798 C   0  0  0  0  0  0  0  0  0  0  0  0
  -12.5103   95.2262  -52.8230 C   0  0  0  0  0  0  0  0  0  0  0  0
  -11.2355   92.2240  -54.5363 N   0  0  0  0  0  0  0  0  0  0  0  0
  -12.0960   95.9059  -56.9386 N   0  0  0  0  0  0  0  0  0  0  0  0
  -11.1714   93.0314  -56.8018 O   0  0  0  0  0  0  0  0  0  0  0  0
   -8.1003   97.0499  -60.5434 O   0  0  0  0  0  0  0  0  0  0  0  0
  -11.6119   92.3100  -52.2105 O   0  0  0  0  0  0  0  0  0  0  0  0
  4  1  1  0
  1 16  1  0
  1 18  2  0
  3  2  1  0
  2 16  1  0
  2 20  2  0
  4  3  2  0
  3 15  1  0
  5  4  1  0
  5 13  2  0
 17  5  1  0
  6  7  1  0
  6 17  1  0
  7  8  2  0
  7 12  1  0
  8  9  1  0
  9 10  2  0
  9 19  1  0
 10 11  1  0
 11 12  2  0
 13 14  1  0
 14 15  2  0
M  END
$$$$
