
     RDKit          3D

 20 22  0  0  0  0  0  0  0  0999 V2000
   11.9875   92.8988  -46.2609 C   0  0  0  0  0  0  0  0  0  0  0  0
   12.6698   92.7981  -48.4303 C   0  0  0  0  0  0  0  0  0  0  0  0
   12.5177   94.2028  -48.0411 C   0  0  0  0  0  0  0  0  0  0  0  0
   12.1037   94.2692  -46.7251 C   0  0  0  0  0  0  0  0  0  0  0  0
   11.8851   95.5164  -46.1106 C   0  0  0  0  0  0  0  0  0  0  0  0
   10.5123   96.4521  -44.1687 C   0  0  0  0  0  0  0  0  0  0  0  0
   11.0175   97.7709  -43.7790 C   0  0  0  0  0  0  0  0  0  0  0  0
   12.1891   98.3319  -44.1645 C   0  0  0  0  0  0  0  0  0  0  0  0
   12.5890   99.6038  -43.7095 C   0  0  0  0  0  0  0  0  0  0  0  0
   11.7751  100.3073  -42.8493 C   0  0  0  0  0  0  0  0  0  0  0  0
   10.5791   99.7529  -42.4469 C   0  0  0  0  0  0  0  0  0  0  0  0
   10.2094   98.5074  -42.9048 C   0  0  0  0  0  0  0  0  0  0  0  0
   12.0912   96.6613  -46.8463 C   0  0  0  0  0  0  0  0  0  0  0  0
   12.5061   96.5598  -48.1611 C   0  0  0  0  0  0  0  0  0  0  0  0
   12.7233   95.3520  -48.7727 C   0  0  0  0  0  0  0  0  0  0  0  0
   12.3400   91.9868  -47.3230 N   0  0  0  0  0  0  0  0  0  0  0  0
   11.4396   95.5689  -44.7882 N   0  0  0  0  0  0  0  0  0  0  0  0
   11.6304   92.5684  -45.0988 O   0  0  0  0  0  0  0  0  0  0  0  0
   13.7960  100.1329  -44.1322 O   0  0  0  0  0  0  0  0  0  0  0  0
   13.0296   92.3532  -49.5475 O   0  0  0  0  0  0  0  0  0  0  0  0
  4  1  1  0
  1 16  1  0
  1 18  2  0
  3  2  1  0
  2 16  1  0
  2 20  2  0
  4  3  2  0
  3 15  1  0
  5  4  1  0
  5 13  2  0
 17  5  1  0
  6  7  1  0
  6 17  1  0
  7  8  2  0
  7 12  1  0
  8  9  1  0
  9 10  2  0
  9 19  1  0
 10 11  1  0
 11 12  2  0
 13 14  1  0
 14 15  2  0
M  END
$$$$
