
     RDKit          3D

 20 22  0  0  0  0  0  0  0  0999 V2000
    1.5282   95.0268  -48.1948 C   0  0  0  0  0  0  0  0  0  0  0  0
    2.6813   95.6518  -50.0553 C   0  0  0  0  0  0  0  0  0  0  0  0
    1.2495   95.6224  -50.3669 C   0  0  0  0  0  0  0  0  0  0  0  0
    0.5453   95.2435  -49.2407 C   0  0  0  0  0  0  0  0  0  0  0  0
   -0.8577   95.1399  -49.2809 C   0  0  0  0  0  0  0  0  0  0  0  0
   -2.8812   94.2304  -48.0122 C   0  0  0  0  0  0  0  0  0  0  0  0
   -3.0229   92.7999  -47.7296 C   0  0  0  0  0  0  0  0  0  0  0  0
   -3.8475   91.9307  -48.3624 C   0  0  0  0  0  0  0  0  0  0  0  0
   -3.9208   90.5732  -47.9929 C   0  0  0  0  0  0  0  0  0  0  0  0
   -3.1372   90.1038  -46.9620 C   0  0  0  0  0  0  0  0  0  0  0  0
   -2.2918   90.9732  -46.3070 C   0  0  0  0  0  0  0  0  0  0  0  0
   -2.2375   92.2966  -46.6858 C   0  0  0  0  0  0  0  0  0  0  0  0
   -1.5082   95.4222  -50.4606 C   0  0  0  0  0  0  0  0  0  0  0  0
   -0.7735   95.7991  -51.5694 C   0  0  0  0  0  0  0  0  0  0  0  0
    0.5934   95.9046  -51.5450 C   0  0  0  0  0  0  0  0  0  0  0  0
    2.8548   95.2813  -48.7041 N   0  0  0  0  0  0  0  0  0  0  0  0
   -1.5552   94.7286  -48.1432 N   0  0  0  0  0  0  0  0  0  0  0  0
    1.2500   94.6692  -47.0192 O   0  0  0  0  0  0  0  0  0  0  0  0
   -4.7799   89.7255  -48.6704 O   0  0  0  0  0  0  0  0  0  0  0  0
    3.6222   95.9503  -50.8305 O   0  0  0  0  0  0  0  0  0  0  0  0
  4  1  1  0
  1 16  1  0
  1 18  2  0
  3  2  1  0
  2 16  1  0
  2 20  2  0
  4  3  2  0
  3 15  1  0
  5  4  1  0
  5 13  2  0
 17  5  1  0
  6  7  1  0
  6 17  1  0
  7  8  2  0
  7 12  1  0
  8  9  1  0
  9 10  2  0
  9 19  1  0
 10 11  1  0
 11 12  2  0
 13 14  1  0
 14 15  2  0
M  END
$$$$
