
     RDKit          3D

 20 22  0  0  0  0  0  0  0  0999 V2000
  -10.1630   80.8373  -17.4080 C   0  0  0  0  0  0  0  0  0  0  0  0
   -9.9898   79.8676  -19.4602 C   0  0  0  0  0  0  0  0  0  0  0  0
   -9.2675   81.1429  -19.4709 C   0  0  0  0  0  0  0  0  0  0  0  0
   -9.3698   81.7354  -18.2274 C   0  0  0  0  0  0  0  0  0  0  0  0
   -8.7563   82.9774  -17.9791 C   0  0  0  0  0  0  0  0  0  0  0  0
   -8.4190   84.8366  -16.2584 C   0  0  0  0  0  0  0  0  0  0  0  0
   -7.0447   84.8783  -15.7523 C   0  0  0  0  0  0  0  0  0  0  0  0
   -5.9205   84.5767  -16.4458 C   0  0  0  0  0  0  0  0  0  0  0  0
   -4.6443   84.6292  -15.8513 C   0  0  0  0  0  0  0  0  0  0  0  0
   -4.5225   84.9965  -14.5294 C   0  0  0  0  0  0  0  0  0  0  0  0
   -5.6550   85.3076  -13.8082 C   0  0  0  0  0  0  0  0  0  0  0  0
   -6.8924   85.2488  -14.4110 C   0  0  0  0  0  0  0  0  0  0  0  0
   -8.0570   83.5849  -18.9972 C   0  0  0  0  0  0  0  0  0  0  0  0
   -7.9736   82.9647  -20.2299 C   0  0  0  0  0  0  0  0  0  0  0  0
   -8.5657   81.7549  -20.4862 C   0  0  0  0  0  0  0  0  0  0  0  0
  -10.5469   79.6775  -18.1770 N   0  0  0  0  0  0  0  0  0  0  0  0
   -8.8910   83.5788  -16.7260 N   0  0  0  0  0  0  0  0  0  0  0  0
  -10.4645   81.0515  -16.2037 O   0  0  0  0  0  0  0  0  0  0  0  0
   -3.5264   84.3108  -16.6025 O   0  0  0  0  0  0  0  0  0  0  0  0
  -10.1141   79.0561  -20.4097 O   0  0  0  0  0  0  0  0  0  0  0  0
  4  1  1  0
  1 16  1  0
  1 18  2  0
  3  2  1  0
  2 16  1  0
  2 20  2  0
  4  3  2  0
  3 15  1  0
  5  4  1  0
  5 13  2  0
 17  5  1  0
  6  7  1  0
  6 17  1  0
  7  8  2  0
  7 12  1  0
  8  9  1  0
  9 10  2  0
  9 19  1  0
 10 11  1  0
 11 12  2  0
 13 14  1  0
 14 15  2  0
M  END
$$$$
