
     RDKit          3D

 20 22  0  0  0  0  0  0  0  0999 V2000
  -13.4255   94.8573  -53.6664 C   0  0  0  0  0  0  0  0  0  0  0  0
  -13.2610   92.7973  -52.7120 C   0  0  0  0  0  0  0  0  0  0  0  0
  -11.9986   93.1151  -53.3854 C   0  0  0  0  0  0  0  0  0  0  0  0
  -12.0935   94.3646  -53.9663 C   0  0  0  0  0  0  0  0  0  0  0  0
  -11.0046   94.9026  -54.6773 C   0  0  0  0  0  0  0  0  0  0  0  0
  -10.4089   96.7132  -56.3797 C   0  0  0  0  0  0  0  0  0  0  0  0
  -10.8343   96.3045  -57.7207 C   0  0  0  0  0  0  0  0  0  0  0  0
  -10.1899   95.4420  -58.5433 C   0  0  0  0  0  0  0  0  0  0  0  0
  -10.6788   95.1352  -59.8284 C   0  0  0  0  0  0  0  0  0  0  0  0
  -11.8436   95.7211  -60.2727 C   0  0  0  0  0  0  0  0  0  0  0  0
  -12.5132   96.6006  -59.4495 C   0  0  0  0  0  0  0  0  0  0  0  0
  -12.0156   96.8854  -58.1969 C   0  0  0  0  0  0  0  0  0  0  0  0
   -9.8503   94.1600  -54.7806 C   0  0  0  0  0  0  0  0  0  0  0  0
   -9.7881   92.9130  -54.1870 C   0  0  0  0  0  0  0  0  0  0  0  0
  -10.8406   92.3762  -53.4911 C   0  0  0  0  0  0  0  0  0  0  0  0
  -14.1487   93.8811  -52.8867 N   0  0  0  0  0  0  0  0  0  0  0  0
  -11.1234   96.1549  -55.2836 N   0  0  0  0  0  0  0  0  0  0  0  0
  -13.8717   95.9753  -54.0383 O   0  0  0  0  0  0  0  0  0  0  0  0
   -9.9830   94.2480  -60.6310 O   0  0  0  0  0  0  0  0  0  0  0  0
  -13.5423   91.7511  -52.0782 O   0  0  0  0  0  0  0  0  0  0  0  0
  4  1  1  0
  1 16  1  0
  1 18  2  0
  3  2  1  0
  2 16  1  0
  2 20  2  0
  4  3  2  0
  3 15  1  0
  5  4  1  0
  5 13  2  0
 17  5  1  0
  6  7  1  0
  6 17  1  0
  7  8  2  0
  7 12  1  0
  8  9  1  0
  9 10  2  0
  9 19  1  0
 10 11  1  0
 11 12  2  0
 13 14  1  0
 14 15  2  0
M  END
$$$$
