
     RDKit          3D

 20 22  0  0  0  0  0  0  0  0999 V2000
   11.5930   92.7793  -46.4771 C   0  0  0  0  0  0  0  0  0  0  0  0
   12.7293   92.4756  -48.4261 C   0  0  0  0  0  0  0  0  0  0  0  0
   12.8073   93.8877  -48.0416 C   0  0  0  0  0  0  0  0  0  0  0  0
   12.1190   94.0771  -46.8592 C   0  0  0  0  0  0  0  0  0  0  0  0
   12.0455   95.3561  -46.2764 C   0  0  0  0  0  0  0  0  0  0  0  0
   10.6543   96.6933  -44.6008 C   0  0  0  0  0  0  0  0  0  0  0  0
   11.1646   97.2664  -43.3528 C   0  0  0  0  0  0  0  0  0  0  0  0
   11.3508   96.6113  -42.1814 C   0  0  0  0  0  0  0  0  0  0  0  0
   11.8284   97.2685  -41.0305 C   0  0  0  0  0  0  0  0  0  0  0  0
   12.1186   98.6139  -41.0844 C   0  0  0  0  0  0  0  0  0  0  0  0
   11.9361   99.2967  -42.2676 C   0  0  0  0  0  0  0  0  0  0  0  0
   11.4676   98.6328  -43.3800 C   0  0  0  0  0  0  0  0  0  0  0  0
   12.6706   96.4075  -46.9077 C   0  0  0  0  0  0  0  0  0  0  0  0
   13.3515   96.1836  -48.0898 C   0  0  0  0  0  0  0  0  0  0  0  0
   13.4318   94.9434  -48.6690 C   0  0  0  0  0  0  0  0  0  0  0  0
   11.9739   91.7860  -47.4529 N   0  0  0  0  0  0  0  0  0  0  0  0
   11.3229   95.5392  -45.0956 N   0  0  0  0  0  0  0  0  0  0  0  0
   10.9063   92.5657  -45.4427 O   0  0  0  0  0  0  0  0  0  0  0  0
   12.0009   96.5545  -39.8574 O   0  0  0  0  0  0  0  0  0  0  0  0
   13.2346   91.9344  -49.4396 O   0  0  0  0  0  0  0  0  0  0  0  0
  4  1  1  0
  1 16  1  0
  1 18  2  0
  3  2  1  0
  2 16  1  0
  2 20  2  0
  4  3  2  0
  3 15  1  0
  5  4  1  0
  5 13  2  0
 17  5  1  0
  6  7  1  0
  6 17  1  0
  7  8  2  0
  7 12  1  0
  8  9  1  0
  9 10  2  0
  9 19  1  0
 10 11  1  0
 11 12  2  0
 13 14  1  0
 14 15  2  0
M  END
$$$$
