
     RDKit          3D

 20 22  0  0  0  0  0  0  0  0999 V2000
    0.0341   94.8338  -48.2819 C   0  0  0  0  0  0  0  0  0  0  0  0
   -1.1725   93.4207  -46.9670 C   0  0  0  0  0  0  0  0  0  0  0  0
   -1.7377   93.4161  -48.3192 C   0  0  0  0  0  0  0  0  0  0  0  0
   -1.0088   94.2724  -49.1211 C   0  0  0  0  0  0  0  0  0  0  0  0
   -1.3537   94.4452  -50.4746 C   0  0  0  0  0  0  0  0  0  0  0  0
    0.7788   95.4520  -51.4597 C   0  0  0  0  0  0  0  0  0  0  0  0
    1.4742   94.2693  -51.9735 C   0  0  0  0  0  0  0  0  0  0  0  0
    2.7859   93.9711  -51.8111 C   0  0  0  0  0  0  0  0  0  0  0  0
    3.3589   92.8118  -52.3699 C   0  0  0  0  0  0  0  0  0  0  0  0
    2.5747   91.9491  -53.1033 C   0  0  0  0  0  0  0  0  0  0  0  0
    1.2381   92.2356  -53.2787 C   0  0  0  0  0  0  0  0  0  0  0  0
    0.7001   93.3756  -52.7229 C   0  0  0  0  0  0  0  0  0  0  0  0
   -2.4276   93.7465  -50.9779 C   0  0  0  0  0  0  0  0  0  0  0  0
   -3.1358   92.8971  -50.1483 C   0  0  0  0  0  0  0  0  0  0  0  0
   -2.8112   92.7186  -48.8281 C   0  0  0  0  0  0  0  0  0  0  0  0
   -0.0702   94.3026  -46.9437 N   0  0  0  0  0  0  0  0  0  0  0  0
   -0.6259   95.3352  -51.2672 N   0  0  0  0  0  0  0  0  0  0  0  0
    0.8972   95.6622  -48.6770 O   0  0  0  0  0  0  0  0  0  0  0  0
    4.7045   92.5523  -52.1757 O   0  0  0  0  0  0  0  0  0  0  0  0
   -1.5722   92.7662  -45.9734 O   0  0  0  0  0  0  0  0  0  0  0  0
  4  1  1  0
  1 16  1  0
  1 18  2  0
  3  2  1  0
  2 16  1  0
  2 20  2  0
  4  3  2  0
  3 15  1  0
  5  4  1  0
  5 13  2  0
 17  5  1  0
  6  7  1  0
  6 17  1  0
  7  8  2  0
  7 12  1  0
  8  9  1  0
  9 10  2  0
  9 19  1  0
 10 11  1  0
 11 12  2  0
 13 14  1  0
 14 15  2  0
M  END
$$$$
