
     RDKit          3D

 20 22  0  0  0  0  0  0  0  0999 V2000
    0.2813   91.9179  -51.6371 C   0  0  0  0  0  0  0  0  0  0  0  0
    1.5554   91.4308  -53.4595 C   0  0  0  0  0  0  0  0  0  0  0  0
    1.8749   92.7854  -53.0004 C   0  0  0  0  0  0  0  0  0  0  0  0
    1.1040   93.0858  -51.8944 C   0  0  0  0  0  0  0  0  0  0  0  0
    1.2253   94.3372  -51.2619 C   0  0  0  0  0  0  0  0  0  0  0  0
    0.2846   95.8517  -49.4309 C   0  0  0  0  0  0  0  0  0  0  0  0
   -0.4611   96.9327  -50.0803 C   0  0  0  0  0  0  0  0  0  0  0  0
   -1.7819   96.9330  -50.3826 C   0  0  0  0  0  0  0  0  0  0  0  0
   -2.3953   98.0228  -51.0312 C   0  0  0  0  0  0  0  0  0  0  0  0
   -1.6429   99.1249  -51.3721 C   0  0  0  0  0  0  0  0  0  0  0  0
   -0.2979   99.1429  -51.0719 C   0  0  0  0  0  0  0  0  0  0  0  0
    0.2801   98.0653  -50.4375 C   0  0  0  0  0  0  0  0  0  0  0  0
    2.1235   95.2496  -51.7675 C   0  0  0  0  0  0  0  0  0  0  0  0
    2.8801   94.9170  -52.8758 C   0  0  0  0  0  0  0  0  0  0  0  0
    2.7729   93.7020  -53.5020 C   0  0  0  0  0  0  0  0  0  0  0  0
    0.5641   90.8910  -52.6115 N   0  0  0  0  0  0  0  0  0  0  0  0
    0.4200   94.6387  -50.1617 N   0  0  0  0  0  0  0  0  0  0  0  0
   -0.5530   91.8276  -50.6975 O   0  0  0  0  0  0  0  0  0  0  0  0
   -3.7483   97.9739  -51.3189 O   0  0  0  0  0  0  0  0  0  0  0  0
    2.0562   90.8207  -54.4354 O   0  0  0  0  0  0  0  0  0  0  0  0
  4  1  1  0
  1 16  1  0
  1 18  2  0
  3  2  1  0
  2 16  1  0
  2 20  2  0
  4  3  2  0
  3 15  1  0
  5  4  1  0
  5 13  2  0
 17  5  1  0
  6  7  1  0
  6 17  1  0
  7  8  2  0
  7 12  1  0
  8  9  1  0
  9 10  2  0
  9 19  1  0
 10 11  1  0
 11 12  2  0
 13 14  1  0
 14 15  2  0
M  END
$$$$
