
     RDKit          3D

 20 22  0  0  0  0  0  0  0  0999 V2000
  -11.2454   94.1778  -52.4020 C   0  0  0  0  0  0  0  0  0  0  0  0
  -10.9691   91.9793  -52.9238 C   0  0  0  0  0  0  0  0  0  0  0  0
  -11.6619   92.6498  -54.0276 C   0  0  0  0  0  0  0  0  0  0  0  0
  -11.8320   93.9845  -53.7156 C   0  0  0  0  0  0  0  0  0  0  0  0
  -12.4749   94.8498  -54.6205 C   0  0  0  0  0  0  0  0  0  0  0  0
  -13.2634   97.2473  -55.0224 C   0  0  0  0  0  0  0  0  0  0  0  0
  -12.4002   97.9601  -55.9675 C   0  0  0  0  0  0  0  0  0  0  0  0
  -11.9326   99.2250  -55.8366 C   0  0  0  0  0  0  0  0  0  0  0  0
  -11.1231   99.8236  -56.8220 C   0  0  0  0  0  0  0  0  0  0  0  0
  -10.7900   99.1137  -57.9544 C   0  0  0  0  0  0  0  0  0  0  0  0
  -11.2558   97.8253  -58.1047 C   0  0  0  0  0  0  0  0  0  0  0  0
  -12.0463   97.2611  -57.1276 C   0  0  0  0  0  0  0  0  0  0  0  0
  -12.9282   94.3390  -55.8156 C   0  0  0  0  0  0  0  0  0  0  0  0
  -12.7415   92.9984  -56.0970 C   0  0  0  0  0  0  0  0  0  0  0  0
  -12.1168   92.1439  -55.2255 C   0  0  0  0  0  0  0  0  0  0  0  0
  -10.7099   92.9298  -51.9125 N   0  0  0  0  0  0  0  0  0  0  0  0
  -12.6654   96.1908  -54.2808 N   0  0  0  0  0  0  0  0  0  0  0  0
  -11.2149   95.2790  -51.7907 O   0  0  0  0  0  0  0  0  0  0  0  0
  -10.6712  101.1192  -56.6414 O   0  0  0  0  0  0  0  0  0  0  0  0
  -10.6445   90.7689  -52.8531 O   0  0  0  0  0  0  0  0  0  0  0  0
  4  1  1  0
  1 16  1  0
  1 18  2  0
  3  2  1  0
  2 16  1  0
  2 20  2  0
  4  3  2  0
  3 15  1  0
  5  4  1  0
  5 13  2  0
 17  5  1  0
  6  7  1  0
  6 17  1  0
  7  8  2  0
  7 12  1  0
  8  9  1  0
  9 10  2  0
  9 19  1  0
 10 11  1  0
 11 12  2  0
 13 14  1  0
 14 15  2  0
M  END
$$$$
