
     RDKit          3D

 30 32  0  0  0  0  0  0  0  0999 V2000
   17.0162   38.2406   -8.8362 C   0  0  1  0  0  0  0  0  0  0  0  0
   18.3912   38.8306   -8.6826 C   0  0  0  0  0  0  0  0  0  0  0  0
   18.6524   39.7076   -7.6511 C   0  0  0  0  0  0  0  0  0  0  0  0
   19.8838   40.2982   -7.4283 C   0  0  0  0  0  0  0  0  0  0  0  0
   21.0869   40.9723   -5.3489 C   0  0  0  0  0  0  0  0  0  0  0  0
   20.9196   41.3686   -3.9579 C   0  0  0  0  0  0  0  0  0  0  0  0
   19.5440   42.0343   -2.1606 C   0  0  0  0  0  0  0  0  0  0  0  0
   19.7173   41.6667   -3.4418 N   0  0  0  0  0  0  0  0  0  0  0  0
   21.8438   41.8125   -1.8528 N   0  0  0  0  0  0  0  0  0  0  0  0
   22.1359   40.4073   -5.7217 O   0  0  0  0  0  0  0  0  0  0  0  0
   20.6502   42.1153   -1.3148 C   0  0  0  0  0  0  0  0  0  0  0  0
   16.2675   38.5095   -7.6077 N   0  0  0  0  0  0  0  0  0  0  0  0
   21.4053   43.4609    0.5152 C   0  0  0  0  0  0  0  0  0  0  0  0
   22.0144   41.4460   -3.1314 C   0  0  0  0  0  0  0  0  0  0  0  0
   20.8738   39.9543   -8.3210 C   0  0  0  0  0  0  0  0  0  0  0  0
   20.6418   39.0823   -9.3590 C   0  0  0  0  0  0  0  0  0  0  0  0
   19.4040   38.5094   -9.5559 C   0  0  0  0  0  0  0  0  0  0  0  0
   15.3134   39.5370   -7.4822 C   0  0  0  0  0  0  0  0  0  0  0  0
   16.4545   40.3021   -9.9967 C   0  0  1  0  0  0  0  0  0  0  0  0
   14.9182   38.5572   -9.7998 F   0  0  0  0  0  0  0  0  0  0  0  0
   16.2839   38.7929  -10.0089 C   0  0  2  0  0  0  0  0  0  0  0  0
   16.1287   40.9290  -11.3071 C   0  0  0  0  0  0  0  0  0  0  0  0
   15.3915   40.8969   -8.6479 S   0  0  0  0  0  0  0  0  0  0  0  0
   14.3933   39.5649   -6.5906 N   0  0  0  0  0  0  0  0  0  0  0  0
   17.1902   36.7477   -8.9854 C   0  0  0  0  0  0  0  0  0  0  0  0
   19.1901   37.6538  -10.5844 F   0  0  0  0  0  0  0  0  0  0  0  0
   20.0912   41.1991   -6.3415 N   0  0  0  0  0  0  0  0  0  0  0  0
   20.4964   42.4950    0.0210 O   0  0  0  0  0  0  0  0  0  0  0  0
   22.6552   42.8668    0.7344 F   0  0  0  0  0  0  0  0  0  0  0  0
   14.4320   38.9908   -5.7317 H   0  0  0  0  0  0  0  0  0  0  0  0
  2  1  1  0
  1 12  1  0
  1 21  1  0
  1 25  1  6
  3  2  2  0
  2 17  1  0
  4  3  1  0
  4 15  2  0
 27  4  1  0
  5  6  1  0
  5 10  2  0
  5 27  1  0
  6  8  1  0
  6 14  2  0
  8  7  2  0
  7 11  1  0
 11  9  2  0
  9 14  1  0
 11 28  1  0
 12 18  1  0
 28 13  1  0
 13 29  1  0
 15 16  1  0
 16 17  2  0
 17 26  1  0
 18 23  1  0
 18 24  2  0
 21 19  1  0
 19 22  1  6
 19 23  1  0
 21 20  1  1
 24 30  1  0
M  END
$$$$
