
     RDKit          3D

 30 32  0  0  0  0  0  0  0  0999 V2000
   16.7287   38.5293   -9.0117 C   0  0  1  0  0  0  0  0  0  0  0  0
   18.1797   38.8119   -8.7338 C   0  0  0  0  0  0  0  0  0  0  0  0
   18.6059   39.0118   -7.4378 C   0  0  0  0  0  0  0  0  0  0  0  0
   19.9177   39.2747   -7.0847 C   0  0  0  0  0  0  0  0  0  0  0  0
   21.0161   40.6253   -5.2971 C   0  0  0  0  0  0  0  0  0  0  0  0
   20.9023   41.1748   -3.9536 C   0  0  0  0  0  0  0  0  0  0  0  0
   19.8654   41.2293   -1.8352 C   0  0  0  0  0  0  0  0  0  0  0  0
   19.9849   40.7339   -3.0790 N   0  0  0  0  0  0  0  0  0  0  0  0
   21.6336   42.6722   -2.3087 N   0  0  0  0  0  0  0  0  0  0  0  0
   21.7677   41.1628   -6.1365 O   0  0  0  0  0  0  0  0  0  0  0  0
   20.7232   42.2464   -1.4167 C   0  0  0  0  0  0  0  0  0  0  0  0
   15.9941   38.6482   -7.7514 N   0  0  0  0  0  0  0  0  0  0  0  0
   21.0646   44.1101    0.0462 C   0  0  0  0  0  0  0  0  0  0  0  0
   21.7511   42.1765   -3.5492 C   0  0  0  0  0  0  0  0  0  0  0  0
   20.8112   39.3291   -8.1306 C   0  0  0  0  0  0  0  0  0  0  0  0
   20.4144   39.1338   -9.4329 C   0  0  0  0  0  0  0  0  0  0  0  0
   19.0998   38.8735   -9.7542 C   0  0  0  0  0  0  0  0  0  0  0  0
   15.2327   39.7768   -7.3933 C   0  0  0  0  0  0  0  0  0  0  0  0
   16.5841   40.8645   -9.6739 C   0  0  1  0  0  0  0  0  0  0  0  0
   14.7571   39.4267   -9.8709 F   0  0  0  0  0  0  0  0  0  0  0  0
   16.1498   39.4523  -10.0264 C   0  0  2  0  0  0  0  0  0  0  0  0
   16.4233   41.8161  -10.8074 C   0  0  0  0  0  0  0  0  0  0  0  0
   15.5935   41.3254   -8.2216 S   0  0  0  0  0  0  0  0  0  0  0  0
   14.2995   39.7710   -6.5150 N   0  0  0  0  0  0  0  0  0  0  0  0
   16.6414   37.1011   -9.4953 C   0  0  0  0  0  0  0  0  0  0  0  0
   18.7235   38.6853  -11.0421 F   0  0  0  0  0  0  0  0  0  0  0  0
   20.2964   39.4727   -5.7234 N   0  0  0  0  0  0  0  0  0  0  0  0
   20.6191   42.7780   -0.1288 O   0  0  0  0  0  0  0  0  0  0  0  0
   20.0514   45.0018   -0.3298 F   0  0  0  0  0  0  0  0  0  0  0  0
   14.4810   39.6099   -5.5101 H   0  0  0  0  0  0  0  0  0  0  0  0
  2  1  1  0
  1 12  1  0
  1 21  1  0
  1 25  1  6
  3  2  2  0
  2 17  1  0
  4  3  1  0
  4 15  2  0
 27  4  1  0
  5  6  1  0
  5 10  2  0
  5 27  1  0
  6  8  1  0
  6 14  2  0
  8  7  2  0
  7 11  1  0
 11  9  2  0
  9 14  1  0
 11 28  1  0
 12 18  1  0
 28 13  1  0
 13 29  1  0
 15 16  1  0
 16 17  2  0
 17 26  1  0
 18 23  1  0
 18 24  2  0
 21 19  1  0
 19 22  1  6
 19 23  1  0
 21 20  1  1
 24 30  1  0
M  END
$$$$
