
     RDKit          3D

 30 32  0  0  0  0  0  0  0  0999 V2000
   17.0988   38.3260   -9.1640 C   0  0  1  0  0  0  0  0  0  0  0  0
   18.5242   38.6239   -8.7872 C   0  0  0  0  0  0  0  0  0  0  0  0
   18.8458   38.9004   -7.4752 C   0  0  0  0  0  0  0  0  0  0  0  0
   20.1263   39.1833   -7.0337 C   0  0  0  0  0  0  0  0  0  0  0  0
   21.2980   40.4870   -5.2579 C   0  0  0  0  0  0  0  0  0  0  0  0
   21.2575   41.1013   -3.9385 C   0  0  0  0  0  0  0  0  0  0  0  0
   20.3091   41.2906   -1.7866 C   0  0  0  0  0  0  0  0  0  0  0  0
   20.3613   40.7347   -3.0093 N   0  0  0  0  0  0  0  0  0  0  0  0
   22.1057   42.6449   -2.3956 N   0  0  0  0  0  0  0  0  0  0  0  0
   22.1480   40.8508   -6.0969 O   0  0  0  0  0  0  0  0  0  0  0  0
   21.2177   42.2939   -1.4500 C   0  0  0  0  0  0  0  0  0  0  0  0
   16.2874   38.3794   -7.9470 N   0  0  0  0  0  0  0  0  0  0  0  0
   21.1312   44.3014   -0.1491 C   0  0  0  0  0  0  0  0  0  0  0  0
   22.1560   42.0889   -3.6149 C   0  0  0  0  0  0  0  0  0  0  0  0
   21.1013   39.1749   -8.0055 C   0  0  0  0  0  0  0  0  0  0  0  0
   20.8095   38.9026   -9.3217 C   0  0  0  0  0  0  0  0  0  0  0  0
   19.5237   38.6242   -9.7320 C   0  0  0  0  0  0  0  0  0  0  0  0
   15.4823   39.4780   -7.5914 C   0  0  0  0  0  0  0  0  0  0  0  0
   16.9451   40.6832   -9.7405 C   0  0  1  0  0  0  0  0  0  0  0  0
   15.1640   39.2209  -10.1053 F   0  0  0  0  0  0  0  0  0  0  0  0
   16.5626   39.2787  -10.1745 C   0  0  2  0  0  0  0  0  0  0  0  0
   16.8327   41.6773  -10.8429 C   0  0  0  0  0  0  0  0  0  0  0  0
   15.8594   41.0657   -8.3340 S   0  0  0  0  0  0  0  0  0  0  0  0
   14.4983   39.4188   -6.7725 N   0  0  0  0  0  0  0  0  0  0  0  0
   17.0709   36.9174   -9.7084 C   0  0  0  0  0  0  0  0  0  0  0  0
   19.2514   38.3599  -11.0326 F   0  0  0  0  0  0  0  0  0  0  0  0
   20.3952   39.4617   -5.6604 N   0  0  0  0  0  0  0  0  0  0  0  0
   21.1840   42.8874   -0.1856 O   0  0  0  0  0  0  0  0  0  0  0  0
   19.8188   44.7200    0.1067 F   0  0  0  0  0  0  0  0  0  0  0  0
   14.5688   38.9598   -5.8489 H   0  0  0  0  0  0  0  0  0  0  0  0
  2  1  1  0
  1 12  1  0
  1 21  1  0
  1 25  1  6
  3  2  2  0
  2 17  1  0
  4  3  1  0
  4 15  2  0
 27  4  1  0
  5  6  1  0
  5 10  2  0
  5 27  1  0
  6  8  1  0
  6 14  2  0
  8  7  2  0
  7 11  1  0
 11  9  2  0
  9 14  1  0
 11 28  1  0
 12 18  1  0
 28 13  1  0
 13 29  1  0
 15 16  1  0
 16 17  2  0
 17 26  1  0
 18 23  1  0
 18 24  2  0
 21 19  1  0
 19 22  1  6
 19 23  1  0
 21 20  1  1
 24 30  1  0
M  END
$$$$
