
     RDKit          3D

 30 32  0  0  0  0  0  0  0  0999 V2000
   16.6431   38.2301   -9.0789 C   0  0  1  0  0  0  0  0  0  0  0  0
   18.0213   38.7157   -8.7220 C   0  0  0  0  0  0  0  0  0  0  0  0
   18.2379   39.3451   -7.5144 C   0  0  0  0  0  0  0  0  0  0  0  0
   19.4682   39.8228   -7.0986 C   0  0  0  0  0  0  0  0  0  0  0  0
   20.9113   40.7481   -5.2854 C   0  0  0  0  0  0  0  0  0  0  0  0
   21.0941   41.3063   -3.9532 C   0  0  0  0  0  0  0  0  0  0  0  0
   20.4064   41.5373   -1.7083 C   0  0  0  0  0  0  0  0  0  0  0  0
   20.2533   41.0313   -2.9441 N   0  0  0  0  0  0  0  0  0  0  0  0
   22.3089   42.6488   -2.4684 N   0  0  0  0  0  0  0  0  0  0  0  0
   21.9003   40.4937   -6.0036 O   0  0  0  0  0  0  0  0  0  0  0  0
   21.4800   42.3874   -1.4435 C   0  0  0  0  0  0  0  0  0  0  0  0
   15.7987   38.3479   -7.8893 N   0  0  0  0  0  0  0  0  0  0  0  0
   20.7005   43.8720    0.2648 C   0  0  0  0  0  0  0  0  0  0  0  0
   22.1542   42.1428   -3.7007 C   0  0  0  0  0  0  0  0  0  0  0  0
   20.5056   39.6318   -7.9832 C   0  0  0  0  0  0  0  0  0  0  0  0
   20.3187   39.0075   -9.1943 C   0  0  0  0  0  0  0  0  0  0  0  0
   19.0808   38.5418   -9.5816 C   0  0  0  0  0  0  0  0  0  0  0  0
   14.8789   39.3935   -7.6834 C   0  0  0  0  0  0  0  0  0  0  0  0
   16.2704   40.4715   -9.9444 C   0  0  1  0  0  0  0  0  0  0  0  0
   14.6542   38.8014  -10.1505 F   0  0  0  0  0  0  0  0  0  0  0  0
   16.0415   38.9931  -10.2068 C   0  0  2  0  0  0  0  0  0  0  0  0
   16.0886   41.3075  -11.1627 C   0  0  0  0  0  0  0  0  0  0  0  0
   15.1153   40.9093   -8.6113 S   0  0  0  0  0  0  0  0  0  0  0  0
   13.8844   39.3340   -6.8772 N   0  0  0  0  0  0  0  0  0  0  0  0
   16.7702   36.7704   -9.4452 C   0  0  0  0  0  0  0  0  0  0  0  0
   18.9118   37.9307  -10.7789 F   0  0  0  0  0  0  0  0  0  0  0  0
   19.6281   40.4662   -5.8351 N   0  0  0  0  0  0  0  0  0  0  0  0
   21.6610   42.9263   -0.1672 O   0  0  0  0  0  0  0  0  0  0  0  0
   19.6796   43.2218    0.9706 F   0  0  0  0  0  0  0  0  0  0  0  0
   13.8904   39.7915   -5.9503 H   0  0  0  0  0  0  0  0  0  0  0  0
  2  1  1  0
  1 12  1  0
  1 21  1  0
  1 25  1  6
  3  2  2  0
  2 17  1  0
  4  3  1  0
  4 15  2  0
 27  4  1  0
  5  6  1  0
  5 10  2  0
  5 27  1  0
  6  8  1  0
  6 14  2  0
  8  7  2  0
  7 11  1  0
 11  9  2  0
  9 14  1  0
 11 28  1  0
 12 18  1  0
 28 13  1  0
 13 29  1  0
 15 16  1  0
 16 17  2  0
 17 26  1  0
 18 23  1  0
 18 24  2  0
 21 19  1  0
 19 22  1  6
 19 23  1  0
 21 20  1  1
 24 30  1  0
M  END
$$$$
