
     RDKit          3D

 30 32  0  0  0  0  0  0  0  0999 V2000
   16.9344   38.2071   -9.1199 C   0  0  1  0  0  0  0  0  0  0  0  0
   18.3731   38.5410   -8.8355 C   0  0  0  0  0  0  0  0  0  0  0  0
   18.7645   38.8624   -7.5530 C   0  0  0  0  0  0  0  0  0  0  0  0
   20.0627   39.1808   -7.1952 C   0  0  0  0  0  0  0  0  0  0  0  0
   21.2274   40.6215   -5.5236 C   0  0  0  0  0  0  0  0  0  0  0  0
   21.1987   41.2705   -4.2206 C   0  0  0  0  0  0  0  0  0  0  0  0
   20.2644   41.5227   -2.0690 C   0  0  0  0  0  0  0  0  0  0  0  0
   20.3057   40.9345   -3.2770 N   0  0  0  0  0  0  0  0  0  0  0  0
   22.0661   42.8485   -2.7239 N   0  0  0  0  0  0  0  0  0  0  0  0
   21.9942   41.0357   -6.4176 O   0  0  0  0  0  0  0  0  0  0  0  0
   21.1815   42.5284   -1.7643 C   0  0  0  0  0  0  0  0  0  0  0  0
   16.1789   38.3602   -7.8757 N   0  0  0  0  0  0  0  0  0  0  0  0
   19.9674   43.0283    0.2372 C   0  0  0  0  0  0  0  0  0  0  0  0
   22.1055   42.2603   -3.9284 C   0  0  0  0  0  0  0  0  0  0  0  0
   20.9801   39.1602   -8.2214 C   0  0  0  0  0  0  0  0  0  0  0  0
   20.6181   38.8433   -9.5099 C   0  0  0  0  0  0  0  0  0  0  0  0
   19.3164   38.5303   -9.8364 C   0  0  0  0  0  0  0  0  0  0  0  0
   15.3825   39.4821   -7.5773 C   0  0  0  0  0  0  0  0  0  0  0  0
   16.7368   40.5065   -9.8854 C   0  0  1  0  0  0  0  0  0  0  0  0
   14.9520   39.0120  -10.0433 F   0  0  0  0  0  0  0  0  0  0  0  0
   16.3456   39.0690  -10.1814 C   0  0  2  0  0  0  0  0  0  0  0  0
   16.5669   41.4033  -11.0613 C   0  0  0  0  0  0  0  0  0  0  0  0
   15.7135   41.0026   -8.4677 S   0  0  0  0  0  0  0  0  0  0  0  0
   14.4372   39.4888   -6.7119 N   0  0  0  0  0  0  0  0  0  0  0  0
   16.8923   36.7574   -9.5416 C   0  0  0  0  0  0  0  0  0  0  0  0
   18.9746   38.2223  -11.1108 F   0  0  0  0  0  0  0  0  0  0  0  0
   20.4050   39.5051   -5.8485 N   0  0  0  0  0  0  0  0  0  0  0  0
   21.1592   43.1552   -0.5158 O   0  0  0  0  0  0  0  0  0  0  0  0
   19.0791   44.0565   -0.1050 F   0  0  0  0  0  0  0  0  0  0  0  0
   14.4679   40.0702   -5.8578 H   0  0  0  0  0  0  0  0  0  0  0  0
  2  1  1  0
  1 12  1  0
  1 21  1  0
  1 25  1  6
  3  2  2  0
  2 17  1  0
  4  3  1  0
  4 15  2  0
 27  4  1  0
  5  6  1  0
  5 10  2  0
  5 27  1  0
  6  8  1  0
  6 14  2  0
  8  7  2  0
  7 11  1  0
 11  9  2  0
  9 14  1  0
 11 28  1  0
 12 18  1  0
 28 13  1  0
 13 29  1  0
 15 16  1  0
 16 17  2  0
 17 26  1  0
 18 23  1  0
 18 24  2  0
 21 19  1  0
 19 22  1  6
 19 23  1  0
 21 20  1  1
 24 30  1  0
M  END
$$$$
