
     RDKit          3D

 30 32  0  0  0  0  0  0  0  0999 V2000
   16.7831   38.0172   -9.1563 C   0  0  1  0  0  0  0  0  0  0  0  0
   18.2175   38.3516   -8.8509 C   0  0  0  0  0  0  0  0  0  0  0  0
   18.5813   38.7195   -7.5728 C   0  0  0  0  0  0  0  0  0  0  0  0
   19.8733   39.0422   -7.1968 C   0  0  0  0  0  0  0  0  0  0  0  0
   21.0401   40.5155   -5.5555 C   0  0  0  0  0  0  0  0  0  0  0  0
   20.9527   41.2656   -4.3106 C   0  0  0  0  0  0  0  0  0  0  0  0
   19.8363   41.7894   -2.2994 C   0  0  0  0  0  0  0  0  0  0  0  0
   19.9333   41.1058   -3.4527 N   0  0  0  0  0  0  0  0  0  0  0  0
   21.8397   42.8531   -2.8355 N   0  0  0  0  0  0  0  0  0  0  0  0
   21.8882   40.8228   -6.4185 O   0  0  0  0  0  0  0  0  0  0  0  0
   20.8287   42.7095   -1.9620 C   0  0  0  0  0  0  0  0  0  0  0  0
   16.0048   38.1964   -7.9298 N   0  0  0  0  0  0  0  0  0  0  0  0
   20.0935   42.8013    0.3142 C   0  0  0  0  0  0  0  0  0  0  0  0
   21.9345   42.1700   -3.9857 C   0  0  0  0  0  0  0  0  0  0  0  0
   20.8142   38.9756   -8.1995 C   0  0  0  0  0  0  0  0  0  0  0  0
   20.4800   38.6118   -9.4831 C   0  0  0  0  0  0  0  0  0  0  0  0
   19.1837   38.2957   -9.8281 C   0  0  0  0  0  0  0  0  0  0  0  0
   15.2070   39.3263   -7.6677 C   0  0  0  0  0  0  0  0  0  0  0  0
   16.6086   40.3025   -9.9684 C   0  0  1  0  0  0  0  0  0  0  0  0
   14.8216   38.8113  -10.1322 F   0  0  0  0  0  0  0  0  0  0  0  0
   16.2177   38.8610  -10.2448 C   0  0  2  0  0  0  0  0  0  0  0  0
   16.4643   41.1776  -11.1641 C   0  0  0  0  0  0  0  0  0  0  0  0
   15.5604   40.8287   -8.5800 S   0  0  0  0  0  0  0  0  0  0  0  0
   14.2456   39.3524   -6.8207 N   0  0  0  0  0  0  0  0  0  0  0  0
   16.7437   36.5600   -9.5515 C   0  0  0  0  0  0  0  0  0  0  0  0
   18.8694   37.9412  -11.0974 F   0  0  0  0  0  0  0  0  0  0  0  0
   20.1865   39.4158   -5.8558 N   0  0  0  0  0  0  0  0  0  0  0  0
   20.7507   43.4324   -0.7689 O   0  0  0  0  0  0  0  0  0  0  0  0
   20.5841   41.4983    0.4717 F   0  0  0  0  0  0  0  0  0  0  0  0
   14.3988   39.2756   -5.8013 H   0  0  0  0  0  0  0  0  0  0  0  0
  2  1  1  0
  1 12  1  0
  1 21  1  0
  1 25  1  6
  3  2  2  0
  2 17  1  0
  4  3  1  0
  4 15  2  0
 27  4  1  0
  5  6  1  0
  5 10  2  0
  5 27  1  0
  6  8  1  0
  6 14  2  0
  8  7  2  0
  7 11  1  0
 11  9  2  0
  9 14  1  0
 11 28  1  0
 12 18  1  0
 28 13  1  0
 13 29  1  0
 15 16  1  0
 16 17  2  0
 17 26  1  0
 18 23  1  0
 18 24  2  0
 21 19  1  0
 19 22  1  6
 19 23  1  0
 21 20  1  1
 24 30  1  0
M  END
$$$$
