
     RDKit          3D

 30 32  0  0  0  0  0  0  0  0999 V2000
   16.8533   38.2680   -8.9471 C   0  0  1  0  0  0  0  0  0  0  0  0
   18.2509   38.7878   -8.7494 C   0  0  0  0  0  0  0  0  0  0  0  0
   18.5144   39.6854   -7.7365 C   0  0  0  0  0  0  0  0  0  0  0  0
   19.7657   40.2159   -7.4764 C   0  0  0  0  0  0  0  0  0  0  0  0
   20.9205   40.9036   -5.3742 C   0  0  0  0  0  0  0  0  0  0  0  0
   20.8141   41.5086   -4.0540 C   0  0  0  0  0  0  0  0  0  0  0  0
   19.6092   41.9054   -2.0650 C   0  0  0  0  0  0  0  0  0  0  0  0
   19.7248   41.3546   -3.2856 N   0  0  0  0  0  0  0  0  0  0  0  0
   21.7370   42.8149   -2.3439 N   0  0  0  0  0  0  0  0  0  0  0  0
   21.8694   40.1379   -5.6422 O   0  0  0  0  0  0  0  0  0  0  0  0
   20.6565   42.6742   -1.5575 C   0  0  0  0  0  0  0  0  0  0  0  0
   16.0765   38.5888   -7.7490 N   0  0  0  0  0  0  0  0  0  0  0  0
   20.7978   42.4103    0.8174 C   0  0  0  0  0  0  0  0  0  0  0  0
   21.8503   42.2644   -3.5615 C   0  0  0  0  0  0  0  0  0  0  0  0
   20.7737   39.7875   -8.3103 C   0  0  0  0  0  0  0  0  0  0  0  0
   20.5399   38.8930   -9.3287 C   0  0  0  0  0  0  0  0  0  0  0  0
   19.2821   38.3814   -9.5638 C   0  0  0  0  0  0  0  0  0  0  0  0
   15.1733   39.6657   -7.6675 C   0  0  0  0  0  0  0  0  0  0  0  0
   16.4415   40.3429  -10.1461 C   0  0  1  0  0  0  0  0  0  0  0  0
   14.8103   38.6821   -9.9887 F   0  0  0  0  0  0  0  0  0  0  0  0
   16.1930   38.8445  -10.1505 C   0  0  2  0  0  0  0  0  0  0  0  0
   16.1956   40.9712  -11.4731 C   0  0  0  0  0  0  0  0  0  0  0  0
   15.3636   41.0067   -8.8421 S   0  0  0  0  0  0  0  0  0  0  0  0
   14.2248   39.7510   -6.8099 N   0  0  0  0  0  0  0  0  0  0  0  0
   16.9546   36.7666   -9.0763 C   0  0  0  0  0  0  0  0  0  0  0  0
   19.0669   37.5026  -10.5723 F   0  0  0  0  0  0  0  0  0  0  0  0
   19.9743   41.1423   -6.4114 N   0  0  0  0  0  0  0  0  0  0  0  0
   20.5606   43.2574   -0.2915 O   0  0  0  0  0  0  0  0  0  0  0  0
   22.0686   41.8304    0.7074 F   0  0  0  0  0  0  0  0  0  0  0  0
   14.3932   39.7422   -5.7900 H   0  0  0  0  0  0  0  0  0  0  0  0
  2  1  1  0
  1 12  1  0
  1 21  1  0
  1 25  1  6
  3  2  2  0
  2 17  1  0
  4  3  1  0
  4 15  2  0
 27  4  1  0
  5  6  1  0
  5 10  2  0
  5 27  1  0
  6  8  1  0
  6 14  2  0
  8  7  2  0
  7 11  1  0
 11  9  2  0
  9 14  1  0
 11 28  1  0
 12 18  1  0
 28 13  1  0
 13 29  1  0
 15 16  1  0
 16 17  2  0
 17 26  1  0
 18 23  1  0
 18 24  2  0
 21 19  1  0
 19 22  1  6
 19 23  1  0
 21 20  1  1
 24 30  1  0
M  END
$$$$
