
     RDKit          3D

 30 32  0  0  0  0  0  0  0  0999 V2000
   16.7929   38.2436   -8.9156 C   0  0  1  0  0  0  0  0  0  0  0  0
   18.1556   38.6886   -8.4602 C   0  0  0  0  0  0  0  0  0  0  0  0
   18.3212   39.2141   -7.1962 C   0  0  0  0  0  0  0  0  0  0  0  0
   19.5336   39.6474   -6.6891 C   0  0  0  0  0  0  0  0  0  0  0  0
   20.8212   40.8308   -4.9093 C   0  0  0  0  0  0  0  0  0  0  0  0
   20.8637   41.6149   -3.6833 C   0  0  0  0  0  0  0  0  0  0  0  0
   19.8601   42.3580   -1.6817 C   0  0  0  0  0  0  0  0  0  0  0  0
   19.8384   41.6401   -2.8179 N   0  0  0  0  0  0  0  0  0  0  0  0
   22.0030   43.0761   -2.2516 N   0  0  0  0  0  0  0  0  0  0  0  0
   21.8461   40.7004   -5.6102 O   0  0  0  0  0  0  0  0  0  0  0  0
   20.9887   43.1163   -1.3710 C   0  0  0  0  0  0  0  0  0  0  0  0
   15.8761   38.3563   -7.7802 N   0  0  0  0  0  0  0  0  0  0  0  0
   20.9456   43.1557    1.0220 C   0  0  0  0  0  0  0  0  0  0  0  0
   21.9792   42.3592   -3.3847 C   0  0  0  0  0  0  0  0  0  0  0  0
   20.6080   39.5235   -7.5408 C   0  0  0  0  0  0  0  0  0  0  0  0
   20.4723   39.0032   -8.8067 C   0  0  0  0  0  0  0  0  0  0  0  0
   19.2511   38.5796   -9.2846 C   0  0  0  0  0  0  0  0  0  0  0  0
   14.9686   39.4190   -7.6102 C   0  0  0  0  0  0  0  0  0  0  0  0
   16.5271   40.5111   -9.7524 C   0  0  1  0  0  0  0  0  0  0  0  0
   14.8907   38.8846  -10.0993 F   0  0  0  0  0  0  0  0  0  0  0  0
   16.2826   39.0444  -10.0622 C   0  0  2  0  0  0  0  0  0  0  0  0
   16.4432   41.3767  -10.9606 C   0  0  0  0  0  0  0  0  0  0  0  0
   15.2983   40.9479   -8.4865 S   0  0  0  0  0  0  0  0  0  0  0  0
   13.9230   39.3661   -6.8710 N   0  0  0  0  0  0  0  0  0  0  0  0
   16.9106   36.7893   -9.3060 C   0  0  0  0  0  0  0  0  0  0  0  0
   19.1327   38.0711  -10.5348 F   0  0  0  0  0  0  0  0  0  0  0  0
   19.6400   40.1826   -5.3707 N   0  0  0  0  0  0  0  0  0  0  0  0
   21.0358   43.8710   -0.1961 O   0  0  0  0  0  0  0  0  0  0  0  0
   22.1491   42.4808    1.2654 F   0  0  0  0  0  0  0  0  0  0  0  0
   13.8622   38.7624   -6.0341 H   0  0  0  0  0  0  0  0  0  0  0  0
  2  1  1  0
  1 12  1  0
  1 21  1  0
  1 25  1  6
  3  2  2  0
  2 17  1  0
  4  3  1  0
  4 15  2  0
 27  4  1  0
  5  6  1  0
  5 10  2  0
  5 27  1  0
  6  8  1  0
  6 14  2  0
  8  7  2  0
  7 11  1  0
 11  9  2  0
  9 14  1  0
 11 28  1  0
 12 18  1  0
 28 13  1  0
 13 29  1  0
 15 16  1  0
 16 17  2  0
 17 26  1  0
 18 23  1  0
 18 24  2  0
 21 19  1  0
 19 22  1  6
 19 23  1  0
 21 20  1  1
 24 30  1  0
M  END
$$$$
