
     RDKit          3D

 30 32  0  0  0  0  0  0  0  0999 V2000
   16.6946   38.3664   -9.0675 C   0  0  1  0  0  0  0  0  0  0  0  0
   18.0591   38.8495   -8.6588 C   0  0  0  0  0  0  0  0  0  0  0  0
   18.2464   39.4089   -7.4125 C   0  0  0  0  0  0  0  0  0  0  0  0
   19.4623   39.8785   -6.9479 C   0  0  0  0  0  0  0  0  0  0  0  0
   20.8476   40.8734   -5.1266 C   0  0  0  0  0  0  0  0  0  0  0  0
   21.0070   41.3988   -3.7781 C   0  0  0  0  0  0  0  0  0  0  0  0
   20.3541   41.4807   -1.5125 C   0  0  0  0  0  0  0  0  0  0  0  0
   20.2215   41.0065   -2.7633 N   0  0  0  0  0  0  0  0  0  0  0  0
   22.1203   42.8003   -2.2685 N   0  0  0  0  0  0  0  0  0  0  0  0
   21.8333   40.7782   -5.8868 O   0  0  0  0  0  0  0  0  0  0  0  0
   21.3457   42.4222   -1.2376 C   0  0  0  0  0  0  0  0  0  0  0  0
   15.8081   38.4778   -7.9082 N   0  0  0  0  0  0  0  0  0  0  0  0
   21.4508   44.3378    0.1939 C   0  0  0  0  0  0  0  0  0  0  0  0
   21.9862   42.3260   -3.5157 C   0  0  0  0  0  0  0  0  0  0  0  0
   20.5167   39.7554   -7.8243 C   0  0  0  0  0  0  0  0  0  0  0  0
   20.3592   39.2016   -9.0734 C   0  0  0  0  0  0  0  0  0  0  0  0
   19.1350   38.7422   -9.5088 C   0  0  0  0  0  0  0  0  0  0  0  0
   14.8817   39.5226   -7.7296 C   0  0  0  0  0  0  0  0  0  0  0  0
   16.3534   40.6128   -9.9333 C   0  0  1  0  0  0  0  0  0  0  0  0
   14.7454   38.9444  -10.2064 F   0  0  0  0  0  0  0  0  0  0  0  0
   16.1338   39.1359  -10.2120 C   0  0  2  0  0  0  0  0  0  0  0  0
   16.2155   41.4555  -11.1527 C   0  0  0  0  0  0  0  0  0  0  0  0
   15.1514   41.0435   -8.6399 S   0  0  0  0  0  0  0  0  0  0  0  0
   13.8590   39.4590   -6.9599 N   0  0  0  0  0  0  0  0  0  0  0  0
   16.8345   36.9086   -9.4372 C   0  0  0  0  0  0  0  0  0  0  0  0
   18.9950   38.2011  -10.7430 F   0  0  0  0  0  0  0  0  0  0  0  0
   19.5917   40.4478   -5.6460 N   0  0  0  0  0  0  0  0  0  0  0  0
   21.5039   42.9303    0.0543 O   0  0  0  0  0  0  0  0  0  0  0  0
   20.1359   44.7376    0.4672 F   0  0  0  0  0  0  0  0  0  0  0  0
   13.9201   39.1451   -5.9769 H   0  0  0  0  0  0  0  0  0  0  0  0
  2  1  1  0
  1 12  1  0
  1 21  1  0
  1 25  1  6
  3  2  2  0
  2 17  1  0
  4  3  1  0
  4 15  2  0
 27  4  1  0
  5  6  1  0
  5 10  2  0
  5 27  1  0
  6  8  1  0
  6 14  2  0
  8  7  2  0
  7 11  1  0
 11  9  2  0
  9 14  1  0
 11 28  1  0
 12 18  1  0
 28 13  1  0
 13 29  1  0
 15 16  1  0
 16 17  2  0
 17 26  1  0
 18 23  1  0
 18 24  2  0
 21 19  1  0
 19 22  1  6
 19 23  1  0
 21 20  1  1
 24 30  1  0
M  END
$$$$
