
     RDKit          3D

 30 32  0  0  0  0  0  0  0  0999 V2000
   16.7942   38.0186   -8.9328 C   0  0  1  0  0  0  0  0  0  0  0  0
   18.1793   38.5609   -8.7095 C   0  0  0  0  0  0  0  0  0  0  0  0
   18.4401   39.3508   -7.6098 C   0  0  0  0  0  0  0  0  0  0  0  0
   19.6803   39.8919   -7.3202 C   0  0  0  0  0  0  0  0  0  0  0  0
   21.1201   40.7073   -5.4526 C   0  0  0  0  0  0  0  0  0  0  0  0
   21.2545   41.2534   -4.1096 C   0  0  0  0  0  0  0  0  0  0  0  0
   20.4699   41.4878   -1.8970 C   0  0  0  0  0  0  0  0  0  0  0  0
   20.3620   40.9926   -3.1420 N   0  0  0  0  0  0  0  0  0  0  0  0
   22.4308   42.5583   -2.5616 N   0  0  0  0  0  0  0  0  0  0  0  0
   22.1085   40.2142   -6.0345 O   0  0  0  0  0  0  0  0  0  0  0  0
   21.5497   42.3107   -1.5775 C   0  0  0  0  0  0  0  0  0  0  0  0
   16.0128   38.2568   -7.7184 N   0  0  0  0  0  0  0  0  0  0  0  0
   20.5353   42.7990    0.5349 C   0  0  0  0  0  0  0  0  0  0  0  0
   22.3211   42.0631   -3.8031 C   0  0  0  0  0  0  0  0  0  0  0  0
   20.6797   39.5918   -8.2180 C   0  0  0  0  0  0  0  0  0  0  0  0
   20.4484   38.8067   -9.3234 C   0  0  0  0  0  0  0  0  0  0  0  0
   19.2017   38.2814   -9.5859 C   0  0  0  0  0  0  0  0  0  0  0  0
   15.0841   39.3056   -7.5790 C   0  0  0  0  0  0  0  0  0  0  0  0
   16.3295   40.1433  -10.0199 C   0  0  1  0  0  0  0  0  0  0  0  0
   14.7392   38.4376   -9.9486 F   0  0  0  0  0  0  0  0  0  0  0  0
   16.1171   38.6417  -10.1032 C   0  0  2  0  0  0  0  0  0  0  0  0
   16.0652   40.8348  -11.3115 C   0  0  0  0  0  0  0  0  0  0  0  0
   15.2391   40.7111   -8.6812 S   0  0  0  0  0  0  0  0  0  0  0  0
   14.1359   39.3225   -6.7170 N   0  0  0  0  0  0  0  0  0  0  0  0
   16.9313   36.5290   -9.1412 C   0  0  0  0  0  0  0  0  0  0  0  0
   18.9887   37.5114  -10.6802 F   0  0  0  0  0  0  0  0  0  0  0  0
   19.8867   40.7028   -6.1644 N   0  0  0  0  0  0  0  0  0  0  0  0
   21.6844   42.8379   -0.2907 O   0  0  0  0  0  0  0  0  0  0  0  0
   19.9757   44.0802    0.6285 F   0  0  0  0  0  0  0  0  0  0  0  0
   14.0975   40.0081   -5.9442 H   0  0  0  0  0  0  0  0  0  0  0  0
  2  1  1  0
  1 12  1  0
  1 21  1  0
  1 25  1  6
  3  2  2  0
  2 17  1  0
  4  3  1  0
  4 15  2  0
 27  4  1  0
  5  6  1  0
  5 10  2  0
  5 27  1  0
  6  8  1  0
  6 14  2  0
  8  7  2  0
  7 11  1  0
 11  9  2  0
  9 14  1  0
 11 28  1  0
 12 18  1  0
 28 13  1  0
 13 29  1  0
 15 16  1  0
 16 17  2  0
 17 26  1  0
 18 23  1  0
 18 24  2  0
 21 19  1  0
 19 22  1  6
 19 23  1  0
 21 20  1  1
 24 30  1  0
M  END
$$$$
