
     RDKit          3D

 30 32  0  0  0  0  0  0  0  0999 V2000
   16.8766   38.2101   -9.1016 C   0  0  1  0  0  0  0  0  0  0  0  0
   18.2131   38.8411   -8.8223 C   0  0  0  0  0  0  0  0  0  0  0  0
   18.3596   39.6972   -7.7513 C   0  0  0  0  0  0  0  0  0  0  0  0
   19.5474   40.3220   -7.4146 C   0  0  0  0  0  0  0  0  0  0  0  0
   20.7509   41.1876   -5.4076 C   0  0  0  0  0  0  0  0  0  0  0  0
   20.6683   41.6422   -4.0268 C   0  0  0  0  0  0  0  0  0  0  0  0
   19.4137   42.0785   -2.0772 C   0  0  0  0  0  0  0  0  0  0  0  0
   19.5088   41.6623   -3.3517 N   0  0  0  0  0  0  0  0  0  0  0  0
   21.7088   42.4838   -2.1054 N   0  0  0  0  0  0  0  0  0  0  0  0
   21.8311   40.7638   -5.8682 O   0  0  0  0  0  0  0  0  0  0  0  0
   20.5592   42.5124   -1.4101 C   0  0  0  0  0  0  0  0  0  0  0  0
   16.0201   38.4268   -7.9348 N   0  0  0  0  0  0  0  0  0  0  0  0
   21.6244   43.6191    0.4257 C   0  0  0  0  0  0  0  0  0  0  0  0
   21.8014   42.0681   -3.3771 C   0  0  0  0  0  0  0  0  0  0  0  0
   20.6173   40.0364   -8.2325 C   0  0  0  0  0  0  0  0  0  0  0  0
   20.5003   39.1865   -9.3075 C   0  0  0  0  0  0  0  0  0  0  0  0
   19.3034   38.5784   -9.6185 C   0  0  0  0  0  0  0  0  0  0  0  0
   15.0241   39.4196   -7.8693 C   0  0  0  0  0  0  0  0  0  0  0  0
   16.3424   40.2777  -10.2643 C   0  0  1  0  0  0  0  0  0  0  0  0
   14.8559   38.4796  -10.2306 F   0  0  0  0  0  0  0  0  0  0  0  0
   16.2253   38.7644  -10.3203 C   0  0  2  0  0  0  0  0  0  0  0  0
   16.1047   40.9228  -11.5847 C   0  0  0  0  0  0  0  0  0  0  0  0
   15.1515   40.8071   -8.9975 S   0  0  0  0  0  0  0  0  0  0  0  0
   14.0329   39.3974   -7.0571 N   0  0  0  0  0  0  0  0  0  0  0  0
   17.1137   36.7274   -9.2651 C   0  0  0  0  0  0  0  0  0  0  0  0
   19.2031   37.7452  -10.6821 F   0  0  0  0  0  0  0  0  0  0  0  0
   19.6349   41.1986   -6.2922 N   0  0  0  0  0  0  0  0  0  0  0  0
   20.4866   42.9499   -0.0852 O   0  0  0  0  0  0  0  0  0  0  0  0
   22.3795   42.7379    1.2108 F   0  0  0  0  0  0  0  0  0  0  0  0
   14.1479   39.4984   -6.0348 H   0  0  0  0  0  0  0  0  0  0  0  0
  2  1  1  0
  1 12  1  0
  1 21  1  0
  1 25  1  6
  3  2  2  0
  2 17  1  0
  4  3  1  0
  4 15  2  0
 27  4  1  0
  5  6  1  0
  5 10  2  0
  5 27  1  0
  6  8  1  0
  6 14  2  0
  8  7  2  0
  7 11  1  0
 11  9  2  0
  9 14  1  0
 11 28  1  0
 12 18  1  0
 28 13  1  0
 13 29  1  0
 15 16  1  0
 16 17  2  0
 17 26  1  0
 18 23  1  0
 18 24  2  0
 21 19  1  0
 19 22  1  6
 19 23  1  0
 21 20  1  1
 24 30  1  0
M  END
$$$$
