
     RDKit          3D

 30 32  0  0  0  0  0  0  0  0999 V2000
   16.8028   38.1749   -9.3300 C   0  0  1  0  0  0  0  0  0  0  0  0
   18.2217   38.5252   -8.9744 C   0  0  0  0  0  0  0  0  0  0  0  0
   18.5442   38.8550   -7.6750 C   0  0  0  0  0  0  0  0  0  0  0  0
   19.8192   39.1884   -7.2530 C   0  0  0  0  0  0  0  0  0  0  0  0
   21.1538   40.3913   -5.5216 C   0  0  0  0  0  0  0  0  0  0  0  0
   21.1504   41.1611   -4.2857 C   0  0  0  0  0  0  0  0  0  0  0  0
   21.9079   42.9872   -2.9985 C   0  0  0  0  0  0  0  0  0  0  0  0
   21.8985   42.2644   -4.1317 N   0  0  0  0  0  0  0  0  0  0  0  0
   20.3714   41.4818   -2.1010 N   0  0  0  0  0  0  0  0  0  0  0  0
   22.1155   40.4741   -6.3133 O   0  0  0  0  0  0  0  0  0  0  0  0
   21.1120   42.5891   -1.9245 C   0  0  0  0  0  0  0  0  0  0  0  0
   15.9967   38.2557   -8.1111 N   0  0  0  0  0  0  0  0  0  0  0  0
   20.3572   42.7842    0.3387 C   0  0  0  0  0  0  0  0  0  0  0  0
   20.3635   40.7621   -3.2326 C   0  0  0  0  0  0  0  0  0  0  0  0
   20.7875   39.1743   -8.2314 C   0  0  0  0  0  0  0  0  0  0  0  0
   20.4947   38.8493   -9.5354 C   0  0  0  0  0  0  0  0  0  0  0  0
   19.2146   38.5213   -9.9262 C   0  0  0  0  0  0  0  0  0  0  0  0
   15.1645   39.3462   -7.7946 C   0  0  0  0  0  0  0  0  0  0  0  0
   16.5835   40.5022   -9.9993 C   0  0  1  0  0  0  0  0  0  0  0  0
   14.8400   38.9801  -10.2942 F   0  0  0  0  0  0  0  0  0  0  0  0
   16.2363   39.0720  -10.3744 C   0  0  2  0  0  0  0  0  0  0  0  0
   16.4390   41.4480  -11.1398 C   0  0  0  0  0  0  0  0  0  0  0  0
   15.4954   40.9122   -8.6024 S   0  0  0  0  0  0  0  0  0  0  0  0
   14.1867   39.2939   -6.9678 N   0  0  0  0  0  0  0  0  0  0  0  0
   16.8095   36.7454   -9.8175 C   0  0  0  0  0  0  0  0  0  0  0  0
   18.9411   38.2055  -11.2151 F   0  0  0  0  0  0  0  0  0  0  0  0
   20.0893   39.5208   -5.8920 N   0  0  0  0  0  0  0  0  0  0  0  0
   21.1042   43.3234   -0.7359 O   0  0  0  0  0  0  0  0  0  0  0  0
   21.0665   41.7283    0.9261 F   0  0  0  0  0  0  0  0  0  0  0  0
   14.2703   38.8616   -6.0325 H   0  0  0  0  0  0  0  0  0  0  0  0
  2  1  1  0
  1 12  1  0
  1 21  1  0
  1 25  1  6
  3  2  2  0
  2 17  1  0
  4  3  1  0
  4 15  2  0
 27  4  1  0
  5  6  1  0
  5 10  2  0
  5 27  1  0
  6  8  1  0
  6 14  2  0
  8  7  2  0
  7 11  1  0
 11  9  2  0
  9 14  1  0
 11 28  1  0
 12 18  1  0
 28 13  1  0
 13 29  1  0
 15 16  1  0
 16 17  2  0
 17 26  1  0
 18 23  1  0
 18 24  2  0
 21 19  1  0
 19 22  1  6
 19 23  1  0
 21 20  1  1
 24 30  1  0
M  END
$$$$
