
     RDKit          3D

 30 32  0  0  0  0  0  0  0  0999 V2000
   16.8617   38.2195   -9.1649 C   0  0  1  0  0  0  0  0  0  0  0  0
   18.3232   38.5024   -8.9497 C   0  0  0  0  0  0  0  0  0  0  0  0
   18.7857   38.8129   -7.6883 C   0  0  0  0  0  0  0  0  0  0  0  0
   20.1098   39.0855   -7.3931 C   0  0  0  0  0  0  0  0  0  0  0  0
   21.3367   40.5351   -5.7747 C   0  0  0  0  0  0  0  0  0  0  0  0
   21.3486   41.1838   -4.4712 C   0  0  0  0  0  0  0  0  0  0  0  0
   22.1840   42.8280   -3.0000 C   0  0  0  0  0  0  0  0  0  0  0  0
   22.1596   42.2172   -4.1971 N   0  0  0  0  0  0  0  0  0  0  0  0
   20.5336   41.3469   -2.2822 N   0  0  0  0  0  0  0  0  0  0  0  0
   22.0558   40.9660   -6.6999 O   0  0  0  0  0  0  0  0  0  0  0  0
   21.3368   42.3826   -1.9855 C   0  0  0  0  0  0  0  0  0  0  0  0
   16.1770   38.3686   -7.8799 N   0  0  0  0  0  0  0  0  0  0  0  0
   20.0849   43.1984   -0.1155 C   0  0  0  0  0  0  0  0  0  0  0  0
   20.5109   40.7389   -3.4773 C   0  0  0  0  0  0  0  0  0  0  0  0
   20.9765   39.0296   -8.4611 C   0  0  0  0  0  0  0  0  0  0  0  0
   20.5433   38.7227   -9.7299 C   0  0  0  0  0  0  0  0  0  0  0  0
   19.2173   38.4556   -9.9937 C   0  0  0  0  0  0  0  0  0  0  0  0
   15.4334   39.5077   -7.5175 C   0  0  0  0  0  0  0  0  0  0  0  0
   16.6984   40.5401   -9.8722 C   0  0  1  0  0  0  0  0  0  0  0  0
   14.8609   39.1053   -9.9665 F   0  0  0  0  0  0  0  0  0  0  0  0
   16.2466   39.1222  -10.1764 C   0  0  2  0  0  0  0  0  0  0  0  0
   16.4966   41.4673  -11.0192 C   0  0  0  0  0  0  0  0  0  0  0  0
   15.7663   41.0364   -8.3930 S   0  0  0  0  0  0  0  0  0  0  0  0
   14.5350   39.5246   -6.6037 N   0  0  0  0  0  0  0  0  0  0  0  0
   16.7515   36.7814   -9.6131 C   0  0  0  0  0  0  0  0  0  0  0  0
   18.8053   38.1569  -11.2493 F   0  0  0  0  0  0  0  0  0  0  0  0
   20.5263   39.4007   -6.0653 N   0  0  0  0  0  0  0  0  0  0  0  0
   21.3433   43.0007   -0.7325 O   0  0  0  0  0  0  0  0  0  0  0  0
   19.8992   42.2481    0.8973 F   0  0  0  0  0  0  0  0  0  0  0  0
   14.5409   38.8693   -5.8043 H   0  0  0  0  0  0  0  0  0  0  0  0
  2  1  1  0
  1 12  1  0
  1 21  1  0
  1 25  1  6
  3  2  2  0
  2 17  1  0
  4  3  1  0
  4 15  2  0
 27  4  1  0
  5  6  1  0
  5 10  2  0
  5 27  1  0
  6  8  1  0
  6 14  2  0
  8  7  2  0
  7 11  1  0
 11  9  2  0
  9 14  1  0
 11 28  1  0
 12 18  1  0
 28 13  1  0
 13 29  1  0
 15 16  1  0
 16 17  2  0
 17 26  1  0
 18 23  1  0
 18 24  2  0
 21 19  1  0
 19 22  1  6
 19 23  1  0
 21 20  1  1
 24 30  1  0
M  END
$$$$
