
     RDKit          3D

 30 32  0  0  0  0  0  0  0  0999 V2000
   17.0933   38.3243   -9.0330 C   0  0  1  0  0  0  0  0  0  0  0  0
   18.5099   38.8025   -8.8689 C   0  0  0  0  0  0  0  0  0  0  0  0
   18.8236   39.6929   -7.8639 C   0  0  0  0  0  0  0  0  0  0  0  0
   20.0958   40.1862   -7.6340 C   0  0  0  0  0  0  0  0  0  0  0  0
   21.1737   40.7672   -5.4599 C   0  0  0  0  0  0  0  0  0  0  0  0
   20.9897   41.3524   -4.1395 C   0  0  0  0  0  0  0  0  0  0  0  0
   19.6966   42.5846   -2.5984 C   0  0  0  0  0  0  0  0  0  0  0  0
   19.8834   42.0376   -3.8119 N   0  0  0  0  0  0  0  0  0  0  0  0
   21.7832   41.7550   -1.9736 N   0  0  0  0  0  0  0  0  0  0  0  0
   22.0768   39.9281   -5.6574 O   0  0  0  0  0  0  0  0  0  0  0  0
   20.6843   42.4447   -1.6236 C   0  0  0  0  0  0  0  0  0  0  0  0
   16.3746   38.5997   -7.7881 N   0  0  0  0  0  0  0  0  0  0  0  0
   21.3628   42.5226    0.6706 C   0  0  0  0  0  0  0  0  0  0  0  0
   21.9676   41.2100   -3.1850 C   0  0  0  0  0  0  0  0  0  0  0  0
   21.0709   39.7271   -8.4905 C   0  0  0  0  0  0  0  0  0  0  0  0
   20.7869   38.8389   -9.5015 C   0  0  0  0  0  0  0  0  0  0  0  0
   19.5092   38.3647   -9.7063 C   0  0  0  0  0  0  0  0  0  0  0  0
   15.5018   39.6904   -7.6137 C   0  0  0  0  0  0  0  0  0  0  0  0
   16.6821   40.4669  -10.1066 C   0  0  1  0  0  0  0  0  0  0  0  0
   15.0194   38.8363   -9.9643 F   0  0  0  0  0  0  0  0  0  0  0  0
   16.3977   38.9765  -10.1764 C   0  0  2  0  0  0  0  0  0  0  0  0
   16.3967   41.1682  -11.3883 C   0  0  0  0  0  0  0  0  0  0  0  0
   15.6754   41.0859   -8.7258 S   0  0  0  0  0  0  0  0  0  0  0  0
   14.5918   39.7520   -6.7134 N   0  0  0  0  0  0  0  0  0  0  0  0
   17.1529   36.8297   -9.2423 C   0  0  0  0  0  0  0  0  0  0  0  0
   19.2445   37.4917  -10.7080 F   0  0  0  0  0  0  0  0  0  0  0  0
   20.3567   41.1071   -6.5758 N   0  0  0  0  0  0  0  0  0  0  0  0
   20.5139   43.0040   -0.3546 O   0  0  0  0  0  0  0  0  0  0  0  0
   22.6927   42.8536    0.3791 F   0  0  0  0  0  0  0  0  0  0  0  0
   14.7480   39.4379   -5.7409 H   0  0  0  0  0  0  0  0  0  0  0  0
  2  1  1  0
  1 12  1  0
  1 21  1  0
  1 25  1  6
  3  2  2  0
  2 17  1  0
  4  3  1  0
  4 15  2  0
 27  4  1  0
  5  6  1  0
  5 10  2  0
  5 27  1  0
  6  8  1  0
  6 14  2  0
  8  7  2  0
  7 11  1  0
 11  9  2  0
  9 14  1  0
 11 28  1  0
 12 18  1  0
 28 13  1  0
 13 29  1  0
 15 16  1  0
 16 17  2  0
 17 26  1  0
 18 23  1  0
 18 24  2  0
 21 19  1  0
 19 22  1  6
 19 23  1  0
 21 20  1  1
 24 30  1  0
M  END
$$$$
