
     RDKit          3D

 30 32  0  0  0  0  0  0  0  0999 V2000
   16.8223   38.0332   -8.9055 C   0  0  1  0  0  0  0  0  0  0  0  0
   18.1994   38.5912   -8.6718 C   0  0  0  0  0  0  0  0  0  0  0  0
   18.4340   39.4143   -7.5907 C   0  0  0  0  0  0  0  0  0  0  0  0
   19.6649   39.9722   -7.2934 C   0  0  0  0  0  0  0  0  0  0  0  0
   21.0322   40.7908   -5.3734 C   0  0  0  0  0  0  0  0  0  0  0  0
   21.1067   41.3567   -4.0340 C   0  0  0  0  0  0  0  0  0  0  0  0
   20.0945   41.9085   -1.9756 C   0  0  0  0  0  0  0  0  0  0  0  0
   20.0443   41.3902   -3.2148 N   0  0  0  0  0  0  0  0  0  0  0  0
   22.3447   42.3952   -2.3395 N   0  0  0  0  0  0  0  0  0  0  0  0
   22.0344   40.2515   -5.8866 O   0  0  0  0  0  0  0  0  0  0  0  0
   21.2944   42.4394   -1.5024 C   0  0  0  0  0  0  0  0  0  0  0  0
   16.0282   38.2648   -7.6980 N   0  0  0  0  0  0  0  0  0  0  0  0
   20.5019   42.4396    0.7563 C   0  0  0  0  0  0  0  0  0  0  0  0
   22.2924   41.8776   -3.5755 C   0  0  0  0  0  0  0  0  0  0  0  0
   20.6833   39.6531   -8.1630 C   0  0  0  0  0  0  0  0  0  0  0  0
   20.4782   38.8348   -9.2493 C   0  0  0  0  0  0  0  0  0  0  0  0
   19.2402   38.2935   -9.5201 C   0  0  0  0  0  0  0  0  0  0  0  0
   15.0869   39.3034   -7.5682 C   0  0  0  0  0  0  0  0  0  0  0  0
   16.3430   40.1507  -10.0003 C   0  0  1  0  0  0  0  0  0  0  0  0
   14.7712   38.4275   -9.9390 F   0  0  0  0  0  0  0  0  0  0  0  0
   16.1481   38.6466  -10.0826 C   0  0  2  0  0  0  0  0  0  0  0  0
   16.0818   40.8369  -11.2953 C   0  0  0  0  0  0  0  0  0  0  0  0
   15.2353   40.7086   -8.6717 S   0  0  0  0  0  0  0  0  0  0  0  0
   14.1314   39.3113   -6.7141 N   0  0  0  0  0  0  0  0  0  0  0  0
   16.9776   36.5448   -9.1100 C   0  0  0  0  0  0  0  0  0  0  0  0
   19.0531   37.4908  -10.5954 F   0  0  0  0  0  0  0  0  0  0  0  0
   19.8440   40.8175   -6.1580 N   0  0  0  0  0  0  0  0  0  0  0  0
   21.3724   42.9839   -0.2181 O   0  0  0  0  0  0  0  0  0  0  0  0
   20.9667   41.1798    1.1561 F   0  0  0  0  0  0  0  0  0  0  0  0
   14.2379   39.7009   -5.7625 H   0  0  0  0  0  0  0  0  0  0  0  0
  2  1  1  0
  1 12  1  0
  1 21  1  0
  1 25  1  6
  3  2  2  0
  2 17  1  0
  4  3  1  0
  4 15  2  0
 27  4  1  0
  5  6  1  0
  5 10  2  0
  5 27  1  0
  6  8  1  0
  6 14  2  0
  8  7  2  0
  7 11  1  0
 11  9  2  0
  9 14  1  0
 11 28  1  0
 12 18  1  0
 28 13  1  0
 13 29  1  0
 15 16  1  0
 16 17  2  0
 17 26  1  0
 18 23  1  0
 18 24  2  0
 21 19  1  0
 19 22  1  6
 19 23  1  0
 21 20  1  1
 24 30  1  0
M  END
$$$$
