
     RDKit          3D

 30 32  0  0  0  0  0  0  0  0999 V2000
   17.0771   38.4775   -9.0586 C   0  0  1  0  0  0  0  0  0  0  0  0
   18.5090   38.8057   -8.7355 C   0  0  0  0  0  0  0  0  0  0  0  0
   18.8847   39.0334   -7.4285 C   0  0  0  0  0  0  0  0  0  0  0  0
   20.1755   39.3389   -7.0346 C   0  0  0  0  0  0  0  0  0  0  0  0
   21.3091   40.6606   -5.2474 C   0  0  0  0  0  0  0  0  0  0  0  0
   21.1724   41.2908   -3.9420 C   0  0  0  0  0  0  0  0  0  0  0  0
   20.0673   41.5077   -1.8689 C   0  0  0  0  0  0  0  0  0  0  0  0
   20.2086   40.9371   -3.0778 N   0  0  0  0  0  0  0  0  0  0  0  0
   21.9080   42.8510   -2.3586 N   0  0  0  0  0  0  0  0  0  0  0  0
   22.1609   41.0743   -6.0611 O   0  0  0  0  0  0  0  0  0  0  0  0
   20.9512   42.5131   -1.4776 C   0  0  0  0  0  0  0  0  0  0  0  0
   16.3029   38.5566   -7.8191 N   0  0  0  0  0  0  0  0  0  0  0  0
   20.8168   44.5370   -0.2066 C   0  0  0  0  0  0  0  0  0  0  0  0
   22.0472   42.2804   -3.5642 C   0  0  0  0  0  0  0  0  0  0  0  0
   21.1023   39.4071   -8.0503 C   0  0  0  0  0  0  0  0  0  0  0  0
   20.7560   39.1847   -9.3626 C   0  0  0  0  0  0  0  0  0  0  0  0
   19.4612   38.8821   -9.7249 C   0  0  0  0  0  0  0  0  0  0  0  0
   15.4934   39.6545   -7.4713 C   0  0  0  0  0  0  0  0  0  0  0  0
   16.8719   40.8140   -9.6997 C   0  0  1  0  0  0  0  0  0  0  0  0
   15.1016   39.3175   -9.9653 F   0  0  0  0  0  0  0  0  0  0  0  0
   16.4965   39.3921  -10.0798 C   0  0  2  0  0  0  0  0  0  0  0  0
   16.7114   41.7728  -10.8271 C   0  0  0  0  0  0  0  0  0  0  0  0
   15.8246   41.2240   -8.2720 S   0  0  0  0  0  0  0  0  0  0  0  0
   14.5359   39.6067   -6.6207 N   0  0  0  0  0  0  0  0  0  0  0  0
   17.0527   37.0529   -9.5599 C   0  0  0  0  0  0  0  0  0  0  0  0
   19.1349   38.6678  -11.0223 F   0  0  0  0  0  0  0  0  0  0  0  0
   20.5016   39.5640   -5.6639 N   0  0  0  0  0  0  0  0  0  0  0  0
   20.8254   43.1218   -0.2263 O   0  0  0  0  0  0  0  0  0  0  0  0
   21.0265   44.9940    1.1012 F   0  0  0  0  0  0  0  0  0  0  0  0
   14.6584   39.2343   -5.6642 H   0  0  0  0  0  0  0  0  0  0  0  0
  2  1  1  0
  1 12  1  0
  1 21  1  0
  1 25  1  6
  3  2  2  0
  2 17  1  0
  4  3  1  0
  4 15  2  0
 27  4  1  0
  5  6  1  0
  5 10  2  0
  5 27  1  0
  6  8  1  0
  6 14  2  0
  8  7  2  0
  7 11  1  0
 11  9  2  0
  9 14  1  0
 11 28  1  0
 12 18  1  0
 28 13  1  0
 13 29  1  0
 15 16  1  0
 16 17  2  0
 17 26  1  0
 18 23  1  0
 18 24  2  0
 21 19  1  0
 19 22  1  6
 19 23  1  0
 21 20  1  1
 24 30  1  0
M  END
$$$$
