
     RDKit          3D

 30 32  0  0  0  0  0  0  0  0999 V2000
   16.4927   38.1830   -9.2425 C   0  0  1  0  0  0  0  0  0  0  0  0
   17.9057   38.5498   -8.8803 C   0  0  0  0  0  0  0  0  0  0  0  0
   18.2244   38.8542   -7.5737 C   0  0  0  0  0  0  0  0  0  0  0  0
   19.4939   39.2001   -7.1455 C   0  0  0  0  0  0  0  0  0  0  0  0
   20.8026   40.3936   -5.3879 C   0  0  0  0  0  0  0  0  0  0  0  0
   20.8543   41.0232   -4.0761 C   0  0  0  0  0  0  0  0  0  0  0  0
   19.9814   41.3280   -1.9056 C   0  0  0  0  0  0  0  0  0  0  0  0
   19.9494   40.7565   -3.1218 N   0  0  0  0  0  0  0  0  0  0  0  0
   21.8866   42.4928   -2.5737 N   0  0  0  0  0  0  0  0  0  0  0  0
   21.6941   40.6207   -6.2318 O   0  0  0  0  0  0  0  0  0  0  0  0
   20.9917   42.2409   -1.6033 C   0  0  0  0  0  0  0  0  0  0  0  0
   15.6832   38.2391   -8.0244 N   0  0  0  0  0  0  0  0  0  0  0  0
   20.2353   43.9928   -0.1582 C   0  0  0  0  0  0  0  0  0  0  0  0
   21.8527   41.9213   -3.7864 C   0  0  0  0  0  0  0  0  0  0  0  0
   20.4608   39.2266   -8.1250 C   0  0  0  0  0  0  0  0  0  0  0  0
   20.1717   38.9277   -9.4360 C   0  0  0  0  0  0  0  0  0  0  0  0
   18.8969   38.5864   -9.8331 C   0  0  0  0  0  0  0  0  0  0  0  0
   14.8348   39.3139   -7.6979 C   0  0  0  0  0  0  0  0  0  0  0  0
   16.2410   40.5139   -9.8873 C   0  0  1  0  0  0  0  0  0  0  0  0
   14.5203   38.9699  -10.2020 F   0  0  0  0  0  0  0  0  0  0  0  0
   15.9152   39.0828  -10.2784 C   0  0  2  0  0  0  0  0  0  0  0  0
   16.0849   41.4696  -11.0180 C   0  0  0  0  0  0  0  0  0  0  0  0
   15.1445   40.8931   -8.4883 S   0  0  0  0  0  0  0  0  0  0  0  0
   13.8563   39.2388   -6.8738 N   0  0  0  0  0  0  0  0  0  0  0  0
   16.5210   36.7590   -9.7451 C   0  0  0  0  0  0  0  0  0  0  0  0
   18.6271   38.2966  -11.1288 F   0  0  0  0  0  0  0  0  0  0  0  0
   19.7602   39.5047   -5.7772 N   0  0  0  0  0  0  0  0  0  0  0  0
   21.0469   42.8486   -0.3465 O   0  0  0  0  0  0  0  0  0  0  0  0
   18.8871   43.6145   -0.1087 F   0  0  0  0  0  0  0  0  0  0  0  0
   13.7125   39.9263   -6.1153 H   0  0  0  0  0  0  0  0  0  0  0  0
  2  1  1  0
  1 12  1  0
  1 21  1  0
  1 25  1  6
  3  2  2  0
  2 17  1  0
  4  3  1  0
  4 15  2  0
 27  4  1  0
  5  6  1  0
  5 10  2  0
  5 27  1  0
  6  8  1  0
  6 14  2  0
  8  7  2  0
  7 11  1  0
 11  9  2  0
  9 14  1  0
 11 28  1  0
 12 18  1  0
 28 13  1  0
 13 29  1  0
 15 16  1  0
 16 17  2  0
 17 26  1  0
 18 23  1  0
 18 24  2  0
 21 19  1  0
 19 22  1  6
 19 23  1  0
 21 20  1  1
 24 30  1  0
M  END
$$$$
