
     RDKit          3D

 30 32  0  0  0  0  0  0  0  0999 V2000
   16.8823   38.4140   -8.8109 C   0  0  1  0  0  0  0  0  0  0  0  0
   18.3252   38.7156   -8.5117 C   0  0  0  0  0  0  0  0  0  0  0  0
   18.7117   39.0213   -7.2239 C   0  0  0  0  0  0  0  0  0  0  0  0
   20.0131   39.3099   -6.8526 C   0  0  0  0  0  0  0  0  0  0  0  0
   21.0529   40.8063   -5.1480 C   0  0  0  0  0  0  0  0  0  0  0  0
   20.8444   41.5013   -3.8857 C   0  0  0  0  0  0  0  0  0  0  0  0
   19.5971   41.8552   -1.9147 C   0  0  0  0  0  0  0  0  0  0  0  0
   19.8054   41.2240   -3.0831 N   0  0  0  0  0  0  0  0  0  0  0  0
   21.5218   43.1057   -2.3206 N   0  0  0  0  0  0  0  0  0  0  0  0
   21.8757   41.2425   -5.9795 O   0  0  0  0  0  0  0  0  0  0  0  0
   20.4890   42.8447   -1.5013 C   0  0  0  0  0  0  0  0  0  0  0  0
   16.1198   38.5711   -7.5715 N   0  0  0  0  0  0  0  0  0  0  0  0
   21.2735   43.3135    0.7110 C   0  0  0  0  0  0  0  0  0  0  0  0
   21.7276   42.4747   -3.4859 C   0  0  0  0  0  0  0  0  0  0  0  0
   20.9390   39.2758   -7.8708 C   0  0  0  0  0  0  0  0  0  0  0  0
   20.5821   38.9742   -9.1643 C   0  0  0  0  0  0  0  0  0  0  0  0
   19.2770   38.6908   -9.5043 C   0  0  0  0  0  0  0  0  0  0  0  0
   15.3441   39.7063   -7.2690 C   0  0  0  0  0  0  0  0  0  0  0  0
   16.7382   40.7239   -9.5563 C   0  0  1  0  0  0  0  0  0  0  0  0
   14.9246   39.2680   -9.7427 F   0  0  0  0  0  0  0  0  0  0  0  0
   16.3201   39.2975   -9.8690 C   0  0  2  0  0  0  0  0  0  0  0  0
   16.5964   41.6349  -10.7252 C   0  0  0  0  0  0  0  0  0  0  0  0
   15.7135   41.2279   -8.1424 S   0  0  0  0  0  0  0  0  0  0  0  0
   14.3920   39.7244   -6.4113 N   0  0  0  0  0  0  0  0  0  0  0  0
   16.8141   36.9694   -9.2466 C   0  0  0  0  0  0  0  0  0  0  0  0
   18.9403   38.3975  -10.7834 F   0  0  0  0  0  0  0  0  0  0  0  0
   20.3500   39.6191   -5.5011 N   0  0  0  0  0  0  0  0  0  0  0  0
   20.2946   43.5154   -0.2912 O   0  0  0  0  0  0  0  0  0  0  0  0
   22.3173   42.5291    0.2027 F   0  0  0  0  0  0  0  0  0  0  0  0
   14.5070   40.1104   -5.4592 H   0  0  0  0  0  0  0  0  0  0  0  0
  2  1  1  0
  1 12  1  0
  1 21  1  0
  1 25  1  6
  3  2  2  0
  2 17  1  0
  4  3  1  0
  4 15  2  0
 27  4  1  0
  5  6  1  0
  5 10  2  0
  5 27  1  0
  6  8  1  0
  6 14  2  0
  8  7  2  0
  7 11  1  0
 11  9  2  0
  9 14  1  0
 11 28  1  0
 12 18  1  0
 28 13  1  0
 13 29  1  0
 15 16  1  0
 16 17  2  0
 17 26  1  0
 18 23  1  0
 18 24  2  0
 21 19  1  0
 19 22  1  6
 19 23  1  0
 21 20  1  1
 24 30  1  0
M  END
$$$$
