
     RDKit          3D

 30 32  0  0  0  0  0  0  0  0999 V2000
   16.8415   38.1981   -8.8816 C   0  0  1  0  0  0  0  0  0  0  0  0
   18.2249   38.7437   -8.6561 C   0  0  0  0  0  0  0  0  0  0  0  0
   18.4596   39.6146   -7.6131 C   0  0  0  0  0  0  0  0  0  0  0  0
   19.6960   40.1656   -7.3260 C   0  0  0  0  0  0  0  0  0  0  0  0
   20.9066   40.8832   -5.2655 C   0  0  0  0  0  0  0  0  0  0  0  0
   20.7755   41.3132   -3.8807 C   0  0  0  0  0  0  0  0  0  0  0  0
   19.5652   41.3899   -1.8571 C   0  0  0  0  0  0  0  0  0  0  0  0
   19.7032   41.0017   -3.1365 N   0  0  0  0  0  0  0  0  0  0  0  0
   21.6341   42.4506   -2.0228 N   0  0  0  0  0  0  0  0  0  0  0  0
   21.9551   40.3302   -5.6575 O   0  0  0  0  0  0  0  0  0  0  0  0
   20.5699   42.1505   -1.2591 C   0  0  0  0  0  0  0  0  0  0  0  0
   16.0441   38.4755   -7.6861 N   0  0  0  0  0  0  0  0  0  0  0  0
   21.4216   43.4831    0.5377 C   0  0  0  0  0  0  0  0  0  0  0  0
   21.7697   42.0622   -3.2992 C   0  0  0  0  0  0  0  0  0  0  0  0
   20.7201   39.7875   -8.1647 C   0  0  0  0  0  0  0  0  0  0  0  0
   20.5151   38.9206   -9.2127 C   0  0  0  0  0  0  0  0  0  0  0  0
   19.2715   38.3876   -9.4743 C   0  0  0  0  0  0  0  0  0  0  0  0
   15.1166   39.5303   -7.5920 C   0  0  0  0  0  0  0  0  0  0  0  0
   16.3978   40.2893  -10.0401 C   0  0  1  0  0  0  0  0  0  0  0  0
   14.8019   38.5903   -9.9383 F   0  0  0  0  0  0  0  0  0  0  0  0
   16.1824   38.7863  -10.0800 C   0  0  2  0  0  0  0  0  0  0  0  0
   16.1533   40.9412  -11.3560 C   0  0  0  0  0  0  0  0  0  0  0  0
   15.2906   40.9007   -8.7349 S   0  0  0  0  0  0  0  0  0  0  0  0
   14.1566   39.5761   -6.7442 N   0  0  0  0  0  0  0  0  0  0  0  0
   16.9773   36.7024   -9.0421 C   0  0  0  0  0  0  0  0  0  0  0  0
   19.0847   37.5365  -10.5118 F   0  0  0  0  0  0  0  0  0  0  0  0
   19.8748   41.0623   -6.2306 N   0  0  0  0  0  0  0  0  0  0  0  0
   20.4501   42.5664    0.0694 O   0  0  0  0  0  0  0  0  0  0  0  0
   21.0700   44.7837    0.1531 F   0  0  0  0  0  0  0  0  0  0  0  0
   14.3094   39.7637   -5.7391 H   0  0  0  0  0  0  0  0  0  0  0  0
  2  1  1  0
  1 12  1  0
  1 21  1  0
  1 25  1  6
  3  2  2  0
  2 17  1  0
  4  3  1  0
  4 15  2  0
 27  4  1  0
  5  6  1  0
  5 10  2  0
  5 27  1  0
  6  8  1  0
  6 14  2  0
  8  7  2  0
  7 11  1  0
 11  9  2  0
  9 14  1  0
 11 28  1  0
 12 18  1  0
 28 13  1  0
 13 29  1  0
 15 16  1  0
 16 17  2  0
 17 26  1  0
 18 23  1  0
 18 24  2  0
 21 19  1  0
 19 22  1  6
 19 23  1  0
 21 20  1  1
 24 30  1  0
M  END
$$$$
