
     RDKit          3D

 30 32  0  0  0  0  0  0  0  0999 V2000
   17.0160   38.1490   -8.9202 C   0  0  1  0  0  0  0  0  0  0  0  0
   18.4107   38.6991   -8.7986 C   0  0  0  0  0  0  0  0  0  0  0  0
   18.7093   39.6033   -7.8013 C   0  0  0  0  0  0  0  0  0  0  0  0
   19.9611   40.1610   -7.6095 C   0  0  0  0  0  0  0  0  0  0  0  0
   21.1021   40.8079   -5.4869 C   0  0  0  0  0  0  0  0  0  0  0  0
   20.9736   41.4121   -4.1684 C   0  0  0  0  0  0  0  0  0  0  0  0
   19.7177   41.8470   -2.2192 C   0  0  0  0  0  0  0  0  0  0  0  0
   19.8540   41.2962   -3.4377 N   0  0  0  0  0  0  0  0  0  0  0  0
   21.8859   42.6777   -2.4224 N   0  0  0  0  0  0  0  0  0  0  0  0
   22.0250   40.0011   -5.7234 O   0  0  0  0  0  0  0  0  0  0  0  0
   20.7750   42.5747   -1.6734 C   0  0  0  0  0  0  0  0  0  0  0  0
   16.2984   38.4548   -7.6818 N   0  0  0  0  0  0  0  0  0  0  0  0
   21.0330   42.3559    0.6963 C   0  0  0  0  0  0  0  0  0  0  0  0
   22.0198   42.1273   -3.6380 C   0  0  0  0  0  0  0  0  0  0  0  0
   20.9314   39.7535   -8.4970 C   0  0  0  0  0  0  0  0  0  0  0  0
   20.6621   38.8531   -9.5012 C   0  0  0  0  0  0  0  0  0  0  0  0
   19.4047   38.3142   -9.6677 C   0  0  0  0  0  0  0  0  0  0  0  0
   15.3780   39.5120   -7.5519 C   0  0  0  0  0  0  0  0  0  0  0  0
   16.4952   40.2127  -10.0958 C   0  0  1  0  0  0  0  0  0  0  0  0
   14.9112   38.5174   -9.8498 F   0  0  0  0  0  0  0  0  0  0  0  0
   16.2793   38.7093  -10.0862 C   0  0  2  0  0  0  0  0  0  0  0  0
   16.1643   40.8336  -11.4077 C   0  0  0  0  0  0  0  0  0  0  0  0
   15.4753   40.8551   -8.7355 S   0  0  0  0  0  0  0  0  0  0  0  0
   14.4755   39.5782   -6.6443 N   0  0  0  0  0  0  0  0  0  0  0  0
   17.1426   36.6499   -9.0541 C   0  0  0  0  0  0  0  0  0  0  0  0
   19.1542   37.4299  -10.6631 F   0  0  0  0  0  0  0  0  0  0  0  0
   20.2071   41.0928   -6.5573 N   0  0  0  0  0  0  0  0  0  0  0  0
   20.6581   43.1570   -0.4087 O   0  0  0  0  0  0  0  0  0  0  0  0
   19.8874   41.9098    1.3685 F   0  0  0  0  0  0  0  0  0  0  0  0
   14.5782   40.1630   -5.7981 H   0  0  0  0  0  0  0  0  0  0  0  0
  2  1  1  0
  1 12  1  0
  1 21  1  0
  1 25  1  6
  3  2  2  0
  2 17  1  0
  4  3  1  0
  4 15  2  0
 27  4  1  0
  5  6  1  0
  5 10  2  0
  5 27  1  0
  6  8  1  0
  6 14  2  0
  8  7  2  0
  7 11  1  0
 11  9  2  0
  9 14  1  0
 11 28  1  0
 12 18  1  0
 28 13  1  0
 13 29  1  0
 15 16  1  0
 16 17  2  0
 17 26  1  0
 18 23  1  0
 18 24  2  0
 21 19  1  0
 19 22  1  6
 19 23  1  0
 21 20  1  1
 24 30  1  0
M  END
$$$$
