
     RDKit          3D

 49 56  0  0  0  0  0  0  0  0999 V2000
   86.1025  216.8702   70.6878 C   0  0  0  0  0  0  0  0  0  0  0  0
   92.3676  215.8069   67.4455 C   0  0  0  0  0  0  0  0  0  0  0  0
   85.5036  216.0226   69.7811 C   0  0  0  0  0  0  0  0  0  0  0  0
   91.8039  214.9549   66.5213 C   0  0  0  0  0  0  0  0  0  0  0  0
   82.0817  200.7881   72.5122 C   0  0  0  0  0  0  0  0  0  0  0  0
   81.7525  208.3223   71.2457 C   0  0  0  0  0  0  0  0  0  0  0  0
   81.4374  201.8452   71.8864 C   0  0  0  0  0  0  0  0  0  0  0  0
   81.3773  199.9769   73.3795 C   0  0  0  0  0  0  0  0  0  0  0  0
   81.7455  209.1047   70.0882 C   0  0  0  0  0  0  0  0  0  0  0  0
   87.4522  217.0895   70.5644 C   0  0  0  0  0  0  0  0  0  0  0  0
   91.6271  216.4017   68.4332 C   0  0  0  0  0  0  0  0  0  0  0  0
   86.2124  215.3940   68.7627 C   0  0  0  0  0  0  0  0  0  0  0  0
   90.4501  214.6981   66.5969 C   0  0  0  0  0  0  0  0  0  0  0  0
   80.5023  207.3251   69.0632 C   0  0  0  0  0  0  0  0  0  0  0  0
   83.7713  212.8474   66.3767 C   0  0  0  0  0  0  0  0  0  0  0  0
   75.6685  200.7432   72.7060 C   0  0  0  0  0  0  0  0  0  0  0  0
   75.4770  200.7763   74.1964 C   0  0  0  0  0  0  0  0  0  0  0  0
   86.5104  214.5811   66.1587 C   0  0  0  0  0  0  0  0  0  0  0  0
   77.0368  201.1938   72.2883 C   0  0  0  0  0  0  0  0  0  0  0  0
   76.5214  199.9803   74.9353 C   0  0  0  0  0  0  0  0  0  0  0  0
   85.9547  213.4757   65.3016 C   0  0  0  0  0  0  0  0  0  0  0  0
   81.0391  209.3606   67.7162 C   0  0  0  0  0  0  0  0  0  0  0  0
   81.8961  211.6586   67.7203 C   0  0  0  0  0  0  0  0  0  0  0  0
   79.9353  204.4843   71.5179 C   0  0  0  0  0  0  0  0  0  0  0  0
   79.0573  199.5287   74.4807 C   0  0  0  0  0  0  0  0  0  0  0  0
   81.1004  208.5584   69.0098 C   0  0  0  0  0  0  0  0  0  0  0  0
   83.3038  211.8419   67.1759 C   0  0  0  0  0  0  0  0  0  0  0  0
   80.5248  206.5619   70.2384 C   0  0  0  0  0  0  0  0  0  0  0  0
   80.1046  202.0895   72.1253 C   0  0  0  0  0  0  0  0  0  0  0  0
   80.0209  200.2180   73.6292 C   0  0  0  0  0  0  0  0  0  0  0  0
   88.3353  215.0687   67.7074 C   0  0  0  0  0  0  0  0  0  0  0  0
   79.4085  201.2760   72.9930 C   0  0  0  0  0  0  0  0  0  0  0  0
   88.2160  216.4879   69.5646 C   0  0  0  0  0  0  0  0  0  0  0  0
   90.2746  216.1538   68.5216 C   0  0  0  0  0  0  0  0  0  0  0  0
   87.5618  215.6487   68.6842 C   0  0  0  0  0  0  0  0  0  0  0  0
   89.7053  215.2980   67.5922 C   0  0  0  0  0  0  0  0  0  0  0  0
   77.9962  201.3025   73.4417 C   0  0  2  0  0  0  0  0  0  0  0  0
   81.1641  207.1149   71.2924 N   0  0  0  0  0  0  0  0  0  0  0  0
   84.3455  211.0383   67.3928 N   0  0  0  0  0  0  0  0  0  0  0  0
   85.4015  211.5244   66.7578 N   0  0  0  0  0  0  0  0  0  0  0  0
   89.5324  216.7291   69.4816 N   0  0  0  0  0  0  0  0  0  0  0  0
   87.7859  214.1915   66.7307 N   0  0  0  0  0  0  0  0  0  0  0  0
   79.9223  205.2868   70.3471 N   0  0  0  0  0  0  0  0  0  0  0  0
   79.3956  203.1561   71.5053 N   0  0  0  0  0  0  0  0  0  0  0  0
   77.8129  200.1997   74.3529 N   0  0  0  0  0  0  0  0  0  0  0  0
   85.0804  212.6574   66.1099 N   0  0  0  0  0  0  0  0  0  0  0  0
   80.4357  204.9806   72.5581 O   0  0  0  0  0  0  0  0  0  0  0  0
   79.2799  198.5171   75.2035 O   0  0  0  0  0  0  0  0  0  0  0  0
   81.5434  210.4813   67.7439 O   0  0  0  0  0  0  0  0  0  0  0  0
  3  1  2  0
  1 10  1  0
  4  2  1  0
  2 11  2  0
 12  3  1  0
 13  4  2  0
  7  5  2  0
  5  8  1  0
  9  6  2  0
  6 38  1  0
 29  7  1  0
 30  8  2  0
 26  9  1  0
 10 33  2  0
 11 34  1  0
 35 12  2  0
 36 13  1  0
 26 14  2  0
 14 28  1  0
 15 27  2  0
 46 15  1  0
 17 16  1  0
 16 19  1  0
 20 17  1  0
 18 21  1  0
 42 18  1  0
 37 19  1  6
 45 20  1  0
 21 46  1  0
 22 26  1  0
 49 22  1  0
 27 23  1  0
 23 49  1  0
 43 24  1  0
 24 44  1  0
 24 47  2  0
 30 25  1  0
 25 45  1  0
 25 48  2  0
 27 39  1  0
 28 38  2  0
 28 43  1  0
 29 32  2  0
 44 29  1  0
 32 30  1  0
 31 35  1  0
 31 36  2  0
 31 42  1  0
 32 37  1  0
 33 35  1  0
 33 41  1  0
 34 36  1  0
 34 41  2  0
 37 45  1  0
 39 40  2  0
 40 46  1  0
M  END
$$$$
