
     RDKit          3D

 49 56  0  0  0  0  0  0  0  0999 V2000
   93.1179  215.1753   66.5799 C   0  0  0  0  0  0  0  0  0  0  0  0
   88.5956  210.8221   69.9702 C   0  0  0  0  0  0  0  0  0  0  0  0
   92.2839  215.1667   65.4828 C   0  0  0  0  0  0  0  0  0  0  0  0
   87.7379  210.7888   68.8927 C   0  0  0  0  0  0  0  0  0  0  0  0
   81.4354  203.9380   72.0421 C   0  0  0  0  0  0  0  0  0  0  0  0
   86.0447  210.5121   71.9136 C   0  0  0  0  0  0  0  0  0  0  0  0
   81.9360  205.1896   71.7147 C   0  0  0  0  0  0  0  0  0  0  0  0
   80.4187  203.3904   71.2851 C   0  0  0  0  0  0  0  0  0  0  0  0
   85.9478  211.9058   71.8952 C   0  0  0  0  0  0  0  0  0  0  0  0
   92.7418  214.4383   67.6756 C   0  0  0  0  0  0  0  0  0  0  0  0
   89.7571  211.5490   69.9532 C   0  0  0  0  0  0  0  0  0  0  0  0
   91.0942  214.4467   65.4523 C   0  0  0  0  0  0  0  0  0  0  0  0
   88.0655  211.5108   67.7631 C   0  0  0  0  0  0  0  0  0  0  0  0
   83.6109  211.5958   71.4410 C   0  0  0  0  0  0  0  0  0  0  0  0
   84.8164  213.6600   67.3455 C   0  0  0  0  0  0  0  0  0  0  0  0
   79.8841  206.2086   66.2450 C   0  0  0  0  0  0  0  0  0  0  0  0
   78.3883  206.2264   66.3908 C   0  0  0  0  0  0  0  0  0  0  0  0
   87.4710  212.1880   65.7555 C   0  0  0  0  0  0  0  0  0  0  0  0
   80.5936  206.1554   67.5654 C   0  0  0  0  0  0  0  0  0  0  0  0
   77.8686  205.0665   67.2001 C   0  0  0  0  0  0  0  0  0  0  0  0
   86.2792  213.0353   65.3992 C   0  0  0  0  0  0  0  0  0  0  0  0
   84.5105  213.9197   71.6320 C   0  0  0  0  0  0  0  0  0  0  0  0
   83.8026  214.7890   69.4507 C   0  0  0  0  0  0  0  0  0  0  0  0
   82.7659  207.9087   71.1413 C   0  0  0  0  0  0  0  0  0  0  0  0
   78.8397  203.7528   69.2428 C   0  0  0  0  0  0  0  0  0  0  0  0
   84.6961  212.4078   71.6525 C   0  0  0  0  0  0  0  0  0  0  0  0
   84.8263  214.5935   68.3438 C   0  0  0  0  0  0  0  0  0  0  0  0
   83.7376  210.2003   71.4654 C   0  0  0  0  0  0  0  0  0  0  0  0
   81.4258  205.8864   70.6437 C   0  0  0  0  0  0  0  0  0  0  0  0
   79.8929  204.0923   70.1937 C   0  0  0  0  0  0  0  0  0  0  0  0
   89.6080  212.9861   66.6288 C   0  0  0  0  0  0  0  0  0  0  0  0
   80.4104  205.3337   69.8934 C   0  0  0  0  0  0  0  0  0  0  0  0
   91.5611  213.6968   67.7048 C   0  0  0  0  0  0  0  0  0  0  0  0
   90.0966  212.2753   68.8327 C   0  0  0  0  0  0  0  0  0  0  0  0
   90.7654  213.7254   66.5764 C   0  0  0  0  0  0  0  0  0  0  0  0
   89.2358  212.2423   67.7472 C   0  0  0  0  0  0  0  0  0  0  0  0
   79.6730  205.8451   68.7139 C   0  0  2  0  0  0  0  0  0  0  0  0
   84.9778  209.7215   71.7064 N   0  0  0  0  0  0  0  0  0  0  0  0
   85.9298  215.3169   68.1516 N   0  0  0  0  0  0  0  0  0  0  0  0
   86.5680  214.8511   67.0884 N   0  0  0  0  0  0  0  0  0  0  0  0
   91.2317  212.9921   68.7970 N   0  0  0  0  0  0  0  0  0  0  0  0
   88.7034  212.9207   65.5320 N   0  0  0  0  0  0  0  0  0  0  0  0
   82.6514  209.3189   71.2558 N   0  0  0  0  0  0  0  0  0  0  0  0
   81.9072  207.1700   70.2623 N   0  0  0  0  0  0  0  0  0  0  0  0
   78.7170  204.8350   68.3324 N   0  0  0  0  0  0  0  0  0  0  0  0
   85.9006  213.8128   66.5566 N   0  0  0  0  0  0  0  0  0  0  0  0
   83.6437  207.3378   71.8354 O   0  0  0  0  0  0  0  0  0  0  0  0
   78.1560  202.6910   69.2241 O   0  0  0  0  0  0  0  0  0  0  0  0
   84.2114  214.4187   70.5493 O   0  0  0  0  0  0  0  0  0  0  0  0
  3  1  2  0
  1 10  1  0
  4  2  1  0
  2 11  2  0
 12  3  1  0
 13  4  2  0
  7  5  2  0
  5  8  1  0
  9  6  2  0
  6 38  1  0
 29  7  1  0
 30  8  2  0
 26  9  1  0
 10 33  2  0
 11 34  1  0
 35 12  2  0
 36 13  1  0
 26 14  2  0
 14 28  1  0
 15 27  2  0
 46 15  1  0
 17 16  1  0
 16 19  1  0
 20 17  1  0
 18 21  1  0
 42 18  1  0
 37 19  1  6
 45 20  1  0
 21 46  1  0
 22 26  1  0
 49 22  1  0
 27 23  1  0
 23 49  1  0
 43 24  1  0
 24 44  1  0
 24 47  2  0
 30 25  1  0
 25 45  1  0
 25 48  2  0
 27 39  1  0
 28 38  2  0
 28 43  1  0
 29 32  2  0
 44 29  1  0
 32 30  1  0
 31 35  1  0
 31 36  2  0
 31 42  1  0
 32 37  1  0
 33 35  1  0
 33 41  1  0
 34 36  1  0
 34 41  2  0
 37 45  1  0
 39 40  2  0
 40 46  1  0
M  END
$$$$
