
     RDKit          3D

 49 56  0  0  0  0  0  0  0  0999 V2000
   87.2377  219.1591   69.3674 C   0  0  0  0  0  0  0  0  0  0  0  0
   92.5338  215.2885   66.5630 C   0  0  0  0  0  0  0  0  0  0  0  0
   86.3238  218.3241   68.7618 C   0  0  0  0  0  0  0  0  0  0  0  0
   91.6501  214.4335   65.9419 C   0  0  0  0  0  0  0  0  0  0  0  0
   80.3861  199.8894   72.2410 C   0  0  0  0  0  0  0  0  0  0  0  0
   81.6122  206.7866   67.2377 C   0  0  0  0  0  0  0  0  0  0  0  0
   80.2540  200.9794   71.3933 C   0  0  0  0  0  0  0  0  0  0  0  0
   79.3054  199.4762   72.9946 C   0  0  0  0  0  0  0  0  0  0  0  0
   82.5278  207.5307   67.9861 C   0  0  0  0  0  0  0  0  0  0  0  0
   88.5714  218.8944   69.1763 C   0  0  0  0  0  0  0  0  0  0  0  0
   92.1097  216.3423   67.3293 C   0  0  0  0  0  0  0  0  0  0  0  0
   86.7045  217.2410   67.9767 C   0  0  0  0  0  0  0  0  0  0  0  0
   90.2965  214.6518   66.0988 C   0  0  0  0  0  0  0  0  0  0  0  0
   81.4691  206.6095   69.9338 C   0  0  0  0  0  0  0  0  0  0  0  0
   84.4857  212.6388   69.1749 C   0  0  0  0  0  0  0  0  0  0  0  0
   74.3980  201.8162   70.9764 C   0  0  0  0  0  0  0  0  0  0  0  0
   73.9537  202.1399   72.3752 C   0  0  0  0  0  0  0  0  0  0  0  0
   87.2984  213.8554   67.1039 C   0  0  0  0  0  0  0  0  0  0  0  0
   75.8908  201.7605   70.8417 C   0  0  0  0  0  0  0  0  0  0  0  0
   74.5210  201.1922   73.4001 C   0  0  0  0  0  0  0  0  0  0  0  0
   86.2333  214.1161   68.1350 C   0  0  0  0  0  0  0  0  0  0  0  0
   83.3913  208.1796   70.2276 C   0  0  0  0  0  0  0  0  0  0  0  0
   83.1154  210.6087   70.0326 C   0  0  0  0  0  0  0  0  0  0  0  0
   79.8303  203.8297   70.4172 C   0  0  0  0  0  0  0  0  0  0  0  0
   76.8049  199.9295   73.5757 C   0  0  0  0  0  0  0  0  0  0  0  0
   82.4167  207.4086   69.3464 C   0  0  0  0  0  0  0  0  0  0  0  0
   84.2884  211.2982   69.3542 C   0  0  0  0  0  0  0  0  0  0  0  0
   80.5632  205.8737   69.1580 C   0  0  0  0  0  0  0  0  0  0  0  0
   79.0560  201.6496   71.3004 C   0  0  0  0  0  0  0  0  0  0  0  0
   78.0824  200.1522   72.9071 C   0  0  0  0  0  0  0  0  0  0  0  0
   88.5140  215.9735   67.0571 C   0  0  0  0  0  0  0  0  0  0  0  0
   77.9821  201.2318   72.0565 C   0  0  0  0  0  0  0  0  0  0  0  0
   89.0144  217.8236   68.4004 C   0  0  0  0  0  0  0  0  0  0  0  0
   90.7614  216.5720   67.4956 C   0  0  0  0  0  0  0  0  0  0  0  0
   88.0530  217.0213   67.8177 C   0  0  0  0  0  0  0  0  0  0  0  0
   89.8707  215.7139   66.8707 C   0  0  0  0  0  0  0  0  0  0  0  0
   76.5997  201.7542   72.1685 C   0  0  2  0  0  0  0  0  0  0  0  0
   80.6864  206.0047   67.8189 N   0  0  0  0  0  0  0  0  0  0  0  0
   85.3490  210.7007   68.8103 N   0  0  0  0  0  0  0  0  0  0  0  0
   86.1585  211.6272   68.3196 N   0  0  0  0  0  0  0  0  0  0  0  0
   90.3270  217.6008   68.2414 N   0  0  0  0  0  0  0  0  0  0  0  0
   87.6309  215.0762   66.3935 N   0  0  0  0  0  0  0  0  0  0  0  0
   79.5693  205.0342   69.7130 N   0  0  0  0  0  0  0  0  0  0  0  0
   78.8660  202.7690   70.4427 N   0  0  0  0  0  0  0  0  0  0  0  0
   75.8974  200.9164   73.1090 N   0  0  0  0  0  0  0  0  0  0  0  0
   85.6509  212.8540   68.5292 N   0  0  0  0  0  0  0  0  0  0  0  0
   80.9323  203.7306   71.0123 O   0  0  0  0  0  0  0  0  0  0  0  0
   76.5434  199.0251   74.4175 O   0  0  0  0  0  0  0  0  0  0  0  0
   83.3012  209.4051   70.1994 O   0  0  0  0  0  0  0  0  0  0  0  0
  3  1  2  0
  1 10  1  0
  4  2  1  0
  2 11  2  0
 12  3  1  0
 13  4  2  0
  7  5  2  0
  5  8  1  0
  9  6  2  0
  6 38  1  0
 29  7  1  0
 30  8  2  0
 26  9  1  0
 10 33  2  0
 11 34  1  0
 35 12  2  0
 36 13  1  0
 26 14  2  0
 14 28  1  0
 15 27  2  0
 46 15  1  0
 17 16  1  0
 16 19  1  0
 20 17  1  0
 18 21  1  0
 42 18  1  0
 37 19  1  6
 45 20  1  0
 21 46  1  0
 22 26  1  0
 49 22  1  0
 27 23  1  0
 23 49  1  0
 43 24  1  0
 24 44  1  0
 24 47  2  0
 30 25  1  0
 25 45  1  0
 25 48  2  0
 27 39  1  0
 28 38  2  0
 28 43  1  0
 29 32  2  0
 44 29  1  0
 32 30  1  0
 31 35  1  0
 31 36  2  0
 31 42  1  0
 32 37  1  0
 33 35  1  0
 33 41  1  0
 34 36  1  0
 34 41  2  0
 37 45  1  0
 39 40  2  0
 40 46  1  0
M  END
$$$$
