
     RDKit          3D

 49 56  0  0  0  0  0  0  0  0999 V2000
   87.6540  219.2432   68.6363 C   0  0  0  0  0  0  0  0  0  0  0  0
   92.5489  214.1099   67.8721 C   0  0  0  0  0  0  0  0  0  0  0  0
   86.8910  218.6439   67.6575 C   0  0  0  0  0  0  0  0  0  0  0  0
   91.8142  213.4833   66.8896 C   0  0  0  0  0  0  0  0  0  0  0  0
   79.9511  204.7750   66.9231 C   0  0  0  0  0  0  0  0  0  0  0  0
   85.7580  207.7314   71.9684 C   0  0  0  0  0  0  0  0  0  0  0  0
   80.6077  205.4110   67.9664 C   0  0  0  0  0  0  0  0  0  0  0  0
   79.0188  203.7949   67.2001 C   0  0  0  0  0  0  0  0  0  0  0  0
   86.0568  209.0648   72.2595 C   0  0  0  0  0  0  0  0  0  0  0  0
   88.8479  218.6522   68.9688 C   0  0  0  0  0  0  0  0  0  0  0  0
   92.1155  215.2561   68.4853 C   0  0  0  0  0  0  0  0  0  0  0  0
   87.2868  217.4796   67.0078 C   0  0  0  0  0  0  0  0  0  0  0  0
   90.6055  214.0334   66.5144 C   0  0  0  0  0  0  0  0  0  0  0  0
   83.7484  209.5350   71.7975 C   0  0  0  0  0  0  0  0  0  0  0  0
   85.1685  214.2676   69.0191 C   0  0  0  0  0  0  0  0  0  0  0  0
   77.4347  204.0046   72.7748 C   0  0  0  0  0  0  0  0  0  0  0  0
   77.5363  202.5089   72.8806 C   0  0  0  0  0  0  0  0  0  0  0  0
   87.2559  214.1279   66.1991 C   0  0  0  0  0  0  0  0  0  0  0  0
   78.3387  204.5730   71.7216 C   0  0  0  0  0  0  0  0  0  0  0  0
   77.2855  201.8141   71.5672 C   0  0  0  0  0  0  0  0  0  0  0  0
   86.0142  214.8051   66.7138 C   0  0  0  0  0  0  0  0  0  0  0  0
   85.2547  211.4101   72.4766 C   0  0  0  0  0  0  0  0  0  0  0  0
   84.1381  213.1018   71.0960 C   0  0  0  0  0  0  0  0  0  0  0  0
   81.9599  206.7169   70.1594 C   0  0  0  0  0  0  0  0  0  0  0  0
   77.8136  202.4623   69.0888 C   0  0  0  0  0  0  0  0  0  0  0  0
   85.0078  209.9407   72.1597 C   0  0  0  0  0  0  0  0  0  0  0  0
   84.5819  213.2038   69.6455 C   0  0  0  0  0  0  0  0  0  0  0  0
   83.4773  208.1902   71.5112 C   0  0  0  0  0  0  0  0  0  0  0  0
   80.3365  205.0708   69.2717 C   0  0  0  0  0  0  0  0  0  0  0  0
   78.7366  203.4417   68.5252 C   0  0  0  0  0  0  0  0  0  0  0  0
   88.9567  215.7799   66.7862 C   0  0  0  0  0  0  0  0  0  0  0  0
   79.4054  204.0909   69.5402 C   0  0  0  0  0  0  0  0  0  0  0  0
   89.2978  217.4846   68.3532 C   0  0  0  0  0  0  0  0  0  0  0  0
   90.9103  215.8162   68.1216 C   0  0  0  0  0  0  0  0  0  0  0  0
   88.4915  216.9293   67.3791 C   0  0  0  0  0  0  0  0  0  0  0  0
   90.1702  215.1882   67.1326 C   0  0  0  0  0  0  0  0  0  0  0  0
   78.9242  203.5202   70.8206 C   0  0  2  0  0  0  0  0  0  0  0  0
   84.5220  207.3396   71.6147 N   0  0  0  0  0  0  0  0  0  0  0  0
   84.4758  212.2516   68.7180 N   0  0  0  0  0  0  0  0  0  0  0  0
   84.9716  212.7070   67.5773 N   0  0  0  0  0  0  0  0  0  0  0  0
   90.4701  216.9402   68.7100 N   0  0  0  0  0  0  0  0  0  0  0  0
   88.2295  215.1111   65.7618 N   0  0  0  0  0  0  0  0  0  0  0  0
   82.1974  207.7196   71.1356 N   0  0  0  0  0  0  0  0  0  0  0  0
   80.9772  205.6959   70.3778 N   0  0  0  0  0  0  0  0  0  0  0  0
   77.9319  202.5235   70.5021 N   0  0  0  0  0  0  0  0  0  0  0  0
   85.4153  213.9669   67.7269 N   0  0  0  0  0  0  0  0  0  0  0  0
   82.6396  206.7596   69.1037 O   0  0  0  0  0  0  0  0  0  0  0  0
   77.0442  201.6953   68.4448 O   0  0  0  0  0  0  0  0  0  0  0  0
   84.7374  212.2271   71.7178 O   0  0  0  0  0  0  0  0  0  0  0  0
  3  1  2  0
  1 10  1  0
  4  2  1  0
  2 11  2  0
 12  3  1  0
 13  4  2  0
  7  5  2  0
  5  8  1  0
  9  6  2  0
  6 38  1  0
 29  7  1  0
 30  8  2  0
 26  9  1  0
 10 33  2  0
 11 34  1  0
 35 12  2  0
 36 13  1  0
 26 14  2  0
 14 28  1  0
 15 27  2  0
 46 15  1  0
 17 16  1  0
 16 19  1  0
 20 17  1  0
 18 21  1  0
 42 18  1  0
 37 19  1  1
 45 20  1  0
 21 46  1  0
 22 26  1  0
 49 22  1  0
 27 23  1  0
 23 49  1  0
 43 24  1  0
 24 44  1  0
 24 47  2  0
 30 25  1  0
 25 45  1  0
 25 48  2  0
 27 39  1  0
 28 38  2  0
 28 43  1  0
 29 32  2  0
 44 29  1  0
 32 30  1  0
 31 35  1  0
 31 36  2  0
 31 42  1  0
 32 37  1  0
 33 35  1  0
 33 41  1  0
 34 36  1  0
 34 41  2  0
 37 45  1  0
 39 40  2  0
 40 46  1  0
M  END
$$$$
