
     RDKit          3D

 49 56  0  0  0  0  0  0  0  0999 V2000
   90.5006  210.9412   70.6332 C   0  0  0  0  0  0  0  0  0  0  0  0
   92.9096  216.3049   66.5932 C   0  0  0  0  0  0  0  0  0  0  0  0
   89.3220  210.9492   69.9189 C   0  0  0  0  0  0  0  0  0  0  0  0
   91.7454  216.3432   65.8578 C   0  0  0  0  0  0  0  0  0  0  0  0
   79.9842  202.4409   72.2514 C   0  0  0  0  0  0  0  0  0  0  0  0
   84.7312  208.3812   70.5228 C   0  0  0  0  0  0  0  0  0  0  0  0
   80.4231  203.5543   71.5502 C   0  0  0  0  0  0  0  0  0  0  0  0
   78.7908  201.8409   71.9015 C   0  0  0  0  0  0  0  0  0  0  0  0
   84.6783  209.7523   70.7861 C   0  0  0  0  0  0  0  0  0  0  0  0
   91.4677  211.8506   70.2826 C   0  0  0  0  0  0  0  0  0  0  0  0
   93.0956  215.4113   67.6151 C   0  0  0  0  0  0  0  0  0  0  0  0
   89.0867  211.8349   68.8726 C   0  0  0  0  0  0  0  0  0  0  0  0
   90.7378  215.4520   66.1664 C   0  0  0  0  0  0  0  0  0  0  0  0
   82.2950  209.5572   70.5736 C   0  0  0  0  0  0  0  0  0  0  0  0
   84.7961  214.0864   67.3286 C   0  0  0  0  0  0  0  0  0  0  0  0
   77.0709  203.6266   66.6589 C   0  0  0  0  0  0  0  0  0  0  0  0
   75.6638  203.8000   67.1577 C   0  0  0  0  0  0  0  0  0  0  0  0
   88.2542  215.0409   66.4686 C   0  0  0  0  0  0  0  0  0  0  0  0
   78.0931  203.7791   67.7459 C   0  0  0  0  0  0  0  0  0  0  0  0
   75.3327  202.8743   68.2996 C   0  0  0  0  0  0  0  0  0  0  0  0
   86.7942  214.9975   66.1056 C   0  0  0  0  0  0  0  0  0  0  0  0
   83.2862  211.7910   71.0970 C   0  0  0  0  0  0  0  0  0  0  0  0
   83.1352  213.2742   69.1496 C   0  0  0  0  0  0  0  0  0  0  0  0
   81.2388  205.9518   70.1539 C   0  0  0  0  0  0  0  0  0  0  0  0
   76.7533  201.9192   70.2774 C   0  0  0  0  0  0  0  0  0  0  0  0
   83.4236  210.3028   70.8019 C   0  0  0  0  0  0  0  0  0  0  0  0
   84.4397  213.8549   68.6276 C   0  0  0  0  0  0  0  0  0  0  0  0
   82.3781  208.1830   70.3120 C   0  0  0  0  0  0  0  0  0  0  0  0
   79.6776  204.0631   70.5117 C   0  0  0  0  0  0  0  0  0  0  0  0
   78.0251  202.3517   70.8465 C   0  0  0  0  0  0  0  0  0  0  0  0
   89.9370  213.6344   67.5439 C   0  0  0  0  0  0  0  0  0  0  0  0
   78.4870  203.4593   70.1690 C   0  0  0  0  0  0  0  0  0  0  0  0
   91.2903  212.7630   69.2431 C   0  0  0  0  0  0  0  0  0  0  0  0
   92.0989  214.5150   67.9339 C   0  0  0  0  0  0  0  0  0  0  0  0
   90.0888  212.7250   68.5632 C   0  0  0  0  0  0  0  0  0  0  0  0
   90.9263  214.5525   67.1963 C   0  0  0  0  0  0  0  0  0  0  0  0
   77.4884  203.7846   69.1233 C   0  0  2  0  0  0  0  0  0  0  0  0
   83.6220  207.6556   70.3005 N   0  0  0  0  0  0  0  0  0  0  0  0
   85.4794  214.2492   69.3636 N   0  0  0  0  0  0  0  0  0  0  0  0
   86.4289  214.7000   68.5576 N   0  0  0  0  0  0  0  0  0  0  0  0
   92.2623  213.6331   68.9334 N   0  0  0  0  0  0  0  0  0  0  0  0
   88.7452  213.7090   66.7697 N   0  0  0  0  0  0  0  0  0  0  0  0
   81.2465  207.3689   70.0723 N   0  0  0  0  0  0  0  0  0  0  0  0
   80.0852  205.1985   69.7572 N   0  0  0  0  0  0  0  0  0  0  0  0
   76.4353  202.8034   69.2132 N   0  0  0  0  0  0  0  0  0  0  0  0
   86.0370  214.6138   67.2748 N   0  0  0  0  0  0  0  0  0  0  0  0
   82.2759  205.3880   70.5839 O   0  0  0  0  0  0  0  0  0  0  0  0
   76.0547  200.9372   70.6551 O   0  0  0  0  0  0  0  0  0  0  0  0
   83.2949  212.5437   70.1252 O   0  0  0  0  0  0  0  0  0  0  0  0
  3  1  2  0
  1 10  1  0
  4  2  1  0
  2 11  2  0
 12  3  1  0
 13  4  2  0
  7  5  2  0
  5  8  1  0
  9  6  2  0
  6 38  1  0
 29  7  1  0
 30  8  2  0
 26  9  1  0
 10 33  2  0
 11 34  1  0
 35 12  2  0
 36 13  1  0
 26 14  2  0
 14 28  1  0
 15 27  2  0
 46 15  1  0
 17 16  1  0
 16 19  1  0
 20 17  1  0
 18 21  1  0
 42 18  1  0
 37 19  1  6
 45 20  1  0
 21 46  1  0
 22 26  1  0
 49 22  1  0
 27 23  1  0
 23 49  1  0
 43 24  1  0
 24 44  1  0
 24 47  2  0
 30 25  1  0
 25 45  1  0
 25 48  2  0
 27 39  1  0
 28 38  2  0
 28 43  1  0
 29 32  2  0
 44 29  1  0
 32 30  1  0
 31 35  1  0
 31 36  2  0
 31 42  1  0
 32 37  1  0
 33 35  1  0
 33 41  1  0
 34 36  1  0
 34 41  2  0
 37 45  1  0
 39 40  2  0
 40 46  1  0
M  END
$$$$
