
     RDKit          3D

 49 56  0  0  0  0  0  0  0  0999 V2000
   92.1385  216.8352   68.4477 C   0  0  0  0  0  0  0  0  0  0  0  0
   88.7181  210.8559   70.3032 C   0  0  0  0  0  0  0  0  0  0  0  0
   90.9469  217.5240   68.5189 C   0  0  0  0  0  0  0  0  0  0  0  0
   87.5087  211.5106   70.3839 C   0  0  0  0  0  0  0  0  0  0  0  0
   82.4911  204.4609   72.9474 C   0  0  0  0  0  0  0  0  0  0  0  0
   85.7196  208.6460   67.4161 C   0  0  0  0  0  0  0  0  0  0  0  0
   82.4256  205.4147   71.9424 C   0  0  0  0  0  0  0  0  0  0  0  0
   81.4541  203.5628   73.1045 C   0  0  0  0  0  0  0  0  0  0  0  0
   85.5969  209.3908   66.2404 C   0  0  0  0  0  0  0  0  0  0  0  0
   92.1191  215.4917   68.7302 C   0  0  0  0  0  0  0  0  0  0  0  0
   89.8756  211.5052   69.9625 C   0  0  0  0  0  0  0  0  0  0  0  0
   89.7468  216.9103   68.8618 C   0  0  0  0  0  0  0  0  0  0  0  0
   87.4683  212.8626   70.1098 C   0  0  0  0  0  0  0  0  0  0  0  0
   83.2233  209.2697   66.5792 C   0  0  0  0  0  0  0  0  0  0  0  0
   85.6209  213.2657   66.0559 C   0  0  0  0  0  0  0  0  0  0  0  0
   78.0640  203.5195   68.3995 C   0  0  0  0  0  0  0  0  0  0  0  0
   76.8332  203.5319   69.2619 C   0  0  0  0  0  0  0  0  0  0  0  0
   86.7929  215.9657   68.3120 C   0  0  0  0  0  0  0  0  0  0  0  0
   79.2461  204.1554   69.0690 C   0  0  0  0  0  0  0  0  0  0  0  0
   77.0590  202.8931   70.6078 C   0  0  0  0  0  0  0  0  0  0  0  0
   85.7186  215.0136   67.8595 C   0  0  0  0  0  0  0  0  0  0  0  0
   84.1024  210.5044   64.5920 C   0  0  0  0  0  0  0  0  0  0  0  0
   86.0933  211.7949   63.9706 C   0  0  0  0  0  0  0  0  0  0  0  0
   82.3822  207.1270   69.5891 C   0  0  0  0  0  0  0  0  0  0  0  0
   79.1312  202.7990   72.2010 C   0  0  0  0  0  0  0  0  0  0  0  0
   84.3141  209.6824   65.8570 C   0  0  0  0  0  0  0  0  0  0  0  0
   86.3504  212.9289   64.9501 C   0  0  0  0  0  0  0  0  0  0  0  0
   83.3764  208.5235   67.7554 C   0  0  0  0  0  0  0  0  0  0  0  0
   81.3358  205.4710   71.1043 C   0  0  0  0  0  0  0  0  0  0  0  0
   80.3410  203.6127   72.2568 C   0  0  0  0  0  0  0  0  0  0  0  0
   88.6424  214.8796   69.4808 C   0  0  0  0  0  0  0  0  0  0  0  0
   80.3043  204.5718   71.2679 C   0  0  0  0  0  0  0  0  0  0  0  0
   90.9476  214.8211   69.0802 C   0  0  0  0  0  0  0  0  0  0  0  0
   89.8506  212.8550   69.6871 C   0  0  0  0  0  0  0  0  0  0  0  0
   89.7838  215.5626   69.1348 C   0  0  0  0  0  0  0  0  0  0  0  0
   88.6349  213.5154   69.7664 C   0  0  0  0  0  0  0  0  0  0  0  0
   79.0265  204.4023   70.5365 C   0  0  2  0  0  0  0  0  0  0  0  0
   84.6472  208.2449   68.1199 N   0  0  0  0  0  0  0  0  0  0  0  0
   87.3546  213.8046   64.8989 N   0  0  0  0  0  0  0  0  0  0  0  0
   87.2479  214.6396   65.9216 N   0  0  0  0  0  0  0  0  0  0  0  0
   90.9746  213.5078   69.3496 N   0  0  0  0  0  0  0  0  0  0  0  0
   87.3747  215.5209   69.5647 N   0  0  0  0  0  0  0  0  0  0  0  0
   82.2862  208.0755   68.5375 N   0  0  0  0  0  0  0  0  0  0  0  0
   81.2219  206.4252   70.0549 N   0  0  0  0  0  0  0  0  0  0  0  0
   78.3323  203.2887   71.1346 N   0  0  0  0  0  0  0  0  0  0  0  0
   86.1736  214.3333   66.6689 N   0  0  0  0  0  0  0  0  0  0  0  0
   83.5164  206.9278   70.0915 O   0  0  0  0  0  0  0  0  0  0  0  0
   78.8391  201.8317   72.9586 O   0  0  0  0  0  0  0  0  0  0  0  0
   85.0567  211.1805   64.2137 O   0  0  0  0  0  0  0  0  0  0  0  0
  3  1  2  0
  1 10  1  0
  4  2  1  0
  2 11  2  0
 12  3  1  0
 13  4  2  0
  7  5  2  0
  5  8  1  0
  9  6  2  0
  6 38  1  0
 29  7  1  0
 30  8  2  0
 26  9  1  0
 10 33  2  0
 11 34  1  0
 35 12  2  0
 36 13  1  0
 26 14  2  0
 14 28  1  0
 15 27  2  0
 46 15  1  0
 17 16  1  0
 16 19  1  0
 20 17  1  0
 18 21  1  0
 42 18  1  0
 37 19  1  6
 45 20  1  0
 21 46  1  0
 22 26  1  0
 49 22  1  0
 27 23  1  0
 23 49  1  0
 43 24  1  0
 24 44  1  0
 24 47  2  0
 30 25  1  0
 25 45  1  0
 25 48  2  0
 27 39  1  0
 28 38  2  0
 28 43  1  0
 29 32  2  0
 44 29  1  0
 32 30  1  0
 31 35  1  0
 31 36  2  0
 31 42  1  0
 32 37  1  0
 33 35  1  0
 33 41  1  0
 34 36  1  0
 34 41  2  0
 37 45  1  0
 39 40  2  0
 40 46  1  0
M  END
$$$$
