
     RDKit          3D

 49 56  0  0  0  0  0  0  0  0999 V2000
   86.3819  220.0849   69.5600 C   0  0  0  0  0  0  0  0  0  0  0  0
   92.1642  216.2632   67.8704 C   0  0  0  0  0  0  0  0  0  0  0  0
   85.5959  219.1622   68.9042 C   0  0  0  0  0  0  0  0  0  0  0  0
   91.4111  215.3207   67.2053 C   0  0  0  0  0  0  0  0  0  0  0  0
   77.0647  200.5032   70.1325 C   0  0  0  0  0  0  0  0  0  0  0  0
   78.6250  207.8479   68.2133 C   0  0  0  0  0  0  0  0  0  0  0  0
   77.9510  201.5159   69.7960 C   0  0  0  0  0  0  0  0  0  0  0  0
   77.3460  199.6782   71.2035 C   0  0  0  0  0  0  0  0  0  0  0  0
   79.4503  208.9693   68.3285 C   0  0  0  0  0  0  0  0  0  0  0  0
   87.7378  219.8701   69.5824 C   0  0  0  0  0  0  0  0  0  0  0  0
   91.5959  217.3526   68.4770 C   0  0  0  0  0  0  0  0  0  0  0  0
   86.1251  218.0401   68.2754 C   0  0  0  0  0  0  0  0  0  0  0  0
   90.0421  215.4858   67.1503 C   0  0  0  0  0  0  0  0  0  0  0  0
   81.0028  207.5340   69.4656 C   0  0  0  0  0  0  0  0  0  0  0  0
   85.0493  211.8588   66.7339 C   0  0  0  0  0  0  0  0  0  0  0  0
   81.5050  201.9883   74.5196 C   0  0  0  0  0  0  0  0  0  0  0  0
   82.1925  200.6556   74.6204 C   0  0  0  0  0  0  0  0  0  0  0  0
   87.0325  214.5920   67.7606 C   0  0  0  0  0  0  0  0  0  0  0  0
   80.7016  202.1313   73.2611 C   0  0  0  0  0  0  0  0  0  0  0  0
   81.2376  199.4969   74.4931 C   0  0  0  0  0  0  0  0  0  0  0  0
   87.0306  213.4019   66.8390 C   0  0  0  0  0  0  0  0  0  0  0  0
   81.6023  209.9355   69.1199 C   0  0  0  0  0  0  0  0  0  0  0  0
   83.2098  210.1103   67.2759 C   0  0  0  0  0  0  0  0  0  0  0  0
   79.5887  204.0332   69.8405 C   0  0  0  0  0  0  0  0  0  0  0  0
   79.0491  199.1468   73.1041 C   0  0  0  0  0  0  0  0  0  0  0  0
   80.6434  208.7614   68.9696 C   0  0  0  0  0  0  0  0  0  0  0  0
   84.4362  210.9617   67.5631 C   0  0  0  0  0  0  0  0  0  0  0  0
   80.1547  206.4260   69.3355 C   0  0  0  0  0  0  0  0  0  0  0  0
   79.1056  201.7016   70.5209 C   0  0  0  0  0  0  0  0  0  0  0  0
   78.5186  199.8593   71.9467 C   0  0  0  0  0  0  0  0  0  0  0  0
   88.0931  216.7921   67.7316 C   0  0  0  0  0  0  0  0  0  0  0  0
   79.3798  200.8735   71.5880 C   0  0  0  0  0  0  0  0  0  0  0  0
   88.3268  218.7639   68.9705 C   0  0  0  0  0  0  0  0  0  0  0  0
   90.2304  217.5299   68.4310 C   0  0  0  0  0  0  0  0  0  0  0  0
   87.4895  217.8733   68.3278 C   0  0  0  0  0  0  0  0  0  0  0  0
   89.4709  216.5837   67.7615 C   0  0  0  0  0  0  0  0  0  0  0  0
   80.5264  200.8306   72.5260 C   0  0  2  0  0  0  0  0  0  0  0  0
   78.9827  206.6476   68.7008 N   0  0  0  0  0  0  0  0  0  0  0  0
   85.1357  210.9819   68.6981 N   0  0  0  0  0  0  0  0  0  0  0  0
   86.1305  211.8475   68.5734 N   0  0  0  0  0  0  0  0  0  0  0  0
   89.6558  218.5924   69.0180 N   0  0  0  0  0  0  0  0  0  0  0  0
   87.3483  215.8042   67.0282 N   0  0  0  0  0  0  0  0  0  0  0  0
   80.4779  205.1396   69.8267 N   0  0  0  0  0  0  0  0  0  0  0  0
   80.0443  202.7282   70.2215 N   0  0  0  0  0  0  0  0  0  0  0  0
   80.2814  199.7567   73.4569 N   0  0  0  0  0  0  0  0  0  0  0  0
   86.1087  212.4168   67.3560 N   0  0  0  0  0  0  0  0  0  0  0  0
   78.3951  204.2416   69.5086 O   0  0  0  0  0  0  0  0  0  0  0  0
   78.5158  198.1651   73.6931 O   0  0  0  0  0  0  0  0  0  0  0  0
   82.4032  210.1076   68.2034 O   0  0  0  0  0  0  0  0  0  0  0  0
  3  1  2  0
  1 10  1  0
  4  2  1  0
  2 11  2  0
 12  3  1  0
 13  4  2  0
  7  5  2  0
  5  8  1  0
  9  6  2  0
  6 38  1  0
 29  7  1  0
 30  8  2  0
 26  9  1  0
 10 33  2  0
 11 34  1  0
 35 12  2  0
 36 13  1  0
 26 14  2  0
 14 28  1  0
 15 27  2  0
 46 15  1  0
 17 16  1  0
 16 19  1  0
 20 17  1  0
 18 21  1  0
 42 18  1  0
 37 19  1  1
 45 20  1  0
 21 46  1  0
 22 26  1  0
 49 22  1  0
 27 23  1  0
 23 49  1  0
 43 24  1  0
 24 44  1  0
 24 47  2  0
 30 25  1  0
 25 45  1  0
 25 48  2  0
 27 39  1  0
 28 38  2  0
 28 43  1  0
 29 32  2  0
 44 29  1  0
 32 30  1  0
 31 35  1  0
 31 36  2  0
 31 42  1  0
 32 37  1  0
 33 35  1  0
 33 41  1  0
 34 36  1  0
 34 41  2  0
 37 45  1  0
 39 40  2  0
 40 46  1  0
M  END
$$$$
