
     RDKit          3D

 49 56  0  0  0  0  0  0  0  0999 V2000
   92.4356  215.0251   68.4296 C   0  0  0  0  0  0  0  0  0  0  0  0
   86.0532  218.2056   68.2196 C   0  0  0  0  0  0  0  0  0  0  0  0
   92.1857  214.4702   67.1931 C   0  0  0  0  0  0  0  0  0  0  0  0
   85.7680  217.6683   66.9836 C   0  0  0  0  0  0  0  0  0  0  0  0
   77.1634  204.6106   68.0670 C   0  0  0  0  0  0  0  0  0  0  0  0
   83.1286  208.6797   72.3079 C   0  0  0  0  0  0  0  0  0  0  0  0
   78.4227  205.0519   68.4457 C   0  0  0  0  0  0  0  0  0  0  0  0
   76.7899  203.3072   68.3285 C   0  0  0  0  0  0  0  0  0  0  0  0
   83.2605  209.9900   71.8412 C   0  0  0  0  0  0  0  0  0  0  0  0
   91.4670  215.8290   68.9780 C   0  0  0  0  0  0  0  0  0  0  0  0
   87.2350  217.9555   68.8665 C   0  0  0  0  0  0  0  0  0  0  0  0
   91.0032  214.6956   66.4965 C   0  0  0  0  0  0  0  0  0  0  0  0
   86.7053  216.8517   66.3844 C   0  0  0  0  0  0  0  0  0  0  0  0
   81.8216  209.3401   70.0327 C   0  0  0  0  0  0  0  0  0  0  0  0
   86.8689  213.0318   68.4370 C   0  0  0  0  0  0  0  0  0  0  0  0
   80.3639  200.9016   72.2105 C   0  0  0  0  0  0  0  0  0  0  0  0
   80.4361  199.6423   71.3933 C   0  0  0  0  0  0  0  0  0  0  0  0
   87.8739  213.9469   65.2040 C   0  0  0  0  0  0  0  0  0  0  0  0
   80.0745  202.1156   71.3785 C   0  0  0  0  0  0  0  0  0  0  0  0
   79.1952  199.4103   70.5708 C   0  0  0  0  0  0  0  0  0  0  0  0
   88.3181  213.1270   66.3855 C   0  0  0  0  0  0  0  0  0  0  0  0
   82.6653  211.6908   70.1254 C   0  0  0  0  0  0  0  0  0  0  0  0
   84.9557  212.5679   70.1279 C   0  0  0  0  0  0  0  0  0  0  0  0
   80.7593  205.7124   70.3870 C   0  0  0  0  0  0  0  0  0  0  0  0
   77.5386  201.0346   69.3629 C   0  0  0  0  0  0  0  0  0  0  0  0
   82.5805  210.2771   70.6867 C   0  0  0  0  0  0  0  0  0  0  0  0
   85.6609  212.4938   68.7831 C   0  0  0  0  0  0  0  0  0  0  0  0
   81.7071  208.0327   70.5241 C   0  0  0  0  0  0  0  0  0  0  0  0
   79.2993  204.2002   69.0776 C   0  0  0  0  0  0  0  0  0  0  0  0
   77.6753  202.4332   68.9706 C   0  0  0  0  0  0  0  0  0  0  0  0
   88.8711  215.7817   66.4712 C   0  0  0  0  0  0  0  0  0  0  0  0
   78.9196  202.9005   69.3343 C   0  0  0  0  0  0  0  0  0  0  0  0
   90.2617  216.0923   68.3278 C   0  0  0  0  0  0  0  0  0  0  0  0
   88.1806  217.1429   68.2800 C   0  0  0  0  0  0  0  0  0  0  0  0
   90.0666  215.5085   67.0916 C   0  0  0  0  0  0  0  0  0  0  0  0
   87.8952  216.6003   67.0372 C   0  0  0  0  0  0  0  0  0  0  0  0
   79.6413  201.7775   69.9782 C   0  0  2  0  0  0  0  0  0  0  0  0
   82.3830  207.7661   71.6632 N   0  0  0  0  0  0  0  0  0  0  0  0
   85.2139  211.8754   67.6896 N   0  0  0  0  0  0  0  0  0  0  0  0
   86.1020  212.0260   66.7184 N   0  0  0  0  0  0  0  0  0  0  0  0
   89.3437  216.8849   68.8996 N   0  0  0  0  0  0  0  0  0  0  0  0
   88.5384  215.2369   65.1992 N   0  0  0  0  0  0  0  0  0  0  0  0
   80.9366  207.0302   69.8901 N   0  0  0  0  0  0  0  0  0  0  0  0
   80.5994  204.6041   69.4917 N   0  0  0  0  0  0  0  0  0  0  0  0
   78.7512  200.6427   69.9882 N   0  0  0  0  0  0  0  0  0  0  0  0
   87.1526  212.7452   67.1492 N   0  0  0  0  0  0  0  0  0  0  0  0
   80.7489  205.5570   71.6337 O   0  0  0  0  0  0  0  0  0  0  0  0
   76.5285  200.2979   69.1839 O   0  0  0  0  0  0  0  0  0  0  0  0
   83.7865  212.1921   70.0747 O   0  0  0  0  0  0  0  0  0  0  0  0
  3  1  2  0
  1 10  1  0
  4  2  1  0
  2 11  2  0
 12  3  1  0
 13  4  2  0
  7  5  2  0
  5  8  1  0
  9  6  2  0
  6 38  1  0
 29  7  1  0
 30  8  2  0
 26  9  1  0
 10 33  2  0
 11 34  1  0
 35 12  2  0
 36 13  1  0
 26 14  2  0
 14 28  1  0
 15 27  2  0
 46 15  1  0
 17 16  1  0
 16 19  1  0
 20 17  1  0
 18 21  1  0
 42 18  1  0
 37 19  1  1
 45 20  1  0
 21 46  1  0
 22 26  1  0
 49 22  1  0
 27 23  1  0
 23 49  1  0
 43 24  1  0
 24 44  1  0
 24 47  2  0
 30 25  1  0
 25 45  1  0
 25 48  2  0
 27 39  1  0
 28 38  2  0
 28 43  1  0
 29 32  2  0
 44 29  1  0
 32 30  1  0
 31 35  1  0
 31 36  2  0
 31 42  1  0
 32 37  1  0
 33 35  1  0
 33 41  1  0
 34 36  1  0
 34 41  2  0
 37 45  1  0
 39 40  2  0
 40 46  1  0
M  END
$$$$
