
     RDKit          3D

 49 56  0  0  0  0  0  0  0  0999 V2000
   92.6824  214.2513   66.9740 C   0  0  0  0  0  0  0  0  0  0  0  0
   87.6048  217.9747   70.3280 C   0  0  0  0  0  0  0  0  0  0  0  0
   91.8237  214.0598   65.9133 C   0  0  0  0  0  0  0  0  0  0  0  0
   86.7186  217.8032   69.2873 C   0  0  0  0  0  0  0  0  0  0  0  0
   80.6701  201.9561   72.5109 C   0  0  0  0  0  0  0  0  0  0  0  0
   82.1111  209.5458   67.8500 C   0  0  0  0  0  0  0  0  0  0  0  0
   80.8595  203.0328   71.6570 C   0  0  0  0  0  0  0  0  0  0  0  0
   79.5372  201.1768   72.3854 C   0  0  0  0  0  0  0  0  0  0  0  0
   82.6102  210.2828   68.9269 C   0  0  0  0  0  0  0  0  0  0  0  0
   92.2237  214.9760   68.0462 C   0  0  0  0  0  0  0  0  0  0  0  0
   88.8722  217.4546   70.2974 C   0  0  0  0  0  0  0  0  0  0  0  0
   90.5294  214.5689   65.8964 C   0  0  0  0  0  0  0  0  0  0  0  0
   87.1256  217.0824   68.1831 C   0  0  0  0  0  0  0  0  0  0  0  0
   82.5332  208.2363   70.1797 C   0  0  0  0  0  0  0  0  0  0  0  0
   85.2393  213.6427   68.8660 C   0  0  0  0  0  0  0  0  0  0  0  0
   76.9463  202.1509   67.2894 C   0  0  0  0  0  0  0  0  0  0  0  0
   75.6020  202.1999   67.9597 C   0  0  0  0  0  0  0  0  0  0  0  0
   87.2373  214.3761   65.9436 C   0  0  0  0  0  0  0  0  0  0  0  0
   78.0649  202.5478   68.2063 C   0  0  0  0  0  0  0  0  0  0  0  0
   75.5475  201.3700   69.2162 C   0  0  0  0  0  0  0  0  0  0  0  0
   85.8742  214.4622   66.5762 C   0  0  0  0  0  0  0  0  0  0  0  0
   83.3642  210.3113   71.2979 C   0  0  0  0  0  0  0  0  0  0  0  0
   84.8883  212.2096   71.0009 C   0  0  0  0  0  0  0  0  0  0  0  0
   80.9313  205.5181   70.1173 C   0  0  0  0  0  0  0  0  0  0  0  0
   77.3220  200.8217   71.0578 C   0  0  0  0  0  0  0  0  0  0  0  0
   82.8078  209.5770   70.0846 C   0  0  0  0  0  0  0  0  0  0  0  0
   85.3681  212.4876   69.5852 C   0  0  0  0  0  0  0  0  0  0  0  0
   82.0332  207.5221   69.0826 C   0  0  0  0  0  0  0  0  0  0  0  0
   79.9270  203.3278   70.6892 C   0  0  0  0  0  0  0  0  0  0  0  0
   78.5826  201.4696   71.4040 C   0  0  0  0  0  0  0  0  0  0  0  0
   88.8570  215.8239   67.0602 C   0  0  0  0  0  0  0  0  0  0  0  0
   78.7984  202.5459   70.5708 C   0  0  0  0  0  0  0  0  0  0  0  0
   90.9368  215.5118   68.0871 C   0  0  0  0  0  0  0  0  0  0  0  0
   89.2926  216.7336   69.2012 C   0  0  0  0  0  0  0  0  0  0  0  0
   90.1206  215.2871   66.9960 C   0  0  0  0  0  0  0  0  0  0  0  0
   88.4024  216.5588   68.1537 C   0  0  0  0  0  0  0  0  0  0  0  0
   77.6418  202.6275   69.6477 C   0  0  2  0  0  0  0  0  0  0  0  0
   81.8445  208.2323   67.9488 N   0  0  0  0  0  0  0  0  0  0  0  0
   86.0133  211.6353   68.7881 N   0  0  0  0  0  0  0  0  0  0  0  0
   86.2680  212.2356   67.6352 N   0  0  0  0  0  0  0  0  0  0  0  0
   90.5304  216.2147   69.1542 N   0  0  0  0  0  0  0  0  0  0  0  0
   87.9122  215.6590   66.0087 N   0  0  0  0  0  0  0  0  0  0  0  0
   81.7357  206.1400   69.1269 N   0  0  0  0  0  0  0  0  0  0  0  0
   80.0760  204.4164   69.7850 N   0  0  0  0  0  0  0  0  0  0  0  0
   76.7544  201.5378   69.9714 N   0  0  0  0  0  0  0  0  0  0  0  0
   85.7980  213.4948   67.6466 N   0  0  0  0  0  0  0  0  0  0  0  0
   80.9985  205.9679   71.2885 O   0  0  0  0  0  0  0  0  0  0  0  0
   76.8190  199.8069   71.6165 O   0  0  0  0  0  0  0  0  0  0  0  0
   84.1371  211.2390   71.0679 O   0  0  0  0  0  0  0  0  0  0  0  0
  3  1  2  0
  1 10  1  0
  4  2  1  0
  2 11  2  0
 12  3  1  0
 13  4  2  0
  7  5  2  0
  5  8  1  0
  9  6  2  0
  6 38  1  0
 29  7  1  0
 30  8  2  0
 26  9  1  0
 10 33  2  0
 11 34  1  0
 35 12  2  0
 36 13  1  0
 26 14  2  0
 14 28  1  0
 15 27  2  0
 46 15  1  0
 17 16  1  0
 16 19  1  0
 20 17  1  0
 18 21  1  0
 42 18  1  0
 37 19  1  6
 45 20  1  0
 21 46  1  0
 22 26  1  0
 49 22  1  0
 27 23  1  0
 23 49  1  0
 43 24  1  0
 24 44  1  0
 24 47  2  0
 30 25  1  0
 25 45  1  0
 25 48  2  0
 27 39  1  0
 28 38  2  0
 28 43  1  0
 29 32  2  0
 44 29  1  0
 32 30  1  0
 31 35  1  0
 31 36  2  0
 31 42  1  0
 32 37  1  0
 33 35  1  0
 33 41  1  0
 34 36  1  0
 34 41  2  0
 37 45  1  0
 39 40  2  0
 40 46  1  0
M  END
$$$$
