
     RDKit          3D

 49 56  0  0  0  0  0  0  0  0999 V2000
   86.7915  218.8791   70.1490 C   0  0  0  0  0  0  0  0  0  0  0  0
   92.6621  215.8806   67.4215 C   0  0  0  0  0  0  0  0  0  0  0  0
   86.0188  218.0370   69.3788 C   0  0  0  0  0  0  0  0  0  0  0  0
   91.9228  215.0234   66.6364 C   0  0  0  0  0  0  0  0  0  0  0  0
   78.9117  203.1134   68.3360 C   0  0  0  0  0  0  0  0  0  0  0  0
   81.7105  209.3183   71.8046 C   0  0  0  0  0  0  0  0  0  0  0  0
   79.8063  204.0805   68.7702 C   0  0  0  0  0  0  0  0  0  0  0  0
   78.1970  202.3799   69.2623 C   0  0  0  0  0  0  0  0  0  0  0  0
   82.4616  210.4260   71.4034 C   0  0  0  0  0  0  0  0  0  0  0  0
   88.1562  218.7662   70.0487 C   0  0  0  0  0  0  0  0  0  0  0  0
   92.0729  216.7933   68.2565 C   0  0  0  0  0  0  0  0  0  0  0  0
   86.5697  217.0935   68.5181 C   0  0  0  0  0  0  0  0  0  0  0  0
   90.5458  215.0926   66.6960 C   0  0  0  0  0  0  0  0  0  0  0  0
   83.3000  209.0380   69.6330 C   0  0  0  0  0  0  0  0  0  0  0  0
   85.2541  213.6431   65.9800 C   0  0  0  0  0  0  0  0  0  0  0  0
   78.4218  204.9076   74.4768 C   0  0  0  0  0  0  0  0  0  0  0  0
   78.6747  203.5789   75.1320 C   0  0  0  0  0  0  0  0  0  0  0  0
   87.8145  215.5344   65.3812 C   0  0  0  0  0  0  0  0  0  0  0  0
   78.9013  204.9530   73.0564 C   0  0  0  0  0  0  0  0  0  0  0  0
   78.0847  202.4274   74.3598 C   0  0  0  0  0  0  0  0  0  0  0  0
   87.2149  214.3964   64.5996 C   0  0  0  0  0  0  0  0  0  0  0  0
   84.0875  211.4045   69.7940 C   0  0  0  0  0  0  0  0  0  0  0  0
   83.6657  212.3425   67.5676 C   0  0  0  0  0  0  0  0  0  0  0  0
   82.1775  205.4592   70.0126 C   0  0  0  0  0  0  0  0  0  0  0  0
   77.7568  201.9902   71.8019 C   0  0  0  0  0  0  0  0  0  0  0  0
   83.2506  210.2361   70.2993 C   0  0  0  0  0  0  0  0  0  0  0  0
   84.9634  212.6048   66.8202 C   0  0  0  0  0  0  0  0  0  0  0  0
   82.5351  207.9434   70.0580 C   0  0  0  0  0  0  0  0  0  0  0  0
   79.9855  204.3115   70.1147 C   0  0  0  0  0  0  0  0  0  0  0  0
   78.3730  202.6076   70.6325 C   0  0  0  0  0  0  0  0  0  0  0  0
   88.5668  216.1188   67.6304 C   0  0  0  0  0  0  0  0  0  0  0  0
   79.2693  203.5747   71.0332 C   0  0  0  0  0  0  0  0  0  0  0  0
   88.7667  217.8396   69.2041 C   0  0  0  0  0  0  0  0  0  0  0  0
   90.6992  216.8730   68.3272 C   0  0  0  0  0  0  0  0  0  0  0  0
   87.9420  217.0228   68.4559 C   0  0  0  0  0  0  0  0  0  0  0  0
   89.9534  216.0126   67.5374 C   0  0  0  0  0  0  0  0  0  0  0  0
   79.2611  203.5964   72.5151 C   0  0  2  0  0  0  0  0  0  0  0  0
   81.7624  208.1471   71.1475 N   0  0  0  0  0  0  0  0  0  0  0  0
   86.0640  211.8532   66.8604 N   0  0  0  0  0  0  0  0  0  0  0  0
   86.9860  212.4009   66.0828 N   0  0  0  0  0  0  0  0  0  0  0  0
   90.1038  217.7625   69.1382 N   0  0  0  0  0  0  0  0  0  0  0  0
   87.8357  215.2248   66.7987 N   0  0  0  0  0  0  0  0  0  0  0  0
   82.5479  206.6881   69.4063 N   0  0  0  0  0  0  0  0  0  0  0  0
   80.8856  205.2949   70.6122 N   0  0  0  0  0  0  0  0  0  0  0  0
   78.3050  202.6105   72.9551 N   0  0  0  0  0  0  0  0  0  0  0  0
   86.5149  213.5240   65.5142 N   0  0  0  0  0  0  0  0  0  0  0  0
   83.0206  204.5278   70.0024 O   0  0  0  0  0  0  0  0  0  0  0  0
   76.8909  201.0707   71.7993 O   0  0  0  0  0  0  0  0  0  0  0  0
   83.8435  211.7993   68.6558 O   0  0  0  0  0  0  0  0  0  0  0  0
  3  1  2  0
  1 10  1  0
  4  2  1  0
  2 11  2  0
 12  3  1  0
 13  4  2  0
  7  5  2  0
  5  8  1  0
  9  6  2  0
  6 38  1  0
 29  7  1  0
 30  8  2  0
 26  9  1  0
 10 33  2  0
 11 34  1  0
 35 12  2  0
 36 13  1  0
 26 14  2  0
 14 28  1  0
 15 27  2  0
 46 15  1  0
 17 16  1  0
 16 19  1  0
 20 17  1  0
 18 21  1  0
 42 18  1  0
 37 19  1  6
 45 20  1  0
 21 46  1  0
 22 26  1  0
 49 22  1  0
 27 23  1  0
 23 49  1  0
 43 24  1  0
 24 44  1  0
 24 47  2  0
 30 25  1  0
 25 45  1  0
 25 48  2  0
 27 39  1  0
 28 38  2  0
 28 43  1  0
 29 32  2  0
 44 29  1  0
 32 30  1  0
 31 35  1  0
 31 36  2  0
 31 42  1  0
 32 37  1  0
 33 35  1  0
 33 41  1  0
 34 36  1  0
 34 41  2  0
 37 45  1  0
 39 40  2  0
 40 46  1  0
M  END
$$$$
