
     RDKit          3D

 49 56  0  0  0  0  0  0  0  0999 V2000
   86.7418  212.8959   72.0890 C   0  0  0  0  0  0  0  0  0  0  0  0
   90.5124  214.7413   66.3209 C   0  0  0  0  0  0  0  0  0  0  0  0
   85.5838  213.2434   71.4277 C   0  0  0  0  0  0  0  0  0  0  0  0
   89.3765  215.0995   65.6286 C   0  0  0  0  0  0  0  0  0  0  0  0
   82.2389  206.1698   74.5860 C   0  0  0  0  0  0  0  0  0  0  0  0
   80.8779  205.8336   66.9477 C   0  0  0  0  0  0  0  0  0  0  0  0
   81.5915  206.4745   73.3977 C   0  0  0  0  0  0  0  0  0  0  0  0
   83.5654  206.5170   74.7488 C   0  0  0  0  0  0  0  0  0  0  0  0
   80.7467  206.8583   66.0071 C   0  0  0  0  0  0  0  0  0  0  0  0
   87.9310  213.0456   71.4193 C   0  0  0  0  0  0  0  0  0  0  0  0
   90.4618  214.2615   67.6034 C   0  0  0  0  0  0  0  0  0  0  0  0
   85.5832  213.7329   70.1258 C   0  0  0  0  0  0  0  0  0  0  0  0
   88.1525  214.9704   66.2528 C   0  0  0  0  0  0  0  0  0  0  0  0
   79.7267  208.1438   67.7593 C   0  0  0  0  0  0  0  0  0  0  0  0
   82.6840  211.9448   64.9833 C   0  0  0  0  0  0  0  0  0  0  0  0
   85.1682  210.3846   70.7359 C   0  0  0  0  0  0  0  0  0  0  0  0
   86.4493  209.6359   70.4974 C   0  0  0  0  0  0  0  0  0  0  0  0
   84.6446  213.7765   67.4357 C   0  0  0  0  0  0  0  0  0  0  0  0
   84.0639  209.4987   71.2313 C   0  0  0  0  0  0  0  0  0  0  0  0
   86.9144  208.8761   71.7126 C   0  0  0  0  0  0  0  0  0  0  0  0
   83.9689  213.7996   66.0910 C   0  0  0  0  0  0  0  0  0  0  0  0
   79.9950  209.1750   65.4986 C   0  0  0  0  0  0  0  0  0  0  0  0
   81.9106  209.6528   64.0436 C   0  0  0  0  0  0  0  0  0  0  0  0
   80.2317  207.7026   71.0915 C   0  0  0  0  0  0  0  0  0  0  0  0
   85.6332  207.6454   73.6324 C   0  0  0  0  0  0  0  0  0  0  0  0
   80.1585  208.0083   66.4644 C   0  0  0  0  0  0  0  0  0  0  0  0
   82.8502  210.6058   64.7649 C   0  0  0  0  0  0  0  0  0  0  0  0
   79.8714  207.0989   68.6818 C   0  0  0  0  0  0  0  0  0  0  0  0
   82.2621  207.1181   72.3832 C   0  0  0  0  0  0  0  0  0  0  0  0
   84.2562  207.1716   73.7219 C   0  0  0  0  0  0  0  0  0  0  0  0
   86.8899  214.3402   68.2153 C   0  0  0  0  0  0  0  0  0  0  0  0
   83.5863  207.4606   72.5528 C   0  0  0  0  0  0  0  0  0  0  0  0
   87.9943  213.5307   70.1134 C   0  0  0  0  0  0  0  0  0  0  0  0
   89.2468  214.1263   68.2389 C   0  0  0  0  0  0  0  0  0  0  0  0
   86.8018  213.8634   69.5013 C   0  0  0  0  0  0  0  0  0  0  0  0
   88.1030  214.4872   67.5448 C   0  0  0  0  0  0  0  0  0  0  0  0
   84.5472  208.1370   71.6498 C   0  0  2  0  0  0  0  0  0  0  0  0
   80.4536  205.9724   68.2154 N   0  0  0  0  0  0  0  0  0  0  0  0
   84.0198  210.2910   65.3225 N   0  0  0  0  0  0  0  0  0  0  0  0
   84.5477  211.3821   65.8567 N   0  0  0  0  0  0  0  0  0  0  0  0
   89.1777  213.6597   69.4962 N   0  0  0  0  0  0  0  0  0  0  0  0
   85.7391  214.7285   67.4734 N   0  0  0  0  0  0  0  0  0  0  0  0
   79.4456  207.1876   70.0278 N   0  0  0  0  0  0  0  0  0  0  0  0
   81.6434  207.4586   71.1479 N   0  0  0  0  0  0  0  0  0  0  0  0
   85.8000  208.2441   72.3561 N   0  0  0  0  0  0  0  0  0  0  0  0
   83.7393  212.4384   65.6642 N   0  0  0  0  0  0  0  0  0  0  0  0
   79.6455  208.3766   71.9750 O   0  0  0  0  0  0  0  0  0  0  0  0
   86.5227  207.5467   74.5235 O   0  0  0  0  0  0  0  0  0  0  0  0
   80.9187  209.3653   64.7103 O   0  0  0  0  0  0  0  0  0  0  0  0
  3  1  2  0
  1 10  1  0
  4  2  1  0
  2 11  2  0
 12  3  1  0
 13  4  2  0
  7  5  2  0
  5  8  1  0
  9  6  2  0
  6 38  1  0
 29  7  1  0
 30  8  2  0
 26  9  1  0
 10 33  2  0
 11 34  1  0
 35 12  2  0
 36 13  1  0
 26 14  2  0
 14 28  1  0
 15 27  2  0
 46 15  1  0
 17 16  1  0
 16 19  1  0
 20 17  1  0
 18 21  1  0
 42 18  1  0
 37 19  1  1
 45 20  1  0
 21 46  1  0
 22 26  1  0
 49 22  1  0
 27 23  1  0
 23 49  1  0
 43 24  1  0
 24 44  1  0
 24 47  2  0
 30 25  1  0
 25 45  1  0
 25 48  2  0
 27 39  1  0
 28 38  2  0
 28 43  1  0
 29 32  2  0
 44 29  1  0
 32 30  1  0
 31 35  1  0
 31 36  2  0
 31 42  1  0
 32 37  1  0
 33 35  1  0
 33 41  1  0
 34 36  1  0
 34 41  2  0
 37 45  1  0
 39 40  2  0
 40 46  1  0
M  END
$$$$
