
     RDKit          3D

 49 56  0  0  0  0  0  0  0  0999 V2000
   86.6640  219.6502   69.8355 C   0  0  0  0  0  0  0  0  0  0  0  0
   92.5350  215.9868   68.1019 C   0  0  0  0  0  0  0  0  0  0  0  0
   85.9683  218.9741   68.8567 C   0  0  0  0  0  0  0  0  0  0  0  0
   91.8728  215.2917   67.1140 C   0  0  0  0  0  0  0  0  0  0  0  0
   79.3195  202.5292   67.7209 C   0  0  0  0  0  0  0  0  0  0  0  0
   84.2076  206.5867   71.2767 C   0  0  0  0  0  0  0  0  0  0  0  0
   79.6482  203.2269   68.8738 C   0  0  0  0  0  0  0  0  0  0  0  0
   78.8122  201.2487   67.8195 C   0  0  0  0  0  0  0  0  0  0  0  0
   84.2538  207.8621   70.7082 C   0  0  0  0  0  0  0  0  0  0  0  0
   87.9923  219.3457   70.0031 C   0  0  0  0  0  0  0  0  0  0  0  0
   91.9070  216.9273   68.8756 C   0  0  0  0  0  0  0  0  0  0  0  0
   86.5605  218.0101   68.0476 C   0  0  0  0  0  0  0  0  0  0  0  0
   90.5354  215.5571   66.9006 C   0  0  0  0  0  0  0  0  0  0  0  0
   82.0885  207.3774   69.7918 C   0  0  0  0  0  0  0  0  0  0  0  0
   85.4533  212.1718   66.5015 C   0  0  0  0  0  0  0  0  0  0  0  0
   77.0462  200.1665   73.2361 C   0  0  0  0  0  0  0  0  0  0  0  0
   77.6966  198.8121   73.1988 C   0  0  0  0  0  0  0  0  0  0  0  0
   86.5189  215.7203   66.7006 C   0  0  0  0  0  0  0  0  0  0  0  0
   77.7122  201.1536   72.3242 C   0  0  0  0  0  0  0  0  0  0  0  0
   77.7765  198.2430   71.8059 C   0  0  0  0  0  0  0  0  0  0  0  0
   86.1380  214.5114   65.8888 C   0  0  0  0  0  0  0  0  0  0  0  0
   83.1312  209.6006   69.3268 C   0  0  0  0  0  0  0  0  0  0  0  0
   84.9865  209.9518   67.7617 C   0  0  0  0  0  0  0  0  0  0  0  0
   80.2072  204.6964   71.2992 C   0  0  0  0  0  0  0  0  0  0  0  0
   78.1207  199.3427   69.4578 C   0  0  0  0  0  0  0  0  0  0  0  0
   83.1585  208.2180   69.9657 C   0  0  0  0  0  0  0  0  0  0  0  0
   85.4655  211.3878   67.6211 C   0  0  0  0  0  0  0  0  0  0  0  0
   82.0693  206.1029   70.3742 C   0  0  0  0  0  0  0  0  0  0  0  0
   79.4729  202.6514   70.1112 C   0  0  0  0  0  0  0  0  0  0  0  0
   78.6308  200.6547   69.0742 C   0  0  0  0  0  0  0  0  0  0  0  0
   88.5551  216.8065   67.5009 C   0  0  0  0  0  0  0  0  0  0  0  0
   78.9670  201.3726   70.2014 C   0  0  0  0  0  0  0  0  0  0  0  0
   88.6411  218.3889   69.2231 C   0  0  0  0  0  0  0  0  0  0  0  0
   90.5719  217.2021   68.6746 C   0  0  0  0  0  0  0  0  0  0  0  0
   87.8936  217.7441   68.2573 C   0  0  0  0  0  0  0  0  0  0  0  0
   89.9040  216.5049   67.6804 C   0  0  0  0  0  0  0  0  0  0  0  0
   78.6846  200.5106   71.3735 C   0  0  2  0  0  0  0  0  0  0  0  0
   83.1562  205.7676   71.1034 N   0  0  0  0  0  0  0  0  0  0  0  0
   85.9867  212.1450   68.5870 N   0  0  0  0  0  0  0  0  0  0  0  0
   86.2817  213.3354   68.0867 N   0  0  0  0  0  0  0  0  0  0  0  0
   89.9400  218.1218   69.4217 N   0  0  0  0  0  0  0  0  0  0  0  0
   87.9059  216.0764   66.4660 N   0  0  0  0  0  0  0  0  0  0  0  0
   80.9911  205.1991   70.2279 N   0  0  0  0  0  0  0  0  0  0  0  0
   79.7884  203.3254   71.3240 N   0  0  0  0  0  0  0  0  0  0  0  0
   78.1515  199.2667   70.8750 N   0  0  0  0  0  0  0  0  0  0  0  0
   85.9616  213.3899   66.7824 N   0  0  0  0  0  0  0  0  0  0  0  0
   79.8978  205.4949   72.2185 O   0  0  0  0  0  0  0  0  0  0  0  0
   77.7209  198.4331   68.6782 O   0  0  0  0  0  0  0  0  0  0  0  0
   84.0183  209.8432   68.5113 O   0  0  0  0  0  0  0  0  0  0  0  0
  3  1  2  0
  1 10  1  0
  4  2  1  0
  2 11  2  0
 12  3  1  0
 13  4  2  0
  7  5  2  0
  5  8  1  0
  9  6  2  0
  6 38  1  0
 29  7  1  0
 30  8  2  0
 26  9  1  0
 10 33  2  0
 11 34  1  0
 35 12  2  0
 36 13  1  0
 26 14  2  0
 14 28  1  0
 15 27  2  0
 46 15  1  0
 17 16  1  0
 16 19  1  0
 20 17  1  0
 18 21  1  0
 42 18  1  0
 37 19  1  1
 45 20  1  0
 21 46  1  0
 22 26  1  0
 49 22  1  0
 27 23  1  0
 23 49  1  0
 43 24  1  0
 24 44  1  0
 24 47  2  0
 30 25  1  0
 25 45  1  0
 25 48  2  0
 27 39  1  0
 28 38  2  0
 28 43  1  0
 29 32  2  0
 44 29  1  0
 32 30  1  0
 31 35  1  0
 31 36  2  0
 31 42  1  0
 32 37  1  0
 33 35  1  0
 33 41  1  0
 34 36  1  0
 34 41  2  0
 37 45  1  0
 39 40  2  0
 40 46  1  0
M  END
$$$$
