
     RDKit          3D

 49 56  0  0  0  0  0  0  0  0999 V2000
   86.2478  218.3852   69.3223 C   0  0  0  0  0  0  0  0  0  0  0  0
   92.6872  216.5762   66.8413 C   0  0  0  0  0  0  0  0  0  0  0  0
   86.0605  217.0874   69.7466 C   0  0  0  0  0  0  0  0  0  0  0  0
   92.5355  215.2695   67.2506 C   0  0  0  0  0  0  0  0  0  0  0  0
   78.1412  203.1229   67.9929 C   0  0  0  0  0  0  0  0  0  0  0  0
   82.4754  208.2272   71.1484 C   0  0  0  0  0  0  0  0  0  0  0  0
   78.2725  203.9117   69.1264 C   0  0  0  0  0  0  0  0  0  0  0  0
   78.2082  201.7484   68.1066 C   0  0  0  0  0  0  0  0  0  0  0  0
   82.4391  209.2037   70.1498 C   0  0  0  0  0  0  0  0  0  0  0  0
   87.4328  218.6904   68.6996 C   0  0  0  0  0  0  0  0  0  0  0  0
   91.7143  217.5195   67.0437 C   0  0  0  0  0  0  0  0  0  0  0  0
   87.0183  216.0952   69.5660 C   0  0  0  0  0  0  0  0  0  0  0  0
   91.3636  214.9054   67.8820 C   0  0  0  0  0  0  0  0  0  0  0  0
   80.3646  208.2147   69.4557 C   0  0  0  0  0  0  0  0  0  0  0  0
   85.4489  212.0891   68.3985 C   0  0  0  0  0  0  0  0  0  0  0  0
   77.5813  200.1269   73.6391 C   0  0  0  0  0  0  0  0  0  0  0  0
   78.7170  199.1520   73.5028 C   0  0  0  0  0  0  0  0  0  0  0  0
   87.8086  213.5180   68.7854 C   0  0  0  0  0  0  0  0  0  0  0  0
   77.6962  201.2851   72.6930 C   0  0  0  0  0  0  0  0  0  0  0  0
   78.8811  198.6427   72.0942 C   0  0  0  0  0  0  0  0  0  0  0  0
   87.1589  212.9589   70.0226 C   0  0  0  0  0  0  0  0  0  0  0  0
   81.2361  210.2004   68.2132 C   0  0  0  0  0  0  0  0  0  0  0  0
   83.3902  210.9458   67.3080 C   0  0  0  0  0  0  0  0  0  0  0  0
   79.5158  205.2022   71.6030 C   0  0  0  0  0  0  0  0  0  0  0  0
   78.5145  199.7512   69.7536 C   0  0  0  0  0  0  0  0  0  0  0  0
   81.3515  209.1575   69.3176 C   0  0  0  0  0  0  0  0  0  0  0  0
   84.2861  211.3733   68.4596 C   0  0  0  0  0  0  0  0  0  0  0  0
   80.4271  207.2468   70.4672 C   0  0  0  0  0  0  0  0  0  0  0  0
   78.4696  203.3336   70.3593 C   0  0  0  0  0  0  0  0  0  0  0  0
   78.4089  201.1513   69.3569 C   0  0  0  0  0  0  0  0  0  0  0  0
   89.1847  215.5351   68.7176 C   0  0  0  0  0  0  0  0  0  0  0  0
   78.5364  201.9611   70.4646 C   0  0  0  0  0  0  0  0  0  0  0  0
   88.4308  217.7391   68.4904 C   0  0  0  0  0  0  0  0  0  0  0  0
   90.5396  217.1707   67.6735 C   0  0  0  0  0  0  0  0  0  0  0  0
   88.1871  216.4549   68.9362 C   0  0  0  0  0  0  0  0  0  0  0  0
   90.3843  215.8566   68.0850 C   0  0  0  0  0  0  0  0  0  0  0  0
   78.7455  201.0768   71.6354 C   0  0  2  0  0  0  0  0  0  0  0  0
   81.5053  207.3064   71.2793 N   0  0  0  0  0  0  0  0  0  0  0  0
   84.0843  211.1210   69.7532 N   0  0  0  0  0  0  0  0  0  0  0  0
   85.0742  211.6539   70.4536 N   0  0  0  0  0  0  0  0  0  0  0  0
   89.5740  218.0812   67.8789 N   0  0  0  0  0  0  0  0  0  0  0  0
   89.0589  214.1752   69.1180 N   0  0  0  0  0  0  0  0  0  0  0  0
   79.4362  206.2549   70.6541 N   0  0  0  0  0  0  0  0  0  0  0  0
   78.6046  204.0964   71.5529 N   0  0  0  0  0  0  0  0  0  0  0  0
   78.7146  199.7161   71.1586 N   0  0  0  0  0  0  0  0  0  0  0  0
   85.9487  212.2689   69.6390 N   0  0  0  0  0  0  0  0  0  0  0  0
   80.4106  205.2772   72.4818 O   0  0  0  0  0  0  0  0  0  0  0  0
   78.4415  198.7457   68.9929 O   0  0  0  0  0  0  0  0  0  0  0  0
   82.2873  210.5525   67.6824 O   0  0  0  0  0  0  0  0  0  0  0  0
  3  1  2  0
  1 10  1  0
  4  2  1  0
  2 11  2  0
 12  3  1  0
 13  4  2  0
  7  5  2  0
  5  8  1  0
  9  6  2  0
  6 38  1  0
 29  7  1  0
 30  8  2  0
 26  9  1  0
 10 33  2  0
 11 34  1  0
 35 12  2  0
 36 13  1  0
 26 14  2  0
 14 28  1  0
 15 27  2  0
 46 15  1  0
 17 16  1  0
 16 19  1  0
 20 17  1  0
 18 21  1  0
 42 18  1  0
 37 19  1  1
 45 20  1  0
 21 46  1  0
 22 26  1  0
 49 22  1  0
 27 23  1  0
 23 49  1  0
 43 24  1  0
 24 44  1  0
 24 47  2  0
 30 25  1  0
 25 45  1  0
 25 48  2  0
 27 39  1  0
 28 38  2  0
 28 43  1  0
 29 32  2  0
 44 29  1  0
 32 30  1  0
 31 35  1  0
 31 36  2  0
 31 42  1  0
 32 37  1  0
 33 35  1  0
 33 41  1  0
 34 36  1  0
 34 41  2  0
 37 45  1  0
 39 40  2  0
 40 46  1  0
M  END
$$$$
