
     RDKit          3D

 49 56  0  0  0  0  0  0  0  0999 V2000
   87.2390  220.1931   68.1920 C   0  0  0  0  0  0  0  0  0  0  0  0
   92.4862  215.5876   66.7258 C   0  0  0  0  0  0  0  0  0  0  0  0
   86.8312  219.3796   69.2270 C   0  0  0  0  0  0  0  0  0  0  0  0
   92.1075  214.7490   67.7511 C   0  0  0  0  0  0  0  0  0  0  0  0
   78.0299  202.5657   71.2337 C   0  0  0  0  0  0  0  0  0  0  0  0
   82.7200  208.3889   67.6977 C   0  0  0  0  0  0  0  0  0  0  0  0
   78.2266  203.7470   70.5336 C   0  0  0  0  0  0  0  0  0  0  0  0
   77.6064  201.4365   70.5612 C   0  0  0  0  0  0  0  0  0  0  0  0
   83.6254  208.6272   68.7348 C   0  0  0  0  0  0  0  0  0  0  0  0
   88.3253  219.7934   67.4535 C   0  0  0  0  0  0  0  0  0  0  0  0
   91.8205  216.7546   66.4568 C   0  0  0  0  0  0  0  0  0  0  0  0
   87.4750  218.1872   69.5402 C   0  0  0  0  0  0  0  0  0  0  0  0
   91.0213  215.1003   68.5266 C   0  0  0  0  0  0  0  0  0  0  0  0
   82.1163  207.4019   70.1436 C   0  0  0  0  0  0  0  0  0  0  0  0
   85.4845  212.8192   70.8618 C   0  0  0  0  0  0  0  0  0  0  0  0
   78.3073  202.0863   64.8413 C   0  0  0  0  0  0  0  0  0  0  0  0
   76.9433  201.5080   64.5884 C   0  0  0  0  0  0  0  0  0  0  0  0
   88.4028  214.4694   69.6442 C   0  0  0  0  0  0  0  0  0  0  0  0
   78.4174  202.7428   66.1854 C   0  0  0  0  0  0  0  0  0  0  0  0
   76.5121  200.5426   65.6619 C   0  0  0  0  0  0  0  0  0  0  0  0
   86.8992  214.4524   69.5776 C   0  0  0  0  0  0  0  0  0  0  0  0
   84.2234  208.3151   71.1298 C   0  0  0  0  0  0  0  0  0  0  0  0
   84.3783  210.6684   71.8027 C   0  0  0  0  0  0  0  0  0  0  0  0
   79.5056  205.5437   68.2664 C   0  0  0  0  0  0  0  0  0  0  0  0
   76.9347  200.4546   68.2417 C   0  0  0  0  0  0  0  0  0  0  0  0
   83.2771  208.1079   69.9540 C   0  0  0  0  0  0  0  0  0  0  0  0
   85.3303  211.4625   70.9225 C   0  0  0  0  0  0  0  0  0  0  0  0
   81.2263  207.1779   69.0845 C   0  0  0  0  0  0  0  0  0  0  0  0
   78.0017  203.7996   69.1772 C   0  0  0  0  0  0  0  0  0  0  0  0
   77.3746  201.4806   69.1812 C   0  0  0  0  0  0  0  0  0  0  0  0
   89.2492  216.6713   69.0104 C   0  0  0  0  0  0  0  0  0  0  0  0
   77.5782  202.6686   68.5132 C   0  0  0  0  0  0  0  0  0  0  0  0
   89.0117  218.6091   67.7196 C   0  0  0  0  0  0  0  0  0  0  0  0
   90.7350  217.1186   67.2234 C   0  0  0  0  0  0  0  0  0  0  0  0
   88.5574  217.8340   68.7684 C   0  0  0  0  0  0  0  0  0  0  0  0
   90.3514  216.2760   68.2545 C   0  0  0  0  0  0  0  0  0  0  0  0
   77.2533  202.4334   67.0865 C   0  0  2  0  0  0  0  0  0  0  0  0
   81.5845  207.6959   67.8892 N   0  0  0  0  0  0  0  0  0  0  0  0
   86.1983  210.9603   70.0437 N   0  0  0  0  0  0  0  0  0  0  0  0
   86.8534  211.9583   69.4698 N   0  0  0  0  0  0  0  0  0  0  0  0
   90.0690  218.2577   66.9735 N   0  0  0  0  0  0  0  0  0  0  0  0
   88.8809  215.7767   70.0542 N   0  0  0  0  0  0  0  0  0  0  0  0
   80.0184  206.4556   69.2257 N   0  0  0  0  0  0  0  0  0  0  0  0
   78.1938  204.9836   68.4118 N   0  0  0  0  0  0  0  0  0  0  0  0
   76.8700  201.0494   66.9544 N   0  0  0  0  0  0  0  0  0  0  0  0
   86.4333  213.1384   69.9570 N   0  0  0  0  0  0  0  0  0  0  0  0
   80.2415  205.2494   67.2916 O   0  0  0  0  0  0  0  0  0  0  0  0
   76.6600  199.2523   68.5142 O   0  0  0  0  0  0  0  0  0  0  0  0
   84.3586  209.4711   71.5250 O   0  0  0  0  0  0  0  0  0  0  0  0
  3  1  2  0
  1 10  1  0
  4  2  1  0
  2 11  2  0
 12  3  1  0
 13  4  2  0
  7  5  2  0
  5  8  1  0
  9  6  2  0
  6 38  1  0
 29  7  1  0
 30  8  2  0
 26  9  1  0
 10 33  2  0
 11 34  1  0
 35 12  2  0
 36 13  1  0
 26 14  2  0
 14 28  1  0
 15 27  2  0
 46 15  1  0
 17 16  1  0
 16 19  1  0
 20 17  1  0
 18 21  1  0
 42 18  1  0
 37 19  1  6
 45 20  1  0
 21 46  1  0
 22 26  1  0
 49 22  1  0
 27 23  1  0
 23 49  1  0
 43 24  1  0
 24 44  1  0
 24 47  2  0
 30 25  1  0
 25 45  1  0
 25 48  2  0
 27 39  1  0
 28 38  2  0
 28 43  1  0
 29 32  2  0
 44 29  1  0
 32 30  1  0
 31 35  1  0
 31 36  2  0
 31 42  1  0
 32 37  1  0
 33 35  1  0
 33 41  1  0
 34 36  1  0
 34 41  2  0
 37 45  1  0
 39 40  2  0
 40 46  1  0
M  END
$$$$
