
     RDKit          3D

 49 56  0  0  0  0  0  0  0  0999 V2000
   92.6039  215.0647   66.0274 C   0  0  0  0  0  0  0  0  0  0  0  0
   89.4910  210.4990   70.5394 C   0  0  0  0  0  0  0  0  0  0  0  0
   91.4917  215.8753   66.1001 C   0  0  0  0  0  0  0  0  0  0  0  0
   88.3625  211.2830   70.6365 C   0  0  0  0  0  0  0  0  0  0  0  0
   77.8274  201.3038   69.0875 C   0  0  0  0  0  0  0  0  0  0  0  0
   78.3977  208.4332   72.3727 C   0  0  0  0  0  0  0  0  0  0  0  0
   78.4311  202.5363   69.2890 C   0  0  0  0  0  0  0  0  0  0  0  0
   77.7184  200.7986   67.8071 C   0  0  0  0  0  0  0  0  0  0  0  0
   78.8967  209.7320   72.2462 C   0  0  0  0  0  0  0  0  0  0  0  0
   92.5995  213.9044   66.7615 C   0  0  0  0  0  0  0  0  0  0  0  0
   90.5587  210.8543   69.7576 C   0  0  0  0  0  0  0  0  0  0  0  0
   90.3846  215.5591   66.8804 C   0  0  0  0  0  0  0  0  0  0  0  0
   88.3112  212.4612   69.9196 C   0  0  0  0  0  0  0  0  0  0  0  0
   79.5542  209.1111   70.0224 C   0  0  0  0  0  0  0  0  0  0  0  0
   84.4073  213.1783   70.5487 C   0  0  0  0  0  0  0  0  0  0  0  0
   81.2309  203.6542   64.1823 C   0  0  0  0  0  0  0  0  0  0  0  0
   80.1393  203.7291   63.1519 C   0  0  0  0  0  0  0  0  0  0  0  0
   86.9449  214.0441   68.5730 C   0  0  0  0  0  0  0  0  0  0  0  0
   80.7000  203.5687   65.5825 C   0  0  0  0  0  0  0  0  0  0  0  0
   79.1617  202.5871   63.2555 C   0  0  0  0  0  0  0  0  0  0  0  0
   85.9271  214.8041   69.3804 C   0  0  0  0  0  0  0  0  0  0  0  0
   80.0261  211.4313   70.8223 C   0  0  0  0  0  0  0  0  0  0  0  0
   82.4457  211.6027   71.1846 C   0  0  0  0  0  0  0  0  0  0  0  0
   79.1090  205.4317   69.3914 C   0  0  0  0  0  0  0  0  0  0  0  0
   78.2296  201.2293   65.2874 C   0  0  0  0  0  0  0  0  0  0  0  0
   79.4726  210.0287   71.0388 C   0  0  0  0  0  0  0  0  0  0  0  0
   83.2006  212.5850   70.3033 C   0  0  0  0  0  0  0  0  0  0  0  0
   79.0447  207.8148   70.1772 C   0  0  0  0  0  0  0  0  0  0  0  0
   78.9193  203.2563   68.2231 C   0  0  0  0  0  0  0  0  0  0  0  0
   78.2119  201.5243   66.7162 C   0  0  0  0  0  0  0  0  0  0  0  0
   89.3803  213.9979   68.3905 C   0  0  0  0  0  0  0  0  0  0  0  0
   78.8059  202.7460   66.9479 C   0  0  0  0  0  0  0  0  0  0  0  0
   91.5195  213.5339   67.5622 C   0  0  0  0  0  0  0  0  0  0  0  0
   90.5220  212.0282   69.0371 C   0  0  0  0  0  0  0  0  0  0  0  0
   90.4324  214.3849   67.5954 C   0  0  0  0  0  0  0  0  0  0  0  0
   89.3873  212.8178   69.1323 C   0  0  0  0  0  0  0  0  0  0  0  0
   79.2226  203.2899   65.6337 C   0  0  2  0  0  0  0  0  0  0  0  0
   78.4798  207.5385   71.3731 N   0  0  0  0  0  0  0  0  0  0  0  0
   82.8081  213.0422   69.1139 N   0  0  0  0  0  0  0  0  0  0  0  0
   83.7269  213.8763   68.6506 N   0  0  0  0  0  0  0  0  0  0  0  0
   91.5581  212.3920   68.2640 N   0  0  0  0  0  0  0  0  0  0  0  0
   88.1954  214.7774   68.5075 N   0  0  0  0  0  0  0  0  0  0  0  0
   79.1013  206.8323   69.1612 N   0  0  0  0  0  0  0  0  0  0  0  0
   79.5519  204.5218   68.3757 N   0  0  0  0  0  0  0  0  0  0  0  0
   78.8599  202.3188   64.6310 N   0  0  0  0  0  0  0  0  0  0  0  0
   84.7440  213.9869   69.5222 N   0  0  0  0  0  0  0  0  0  0  0  0
   78.7157  205.0239   70.5128 O   0  0  0  0  0  0  0  0  0  0  0  0
   77.7710  200.1948   64.7266 O   0  0  0  0  0  0  0  0  0  0  0  0
   81.2436  211.5610   70.9312 O   0  0  0  0  0  0  0  0  0  0  0  0
  3  1  2  0
  1 10  1  0
  4  2  1  0
  2 11  2  0
 12  3  1  0
 13  4  2  0
  7  5  2  0
  5  8  1  0
  9  6  2  0
  6 38  1  0
 29  7  1  0
 30  8  2  0
 26  9  1  0
 10 33  2  0
 11 34  1  0
 35 12  2  0
 36 13  1  0
 26 14  2  0
 14 28  1  0
 15 27  2  0
 46 15  1  0
 17 16  1  0
 16 19  1  0
 20 17  1  0
 18 21  1  0
 42 18  1  0
 37 19  1  1
 45 20  1  0
 21 46  1  0
 22 26  1  0
 49 22  1  0
 27 23  1  0
 23 49  1  0
 43 24  1  0
 24 44  1  0
 24 47  2  0
 30 25  1  0
 25 45  1  0
 25 48  2  0
 27 39  1  0
 28 38  2  0
 28 43  1  0
 29 32  2  0
 44 29  1  0
 32 30  1  0
 31 35  1  0
 31 36  2  0
 31 42  1  0
 32 37  1  0
 33 35  1  0
 33 41  1  0
 34 36  1  0
 34 41  2  0
 37 45  1  0
 39 40  2  0
 40 46  1  0
M  END
$$$$
