
     RDKit          3D

 49 56  0  0  0  0  0  0  0  0999 V2000
   92.8952  214.9639   66.7262 C   0  0  0  0  0  0  0  0  0  0  0  0
   86.7849  218.3392   68.1980 C   0  0  0  0  0  0  0  0  0  0  0  0
   92.2115  213.7678   66.6915 C   0  0  0  0  0  0  0  0  0  0  0  0
   86.0682  217.1629   68.1723 C   0  0  0  0  0  0  0  0  0  0  0  0
   82.0655  202.6481   69.2061 C   0  0  0  0  0  0  0  0  0  0  0  0
   81.5674  208.7146   73.0298 C   0  0  0  0  0  0  0  0  0  0  0  0
   81.6251  203.9634   69.2135 C   0  0  0  0  0  0  0  0  0  0  0  0
   81.2966  201.6745   68.5998 C   0  0  0  0  0  0  0  0  0  0  0  0
   81.9084  210.0670   72.9465 C   0  0  0  0  0  0  0  0  0  0  0  0
   92.1778  216.1038   66.9929 C   0  0  0  0  0  0  0  0  0  0  0  0
   88.1355  218.3733   67.9694 C   0  0  0  0  0  0  0  0  0  0  0  0
   90.8414  213.6819   66.9150 C   0  0  0  0  0  0  0  0  0  0  0  0
   86.7379  215.9852   67.9095 C   0  0  0  0  0  0  0  0  0  0  0  0
   81.2583  209.9429   70.6389 C   0  0  0  0  0  0  0  0  0  0  0  0
   84.7650  213.1808   69.2113 C   0  0  0  0  0  0  0  0  0  0  0  0
   77.2865  204.0838   65.1727 C   0  0  0  0  0  0  0  0  0  0  0  0
   76.2409  203.1421   65.7007 C   0  0  0  0  0  0  0  0  0  0  0  0
   87.0738  213.5282   66.3327 C   0  0  0  0  0  0  0  0  0  0  0  0
   78.3877  204.3376   66.1589 C   0  0  0  0  0  0  0  0  0  0  0  0
   76.8197  201.8304   66.1643 C   0  0  0  0  0  0  0  0  0  0  0  0
   85.6759  213.4946   66.8897 C   0  0  0  0  0  0  0  0  0  0  0  0
   82.0718  212.1219   71.5533 C   0  0  0  0  0  0  0  0  0  0  0  0
   84.4690  212.6103   71.7256 C   0  0  0  0  0  0  0  0  0  0  0  0
   80.0237  206.4602   69.7674 C   0  0  0  0  0  0  0  0  0  0  0  0
   79.0901  201.1954   67.2971 C   0  0  0  0  0  0  0  0  0  0  0  0
   81.7346  210.6454   71.7165 C   0  0  0  0  0  0  0  0  0  0  0  0
   85.2248  212.7127   70.4104 C   0  0  0  0  0  0  0  0  0  0  0  0
   80.9240  208.5866   70.7516 C   0  0  0  0  0  0  0  0  0  0  0  0
   80.4296  204.3020   68.6227 C   0  0  0  0  0  0  0  0  0  0  0  0
   80.0785  202.0094   67.9964 C   0  0  0  0  0  0  0  0  0  0  0  0
   88.8167  214.8572   67.4108 C   0  0  0  0  0  0  0  0  0  0  0  0
   79.6673  203.3245   68.0204 C   0  0  0  0  0  0  0  0  0  0  0  0
   90.8028  216.0812   67.2248 C   0  0  0  0  0  0  0  0  0  0  0  0
   88.8172  217.2055   67.7048 C   0  0  0  0  0  0  0  0  0  0  0  0
   90.1712  214.8540   67.1780 C   0  0  0  0  0  0  0  0  0  0  0  0
   88.0985  216.0210   67.6798 C   0  0  0  0  0  0  0  0  0  0  0  0
   78.3591  203.3900   67.3269 C   0  0  2  0  0  0  0  0  0  0  0  0
   81.1005  208.0316   71.9707 N   0  0  0  0  0  0  0  0  0  0  0  0
   86.4929  212.3594   70.1983 N   0  0  0  0  0  0  0  0  0  0  0  0
   86.7983  212.5972   68.9316 N   0  0  0  0  0  0  0  0  0  0  0  0
   90.1411  217.2191   67.4803 N   0  0  0  0  0  0  0  0  0  0  0  0
   88.0461  213.6607   67.4016 N   0  0  0  0  0  0  0  0  0  0  0  0
   80.4274  207.8177   69.6732 N   0  0  0  0  0  0  0  0  0  0  0  0
   79.9354  205.6361   68.5975 N   0  0  0  0  0  0  0  0  0  0  0  0
   78.0395  202.0556   66.8831 N   0  0  0  0  0  0  0  0  0  0  0  0
   85.7406  213.1122   68.2815 N   0  0  0  0  0  0  0  0  0  0  0  0
   79.7494  206.0124   70.9088 O   0  0  0  0  0  0  0  0  0  0  0  0
   79.1497  199.9507   67.0912 O   0  0  0  0  0  0  0  0  0  0  0  0
   83.2654  212.4149   71.5701 O   0  0  0  0  0  0  0  0  0  0  0  0
  3  1  2  0
  1 10  1  0
  4  2  1  0
  2 11  2  0
 12  3  1  0
 13  4  2  0
  7  5  2  0
  5  8  1  0
  9  6  2  0
  6 38  1  0
 29  7  1  0
 30  8  2  0
 26  9  1  0
 10 33  2  0
 11 34  1  0
 35 12  2  0
 36 13  1  0
 26 14  2  0
 14 28  1  0
 15 27  2  0
 46 15  1  0
 17 16  1  0
 16 19  1  0
 20 17  1  0
 18 21  1  0
 42 18  1  0
 37 19  1  6
 45 20  1  0
 21 46  1  0
 22 26  1  0
 49 22  1  0
 27 23  1  0
 23 49  1  0
 43 24  1  0
 24 44  1  0
 24 47  2  0
 30 25  1  0
 25 45  1  0
 25 48  2  0
 27 39  1  0
 28 38  2  0
 28 43  1  0
 29 32  2  0
 44 29  1  0
 32 30  1  0
 31 35  1  0
 31 36  2  0
 31 42  1  0
 32 37  1  0
 33 35  1  0
 33 41  1  0
 34 36  1  0
 34 41  2  0
 37 45  1  0
 39 40  2  0
 40 46  1  0
M  END
$$$$
