
     RDKit          3D

 49 56  0  0  0  0  0  0  0  0999 V2000
   92.7065  218.1038   66.6697 C   0  0  0  0  0  0  0  0  0  0  0  0
   86.0328  218.2262   69.1878 C   0  0  0  0  0  0  0  0  0  0  0  0
   92.5074  216.8095   66.2403 C   0  0  0  0  0  0  0  0  0  0  0  0
   85.7972  216.9336   68.7736 C   0  0  0  0  0  0  0  0  0  0  0  0
   75.6579  202.7044   67.8084 C   0  0  0  0  0  0  0  0  0  0  0  0
   82.7671  205.0137   67.7754 C   0  0  0  0  0  0  0  0  0  0  0  0
   76.7143  203.3231   68.4606 C   0  0  0  0  0  0  0  0  0  0  0  0
   74.7117  202.0167   68.5422 C   0  0  0  0  0  0  0  0  0  0  0  0
   83.2382  206.3253   67.6760 C   0  0  0  0  0  0  0  0  0  0  0  0
   91.6641  218.7363   67.3010 C   0  0  0  0  0  0  0  0  0  0  0  0
   87.2361  218.8482   68.9818 C   0  0  0  0  0  0  0  0  0  0  0  0
   91.3042  216.1364   66.4243 C   0  0  0  0  0  0  0  0  0  0  0  0
   86.8098  216.2486   68.1334 C   0  0  0  0  0  0  0  0  0  0  0  0
   81.1449  206.9997   68.6387 C   0  0  0  0  0  0  0  0  0  0  0  0
   86.1867  210.9107   67.4849 C   0  0  0  0  0  0  0  0  0  0  0  0
   75.0701  203.4210   74.1574 C   0  0  0  0  0  0  0  0  0  0  0  0
   74.9432  201.9751   74.5476 C   0  0  0  0  0  0  0  0  0  0  0  0
   87.4779  214.3762   67.2009 C   0  0  0  0  0  0  0  0  0  0  0  0
   75.6694  203.6021   72.7945 C   0  0  0  0  0  0  0  0  0  0  0  0
   74.1675  201.1663   73.5402 C   0  0  0  0  0  0  0  0  0  0  0  0
   87.2894  212.9988   66.6239 C   0  0  0  0  0  0  0  0  0  0  0  0
   82.8336  208.7497   68.0626 C   0  0  0  0  0  0  0  0  0  0  0  0
   85.0803  209.1016   68.9809 C   0  0  0  0  0  0  0  0  0  0  0  0
   79.1529  204.0938   69.9161 C   0  0  0  0  0  0  0  0  0  0  0  0
   73.9709  201.2954   70.9352 C   0  0  0  0  0  0  0  0  0  0  0  0
   82.3821  207.2961   68.1259 C   0  0  0  0  0  0  0  0  0  0  0  0
   85.7320  210.4432   68.6862 C   0  0  0  0  0  0  0  0  0  0  0  0
   80.6983  205.6742   68.7266 C   0  0  0  0  0  0  0  0  0  0  0  0
   76.8245  203.2547   69.8304 C   0  0  0  0  0  0  0  0  0  0  0  0
   74.8158  201.9413   69.9364 C   0  0  0  0  0  0  0  0  0  0  0  0
   89.0732  216.2240   67.2853 C   0  0  0  0  0  0  0  0  0  0  0  0
   75.8767  202.5657   70.5558 C   0  0  0  0  0  0  0  0  0  0  0  0
   90.4345  218.1139   67.5141 C   0  0  0  0  0  0  0  0  0  0  0  0
   88.2560  218.1770   68.3432 C   0  0  0  0  0  0  0  0  0  0  0  0
   90.2932  216.8163   67.0628 C   0  0  0  0  0  0  0  0  0  0  0  0
   88.0216  216.8763   67.9268 C   0  0  0  0  0  0  0  0  0  0  0  0
   75.7441  202.3199   72.0113 C   0  0  2  0  0  0  0  0  0  0  0  0
   81.5541  204.7292   68.2794 N   0  0  0  0  0  0  0  0  0  0  0  0
   85.9729  211.4149   69.5669 N   0  0  0  0  0  0  0  0  0  0  0  0
   86.5483  212.4296   68.9392 N   0  0  0  0  0  0  0  0  0  0  0  0
   89.4428  218.7697   68.1341 N   0  0  0  0  0  0  0  0  0  0  0  0
   88.7973  214.8879   66.8800 N   0  0  0  0  0  0  0  0  0  0  0  0
   79.4338  205.3145   69.2484 N   0  0  0  0  0  0  0  0  0  0  0  0
   77.8846  203.8760   70.5481 N   0  0  0  0  0  0  0  0  0  0  0  0
   74.5471  201.5402   72.2093 N   0  0  0  0  0  0  0  0  0  0  0  0
   86.6986  212.1504   67.6331 N   0  0  0  0  0  0  0  0  0  0  0  0
   80.0533  203.2177   69.9304 O   0  0  0  0  0  0  0  0  0  0  0  0
   72.9158  200.6366   70.7163 O   0  0  0  0  0  0  0  0  0  0  0  0
   83.9709  208.9865   68.4641 O   0  0  0  0  0  0  0  0  0  0  0  0
  3  1  2  0
  1 10  1  0
  4  2  1  0
  2 11  2  0
 12  3  1  0
 13  4  2  0
  7  5  2  0
  5  8  1  0
  9  6  2  0
  6 38  1  0
 29  7  1  0
 30  8  2  0
 26  9  1  0
 10 33  2  0
 11 34  1  0
 35 12  2  0
 36 13  1  0
 26 14  2  0
 14 28  1  0
 15 27  2  0
 46 15  1  0
 17 16  1  0
 16 19  1  0
 20 17  1  0
 18 21  1  0
 42 18  1  0
 37 19  1  1
 45 20  1  0
 21 46  1  0
 22 26  1  0
 49 22  1  0
 27 23  1  0
 23 49  1  0
 43 24  1  0
 24 44  1  0
 24 47  2  0
 30 25  1  0
 25 45  1  0
 25 48  2  0
 27 39  1  0
 28 38  2  0
 28 43  1  0
 29 32  2  0
 44 29  1  0
 32 30  1  0
 31 35  1  0
 31 36  2  0
 31 42  1  0
 32 37  1  0
 33 35  1  0
 33 41  1  0
 34 36  1  0
 34 41  2  0
 37 45  1  0
 39 40  2  0
 40 46  1  0
M  END
$$$$
