
     RDKit          3D

 40 42  0  0  0  0  0  0  0  0999 V2000
  -15.8085   27.3672   -2.2657 C   0  0  1  0  0  0  0  0  0  0  0  0
  -14.8277   27.2670   -3.4069 C   0  0  1  0  0  0  0  0  0  0  0  0
  -15.3311   26.1590   -4.3159 C   0  0  2  0  0  0  0  0  0  0  0  0
  -15.1447   24.8736   -3.4983 C   0  0  1  0  0  0  0  0  0  0  0  0
  -15.5821   25.0422   -2.0797 C   0  0  1  0  0  0  0  0  0  0  0  0
  -14.4372   24.7690   -1.0978 C   0  0  0  0  0  0  0  0  0  0  0  0
  -15.5599   29.5701   -3.9908 C   0  0  0  0  0  0  0  0  0  0  0  0
  -16.8721   29.2702   -3.3783 C   0  0  0  0  0  0  0  0  0  0  0  0
  -14.6150   28.4952   -4.0886 N   0  0  0  0  0  0  0  0  0  0  0  0
  -14.5673   26.0718   -5.4719 O   0  0  0  0  0  0  0  0  0  0  0  0
  -15.7558   23.8005   -4.1444 O   0  0  0  0  0  0  0  0  0  0  0  0
  -16.2573   26.1839   -1.7923 O   0  0  0  0  0  0  0  0  0  0  0  0
  -14.8936   24.0389   -0.0046 O   0  0  0  0  0  0  0  0  0  0  0  0
  -15.2501   30.7101   -4.4195 O   0  0  0  0  0  0  0  0  0  0  0  0
  -14.5242   28.8965    1.5515 O   0  0  0  0  0  0  0  0  0  0  0  0
  -13.2279   28.8536    2.1194 C   0  0  2  0  0  0  0  0  0  0  0  0
  -12.3905   28.3877    1.0900 O   0  0  0  0  0  0  0  0  0  0  0  0
  -13.1917   27.8934    3.2869 C   0  0  2  0  0  0  0  0  0  0  0  0
  -12.2158   26.8660    3.1262 N   0  0  0  0  0  0  0  0  0  0  0  0
  -14.5633   27.3155    3.5767 C   0  0  1  0  0  0  0  0  0  0  0  0
  -15.4124   28.2369    4.1218 O   0  0  0  0  0  0  0  0  0  0  0  0
  -15.1904   26.7957    2.3006 C   0  0  1  0  0  0  0  0  0  0  0  0
  -16.6007   26.8401    2.4015 O   0  0  0  0  0  0  0  0  0  0  0  0
  -14.7567   27.5959    1.1110 C   0  0  1  0  0  0  0  0  0  0  0  0
  -15.7410   27.5422   -0.0207 C   0  0  0  0  0  0  0  0  0  0  0  0
  -15.2924   28.1066   -1.1881 O   0  0  0  0  0  0  0  0  0  0  0  0
  -11.2460   26.5889    4.1032 C   0  0  0  0  0  0  0  0  0  0  0  0
  -10.2411   27.3269    4.2818 O   0  0  0  0  0  0  0  0  0  0  0  0
  -11.3865   25.4007    4.9617 C   0  0  0  0  0  0  0  0  0  0  0  0
  -15.1061   28.6697    5.3871 C   0  0  1  0  0  0  0  0  0  0  0  0
  -15.8301   29.9211    5.8014 C   0  0  1  0  0  0  0  0  0  0  0  0
  -17.2255   29.5227    6.2302 C   0  0  2  0  0  0  0  0  0  0  0  0
  -17.2126   28.4515    7.2555 C   0  0  2  0  0  0  0  0  0  0  0  0
  -16.2426   27.3709    6.9325 C   0  0  1  0  0  0  0  0  0  0  0  0
  -16.9835   26.2942    6.1655 C   0  0  0  0  0  0  0  0  0  0  0  0
  -15.1997   30.5670    6.8529 O   0  0  0  0  0  0  0  0  0  0  0  0
  -18.0187   29.1580    5.1314 O   0  0  0  0  0  0  0  0  0  0  0  0
  -18.5315   27.9604    7.3498 O   0  0  0  0  0  0  0  0  0  0  0  0
  -15.0543   27.7263    6.3705 O   0  0  0  0  0  0  0  0  0  0  0  0
  -17.7105   25.4308    6.9671 O   0  0  0  0  0  0  0  0  0  0  0  0
  1  2  1  0
  1 12  1  0
  1 26  1  1
  2  3  1  0
  2  9  1  6
  3  4  1  0
  3 10  1  6
  5  4  1  0
  4 11  1  6
  5  6  1  1
 12  5  1  0
  6 13  1  0
  7  8  1  0
  9  7  1  0
  7 14  2  0
 15 16  1  0
 24 15  1  0
 16 17  1  6
 16 18  1  0
 18 19  1  6
 20 18  1  0
 19 27  1  0
 20 21  1  6
 22 20  1  0
 30 21  1  6
 22 23  1  1
 24 22  1  0
 24 25  1  6
 25 26  1  0
 27 28  2  0
 27 29  1  0
 30 31  1  0
 30 39  1  0
 31 32  1  0
 31 36  1  1
 32 33  1  0
 32 37  1  6
 33 34  1  0
 33 38  1  6
 34 35  1  6
 34 39  1  0
 35 40  1  0
M  END
$$$$
