
     RDKit          3D

 40 42  0  0  0  0  0  0  0  0999 V2000
  -16.8235   27.8633    2.0014 C   0  0  1  0  0  0  0  0  0  0  0  0
  -18.1527   28.1405    2.6575 C   0  0  1  0  0  0  0  0  0  0  0  0
  -18.9604   28.9657    1.6705 C   0  0  2  0  0  0  0  0  0  0  0  0
  -18.2380   30.3186    1.6154 C   0  0  1  0  0  0  0  0  0  0  0  0
  -16.7541   30.1601    1.5415 C   0  0  1  0  0  0  0  0  0  0  0  0
  -16.0522   30.8439    2.7200 C   0  0  0  0  0  0  0  0  0  0  0  0
  -19.5066   26.9347    4.3588 C   0  0  0  0  0  0  0  0  0  0  0  0
  -20.3987   25.7849    4.6219 C   0  0  0  0  0  0  0  0  0  0  0  0
  -18.8308   26.9709    3.0940 N   0  0  0  0  0  0  0  0  0  0  0  0
  -20.2566   29.1659    2.1254 O   0  0  0  0  0  0  0  0  0  0  0  0
  -18.7647   31.1030    0.5909 O   0  0  0  0  0  0  0  0  0  0  0  0
  -16.2961   28.9024    1.3172 O   0  0  0  0  0  0  0  0  0  0  0  0
  -16.1131   32.2280    2.5899 O   0  0  0  0  0  0  0  0  0  0  0  0
  -19.3237   27.8617    5.1873 O   0  0  0  0  0  0  0  0  0  0  0  0
  -16.4783   26.9098    0.3959 O   0  0  0  0  0  0  0  0  0  0  0  0
  -16.7140   26.2581   -0.8388 C   0  0  2  0  0  0  0  0  0  0  0  0
  -16.6078   24.8845   -0.5559 O   0  0  0  0  0  0  0  0  0  0  0  0
  -15.6693   26.6563   -1.8568 C   0  0  2  0  0  0  0  0  0  0  0  0
  -14.9618   25.5378   -2.3879 N   0  0  0  0  0  0  0  0  0  0  0  0
  -14.7203   27.7012   -1.3030 C   0  0  1  0  0  0  0  0  0  0  0  0
  -15.3156   28.9230   -1.1615 O   0  0  0  0  0  0  0  0  0  0  0  0
  -14.2043   27.2702    0.0534 C   0  0  1  0  0  0  0  0  0  0  0  0
  -13.8628   28.4059    0.8246 O   0  0  0  0  0  0  0  0  0  0  0  0
  -15.2223   26.4597    0.7953 C   0  0  1  0  0  0  0  0  0  0  0  0
  -15.0416   26.5141    2.2841 C   0  0  0  0  0  0  0  0  0  0  0  0
  -15.8641   27.4084    2.9216 O   0  0  0  0  0  0  0  0  0  0  0  0
  -15.3689   24.8749   -3.5569 C   0  0  0  0  0  0  0  0  0  0  0  0
  -15.7790   25.4949   -4.5736 O   0  0  0  0  0  0  0  0  0  0  0  0
  -15.3238   23.4044   -3.6213 C   0  0  0  0  0  0  0  0  0  0  0  0
  -15.1962   29.7822   -2.2243 C   0  0  1  0  0  0  0  0  0  0  0  0
  -16.3267   30.7661   -2.3503 C   0  0  1  0  0  0  0  0  0  0  0  0
  -16.0729   31.8848   -1.3634 C   0  0  2  0  0  0  0  0  0  0  0  0
  -14.7222   32.4762   -1.5216 C   0  0  2  0  0  0  0  0  0  0  0  0
  -13.6681   31.4410   -1.6949 C   0  0  1  0  0  0  0  0  0  0  0  0
  -13.1022   31.1191   -0.3265 C   0  0  0  0  0  0  0  0  0  0  0  0
  -16.4175   31.2989   -3.6262 O   0  0  0  0  0  0  0  0  0  0  0  0
  -16.2868   31.4652   -0.0414 O   0  0  0  0  0  0  0  0  0  0  0  0
  -14.4900   33.2746   -0.3822 O   0  0  0  0  0  0  0  0  0  0  0  0
  -13.9700   30.3400   -2.4371 O   0  0  0  0  0  0  0  0  0  0  0  0
  -12.6822   32.2301    0.3848 O   0  0  0  0  0  0  0  0  0  0  0  0
  1  2  1  0
  1 12  1  0
  1 26  1  1
  2  3  1  0
  2  9  1  6
  3  4  1  0
  3 10  1  1
  5  4  1  0
  4 11  1  6
  5  6  1  1
 12  5  1  0
  6 13  1  0
  7  8  1  0
  9  7  1  0
  7 14  2  0
 15 16  1  0
 24 15  1  0
 16 17  1  1
 16 18  1  0
 18 19  1  1
 20 18  1  0
 19 27  1  0
 20 21  1  1
 22 20  1  0
 30 21  1  1
 22 23  1  1
 24 22  1  0
 24 25  1  1
 25 26  1  0
 27 28  2  0
 27 29  1  0
 30 31  1  0
 30 39  1  0
 31 32  1  0
 31 36  1  6
 32 33  1  0
 32 37  1  1
 33 34  1  0
 33 38  1  1
 34 35  1  1
 34 39  1  0
 35 40  1  0
M  END
$$$$
