
     RDKit          3D

 40 42  0  0  0  0  0  0  0  0999 V2000
  -16.3522   26.6471   -1.2790 C   0  0  1  0  0  0  0  0  0  0  0  0
  -16.5952   26.8372   -2.7552 C   0  0  1  0  0  0  0  0  0  0  0  0
  -16.7915   25.4511   -3.3448 C   0  0  2  0  0  0  0  0  0  0  0  0
  -15.4125   24.7861   -3.2366 C   0  0  1  0  0  0  0  0  0  0  0  0
  -14.7705   25.0377   -1.9112 C   0  0  1  0  0  0  0  0  0  0  0  0
  -13.4227   25.7519   -2.0613 C   0  0  0  0  0  0  0  0  0  0  0  0
  -19.0224   27.3759   -2.7500 C   0  0  0  0  0  0  0  0  0  0  0  0
  -19.9458   27.1910   -3.8902 C   0  0  0  0  0  0  0  0  0  0  0  0
  -17.6639   27.7257   -3.0497 N   0  0  0  0  0  0  0  0  0  0  0  0
  -17.1534   25.5212   -4.6832 O   0  0  0  0  0  0  0  0  0  0  0  0
  -15.5044   23.4340   -3.5618 O   0  0  0  0  0  0  0  0  0  0  0  0
  -15.5586   25.6007   -0.9605 O   0  0  0  0  0  0  0  0  0  0  0  0
  -12.9625   26.1942   -0.8248 O   0  0  0  0  0  0  0  0  0  0  0  0
  -19.3788   27.2398   -1.5526 O   0  0  0  0  0  0  0  0  0  0  0  0
  -15.1727   28.7867    2.3082 O   0  0  0  0  0  0  0  0  0  0  0  0
  -14.9451   30.1526    2.6037 C   0  0  2  0  0  0  0  0  0  0  0  0
  -15.3538   30.8509    1.4533 O   0  0  0  0  0  0  0  0  0  0  0  0
  -13.4763   30.4018    2.8625 C   0  0  2  0  0  0  0  0  0  0  0  0
  -12.9228   31.3888    1.9948 N   0  0  0  0  0  0  0  0  0  0  0  0
  -12.6761   29.1144    2.8206 C   0  0  1  0  0  0  0  0  0  0  0  0
  -12.9206   28.3135    3.9002 O   0  0  0  0  0  0  0  0  0  0  0  0
  -13.0128   28.3318    1.5691 C   0  0  1  0  0  0  0  0  0  0  0  0
  -12.8012   26.9508    1.7905 O   0  0  0  0  0  0  0  0  0  0  0  0
  -14.4343   28.5510    1.1510 C   0  0  1  0  0  0  0  0  0  0  0  0
  -14.9875   27.4156    0.3404 C   0  0  0  0  0  0  0  0  0  0  0  0
  -15.8232   27.8013   -0.6771 O   0  0  0  0  0  0  0  0  0  0  0  0
  -12.7163   32.7174    2.3999 C   0  0  0  0  0  0  0  0  0  0  0  0
  -13.5928   33.6097    2.2518 O   0  0  0  0  0  0  0  0  0  0  0  0
  -11.4396   33.1058    3.0225 C   0  0  0  0  0  0  0  0  0  0  0  0
  -12.6463   28.8543    5.1308 C   0  0  1  0  0  0  0  0  0  0  0  0
  -13.1963   28.0646    6.2865 C   0  0  1  0  0  0  0  0  0  0  0  0
  -12.2559   26.9063    6.5393 C   0  0  2  0  0  0  0  0  0  0  0  0
  -10.8519   27.3514    6.7112 C   0  0  2  0  0  0  0  0  0  0  0  0
  -10.4542   28.3710    5.7036 C   0  0  1  0  0  0  0  0  0  0  0  0
   -9.8261   27.6460    4.5305 C   0  0  0  0  0  0  0  0  0  0  0  0
  -13.2981   28.8260    7.4398 O   0  0  0  0  0  0  0  0  0  0  0  0
  -12.3554   25.9320    5.5341 O   0  0  0  0  0  0  0  0  0  0  0  0
  -10.0451   26.1969    6.6346 O   0  0  0  0  0  0  0  0  0  0  0  0
  -11.3766   29.3051    5.3418 O   0  0  0  0  0  0  0  0  0  0  0  0
   -8.6101   28.1721    4.1290 O   0  0  0  0  0  0  0  0  0  0  0  0
  1  2  1  0
  1 12  1  0
  1 26  1  6
  2  3  1  0
  2  9  1  1
  3  4  1  0
  3 10  1  6
  5  4  1  0
  4 11  1  1
  5  6  1  6
 12  5  1  0
  6 13  1  0
  7  8  1  0
  9  7  1  0
  7 14  2  0
 15 16  1  0
 24 15  1  0
 16 17  1  6
 16 18  1  0
 18 19  1  6
 20 18  1  0
 19 27  1  0
 20 21  1  1
 22 20  1  0
 30 21  1  6
 22 23  1  1
 24 22  1  0
 24 25  1  1
 25 26  1  0
 27 28  2  0
 27 29  1  0
 30 31  1  0
 30 39  1  0
 31 32  1  0
 31 36  1  1
 32 33  1  0
 32 37  1  6
 33 34  1  0
 33 38  1  6
 34 35  1  6
 34 39  1  0
 35 40  1  0
M  END
$$$$
