
     RDKit          3D

 40 42  0  0  0  0  0  0  0  0999 V2000
  -15.6014   30.7591    4.1872 C   0  0  1  0  0  0  0  0  0  0  0  0
  -16.1627   30.7066    5.5859 C   0  0  1  0  0  0  0  0  0  0  0  0
  -15.7573   32.0034    6.2653 C   0  0  2  0  0  0  0  0  0  0  0  0
  -14.2351   31.8953    6.4279 C   0  0  1  0  0  0  0  0  0  0  0  0
  -13.5752   31.3653    5.1966 C   0  0  1  0  0  0  0  0  0  0  0  0
  -12.7991   30.0746    5.4810 C   0  0  0  0  0  0  0  0  0  0  0  0
  -18.2102   30.0994    6.8588 C   0  0  0  0  0  0  0  0  0  0  0  0
  -19.5703   30.6297    7.0952 C   0  0  0  0  0  0  0  0  0  0  0  0
  -17.5619   30.4654    5.6326 N   0  0  0  0  0  0  0  0  0  0  0  0
  -16.3373   32.1149    7.5216 O   0  0  0  0  0  0  0  0  0  0  0  0
  -13.7104   33.1122    6.8595 O   0  0  0  0  0  0  0  0  0  0  0  0
  -14.3558   31.2741    4.0901 O   0  0  0  0  0  0  0  0  0  0  0  0
  -11.9109   29.7991    4.4457 O   0  0  0  0  0  0  0  0  0  0  0  0
  -17.6150   29.3546    7.6775 O   0  0  0  0  0  0  0  0  0  0  0  0
  -16.2884   28.3554    0.9696 O   0  0  0  0  0  0  0  0  0  0  0  0
  -16.4752   26.9919    0.6367 C   0  0  2  0  0  0  0  0  0  0  0  0
  -16.2617   26.2880    1.8354 O   0  0  0  0  0  0  0  0  0  0  0  0
  -15.4668   26.5567   -0.4025 C   0  0  2  0  0  0  0  0  0  0  0  0
  -14.6753   25.4505    0.0259 N   0  0  0  0  0  0  0  0  0  0  0  0
  -14.6009   27.7147   -0.8592 C   0  0  1  0  0  0  0  0  0  0  0  0
  -15.2892   28.6069   -1.6320 O   0  0  0  0  0  0  0  0  0  0  0  0
  -14.0501   28.4581    0.3391 C   0  0  1  0  0  0  0  0  0  0  0  0
  -13.7966   29.8071   -0.0029 O   0  0  0  0  0  0  0  0  0  0  0  0
  -15.0004   28.4141    1.4961 C   0  0  1  0  0  0  0  0  0  0  0  0
  -14.8214   29.5635    2.4443 C   0  0  0  0  0  0  0  0  0  0  0  0
  -15.6071   29.4981    3.5674 O   0  0  0  0  0  0  0  0  0  0  0  0
  -14.7174   24.2014   -0.6143 C   0  0  0  0  0  0  0  0  0  0  0  0
  -15.8010   23.6523   -0.9472 O   0  0  0  0  0  0  0  0  0  0  0  0
  -13.4650   23.4890   -0.9184 C   0  0  0  0  0  0  0  0  0  0  0  0
  -16.0273   28.0761   -2.6594 C   0  0  1  0  0  0  0  0  0  0  0  0
  -17.2170   28.9064   -3.0554 C   0  0  1  0  0  0  0  0  0  0  0  0
  -16.7185   30.0299   -3.9382 C   0  0  2  0  0  0  0  0  0  0  0  0
  -15.9098   29.5314   -5.0769 C   0  0  2  0  0  0  0  0  0  0  0  0
  -14.9413   28.4800   -4.6655 C   0  0  1  0  0  0  0  0  0  0  0  0
  -13.6258   29.1594   -4.3426 C   0  0  0  0  0  0  0  0  0  0  0  0
  -18.1623   28.1691   -3.7503 O   0  0  0  0  0  0  0  0  0  0  0  0
  -16.0100   30.9906   -3.2003 O   0  0  0  0  0  0  0  0  0  0  0  0
  -15.2606   30.6510   -5.6378 O   0  0  0  0  0  0  0  0  0  0  0  0
  -15.3386   27.5779   -3.7259 O   0  0  0  0  0  0  0  0  0  0  0  0
  -12.5131   28.4877   -4.8195 O   0  0  0  0  0  0  0  0  0  0  0  0
  1  2  1  0
  1 12  1  0
  1 26  1  1
  2  3  1  0
  2  9  1  6
  3  4  1  0
  3 10  1  1
  5  4  1  0
  4 11  1  6
  5  6  1  1
 12  5  1  0
  6 13  1  0
  7  8  1  0
  9  7  1  0
  7 14  2  0
 15 16  1  0
 24 15  1  0
 16 17  1  1
 16 18  1  0
 18 19  1  1
 20 18  1  0
 19 27  1  0
 20 21  1  6
 22 20  1  0
 30 21  1  6
 22 23  1  6
 24 22  1  0
 24 25  1  1
 25 26  1  0
 27 28  2  0
 27 29  1  0
 30 31  1  0
 30 39  1  0
 31 32  1  0
 31 36  1  6
 32 33  1  0
 32 37  1  1
 33 34  1  0
 33 38  1  1
 34 35  1  1
 34 39  1  0
 35 40  1  0
M  END
$$$$
