
     RDKit          3D

 40 42  0  0  0  0  0  0  0  0999 V2000
  -13.8107   30.4164    2.9168 C   0  0  1  0  0  0  0  0  0  0  0  0
  -14.1124   30.9454    4.2965 C   0  0  1  0  0  0  0  0  0  0  0  0
  -12.8091   31.5031    4.8422 C   0  0  2  0  0  0  0  0  0  0  0  0
  -11.9215   30.2699    5.0588 C   0  0  1  0  0  0  0  0  0  0  0  0
  -11.9968   29.3156    3.9116 C   0  0  1  0  0  0  0  0  0  0  0  0
  -12.4860   27.9328    4.3566 C   0  0  0  0  0  0  0  0  0  0  0  0
  -16.5341   31.4586    4.5277 C   0  0  0  0  0  0  0  0  0  0  0  0
  -17.5890   32.4929    4.4631 C   0  0  0  0  0  0  0  0  0  0  0  0
  -15.1785   31.8838    4.3293 N   0  0  0  0  0  0  0  0  0  0  0  0
  -13.0053   32.1362    6.0620 O   0  0  0  0  0  0  0  0  0  0  0  0
  -10.6211   30.6627    5.3704 O   0  0  0  0  0  0  0  0  0  0  0  0
  -12.6332   29.7637    2.7999 O   0  0  0  0  0  0  0  0  0  0  0  0
  -11.7599   26.9293    3.7225 O   0  0  0  0  0  0  0  0  0  0  0  0
  -16.7787   30.2453    4.7456 O   0  0  0  0  0  0  0  0  0  0  0  0
  -13.7952   28.9225   -0.9115 O   0  0  0  0  0  0  0  0  0  0  0  0
  -14.0744   29.8410   -1.9522 C   0  0  2  0  0  0  0  0  0  0  0  0
  -14.0204   31.1097   -1.3475 O   0  0  0  0  0  0  0  0  0  0  0  0
  -15.4557   29.5985   -2.5174 C   0  0  2  0  0  0  0  0  0  0  0  0
  -16.2916   30.7516   -2.4457 N   0  0  0  0  0  0  0  0  0  0  0  0
  -16.1167   28.3932   -1.8774 C   0  0  1  0  0  0  0  0  0  0  0  0
  -15.5465   27.2157   -2.2715 O   0  0  0  0  0  0  0  0  0  0  0  0
  -16.0158   28.4826   -0.3695 C   0  0  1  0  0  0  0  0  0  0  0  0
  -16.0362   27.1855    0.1946 O   0  0  0  0  0  0  0  0  0  0  0  0
  -14.7626   29.1844    0.0556 C   0  0  1  0  0  0  0  0  0  0  0  0
  -14.3137   28.7965    1.4341 C   0  0  0  0  0  0  0  0  0  0  0  0
  -14.8303   29.5765    2.4378 O   0  0  0  0  0  0  0  0  0  0  0  0
  -16.9042   31.3096   -3.5793 C   0  0  0  0  0  0  0  0  0  0  0  0
  -16.4025   31.2140   -4.7307 O   0  0  0  0  0  0  0  0  0  0  0  0
  -18.1779   32.0360   -3.4436 C   0  0  0  0  0  0  0  0  0  0  0  0
  -16.4117   26.2131   -2.6300 C   0  0  1  0  0  0  0  0  0  0  0  0
  -16.4200   25.9045   -4.1019 C   0  0  1  0  0  0  0  0  0  0  0  0
  -15.2198   25.0303   -4.3937 C   0  0  2  0  0  0  0  0  0  0  0  0
  -15.1688   23.8367   -3.5152 C   0  0  2  0  0  0  0  0  0  0  0  0
  -15.4685   24.1657   -2.0958 C   0  0  1  0  0  0  0  0  0  0  0  0
  -14.1537   24.4392   -1.3937 C   0  0  0  0  0  0  0  0  0  0  0  0
  -17.5713   25.2387   -4.4908 O   0  0  0  0  0  0  0  0  0  0  0  0
  -14.0219   25.7581   -4.3238 O   0  0  0  0  0  0  0  0  0  0  0  0
  -13.8831   23.2757   -3.6626 O   0  0  0  0  0  0  0  0  0  0  0  0
  -16.4290   25.0979   -1.8453 O   0  0  0  0  0  0  0  0  0  0  0  0
  -13.6513   23.3540   -0.6962 O   0  0  0  0  0  0  0  0  0  0  0  0
  1  2  1  0
  1 12  1  0
  1 26  1  1
  2  3  1  0
  2  9  1  6
  3  4  1  0
  3 10  1  1
  5  4  1  0
  4 11  1  6
  5  6  1  1
 12  5  1  0
  6 13  1  0
  7  8  1  0
  9  7  1  0
  7 14  2  0
 15 16  1  0
 24 15  1  0
 16 17  1  1
 16 18  1  0
 18 19  1  1
 20 18  1  0
 19 27  1  0
 20 21  1  6
 22 20  1  0
 30 21  1  6
 22 23  1  1
 24 22  1  0
 24 25  1  1
 25 26  1  0
 27 28  2  0
 27 29  1  0
 30 31  1  0
 30 39  1  0
 31 32  1  0
 31 36  1  1
 32 33  1  0
 32 37  1  1
 33 34  1  0
 33 38  1  1
 34 35  1  6
 34 39  1  0
 35 40  1  0
M  END
$$$$
