
     RDKit          3D

 40 42  0  0  0  0  0  0  0  0999 V2000
   -7.0004    5.5784    4.9445 C   0  0  1  0  0  0  0  0  0  0  0  0
   -6.6105    6.1100    6.3009 C   0  0  1  0  0  0  0  0  0  0  0  0
   -7.7074    5.6892    7.2638 C   0  0  2  0  0  0  0  0  0  0  0  0
   -8.9324    6.5090    6.8365 C   0  0  1  0  0  0  0  0  0  0  0  0
   -9.1003    6.5353    5.3521 C   0  0  1  0  0  0  0  0  0  0  0  0
   -9.0676    7.9663    4.8039 C   0  0  0  0  0  0  0  0  0  0  0  0
   -4.8848    5.8956    8.0778 C   0  0  0  0  0  0  0  0  0  0  0  0
   -4.4992    4.6897    8.8420 C   0  0  0  0  0  0  0  0  0  0  0  0
   -5.3141    5.7095    6.7217 N   0  0  0  0  0  0  0  0  0  0  0  0
   -7.3802    6.0176    8.5724 O   0  0  0  0  0  0  0  0  0  0  0  0
  -10.0664    6.0681    7.5163 O   0  0  0  0  0  0  0  0  0  0  0  0
   -8.3137    5.6853    4.6447 O   0  0  0  0  0  0  0  0  0  0  0  0
   -9.8687    8.0751    3.6713 O   0  0  0  0  0  0  0  0  0  0  0  0
   -4.8502    7.0536    8.5647 O   0  0  0  0  0  0  0  0  0  0  0  0
   -6.4883    5.4985    0.3773 O   0  0  0  0  0  0  0  0  0  0  0  0
   -5.3391    5.3783   -0.4410 C   0  0  2  0  0  0  0  0  0  0  0  0
   -4.3875    4.7172    0.3560 O   0  0  0  0  0  0  0  0  0  0  0  0
   -4.8223    6.7440   -0.8337 C   0  0  2  0  0  0  0  0  0  0  0  0
   -3.4656    6.9527   -0.4472 N   0  0  0  0  0  0  0  0  0  0  0  0
   -5.7223    7.8504   -0.3188 C   0  0  1  0  0  0  0  0  0  0  0  0
   -6.9139    7.9053   -0.9853 O   0  0  0  0  0  0  0  0  0  0  0  0
   -6.0157    7.6422    1.1517 C   0  0  1  0  0  0  0  0  0  0  0  0
   -7.2603    8.2263    1.4844 O   0  0  0  0  0  0  0  0  0  0  0  0
   -6.0453    6.1866    1.5042 C   0  0  1  0  0  0  0  0  0  0  0  0
   -6.8795    5.8953    2.7173 C   0  0  0  0  0  0  0  0  0  0  0  0
   -6.2614    6.1762    3.9097 O   0  0  0  0  0  0  0  0  0  0  0  0
   -2.4178    7.0156   -1.3800 C   0  0  0  0  0  0  0  0  0  0  0  0
   -2.6016    6.8274   -2.6117 O   0  0  0  0  0  0  0  0  0  0  0  0
   -1.0479    7.3108   -0.9275 C   0  0  0  0  0  0  0  0  0  0  0  0
   -7.5644    9.1130   -0.9660 C   0  0  1  0  0  0  0  0  0  0  0  0
   -7.3873    9.9274   -2.2178 C   0  0  1  0  0  0  0  0  0  0  0  0
   -8.3418    9.3826   -3.2580 C   0  0  2  0  0  0  0  0  0  0  0  0
   -9.7367    9.3168   -2.7591 C   0  0  2  0  0  0  0  0  0  0  0  0
   -9.8184    8.7710   -1.3777 C   0  0  1  0  0  0  0  0  0  0  0  0
  -10.0408    7.2755   -1.4804 C   0  0  0  0  0  0  0  0  0  0  0  0
   -7.6596   11.2704   -2.0118 O   0  0  0  0  0  0  0  0  0  0  0  0
   -7.9208    8.1340   -3.7411 O   0  0  0  0  0  0  0  0  0  0  0  0
  -10.4621    8.5291   -3.6772 O   0  0  0  0  0  0  0  0  0  0  0  0
   -8.8438    9.1217   -0.4937 O   0  0  0  0  0  0  0  0  0  0  0  0
  -11.2096    6.8376   -0.8815 O   0  0  0  0  0  0  0  0  0  0  0  0
  1  2  1  0
  1 12  1  0
  1 26  1  6
  2  3  1  0
  2  9  1  1
  3  4  1  0
  3 10  1  1
  5  4  1  0
  4 11  1  1
  5  6  1  6
 12  5  1  0
  6 13  1  0
  7  8  1  0
  9  7  1  0
  7 14  2  0
 15 16  1  0
 24 15  1  0
 16 17  1  1
 16 18  1  0
 18 19  1  1
 20 18  1  0
 19 27  1  0
 20 21  1  6
 22 20  1  0
 30 21  1  6
 22 23  1  6
 24 22  1  0
 24 25  1  1
 25 26  1  0
 27 28  2  0
 27 29  1  0
 30 31  1  0
 30 39  1  0
 31 32  1  0
 31 36  1  1
 32 33  1  0
 32 37  1  1
 33 34  1  0
 33 38  1  6
 34 35  1  6
 34 39  1  0
 35 40  1  0
M  END
$$$$
