
     RDKit          3D

 40 42  0  0  0  0  0  0  0  0999 V2000
   -9.8792   27.0544    6.2154 C   0  0  1  0  0  0  0  0  0  0  0  0
   -8.5638   27.2299    6.9317 C   0  0  1  0  0  0  0  0  0  0  0  0
   -8.2594   25.9057    7.6109 C   0  0  2  0  0  0  0  0  0  0  0  0
   -9.3175   25.7858    8.7161 C   0  0  1  0  0  0  0  0  0  0  0  0
  -10.6776   26.1754    8.2357 C   0  0  1  0  0  0  0  0  0  0  0  0
  -11.2529   27.3405    9.0485 C   0  0  0  0  0  0  0  0  0  0  0  0
   -6.8964   28.9619    6.2984 C   0  0  0  0  0  0  0  0  0  0  0  0
   -5.8396   29.3714    5.3483 C   0  0  0  0  0  0  0  0  0  0  0  0
   -7.5106   27.6820    6.0923 N   0  0  0  0  0  0  0  0  0  0  0  0
   -6.9994   25.9181    8.1937 O   0  0  0  0  0  0  0  0  0  0  0  0
   -9.2730   24.5156    9.2879 O   0  0  0  0  0  0  0  0  0  0  0  0
  -10.8122   26.3537    6.8970 O   0  0  0  0  0  0  0  0  0  0  0  0
  -12.6327   27.4171    8.8852 O   0  0  0  0  0  0  0  0  0  0  0  0
   -7.2674   29.6811    7.2598 O   0  0  0  0  0  0  0  0  0  0  0  0
  -13.1509   29.1357    4.5671 O   0  0  0  0  0  0  0  0  0  0  0  0
  -14.4079   28.7832    5.1153 C   0  0  2  0  0  0  0  0  0  0  0  0
  -14.1147   28.1885    6.3556 O   0  0  0  0  0  0  0  0  0  0  0  0
  -15.1161   27.7894    4.2224 C   0  0  2  0  0  0  0  0  0  0  0  0
  -15.4505   26.5797    4.8995 N   0  0  0  0  0  0  0  0  0  0  0  0
  -14.3282   27.5169    2.9559 C   0  0  1  0  0  0  0  0  0  0  0  0
  -14.3400   28.5788    2.0961 O   0  0  0  0  0  0  0  0  0  0  0  0
  -12.8865   27.2038    3.2959 C   0  0  1  0  0  0  0  0  0  0  0  0
  -12.0468   27.5543    2.2129 O   0  0  0  0  0  0  0  0  0  0  0  0
  -12.4403   27.9387    4.5224 C   0  0  1  0  0  0  0  0  0  0  0  0
  -10.9556   28.1524    4.5688 C   0  0  0  0  0  0  0  0  0  0  0  0
  -10.4421   28.2842    5.8343 O   0  0  0  0  0  0  0  0  0  0  0  0
  -16.6875   25.9376    4.7279 C   0  0  0  0  0  0  0  0  0  0  0  0
  -17.2156   25.7869    3.5944 O   0  0  0  0  0  0  0  0  0  0  0  0
  -17.4116   25.4132    5.8979 C   0  0  0  0  0  0  0  0  0  0  0  0
  -15.3531   28.5987    1.1712 C   0  0  1  0  0  0  0  0  0  0  0  0
  -16.0746   29.9149    1.0770 C   0  0  1  0  0  0  0  0  0  0  0  0
  -15.2283   30.8422    0.2321 C   0  0  2  0  0  0  0  0  0  0  0  0
  -14.8727   30.2408   -1.0758 C   0  0  2  0  0  0  0  0  0  0  0  0
  -14.4450   28.8217   -0.9484 C   0  0  1  0  0  0  0  0  0  0  0  0
  -12.9368   28.8013   -0.8023 C   0  0  0  0  0  0  0  0  0  0  0  0
  -17.3254   29.7860    0.4948 O   0  0  0  0  0  0  0  0  0  0  0  0
  -14.0805   31.2642    0.9206 O   0  0  0  0  0  0  0  0  0  0  0  0
  -13.8573   31.0458   -1.6330 O   0  0  0  0  0  0  0  0  0  0  0  0
  -15.0949   28.0374   -0.0446 O   0  0  0  0  0  0  0  0  0  0  0  0
  -12.3670   27.5581   -1.0171 O   0  0  0  0  0  0  0  0  0  0  0  0
  1  2  1  0
  1 12  1  0
  1 26  1  1
  2  3  1  0
  2  9  1  6
  3  4  1  0
  3 10  1  1
  5  4  1  0
  4 11  1  6
  5  6  1  1
 12  5  1  0
  6 13  1  0
  7  8  1  0
  9  7  1  0
  7 14  2  0
 15 16  1  0
 24 15  1  0
 16 17  1  1
 16 18  1  0
 18 19  1  1
 20 18  1  0
 19 27  1  0
 20 21  1  6
 22 20  1  0
 30 21  1  6
 22 23  1  6
 24 22  1  0
 24 25  1  6
 25 26  1  0
 27 28  2  0
 27 29  1  0
 30 31  1  0
 30 39  1  0
 31 32  1  0
 31 36  1  6
 32 33  1  0
 32 37  1  1
 33 34  1  0
 33 38  1  1
 34 35  1  1
 34 39  1  0
 35 40  1  0
M  END
$$$$
