
     RDKit          3D

 40 42  0  0  0  0  0  0  0  0999 V2000
  -15.0509   25.6700   -0.3360 C   0  0  1  0  0  0  0  0  0  0  0  0
  -14.4671   24.9105   -1.5008 C   0  0  1  0  0  0  0  0  0  0  0  0
  -14.8496   23.4536   -1.3046 C   0  0  2  0  0  0  0  0  0  0  0  0
  -14.0464   23.0051   -0.0761 C   0  0  1  0  0  0  0  0  0  0  0  0
  -14.0777   24.0228    1.0173 C   0  0  1  0  0  0  0  0  0  0  0  0
  -12.6691   24.5028    1.3846 C   0  0  0  0  0  0  0  0  0  0  0  0
  -14.3782   24.8254   -3.9839 C   0  0  0  0  0  0  0  0  0  0  0  0
  -15.2673   24.8853   -5.1642 C   0  0  0  0  0  0  0  0  0  0  0  0
  -14.8516   25.4229   -2.7688 N   0  0  0  0  0  0  0  0  0  0  0  0
  -14.4708   22.6835   -2.3957 O   0  0  0  0  0  0  0  0  0  0  0  0
  -14.4601   21.7383    0.3319 O   0  0  0  0  0  0  0  0  0  0  0  0
  -14.9550   25.0461    0.8588 O   0  0  0  0  0  0  0  0  0  0  0  0
  -12.5863   24.7817    2.7454 O   0  0  0  0  0  0  0  0  0  0  0  0
  -13.2459   24.2807   -4.0080 O   0  0  0  0  0  0  0  0  0  0  0  0
  -14.0836   29.1591    2.3466 O   0  0  0  0  0  0  0  0  0  0  0  0
  -14.7547   29.6127    3.5079 C   0  0  2  0  0  0  0  0  0  0  0  0
  -14.8308   28.4897    4.3511 O   0  0  0  0  0  0  0  0  0  0  0  0
  -16.1465   30.0927    3.1628 C   0  0  2  0  0  0  0  0  0  0  0  0
  -17.1629   29.4076    3.8917 N   0  0  0  0  0  0  0  0  0  0  0  0
  -16.4015   30.0371    1.6692 C   0  0  1  0  0  0  0  0  0  0  0  0
  -15.7023   30.9912    0.9853 O   0  0  0  0  0  0  0  0  0  0  0  0
  -16.0052   28.6821    1.1226 C   0  0  1  0  0  0  0  0  0  0  0  0
  -15.6450   28.7966   -0.2406 O   0  0  0  0  0  0  0  0  0  0  0  0
  -14.8579   28.0965    1.8872 C   0  0  1  0  0  0  0  0  0  0  0  0
  -14.0599   27.1126    1.0825 C   0  0  0  0  0  0  0  0  0  0  0  0
  -14.4941   26.9539   -0.2093 O   0  0  0  0  0  0  0  0  0  0  0  0
  -17.9980   30.0594    4.8135 C   0  0  0  0  0  0  0  0  0  0  0  0
  -17.6869   31.1595    5.3421 O   0  0  0  0  0  0  0  0  0  0  0  0
  -19.2873   29.4565    5.1910 C   0  0  0  0  0  0  0  0  0  0  0  0
  -16.4071   32.1067    0.6096 C   0  0  1  0  0  0  0  0  0  0  0  0
  -15.6503   33.3962    0.7713 C   0  0  1  0  0  0  0  0  0  0  0  0
  -14.7199   33.5334   -0.4142 C   0  0  2  0  0  0  0  0  0  0  0  0
  -15.4346   33.3975   -1.7064 C   0  0  2  0  0  0  0  0  0  0  0  0
  -16.4026   32.2680   -1.7014 C   0  0  1  0  0  0  0  0  0  0  0  0
  -15.6922   31.0435   -2.2422 C   0  0  0  0  0  0  0  0  0  0  0  0
  -16.4926   34.4956    0.8163 O   0  0  0  0  0  0  0  0  0  0  0  0
  -13.6471   32.6322   -0.3353 O   0  0  0  0  0  0  0  0  0  0  0  0
  -14.4494   33.2385   -2.7033 O   0  0  0  0  0  0  0  0  0  0  0  0
  -17.1063   32.0349   -0.5592 O   0  0  0  0  0  0  0  0  0  0  0  0
  -16.2581   30.5276   -3.3955 O   0  0  0  0  0  0  0  0  0  0  0  0
  1  2  1  0
  1 12  1  0
  1 26  1  1
  2  3  1  0
  2  9  1  6
  3  4  1  0
  3 10  1  6
  5  4  1  0
  4 11  1  1
  5  6  1  6
 12  5  1  0
  6 13  1  0
  7  8  1  0
  9  7  1  0
  7 14  2  0
 15 16  1  0
 24 15  1  0
 16 17  1  1
 16 18  1  0
 18 19  1  1
 20 18  1  0
 19 27  1  0
 20 21  1  6
 22 20  1  0
 30 21  1  6
 22 23  1  6
 24 22  1  0
 24 25  1  6
 25 26  1  0
 27 28  2  0
 27 29  1  0
 30 31  1  0
 30 39  1  0
 31 32  1  0
 31 36  1  6
 32 33  1  0
 32 37  1  1
 33 34  1  0
 33 38  1  6
 34 35  1  1
 34 39  1  0
 35 40  1  0
M  END
$$$$
