
     RDKit          3D

 40 42  0  0  0  0  0  0  0  0999 V2000
  -13.1500   26.2614    4.2621 C   0  0  1  0  0  0  0  0  0  0  0  0
  -11.7810   25.8617    3.7718 C   0  0  1  0  0  0  0  0  0  0  0  0
  -11.8522   25.8413    2.2546 C   0  0  2  0  0  0  0  0  0  0  0  0
  -12.7696   24.6555    1.9265 C   0  0  1  0  0  0  0  0  0  0  0  0
  -13.9727   24.6150    2.8116 C   0  0  1  0  0  0  0  0  0  0  0  0
  -14.0508   23.3038    3.6014 C   0  0  0  0  0  0  0  0  0  0  0  0
   -9.3696   26.2337    4.2498 C   0  0  0  0  0  0  0  0  0  0  0  0
   -8.3363   27.2168    3.8591 C   0  0  0  0  0  0  0  0  0  0  0  0
  -10.7326   26.6805    4.2707 N   0  0  0  0  0  0  0  0  0  0  0  0
  -10.6022   25.6111    1.6962 O   0  0  0  0  0  0  0  0  0  0  0  0
  -13.0790   24.6491    0.5676 O   0  0  0  0  0  0  0  0  0  0  0  0
  -14.1824   25.7078    3.5886 O   0  0  0  0  0  0  0  0  0  0  0  0
  -15.2715   22.6725    3.3828 O   0  0  0  0  0  0  0  0  0  0  0  0
   -9.1010   25.0453    4.5578 O   0  0  0  0  0  0  0  0  0  0  0  0
  -13.7451   28.3646    4.2221 O   0  0  0  0  0  0  0  0  0  0  0  0
  -12.9056   29.4522    3.8797 C   0  0  2  0  0  0  0  0  0  0  0  0
  -11.6824   29.1892    4.5220 O   0  0  0  0  0  0  0  0  0  0  0  0
  -13.4862   30.7517    4.3903 C   0  0  2  0  0  0  0  0  0  0  0  0
  -12.5934   31.4538    5.2527 N   0  0  0  0  0  0  0  0  0  0  0  0
  -14.8378   30.5401    5.0443 C   0  0  1  0  0  0  0  0  0  0  0  0
  -15.8155   30.2452    4.1364 O   0  0  0  0  0  0  0  0  0  0  0  0
  -14.7628   29.4024    6.0402 C   0  0  1  0  0  0  0  0  0  0  0  0
  -16.0339   28.7977    6.1807 O   0  0  0  0  0  0  0  0  0  0  0  0
  -13.7690   28.3656    5.6146 C   0  0  1  0  0  0  0  0  0  0  0  0
  -14.0605   27.0075    6.1830 C   0  0  0  0  0  0  0  0  0  0  0  0
  -13.3210   25.9923    5.6306 O   0  0  0  0  0  0  0  0  0  0  0  0
  -12.2593   32.8031    5.0538 C   0  0  0  0  0  0  0  0  0  0  0  0
  -12.5983   33.4344    4.0179 O   0  0  0  0  0  0  0  0  0  0  0  0
  -11.4870   33.5274    6.0772 C   0  0  0  0  0  0  0  0  0  0  0  0
  -16.9114   31.0704    4.1360 C   0  0  1  0  0  0  0  0  0  0  0  0
  -17.1174   31.8192    2.8482 C   0  0  1  0  0  0  0  0  0  0  0  0
  -17.7770   30.8733    1.8683 C   0  0  2  0  0  0  0  0  0  0  0  0
  -19.0056   30.2568    2.4246 C   0  0  2  0  0  0  0  0  0  0  0  0
  -18.8228   29.7980    3.8278 C   0  0  1  0  0  0  0  0  0  0  0  0
  -18.4005   28.3432    3.7907 C   0  0  0  0  0  0  0  0  0  0  0  0
  -17.9229   32.9345    3.0139 O   0  0  0  0  0  0  0  0  0  0  0  0
  -16.8817   29.8916    1.4163 O   0  0  0  0  0  0  0  0  0  0  0  0
  -19.3529   29.1925    1.5667 O   0  0  0  0  0  0  0  0  0  0  0  0
  -18.0668   30.5682    4.6583 O   0  0  0  0  0  0  0  0  0  0  0  0
  -19.1819   27.5098    4.5726 O   0  0  0  0  0  0  0  0  0  0  0  0
  1  2  1  0
  1 12  1  0
  1 26  1  1
  2  3  1  0
  2  9  1  6
  3  4  1  0
  3 10  1  6
  5  4  1  0
  4 11  1  6
  5  6  1  1
 12  5  1  0
  6 13  1  0
  7  8  1  0
  9  7  1  0
  7 14  2  0
 15 16  1  0
 24 15  1  0
 16 17  1  1
 16 18  1  0
 18 19  1  1
 20 18  1  0
 19 27  1  0
 20 21  1  6
 22 20  1  0
 30 21  1  6
 22 23  1  6
 24 22  1  0
 24 25  1  6
 25 26  1  0
 27 28  2  0
 27 29  1  0
 30 31  1  0
 30 39  1  0
 31 32  1  0
 31 36  1  1
 32 33  1  0
 32 37  1  1
 33 34  1  0
 33 38  1  6
 34 35  1  6
 34 39  1  0
 35 40  1  0
M  END
$$$$
