
     RDKit          3D

 40 42  0  0  0  0  0  0  0  0999 V2000
  -15.9594   30.1102   -0.6572 C   0  0  1  0  0  0  0  0  0  0  0  0
  -17.2457   29.9675   -1.4314 C   0  0  1  0  0  0  0  0  0  0  0  0
  -16.8810   29.3445   -2.7680 C   0  0  2  0  0  0  0  0  0  0  0  0
  -16.0805   30.4326   -3.4962 C   0  0  1  0  0  0  0  0  0  0  0  0
  -15.0906   31.0982   -2.5965 C   0  0  1  0  0  0  0  0  0  0  0  0
  -15.3418   32.6069   -2.4959 C   0  0  0  0  0  0  0  0  0  0  0  0
  -19.6297   29.6535   -0.7998 C   0  0  0  0  0  0  0  0  0  0  0  0
  -20.6357   28.7443   -0.2096 C   0  0  0  0  0  0  0  0  0  0  0  0
  -18.2551   29.2484   -0.7370 N   0  0  0  0  0  0  0  0  0  0  0  0
  -18.0161   29.0480   -3.5103 O   0  0  0  0  0  0  0  0  0  0  0  0
  -15.5137   29.9147   -4.6593 O   0  0  0  0  0  0  0  0  0  0  0  0
  -14.8964   30.5177   -1.3852 O   0  0  0  0  0  0  0  0  0  0  0  0
  -14.2682   33.2420   -1.8791 O   0  0  0  0  0  0  0  0  0  0  0  0
  -19.9309   30.7459   -1.3431 O   0  0  0  0  0  0  0  0  0  0  0  0
  -15.3197   29.0909    3.4496 O   0  0  0  0  0  0  0  0  0  0  0  0
  -14.2026   29.3302    4.2860 C   0  0  2  0  0  0  0  0  0  0  0  0
  -14.1486   30.7275    4.4368 O   0  0  0  0  0  0  0  0  0  0  0  0
  -12.9334   28.8336    3.6310 C   0  0  2  0  0  0  0  0  0  0  0  0
  -11.9518   29.8574    3.4830 N   0  0  0  0  0  0  0  0  0  0  0  0
  -13.2196   28.1444    2.3111 C   0  0  1  0  0  0  0  0  0  0  0  0
  -13.8280   26.9322    2.4774 O   0  0  0  0  0  0  0  0  0  0  0  0
  -14.1211   29.0091    1.4559 C   0  0  1  0  0  0  0  0  0  0  0  0
  -14.8743   28.1991    0.5740 O   0  0  0  0  0  0  0  0  0  0  0  0
  -15.0564   29.8243    2.2953 C   0  0  1  0  0  0  0  0  0  0  0  0
  -16.3090   30.2132    1.5660 C   0  0  0  0  0  0  0  0  0  0  0  0
  -16.0974   30.9730    0.4432 O   0  0  0  0  0  0  0  0  0  0  0  0
  -10.7291   29.8340    4.1731 C   0  0  0  0  0  0  0  0  0  0  0  0
  -10.5365   29.0961    5.1755 O   0  0  0  0  0  0  0  0  0  0  0  0
   -9.6181   30.6923    3.7288 C   0  0  0  0  0  0  0  0  0  0  0  0
  -13.0039   25.8753    2.7701 C   0  0  1  0  0  0  0  0  0  0  0  0
  -13.5410   24.9506    3.8276 C   0  0  1  0  0  0  0  0  0  0  0  0
  -14.5495   24.0357    3.1675 C   0  0  2  0  0  0  0  0  0  0  0  0
  -13.9898   23.3502    1.9776 C   0  0  2  0  0  0  0  0  0  0  0  0
  -13.2051   24.2704    1.1114 C   0  0  1  0  0  0  0  0  0  0  0  0
  -14.1386   24.8233    0.0535 C   0  0  0  0  0  0  0  0  0  0  0  0
  -12.5438   24.1829    4.4075 O   0  0  0  0  0  0  0  0  0  0  0  0
  -15.7323   24.7187    2.8448 O   0  0  0  0  0  0  0  0  0  0  0  0
  -15.0784   22.7801    1.2851 O   0  0  0  0  0  0  0  0  0  0  0  0
  -12.4382   25.2189    1.7170 O   0  0  0  0  0  0  0  0  0  0  0  0
  -13.5090   25.1604   -1.1325 O   0  0  0  0  0  0  0  0  0  0  0  0
  1  2  1  0
  1 12  1  0
  1 26  1  1
  2  3  1  0
  2  9  1  1
  3  4  1  0
  3 10  1  6
  5  4  1  0
  4 11  1  6
  5  6  1  1
 12  5  1  0
  6 13  1  0
  7  8  1  0
  9  7  1  0
  7 14  2  0
 15 16  1  0
 24 15  1  0
 16 17  1  6
 16 18  1  0
 18 19  1  6
 20 18  1  0
 19 27  1  0
 20 21  1  1
 22 20  1  0
 30 21  1  6
 22 23  1  6
 24 22  1  0
 24 25  1  6
 25 26  1  0
 27 28  2  0
 27 29  1  0
 30 31  1  0
 30 39  1  0
 31 32  1  0
 31 36  1  6
 32 33  1  0
 32 37  1  6
 33 34  1  0
 33 38  1  6
 34 35  1  6
 34 39  1  0
 35 40  1  0
M  END
$$$$
