
     RDKit          3D

 40 42  0  0  0  0  0  0  0  0999 V2000
  -13.4568   28.7120    3.3871 C   0  0  1  0  0  0  0  0  0  0  0  0
  -13.6478   30.0522    4.0515 C   0  0  1  0  0  0  0  0  0  0  0  0
  -12.4766   30.2370    5.0009 C   0  0  2  0  0  0  0  0  0  0  0  0
  -12.7045   29.1943    6.1037 C   0  0  1  0  0  0  0  0  0  0  0  0
  -13.1176   27.8704    5.5477 C   0  0  1  0  0  0  0  0  0  0  0  0
  -14.4822   27.4298    6.0889 C   0  0  0  0  0  0  0  0  0  0  0  0
  -12.8388   31.3587    2.0971 C   0  0  0  0  0  0  0  0  0  0  0  0
  -11.4091   31.3385    2.4746 C   0  0  0  0  0  0  0  0  0  0  0  0
  -13.8001   31.1283    3.1365 N   0  0  0  0  0  0  0  0  0  0  0  0
  -12.4861   31.5032    5.5700 O   0  0  0  0  0  0  0  0  0  0  0  0
  -11.5889   29.1237    6.9361 O   0  0  0  0  0  0  0  0  0  0  0  0
  -13.0170   27.7277    4.2018 O   0  0  0  0  0  0  0  0  0  0  0  0
  -14.4302   26.1126    6.5345 O   0  0  0  0  0  0  0  0  0  0  0  0
  -13.2326   31.5663    0.9219 O   0  0  0  0  0  0  0  0  0  0  0  0
  -13.8259   28.5220   -0.5645 O   0  0  0  0  0  0  0  0  0  0  0  0
  -14.4018   29.5481   -1.3522 C   0  0  2  0  0  0  0  0  0  0  0  0
  -14.7817   30.5455   -0.4364 O   0  0  0  0  0  0  0  0  0  0  0  0
  -15.6190   29.0330   -2.0868 C   0  0  2  0  0  0  0  0  0  0  0  0
  -16.7970   29.7821   -1.7959 N   0  0  0  0  0  0  0  0  0  0  0  0
  -15.8302   27.5509   -1.8461 C   0  0  1  0  0  0  0  0  0  0  0  0
  -14.8941   26.7818   -2.4779 O   0  0  0  0  0  0  0  0  0  0  0  0
  -15.7642   27.2487   -0.3642 C   0  0  1  0  0  0  0  0  0  0  0  0
  -15.3418   25.9140   -0.1608 O   0  0  0  0  0  0  0  0  0  0  0  0
  -14.8238   28.1755    0.3431 C   0  0  1  0  0  0  0  0  0  0  0  0
  -14.2683   27.5914    1.6091 C   0  0  0  0  0  0  0  0  0  0  0  0
  -14.6265   28.2667    2.7486 O   0  0  0  0  0  0  0  0  0  0  0  0
  -17.4876   30.5112   -2.7774 C   0  0  0  0  0  0  0  0  0  0  0  0
  -16.9656   30.8123   -3.8834 O   0  0  0  0  0  0  0  0  0  0  0  0
  -18.8712   30.9499   -2.5292 C   0  0  0  0  0  0  0  0  0  0  0  0
  -15.2281   26.3244   -3.7274 C   0  0  1  0  0  0  0  0  0  0  0  0
  -14.0718   25.7594   -4.5054 C   0  0  1  0  0  0  0  0  0  0  0  0
  -13.8296   24.3507   -4.0086 C   0  0  2  0  0  0  0  0  0  0  0  0
  -15.0597   23.5234   -4.0472 C   0  0  2  0  0  0  0  0  0  0  0  0
  -16.2491   24.2539   -3.5328 C   0  0  1  0  0  0  0  0  0  0  0  0
  -16.3801   23.9478   -2.0545 C   0  0  0  0  0  0  0  0  0  0  0  0
  -14.3249   25.7226   -5.8673 O   0  0  0  0  0  0  0  0  0  0  0  0
  -13.2604   24.3465   -2.7258 O   0  0  0  0  0  0  0  0  0  0  0  0
  -14.7935   22.3605   -3.2947 O   0  0  0  0  0  0  0  0  0  0  0  0
  -16.3644   25.5774   -3.8318 O   0  0  0  0  0  0  0  0  0  0  0  0
  -17.3755   24.6679   -1.4164 O   0  0  0  0  0  0  0  0  0  0  0  0
  1  2  1  0
  1 12  1  0
  1 26  1  1
  2  3  1  0
  2  9  1  6
  3  4  1  0
  3 10  1  1
  5  4  1  0
  4 11  1  6
  5  6  1  6
 12  5  1  0
  6 13  1  0
  7  8  1  0
  9  7  1  0
  7 14  2  0
 15 16  1  0
 24 15  1  0
 16 17  1  1
 16 18  1  0
 18 19  1  1
 20 18  1  0
 19 27  1  0
 20 21  1  6
 22 20  1  0
 30 21  1  1
 22 23  1  6
 24 22  1  0
 24 25  1  1
 25 26  1  0
 27 28  2  0
 27 29  1  0
 30 31  1  0
 30 39  1  0
 31 32  1  0
 31 36  1  6
 32 33  1  0
 32 37  1  1
 33 34  1  0
 33 38  1  1
 34 35  1  1
 34 39  1  0
 35 40  1  0
M  END
$$$$
