
     RDKit          3D

 40 42  0  0  0  0  0  0  0  0999 V2000
   -5.7932   26.1235    6.2557 C   0  0  1  0  0  0  0  0  0  0  0  0
   -4.8371   26.3956    5.1216 C   0  0  1  0  0  0  0  0  0  0  0  0
   -3.5706   25.6136    5.4244 C   0  0  2  0  0  0  0  0  0  0  0  0
   -2.9670   26.3144    6.6491 C   0  0  1  0  0  0  0  0  0  0  0  0
   -4.0023   26.6416    7.6755 C   0  0  1  0  0  0  0  0  0  0  0  0
   -4.0617   28.1465    7.9601 C   0  0  0  0  0  0  0  0  0  0  0  0
   -4.5220   25.7885    2.7313 C   0  0  0  0  0  0  0  0  0  0  0  0
   -4.7897   24.5257    2.0097 C   0  0  0  0  0  0  0  0  0  0  0  0
   -5.3757   26.1110    3.8381 N   0  0  0  0  0  0  0  0  0  0  0  0
   -2.6688   25.6909    4.3718 O   0  0  0  0  0  0  0  0  0  0  0  0
   -1.9017   25.5698    7.1522 O   0  0  0  0  0  0  0  0  0  0  0  0
   -5.2300   26.0959    7.4838 O   0  0  0  0  0  0  0  0  0  0  0  0
   -4.0239   28.3876    9.3301 O   0  0  0  0  0  0  0  0  0  0  0  0
   -3.5923   26.5727    2.4151 O   0  0  0  0  0  0  0  0  0  0  0  0
   -8.9798   28.2033    8.7584 O   0  0  0  0  0  0  0  0  0  0  0  0
   -9.7933   27.6485    9.7758 C   0  0  2  0  0  0  0  0  0  0  0  0
   -8.9061   26.9570   10.6201 O   0  0  0  0  0  0  0  0  0  0  0  0
  -10.7982   26.6853    9.1852 C   0  0  2  0  0  0  0  0  0  0  0  0
  -10.7032   25.3770    9.7447 N   0  0  0  0  0  0  0  0  0  0  0  0
  -10.7135   26.6490    7.6717 C   0  0  1  0  0  0  0  0  0  0  0  0
  -11.1924   27.7917    7.0955 O   0  0  0  0  0  0  0  0  0  0  0  0
   -9.2755   26.4692    7.2341 C   0  0  1  0  0  0  0  0  0  0  0  0
   -9.0860   27.0334    5.9508 O   0  0  0  0  0  0  0  0  0  0  0  0
   -8.3246   27.1093    8.1983 C   0  0  1  0  0  0  0  0  0  0  0  0
   -7.0168   27.4872    7.5667 C   0  0  0  0  0  0  0  0  0  0  0  0
   -6.8594   27.0384    6.2796 O   0  0  0  0  0  0  0  0  0  0  0  0
  -11.8326   24.6468   10.1489 C   0  0  0  0  0  0  0  0  0  0  0  0
  -12.9582   25.1867   10.3161 O   0  0  0  0  0  0  0  0  0  0  0  0
  -11.7229   23.1985   10.3916 C   0  0  0  0  0  0  0  0  0  0  0  0
  -12.1551   27.6275    6.1321 C   0  0  1  0  0  0  0  0  0  0  0  0
  -13.5298   28.0676    6.5544 C   0  0  1  0  0  0  0  0  0  0  0  0
  -13.5910   29.5735    6.4183 C   0  0  2  0  0  0  0  0  0  0  0  0
  -13.1866   30.0312    5.0670 C   0  0  2  0  0  0  0  0  0  0  0  0
  -11.9707   29.3309    4.5728 C   0  0  1  0  0  0  0  0  0  0  0  0
  -10.7653   30.1672    4.9522 C   0  0  0  0  0  0  0  0  0  0  0  0
  -14.5241   27.5010    5.7732 O   0  0  0  0  0  0  0  0  0  0  0  0
  -12.8352   30.2127    7.4131 O   0  0  0  0  0  0  0  0  0  0  0  0
  -12.9908   31.4256    5.1497 O   0  0  0  0  0  0  0  0  0  0  0  0
  -11.8339   28.0074    4.8623 O   0  0  0  0  0  0  0  0  0  0  0  0
  -10.1806   30.8287    3.8859 O   0  0  0  0  0  0  0  0  0  0  0  0
  1  2  1  0
  1 12  1  0
  1 26  1  1
  2  3  1  0
  2  9  1  6
  3  4  1  0
  3 10  1  6
  5  4  1  0
  4 11  1  1
  5  6  1  6
 12  5  1  0
  6 13  1  0
  7  8  1  0
  9  7  1  0
  7 14  2  0
 15 16  1  0
 24 15  1  0
 16 17  1  1
 16 18  1  0
 18 19  1  1
 20 18  1  0
 19 27  1  0
 20 21  1  6
 22 20  1  0
 30 21  1  1
 22 23  1  6
 24 22  1  0
 24 25  1  6
 25 26  1  0
 27 28  2  0
 27 29  1  0
 30 31  1  0
 30 39  1  0
 31 32  1  0
 31 36  1  6
 32 33  1  0
 32 37  1  1
 33 34  1  0
 33 38  1  1
 34 35  1  1
 34 39  1  0
 35 40  1  0
M  END
$$$$
