
     RDKit          3D

 40 42  0  0  0  0  0  0  0  0999 V2000
  -14.6553   31.2335    2.7472 C   0  0  1  0  0  0  0  0  0  0  0  0
  -16.0689   30.7187    2.6414 C   0  0  1  0  0  0  0  0  0  0  0  0
  -16.8127   31.2392    3.8593 C   0  0  2  0  0  0  0  0  0  0  0  0
  -16.1884   30.4886    5.0435 C   0  0  1  0  0  0  0  0  0  0  0  0
  -14.6986   30.4285    4.9475 C   0  0  1  0  0  0  0  0  0  0  0  0
  -14.1910   28.9825    4.9181 C   0  0  0  0  0  0  0  0  0  0  0  0
  -17.8852   31.8643    1.3885 C   0  0  0  0  0  0  0  0  0  0  0  0
  -17.7177   33.2885    1.0271 C   0  0  0  0  0  0  0  0  0  0  0  0
  -16.7072   31.0462    1.4152 N   0  0  0  0  0  0  0  0  0  0  0  0
  -18.1644   30.9298    3.7925 O   0  0  0  0  0  0  0  0  0  0  0  0
  -16.6466   31.0230    6.2463 O   0  0  0  0  0  0  0  0  0  0  0  0
  -14.1278   31.2036    3.9909 O   0  0  0  0  0  0  0  0  0  0  0  0
  -13.7545   28.5911    6.1801 O   0  0  0  0  0  0  0  0  0  0  0  0
  -19.0004   31.3563    1.6670 O   0  0  0  0  0  0  0  0  0  0  0  0
  -13.8525   29.2473   -0.9055 O   0  0  0  0  0  0  0  0  0  0  0  0
  -14.2491   29.9240   -2.0843 C   0  0  2  0  0  0  0  0  0  0  0  0
  -14.4188   31.2659   -1.6989 O   0  0  0  0  0  0  0  0  0  0  0  0
  -15.5567   29.3675   -2.6010 C   0  0  2  0  0  0  0  0  0  0  0  0
  -16.5708   30.3629   -2.7216 N   0  0  0  0  0  0  0  0  0  0  0  0
  -16.0299   28.1912   -1.7694 C   0  0  1  0  0  0  0  0  0  0  0  0
  -15.2652   27.0754   -1.9625 O   0  0  0  0  0  0  0  0  0  0  0  0
  -15.9858   28.5420   -0.2973 C   0  0  1  0  0  0  0  0  0  0  0  0
  -15.8101   27.3696    0.4745 O   0  0  0  0  0  0  0  0  0  0  0  0
  -14.8755   29.5010    0.0049 C   0  0  1  0  0  0  0  0  0  0  0  0
  -14.4070   29.4238    1.4285 C   0  0  0  0  0  0  0  0  0  0  0  0
  -13.7801   30.5577    1.8802 O   0  0  0  0  0  0  0  0  0  0  0  0
  -17.3420   30.5154   -3.8851 C   0  0  0  0  0  0  0  0  0  0  0  0
  -16.8235   30.5944   -5.0302 O   0  0  0  0  0  0  0  0  0  0  0  0
  -18.8097   30.5873   -3.7895 C   0  0  0  0  0  0  0  0  0  0  0  0
  -15.9429   25.9193   -2.2564 C   0  0  1  0  0  0  0  0  0  0  0  0
  -16.0145   25.6045   -3.7252 C   0  0  1  0  0  0  0  0  0  0  0  0
  -14.6945   24.9821   -4.1256 C   0  0  2  0  0  0  0  0  0  0  0  0
  -14.3351   23.8284   -3.2660 C   0  0  2  0  0  0  0  0  0  0  0  0
  -14.5728   24.1021   -1.8233 C   0  0  1  0  0  0  0  0  0  0  0  0
  -13.2833   24.6346   -1.2318 C   0  0  0  0  0  0  0  0  0  0  0  0
  -17.0405   24.7218   -4.0223 O   0  0  0  0  0  0  0  0  0  0  0  0
  -13.6621   25.9324   -4.1498 O   0  0  0  0  0  0  0  0  0  0  0  0
  -12.9812   23.5311   -3.5266 O   0  0  0  0  0  0  0  0  0  0  0  0
  -15.6736   24.8283   -1.4838 O   0  0  0  0  0  0  0  0  0  0  0  0
  -13.0908   24.2958    0.0966 O   0  0  0  0  0  0  0  0  0  0  0  0
  1  2  1  0
  1 12  1  0
  1 26  1  6
  2  3  1  0
  2  9  1  6
  3  4  1  0
  3 10  1  6
  5  4  1  0
  4 11  1  1
  5  6  1  6
 12  5  1  0
  6 13  1  0
  7  8  1  0
  9  7  1  0
  7 14  2  0
 15 16  1  0
 24 15  1  0
 16 17  1  1
 16 18  1  0
 18 19  1  1
 20 18  1  0
 19 27  1  0
 20 21  1  1
 22 20  1  0
 30 21  1  6
 22 23  1  1
 24 22  1  0
 24 25  1  1
 25 26  1  0
 27 28  2  0
 27 29  1  0
 30 31  1  0
 30 39  1  0
 31 32  1  0
 31 36  1  1
 32 33  1  0
 32 37  1  1
 33 34  1  0
 33 38  1  1
 34 35  1  6
 34 39  1  0
 35 40  1  0
M  END
$$$$
