
     RDKit          3D

 40 42  0  0  0  0  0  0  0  0999 V2000
  -15.2424   26.5238   -0.2996 C   0  0  1  0  0  0  0  0  0  0  0  0
  -14.9982   25.1312   -0.8244 C   0  0  1  0  0  0  0  0  0  0  0  0
  -14.8549   25.2543   -2.3317 C   0  0  2  0  0  0  0  0  0  0  0  0
  -16.2568   25.6398   -2.8231 C   0  0  1  0  0  0  0  0  0  0  0  0
  -16.8842   26.6886   -1.9636 C   0  0  1  0  0  0  0  0  0  0  0  0
  -18.2056   26.2061   -1.3551 C   0  0  0  0  0  0  0  0  0  0  0  0
  -14.0323   23.1472    0.3209 C   0  0  0  0  0  0  0  0  0  0  0  0
  -13.6056   22.9283    1.7199 C   0  0  0  0  0  0  0  0  0  0  0  0
  -13.8990   24.4727   -0.2109 N   0  0  0  0  0  0  0  0  0  0  0  0
  -14.4957   24.0410   -2.9028 O   0  0  0  0  0  0  0  0  0  0  0  0
  -16.2155   25.9800   -4.1740 O   0  0  0  0  0  0  0  0  0  0  0  0
  -16.0724   27.2804   -1.0511 O   0  0  0  0  0  0  0  0  0  0  0  0
  -18.9360   27.2804   -0.8562 O   0  0  0  0  0  0  0  0  0  0  0  0
  -14.4980   22.2316   -0.4030 O   0  0  0  0  0  0  0  0  0  0  0  0
  -13.3797   28.5720    1.0474 O   0  0  0  0  0  0  0  0  0  0  0  0
  -12.6656   29.6396    1.6432 C   0  0  2  0  0  0  0  0  0  0  0  0
  -12.0935   29.0954    2.8070 O   0  0  0  0  0  0  0  0  0  0  0  0
  -13.6046   30.7667    2.0096 C   0  0  2  0  0  0  0  0  0  0  0  0
  -13.5529   31.0995    3.3953 N   0  0  0  0  0  0  0  0  0  0  0  0
  -15.0240   30.4787    1.5607 C   0  0  1  0  0  0  0  0  0  0  0  0
  -15.1666   30.5533    0.2038 O   0  0  0  0  0  0  0  0  0  0  0  0
  -15.4387   29.0909    2.0011 C   0  0  1  0  0  0  0  0  0  0  0  0
  -16.4222   28.5782    1.1231 O   0  0  0  0  0  0  0  0  0  0  0  0
  -14.2706   28.1536    2.0327 C   0  0  1  0  0  0  0  0  0  0  0  0
  -14.6695   26.7160    1.8707 C   0  0  0  0  0  0  0  0  0  0  0  0
  -15.7266   26.5145    1.0194 O   0  0  0  0  0  0  0  0  0  0  0  0
  -13.3052   32.4057    3.8475 C   0  0  0  0  0  0  0  0  0  0  0  0
  -12.7501   33.2742    3.1237 O   0  0  0  0  0  0  0  0  0  0  0  0
  -13.6992   32.7982    5.2110 C   0  0  0  0  0  0  0  0  0  0  0  0
  -16.1877   31.3459   -0.2558 C   0  0  1  0  0  0  0  0  0  0  0  0
  -15.7702   32.7490   -0.6004 C   0  0  1  0  0  0  0  0  0  0  0  0
  -15.1262   32.7126   -1.9692 C   0  0  2  0  0  0  0  0  0  0  0  0
  -15.9950   32.0635   -2.9805 C   0  0  2  0  0  0  0  0  0  0  0  0
  -16.6254   30.8172   -2.4685 C   0  0  1  0  0  0  0  0  0  0  0  0
  -15.7300   29.6540   -2.8447 C   0  0  0  0  0  0  0  0  0  0  0  0
  -16.8450   33.6232   -0.6280 O   0  0  0  0  0  0  0  0  0  0  0  0
  -13.8614   32.1058   -1.9285 O   0  0  0  0  0  0  0  0  0  0  0  0
  -15.1902   31.8166   -4.1123 O   0  0  0  0  0  0  0  0  0  0  0  0
  -17.0368   30.7961   -1.1706 O   0  0  0  0  0  0  0  0  0  0  0  0
  -16.4170   28.4997   -3.1795 O   0  0  0  0  0  0  0  0  0  0  0  0
  1  2  1  0
  1 12  1  0
  1 26  1  1
  2  3  1  0
  2  9  1  1
  3  4  1  0
  3 10  1  6
  5  4  1  0
  4 11  1  6
  5  6  1  1
 12  5  1  0
  6 13  1  0
  7  8  1  0
  9  7  1  0
  7 14  2  0
 15 16  1  0
 24 15  1  0
 16 17  1  1
 16 18  1  0
 18 19  1  1
 20 18  1  0
 19 27  1  0
 20 21  1  6
 22 20  1  0
 30 21  1  6
 22 23  1  6
 24 22  1  0
 24 25  1  6
 25 26  1  0
 27 28  2  0
 27 29  1  0
 30 31  1  0
 30 39  1  0
 31 32  1  0
 31 36  1  6
 32 33  1  0
 32 37  1  1
 33 34  1  0
 33 38  1  6
 34 35  1  1
 34 39  1  0
 35 40  1  0
M  END
$$$$
