
     RDKit          3D

 81 81  0  0  0  0  0  0  0  0999 V2000
   61.1809  -31.4165   -4.7952 N   0  0  0  0  0  4  0  0  0  0  0  0
   60.2357  -32.1650   -5.6757 C   0  0  2  0  0  0  0  0  0  0  0  0
   58.8086  -31.7738   -5.2283 C   0  0  0  0  0  0  0  0  0  0  0  0
   58.6456  -30.7455   -4.5635 O   0  0  0  0  0  0  0  0  0  0  0  0
   60.4590  -33.6786   -5.5583 C   0  0  0  0  0  0  0  0  0  0  0  0
   60.8839  -34.2150   -4.1842 C   0  0  0  0  0  0  0  0  0  0  0  0
   60.9781  -35.7277   -4.0360 C   0  0  0  0  0  0  0  0  0  0  0  0
   61.3997  -36.0715   -2.6878 N   0  0  0  0  0  0  0  0  0  0  0  0
   62.0187  -37.2534   -2.4389 C   0  0  0  0  0  0  0  0  0  0  0  0
   61.9114  -37.8454   -1.2993 N   0  0  0  0  0  0  0  0  0  0  0  0
   62.5851  -37.8181   -3.5154 N   0  0  0  0  0  0  0  0  0  0  0  0
   57.7729  -32.5883   -5.6011 N   0  0  0  0  0  0  0  0  0  0  0  0
   56.9078  -32.2377   -6.7252 C   0  0  2  0  0  0  0  0  0  0  0  0
   55.8834  -33.3833   -6.8797 C   0  0  0  0  0  0  0  0  0  0  0  0
   56.1588  -34.4400   -7.4488 O   0  0  0  0  0  0  0  0  0  0  0  0
   57.7200  -32.0235   -8.0077 C   0  0  0  0  0  0  0  0  0  0  0  0
   56.8651  -31.7395   -9.2500 C   0  0  0  0  0  0  0  0  0  0  0  0
   57.5414  -30.8317  -10.2818 C   0  0  0  0  0  0  0  0  0  0  0  0
   58.0931  -31.6124  -11.3688 N   0  0  0  0  0  0  0  0  0  0  0  0
   58.0995  -31.2105  -12.6592 C   0  0  0  0  0  0  0  0  0  0  0  0
   58.4650  -32.2113  -13.4858 N   0  0  0  0  0  0  0  0  0  0  0  0
   57.7990  -30.0350  -13.0988 N   0  0  0  0  0  0  0  0  0  0  0  0
   54.6473  -33.1302   -6.3267 N   0  0  0  0  0  0  0  0  0  0  0  0
   53.6259  -34.1806   -6.1888 C   0  0  2  0  0  0  0  0  0  0  0  0
   53.0882  -34.6493   -7.5617 C   0  0  0  0  0  0  0  0  0  0  0  0
   53.1940  -33.9770   -8.5854 O   0  0  0  0  0  0  0  0  0  0  0  0
   52.4581  -33.6697   -5.3320 C   0  0  0  0  0  0  0  0  0  0  0  0
   51.3430  -34.6972   -5.1105 C   0  0  0  0  0  0  0  0  0  0  0  0
   50.7436  -34.6966   -3.7035 C   0  0  0  0  0  0  0  0  0  0  0  0
   51.5392  -33.9000   -2.7829 N   0  0  0  0  0  0  0  0  0  0  0  0
   51.0356  -33.5071   -1.5926 C   0  0  0  0  0  0  0  0  0  0  0  0
   49.8117  -33.1877   -1.3744 N   0  0  0  0  0  0  0  0  0  0  0  0
   51.9847  -33.4723   -0.6353 N   0  0  0  0  0  0  0  0  0  0  0  0
   52.5162  -35.9108   -7.5575 N   0  0  0  0  0  0  0  0  0  0  0  0
   52.0762  -36.5086   -8.8093 C   0  0  2  0  0  0  0  0  0  0  0  0
   50.7372  -37.2529   -8.5810 C   0  0  0  0  0  0  0  0  0  0  0  0
   50.4419  -38.2858   -9.1767 O   0  0  0  0  0  0  0  0  0  0  0  0
   53.1431  -37.4310   -9.4152 C   0  0  0  0  0  0  0  0  0  0  0  0
   53.7130  -38.4752   -8.4480 C   0  0  0  0  0  0  0  0  0  0  0  0
   54.7465  -39.3843   -9.1206 C   0  0  0  0  0  0  0  0  0  0  0  0
   54.5618  -40.7730   -8.7279 N   0  0  0  0  0  0  0  0  0  0  0  0
   53.6056  -41.5596   -9.2678 C   0  0  0  0  0  0  0  0  0  0  0  0
   53.2417  -42.7026   -8.8168 N   0  0  0  0  0  0  0  0  0  0  0  0
   53.0634  -40.9885  -10.3596 N   0  0  0  0  0  0  0  0  0  0  0  0
   47.5178  -36.6147   -8.2821 C   0  0  0  0  0  0  0  0  0  0  0  0
   49.8761  -36.6136   -7.6993 N   0  0  0  0  0  0  0  0  0  0  0  0
   47.4319  -35.3983   -8.4438 O   0  0  0  0  0  0  0  0  0  0  0  0
   48.5967  -37.2434   -7.3672 C   0  0  1  0  0  0  0  0  0  0  0  0
   48.2922  -37.0862   -5.8642 C   0  0  0  0  0  0  0  0  0  0  0  0
   49.4047  -36.9207   -3.5618 C   0  0  0  0  0  0  0  0  0  0  0  0
   49.8168  -35.4515   -3.5921 C   0  0  0  0  0  0  0  0  0  0  0  0
   49.3872  -37.6181   -4.9291 C   0  0  0  0  0  0  0  0  0  0  0  0
   50.9597  -35.1878   -2.6903 N   0  0  0  0  0  4  0  0  0  0  0  0
   46.6804  -37.4971   -8.9234 N   0  0  0  0  0  0  0  0  0  0  0  0
   46.1076  -37.2781  -10.2693 C   0  0  2  0  0  0  0  0  0  0  0  0
   45.0254  -38.3012  -10.6741 C   0  0  0  0  0  0  0  0  0  0  0  0
   45.3404  -39.3875  -11.1542 O   0  0  0  0  0  0  0  0  0  0  0  0
   47.2052  -37.1614  -11.3381 C   0  0  0  0  0  0  0  0  0  0  0  0
   47.9315  -35.8114  -11.3767 C   0  0  0  0  0  0  0  0  0  0  0  0
   48.8669  -35.6266  -12.5769 C   0  0  0  0  0  0  0  0  0  0  0  0
   48.1470  -35.0511  -13.7214 N   0  0  0  0  0  0  0  0  0  0  0  0
   48.2446  -33.7073  -13.9232 C   0  0  0  0  0  0  0  0  0  0  0  0
   49.3023  -33.0142  -13.7129 N   0  0  0  0  0  0  0  0  0  0  0  0
   47.0993  -33.1854  -14.4001 N   0  0  0  0  0  0  0  0  0  0  0  0
   43.7265  -37.9626  -10.3403 N   0  0  0  0  0  0  0  0  0  0  0  0
   42.7602  -38.9780   -9.9694 C   0  0  0  0  0  0  0  0  0  0  0  0
   42.7414  -39.2765   -8.4931 C   0  0  0  0  0  0  0  0  0  0  0  0
   42.3532  -38.3022   -7.5604 C   0  0  0  0  0  0  0  0  0  0  0  0
   42.3165  -38.6023   -6.1974 C   0  0  0  0  0  0  0  0  0  0  0  0
   42.6565  -39.8838   -5.7506 C   0  0  0  0  0  0  0  0  0  0  0  0
   42.5847  -40.2002   -4.3005 C   0  0  0  0  0  0  0  0  0  0  0  0
   42.1923  -39.2466   -3.4017 N   0  0  0  0  0  0  0  0  0  0  0  0
   42.8927  -41.3610   -3.8140 N   0  0  0  0  0  0  0  0  0  0  0  0
   43.0558  -40.8598   -6.6678 C   0  0  0  0  0  0  0  0  0  0  0  0
   43.0952  -40.5554   -8.0302 C   0  0  0  0  0  0  0  0  0  0  0  0
   61.1533  -37.3840   -0.7782 H   0  0  0  0  0  0  0  0  0  0  0  0
   57.6060  -29.4557  -12.2792 H   0  0  0  0  0  0  0  0  0  0  0  0
   49.3401  -33.0210   -2.2617 H   0  0  0  0  0  0  0  0  0  0  0  0
   53.0361  -43.3482   -9.5806 H   0  0  0  0  0  0  0  0  0  0  0  0
   50.0518  -33.6079  -13.3568 H   0  0  0  0  0  0  0  0  0  0  0  0
   42.2623  -41.6254   -3.0505 H   0  0  0  0  0  0  0  0  0  0  0  0
  2  1  1  1
  3  2  1  0
  2  5  1  0
  3  4  2  0
 12  3  1  0
  5  6  1  0
  6  7  1  0
  7  8  1  0
  8  9  1  0
  9 10  2  0
  9 11  1  0
 13 12  1  0
 14 13  1  0
 13 16  1  6
 14 15  2  0
 23 14  1  0
 16 17  1  0
 17 18  1  0
 18 19  1  0
 19 20  1  0
 20 21  1  0
 20 22  2  0
 24 23  1  0
 25 24  1  0
 24 27  1  1
 25 26  2  0
 34 25  1  0
 27 28  1  0
 28 29  1  0
 29 30  1  0
 30 31  1  0
 31 32  2  0
 31 33  1  0
 35 34  1  0
 36 35  1  0
 35 38  1  1
 36 37  2  0
 46 36  1  0
 38 39  1  0
 39 40  1  0
 40 41  1  0
 41 42  1  0
 42 43  2  0
 42 44  1  0
 45 47  2  0
 48 45  1  0
 45 54  1  0
 48 46  1  0
 48 49  1  1
 52 49  1  0
 50 51  1  0
 50 52  1  0
 51 53  1  0
 54 55  1  0
 55 56  1  0
 55 58  1  6
 56 57  2  0
 56 65  1  0
 58 59  1  0
 59 60  1  0
 60 61  1  0
 61 62  1  0
 62 63  2  0
 62 64  1  0
 65 66  1  0
 66 67  1  0
 67 68  2  0
 67 75  1  0
 68 69  1  0
 69 70  2  0
 70 71  1  0
 70 74  1  0
 71 72  1  0
 71 73  2  0
 74 75  2  0
 10 76  1  0
 22 77  1  0
 32 78  1  0
 43 79  1  0
 63 80  1  0
 73 81  1  0
M  CHG  2   1   1  53   1
M  END
$$$$
