
     RDKit          3D

 81 81  0  0  0  0  0  0  0  0999 V2000
   55.5578  -36.5717   -2.0606 N   0  0  0  0  0  4  0  0  0  0  0  0
   54.9787  -36.1474   -0.7515 C   0  0  2  0  0  0  0  0  0  0  0  0
   55.0960  -34.6071   -0.6931 C   0  0  0  0  0  0  0  0  0  0  0  0
   54.3551  -33.9741    0.0661 O   0  0  0  0  0  0  0  0  0  0  0  0
   55.7243  -36.8057    0.4170 C   0  0  0  0  0  0  0  0  0  0  0  0
   56.1076  -35.9009    1.5963 C   0  0  0  0  0  0  0  0  0  0  0  0
   55.8955  -34.4043    1.4117 C   0  0  0  0  0  0  0  0  0  0  0  0
   55.4092  -34.1313    0.0691 N   0  0  0  0  0  0  0  0  0  0  0  0
   54.3093  -33.3597   -0.1226 C   0  0  0  0  0  0  0  0  0  0  0  0
   54.3368  -32.0852    0.0662 N   0  0  0  0  0  0  0  0  0  0  0  0
   53.2745  -34.0022   -0.6838 N   0  0  0  0  0  0  0  0  0  0  0  0
   56.0341  -34.0040   -1.4877 N   0  0  0  0  0  0  0  0  0  0  0  0
   56.0714  -32.5509   -1.6363 C   0  0  2  0  0  0  0  0  0  0  0  0
   55.8317  -32.2447   -3.1312 C   0  0  0  0  0  0  0  0  0  0  0  0
   56.3540  -31.2844   -3.6981 O   0  0  0  0  0  0  0  0  0  0  0  0
   57.4038  -31.9744   -1.1436 C   0  0  0  0  0  0  0  0  0  0  0  0
   58.6129  -32.8833   -1.4020 C   0  0  0  0  0  0  0  0  0  0  0  0
   59.8987  -32.4285   -0.7049 C   0  0  0  0  0  0  0  0  0  0  0  0
   60.9321  -33.4349   -0.8268 N   0  0  0  0  0  0  0  0  0  0  0  0
   60.9970  -34.5465   -0.0607 C   0  0  0  0  0  0  0  0  0  0  0  0
   61.7271  -35.5126   -0.6542 N   0  0  0  0  0  0  0  0  0  0  0  0
   60.4536  -34.7134    1.0978 N   0  0  0  0  0  0  0  0  0  0  0  0
   54.9968  -33.1314   -3.7750 N   0  0  0  0  0  0  0  0  0  0  0  0
   54.6783  -33.0027   -5.2059 C   0  0  2  0  0  0  0  0  0  0  0  0
   53.6950  -34.0985   -5.6811 C   0  0  0  0  0  0  0  0  0  0  0  0
   53.8951  -35.2982   -5.5032 O   0  0  0  0  0  0  0  0  0  0  0  0
   55.9656  -33.0770   -6.0402 C   0  0  0  0  0  0  0  0  0  0  0  0
   57.0631  -33.9539   -5.4279 C   0  0  0  0  0  0  0  0  0  0  0  0
   58.2778  -34.1800   -6.3292 C   0  0  0  0  0  0  0  0  0  0  0  0
   58.8666  -32.9219   -6.7598 N   0  0  0  0  0  0  0  0  0  0  0  0
   60.0001  -32.9024   -7.4944 C   0  0  0  0  0  0  0  0  0  0  0  0
   61.1512  -33.3027   -7.0919 N   0  0  0  0  0  0  0  0  0  0  0  0
   59.7899  -32.3912   -8.7244 N   0  0  0  0  0  0  0  0  0  0  0  0
   52.5443  -33.6191   -6.2850 N   0  0  0  0  0  0  0  0  0  0  0  0
   51.2420  -33.9664   -5.7361 C   0  0  2  0  0  0  0  0  0  0  0  0
   50.1305  -33.3304   -6.6074 C   0  0  0  0  0  0  0  0  0  0  0  0
   50.0904  -32.1288   -6.8593 O   0  0  0  0  0  0  0  0  0  0  0  0
   51.1101  -33.5610   -4.2614 C   0  0  0  0  0  0  0  0  0  0  0  0
   50.5770  -34.6629   -3.3382 C   0  0  0  0  0  0  0  0  0  0  0  0
   50.9269  -34.4067   -1.8689 C   0  0  0  0  0  0  0  0  0  0  0  0
   49.8620  -33.6823   -1.1920 N   0  0  0  0  0  0  0  0  0  0  0  0
   50.0453  -32.4577   -0.6525 C   0  0  0  0  0  0  0  0  0  0  0  0
   51.1305  -31.7780   -0.7042 N   0  0  0  0  0  0  0  0  0  0  0  0
   48.9278  -32.0216   -0.0416 N   0  0  0  0  0  0  0  0  0  0  0  0
   48.0881  -35.8571   -8.4689 C   0  0  0  0  0  0  0  0  0  0  0  0
   49.1505  -34.2241   -7.0177 N   0  0  0  0  0  0  0  0  0  0  0  0
   48.0728  -37.0026   -8.0210 O   0  0  0  0  0  0  0  0  0  0  0  0
   49.3125  -34.9266   -8.2920 C   0  0  1  0  0  0  0  0  0  0  0  0
   50.6600  -35.6745   -8.3281 C   0  0  0  0  0  0  0  0  0  0  0  0
   52.4482  -36.7317   -9.8284 C   0  0  0  0  0  0  0  0  0  0  0  0
   53.1605  -36.7630  -11.1779 C   0  0  0  0  0  0  0  0  0  0  0  0
   51.3737  -35.6447   -9.6869 C   0  0  0  0  0  0  0  0  0  0  0  0
   52.3097  -36.2114  -12.2554 N   0  0  0  0  0  4  0  0  0  0  0  0
   47.0103  -35.3181   -9.1313 N   0  0  0  0  0  0  0  0  0  0  0  0
   45.8204  -36.0870   -9.5564 C   0  0  2  0  0  0  0  0  0  0  0  0
   45.8148  -37.5587   -9.0920 C   0  0  0  0  0  0  0  0  0  0  0  0
   46.4111  -38.4195   -9.7349 O   0  0  0  0  0  0  0  0  0  0  0  0
   45.5832  -35.9694  -11.0699 C   0  0  0  0  0  0  0  0  0  0  0  0
   45.6934  -34.5481  -11.6348 C   0  0  0  0  0  0  0  0  0  0  0  0
   44.8261  -34.2862  -12.8713 C   0  0  0  0  0  0  0  0  0  0  0  0
   43.9241  -35.4170  -13.1304 N   0  0  0  0  0  0  0  0  0  0  0  0
   44.1501  -36.1679  -14.2445 C   0  0  0  0  0  0  0  0  0  0  0  0
   45.2944  -36.3168  -14.8026 N   0  0  0  0  0  0  0  0  0  0  0  0
   43.0275  -36.7660  -14.6846 N   0  0  0  0  0  0  0  0  0  0  0  0
   45.2191  -37.7977   -7.8667 N   0  0  0  0  0  0  0  0  0  0  0  0
   43.7931  -38.0383   -7.7621 C   0  0  0  0  0  0  0  0  0  0  0  0
   43.4390  -39.4974   -7.6409 C   0  0  0  0  0  0  0  0  0  0  0  0
   42.1951  -39.9027   -7.1329 C   0  0  0  0  0  0  0  0  0  0  0  0
   41.8720  -41.2584   -7.0507 C   0  0  0  0  0  0  0  0  0  0  0  0
   42.7841  -42.2258   -7.4862 C   0  0  0  0  0  0  0  0  0  0  0  0
   42.4172  -43.6643   -7.4218 C   0  0  0  0  0  0  0  0  0  0  0  0
   41.4769  -44.1005   -6.5292 N   0  0  0  0  0  0  0  0  0  0  0  0
   42.9596  -44.5669   -8.1771 N   0  0  0  0  0  0  0  0  0  0  0  0
   44.0307  -41.8362   -7.9836 C   0  0  0  0  0  0  0  0  0  0  0  0
   44.3525  -40.4794   -8.0609 C   0  0  0  0  0  0  0  0  0  0  0  0
   55.1873  -31.7213   -0.3848 H   0  0  0  0  0  0  0  0  0  0  0  0
   59.5542  -34.2287    1.0726 H   0  0  0  0  0  0  0  0  0  0  0  0
   61.6759  -32.5125   -6.7209 H   0  0  0  0  0  0  0  0  0  0  0  0
   50.9981  -30.8473   -0.3056 H   0  0  0  0  0  0  0  0  0  0  0  0
   45.4982  -37.3073  -14.9379 H   0  0  0  0  0  0  0  0  0  0  0  0
   43.0529  -44.2387   -9.1434 H   0  0  0  0  0  0  0  0  0  0  0  0
  2  1  1  6
  3  2  1  0
  2  5  1  0
  3  4  2  0
 12  3  1  0
  5  6  1  0
  6  7  1  0
  7  8  1  0
  8  9  1  0
  9 10  2  0
  9 11  1  0
 13 12  1  0
 14 13  1  0
 13 16  1  6
 14 15  2  0
 23 14  1  0
 16 17  1  0
 17 18  1  0
 18 19  1  0
 19 20  1  0
 20 21  1  0
 20 22  2  0
 24 23  1  0
 25 24  1  0
 24 27  1  6
 25 26  2  0
 34 25  1  0
 27 28  1  0
 28 29  1  0
 29 30  1  0
 30 31  1  0
 31 32  2  0
 31 33  1  0
 35 34  1  0
 36 35  1  0
 35 38  1  1
 36 37  2  0
 46 36  1  0
 38 39  1  0
 39 40  1  0
 40 41  1  0
 41 42  1  0
 42 43  2  0
 42 44  1  0
 45 47  2  0
 48 45  1  0
 45 54  1  0
 48 46  1  0
 48 49  1  1
 52 49  1  0
 50 51  1  0
 50 52  1  0
 51 53  1  0
 54 55  1  0
 55 56  1  0
 55 58  1  6
 56 57  2  0
 56 65  1  0
 58 59  1  0
 59 60  1  0
 60 61  1  0
 61 62  1  0
 62 63  2  0
 62 64  1  0
 65 66  1  0
 66 67  1  0
 67 68  2  0
 67 75  1  0
 68 69  1  0
 69 70  2  0
 70 71  1  0
 70 74  1  0
 71 72  1  0
 71 73  2  0
 74 75  2  0
 10 76  1  0
 22 77  1  0
 32 78  1  0
 43 79  1  0
 63 80  1  0
 73 81  1  0
M  CHG  2   1   1  53   1
M  END
$$$$
