
     RDKit          3D

 81 81  0  0  0  0  0  0  0  0999 V2000
   57.9974  -33.7545   -9.2849 N   0  0  0  0  0  4  0  0  0  0  0  0
   58.1737  -34.6748  -10.4472 C   0  0  2  0  0  0  0  0  0  0  0  0
   57.8910  -33.8423  -11.7188 C   0  0  0  0  0  0  0  0  0  0  0  0
   58.7392  -33.8047  -12.6160 O   0  0  0  0  0  0  0  0  0  0  0  0
   57.2221  -35.8743  -10.3460 C   0  0  0  0  0  0  0  0  0  0  0  0
   56.0703  -35.7659   -9.3371 C   0  0  0  0  0  0  0  0  0  0  0  0
   55.1240  -36.9554   -9.2439 C   0  0  0  0  0  0  0  0  0  0  0  0
   55.7818  -38.1558   -9.7338 N   0  0  0  0  0  0  0  0  0  0  0  0
   56.0899  -38.2855  -11.0492 C   0  0  0  0  0  0  0  0  0  0  0  0
   57.1270  -38.9442  -11.4384 N   0  0  0  0  0  0  0  0  0  0  0  0
   55.1446  -37.8326  -11.8856 N   0  0  0  0  0  0  0  0  0  0  0  0
   56.6940  -33.1824  -11.8012 N   0  0  0  0  0  0  0  0  0  0  0  0
   56.3577  -32.3792  -12.9745 C   0  0  2  0  0  0  0  0  0  0  0  0
   55.0467  -31.6308  -12.6474 C   0  0  0  0  0  0  0  0  0  0  0  0
   54.5058  -30.8694  -13.4499 O   0  0  0  0  0  0  0  0  0  0  0  0
   56.2171  -33.2531  -14.2264 C   0  0  0  0  0  0  0  0  0  0  0  0
   56.4586  -32.5034  -15.5434 C   0  0  0  0  0  0  0  0  0  0  0  0
   55.3908  -31.4558  -15.8729 C   0  0  0  0  0  0  0  0  0  0  0  0
   55.2474  -31.3021  -17.3051 N   0  0  0  0  0  0  0  0  0  0  0  0
   54.3184  -30.5140  -17.8902 C   0  0  0  0  0  0  0  0  0  0  0  0
   54.3518  -30.6262  -19.2337 N   0  0  0  0  0  0  0  0  0  0  0  0
   53.4800  -29.7390  -17.2887 N   0  0  0  0  0  0  0  0  0  0  0  0
   54.5326  -31.8881  -11.3955 N   0  0  0  0  0  0  0  0  0  0  0  0
   53.4709  -32.8839  -11.1791 C   0  0  2  0  0  0  0  0  0  0  0  0
   53.2068  -33.1312   -9.6748 C   0  0  0  0  0  0  0  0  0  0  0  0
   54.0959  -33.0999   -8.8266 O   0  0  0  0  0  0  0  0  0  0  0  0
   53.8482  -34.2105  -11.8547 C   0  0  0  0  0  0  0  0  0  0  0  0
   55.1213  -34.8594  -11.3011 C   0  0  0  0  0  0  0  0  0  0  0  0
   55.5574  -36.1327  -12.0273 C   0  0  0  0  0  0  0  0  0  0  0  0
   54.6971  -37.2581  -11.6983 N   0  0  0  0  0  0  0  0  0  0  0  0
   55.0894  -38.5266  -11.9470 C   0  0  0  0  0  0  0  0  0  0  0  0
   56.3022  -38.9460  -11.9215 N   0  0  0  0  0  0  0  0  0  0  0  0
   54.0437  -39.3237  -12.2462 N   0  0  0  0  0  0  0  0  0  0  0  0
   51.8777  -33.3465   -9.3499 N   0  0  0  0  0  0  0  0  0  0  0  0
   51.4998  -33.5661   -7.9618 C   0  0  2  0  0  0  0  0  0  0  0  0
   50.7000  -34.8878   -7.8495 C   0  0  0  0  0  0  0  0  0  0  0  0
   50.6735  -35.7261   -8.7469 O   0  0  0  0  0  0  0  0  0  0  0  0
   50.7197  -32.3786   -7.3809 C   0  0  0  0  0  0  0  0  0  0  0  0
   49.9815  -31.5258   -8.4195 C   0  0  0  0  0  0  0  0  0  0  0  0
   49.1587  -30.4078   -7.7714 C   0  0  0  0  0  0  0  0  0  0  0  0
   49.2486  -29.1747   -8.5385 N   0  0  0  0  0  0  0  0  0  0  0  0
   49.9554  -28.1049   -8.1138 C   0  0  0  0  0  0  0  0  0  0  0  0
   49.5444  -26.8911   -8.1244 N   0  0  0  0  0  0  0  0  0  0  0  0
   51.1704  -28.4705   -7.6641 N   0  0  0  0  0  0  0  0  0  0  0  0
   48.0179  -36.4222   -7.0150 C   0  0  0  0  0  0  0  0  0  0  0  0
   49.9637  -35.0073   -6.6785 N   0  0  0  0  0  0  0  0  0  0  0  0
   47.5120  -35.4736   -7.6128 O   0  0  0  0  0  0  0  0  0  0  0  0
   49.3969  -36.3089   -6.3207 C   0  0  1  0  0  0  0  0  0  0  0  0
   49.3253  -36.4634   -4.7886 C   0  0  0  0  0  0  0  0  0  0  0  0
   49.3351  -38.3387   -3.0423 C   0  0  0  0  0  0  0  0  0  0  0  0
   48.3710  -38.6817   -1.9099 C   0  0  0  0  0  0  0  0  0  0  0  0
   48.6756  -37.7676   -4.3053 C   0  0  0  0  0  0  0  0  0  0  0  0
   49.0880  -39.1886   -0.7192 N   0  0  0  0  0  4  0  0  0  0  0  0
   47.4064  -37.6519   -6.9472 N   0  0  0  0  0  0  0  0  0  0  0  0
   46.4199  -38.1505   -7.9301 C   0  0  2  0  0  0  0  0  0  0  0  0
   45.7602  -39.4914   -7.5451 C   0  0  0  0  0  0  0  0  0  0  0  0
   46.4401  -40.5055   -7.4062 O   0  0  0  0  0  0  0  0  0  0  0  0
   47.0090  -38.1952   -9.3484 C   0  0  0  0  0  0  0  0  0  0  0  0
   46.0246  -38.6162  -10.4462 C   0  0  0  0  0  0  0  0  0  0  0  0
   44.5891  -38.8449   -9.9598 C   0  0  0  0  0  0  0  0  0  0  0  0
   43.6802  -39.0737  -11.0916 N   0  0  0  0  0  0  0  0  0  0  0  0
   43.3753  -40.3625  -11.4114 C   0  0  0  0  0  0  0  0  0  0  0  0
   42.5926  -40.7105  -12.3650 N   0  0  0  0  0  0  0  0  0  0  0  0
   44.0172  -41.2426  -10.6208 N   0  0  0  0  0  0  0  0  0  0  0  0
   44.4105  -39.4314   -7.2486 N   0  0  0  0  0  0  0  0  0  0  0  0
   43.7950  -40.4006   -6.3630 C   0  0  0  0  0  0  0  0  0  0  0  0
   43.7022  -39.9324   -4.9343 C   0  0  0  0  0  0  0  0  0  0  0  0
   44.4084  -40.5822   -3.9101 C   0  0  0  0  0  0  0  0  0  0  0  0
   44.3320  -40.1204   -2.5949 C   0  0  0  0  0  0  0  0  0  0  0  0
   43.5577  -38.9961   -2.2887 C   0  0  0  0  0  0  0  0  0  0  0  0
   43.5081  -38.4959   -0.8903 C   0  0  0  0  0  0  0  0  0  0  0  0
   44.1929  -39.1425    0.1017 N   0  0  0  0  0  0  0  0  0  0  0  0
   42.8229  -37.4548   -0.5356 N   0  0  0  0  0  0  0  0  0  0  0  0
   42.8405  -38.3466   -3.2972 C   0  0  0  0  0  0  0  0  0  0  0  0
   42.9158  -38.8133   -4.6113 C   0  0  0  0  0  0  0  0  0  0  0  0
   57.5604  -39.3646  -10.6049 H   0  0  0  0  0  0  0  0  0  0  0  0
   52.8066  -29.4319  -17.9935 H   0  0  0  0  0  0  0  0  0  0  0  0
   56.6371  -38.9608  -10.9597 H   0  0  0  0  0  0  0  0  0  0  0  0
   48.5247  -26.8509   -8.1576 H   0  0  0  0  0  0  0  0  0  0  0  0
   42.2672  -39.8895  -12.8760 H   0  0  0  0  0  0  0  0  0  0  0  0
   41.8312  -37.6834   -0.4152 H   0  0  0  0  0  0  0  0  0  0  0  0
  2  1  1  1
  3  2  1  0
  2  5  1  0
  3  4  2  0
 12  3  1  0
  5  6  1  0
  6  7  1  0
  7  8  1  0
  8  9  1  0
  9 10  2  0
  9 11  1  0
 13 12  1  0
 14 13  1  0
 13 16  1  6
 14 15  2  0
 23 14  1  0
 16 17  1  0
 17 18  1  0
 18 19  1  0
 19 20  1  0
 20 21  1  0
 20 22  2  0
 24 23  1  0
 25 24  1  0
 24 27  1  1
 25 26  2  0
 34 25  1  0
 27 28  1  0
 28 29  1  0
 29 30  1  0
 30 31  1  0
 31 32  2  0
 31 33  1  0
 35 34  1  0
 36 35  1  0
 35 38  1  6
 36 37  2  0
 46 36  1  0
 38 39  1  0
 39 40  1  0
 40 41  1  0
 41 42  1  0
 42 43  2  0
 42 44  1  0
 45 47  2  0
 48 45  1  0
 45 54  1  0
 48 46  1  0
 48 49  1  1
 52 49  1  0
 50 51  1  0
 50 52  1  0
 51 53  1  0
 54 55  1  0
 55 56  1  0
 55 58  1  6
 56 57  2  0
 56 65  1  0
 58 59  1  0
 59 60  1  0
 60 61  1  0
 61 62  1  0
 62 63  2  0
 62 64  1  0
 65 66  1  0
 66 67  1  0
 67 68  2  0
 67 75  1  0
 68 69  1  0
 69 70  2  0
 70 71  1  0
 70 74  1  0
 71 72  1  0
 71 73  2  0
 74 75  2  0
 10 76  1  0
 22 77  1  0
 32 78  1  0
 43 79  1  0
 63 80  1  0
 73 81  1  0
M  CHG  2   1   1  53   1
M  END
$$$$
