
     RDKit          3D

 81 81  0  0  0  0  0  0  0  0999 V2000
   50.4163  -33.2601   -1.6749 N   0  0  0  0  0  4  0  0  0  0  0  0
   50.6532  -31.7915   -1.8026 C   0  0  2  0  0  0  0  0  0  0  0  0
   52.1806  -31.5995   -1.9442 C   0  0  0  0  0  0  0  0  0  0  0  0
   52.6484  -30.4563   -1.9334 O   0  0  0  0  0  0  0  0  0  0  0  0
   50.1102  -31.0402   -0.5798 C   0  0  0  0  0  0  0  0  0  0  0  0
   50.3833  -31.6617    0.7970 C   0  0  0  0  0  0  0  0  0  0  0  0
   51.7068  -32.3947    0.9699 C   0  0  0  0  0  0  0  0  0  0  0  0
   51.6456  -33.2677    2.1308 N   0  0  0  0  0  0  0  0  0  0  0  0
   52.3408  -32.9677    3.2570 C   0  0  0  0  0  0  0  0  0  0  0  0
   52.8480  -31.7982    3.4465 N   0  0  0  0  0  0  0  0  0  0  0  0
   52.2960  -33.9166    4.2036 N   0  0  0  0  0  0  0  0  0  0  0  0
   52.9598  -32.7189   -2.0672 N   0  0  0  0  0  0  0  0  0  0  0  0
   54.4144  -32.6159   -2.1584 C   0  0  2  0  0  0  0  0  0  0  0  0
   54.7972  -32.9295   -3.6216 C   0  0  0  0  0  0  0  0  0  0  0  0
   55.9646  -32.9172   -4.0135 O   0  0  0  0  0  0  0  0  0  0  0  0
   55.1033  -33.5674   -1.1733 C   0  0  0  0  0  0  0  0  0  0  0  0
   56.6252  -33.6557   -1.3486 C   0  0  0  0  0  0  0  0  0  0  0  0
   57.3219  -34.5611   -0.3283 C   0  0  0  0  0  0  0  0  0  0  0  0
   58.7520  -34.5805   -0.5516 N   0  0  0  0  0  0  0  0  0  0  0  0
   59.4511  -35.6927   -0.8695 C   0  0  0  0  0  0  0  0  0  0  0  0
   60.5884  -35.3891   -1.5275 N   0  0  0  0  0  0  0  0  0  0  0  0
   59.1214  -36.9105   -0.5985 N   0  0  0  0  0  0  0  0  0  0  0  0
   53.7338  -33.2283   -4.4448 N   0  0  0  0  0  0  0  0  0  0  0  0
   53.7187  -34.4313   -5.2922 C   0  0  2  0  0  0  0  0  0  0  0  0
   52.4731  -34.4784   -6.2086 C   0  0  0  0  0  0  0  0  0  0  0  0
   51.3455  -34.1822   -5.8189 O   0  0  0  0  0  0  0  0  0  0  0  0
   53.7545  -35.6924   -4.4163 C   0  0  0  0  0  0  0  0  0  0  0  0
   53.8221  -37.0048   -5.2044 C   0  0  0  0  0  0  0  0  0  0  0  0
   53.8178  -38.2686   -4.3431 C   0  0  0  0  0  0  0  0  0  0  0  0
   52.4698  -38.6386   -3.9421 N   0  0  0  0  0  0  0  0  0  0  0  0
   51.4909  -38.7923   -4.8602 C   0  0  0  0  0  0  0  0  0  0  0  0
   51.1101  -37.8948   -5.6951 N   0  0  0  0  0  0  0  0  0  0  0  0
   50.9324  -40.0179   -4.7952 N   0  0  0  0  0  0  0  0  0  0  0  0
   52.7349  -34.8381   -7.5204 N   0  0  0  0  0  0  0  0  0  0  0  0
   51.6450  -34.9043   -8.4825 C   0  0  2  0  0  0  0  0  0  0  0  0
   50.5924  -35.9317   -7.9972 C   0  0  0  0  0  0  0  0  0  0  0  0
   50.6312  -36.4457   -6.8823 O   0  0  0  0  0  0  0  0  0  0  0  0
   52.1433  -35.2266   -9.8982 C   0  0  0  0  0  0  0  0  0  0  0  0
   53.6575  -35.4380  -10.0130 C   0  0  0  0  0  0  0  0  0  0  0  0
   54.4092  -34.1243  -10.2497 C   0  0  0  0  0  0  0  0  0  0  0  0
   55.6683  -34.3548  -10.9415 N   0  0  0  0  0  0  0  0  0  0  0  0
   56.6495  -35.1268  -10.4262 C   0  0  0  0  0  0  0  0  0  0  0  0
   56.8425  -35.3489   -9.1789 N   0  0  0  0  0  0  0  0  0  0  0  0
   57.4185  -35.6515  -11.3986 N   0  0  0  0  0  0  0  0  0  0  0  0
   47.5739  -37.3813   -9.5648 C   0  0  0  0  0  0  0  0  0  0  0  0
   49.6464  -36.2701   -8.9555 N   0  0  0  0  0  0  0  0  0  0  0  0
   48.2098  -37.9227  -10.4680 O   0  0  0  0  0  0  0  0  0  0  0  0
   48.2459  -36.4191   -8.5554 C   0  0  1  0  0  0  0  0  0  0  0  0
   47.5591  -35.0415   -8.4725 C   0  0  0  0  0  0  0  0  0  0  0  0
   46.9287  -32.8509   -9.6431 C   0  0  0  0  0  0  0  0  0  0  0  0
   47.0228  -31.9658  -10.8829 C   0  0  0  0  0  0  0  0  0  0  0  0
   47.6380  -34.2073   -9.7587 C   0  0  0  0  0  0  0  0  0  0  0  0
   45.7968  -31.1591  -11.0703 N   0  0  0  0  0  4  0  0  0  0  0  0
   46.2323  -37.6156   -9.3750 N   0  0  0  0  0  0  0  0  0  0  0  0
   45.5919  -38.9443   -9.4855 C   0  0  2  0  0  0  0  0  0  0  0  0
   44.3720  -38.9859  -10.4299 C   0  0  0  0  0  0  0  0  0  0  0  0
   43.3552  -38.3484  -10.1663 O   0  0  0  0  0  0  0  0  0  0  0  0
   45.2588  -39.5273   -8.1036 C   0  0  0  0  0  0  0  0  0  0  0  0
   46.2563  -39.1744   -6.9935 C   0  0  0  0  0  0  0  0  0  0  0  0
   45.9173  -39.7680   -5.6216 C   0  0  0  0  0  0  0  0  0  0  0  0
   44.4715  -39.9953   -5.4893 N   0  0  0  0  0  0  0  0  0  0  0  0
   43.9505  -40.0593   -4.2321 C   0  0  0  0  0  0  0  0  0  0  0  0
   44.6444  -40.0409   -3.1545 N   0  0  0  0  0  0  0  0  0  0  0  0
   42.6059  -40.1179   -4.2468 N   0  0  0  0  0  0  0  0  0  0  0  0
   44.5589  -39.6660  -11.6198 N   0  0  0  0  0  0  0  0  0  0  0  0
   45.8880  -39.8821  -12.1574 C   0  0  0  0  0  0  0  0  0  0  0  0
   46.3226  -38.8152  -13.1279 C   0  0  0  0  0  0  0  0  0  0  0  0
   47.4973  -38.9555  -13.8829 C   0  0  0  0  0  0  0  0  0  0  0  0
   47.8730  -37.9694  -14.7970 C   0  0  0  0  0  0  0  0  0  0  0  0
   47.0730  -36.8357  -14.9761 C   0  0  0  0  0  0  0  0  0  0  0  0
   47.4674  -35.8073  -15.9736 C   0  0  0  0  0  0  0  0  0  0  0  0
   48.7253  -35.8097  -16.5111 N   0  0  0  0  0  0  0  0  0  0  0  0
   46.6703  -34.8668  -16.3725 N   0  0  0  0  0  0  0  0  0  0  0  0
   45.9066  -36.6782  -14.2225 C   0  0  0  0  0  0  0  0  0  0  0  0
   45.5354  -37.6646  -13.3061 C   0  0  0  0  0  0  0  0  0  0  0  0
   53.8569  -31.9185    3.6102 H   0  0  0  0  0  0  0  0  0  0  0  0
   59.9690  -37.3779   -0.2704 H   0  0  0  0  0  0  0  0  0  0  0  0
   51.8969  -37.2921   -5.9295 H   0  0  0  0  0  0  0  0  0  0  0  0
   56.2604  -34.7376   -8.6045 H   0  0  0  0  0  0  0  0  0  0  0  0
   45.1749  -40.9070   -3.0578 H   0  0  0  0  0  0  0  0  0  0  0  0
   46.0084  -34.6008  -15.6367 H   0  0  0  0  0  0  0  0  0  0  0  0
  2  1  1  1
  3  2  1  0
  2  5  1  0
  3  4  2  0
 12  3  1  0
  5  6  1  0
  6  7  1  0
  7  8  1  0
  8  9  1  0
  9 10  2  0
  9 11  1  0
 13 12  1  0
 14 13  1  0
 13 16  1  1
 14 15  2  0
 23 14  1  0
 16 17  1  0
 17 18  1  0
 18 19  1  0
 19 20  1  0
 20 21  1  0
 20 22  2  0
 24 23  1  0
 25 24  1  0
 24 27  1  1
 25 26  2  0
 34 25  1  0
 27 28  1  0
 28 29  1  0
 29 30  1  0
 30 31  1  0
 31 32  2  0
 31 33  1  0
 35 34  1  0
 36 35  1  0
 35 38  1  6
 36 37  2  0
 46 36  1  0
 38 39  1  0
 39 40  1  0
 40 41  1  0
 41 42  1  0
 42 43  2  0
 42 44  1  0
 45 47  2  0
 48 45  1  0
 45 54  1  0
 48 46  1  0
 48 49  1  6
 52 49  1  0
 50 51  1  0
 50 52  1  0
 51 53  1  0
 54 55  1  0
 55 56  1  0
 55 58  1  1
 56 57  2  0
 56 65  1  0
 58 59  1  0
 59 60  1  0
 60 61  1  0
 61 62  1  0
 62 63  2  0
 62 64  1  0
 65 66  1  0
 66 67  1  0
 67 68  2  0
 67 75  1  0
 68 69  1  0
 69 70  2  0
 70 71  1  0
 70 74  1  0
 71 72  1  0
 71 73  2  0
 74 75  2  0
 10 76  1  0
 22 77  1  0
 32 78  1  0
 43 79  1  0
 63 80  1  0
 73 81  1  0
M  CHG  2   1   1  53   1
M  END
$$$$
