
     RDKit          3D

 81 81  0  0  0  0  0  0  0  0999 V2000
   55.6796  -31.6249   -0.6137 N   0  0  0  0  0  4  0  0  0  0  0  0
   56.2525  -32.9927   -0.7868 C   0  0  2  0  0  0  0  0  0  0  0  0
   56.8940  -33.0301   -2.1929 C   0  0  0  0  0  0  0  0  0  0  0  0
   57.4084  -32.0036   -2.6486 O   0  0  0  0  0  0  0  0  0  0  0  0
   55.1642  -34.0650   -0.6444 C   0  0  0  0  0  0  0  0  0  0  0  0
   55.6336  -35.5022   -0.3787 C   0  0  0  0  0  0  0  0  0  0  0  0
   54.6029  -36.4677    0.1908 C   0  0  0  0  0  0  0  0  0  0  0  0
   54.2380  -36.0689    1.5404 N   0  0  0  0  0  0  0  0  0  0  0  0
   53.3558  -36.8051    2.2626 C   0  0  0  0  0  0  0  0  0  0  0  0
   53.0058  -37.9901    1.8965 N   0  0  0  0  0  0  0  0  0  0  0  0
   53.0328  -36.2721    3.4500 N   0  0  0  0  0  0  0  0  0  0  0  0
   56.8729  -34.2162   -2.8769 N   0  0  0  0  0  0  0  0  0  0  0  0
   56.8412  -34.2411   -4.3375 C   0  0  2  0  0  0  0  0  0  0  0  0
   55.5223  -33.5642   -4.7711 C   0  0  0  0  0  0  0  0  0  0  0  0
   55.4189  -32.3434   -4.8947 O   0  0  0  0  0  0  0  0  0  0  0  0
   56.9487  -35.6737   -4.8728 C   0  0  0  0  0  0  0  0  0  0  0  0
   56.8963  -35.7758   -6.4030 C   0  0  0  0  0  0  0  0  0  0  0  0
   57.6584  -36.9739   -6.9774 C   0  0  0  0  0  0  0  0  0  0  0  0
   59.0752  -36.6888   -7.0608 N   0  0  0  0  0  0  0  0  0  0  0  0
   60.0009  -37.5800   -7.4795 C   0  0  0  0  0  0  0  0  0  0  0  0
   60.7245  -38.0610   -6.4482 N   0  0  0  0  0  0  0  0  0  0  0  0
   60.2053  -37.9608   -8.6955 N   0  0  0  0  0  0  0  0  0  0  0  0
   54.4805  -34.4326   -5.0126 N   0  0  0  0  0  0  0  0  0  0  0  0
   53.2369  -33.9945   -5.6663 C   0  0  2  0  0  0  0  0  0  0  0  0
   52.2352  -35.1600   -5.8452 C   0  0  0  0  0  0  0  0  0  0  0  0
   52.3100  -36.2087   -5.2083 O   0  0  0  0  0  0  0  0  0  0  0  0
   53.5520  -33.3788   -7.0375 C   0  0  0  0  0  0  0  0  0  0  0  0
   53.8599  -34.4052   -8.1330 C   0  0  0  0  0  0  0  0  0  0  0  0
   54.4469  -33.8144   -9.4157 C   0  0  0  0  0  0  0  0  0  0  0  0
   53.8786  -34.4369  -10.6007 N   0  0  0  0  0  0  0  0  0  0  0  0
   52.6771  -34.0473  -11.0799 C   0  0  0  0  0  0  0  0  0  0  0  0
   51.7501  -33.4879  -10.3906 N   0  0  0  0  0  0  0  0  0  0  0  0
   52.5472  -34.3288  -12.3923 N   0  0  0  0  0  0  0  0  0  0  0  0
   51.2161  -34.9114   -6.7497 N   0  0  0  0  0  0  0  0  0  0  0  0
   50.0769  -35.8142   -6.8205 C   0  0  2  0  0  0  0  0  0  0  0  0
   49.0812  -35.3030   -7.8911 C   0  0  0  0  0  0  0  0  0  0  0  0
   48.4628  -34.2483   -7.7728 O   0  0  0  0  0  0  0  0  0  0  0  0
   49.3993  -35.9970   -5.4553 C   0  0  0  0  0  0  0  0  0  0  0  0
   48.3985  -34.8967   -5.0832 C   0  0  0  0  0  0  0  0  0  0  0  0
   47.2959  -35.4082   -4.1505 C   0  0  0  0  0  0  0  0  0  0  0  0
   47.1247  -34.5282   -3.0046 N   0  0  0  0  0  0  0  0  0  0  0  0
   47.6506  -34.8044   -1.7915 C   0  0  0  0  0  0  0  0  0  0  0  0
   47.4310  -35.8681   -1.1113 N   0  0  0  0  0  0  0  0  0  0  0  0
   48.4545  -33.8101   -1.3706 N   0  0  0  0  0  0  0  0  0  0  0  0
   47.0729  -36.2385  -10.5582 C   0  0  0  0  0  0  0  0  0  0  0  0
   48.8991  -36.1730   -8.9576 N   0  0  0  0  0  0  0  0  0  0  0  0
   46.2003  -35.5915  -11.1352 O   0  0  0  0  0  0  0  0  0  0  0  0
   48.4661  -35.6383  -10.2499 C   0  0  1  0  0  0  0  0  0  0  0  0
   49.5165  -35.9390  -11.3375 C   0  0  0  0  0  0  0  0  0  0  0  0
   49.1359  -34.0242  -12.9972 C   0  0  0  0  0  0  0  0  0  0  0  0
   47.9662  -33.2486  -12.3972 C   0  0  0  0  0  0  0  0  0  0  0  0
   49.0990  -35.5403  -12.7598 C   0  0  0  0  0  0  0  0  0  0  0  0
   48.0086  -31.8194  -12.7772 N   0  0  0  0  0  4  0  0  0  0  0  0
   46.8791  -37.5445  -10.1738 N   0  0  0  0  0  0  0  0  0  0  0  0
   45.6530  -38.3242  -10.4504 C   0  0  2  0  0  0  0  0  0  0  0  0
   45.6647  -39.7546   -9.8713 C   0  0  0  0  0  0  0  0  0  0  0  0
   46.3484  -40.6337  -10.3904 O   0  0  0  0  0  0  0  0  0  0  0  0
   45.3079  -38.3217  -11.9476 C   0  0  0  0  0  0  0  0  0  0  0  0
   46.2881  -37.5479  -12.8375 C   0  0  0  0  0  0  0  0  0  0  0  0
   46.9418  -38.3859  -13.9421 C   0  0  0  0  0  0  0  0  0  0  0  0
   47.8497  -37.5664  -14.7566 N   0  0  0  0  0  0  0  0  0  0  0  0
   47.5112  -37.3446  -16.0575 C   0  0  0  0  0  0  0  0  0  0  0  0
   46.8562  -38.1678  -16.7900 N   0  0  0  0  0  0  0  0  0  0  0  0
   47.9233  -36.1371  -16.4861 N   0  0  0  0  0  0  0  0  0  0  0  0
   44.9739  -39.9261   -8.6852 N   0  0  0  0  0  0  0  0  0  0  0  0
   44.1755  -38.8545   -8.1226 C   0  0  0  0  0  0  0  0  0  0  0  0
   44.0807  -38.9033   -6.6201 C   0  0  0  0  0  0  0  0  0  0  0  0
   43.2721  -37.9992   -5.9140 C   0  0  0  0  0  0  0  0  0  0  0  0
   43.1749  -38.0738   -4.5233 C   0  0  0  0  0  0  0  0  0  0  0  0
   43.8761  -39.0606   -3.8217 C   0  0  0  0  0  0  0  0  0  0  0  0
   43.7412  -39.1490   -2.3446 C   0  0  0  0  0  0  0  0  0  0  0  0
   44.4455  -40.0857   -1.6391 N   0  0  0  0  0  0  0  0  0  0  0  0
   42.9612  -38.3746   -1.6581 N   0  0  0  0  0  0  0  0  0  0  0  0
   44.6936  -39.9599   -4.5116 C   0  0  0  0  0  0  0  0  0  0  0  0
   44.7918  -39.8803   -5.9024 C   0  0  0  0  0  0  0  0  0  0  0  0
   53.2280  -38.6335    2.6684 H   0  0  0  0  0  0  0  0  0  0  0  0
   59.6680  -38.8199   -8.8282 H   0  0  0  0  0  0  0  0  0  0  0  0
   52.0598  -32.5657  -10.0887 H   0  0  0  0  0  0  0  0  0  0  0  0
   46.9583  -36.5734   -1.6783 H   0  0  0  0  0  0  0  0  0  0  0  0
   45.9674  -38.4068  -16.3496 H   0  0  0  0  0  0  0  0  0  0  0  0
   42.4260  -37.7481   -2.2675 H   0  0  0  0  0  0  0  0  0  0  0  0
  2  1  1  6
  3  2  1  0
  2  5  1  0
  3  4  2  0
 12  3  1  0
  5  6  1  0
  6  7  1  0
  7  8  1  0
  8  9  1  0
  9 10  2  0
  9 11  1  0
 13 12  1  0
 14 13  1  0
 13 16  1  1
 14 15  2  0
 23 14  1  0
 16 17  1  0
 17 18  1  0
 18 19  1  0
 19 20  1  0
 20 21  1  0
 20 22  2  0
 24 23  1  0
 25 24  1  0
 24 27  1  6
 25 26  2  0
 34 25  1  0
 27 28  1  0
 28 29  1  0
 29 30  1  0
 30 31  1  0
 31 32  2  0
 31 33  1  0
 35 34  1  0
 36 35  1  0
 35 38  1  1
 36 37  2  0
 46 36  1  0
 38 39  1  0
 39 40  1  0
 40 41  1  0
 41 42  1  0
 42 43  2  0
 42 44  1  0
 45 47  2  0
 48 45  1  0
 45 54  1  0
 48 46  1  0
 48 49  1  6
 52 49  1  0
 50 51  1  0
 50 52  1  0
 51 53  1  0
 54 55  1  0
 55 56  1  0
 55 58  1  6
 56 57  2  0
 56 65  1  0
 58 59  1  0
 59 60  1  0
 60 61  1  0
 61 62  1  0
 62 63  2  0
 62 64  1  0
 65 66  1  0
 66 67  1  0
 67 68  2  0
 67 75  1  0
 68 69  1  0
 69 70  2  0
 70 71  1  0
 70 74  1  0
 71 72  1  0
 71 73  2  0
 74 75  2  0
 10 76  1  0
 22 77  1  0
 32 78  1  0
 43 79  1  0
 63 80  1  0
 73 81  1  0
M  CHG  2   1   1  53   1
M  END
$$$$
