
     RDKit          3D

 81 81  0  0  0  0  0  0  0  0999 V2000
   57.6418  -38.5592   -1.2159 N   0  0  0  0  0  4  0  0  0  0  0  0
   56.6860  -38.0656   -0.1806 C   0  0  2  0  0  0  0  0  0  0  0  0
   56.1255  -36.7215   -0.6994 C   0  0  0  0  0  0  0  0  0  0  0  0
   55.3780  -36.0590    0.0274 O   0  0  0  0  0  0  0  0  0  0  0  0
   57.3868  -37.8895    1.1731 C   0  0  0  0  0  0  0  0  0  0  0  0
   58.2772  -36.6502    1.3400 C   0  0  0  0  0  0  0  0  0  0  0  0
   57.6072  -35.2939    1.1652 C   0  0  0  0  0  0  0  0  0  0  0  0
   58.5489  -34.2293    1.4705 N   0  0  0  0  0  0  0  0  0  0  0  0
   58.5855  -33.6747    2.7086 C   0  0  0  0  0  0  0  0  0  0  0  0
   59.6327  -33.7571    3.4552 N   0  0  0  0  0  0  0  0  0  0  0  0
   57.5285  -32.9023    2.9997 N   0  0  0  0  0  0  0  0  0  0  0  0
   56.4941  -36.3135   -1.9535 N   0  0  0  0  0  0  0  0  0  0  0  0
   55.8922  -35.1316   -2.5666 C   0  0  2  0  0  0  0  0  0  0  0  0
   54.3830  -35.1743   -2.2408 C   0  0  0  0  0  0  0  0  0  0  0  0
   53.9582  -35.4994   -1.1316 O   0  0  0  0  0  0  0  0  0  0  0  0
   56.1476  -35.0966   -4.0779 C   0  0  0  0  0  0  0  0  0  0  0  0
   57.6333  -35.1084   -4.4621 C   0  0  0  0  0  0  0  0  0  0  0  0
   58.3752  -33.8089   -4.1351 C   0  0  0  0  0  0  0  0  0  0  0  0
   57.5970  -32.6577   -4.5406 N   0  0  0  0  0  0  0  0  0  0  0  0
   58.1286  -31.5420   -5.0876 C   0  0  0  0  0  0  0  0  0  0  0  0
   57.1737  -30.7447   -5.6083 N   0  0  0  0  0  0  0  0  0  0  0  0
   59.3797  -31.2285   -5.1294 N   0  0  0  0  0  0  0  0  0  0  0  0
   53.5574  -34.8153   -3.2835 N   0  0  0  0  0  0  0  0  0  0  0  0
   52.1391  -34.4827   -3.0751 C   0  0  2  0  0  0  0  0  0  0  0  0
   51.4664  -33.9762   -4.3730 C   0  0  0  0  0  0  0  0  0  0  0  0
   51.5433  -32.8101   -4.7541 O   0  0  0  0  0  0  0  0  0  0  0  0
   52.0047  -33.4132   -1.9811 C   0  0  0  0  0  0  0  0  0  0  0  0
   51.0037  -33.7655   -0.8756 C   0  0  0  0  0  0  0  0  0  0  0  0
   51.0565  -32.8516    0.3495 C   0  0  0  0  0  0  0  0  0  0  0  0
   52.3104  -32.1182    0.4167 N   0  0  0  0  0  0  0  0  0  0  0  0
   52.5094  -31.0147   -0.3367 C   0  0  0  0  0  0  0  0  0  0  0  0
   52.1032  -30.8583   -1.5442 N   0  0  0  0  0  0  0  0  0  0  0  0
   53.2108  -30.0748    0.3289 N   0  0  0  0  0  0  0  0  0  0  0  0
   50.8056  -34.9530   -5.0997 N   0  0  0  0  0  0  0  0  0  0  0  0
   50.9133  -34.9705   -6.5509 C   0  0  2  0  0  0  0  0  0  0  0  0
   49.9059  -35.9952   -7.1290 C   0  0  0  0  0  0  0  0  0  0  0  0
   49.9448  -37.1918   -6.8543 O   0  0  0  0  0  0  0  0  0  0  0  0
   52.3468  -35.2558   -7.0202 C   0  0  0  0  0  0  0  0  0  0  0  0
   52.6568  -34.7986   -8.4504 C   0  0  0  0  0  0  0  0  0  0  0  0
   54.1195  -35.0460   -8.8331 C   0  0  0  0  0  0  0  0  0  0  0  0
   54.2429  -35.4079  -10.2370 N   0  0  0  0  0  0  0  0  0  0  0  0
   53.5191  -36.4008  -10.7976 C   0  0  0  0  0  0  0  0  0  0  0  0
   52.4029  -36.2522  -11.4096 N   0  0  0  0  0  0  0  0  0  0  0  0
   54.1220  -37.5938  -10.6380 N   0  0  0  0  0  0  0  0  0  0  0  0
   48.4380  -37.2203   -9.6042 C   0  0  0  0  0  0  0  0  0  0  0  0
   49.0037  -35.4543   -8.0350 N   0  0  0  0  0  0  0  0  0  0  0  0
   49.6273  -37.2275   -9.9183 O   0  0  0  0  0  0  0  0  0  0  0  0
   47.8877  -36.2753   -8.5086 C   0  0  1  0  0  0  0  0  0  0  0  0
   46.7297  -35.3820   -8.9959 C   0  0  0  0  0  0  0  0  0  0  0  0
   47.0867  -32.9322   -8.3345 C   0  0  0  0  0  0  0  0  0  0  0  0
   47.2088  -31.9779   -7.1497 C   0  0  0  0  0  0  0  0  0  0  0  0
   46.3495  -34.2453   -8.0368 C   0  0  0  0  0  0  0  0  0  0  0  0
   46.1899  -30.9067   -7.2062 N   0  0  0  0  0  4  0  0  0  0  0  0
   47.5248  -38.0689  -10.1848 N   0  0  0  0  0  0  0  0  0  0  0  0
   46.7623  -39.1037   -9.4530 C   0  0  2  0  0  0  0  0  0  0  0  0
   45.8904  -40.0058  -10.3516 C   0  0  0  0  0  0  0  0  0  0  0  0
   44.9659  -40.6585   -9.8730 O   0  0  0  0  0  0  0  0  0  0  0  0
   45.9485  -38.4960   -8.3002 C   0  0  0  0  0  0  0  0  0  0  0  0
   44.7775  -39.3560   -7.8095 C   0  0  0  0  0  0  0  0  0  0  0  0
   45.1305  -40.3223   -6.6732 C   0  0  0  0  0  0  0  0  0  0  0  0
   43.9935  -40.4968   -5.7586 N   0  0  0  0  0  0  0  0  0  0  0  0
   42.8085  -40.9093   -6.2893 C   0  0  0  0  0  0  0  0  0  0  0  0
   42.6951  -41.6586   -7.3232 N   0  0  0  0  0  0  0  0  0  0  0  0
   41.7560  -40.4584   -5.5818 N   0  0  0  0  0  0  0  0  0  0  0  0
   46.1398  -39.9188  -11.7094 N   0  0  0  0  0  0  0  0  0  0  0  0
   45.4102  -40.7371  -12.6582 C   0  0  0  0  0  0  0  0  0  0  0  0
   44.9530  -39.9784  -13.8765 C   0  0  0  0  0  0  0  0  0  0  0  0
   45.3774  -40.3466  -15.1626 C   0  0  0  0  0  0  0  0  0  0  0  0
   44.9244  -39.6492  -16.2840 C   0  0  0  0  0  0  0  0  0  0  0  0
   44.0322  -38.5820  -16.1347 C   0  0  0  0  0  0  0  0  0  0  0  0
   43.5335  -37.8665  -17.3378 C   0  0  0  0  0  0  0  0  0  0  0  0
   43.9954  -38.1974  -18.5821 N   0  0  0  0  0  0  0  0  0  0  0  0
   42.6657  -36.9058  -17.2801 N   0  0  0  0  0  0  0  0  0  0  0  0
   43.6104  -38.1979  -14.8589 C   0  0  0  0  0  0  0  0  0  0  0  0
   44.0684  -38.8950  -13.7387 C   0  0  0  0  0  0  0  0  0  0  0  0
   60.4186  -34.0504    2.8589 H   0  0  0  0  0  0  0  0  0  0  0  0
   59.9027  -32.0782   -4.9080 H   0  0  0  0  0  0  0  0  0  0  0  0
   51.5554  -31.6691   -1.8267 H   0  0  0  0  0  0  0  0  0  0  0  0
   52.0288  -35.3134  -11.2645 H   0  0  0  0  0  0  0  0  0  0  0  0
   42.1502  -42.4920   -7.1007 H   0  0  0  0  0  0  0  0  0  0  0  0
   42.5614  -36.5534  -16.3235 H   0  0  0  0  0  0  0  0  0  0  0  0
  2  1  1  6
  3  2  1  0
  2  5  1  0
  3  4  2  0
 12  3  1  0
  5  6  1  0
  6  7  1  0
  7  8  1  0
  8  9  1  0
  9 10  2  0
  9 11  1  0
 13 12  1  0
 14 13  1  0
 13 16  1  6
 14 15  2  0
 23 14  1  0
 16 17  1  0
 17 18  1  0
 18 19  1  0
 19 20  1  0
 20 21  1  0
 20 22  2  0
 24 23  1  0
 25 24  1  0
 24 27  1  1
 25 26  2  0
 34 25  1  0
 27 28  1  0
 28 29  1  0
 29 30  1  0
 30 31  1  0
 31 32  2  0
 31 33  1  0
 35 34  1  0
 36 35  1  0
 35 38  1  1
 36 37  2  0
 46 36  1  0
 38 39  1  0
 39 40  1  0
 40 41  1  0
 41 42  1  0
 42 43  2  0
 42 44  1  0
 45 47  2  0
 48 45  1  0
 45 54  1  0
 48 46  1  0
 48 49  1  6
 52 49  1  0
 50 51  1  0
 50 52  1  0
 51 53  1  0
 54 55  1  0
 55 56  1  0
 55 58  1  1
 56 57  2  0
 56 65  1  0
 58 59  1  0
 59 60  1  0
 60 61  1  0
 61 62  1  0
 62 63  2  0
 62 64  1  0
 65 66  1  0
 66 67  1  0
 67 68  2  0
 67 75  1  0
 68 69  1  0
 69 70  2  0
 70 71  1  0
 70 74  1  0
 71 72  1  0
 71 73  2  0
 74 75  2  0
 10 76  1  0
 22 77  1  0
 32 78  1  0
 43 79  1  0
 63 80  1  0
 73 81  1  0
M  CHG  2   1   1  53   1
M  END
$$$$
