
     RDKit          3D

 81 81  0  0  0  0  0  0  0  0999 V2000
   55.4716  -34.8814   -0.1143 N   0  0  0  0  0  4  0  0  0  0  0  0
   56.8791  -34.7691   -0.5996 C   0  0  2  0  0  0  0  0  0  0  0  0
   56.8351  -34.9536   -2.1339 C   0  0  0  0  0  0  0  0  0  0  0  0
   57.8904  -34.9248   -2.7753 O   0  0  0  0  0  0  0  0  0  0  0  0
   57.7729  -35.8268    0.0613 C   0  0  0  0  0  0  0  0  0  0  0  0
   59.0889  -35.3369    0.6816 C   0  0  0  0  0  0  0  0  0  0  0  0
   59.0795  -35.0518    2.1774 C   0  0  0  0  0  0  0  0  0  0  0  0
   58.4733  -33.7556    2.4344 N   0  0  0  0  0  0  0  0  0  0  0  0
   58.3168  -33.3071    3.7057 C   0  0  0  0  0  0  0  0  0  0  0  0
   57.6850  -33.9965    4.5924 N   0  0  0  0  0  0  0  0  0  0  0  0
   59.0155  -32.1984    3.9906 N   0  0  0  0  0  0  0  0  0  0  0  0
   55.6146  -35.1531   -2.7218 N   0  0  0  0  0  0  0  0  0  0  0  0
   55.4963  -35.3284   -4.1676 C   0  0  2  0  0  0  0  0  0  0  0  0
   55.2230  -33.9325   -4.7697 C   0  0  0  0  0  0  0  0  0  0  0  0
   54.6358  -33.0495   -4.1439 O   0  0  0  0  0  0  0  0  0  0  0  0
   54.3874  -36.3271   -4.5189 C   0  0  0  0  0  0  0  0  0  0  0  0
   53.2920  -36.4474   -3.4510 C   0  0  0  0  0  0  0  0  0  0  0  0
   53.8219  -36.6895   -2.0345 C   0  0  0  0  0  0  0  0  0  0  0  0
   54.4927  -37.9694   -1.9492 N   0  0  0  0  0  0  0  0  0  0  0  0
   54.8994  -38.5326   -0.7898 C   0  0  0  0  0  0  0  0  0  0  0  0
   53.9668  -38.4023    0.1756 N   0  0  0  0  0  0  0  0  0  0  0  0
   56.0219  -39.1337   -0.5805 N   0  0  0  0  0  0  0  0  0  0  0  0
   55.6924  -33.7559   -6.0528 N   0  0  0  0  0  0  0  0  0  0  0  0
   55.6646  -32.4437   -6.7185 C   0  0  2  0  0  0  0  0  0  0  0  0
   54.2485  -32.0814   -7.2252 C   0  0  0  0  0  0  0  0  0  0  0  0
   53.7007  -31.0113   -6.9685 O   0  0  0  0  0  0  0  0  0  0  0  0
   56.6465  -32.4320   -7.8994 C   0  0  0  0  0  0  0  0  0  0  0  0
   58.0913  -32.7744   -7.5205 C   0  0  0  0  0  0  0  0  0  0  0  0
   59.1542  -32.1575   -8.4308 C   0  0  0  0  0  0  0  0  0  0  0  0
   59.0412  -32.6485   -9.7950 N   0  0  0  0  0  0  0  0  0  0  0  0
   59.9047  -32.2432  -10.7515 C   0  0  0  0  0  0  0  0  0  0  0  0
   60.8249  -31.3623  -10.5944 N   0  0  0  0  0  0  0  0  0  0  0  0
   59.6820  -32.8702  -11.9244 N   0  0  0  0  0  0  0  0  0  0  0  0
   53.6608  -33.0417   -8.0321 N   0  0  0  0  0  0  0  0  0  0  0  0
   52.2257  -33.0051   -8.2704 C   0  0  2  0  0  0  0  0  0  0  0  0
   51.6261  -34.4104   -8.0155 C   0  0  0  0  0  0  0  0  0  0  0  0
   52.1066  -35.4341   -8.4949 O   0  0  0  0  0  0  0  0  0  0  0  0
   51.8866  -32.4889   -9.6757 C   0  0  0  0  0  0  0  0  0  0  0  0
   52.9696  -32.7422  -10.7311 C   0  0  0  0  0  0  0  0  0  0  0  0
   52.5492  -32.2537  -12.1209 C   0  0  0  0  0  0  0  0  0  0  0  0
   53.5715  -32.5464  -13.1140 N   0  0  0  0  0  0  0  0  0  0  0  0
   53.6267  -33.7232  -13.7746 C   0  0  0  0  0  0  0  0  0  0  0  0
   54.5674  -34.0882  -14.5648 N   0  0  0  0  0  0  0  0  0  0  0  0
   52.5543  -34.4884  -13.4981 N   0  0  0  0  0  0  0  0  0  0  0  0
   48.3822  -35.4496   -7.9475 C   0  0  0  0  0  0  0  0  0  0  0  0
   50.4625  -34.4016   -7.2581 N   0  0  0  0  0  0  0  0  0  0  0  0
   48.1087  -34.3857   -8.5009 O   0  0  0  0  0  0  0  0  0  0  0  0
   49.6839  -35.6349   -7.1303 C   0  0  1  0  0  0  0  0  0  0  0  0
   49.4329  -35.9630   -5.6451 C   0  0  0  0  0  0  0  0  0  0  0  0
   49.6389  -35.2428   -3.1946 C   0  0  0  0  0  0  0  0  0  0  0  0
   50.3422  -34.3639   -2.1638 C   0  0  0  0  0  0  0  0  0  0  0  0
   49.9666  -34.9154   -4.6581 C   0  0  0  0  0  0  0  0  0  0  0  0
   49.7760  -32.9974   -2.1365 N   0  0  0  0  0  4  0  0  0  0  0  0
   47.5651  -36.5517   -8.0403 N   0  0  0  0  0  0  0  0  0  0  0  0
   47.0251  -37.0875   -9.3088 C   0  0  2  0  0  0  0  0  0  0  0  0
   46.1380  -38.3396   -9.1440 C   0  0  0  0  0  0  0  0  0  0  0  0
   45.5798  -38.8426  -10.1162 O   0  0  0  0  0  0  0  0  0  0  0  0
   48.1367  -37.3130  -10.3452 C   0  0  0  0  0  0  0  0  0  0  0  0
   48.2221  -36.2488  -11.4461 C   0  0  0  0  0  0  0  0  0  0  0  0
   47.8803  -36.7582  -12.8509 C   0  0  0  0  0  0  0  0  0  0  0  0
   47.6510  -35.6389  -13.7751 N   0  0  0  0  0  0  0  0  0  0  0  0
   46.3632  -35.2578  -14.0046 C   0  0  0  0  0  0  0  0  0  0  0  0
   45.5473  -35.8762  -14.7759 N   0  0  0  0  0  0  0  0  0  0  0  0
   46.0302  -34.1599  -13.3009 N   0  0  0  0  0  0  0  0  0  0  0  0
   46.1316  -38.9070   -7.8825 N   0  0  0  0  0  0  0  0  0  0  0  0
   45.4213  -38.2813   -6.7842 C   0  0  0  0  0  0  0  0  0  0  0  0
   44.0664  -38.8861   -6.5249 C   0  0  0  0  0  0  0  0  0  0  0  0
   43.6976  -39.3176   -5.2414 C   0  0  0  0  0  0  0  0  0  0  0  0
   42.4286  -39.8525   -5.0121 C   0  0  0  0  0  0  0  0  0  0  0  0
   41.5080  -39.9523   -6.0609 C   0  0  0  0  0  0  0  0  0  0  0  0
   40.1500  -40.4954   -5.7983 C   0  0  0  0  0  0  0  0  0  0  0  0
   39.7893  -40.8795   -4.5360 N   0  0  0  0  0  0  0  0  0  0  0  0
   39.2569  -40.6448   -6.7252 N   0  0  0  0  0  0  0  0  0  0  0  0
   41.8664  -39.5367   -7.3462 C   0  0  0  0  0  0  0  0  0  0  0  0
   43.1379  -39.0056   -7.5732 C   0  0  0  0  0  0  0  0  0  0  0  0
   56.7319  -33.6148    4.6634 H   0  0  0  0  0  0  0  0  0  0  0  0
   55.8103  -39.9654   -0.0254 H   0  0  0  0  0  0  0  0  0  0  0  0
   61.2264  -31.1243  -11.4997 H   0  0  0  0  0  0  0  0  0  0  0  0
   55.4795  -33.8099  -14.2001 H   0  0  0  0  0  0  0  0  0  0  0  0
   46.0107  -36.6674  -15.2234 H   0  0  0  0  0  0  0  0  0  0  0  0
   39.3644  -39.9432   -7.4643 H   0  0  0  0  0  0  0  0  0  0  0  0
  2  1  1  1
  3  2  1  0
  2  5  1  0
  3  4  2  0
 12  3  1  0
  5  6  1  0
  6  7  1  0
  7  8  1  0
  8  9  1  0
  9 10  2  0
  9 11  1  0
 13 12  1  0
 14 13  1  0
 13 16  1  1
 14 15  2  0
 23 14  1  0
 16 17  1  0
 17 18  1  0
 18 19  1  0
 19 20  1  0
 20 21  1  0
 20 22  2  0
 24 23  1  0
 25 24  1  0
 24 27  1  6
 25 26  2  0
 34 25  1  0
 27 28  1  0
 28 29  1  0
 29 30  1  0
 30 31  1  0
 31 32  2  0
 31 33  1  0
 35 34  1  0
 36 35  1  0
 35 38  1  6
 36 37  2  0
 46 36  1  0
 38 39  1  0
 39 40  1  0
 40 41  1  0
 41 42  1  0
 42 43  2  0
 42 44  1  0
 45 47  2  0
 48 45  1  0
 45 54  1  0
 48 46  1  0
 48 49  1  1
 52 49  1  0
 50 51  1  0
 50 52  1  0
 51 53  1  0
 54 55  1  0
 55 56  1  0
 55 58  1  6
 56 57  2  0
 56 65  1  0
 58 59  1  0
 59 60  1  0
 60 61  1  0
 61 62  1  0
 62 63  2  0
 62 64  1  0
 65 66  1  0
 66 67  1  0
 67 68  2  0
 67 75  1  0
 68 69  1  0
 69 70  2  0
 70 71  1  0
 70 74  1  0
 71 72  1  0
 71 73  2  0
 74 75  2  0
 10 76  1  0
 22 77  1  0
 32 78  1  0
 43 79  1  0
 63 80  1  0
 73 81  1  0
M  CHG  2   1   1  53   1
M  END
$$$$
