
     RDKit          3D

 81 81  0  0  0  0  0  0  0  0999 V2000
   56.6814  -32.4426  -10.9286 N   0  0  0  0  0  4  0  0  0  0  0  0
   57.6107  -31.5809  -10.1393 C   0  0  2  0  0  0  0  0  0  0  0  0
   57.4818  -32.0249   -8.6641 C   0  0  0  0  0  0  0  0  0  0  0  0
   57.8573  -31.2607   -7.7692 O   0  0  0  0  0  0  0  0  0  0  0  0
   57.2567  -30.0971  -10.3054 C   0  0  0  0  0  0  0  0  0  0  0  0
   56.1769  -29.7506  -11.3399 C   0  0  0  0  0  0  0  0  0  0  0  0
   55.2275  -30.8707  -11.7440 C   0  0  0  0  0  0  0  0  0  0  0  0
   55.6277  -31.4251  -13.0270 N   0  0  0  0  0  0  0  0  0  0  0  0
   54.7531  -31.4652  -14.0641 C   0  0  0  0  0  0  0  0  0  0  0  0
   54.0973  -32.5360  -14.3539 N   0  0  0  0  0  0  0  0  0  0  0  0
   54.5086  -30.2729  -14.6272 N   0  0  0  0  0  0  0  0  0  0  0  0
   56.9415  -33.2571   -8.4094 N   0  0  0  0  0  0  0  0  0  0  0  0
   56.7334  -33.7179   -7.0385 C   0  0  2  0  0  0  0  0  0  0  0  0
   56.1089  -35.1278   -7.1271 C   0  0  0  0  0  0  0  0  0  0  0  0
   55.5227  -35.5257   -8.1343 O   0  0  0  0  0  0  0  0  0  0  0  0
   55.8415  -32.7484   -6.2542 C   0  0  0  0  0  0  0  0  0  0  0  0
   56.4699  -31.3677   -6.0226 C   0  0  0  0  0  0  0  0  0  0  0  0
   57.2440  -31.2444   -4.7067 C   0  0  0  0  0  0  0  0  0  0  0  0
   57.6991  -29.8852   -4.5044 N   0  0  0  0  0  0  0  0  0  0  0  0
   58.4539  -29.4904   -3.4551 C   0  0  0  0  0  0  0  0  0  0  0  0
   57.7071  -29.3267   -2.3442 N   0  0  0  0  0  0  0  0  0  0  0  0
   59.7281  -29.2863   -3.4595 N   0  0  0  0  0  0  0  0  0  0  0  0
   56.2659  -35.9003   -5.9973 N   0  0  0  0  0  0  0  0  0  0  0  0
   55.8879  -37.3222   -5.9673 C   0  0  2  0  0  0  0  0  0  0  0  0
   54.3649  -37.5124   -5.7726 C   0  0  0  0  0  0  0  0  0  0  0  0
   53.8162  -38.6109   -5.8304 O   0  0  0  0  0  0  0  0  0  0  0  0
   56.6396  -38.0427   -4.8383 C   0  0  0  0  0  0  0  0  0  0  0  0
   56.1098  -39.4459   -4.5244 C   0  0  0  0  0  0  0  0  0  0  0  0
   56.7471  -40.5681   -5.3450 C   0  0  0  0  0  0  0  0  0  0  0  0
   55.7740  -41.5870   -5.7053 N   0  0  0  0  0  0  0  0  0  0  0  0
   56.1441  -42.6836   -6.4018 C   0  0  0  0  0  0  0  0  0  0  0  0
   57.2302  -43.3438   -6.2231 N   0  0  0  0  0  0  0  0  0  0  0  0
   55.2321  -43.0118   -7.3393 N   0  0  0  0  0  0  0  0  0  0  0  0
   53.6705  -36.3498   -5.4816 N   0  0  0  0  0  0  0  0  0  0  0  0
   52.2533  -36.4167   -5.1579 C   0  0  2  0  0  0  0  0  0  0  0  0
   51.4283  -36.4655   -6.4679 C   0  0  0  0  0  0  0  0  0  0  0  0
   51.5084  -35.5997   -7.3356 O   0  0  0  0  0  0  0  0  0  0  0  0
   51.8127  -35.2588   -4.2515 C   0  0  0  0  0  0  0  0  0  0  0  0
   52.0519  -35.4887   -2.7547 C   0  0  0  0  0  0  0  0  0  0  0  0
   50.9343  -34.8943   -1.8918 C   0  0  0  0  0  0  0  0  0  0  0  0
   50.7152  -33.4908   -2.2065 N   0  0  0  0  0  0  0  0  0  0  0  0
   49.8359  -32.7226   -1.5274 C   0  0  0  0  0  0  0  0  0  0  0  0
   49.0476  -33.1344   -0.6047 N   0  0  0  0  0  0  0  0  0  0  0  0
   49.8867  -31.4423   -1.9400 N   0  0  0  0  0  0  0  0  0  0  0  0
   48.9789  -36.4649   -8.0623 C   0  0  0  0  0  0  0  0  0  0  0  0
   50.5435  -37.5329   -6.5415 N   0  0  0  0  0  0  0  0  0  0  0  0
   49.3296  -35.3676   -7.6308 O   0  0  0  0  0  0  0  0  0  0  0  0
   49.7900  -37.7523   -7.7775 C   0  0  1  0  0  0  0  0  0  0  0  0
   48.9130  -39.0144   -7.6578 C   0  0  0  0  0  0  0  0  0  0  0  0
   48.8696  -41.5476   -7.2743 C   0  0  0  0  0  0  0  0  0  0  0  0
   48.6811  -41.6236   -5.7616 C   0  0  0  0  0  0  0  0  0  0  0  0
   49.6790  -40.3402   -7.7675 C   0  0  0  0  0  0  0  0  0  0  0  0
   47.3135  -41.2243   -5.3627 N   0  0  0  0  0  4  0  0  0  0  0  0
   47.8605  -36.6166   -8.8477 N   0  0  0  0  0  0  0  0  0  0  0  0
   47.1043  -35.4976   -9.4508 C   0  0  2  0  0  0  0  0  0  0  0  0
   45.8455  -35.9288  -10.2325 C   0  0  0  0  0  0  0  0  0  0  0  0
   45.9469  -36.4824  -11.3248 O   0  0  0  0  0  0  0  0  0  0  0  0
   48.0136  -34.5921  -10.2957 C   0  0  0  0  0  0  0  0  0  0  0  0
   49.4354  -34.4111   -9.7504 C   0  0  0  0  0  0  0  0  0  0  0  0
   50.3107  -33.4505  -10.5632 C   0  0  0  0  0  0  0  0  0  0  0  0
   49.8749  -33.4005  -11.9657 N   0  0  0  0  0  0  0  0  0  0  0  0
   49.2243  -32.2810  -12.3896 C   0  0  0  0  0  0  0  0  0  0  0  0
   49.8003  -31.1828  -12.7138 N   0  0  0  0  0  0  0  0  0  0  0  0
   47.8930  -32.4676  -12.4567 N   0  0  0  0  0  0  0  0  0  0  0  0
   44.6434  -35.7690   -9.5671 N   0  0  0  0  0  0  0  0  0  0  0  0
   43.4192  -36.3494  -10.0836 C   0  0  0  0  0  0  0  0  0  0  0  0
   42.8367  -37.4128   -9.1898 C   0  0  0  0  0  0  0  0  0  0  0  0
   43.5959  -37.9930   -8.1619 C   0  0  0  0  0  0  0  0  0  0  0  0
   43.0334  -38.9591   -7.3256 C   0  0  0  0  0  0  0  0  0  0  0  0
   41.7011  -39.3491   -7.4992 C   0  0  0  0  0  0  0  0  0  0  0  0
   41.1044  -40.3562   -6.5839 C   0  0  0  0  0  0  0  0  0  0  0  0
   41.8535  -40.9147   -5.5849 N   0  0  0  0  0  0  0  0  0  0  0  0
   39.8780  -40.7628   -6.6828 N   0  0  0  0  0  0  0  0  0  0  0  0
   40.9373  -38.7874   -8.5260 C   0  0  0  0  0  0  0  0  0  0  0  0
   41.5040  -37.8240   -9.3634 C   0  0  0  0  0  0  0  0  0  0  0  0
   54.4276  -33.2831  -13.7279 H   0  0  0  0  0  0  0  0  0  0  0  0
   59.9373  -28.7552   -4.3072 H   0  0  0  0  0  0  0  0  0  0  0  0
   57.1184  -44.2883   -6.5876 H   0  0  0  0  0  0  0  0  0  0  0  0
   49.4270  -33.9619   -0.1423 H   0  0  0  0  0  0  0  0  0  0  0  0
   50.6473  -31.3701  -13.2509 H   0  0  0  0  0  0  0  0  0  0  0  0
   39.4042  -40.3301   -7.4819 H   0  0  0  0  0  0  0  0  0  0  0  0
  2  1  1  6
  3  2  1  0
  2  5  1  0
  3  4  2  0
 12  3  1  0
  5  6  1  0
  6  7  1  0
  7  8  1  0
  8  9  1  0
  9 10  2  0
  9 11  1  0
 13 12  1  0
 14 13  1  0
 13 16  1  6
 14 15  2  0
 23 14  1  0
 16 17  1  0
 17 18  1  0
 18 19  1  0
 19 20  1  0
 20 21  1  0
 20 22  2  0
 24 23  1  0
 25 24  1  0
 24 27  1  1
 25 26  2  0
 34 25  1  0
 27 28  1  0
 28 29  1  0
 29 30  1  0
 30 31  1  0
 31 32  2  0
 31 33  1  0
 35 34  1  0
 36 35  1  0
 35 38  1  6
 36 37  2  0
 46 36  1  0
 38 39  1  0
 39 40  1  0
 40 41  1  0
 41 42  1  0
 42 43  2  0
 42 44  1  0
 45 47  2  0
 48 45  1  0
 45 54  1  0
 48 46  1  0
 48 49  1  1
 52 49  1  0
 50 51  1  0
 50 52  1  0
 51 53  1  0
 54 55  1  0
 55 56  1  0
 55 58  1  6
 56 57  2  0
 56 65  1  0
 58 59  1  0
 59 60  1  0
 60 61  1  0
 61 62  1  0
 62 63  2  0
 62 64  1  0
 65 66  1  0
 66 67  1  0
 67 68  2  0
 67 75  1  0
 68 69  1  0
 69 70  2  0
 70 71  1  0
 70 74  1  0
 71 72  1  0
 71 73  2  0
 74 75  2  0
 10 76  1  0
 22 77  1  0
 32 78  1  0
 43 79  1  0
 63 80  1  0
 73 81  1  0
M  CHG  2   1   1  53   1
M  END
$$$$
