
     RDKit          3D

 81 81  0  0  0  0  0  0  0  0999 V2000
   54.9614  -34.4087   -4.9420 N   0  0  0  0  0  4  0  0  0  0  0  0
   54.9544  -35.0662   -6.2824 C   0  0  2  0  0  0  0  0  0  0  0  0
   55.1801  -36.5757   -6.0369 C   0  0  0  0  0  0  0  0  0  0  0  0
   55.1745  -37.3507   -6.9988 O   0  0  0  0  0  0  0  0  0  0  0  0
   56.0480  -34.4810   -7.1859 C   0  0  0  0  0  0  0  0  0  0  0  0
   56.3555  -35.2374   -8.4858 C   0  0  0  0  0  0  0  0  0  0  0  0
   57.4560  -34.6659   -9.3696 C   0  0  0  0  0  0  0  0  0  0  0  0
   58.5863  -35.5793   -9.4122 N   0  0  0  0  0  0  0  0  0  0  0  0
   58.4291  -36.8870   -9.0853 C   0  0  0  0  0  0  0  0  0  0  0  0
   57.2613  -37.4232   -8.9870 N   0  0  0  0  0  0  0  0  0  0  0  0
   59.5707  -37.5899   -9.0535 N   0  0  0  0  0  0  0  0  0  0  0  0
   55.3890  -36.9927   -4.7494 N   0  0  0  0  0  0  0  0  0  0  0  0
   54.2983  -37.5520   -3.9541 C   0  0  2  0  0  0  0  0  0  0  0  0
   53.1952  -36.4732   -3.8808 C   0  0  0  0  0  0  0  0  0  0  0  0
   52.0089  -36.7558   -3.7096 O   0  0  0  0  0  0  0  0  0  0  0  0
   54.7816  -37.9677   -2.5599 C   0  0  0  0  0  0  0  0  0  0  0  0
   53.6729  -38.5132   -1.6498 C   0  0  0  0  0  0  0  0  0  0  0  0
   54.1662  -38.9989   -0.2835 C   0  0  0  0  0  0  0  0  0  0  0  0
   54.1206  -37.9277    0.6890 N   0  0  0  0  0  0  0  0  0  0  0  0
   53.1751  -36.9619    0.7043 C   0  0  0  0  0  0  0  0  0  0  0  0
   53.7060  -35.7565    0.9934 N   0  0  0  0  0  0  0  0  0  0  0  0
   51.9149  -37.1176    0.4745 N   0  0  0  0  0  0  0  0  0  0  0  0
   53.6450  -35.1781   -4.0152 N   0  0  0  0  0  0  0  0  0  0  0  0
   52.7220  -34.0325   -4.0489 C   0  0  2  0  0  0  0  0  0  0  0  0
   52.4318  -33.5652   -5.4949 C   0  0  0  0  0  0  0  0  0  0  0  0
   51.5442  -32.7610   -5.7716 O   0  0  0  0  0  0  0  0  0  0  0  0
   53.3057  -32.8626   -3.2431 C   0  0  0  0  0  0  0  0  0  0  0  0
   52.4463  -32.4284   -2.0509 C   0  0  0  0  0  0  0  0  0  0  0  0
   52.2214  -33.5129   -0.9963 C   0  0  0  0  0  0  0  0  0  0  0  0
   51.2048  -33.1206   -0.0333 N   0  0  0  0  0  0  0  0  0  0  0  0
   50.4754  -31.9980   -0.2137 C   0  0  0  0  0  0  0  0  0  0  0  0
   49.3563  -31.9336   -0.8388 N   0  0  0  0  0  0  0  0  0  0  0  0
   51.0714  -30.9207    0.3364 N   0  0  0  0  0  0  0  0  0  0  0  0
   53.2829  -34.0906   -6.4531 N   0  0  0  0  0  0  0  0  0  0  0  0
   53.3043  -33.5195   -7.7915 C   0  0  2  0  0  0  0  0  0  0  0  0
   51.9556  -33.8091   -8.4959 C   0  0  0  0  0  0  0  0  0  0  0  0
   51.5626  -33.1676   -9.4669 O   0  0  0  0  0  0  0  0  0  0  0  0
   54.4963  -34.0251   -8.6161 C   0  0  0  0  0  0  0  0  0  0  0  0
   55.8687  -33.5700   -8.1061 C   0  0  0  0  0  0  0  0  0  0  0  0
   55.9945  -32.0437   -8.0660 C   0  0  0  0  0  0  0  0  0  0  0  0
   57.3319  -31.6354   -7.6642 N   0  0  0  0  0  0  0  0  0  0  0  0
   58.4477  -32.1451   -8.2297 C   0  0  0  0  0  0  0  0  0  0  0  0
   58.4729  -32.9902   -9.1928 N   0  0  0  0  0  0  0  0  0  0  0  0
   59.5576  -31.6480   -7.6525 N   0  0  0  0  0  0  0  0  0  0  0  0
   49.0910  -35.8382   -8.5060 C   0  0  0  0  0  0  0  0  0  0  0  0
   51.2031  -34.8071   -7.8916 N   0  0  0  0  0  0  0  0  0  0  0  0
   48.5899  -35.4586   -7.4487 O   0  0  0  0  0  0  0  0  0  0  0  0
   50.6239  -35.8660   -8.7203 C   0  0  1  0  0  0  0  0  0  0  0  0
   51.2646  -37.2268   -8.3824 C   0  0  0  0  0  0  0  0  0  0  0  0
   51.2376  -38.9204  -10.3052 C   0  0  0  0  0  0  0  0  0  0  0  0
   50.6077  -40.1582  -10.9382 C   0  0  0  0  0  0  0  0  0  0  0  0
   50.5646  -38.4391   -9.0122 C   0  0  0  0  0  0  0  0  0  0  0  0
   51.3600  -40.6015  -12.1326 N   0  0  0  0  0  4  0  0  0  0  0  0
   48.3240  -36.2361   -9.5757 N   0  0  0  0  0  0  0  0  0  0  0  0
   46.8575  -36.4232   -9.5292 C   0  0  2  0  0  0  0  0  0  0  0  0
   46.3981  -37.8887   -9.6806 C   0  0  0  0  0  0  0  0  0  0  0  0
   46.8767  -38.6067  -10.5554 O   0  0  0  0  0  0  0  0  0  0  0  0
   46.1384  -35.4983  -10.5233 C   0  0  0  0  0  0  0  0  0  0  0  0
   45.7274  -36.1604  -11.8440 C   0  0  0  0  0  0  0  0  0  0  0  0
   45.8538  -35.2561  -13.0752 C   0  0  0  0  0  0  0  0  0  0  0  0
   45.6688  -36.0247  -14.3139 N   0  0  0  0  0  0  0  0  0  0  0  0
   44.5586  -36.8078  -14.4161 C   0  0  0  0  0  0  0  0  0  0  0  0
   43.5961  -36.8208  -13.5696 N   0  0  0  0  0  0  0  0  0  0  0  0
   44.5723  -37.5569  -15.5343 N   0  0  0  0  0  0  0  0  0  0  0  0
   45.5351  -38.3498   -8.7029 N   0  0  0  0  0  0  0  0  0  0  0  0
   45.6218  -37.8651   -7.3392 C   0  0  0  0  0  0  0  0  0  0  0  0
   44.7852  -38.6560   -6.3679 C   0  0  0  0  0  0  0  0  0  0  0  0
   44.1056  -39.8157   -6.7718 C   0  0  0  0  0  0  0  0  0  0  0  0
   43.3549  -40.5521   -5.8535 C   0  0  0  0  0  0  0  0  0  0  0  0
   43.2835  -40.1447   -4.5169 C   0  0  0  0  0  0  0  0  0  0  0  0
   42.5060  -40.9532   -3.5423 C   0  0  0  0  0  0  0  0  0  0  0  0
   41.9283  -42.1327   -3.9248 N   0  0  0  0  0  0  0  0  0  0  0  0
   42.3238  -40.5931   -2.3109 N   0  0  0  0  0  0  0  0  0  0  0  0
   43.9461  -38.9856   -4.1040 C   0  0  0  0  0  0  0  0  0  0  0  0
   44.6931  -38.2490   -5.0258 C   0  0  0  0  0  0  0  0  0  0  0  0
   56.7609  -37.2448   -9.8684 H   0  0  0  0  0  0  0  0  0  0  0  0
   51.5499  -37.7057    1.2265 H   0  0  0  0  0  0  0  0  0  0  0  0
   48.7352  -32.6671   -0.5015 H   0  0  0  0  0  0  0  0  0  0  0  0
   57.5559  -33.4186   -9.3272 H   0  0  0  0  0  0  0  0  0  0  0  0
   43.7594  -36.1325  -12.8344 H   0  0  0  0  0  0  0  0  0  0  0  0
   42.7911  -39.7037   -2.1086 H   0  0  0  0  0  0  0  0  0  0  0  0
  2  1  1  1
  3  2  1  0
  2  5  1  0
  3  4  2  0
 12  3  1  0
  5  6  1  0
  6  7  1  0
  7  8  1  0
  8  9  1  0
  9 10  2  0
  9 11  1  0
 13 12  1  0
 14 13  1  0
 13 16  1  1
 14 15  2  0
 23 14  1  0
 16 17  1  0
 17 18  1  0
 18 19  1  0
 19 20  1  0
 20 21  1  0
 20 22  2  0
 24 23  1  0
 25 24  1  0
 24 27  1  1
 25 26  2  0
 34 25  1  0
 27 28  1  0
 28 29  1  0
 29 30  1  0
 30 31  1  0
 31 32  2  0
 31 33  1  0
 35 34  1  0
 36 35  1  0
 35 38  1  6
 36 37  2  0
 46 36  1  0
 38 39  1  0
 39 40  1  0
 40 41  1  0
 41 42  1  0
 42 43  2  0
 42 44  1  0
 45 47  2  0
 48 45  1  0
 45 54  1  0
 48 46  1  0
 48 49  1  1
 52 49  1  0
 50 51  1  0
 50 52  1  0
 51 53  1  0
 54 55  1  0
 55 56  1  0
 55 58  1  6
 56 57  2  0
 56 65  1  0
 58 59  1  0
 59 60  1  0
 60 61  1  0
 61 62  1  0
 62 63  2  0
 62 64  1  0
 65 66  1  0
 66 67  1  0
 67 68  2  0
 67 75  1  0
 68 69  1  0
 69 70  2  0
 70 71  1  0
 70 74  1  0
 71 72  1  0
 71 73  2  0
 74 75  2  0
 10 76  1  0
 22 77  1  0
 32 78  1  0
 43 79  1  0
 63 80  1  0
 73 81  1  0
M  CHG  2   1   1  53   1
M  END
$$$$
