
     RDKit          3D

 81 81  0  0  0  0  0  0  0  0999 V2000
   51.1416  -35.6620   -1.9795 N   0  0  0  0  0  4  0  0  0  0  0  0
   50.4835  -34.8322   -3.0319 C   0  0  2  0  0  0  0  0  0  0  0  0
   51.0565  -35.3010   -4.3889 C   0  0  0  0  0  0  0  0  0  0  0  0
   51.8965  -34.6007   -4.9633 O   0  0  0  0  0  0  0  0  0  0  0  0
   50.7533  -33.3393   -2.8012 C   0  0  0  0  0  0  0  0  0  0  0  0
   51.6147  -32.6179   -3.8471 C   0  0  0  0  0  0  0  0  0  0  0  0
   51.7834  -31.1138   -3.6794 C   0  0  0  0  0  0  0  0  0  0  0  0
   51.8546  -30.4716   -4.9818 N   0  0  0  0  0  0  0  0  0  0  0  0
   52.8753  -30.7480   -5.8324 C   0  0  0  0  0  0  0  0  0  0  0  0
   53.7432  -31.6642   -5.5711 N   0  0  0  0  0  0  0  0  0  0  0  0
   52.7932  -30.1229   -7.0160 N   0  0  0  0  0  0  0  0  0  0  0  0
   50.6102  -36.4915   -4.8975 N   0  0  0  0  0  0  0  0  0  0  0  0
   51.1256  -37.0087   -6.1631 C   0  0  2  0  0  0  0  0  0  0  0  0
   50.1724  -38.1394   -6.6092 C   0  0  0  0  0  0  0  0  0  0  0  0
   50.5620  -39.2922   -6.7981 O   0  0  0  0  0  0  0  0  0  0  0  0
   52.5685  -37.5054   -6.0159 C   0  0  0  0  0  0  0  0  0  0  0  0
   52.6969  -38.8470   -5.2820 C   0  0  0  0  0  0  0  0  0  0  0  0
   53.6325  -38.8109   -4.0698 C   0  0  0  0  0  0  0  0  0  0  0  0
   54.9406  -38.3177   -4.4457 N   0  0  0  0  0  0  0  0  0  0  0  0
   55.3712  -37.0598   -4.2030 C   0  0  0  0  0  0  0  0  0  0  0  0
   54.5018  -36.3820   -3.4263 N   0  0  0  0  0  0  0  0  0  0  0  0
   56.4662  -36.5273   -4.6304 N   0  0  0  0  0  0  0  0  0  0  0  0
   48.8591  -37.7564   -6.7710 N   0  0  0  0  0  0  0  0  0  0  0  0
   47.8390  -38.6760   -7.2997 C   0  0  2  0  0  0  0  0  0  0  0  0
   47.6951  -38.5598   -8.8357 C   0  0  0  0  0  0  0  0  0  0  0  0
   46.8077  -39.1284   -9.4683 O   0  0  0  0  0  0  0  0  0  0  0  0
   46.4822  -38.3932   -6.6382 C   0  0  0  0  0  0  0  0  0  0  0  0
   45.2808  -38.9722   -7.3930 C   0  0  0  0  0  0  0  0  0  0  0  0
   45.2881  -40.4950   -7.5344 C   0  0  0  0  0  0  0  0  0  0  0  0
   43.9402  -41.0284   -7.6506 N   0  0  0  0  0  0  0  0  0  0  0  0
   43.7329  -42.3310   -7.9422 C   0  0  0  0  0  0  0  0  0  0  0  0
   43.9696  -42.8836   -9.0763 N   0  0  0  0  0  0  0  0  0  0  0  0
   43.2244  -43.0041   -6.8901 N   0  0  0  0  0  0  0  0  0  0  0  0
   48.6203  -37.7252   -9.4406 N   0  0  0  0  0  0  0  0  0  0  0  0
   48.3682  -37.2188  -10.7815 C   0  0  2  0  0  0  0  0  0  0  0  0
   49.5604  -36.3380  -11.2312 C   0  0  0  0  0  0  0  0  0  0  0  0
   49.4377  -35.1492  -11.5149 O   0  0  0  0  0  0  0  0  0  0  0  0
   47.0362  -36.4613  -10.8717 C   0  0  0  0  0  0  0  0  0  0  0  0
   46.1993  -36.7805  -12.1161 C   0  0  0  0  0  0  0  0  0  0  0  0
   44.9309  -35.9251  -12.1960 C   0  0  0  0  0  0  0  0  0  0  0  0
   44.7825  -35.0908  -11.0132 N   0  0  0  0  0  0  0  0  0  0  0  0
   43.5978  -34.9233  -10.3864 C   0  0  0  0  0  0  0  0  0  0  0  0
   42.7293  -35.8430  -10.1811 N   0  0  0  0  0  0  0  0  0  0  0  0
   43.4321  -33.6476   -9.9897 N   0  0  0  0  0  0  0  0  0  0  0  0
   52.6693  -35.5252  -11.2897 C   0  0  0  0  0  0  0  0  0  0  0  0
   50.7602  -37.0262  -11.3514 N   0  0  0  0  0  0  0  0  0  0  0  0
   53.5582  -35.7958  -12.0958 O   0  0  0  0  0  0  0  0  0  0  0  0
   51.8989  -36.6270  -10.5222 C   0  0  1  0  0  0  0  0  0  0  0  0
   52.7678  -37.8517  -10.1734 C   0  0  0  0  0  0  0  0  0  0  0  0
   53.0005  -39.9421   -8.7099 C   0  0  0  0  0  0  0  0  0  0  0  0
   52.5131  -40.7316   -7.4979 C   0  0  0  0  0  0  0  0  0  0  0  0
   52.4162  -38.5288   -8.8414 C   0  0  0  0  0  0  0  0  0  0  0  0
   53.5141  -41.7289   -7.0594 N   0  0  0  0  0  4  0  0  0  0  0  0
   52.2824  -34.2300  -11.0375 N   0  0  0  0  0  0  0  0  0  0  0  0
   53.1606  -33.1944  -10.4509 C   0  0  2  0  0  0  0  0  0  0  0  0
   54.6158  -33.6521  -10.2176 C   0  0  0  0  0  0  0  0  0  0  0  0
   54.8536  -34.7053   -9.6311 O   0  0  0  0  0  0  0  0  0  0  0  0
   52.5468  -32.5873   -9.1799 C   0  0  0  0  0  0  0  0  0  0  0  0
   51.9934  -31.1664   -9.3422 C   0  0  0  0  0  0  0  0  0  0  0  0
   51.5885  -30.8014  -10.7748 C   0  0  0  0  0  0  0  0  0  0  0  0
   50.5699  -29.7422  -10.7800 N   0  0  0  0  0  0  0  0  0  0  0  0
   50.9805  -28.4644  -10.5459 C   0  0  0  0  0  0  0  0  0  0  0  0
   52.1497  -28.1392  -10.1331 N   0  0  0  0  0  0  0  0  0  0  0  0
   50.0172  -27.5669  -10.8257 N   0  0  0  0  0  0  0  0  0  0  0  0
   55.5910  -32.8765  -10.8182 N   0  0  0  0  0  0  0  0  0  0  0  0
   56.8797  -33.4378  -11.1741 C   0  0  0  0  0  0  0  0  0  0  0  0
   57.6048  -34.0592  -10.0091 C   0  0  0  0  0  0  0  0  0  0  0  0
   58.2319  -33.2646   -9.0369 C   0  0  0  0  0  0  0  0  0  0  0  0
   58.8780  -33.8552   -7.9494 C   0  0  0  0  0  0  0  0  0  0  0  0
   58.8955  -35.2476   -7.8139 C   0  0  0  0  0  0  0  0  0  0  0  0
   59.5603  -35.8636   -6.6364 C   0  0  0  0  0  0  0  0  0  0  0  0
   59.2031  -37.1149   -6.2147 N   0  0  0  0  0  0  0  0  0  0  0  0
   60.4825  -35.2642   -5.9511 N   0  0  0  0  0  0  0  0  0  0  0  0
   58.2847  -36.0508   -8.7808 C   0  0  0  0  0  0  0  0  0  0  0  0
   57.6425  -35.4572   -9.8696 C   0  0  0  0  0  0  0  0  0  0  0  0
   53.8459  -31.7140   -4.5483 H   0  0  0  0  0  0  0  0  0  0  0  0
   57.2184  -37.1810   -4.4038 H   0  0  0  0  0  0  0  0  0  0  0  0
   43.2328  -42.6376   -9.7351 H   0  0  0  0  0  0  0  0  0  0  0  0
   41.8010  -35.5426  -10.4819 H   0  0  0  0  0  0  0  0  0  0  0  0
   52.8614  -28.4641  -10.7880 H   0  0  0  0  0  0  0  0  0  0  0  0
   61.4168  -35.4811   -6.3121 H   0  0  0  0  0  0  0  0  0  0  0  0
  2  1  1  1
  3  2  1  0
  2  5  1  0
  3  4  2  0
 12  3  1  0
  5  6  1  0
  6  7  1  0
  7  8  1  0
  8  9  1  0
  9 10  2  0
  9 11  1  0
 13 12  1  0
 14 13  1  0
 13 16  1  1
 14 15  2  0
 23 14  1  0
 16 17  1  0
 17 18  1  0
 18 19  1  0
 19 20  1  0
 20 21  1  0
 20 22  2  0
 24 23  1  0
 25 24  1  0
 24 27  1  1
 25 26  2  0
 34 25  1  0
 27 28  1  0
 28 29  1  0
 29 30  1  0
 30 31  1  0
 31 32  2  0
 31 33  1  0
 35 34  1  0
 36 35  1  0
 35 38  1  1
 36 37  2  0
 46 36  1  0
 38 39  1  0
 39 40  1  0
 40 41  1  0
 41 42  1  0
 42 43  2  0
 42 44  1  0
 45 47  2  0
 48 45  1  0
 45 54  1  0
 48 46  1  0
 48 49  1  6
 52 49  1  0
 50 51  1  0
 50 52  1  0
 51 53  1  0
 54 55  1  0
 55 56  1  0
 55 58  1  1
 56 57  2  0
 56 65  1  0
 58 59  1  0
 59 60  1  0
 60 61  1  0
 61 62  1  0
 62 63  2  0
 62 64  1  0
 65 66  1  0
 66 67  1  0
 67 68  2  0
 67 75  1  0
 68 69  1  0
 69 70  2  0
 70 71  1  0
 70 74  1  0
 71 72  1  0
 71 73  2  0
 74 75  2  0
 10 76  1  0
 22 77  1  0
 32 78  1  0
 43 79  1  0
 63 80  1  0
 73 81  1  0
M  CHG  2   1   1  53   1
M  END
$$$$
