
     RDKit          3D

 81 81  0  0  0  0  0  0  0  0999 V2000
   53.4618  -34.0487   -0.8109 N   0  0  0  0  0  4  0  0  0  0  0  0
   53.8353  -32.7150   -0.2534 C   0  0  2  0  0  0  0  0  0  0  0  0
   54.9507  -32.1508   -1.1630 C   0  0  0  0  0  0  0  0  0  0  0  0
   55.5760  -31.1492   -0.8000 O   0  0  0  0  0  0  0  0  0  0  0  0
   54.3144  -32.8424    1.1988 C   0  0  0  0  0  0  0  0  0  0  0  0
   55.1537  -34.0791    1.5489 C   0  0  0  0  0  0  0  0  0  0  0  0
   55.7929  -34.1072    2.9308 C   0  0  0  0  0  0  0  0  0  0  0  0
   56.3897  -35.4096    3.1779 N   0  0  0  0  0  0  0  0  0  0  0  0
   55.6261  -36.5314    3.1681 C   0  0  0  0  0  0  0  0  0  0  0  0
   54.3582  -36.4837    2.9420 N   0  0  0  0  0  0  0  0  0  0  0  0
   56.3232  -37.6752    3.2336 N   0  0  0  0  0  0  0  0  0  0  0  0
   55.2074  -32.7991   -2.3415 N   0  0  0  0  0  0  0  0  0  0  0  0
   56.2347  -32.3119   -3.2592 C   0  0  2  0  0  0  0  0  0  0  0  0
   56.1486  -33.1802   -4.5338 C   0  0  0  0  0  0  0  0  0  0  0  0
   57.0672  -33.2413   -5.3516 O   0  0  0  0  0  0  0  0  0  0  0  0
   57.6272  -32.3743   -2.6208 C   0  0  0  0  0  0  0  0  0  0  0  0
   57.7202  -33.3157   -1.4124 C   0  0  0  0  0  0  0  0  0  0  0  0
   58.6960  -34.4813   -1.6001 C   0  0  0  0  0  0  0  0  0  0  0  0
   59.6216  -34.2072   -2.6788 N   0  0  0  0  0  0  0  0  0  0  0  0
   60.6064  -35.0503   -3.0607 C   0  0  0  0  0  0  0  0  0  0  0  0
   60.1480  -36.3099   -3.2080 N   0  0  0  0  0  0  0  0  0  0  0  0
   61.8410  -34.7418   -3.2752 N   0  0  0  0  0  0  0  0  0  0  0  0
   54.9708  -33.8804   -4.6762 N   0  0  0  0  0  0  0  0  0  0  0  0
   54.2710  -33.9731   -5.9674 C   0  0  2  0  0  0  0  0  0  0  0  0
   52.9865  -34.8298   -5.8696 C   0  0  0  0  0  0  0  0  0  0  0  0
   52.9801  -35.9758   -5.4251 O   0  0  0  0  0  0  0  0  0  0  0  0
   55.2039  -34.5733   -7.0296 C   0  0  0  0  0  0  0  0  0  0  0  0
   54.5350  -34.8254   -8.3851 C   0  0  0  0  0  0  0  0  0  0  0  0
   55.4695  -35.3660   -9.4683 C   0  0  0  0  0  0  0  0  0  0  0  0
   55.0687  -34.9192  -10.7929 N   0  0  0  0  0  0  0  0  0  0  0  0
   55.4892  -33.7317  -11.2807 C   0  0  0  0  0  0  0  0  0  0  0  0
   54.8631  -32.6177  -11.1616 N   0  0  0  0  0  0  0  0  0  0  0  0
   56.6624  -33.8474  -11.9355 N   0  0  0  0  0  0  0  0  0  0  0  0
   51.8309  -34.1865   -6.2814 N   0  0  0  0  0  0  0  0  0  0  0  0
   50.5429  -34.8459   -6.1267 C   0  0  2  0  0  0  0  0  0  0  0  0
   50.1129  -35.4591   -7.4825 C   0  0  0  0  0  0  0  0  0  0  0  0
   50.2835  -34.8848   -8.5548 O   0  0  0  0  0  0  0  0  0  0  0  0
   49.4727  -33.8986   -5.5665 C   0  0  0  0  0  0  0  0  0  0  0  0
   50.0094  -32.7983   -4.6434 C   0  0  0  0  0  0  0  0  0  0  0  0
   48.8964  -31.8790   -4.1305 C   0  0  0  0  0  0  0  0  0  0  0  0
   48.7064  -32.0312   -2.6960 N   0  0  0  0  0  0  0  0  0  0  0  0
   47.7407  -32.8157   -2.1703 C   0  0  0  0  0  0  0  0  0  0  0  0
   47.1819  -32.6430   -1.0300 N   0  0  0  0  0  0  0  0  0  0  0  0
   47.4230  -33.8232   -3.0046 N   0  0  0  0  0  0  0  0  0  0  0  0
   47.6282  -37.3682   -8.8125 C   0  0  0  0  0  0  0  0  0  0  0  0
   49.4580  -36.6783   -7.3713 N   0  0  0  0  0  0  0  0  0  0  0  0
   46.8736  -36.8452   -7.9939 O   0  0  0  0  0  0  0  0  0  0  0  0
   49.1575  -37.4411   -8.5842 C   0  0  1  0  0  0  0  0  0  0  0  0
   49.6900  -38.8826   -8.4607 C   0  0  0  0  0  0  0  0  0  0  0  0
   52.0936  -39.4103   -7.7463 C   0  0  0  0  0  0  0  0  0  0  0  0
   53.5589  -39.5805   -8.1382 C   0  0  0  0  0  0  0  0  0  0  0  0
   51.1475  -39.0680   -8.9056 C   0  0  0  0  0  0  0  0  0  0  0  0
   53.7032  -40.3934   -9.3659 N   0  0  0  0  0  4  0  0  0  0  0  0
   47.1678  -37.8975   -9.9952 N   0  0  0  0  0  0  0  0  0  0  0  0
   45.7432  -37.9486  -10.3898 C   0  0  2  0  0  0  0  0  0  0  0  0
   44.9476  -39.1069   -9.7517 C   0  0  0  0  0  0  0  0  0  0  0  0
   45.5169  -40.1377   -9.4010 O   0  0  0  0  0  0  0  0  0  0  0  0
   45.5791  -37.9223  -11.9172 C   0  0  0  0  0  0  0  0  0  0  0  0
   46.0996  -36.6535  -12.6034 C   0  0  0  0  0  0  0  0  0  0  0  0
   45.7652  -35.3504  -11.8688 C   0  0  0  0  0  0  0  0  0  0  0  0
   45.5004  -34.2627  -12.8208 N   0  0  0  0  0  0  0  0  0  0  0  0
   46.5624  -33.5335  -13.2642 C   0  0  0  0  0  0  0  0  0  0  0  0
   47.1892  -32.6608  -12.5653 N   0  0  0  0  0  0  0  0  0  0  0  0
   46.9020  -33.8551  -14.5263 N   0  0  0  0  0  0  0  0  0  0  0  0
   43.6140  -38.8462   -9.4933 N   0  0  0  0  0  0  0  0  0  0  0  0
   43.2205  -37.9458   -8.4272 C   0  0  0  0  0  0  0  0  0  0  0  0
   43.4721  -38.5016   -7.0500 C   0  0  0  0  0  0  0  0  0  0  0  0
   42.9529  -37.8732   -5.9075 C   0  0  0  0  0  0  0  0  0  0  0  0
   43.1734  -38.4151   -4.6399 C   0  0  0  0  0  0  0  0  0  0  0  0
   43.9063  -39.5986   -4.4994 C   0  0  0  0  0  0  0  0  0  0  0  0
   44.1090  -40.1821   -3.1480 C   0  0  0  0  0  0  0  0  0  0  0  0
   44.9502  -41.2463   -2.9715 N   0  0  0  0  0  0  0  0  0  0  0  0
   43.5086  -39.7383   -2.0888 N   0  0  0  0  0  0  0  0  0  0  0  0
   44.4385  -40.2283   -5.6279 C   0  0  0  0  0  0  0  0  0  0  0  0
   44.2194  -39.6817   -6.8942 C   0  0  0  0  0  0  0  0  0  0  0  0
   54.2101  -35.8791    2.1224 H   0  0  0  0  0  0  0  0  0  0  0  0
   61.8851  -33.7217   -3.3199 H   0  0  0  0  0  0  0  0  0  0  0  0
   54.0981  -32.7264  -10.4979 H   0  0  0  0  0  0  0  0  0  0  0  0
   46.4751  -33.3592   -0.8571 H   0  0  0  0  0  0  0  0  0  0  0  0
   46.6586  -32.4299  -11.7249 H   0  0  0  0  0  0  0  0  0  0  0  0
   42.7932  -39.0445   -2.3279 H   0  0  0  0  0  0  0  0  0  0  0  0
  2  1  1  6
  3  2  1  0
  2  5  1  0
  3  4  2  0
 12  3  1  0
  5  6  1  0
  6  7  1  0
  7  8  1  0
  8  9  1  0
  9 10  2  0
  9 11  1  0
 13 12  1  0
 14 13  1  0
 13 16  1  1
 14 15  2  0
 23 14  1  0
 16 17  1  0
 17 18  1  0
 18 19  1  0
 19 20  1  0
 20 21  1  0
 20 22  2  0
 24 23  1  0
 25 24  1  0
 24 27  1  6
 25 26  2  0
 34 25  1  0
 27 28  1  0
 28 29  1  0
 29 30  1  0
 30 31  1  0
 31 32  2  0
 31 33  1  0
 35 34  1  0
 36 35  1  0
 35 38  1  6
 36 37  2  0
 46 36  1  0
 38 39  1  0
 39 40  1  0
 40 41  1  0
 41 42  1  0
 42 43  2  0
 42 44  1  0
 45 47  2  0
 48 45  1  0
 45 54  1  0
 48 46  1  0
 48 49  1  1
 52 49  1  0
 50 51  1  0
 50 52  1  0
 51 53  1  0
 54 55  1  0
 55 56  1  0
 55 58  1  6
 56 57  2  0
 56 65  1  0
 58 59  1  0
 59 60  1  0
 60 61  1  0
 61 62  1  0
 62 63  2  0
 62 64  1  0
 65 66  1  0
 66 67  1  0
 67 68  2  0
 67 75  1  0
 68 69  1  0
 69 70  2  0
 70 71  1  0
 70 74  1  0
 71 72  1  0
 71 73  2  0
 74 75  2  0
 10 76  1  0
 22 77  1  0
 32 78  1  0
 43 79  1  0
 63 80  1  0
 73 81  1  0
M  CHG  2   1   1  53   1
M  END
$$$$
