
     RDKit          3D

 81 81  0  0  0  0  0  0  0  0999 V2000
   57.5119  -31.3583   -3.6734 N   0  0  0  0  0  4  0  0  0  0  0  0
   57.8333  -32.1288   -2.4356 C   0  0  2  0  0  0  0  0  0  0  0  0
   56.5648  -32.9346   -2.0731 C   0  0  0  0  0  0  0  0  0  0  0  0
   56.6556  -33.8784   -1.2812 O   0  0  0  0  0  0  0  0  0  0  0  0
   58.2383  -31.1875   -1.2935 C   0  0  0  0  0  0  0  0  0  0  0  0
   57.5128  -31.3673    0.0473 C   0  0  0  0  0  0  0  0  0  0  0  0
   58.2248  -32.1953    1.1085 C   0  0  0  0  0  0  0  0  0  0  0  0
   57.6696  -31.9079    2.4211 N   0  0  0  0  0  0  0  0  0  0  0  0
   58.1770  -32.5033    3.5301 C   0  0  0  0  0  0  0  0  0  0  0  0
   58.0296  -33.7651    3.7469 N   0  0  0  0  0  0  0  0  0  0  0  0
   58.9759  -31.7150    4.2642 N   0  0  0  0  0  0  0  0  0  0  0  0
   55.3791  -32.5570   -2.6445 N   0  0  0  0  0  0  0  0  0  0  0  0
   54.1142  -33.1455   -2.2103 C   0  0  2  0  0  0  0  0  0  0  0  0
   53.0136  -32.5809   -3.1353 C   0  0  0  0  0  0  0  0  0  0  0  0
   52.7261  -31.3838   -3.1614 O   0  0  0  0  0  0  0  0  0  0  0  0
   53.8326  -32.8356   -0.7355 C   0  0  0  0  0  0  0  0  0  0  0  0
   52.5433  -33.4705   -0.1974 C   0  0  0  0  0  0  0  0  0  0  0  0
   52.2257  -33.1078    1.2564 C   0  0  0  0  0  0  0  0  0  0  0  0
   53.2262  -33.6505    2.1509 N   0  0  0  0  0  0  0  0  0  0  0  0
   53.3641  -34.9681    2.4186 C   0  0  0  0  0  0  0  0  0  0  0  0
   54.4432  -35.4871    1.7982 N   0  0  0  0  0  0  0  0  0  0  0  0
   52.5948  -35.6841    3.1674 N   0  0  0  0  0  0  0  0  0  0  0  0
   52.3889  -33.5189   -3.9277 N   0  0  0  0  0  0  0  0  0  0  0  0
   52.6637  -33.6281   -5.3693 C   0  0  2  0  0  0  0  0  0  0  0  0
   51.7841  -34.7057   -6.0464 C   0  0  0  0  0  0  0  0  0  0  0  0
   51.6692  -34.8045   -7.2662 O   0  0  0  0  0  0  0  0  0  0  0  0
   54.1451  -33.9619   -5.5987 C   0  0  0  0  0  0  0  0  0  0  0  0
   54.5512  -34.0433   -7.0741 C   0  0  0  0  0  0  0  0  0  0  0  0
   55.8653  -33.3392   -7.4152 C   0  0  0  0  0  0  0  0  0  0  0  0
   57.0017  -34.2384   -7.2939 N   0  0  0  0  0  0  0  0  0  0  0  0
   58.2497  -33.8240   -7.6030 C   0  0  0  0  0  0  0  0  0  0  0  0
   58.9645  -34.2792   -8.5670 N   0  0  0  0  0  0  0  0  0  0  0  0
   58.6811  -32.8644   -6.7595 N   0  0  0  0  0  0  0  0  0  0  0  0
   51.1691  -35.5836   -5.1691 N   0  0  0  0  0  0  0  0  0  0  0  0
   50.4254  -36.7215   -5.6886 C   0  0  2  0  0  0  0  0  0  0  0  0
   49.4188  -36.2325   -6.7595 C   0  0  0  0  0  0  0  0  0  0  0  0
   49.0733  -35.0580   -6.8586 O   0  0  0  0  0  0  0  0  0  0  0  0
   49.7287  -37.5138   -4.5735 C   0  0  0  0  0  0  0  0  0  0  0  0
   49.0841  -38.8289   -5.0271 C   0  0  0  0  0  0  0  0  0  0  0  0
   48.6337  -39.6913   -3.8437 C   0  0  0  0  0  0  0  0  0  0  0  0
   49.1943  -39.2037   -2.5927 N   0  0  0  0  0  0  0  0  0  0  0  0
   48.9521  -39.8019   -1.4062 C   0  0  0  0  0  0  0  0  0  0  0  0
   49.4963  -39.4855   -0.2899 N   0  0  0  0  0  0  0  0  0  0  0  0
   48.0485  -40.7914   -1.5343 N   0  0  0  0  0  0  0  0  0  0  0  0
   46.8054  -38.0190   -8.5228 C   0  0  0  0  0  0  0  0  0  0  0  0
   48.8922  -37.2468   -7.5478 N   0  0  0  0  0  0  0  0  0  0  0  0
   46.4583  -38.5504   -7.4691 O   0  0  0  0  0  0  0  0  0  0  0  0
   47.8905  -36.9156   -8.5629 C   0  0  1  0  0  0  0  0  0  0  0  0
   48.5545  -36.7601   -9.9454 C   0  0  0  0  0  0  0  0  0  0  0  0
   49.5252  -35.1967  -11.7286 C   0  0  0  0  0  0  0  0  0  0  0  0
   49.7642  -33.7679  -12.2091 C   0  0  0  0  0  0  0  0  0  0  0  0
   48.9041  -35.3156  -10.3300 C   0  0  0  0  0  0  0  0  0  0  0  0
   48.5621  -33.2050  -12.8627 N   0  0  0  0  0  4  0  0  0  0  0  0
   46.2345  -38.3493   -9.7294 N   0  0  0  0  0  0  0  0  0  0  0  0
   44.7871  -38.2626  -10.0211 C   0  0  2  0  0  0  0  0  0  0  0  0
   44.4527  -37.9536  -11.4956 C   0  0  0  0  0  0  0  0  0  0  0  0
   43.7007  -37.0259  -11.7850 O   0  0  0  0  0  0  0  0  0  0  0  0
   44.0751  -37.2946   -9.0636 C   0  0  0  0  0  0  0  0  0  0  0  0
   44.1218  -37.6947   -7.5840 C   0  0  0  0  0  0  0  0  0  0  0  0
   44.0088  -39.2019   -7.3289 C   0  0  0  0  0  0  0  0  0  0  0  0
   43.4505  -39.4696   -5.9962 N   0  0  0  0  0  0  0  0  0  0  0  0
   44.2312  -39.1969   -4.9135 C   0  0  0  0  0  0  0  0  0  0  0  0
   45.4242  -39.6352   -4.7471 N   0  0  0  0  0  0  0  0  0  0  0  0
   43.6119  -38.3829   -4.0385 N   0  0  0  0  0  0  0  0  0  0  0  0
   45.1484  -38.6931  -12.4350 N   0  0  0  0  0  0  0  0  0  0  0  0
   44.5437  -39.0504  -13.7035 C   0  0  0  0  0  0  0  0  0  0  0  0
   45.2722  -38.4855  -14.8947 C   0  0  0  0  0  0  0  0  0  0  0  0
   45.4127  -37.1000  -15.0698 C   0  0  0  0  0  0  0  0  0  0  0  0
   46.1129  -36.5927  -16.1658 C   0  0  0  0  0  0  0  0  0  0  0  0
   46.6915  -37.4643  -17.0947 C   0  0  0  0  0  0  0  0  0  0  0  0
   47.4601  -36.9131  -18.2409 C   0  0  0  0  0  0  0  0  0  0  0  0
   48.0036  -37.7494  -19.1771 N   0  0  0  0  0  0  0  0  0  0  0  0
   47.6658  -35.6449  -18.4098 N   0  0  0  0  0  0  0  0  0  0  0  0
   46.5495  -38.8458  -16.9384 C   0  0  0  0  0  0  0  0  0  0  0  0
   45.8451  -39.3502  -15.8430 C   0  0  0  0  0  0  0  0  0  0  0  0
   57.3052  -34.1099    3.1023 H   0  0  0  0  0  0  0  0  0  0  0  0
   51.6343  -35.4218    2.9371 H   0  0  0  0  0  0  0  0  0  0  0  0
   58.8665  -33.6726   -9.3793 H   0  0  0  0  0  0  0  0  0  0  0  0
   49.6840  -38.4829   -0.2461 H   0  0  0  0  0  0  0  0  0  0  0  0
   45.5492  -40.5218   -5.2363 H   0  0  0  0  0  0  0  0  0  0  0  0
   47.2216  -35.0925  -17.6698 H   0  0  0  0  0  0  0  0  0  0  0  0
  2  1  1  6
  3  2  1  0
  2  5  1  0
  3  4  2  0
 12  3  1  0
  5  6  1  0
  6  7  1  0
  7  8  1  0
  8  9  1  0
  9 10  2  0
  9 11  1  0
 13 12  1  0
 14 13  1  0
 13 16  1  1
 14 15  2  0
 23 14  1  0
 16 17  1  0
 17 18  1  0
 18 19  1  0
 19 20  1  0
 20 21  1  0
 20 22  2  0
 24 23  1  0
 25 24  1  0
 24 27  1  1
 25 26  2  0
 34 25  1  0
 27 28  1  0
 28 29  1  0
 29 30  1  0
 30 31  1  0
 31 32  2  0
 31 33  1  0
 35 34  1  0
 36 35  1  0
 35 38  1  1
 36 37  2  0
 46 36  1  0
 38 39  1  0
 39 40  1  0
 40 41  1  0
 41 42  1  0
 42 43  2  0
 42 44  1  0
 45 47  2  0
 48 45  1  0
 45 54  1  0
 48 46  1  0
 48 49  1  6
 52 49  1  0
 50 51  1  0
 50 52  1  0
 51 53  1  0
 54 55  1  0
 55 56  1  0
 55 58  1  1
 56 57  2  0
 56 65  1  0
 58 59  1  0
 59 60  1  0
 60 61  1  0
 61 62  1  0
 62 63  2  0
 62 64  1  0
 65 66  1  0
 66 67  1  0
 67 68  2  0
 67 75  1  0
 68 69  1  0
 69 70  2  0
 70 71  1  0
 70 74  1  0
 71 72  1  0
 71 73  2  0
 74 75  2  0
 10 76  1  0
 22 77  1  0
 32 78  1  0
 43 79  1  0
 63 80  1  0
 73 81  1  0
M  CHG  2   1   1  53   1
M  END
$$$$
