
     RDKit          3D

 81 81  0  0  0  0  0  0  0  0999 V2000
   60.2346  -31.4258  -10.1584 N   0  0  0  0  0  4  0  0  0  0  0  0
   59.7325  -32.6850   -9.5328 C   0  0  2  0  0  0  0  0  0  0  0  0
   58.6990  -33.2857  -10.5130 C   0  0  0  0  0  0  0  0  0  0  0  0
   58.4605  -32.6978  -11.5729 O   0  0  0  0  0  0  0  0  0  0  0  0
   59.1002  -32.4026   -8.1635 C   0  0  0  0  0  0  0  0  0  0  0  0
   58.0714  -33.4191   -7.6489 C   0  0  0  0  0  0  0  0  0  0  0  0
   57.9324  -33.5516   -6.1382 C   0  0  0  0  0  0  0  0  0  0  0  0
   59.2223  -33.8629   -5.5441 N   0  0  0  0  0  0  0  0  0  0  0  0
   59.3336  -34.0733   -4.2080 C   0  0  0  0  0  0  0  0  0  0  0  0
   60.4823  -34.1940   -3.6364 N   0  0  0  0  0  0  0  0  0  0  0  0
   58.1795  -33.9658   -3.5335 N   0  0  0  0  0  0  0  0  0  0  0  0
   58.0924  -34.4628  -10.1646 N   0  0  0  0  0  0  0  0  0  0  0  0
   56.9572  -34.9779  -10.9269 C   0  0  2  0  0  0  0  0  0  0  0  0
   55.7000  -34.2392  -10.4173 C   0  0  0  0  0  0  0  0  0  0  0  0
   55.4266  -34.1551   -9.2196 O   0  0  0  0  0  0  0  0  0  0  0  0
   56.8262  -36.4976  -10.7730 C   0  0  0  0  0  0  0  0  0  0  0  0
   57.9381  -37.1399   -9.9327 C   0  0  0  0  0  0  0  0  0  0  0  0
   59.3428  -36.9736  -10.5203 C   0  0  0  0  0  0  0  0  0  0  0  0
   60.3277  -37.6343   -9.6903 N   0  0  0  0  0  0  0  0  0  0  0  0
   61.6625  -37.5308   -9.8756 C   0  0  0  0  0  0  0  0  0  0  0  0
   62.3303  -38.4847   -9.1954 N   0  0  0  0  0  0  0  0  0  0  0  0
   62.2711  -36.6552  -10.6023 N   0  0  0  0  0  0  0  0  0  0  0  0
   54.9189  -33.6810  -11.4051 N   0  0  0  0  0  0  0  0  0  0  0  0
   53.5226  -33.2843  -11.1630 C   0  0  2  0  0  0  0  0  0  0  0  0
   52.6283  -34.4975  -10.8136 C   0  0  0  0  0  0  0  0  0  0  0  0
   53.0614  -35.6449  -10.7314 O   0  0  0  0  0  0  0  0  0  0  0  0
   52.9554  -32.5732  -12.4005 C   0  0  0  0  0  0  0  0  0  0  0  0
   53.9058  -32.5466  -13.6023 C   0  0  0  0  0  0  0  0  0  0  0  0
   53.2834  -32.0246  -14.8981 C   0  0  0  0  0  0  0  0  0  0  0  0
   54.2648  -31.9417  -15.9680 N   0  0  0  0  0  0  0  0  0  0  0  0
   53.9305  -31.4433  -17.1783 C   0  0  0  0  0  0  0  0  0  0  0  0
   52.8097  -30.8887  -17.4678 N   0  0  0  0  0  0  0  0  0  0  0  0
   54.9218  -31.6073  -18.0776 N   0  0  0  0  0  0  0  0  0  0  0  0
   51.3044  -34.1831  -10.5546 N   0  0  0  0  0  0  0  0  0  0  0  0
   50.4556  -35.1430   -9.8647 C   0  0  2  0  0  0  0  0  0  0  0  0
   49.1111  -34.4685   -9.4955 C   0  0  0  0  0  0  0  0  0  0  0  0
   49.0031  -33.2583   -9.3145 O   0  0  0  0  0  0  0  0  0  0  0  0
   51.1468  -35.7445   -8.6332 C   0  0  0  0  0  0  0  0  0  0  0  0
   52.2939  -34.9007   -8.0649 C   0  0  0  0  0  0  0  0  0  0  0  0
   53.5508  -35.7356   -7.8001 C   0  0  0  0  0  0  0  0  0  0  0  0
   54.6586  -34.8977   -7.3671 N   0  0  0  0  0  0  0  0  0  0  0  0
   54.5932  -33.5485   -7.3697 C   0  0  0  0  0  0  0  0  0  0  0  0
   55.5657  -32.7571   -7.1045 N   0  0  0  0  0  0  0  0  0  0  0  0
   53.3587  -33.1208   -7.6939 N   0  0  0  0  0  0  0  0  0  0  0  0
   45.9283  -36.4125   -9.8166 C   0  0  0  0  0  0  0  0  0  0  0  0
   48.0597  -35.3581   -9.3199 N   0  0  0  0  0  0  0  0  0  0  0  0
   44.8704  -36.5928  -10.4176 O   0  0  0  0  0  0  0  0  0  0  0  0
   47.0002  -35.4198  -10.3285 C   0  0  1  0  0  0  0  0  0  0  0  0
   47.5847  -35.8046  -11.7021 C   0  0  0  0  0  0  0  0  0  0  0  0
   47.8557  -37.5807  -13.5291 C   0  0  0  0  0  0  0  0  0  0  0  0
   47.1410  -38.6773  -14.3142 C   0  0  0  0  0  0  0  0  0  0  0  0
   47.2005  -37.2077  -12.1920 C   0  0  0  0  0  0  0  0  0  0  0  0
   47.2118  -39.9803  -13.6170 N   0  0  0  0  0  4  0  0  0  0  0  0
   46.2409  -37.0996   -8.6671 N   0  0  0  0  0  0  0  0  0  0  0  0
   45.3046  -37.9858   -7.9421 C   0  0  2  0  0  0  0  0  0  0  0  0
   44.0502  -37.2736   -7.3938 C   0  0  0  0  0  0  0  0  0  0  0  0
   43.7351  -36.1587   -7.8032 O   0  0  0  0  0  0  0  0  0  0  0  0
   46.0222  -38.7918   -6.8485 C   0  0  0  0  0  0  0  0  0  0  0  0
   47.2856  -38.1331   -6.2814 C   0  0  0  0  0  0  0  0  0  0  0  0
   47.2928  -37.9794   -4.7563 C   0  0  0  0  0  0  0  0  0  0  0  0
   48.3717  -37.0807   -4.3231 N   0  0  0  0  0  0  0  0  0  0  0  0
   48.6000  -36.9602   -2.9854 C   0  0  0  0  0  0  0  0  0  0  0  0
   47.6948  -37.0441   -2.0817 N   0  0  0  0  0  0  0  0  0  0  0  0
   49.9039  -36.7675   -2.7126 N   0  0  0  0  0  0  0  0  0  0  0  0
   43.2645  -38.0210   -6.5351 N   0  0  0  0  0  0  0  0  0  0  0  0
   42.8974  -39.3868   -6.8544 C   0  0  0  0  0  0  0  0  0  0  0  0
   42.4859  -40.1937   -5.6508 C   0  0  0  0  0  0  0  0  0  0  0  0
   42.1498  -41.5514   -5.7673 C   0  0  0  0  0  0  0  0  0  0  0  0
   41.7953  -42.2920   -4.6383 C   0  0  0  0  0  0  0  0  0  0  0  0
   41.7834  -41.6875   -3.3766 C   0  0  0  0  0  0  0  0  0  0  0  0
   41.4335  -42.4935   -2.1782 C   0  0  0  0  0  0  0  0  0  0  0  0
   41.6600  -43.8424   -2.1600 N   0  0  0  0  0  0  0  0  0  0  0  0
   40.8970  -41.9832   -1.1148 N   0  0  0  0  0  0  0  0  0  0  0  0
   42.1050  -40.3336   -3.2481 C   0  0  0  0  0  0  0  0  0  0  0  0
   42.4555  -39.5943   -4.3800 C   0  0  0  0  0  0  0  0  0  0  0  0
   61.1772  -34.3873   -4.3705 H   0  0  0  0  0  0  0  0  0  0  0  0
   61.5614  -35.9904  -10.9167 H   0  0  0  0  0  0  0  0  0  0  0  0
   52.4137  -30.4644  -16.6308 H   0  0  0  0  0  0  0  0  0  0  0  0
   56.4189  -33.2808   -6.9043 H   0  0  0  0  0  0  0  0  0  0  0  0
   47.7125  -37.9659   -1.6446 H   0  0  0  0  0  0  0  0  0  0  0  0
   39.8749  -42.0517   -1.1422 H   0  0  0  0  0  0  0  0  0  0  0  0
  2  1  1  6
  3  2  1  0
  2  5  1  0
  3  4  2  0
 12  3  1  0
  5  6  1  0
  6  7  1  0
  7  8  1  0
  8  9  1  0
  9 10  2  0
  9 11  1  0
 13 12  1  0
 14 13  1  0
 13 16  1  1
 14 15  2  0
 23 14  1  0
 16 17  1  0
 17 18  1  0
 18 19  1  0
 19 20  1  0
 20 21  1  0
 20 22  2  0
 24 23  1  0
 25 24  1  0
 24 27  1  6
 25 26  2  0
 34 25  1  0
 27 28  1  0
 28 29  1  0
 29 30  1  0
 30 31  1  0
 31 32  2  0
 31 33  1  0
 35 34  1  0
 36 35  1  0
 35 38  1  1
 36 37  2  0
 46 36  1  0
 38 39  1  0
 39 40  1  0
 40 41  1  0
 41 42  1  0
 42 43  2  0
 42 44  1  0
 45 47  2  0
 48 45  1  0
 45 54  1  0
 48 46  1  0
 48 49  1  6
 52 49  1  0
 50 51  1  0
 50 52  1  0
 51 53  1  0
 54 55  1  0
 55 56  1  0
 55 58  1  1
 56 57  2  0
 56 65  1  0
 58 59  1  0
 59 60  1  0
 60 61  1  0
 61 62  1  0
 62 63  2  0
 62 64  1  0
 65 66  1  0
 66 67  1  0
 67 68  2  0
 67 75  1  0
 68 69  1  0
 69 70  2  0
 70 71  1  0
 70 74  1  0
 71 72  1  0
 71 73  2  0
 74 75  2  0
 10 76  1  0
 22 77  1  0
 32 78  1  0
 43 79  1  0
 63 80  1  0
 73 81  1  0
M  CHG  2   1   1  53   1
M  END
$$$$
