
     RDKit          3D

 81 81  0  0  0  0  0  0  0  0999 V2000
   58.6667  -32.0543   -2.4709 N   0  0  0  0  0  4  0  0  0  0  0  0
   58.4154  -30.8566   -1.6157 C   0  0  2  0  0  0  0  0  0  0  0  0
   56.9070  -30.5381   -1.7309 C   0  0  0  0  0  0  0  0  0  0  0  0
   56.4618  -29.5223   -1.1869 O   0  0  0  0  0  0  0  0  0  0  0  0
   59.2704  -29.6672   -2.0728 C   0  0  0  0  0  0  0  0  0  0  0  0
   60.0348  -29.8266   -3.3944 C   0  0  0  0  0  0  0  0  0  0  0  0
   61.2628  -28.9472   -3.5886 C   0  0  0  0  0  0  0  0  0  0  0  0
   60.8750  -27.5461   -3.6072 N   0  0  0  0  0  0  0  0  0  0  0  0
   61.7992  -26.5775   -3.8295 C   0  0  0  0  0  0  0  0  0  0  0  0
   62.9655  -26.8525   -4.3039 N   0  0  0  0  0  0  0  0  0  0  0  0
   61.3356  -25.3275   -3.6846 N   0  0  0  0  0  0  0  0  0  0  0  0
   56.1216  -31.4009   -2.4477 N   0  0  0  0  0  0  0  0  0  0  0  0
   55.4885  -32.5508   -1.8061 C   0  0  2  0  0  0  0  0  0  0  0  0
   54.7333  -33.3234   -2.9100 C   0  0  0  0  0  0  0  0  0  0  0  0
   53.5274  -33.1745   -3.1099 O   0  0  0  0  0  0  0  0  0  0  0  0
   54.5509  -32.1117   -0.6754 C   0  0  0  0  0  0  0  0  0  0  0  0
   53.8688  -33.2738    0.0590 C   0  0  0  0  0  0  0  0  0  0  0  0
   54.3185  -33.4460    1.5131 C   0  0  0  0  0  0  0  0  0  0  0  0
   53.3182  -34.1596    2.2785 N   0  0  0  0  0  0  0  0  0  0  0  0
   52.4164  -33.5595    3.0867 C   0  0  0  0  0  0  0  0  0  0  0  0
   52.2969  -34.2107    4.2616 N   0  0  0  0  0  0  0  0  0  0  0  0
   51.7339  -32.4972    2.8205 N   0  0  0  0  0  0  0  0  0  0  0  0
   55.5153  -34.1817   -3.6514 N   0  0  0  0  0  0  0  0  0  0  0  0
   54.9466  -35.3429   -4.3541 C   0  0  2  0  0  0  0  0  0  0  0  0
   53.6365  -34.9863   -5.0957 C   0  0  0  0  0  0  0  0  0  0  0  0
   52.7725  -34.2577   -4.6125 O   0  0  0  0  0  0  0  0  0  0  0  0
   54.6746  -36.4795   -3.3577 C   0  0  0  0  0  0  0  0  0  0  0  0
   55.1114  -36.1751   -1.9207 C   0  0  0  0  0  0  0  0  0  0  0  0
   54.8082  -37.2839   -0.9120 C   0  0  0  0  0  0  0  0  0  0  0  0
   53.3801  -37.5384   -0.8093 N   0  0  0  0  0  0  0  0  0  0  0  0
   52.8927  -38.3909    0.1184 C   0  0  0  0  0  0  0  0  0  0  0  0
   53.2577  -39.6124    0.2672 N   0  0  0  0  0  0  0  0  0  0  0  0
   51.9466  -37.8096    0.8835 N   0  0  0  0  0  0  0  0  0  0  0  0
   53.5323  -35.5172   -6.3709 N   0  0  0  0  0  0  0  0  0  0  0  0
   52.4424  -35.0997   -7.2403 C   0  0  2  0  0  0  0  0  0  0  0  0
   51.2498  -36.0739   -7.0739 C   0  0  0  0  0  0  0  0  0  0  0  0
   51.0911  -37.0577   -7.7920 O   0  0  0  0  0  0  0  0  0  0  0  0
   52.8839  -34.9868   -8.7061 C   0  0  0  0  0  0  0  0  0  0  0  0
   54.2764  -34.3790   -8.9120 C   0  0  0  0  0  0  0  0  0  0  0  0
   54.2231  -32.8591   -9.0971 C   0  0  0  0  0  0  0  0  0  0  0  0
   55.5587  -32.2969   -9.2277 N   0  0  0  0  0  0  0  0  0  0  0  0
   56.1081  -31.5029   -8.2833 C   0  0  0  0  0  0  0  0  0  0  0  0
   55.5918  -30.4211   -7.8299 N   0  0  0  0  0  0  0  0  0  0  0  0
   57.2886  -31.9928   -7.8607 N   0  0  0  0  0  0  0  0  0  0  0  0
   48.7580  -36.5885   -7.7020 C   0  0  0  0  0  0  0  0  0  0  0  0
   50.3437  -35.6985   -6.0913 N   0  0  0  0  0  0  0  0  0  0  0  0
   48.8800  -35.9731   -8.7601 O   0  0  0  0  0  0  0  0  0  0  0  0
   48.9119  -35.8911   -6.3286 C   0  0  1  0  0  0  0  0  0  0  0  0
   48.1643  -34.5460   -6.2378 C   0  0  0  0  0  0  0  0  0  0  0  0
   47.2534  -32.6622   -4.7587 C   0  0  0  0  0  0  0  0  0  0  0  0
   46.9010  -32.1647   -3.3595 C   0  0  0  0  0  0  0  0  0  0  0  0
   47.9123  -34.0477   -4.8079 C   0  0  0  0  0  0  0  0  0  0  0  0
   47.7370  -31.0092   -2.9660 N   0  0  0  0  0  4  0  0  0  0  0  0
   48.5045  -37.9396   -7.6687 N   0  0  0  0  0  0  0  0  0  0  0  0
   47.8907  -38.7027   -8.7771 C   0  0  2  0  0  0  0  0  0  0  0  0
   46.5448  -38.1331   -9.2727 C   0  0  0  0  0  0  0  0  0  0  0  0
   45.8872  -37.3756   -8.5631 O   0  0  0  0  0  0  0  0  0  0  0  0
   47.7841  -40.1983   -8.4419 C   0  0  0  0  0  0  0  0  0  0  0  0
   48.0325  -40.5523   -6.9707 C   0  0  0  0  0  0  0  0  0  0  0  0
   49.5115  -40.6216   -6.5742 C   0  0  0  0  0  0  0  0  0  0  0  0
   50.2198  -41.6413   -7.3603 N   0  0  0  0  0  0  0  0  0  0  0  0
   50.4108  -42.8639   -6.7905 C   0  0  0  0  0  0  0  0  0  0  0  0
   49.9028  -43.2341   -5.6733 N   0  0  0  0  0  0  0  0  0  0  0  0
   51.1809  -43.6606   -7.5546 N   0  0  0  0  0  0  0  0  0  0  0  0
   46.2169  -38.4264  -10.5842 N   0  0  0  0  0  0  0  0  0  0  0  0
   44.9401  -38.0274  -11.1435 C   0  0  0  0  0  0  0  0  0  0  0  0
   44.9891  -36.7067  -11.8662 C   0  0  0  0  0  0  0  0  0  0  0  0
   43.8226  -36.1123  -12.3719 C   0  0  0  0  0  0  0  0  0  0  0  0
   43.8812  -34.8755  -13.0170 C   0  0  0  0  0  0  0  0  0  0  0  0
   45.1051  -34.2119  -13.1544 C   0  0  0  0  0  0  0  0  0  0  0  0
   45.1505  -32.8822  -13.8161 C   0  0  0  0  0  0  0  0  0  0  0  0
   46.3460  -32.2483  -14.0168 N   0  0  0  0  0  0  0  0  0  0  0  0
   44.0898  -32.2564  -14.2194 N   0  0  0  0  0  0  0  0  0  0  0  0
   46.2758  -34.7980  -12.6654 C   0  0  0  0  0  0  0  0  0  0  0  0
   46.2146  -36.0371  -12.0241 C   0  0  0  0  0  0  0  0  0  0  0  0
   63.0912  -27.8726   -4.2506 H   0  0  0  0  0  0  0  0  0  0  0  0
   51.9663  -32.2319    1.8612 H   0  0  0  0  0  0  0  0  0  0  0  0
   53.6758  -39.7329    1.1882 H   0  0  0  0  0  0  0  0  0  0  0  0
   54.7985  -30.1272   -8.4015 H   0  0  0  0  0  0  0  0  0  0  0  0
   49.7668  -42.4299   -5.0603 H   0  0  0  0  0  0  0  0  0  0  0  0
   43.2468  -32.8224  -14.0809 H   0  0  0  0  0  0  0  0  0  0  0  0
  2  1  1  6
  3  2  1  0
  2  5  1  0
  3  4  2  0
 12  3  1  0
  5  6  1  0
  6  7  1  0
  7  8  1  0
  8  9  1  0
  9 10  2  0
  9 11  1  0
 13 12  1  0
 14 13  1  0
 13 16  1  1
 14 15  2  0
 23 14  1  0
 16 17  1  0
 17 18  1  0
 18 19  1  0
 19 20  1  0
 20 21  1  0
 20 22  2  0
 24 23  1  0
 25 24  1  0
 24 27  1  1
 25 26  2  0
 34 25  1  0
 27 28  1  0
 28 29  1  0
 29 30  1  0
 30 31  1  0
 31 32  2  0
 31 33  1  0
 35 34  1  0
 36 35  1  0
 35 38  1  6
 36 37  2  0
 46 36  1  0
 38 39  1  0
 39 40  1  0
 40 41  1  0
 41 42  1  0
 42 43  2  0
 42 44  1  0
 45 47  2  0
 48 45  1  0
 45 54  1  0
 48 46  1  0
 48 49  1  6
 52 49  1  0
 50 51  1  0
 50 52  1  0
 51 53  1  0
 54 55  1  0
 55 56  1  0
 55 58  1  1
 56 57  2  0
 56 65  1  0
 58 59  1  0
 59 60  1  0
 60 61  1  0
 61 62  1  0
 62 63  2  0
 62 64  1  0
 65 66  1  0
 66 67  1  0
 67 68  2  0
 67 75  1  0
 68 69  1  0
 69 70  2  0
 70 71  1  0
 70 74  1  0
 71 72  1  0
 71 73  2  0
 74 75  2  0
 10 76  1  0
 22 77  1  0
 32 78  1  0
 43 79  1  0
 63 80  1  0
 73 81  1  0
M  CHG  2   1   1  53   1
M  END
$$$$
