
     RDKit          3D

 81 81  0  0  0  0  0  0  0  0999 V2000
   55.5161  -34.6923   -6.2506 N   0  0  0  0  0  4  0  0  0  0  0  0
   56.2738  -34.9729   -4.9951 C   0  0  2  0  0  0  0  0  0  0  0  0
   55.4119  -35.9530   -4.1667 C   0  0  0  0  0  0  0  0  0  0  0  0
   55.8117  -37.1088   -3.9927 O   0  0  0  0  0  0  0  0  0  0  0  0
   56.5448  -33.6782   -4.2173 C   0  0  0  0  0  0  0  0  0  0  0  0
   57.7405  -32.8300   -4.6725 C   0  0  0  0  0  0  0  0  0  0  0  0
   58.0332  -31.5686   -3.8711 C   0  0  0  0  0  0  0  0  0  0  0  0
   56.8115  -30.8039   -3.6807 N   0  0  0  0  0  0  0  0  0  0  0  0
   55.6724  -31.4151   -3.2676 C   0  0  0  0  0  0  0  0  0  0  0  0
   54.7849  -31.8278   -4.1060 N   0  0  0  0  0  0  0  0  0  0  0  0
   55.6430  -31.7024   -1.9580 N   0  0  0  0  0  0  0  0  0  0  0  0
   54.2328  -35.4896   -3.6469 N   0  0  0  0  0  0  0  0  0  0  0  0
   53.3663  -36.3603   -2.8558 C   0  0  2  0  0  0  0  0  0  0  0  0
   52.0922  -35.5508   -2.5284 C   0  0  0  0  0  0  0  0  0  0  0  0
   51.0955  -36.0683   -2.0234 O   0  0  0  0  0  0  0  0  0  0  0  0
   54.0743  -36.8460   -1.5856 C   0  0  0  0  0  0  0  0  0  0  0  0
   53.2454  -36.6807   -0.3048 C   0  0  0  0  0  0  0  0  0  0  0  0
   53.9606  -37.1433    0.9683 C   0  0  0  0  0  0  0  0  0  0  0  0
   53.1111  -36.9669    2.1270 N   0  0  0  0  0  0  0  0  0  0  0  0
   52.0612  -37.7653    2.4216 C   0  0  0  0  0  0  0  0  0  0  0  0
   50.9261  -37.0526    2.5707 N   0  0  0  0  0  0  0  0  0  0  0  0
   52.0853  -39.0491    2.5506 N   0  0  0  0  0  0  0  0  0  0  0  0
   52.1645  -34.2107   -2.8395 N   0  0  0  0  0  0  0  0  0  0  0  0
   50.9598  -33.4024   -3.0863 C   0  0  2  0  0  0  0  0  0  0  0  0
   50.6676  -33.2451   -4.5975 C   0  0  0  0  0  0  0  0  0  0  0  0
   49.6847  -32.6463   -5.0290 O   0  0  0  0  0  0  0  0  0  0  0  0
   51.1190  -32.0132   -2.4511 C   0  0  0  0  0  0  0  0  0  0  0  0
   52.5410  -31.4467   -2.5239 C   0  0  0  0  0  0  0  0  0  0  0  0
   52.7001  -30.0420   -1.9403 C   0  0  0  0  0  0  0  0  0  0  0  0
   53.6163  -30.0321   -0.8110 N   0  0  0  0  0  0  0  0  0  0  0  0
   53.2753  -30.6061    0.3634 C   0  0  0  0  0  0  0  0  0  0  0  0
   52.1301  -31.1192    0.6328 N   0  0  0  0  0  0  0  0  0  0  0  0
   54.2897  -30.5693    1.2510 N   0  0  0  0  0  0  0  0  0  0  0  0
   51.6277  -33.7944   -5.4312 N   0  0  0  0  0  0  0  0  0  0  0  0
   51.2831  -34.1358   -6.8033 C   0  0  2  0  0  0  0  0  0  0  0  0
   49.9754  -34.9657   -6.8138 C   0  0  0  0  0  0  0  0  0  0  0  0
   49.8535  -36.0205   -6.1961 O   0  0  0  0  0  0  0  0  0  0  0  0
   52.4262  -34.8670   -7.5209 C   0  0  0  0  0  0  0  0  0  0  0  0
   52.2231  -36.3787   -7.6768 C   0  0  0  0  0  0  0  0  0  0  0  0
   53.4202  -37.0573   -8.3502 C   0  0  0  0  0  0  0  0  0  0  0  0
   54.3183  -37.6404   -7.3651 N   0  0  0  0  0  0  0  0  0  0  0  0
   55.3198  -38.4813   -7.7029 C   0  0  0  0  0  0  0  0  0  0  0  0
   55.5065  -38.9848   -8.8665 N   0  0  0  0  0  0  0  0  0  0  0  0
   56.1208  -38.7333   -6.6507 N   0  0  0  0  0  0  0  0  0  0  0  0
   48.2580  -36.4159   -8.8640 C   0  0  0  0  0  0  0  0  0  0  0  0
   48.9826  -34.4493   -7.6356 N   0  0  0  0  0  0  0  0  0  0  0  0
   48.8585  -37.3023   -8.2584 O   0  0  0  0  0  0  0  0  0  0  0  0
   48.8279  -34.9822   -8.9905 C   0  0  1  0  0  0  0  0  0  0  0  0
   50.1678  -34.9208   -9.7505 C   0  0  0  0  0  0  0  0  0  0  0  0
   49.6545  -33.8516  -12.0219 C   0  0  0  0  0  0  0  0  0  0  0  0
   49.8478  -33.9094  -13.5348 C   0  0  0  0  0  0  0  0  0  0  0  0
   50.0545  -35.1271  -11.2674 C   0  0  0  0  0  0  0  0  0  0  0  0
   49.3962  -32.6618  -14.1894 N   0  0  0  0  0  4  0  0  0  0  0  0
   47.0302  -36.6315   -9.4444 N   0  0  0  0  0  0  0  0  0  0  0  0
   46.3256  -37.9319   -9.4515 C   0  0  2  0  0  0  0  0  0  0  0  0
   45.0100  -37.9382  -10.2583 C   0  0  0  0  0  0  0  0  0  0  0  0
   44.3189  -38.9524  -10.3193 O   0  0  0  0  0  0  0  0  0  0  0  0
   46.1195  -38.4703   -8.0273 C   0  0  0  0  0  0  0  0  0  0  0  0
   44.6774  -38.4013   -7.5104 C   0  0  0  0  0  0  0  0  0  0  0  0
   44.4104  -39.2411   -6.2562 C   0  0  0  0  0  0  0  0  0  0  0  0
   45.0098  -40.5770   -6.3802 N   0  0  0  0  0  0  0  0  0  0  0  0
   44.8469  -41.4455   -5.3431 C   0  0  0  0  0  0  0  0  0  0  0  0
   45.7171  -42.3115   -4.9750 N   0  0  0  0  0  0  0  0  0  0  0  0
   43.6650  -41.2724   -4.7226 N   0  0  0  0  0  0  0  0  0  0  0  0
   44.6192  -36.7165  -10.7760 N   0  0  0  0  0  0  0  0  0  0  0  0
   45.2768  -36.1515  -11.9381 C   0  0  0  0  0  0  0  0  0  0  0  0
   45.1307  -36.9943  -13.1780 C   0  0  0  0  0  0  0  0  0  0  0  0
   45.6535  -36.5704  -14.4096 C   0  0  0  0  0  0  0  0  0  0  0  0
   45.5323  -37.3747  -15.5443 C   0  0  0  0  0  0  0  0  0  0  0  0
   44.8969  -38.6183  -15.4595 C   0  0  0  0  0  0  0  0  0  0  0  0
   44.8004  -39.4788  -16.6671 C   0  0  0  0  0  0  0  0  0  0  0  0
   45.3086  -39.0532  -17.8637 N   0  0  0  0  0  0  0  0  0  0  0  0
   44.2344  -40.6444  -16.6614 N   0  0  0  0  0  0  0  0  0  0  0  0
   44.3619  -39.0474  -14.2417 C   0  0  0  0  0  0  0  0  0  0  0  0
   44.4813  -38.2388  -13.1093 C   0  0  0  0  0  0  0  0  0  0  0  0
   54.3762  -30.9998   -4.5605 H   0  0  0  0  0  0  0  0  0  0  0  0
   52.5600  -39.4181    1.7242 H   0  0  0  0  0  0  0  0  0  0  0  0
   51.7047  -31.4708   -0.2233 H   0  0  0  0  0  0  0  0  0  0  0  0
   55.2703  -39.9780   -8.8771 H   0  0  0  0  0  0  0  0  0  0  0  0
   45.4402  -43.2455   -5.2782 H   0  0  0  0  0  0  0  0  0  0  0  0
   43.9368  -40.9107  -15.7177 H   0  0  0  0  0  0  0  0  0  0  0  0
  2  1  1  6
  3  2  1  0
  2  5  1  0
  3  4  2  0
 12  3  1  0
  5  6  1  0
  6  7  1  0
  7  8  1  0
  8  9  1  0
  9 10  2  0
  9 11  1  0
 13 12  1  0
 14 13  1  0
 13 16  1  1
 14 15  2  0
 23 14  1  0
 16 17  1  0
 17 18  1  0
 18 19  1  0
 19 20  1  0
 20 21  1  0
 20 22  2  0
 24 23  1  0
 25 24  1  0
 24 27  1  6
 25 26  2  0
 34 25  1  0
 27 28  1  0
 28 29  1  0
 29 30  1  0
 30 31  1  0
 31 32  2  0
 31 33  1  0
 35 34  1  0
 36 35  1  0
 35 38  1  1
 36 37  2  0
 46 36  1  0
 38 39  1  0
 39 40  1  0
 40 41  1  0
 41 42  1  0
 42 43  2  0
 42 44  1  0
 45 47  2  0
 48 45  1  0
 45 54  1  0
 48 46  1  0
 48 49  1  1
 52 49  1  0
 50 51  1  0
 50 52  1  0
 51 53  1  0
 54 55  1  0
 55 56  1  0
 55 58  1  1
 56 57  2  0
 56 65  1  0
 58 59  1  0
 59 60  1  0
 60 61  1  0
 61 62  1  0
 62 63  2  0
 62 64  1  0
 65 66  1  0
 66 67  1  0
 67 68  2  0
 67 75  1  0
 68 69  1  0
 69 70  2  0
 70 71  1  0
 70 74  1  0
 71 72  1  0
 71 73  2  0
 74 75  2  0
 10 76  1  0
 22 77  1  0
 32 78  1  0
 43 79  1  0
 63 80  1  0
 73 81  1  0
M  CHG  2   1   1  53   1
M  END
$$$$
