
     RDKit          3D

 12 12  0  0  0  0  0  0  0  0999 V2000
   -5.4854  -32.1197  -15.2725 C   0  0  1  0  0  0  0  0  0  0  0  0
   -6.5583  -31.4451  -14.4262 C   0  0  1  0  0  0  0  0  0  0  0  0
   -7.7121  -32.3785  -14.1373 C   0  0  2  0  0  0  0  0  0  0  0  0
   -7.6877  -33.4327  -15.2479 C   0  0  1  0  0  0  0  0  0  0  0  0
   -6.4217  -34.2296  -15.1185 C   0  0  1  0  0  0  0  0  0  0  0  0
   -6.3179  -35.1506  -16.3154 C   0  0  0  0  0  0  0  0  0  0  0  0
   -4.2870  -31.4614  -14.9713 O   0  0  0  0  0  0  0  0  0  0  0  0
   -5.9806  -30.9846  -13.2477 O   0  0  0  0  0  0  0  0  0  0  0  0
   -8.9439  -31.7474  -14.2031 O   0  0  0  0  0  0  0  0  0  0  0  0
   -8.7593  -34.2879  -15.1130 O   0  0  0  0  0  0  0  0  0  0  0  0
   -5.3123  -33.4493  -14.9425 O   0  0  0  0  0  0  0  0  0  0  0  0
   -4.9770  -35.4973  -16.4823 O   0  0  0  0  0  0  0  0  0  0  0  0
  1  2  1  0
  1  7  1  1
 11  1  1  0
  3  2  1  0
  2  8  1  1
  4  3  1  0
  3  9  1  6
  5  4  1  0
  4 10  1  1
  5  6  1  6
  5 11  1  0
 12  6  1  0
M  END
$$$$
