
     RDKit          3D

 12 12  0  0  0  0  0  0  0  0999 V2000
   -6.8220  -32.6938  -16.4270 C   0  0  1  0  0  0  0  0  0  0  0  0
   -7.3726  -31.7227  -15.3894 C   0  0  1  0  0  0  0  0  0  0  0  0
   -6.8759  -32.0485  -13.9991 C   0  0  2  0  0  0  0  0  0  0  0  0
   -6.4958  -33.5318  -14.0258 C   0  0  1  0  0  0  0  0  0  0  0  0
   -5.3408  -33.7092  -14.9686 C   0  0  1  0  0  0  0  0  0  0  0  0
   -5.0814  -35.1924  -15.1254 C   0  0  0  0  0  0  0  0  0  0  0  0
   -6.8125  -31.9959  -17.6407 O   0  0  0  0  0  0  0  0  0  0  0  0
   -7.0236  -30.4266  -15.7541 O   0  0  0  0  0  0  0  0  0  0  0  0
   -7.8540  -31.8971  -13.0293 O   0  0  0  0  0  0  0  0  0  0  0  0
   -6.1039  -33.9432  -12.7707 O   0  0  0  0  0  0  0  0  0  0  0  0
   -5.5188  -33.0653  -16.1620 O   0  0  0  0  0  0  0  0  0  0  0  0
   -6.1565  -35.7511  -15.8169 O   0  0  0  0  0  0  0  0  0  0  0  0
  1  2  1  0
  1  7  1  6
 11  1  1  0
  3  2  1  0
  2  8  1  6
  4  3  1  0
  3  9  1  1
  5  4  1  0
  4 10  1  1
  5  6  1  6
  5 11  1  0
 12  6  1  0
M  END
$$$$
