
     RDKit          3D

 12 12  0  0  0  0  0  0  0  0999 V2000
   -6.0369  -32.9585  -16.0128 C   0  0  1  0  0  0  0  0  0  0  0  0
   -7.1535  -33.4575  -15.1036 C   0  0  1  0  0  0  0  0  0  0  0  0
   -7.5506  -32.4161  -14.0819 C   0  0  2  0  0  0  0  0  0  0  0  0
   -6.3385  -31.4922  -13.9312 C   0  0  1  0  0  0  0  0  0  0  0  0
   -6.1183  -30.7813  -15.2352 C   0  0  1  0  0  0  0  0  0  0  0  0
   -4.8225  -30.0045  -15.1377 C   0  0  0  0  0  0  0  0  0  0  0  0
   -6.1720  -33.6670  -17.2129 O   0  0  0  0  0  0  0  0  0  0  0  0
   -8.2411  -33.8298  -15.8867 O   0  0  0  0  0  0  0  0  0  0  0  0
   -7.8060  -32.9584  -12.8326 O   0  0  0  0  0  0  0  0  0  0  0  0
   -6.5788  -30.5510  -12.9543 O   0  0  0  0  0  0  0  0  0  0  0  0
   -6.1639  -31.6175  -16.3165 O   0  0  0  0  0  0  0  0  0  0  0  0
   -3.7942  -30.9068  -14.8646 O   0  0  0  0  0  0  0  0  0  0  0  0
  1  2  1  0
  1  7  1  6
 11  1  1  0
  3  2  1  0
  2  8  1  6
  4  3  1  0
  3  9  1  1
  5  4  1  0
  4 10  1  1
  5  6  1  1
  5 11  1  0
 12  6  1  0
M  END
$$$$
