
     RDKit          3D

 12 12  0  0  0  0  0  0  0  0999 V2000
   -7.2032  -33.5539  -16.6895 C   0  0  1  0  0  0  0  0  0  0  0  0
   -7.6535  -32.4891  -15.6966 C   0  0  1  0  0  0  0  0  0  0  0  0
   -6.9797  -32.6559  -14.3533 C   0  0  2  0  0  0  0  0  0  0  0  0
   -6.5579  -34.1261  -14.2748 C   0  0  1  0  0  0  0  0  0  0  0  0
   -5.5222  -34.3801  -15.3318 C   0  0  1  0  0  0  0  0  0  0  0  0
   -5.2361  -35.8663  -15.3665 C   0  0  0  0  0  0  0  0  0  0  0  0
   -7.3653  -32.9886  -17.9601 O   0  0  0  0  0  0  0  0  0  0  0  0
   -7.3940  -31.2325  -16.2334 O   0  0  0  0  0  0  0  0  0  0  0  0
   -7.8358  -32.4214  -13.2894 O   0  0  0  0  0  0  0  0  0  0  0  0
   -6.0019  -34.3944  -13.0433 O   0  0  0  0  0  0  0  0  0  0  0  0
   -5.8660  -33.8699  -16.5533 O   0  0  0  0  0  0  0  0  0  0  0  0
   -6.4555  -36.5430  -15.4035 O   0  0  0  0  0  0  0  0  0  0  0  0
  1  2  1  0
  1  7  1  6
 11  1  1  0
  3  2  1  0
  2  8  1  6
  4  3  1  0
  3  9  1  1
  5  4  1  0
  4 10  1  1
  5  6  1  6
  5 11  1  0
 12  6  1  0
M  END
$$$$
