
     RDKit          3D

 12 12  0  0  0  0  0  0  0  0999 V2000
   -7.0693  -32.9092  -16.4427 C   0  0  1  0  0  0  0  0  0  0  0  0
   -7.6264  -31.9861  -15.3656 C   0  0  1  0  0  0  0  0  0  0  0  0
   -7.0369  -32.2916  -14.0072 C   0  0  2  0  0  0  0  0  0  0  0  0
   -6.5630  -33.7464  -14.0726 C   0  0  1  0  0  0  0  0  0  0  0  0
   -5.4503  -33.8388  -15.0765 C   0  0  1  0  0  0  0  0  0  0  0  0
   -5.1036  -35.3002  -15.2655 C   0  0  0  0  0  0  0  0  0  0  0  0
   -7.1693  -32.2008  -17.6463 O   0  0  0  0  0  0  0  0  0  0  0  0
   -7.3822  -30.6665  -15.7313 O   0  0  0  0  0  0  0  0  0  0  0  0
   -7.9702  -32.2138  -12.9861 O   0  0  0  0  0  0  0  0  0  0  0  0
   -6.0795  -34.1429  -12.8451 O   0  0  0  0  0  0  0  0  0  0  0  0
   -5.7325  -33.1968  -16.2507 O   0  0  0  0  0  0  0  0  0  0  0  0
   -6.2363  -35.9571  -15.7468 O   0  0  0  0  0  0  0  0  0  0  0  0
  1  2  1  0
  1  7  1  6
 11  1  1  0
  3  2  1  0
  2  8  1  6
  4  3  1  0
  3  9  1  1
  5  4  1  0
  4 10  1  1
  5  6  1  6
  5 11  1  0
 12  6  1  0
M  END
$$$$
