
     RDKit          3D

 12 12  0  0  0  0  0  0  0  0999 V2000
   -6.8361  -32.3027  -16.0818 C   0  0  1  0  0  0  0  0  0  0  0  0
   -7.3239  -31.6931  -14.7730 C   0  0  1  0  0  0  0  0  0  0  0  0
   -6.8982  -32.5172  -13.5789 C   0  0  2  0  0  0  0  0  0  0  0  0
   -6.6553  -33.9327  -14.1107 C   0  0  1  0  0  0  0  0  0  0  0  0
   -5.4956  -33.8896  -15.0634 C   0  0  1  0  0  0  0  0  0  0  0  0
   -5.3693  -35.2493  -15.7169 C   0  0  0  0  0  0  0  0  0  0  0  0
   -6.7288  -31.2389  -16.9856 O   0  0  0  0  0  0  0  0  0  0  0  0
   -6.8474  -30.3899  -14.6766 O   0  0  0  0  0  0  0  0  0  0  0  0
   -7.8849  -32.6106  -12.6106 O   0  0  0  0  0  0  0  0  0  0  0  0
   -6.3379  -34.7808  -13.0725 O   0  0  0  0  0  0  0  0  0  0  0  0
   -5.5804  -32.8651  -15.9657 O   0  0  0  0  0  0  0  0  0  0  0  0
   -6.5071  -35.4654  -16.4945 O   0  0  0  0  0  0  0  0  0  0  0  0
  1  2  1  0
  1  7  1  6
 11  1  1  0
  3  2  1  0
  2  8  1  1
  4  3  1  0
  3  9  1  1
  5  4  1  0
  4 10  1  1
  5  6  1  6
  5 11  1  0
 12  6  1  0
M  END
$$$$
