
     RDKit          3D

 12 12  0  0  0  0  0  0  0  0999 V2000
   -6.9759  -32.1546  -16.1482 C   0  0  1  0  0  0  0  0  0  0  0  0
   -7.4842  -31.6758  -14.7935 C   0  0  1  0  0  0  0  0  0  0  0  0
   -7.0943  -32.6243  -13.6825 C   0  0  2  0  0  0  0  0  0  0  0  0
   -6.8574  -33.9810  -14.3524 C   0  0  1  0  0  0  0  0  0  0  0  0
   -5.6772  -33.8569  -15.2721 C   0  0  1  0  0  0  0  0  0  0  0  0
   -5.5535  -35.1439  -16.0596 C   0  0  0  0  0  0  0  0  0  0  0  0
   -6.8362  -31.0051  -16.9352 O   0  0  0  0  0  0  0  0  0  0  0  0
   -6.9938  -30.3964  -14.5538 O   0  0  0  0  0  0  0  0  0  0  0  0
   -8.1026  -32.8025  -12.7490 O   0  0  0  0  0  0  0  0  0  0  0  0
   -6.5729  -34.9359  -13.4010 O   0  0  0  0  0  0  0  0  0  0  0  0
   -5.7300  -32.7440  -16.0655 O   0  0  0  0  0  0  0  0  0  0  0  0
   -6.7879  -35.7930  -16.0283 O   0  0  0  0  0  0  0  0  0  0  0  0
  1  2  1  0
  1  7  1  6
 11  1  1  0
  3  2  1  0
  2  8  1  1
  4  3  1  0
  3  9  1  1
  5  4  1  0
  4 10  1  1
  5  6  1  6
  5 11  1  0
 12  6  1  0
M  END
$$$$
