
     RDKit          3D

 12 12  0  0  0  0  0  0  0  0999 V2000
   -6.9549  -32.2793  -16.3158 C   0  0  1  0  0  0  0  0  0  0  0  0
   -7.4784  -31.4426  -15.1545 C   0  0  1  0  0  0  0  0  0  0  0  0
   -7.1814  -32.0892  -13.8205 C   0  0  2  0  0  0  0  0  0  0  0  0
   -7.0024  -33.5827  -14.1082 C   0  0  1  0  0  0  0  0  0  0  0  0
   -5.7874  -33.7575  -14.9727 C   0  0  1  0  0  0  0  0  0  0  0  0
   -5.7135  -35.2088  -15.3971 C   0  0  0  0  0  0  0  0  0  0  0  0
   -6.7224  -31.3805  -17.3638 O   0  0  0  0  0  0  0  0  0  0  0  0
   -6.9223  -30.1699  -15.2282 O   0  0  0  0  0  0  0  0  0  0  0  0
   -8.2285  -31.9713  -12.9207 O   0  0  0  0  0  0  0  0  0  0  0  0
   -6.8056  -34.2716  -12.9315 O   0  0  0  0  0  0  0  0  0  0  0  0
   -5.7489  -32.8864  -16.0265 O   0  0  0  0  0  0  0  0  0  0  0  0
   -6.2224  -35.3096  -16.6921 O   0  0  0  0  0  0  0  0  0  0  0  0
  1  2  1  0
  1  7  1  6
 11  1  1  0
  3  2  1  0
  2  8  1  1
  4  3  1  0
  3  9  1  1
  5  4  1  0
  4 10  1  1
  5  6  1  6
  5 11  1  0
 12  6  1  0
M  END
$$$$
