
     RDKit          3D

 12 12  0  0  0  0  0  0  0  0999 V2000
   -5.4020  -32.3736  -15.6863 C   0  0  1  0  0  0  0  0  0  0  0  0
   -6.2709  -31.4060  -14.8918 C   0  0  1  0  0  0  0  0  0  0  0  0
   -7.4095  -32.1178  -14.1969 C   0  0  2  0  0  0  0  0  0  0  0  0
   -7.6393  -33.4110  -14.9844 C   0  0  1  0  0  0  0  0  0  0  0  0
   -6.4187  -34.2744  -14.8464 C   0  0  1  0  0  0  0  0  0  0  0  0
   -6.5776  -35.4686  -15.7631 C   0  0  0  0  0  0  0  0  0  0  0  0
   -4.1332  -31.7854  -15.7538 O   0  0  0  0  0  0  0  0  0  0  0  0
   -5.4718  -30.7288  -13.9766 O   0  0  0  0  0  0  0  0  0  0  0  0
   -8.5952  -31.4019  -14.2363 O   0  0  0  0  0  0  0  0  0  0  0  0
   -8.7193  -34.0939  -14.4694 O   0  0  0  0  0  0  0  0  0  0  0  0
   -5.2520  -33.5906  -15.0514 O   0  0  0  0  0  0  0  0  0  0  0  0
   -6.1869  -35.0865  -17.0467 O   0  0  0  0  0  0  0  0  0  0  0  0
  1  2  1  0
  1  7  1  1
 11  1  1  0
  3  2  1  0
  2  8  1  1
  4  3  1  0
  3  9  1  6
  5  4  1  0
  4 10  1  1
  5  6  1  6
  5 11  1  0
 12  6  1  0
M  END
$$$$
