
     RDKit          3D

 12 12  0  0  0  0  0  0  0  0999 V2000
   -7.0478  -32.5190  -16.4306 C   0  0  1  0  0  0  0  0  0  0  0  0
   -7.5212  -31.7063  -15.2314 C   0  0  1  0  0  0  0  0  0  0  0  0
   -7.0544  -32.3106  -13.9265 C   0  0  2  0  0  0  0  0  0  0  0  0
   -6.7933  -33.7911  -14.2189 C   0  0  1  0  0  0  0  0  0  0  0  0
   -5.6545  -33.8893  -15.1925 C   0  0  1  0  0  0  0  0  0  0  0  0
   -5.5137  -35.3372  -15.6114 C   0  0  0  0  0  0  0  0  0  0  0  0
   -6.9808  -31.6205  -17.5024 O   0  0  0  0  0  0  0  0  0  0  0  0
   -7.0696  -30.3976  -15.3662 O   0  0  0  0  0  0  0  0  0  0  0  0
   -8.0190  -32.2565  -12.9332 O   0  0  0  0  0  0  0  0  0  0  0  0
   -6.4375  -34.4472  -13.0610 O   0  0  0  0  0  0  0  0  0  0  0  0
   -5.7787  -33.0327  -16.2515 O   0  0  0  0  0  0  0  0  0  0  0  0
   -6.7090  -35.7346  -16.2110 O   0  0  0  0  0  0  0  0  0  0  0  0
  1  2  1  0
  1  7  1  6
 11  1  1  0
  3  2  1  0
  2  8  1  6
  4  3  1  0
  3  9  1  1
  5  4  1  0
  4 10  1  1
  5  6  1  6
  5 11  1  0
 12  6  1  0
M  END
$$$$
