
     RDKit          3D

 12 12  0  0  0  0  0  0  0  0999 V2000
   -7.0934  -33.0856  -16.0956 C   0  0  1  0  0  0  0  0  0  0  0  0
   -7.8163  -32.1677  -15.1170 C   0  0  1  0  0  0  0  0  0  0  0  0
   -6.9411  -31.8061  -13.9384 C   0  0  2  0  0  0  0  0  0  0  0  0
   -5.8945  -32.9194  -13.8352 C   0  0  1  0  0  0  0  0  0  0  0  0
   -5.0332  -32.8769  -15.0642 C   0  0  1  0  0  0  0  0  0  0  0  0
   -4.1162  -34.0812  -15.0413 C   0  0  0  0  0  0  0  0  0  0  0  0
   -7.6877  -32.8624  -17.3435 O   0  0  0  0  0  0  0  0  0  0  0  0
   -8.2387  -31.0286  -15.7943 O   0  0  0  0  0  0  0  0  0  0  0  0
   -7.6347  -31.7880  -12.7390 O   0  0  0  0  0  0  0  0  0  0  0  0
   -5.0943  -32.7166  -12.7323 O   0  0  0  0  0  0  0  0  0  0  0  0
   -5.7546  -32.7722  -16.2215 O   0  0  0  0  0  0  0  0  0  0  0  0
   -4.8675  -35.2063  -15.3815 O   0  0  0  0  0  0  0  0  0  0  0  0
  1  2  1  0
  1  7  1  6
 11  1  1  0
  3  2  1  0
  2  8  1  6
  4  3  1  0
  3  9  1  1
  5  4  1  0
  4 10  1  1
  5  6  1  6
  5 11  1  0
 12  6  1  0
M  END
$$$$
