
     RDKit          3D

 12 12  0  0  0  0  0  0  0  0999 V2000
   -7.0947  -32.7357  -16.8530 C   0  0  1  0  0  0  0  0  0  0  0  0
   -7.5646  -31.8430  -15.7108 C   0  0  1  0  0  0  0  0  0  0  0  0
   -7.0498  -32.3271  -14.3741 C   0  0  2  0  0  0  0  0  0  0  0  0
   -6.7510  -33.8183  -14.5543 C   0  0  1  0  0  0  0  0  0  0  0  0
   -5.6325  -33.9622  -15.5455 C   0  0  1  0  0  0  0  0  0  0  0  0
   -5.4577  -35.4345  -15.8513 C   0  0  0  0  0  0  0  0  0  0  0  0
   -7.0797  -31.9248  -17.9943 O   0  0  0  0  0  0  0  0  0  0  0  0
   -7.1560  -30.5372  -15.9608 O   0  0  0  0  0  0  0  0  0  0  0  0
   -7.9924  -32.2206  -13.3641 O   0  0  0  0  0  0  0  0  0  0  0  0
   -6.3489  -34.3689  -13.3572 O   0  0  0  0  0  0  0  0  0  0  0  0
   -5.8069  -33.1973  -16.6659 O   0  0  0  0  0  0  0  0  0  0  0  0
   -6.7045  -35.9586  -16.1933 O   0  0  0  0  0  0  0  0  0  0  0  0
  1  2  1  0
  1  7  1  6
 11  1  1  0
  3  2  1  0
  2  8  1  6
  4  3  1  0
  3  9  1  1
  5  4  1  0
  4 10  1  1
  5  6  1  6
  5 11  1  0
 12  6  1  0
M  END
$$$$
