
     RDKit          3D

 12 12  0  0  0  0  0  0  0  0999 V2000
   -6.8280  -34.6009  -15.8199 C   0  0  1  0  0  0  0  0  0  0  0  0
   -7.5493  -33.9483  -14.6466 C   0  0  1  0  0  0  0  0  0  0  0  0
   -7.1397  -32.5034  -14.4718 C   0  0  2  0  0  0  0  0  0  0  0  0
   -5.7601  -32.3761  -15.1242 C   0  0  1  0  0  0  0  0  0  0  0  0
   -5.9063  -32.6266  -16.5973 C   0  0  1  0  0  0  0  0  0  0  0  0
   -4.5225  -32.6721  -17.2093 C   0  0  0  0  0  0  0  0  0  0  0  0
   -7.6659  -35.6321  -16.2615 O   0  0  0  0  0  0  0  0  0  0  0  0
   -8.9219  -34.0588  -14.8424 O   0  0  0  0  0  0  0  0  0  0  0  0
   -6.9952  -32.1425  -13.1418 O   0  0  0  0  0  0  0  0  0  0  0  0
   -5.2661  -31.1028  -14.9434 O   0  0  0  0  0  0  0  0  0  0  0  0
   -6.6565  -33.7345  -16.8812 O   0  0  0  0  0  0  0  0  0  0  0  0
   -3.8417  -33.7612  -16.6648 O   0  0  0  0  0  0  0  0  0  0  0  0
  1  2  1  0
  1  7  1  6
 11  1  1  0
  3  2  1  0
  2  8  1  6
  4  3  1  0
  3  9  1  1
  5  4  1  0
  4 10  1  6
  5  6  1  1
  5 11  1  0
 12  6  1  0
M  END
$$$$
