
     RDKit          3D

 12 12  0  0  0  0  0  0  0  0999 V2000
   -6.9162  -32.1781  -16.4641 C   0  0  1  0  0  0  0  0  0  0  0  0
   -7.4037  -31.3326  -15.2936 C   0  0  1  0  0  0  0  0  0  0  0  0
   -7.2643  -32.0648  -13.9782 C   0  0  2  0  0  0  0  0  0  0  0  0
   -7.2475  -33.5558  -14.3272 C   0  0  1  0  0  0  0  0  0  0  0  0
   -6.0134  -33.8411  -15.1333 C   0  0  1  0  0  0  0  0  0  0  0  0
   -6.0877  -35.2719  -15.6222 C   0  0  0  0  0  0  0  0  0  0  0  0
   -6.5176  -31.2718  -17.4541 O   0  0  0  0  0  0  0  0  0  0  0  0
   -6.6969  -30.1348  -15.2766 O   0  0  0  0  0  0  0  0  0  0  0  0
   -8.3408  -31.8578  -13.1307 O   0  0  0  0  0  0  0  0  0  0  0  0
   -7.2032  -34.3114  -13.1761 O   0  0  0  0  0  0  0  0  0  0  0  0
   -5.8100  -32.9385  -16.1405 O   0  0  0  0  0  0  0  0  0  0  0  0
   -5.7703  -35.2843  -16.9806 O   0  0  0  0  0  0  0  0  0  0  0  0
  1  2  1  0
  1  7  1  6
 11  1  1  0
  3  2  1  0
  2  8  1  1
  4  3  1  0
  3  9  1  1
  5  4  1  0
  4 10  1  1
  5  6  1  6
  5 11  1  0
 12  6  1  0
M  END
$$$$
