
     RDKit          3D

 12 12  0  0  0  0  0  0  0  0999 V2000
   -6.9637  -32.1822  -16.3602 C   0  0  1  0  0  0  0  0  0  0  0  0
   -7.5171  -31.4356  -15.1523 C   0  0  1  0  0  0  0  0  0  0  0  0
   -7.1141  -32.0962  -13.8534 C   0  0  2  0  0  0  0  0  0  0  0  0
   -6.8122  -33.5568  -14.2011 C   0  0  1  0  0  0  0  0  0  0  0  0
   -5.6191  -33.5914  -15.1120 C   0  0  1  0  0  0  0  0  0  0  0  0
   -5.4307  -35.0150  -15.5911 C   0  0  0  0  0  0  0  0  0  0  0  0
   -6.8519  -31.2317  -17.3822 O   0  0  0  0  0  0  0  0  0  0  0  0
   -7.0808  -30.1158  -15.1985 O   0  0  0  0  0  0  0  0  0  0  0  0
   -8.1336  -32.1042  -12.9151 O   0  0  0  0  0  0  0  0  0  0  0  0
   -6.5108  -34.2635  -13.0575 O   0  0  0  0  0  0  0  0  0  0  0  0
   -5.6981  -32.6861  -16.1341 O   0  0  0  0  0  0  0  0  0  0  0  0
   -6.5874  -35.4028  -16.2677 O   0  0  0  0  0  0  0  0  0  0  0  0
  1  2  1  0
  1  7  1  6
 11  1  1  0
  3  2  1  0
  2  8  1  1
  4  3  1  0
  3  9  1  1
  5  4  1  0
  4 10  1  1
  5  6  1  6
  5 11  1  0
 12  6  1  0
M  END
$$$$
