
     RDKit          3D

 12 12  0  0  0  0  0  0  0  0999 V2000
   -7.4079  -32.6530  -16.2634 C   0  0  1  0  0  0  0  0  0  0  0  0
   -7.6243  -31.6827  -15.1083 C   0  0  1  0  0  0  0  0  0  0  0  0
   -7.0107  -32.1947  -13.8249 C   0  0  2  0  0  0  0  0  0  0  0  0
   -6.9160  -33.7151  -13.9820 C   0  0  1  0  0  0  0  0  0  0  0  0
   -5.9528  -34.0187  -15.0931 C   0  0  1  0  0  0  0  0  0  0  0  0
   -5.9934  -35.5081  -15.3608 C   0  0  0  0  0  0  0  0  0  0  0  0
   -7.4365  -31.8772  -17.4285 O   0  0  0  0  0  0  0  0  0  0  0  0
   -7.0969  -30.4432  -15.4550 O   0  0  0  0  0  0  0  0  0  0  0  0
   -7.8027  -31.9495  -12.7147 O   0  0  0  0  0  0  0  0  0  0  0  0
   -6.4384  -34.2827  -12.8211 O   0  0  0  0  0  0  0  0  0  0  0  0
   -6.1710  -33.2648  -16.2132 O   0  0  0  0  0  0  0  0  0  0  0  0
   -5.6525  -35.7192  -16.6970 O   0  0  0  0  0  0  0  0  0  0  0  0
  1  2  1  0
  1  7  1  6
 11  1  1  0
  3  2  1  0
  2  8  1  6
  4  3  1  0
  3  9  1  1
  5  4  1  0
  4 10  1  1
  5  6  1  6
  5 11  1  0
 12  6  1  0
M  END
$$$$
