
     RDKit          3D

 20 22  0  0  0  0  0  0  0  0999 V2000
   64.8314   34.9014   22.8850 C   0  0  0  0  0  0  0  0  0  0  0  0
   64.7359   33.9930   24.0045 C   0  0  0  0  0  0  0  0  0  0  0  0
   65.4028   36.5003   21.5555 N   0  0  0  0  0  0  0  0  0  0  0  0
   65.8852   33.5196   24.6169 C   0  0  0  0  0  0  0  0  0  0  0  0
   63.5279   33.5727   24.5058 C   0  0  0  0  0  0  0  0  0  0  0  0
   64.4075   35.8424   20.9412 C   0  0  0  0  0  0  0  0  0  0  0  0
   68.0427   36.3006   23.3066 C   0  0  0  0  0  0  0  0  0  0  0  0
   66.3604   37.1379   24.7252 C   0  0  0  0  0  0  0  0  0  0  0  0
   65.8379   32.6530   25.6968 C   0  0  0  0  0  0  0  0  0  0  0  0
   63.4790   32.7037   25.5884 C   0  0  0  0  0  0  0  0  0  0  0  0
   69.0064   36.8184   24.1377 C   0  0  0  0  0  0  0  0  0  0  0  0
   67.3386   37.6629   25.5681 C   0  0  0  0  0  0  0  0  0  0  0  0
   64.6182   32.2312   26.1994 C   0  0  0  0  0  0  0  0  0  0  0  0
   65.6733   35.9346   22.7480 N   0  0  0  0  0  0  0  0  0  0  0  0
   64.0151   34.8134   21.7593 C   0  0  0  0  0  0  0  0  0  0  0  0
   66.6837   36.4499   23.5842 C   0  0  0  0  0  0  0  0  0  0  0  0
   68.6666   37.5026   25.2734 C   0  0  0  0  0  0  0  0  0  0  0  0
   64.7106   37.4160   25.2061 Cl  0  0  0  0  0  0  0  0  0  0  0  0
   62.3083   33.9743   23.9833 O   0  0  0  0  0  0  0  0  0  0  0  0
   64.5500   31.3616   27.2824 O   0  0  0  0  0  0  0  0  0  0  0  0
  1  2  1  0
 14  1  1  0
  1 15  2  0
  2  4  2  0
  2  5  1  0
  3  6  2  0
 14  3  1  0
  4  9  1  0
  5 10  2  0
  5 19  1  0
  6 15  1  0
  7 11  2  0
 16  7  1  0
  8 12  1  0
 16  8  2  0
  8 18  1  0
  9 13  2  0
 10 13  1  0
 11 17  1  0
 12 17  2  0
 13 20  1  0
 14 16  1  0
M  END
$$$$
