
     RDKit          3D

 20 22  0  0  0  0  0  0  0  0999 V2000
   64.8554   34.9328   22.9687 C   0  0  0  0  0  0  0  0  0  0  0  0
   64.7391   34.0679   24.1201 C   0  0  0  0  0  0  0  0  0  0  0  0
   65.4610   36.4712   21.5841 N   0  0  0  0  0  0  0  0  0  0  0  0
   65.8772   33.5980   24.7556 C   0  0  0  0  0  0  0  0  0  0  0  0
   63.5218   33.6867   24.6301 C   0  0  0  0  0  0  0  0  0  0  0  0
   64.4558   35.8096   20.9900 C   0  0  0  0  0  0  0  0  0  0  0  0
   68.0903   36.3107   23.3377 C   0  0  0  0  0  0  0  0  0  0  0  0
   66.4187   37.1834   24.7474 C   0  0  0  0  0  0  0  0  0  0  0  0
   65.8101   32.7726   25.8662 C   0  0  0  0  0  0  0  0  0  0  0  0
   63.4529   32.8591   25.7435 C   0  0  0  0  0  0  0  0  0  0  0  0
   69.0604   36.8403   24.1539 C   0  0  0  0  0  0  0  0  0  0  0  0
   67.4033   37.7204   25.5752 C   0  0  0  0  0  0  0  0  0  0  0  0
   64.5810   32.3901   26.3775 C   0  0  0  0  0  0  0  0  0  0  0  0
   65.7167   35.9447   22.7976 N   0  0  0  0  0  0  0  0  0  0  0  0
   64.0416   34.8186   21.8434 C   0  0  0  0  0  0  0  0  0  0  0  0
   66.7334   36.4717   23.6187 C   0  0  0  0  0  0  0  0  0  0  0  0
   68.7291   37.5483   25.2774 C   0  0  0  0  0  0  0  0  0  0  0  0
   64.7725   37.4786   25.2305 Cl  0  0  0  0  0  0  0  0  0  0  0  0
   62.3117   34.0895   24.0867 O   0  0  0  0  0  0  0  0  0  0  0  0
   64.4929   31.5622   27.4912 O   0  0  0  0  0  0  0  0  0  0  0  0
  1  2  1  0
 14  1  1  0
  1 15  2  0
  2  4  2  0
  2  5  1  0
  3  6  2  0
 14  3  1  0
  4  9  1  0
  5 10  2  0
  5 19  1  0
  6 15  1  0
  7 11  2  0
 16  7  1  0
  8 12  1  0
 16  8  2  0
  8 18  1  0
  9 13  2  0
 10 13  1  0
 11 17  1  0
 12 17  2  0
 13 20  1  0
 14 16  1  0
M  END
$$$$
