
     RDKit          3D

 20 22  0  0  0  0  0  0  0  0999 V2000
   65.7060   34.5396   22.7214 C   0  0  0  0  0  0  0  0  0  0  0  0
   65.2239   34.0217   23.9811 C   0  0  0  0  0  0  0  0  0  0  0  0
   66.3687   35.8351   21.1299 N   0  0  0  0  0  0  0  0  0  0  0  0
   66.1208   33.6339   24.9635 C   0  0  0  0  0  0  0  0  0  0  0  0
   63.8839   33.9000   24.2584 C   0  0  0  0  0  0  0  0  0  0  0  0
   66.4148   34.5872   20.6384 C   0  0  0  0  0  0  0  0  0  0  0  0
   66.7040   37.3979   24.1332 C   0  0  0  0  0  0  0  0  0  0  0  0
   64.7568   37.8700   22.8967 C   0  0  0  0  0  0  0  0  0  0  0  0
   65.7007   33.1387   26.1872 C   0  0  0  0  0  0  0  0  0  0  0  0
   63.4612   33.4036   25.4849 C   0  0  0  0  0  0  0  0  0  0  0  0
   66.5504   38.5719   24.8302 C   0  0  0  0  0  0  0  0  0  0  0  0
   64.6014   39.0609   23.6042 C   0  0  0  0  0  0  0  0  0  0  0  0
   64.3489   33.0172   26.4632 C   0  0  0  0  0  0  0  0  0  0  0  0
   65.9360   35.8212   22.4057 N   0  0  0  0  0  0  0  0  0  0  0  0
   65.9987   33.7302   21.6256 C   0  0  0  0  0  0  0  0  0  0  0  0
   65.8013   37.0161   23.1403 C   0  0  0  0  0  0  0  0  0  0  0  0
   65.5016   39.4132   24.5747 C   0  0  0  0  0  0  0  0  0  0  0  0
   63.5511   37.5406   21.6848 Cl  0  0  0  0  0  0  0  0  0  0  0  0
   62.8882   34.2540   23.3613 O   0  0  0  0  0  0  0  0  0  0  0  0
   63.9074   32.5223   27.6855 O   0  0  0  0  0  0  0  0  0  0  0  0
  1  2  1  0
 14  1  1  0
  1 15  2  0
  2  4  2  0
  2  5  1  0
  3  6  2  0
 14  3  1  0
  4  9  1  0
  5 10  2  0
  5 19  1  0
  6 15  1  0
  7 11  2  0
 16  7  1  0
  8 12  1  0
 16  8  2  0
  8 18  1  0
  9 13  2  0
 10 13  1  0
 11 17  1  0
 12 17  2  0
 13 20  1  0
 14 16  1  0
M  END
$$$$
