
     RDKit          3D

 20 22  0  0  0  0  0  0  0  0999 V2000
   64.7130   35.0474   22.7713 C   0  0  0  0  0  0  0  0  0  0  0  0
   64.5662   34.1652   23.9060 C   0  0  0  0  0  0  0  0  0  0  0  0
   65.3631   36.5990   21.4219 N   0  0  0  0  0  0  0  0  0  0  0  0
   65.6872   33.6530   24.5393 C   0  0  0  0  0  0  0  0  0  0  0  0
   63.3359   33.8082   24.4020 C   0  0  0  0  0  0  0  0  0  0  0  0
   64.3565   35.9636   20.8022 C   0  0  0  0  0  0  0  0  0  0  0  0
   67.9636   36.3878   23.1980 C   0  0  0  0  0  0  0  0  0  0  0  0
   66.2851   37.2217   24.6229 C   0  0  0  0  0  0  0  0  0  0  0  0
   65.5909   32.8097   25.6342 C   0  0  0  0  0  0  0  0  0  0  0  0
   63.2378   32.9627   25.4997 C   0  0  0  0  0  0  0  0  0  0  0  0
   68.9296   36.8876   24.0374 C   0  0  0  0  0  0  0  0  0  0  0  0
   67.2656   37.7284   25.4743 C   0  0  0  0  0  0  0  0  0  0  0  0
   64.3488   32.4517   26.1314 C   0  0  0  0  0  0  0  0  0  0  0  0
   65.5926   36.0481   22.6299 N   0  0  0  0  0  0  0  0  0  0  0  0
   63.9142   34.9650   21.6326 C   0  0  0  0  0  0  0  0  0  0  0  0
   66.6052   36.5449   23.4744 C   0  0  0  0  0  0  0  0  0  0  0  0
   68.5929   37.5608   25.1805 C   0  0  0  0  0  0  0  0  0  0  0  0
   64.6365   37.5076   25.1037 Cl  0  0  0  0  0  0  0  0  0  0  0  0
   62.1406   34.2535   23.8593 O   0  0  0  0  0  0  0  0  0  0  0  0
   64.2314   31.6064   27.2293 O   0  0  0  0  0  0  0  0  0  0  0  0
  1  2  1  0
 14  1  1  0
  1 15  2  0
  2  4  2  0
  2  5  1  0
  3  6  2  0
 14  3  1  0
  4  9  1  0
  5 10  2  0
  5 19  1  0
  6 15  1  0
  7 11  2  0
 16  7  1  0
  8 12  1  0
 16  8  2  0
  8 18  1  0
  9 13  2  0
 10 13  1  0
 11 17  1  0
 12 17  2  0
 13 20  1  0
 14 16  1  0
M  END
$$$$
