
     RDKit          3D

 20 22  0  0  0  0  0  0  0  0999 V2000
   64.5133   35.0144   23.0012 C   0  0  0  0  0  0  0  0  0  0  0  0
   64.4328   34.0949   24.1128 C   0  0  0  0  0  0  0  0  0  0  0  0
   64.9599   36.7015   21.7345 N   0  0  0  0  0  0  0  0  0  0  0  0
   65.5887   33.5629   24.6614 C   0  0  0  0  0  0  0  0  0  0  0  0
   63.2335   33.7205   24.6684 C   0  0  0  0  0  0  0  0  0  0  0  0
   64.1952   35.8773   21.0018 C   0  0  0  0  0  0  0  0  0  0  0  0
   65.3736   37.6000   24.9659 C   0  0  0  0  0  0  0  0  0  0  0  0
   67.3073   36.8398   23.8585 C   0  0  0  0  0  0  0  0  0  0  0  0
   65.5562   32.6837   25.7315 C   0  0  0  0  0  0  0  0  0  0  0  0
   63.1994   32.8389   25.7413 C   0  0  0  0  0  0  0  0  0  0  0  0
   66.1544   38.2542   25.8879 C   0  0  0  0  0  0  0  0  0  0  0  0
   68.0989   37.5037   24.7942 C   0  0  0  0  0  0  0  0  0  0  0  0
   64.3452   32.3083   26.2890 C   0  0  0  0  0  0  0  0  0  0  0  0
   65.1631   36.1854   22.9623 N   0  0  0  0  0  0  0  0  0  0  0  0
   63.8889   34.7872   21.7764 C   0  0  0  0  0  0  0  0  0  0  0  0
   65.9380   36.8705   23.9193 C   0  0  0  0  0  0  0  0  0  0  0  0
   67.5204   38.2136   25.8128 C   0  0  0  0  0  0  0  0  0  0  0  0
   68.1627   35.9671   22.6186 Cl  0  0  0  0  0  0  0  0  0  0  0  0
   62.0087   34.1825   24.2122 O   0  0  0  0  0  0  0  0  0  0  0  0
   64.2919   31.4269   27.3633 O   0  0  0  0  0  0  0  0  0  0  0  0
  1  2  1  0
 14  1  1  0
  1 15  2  0
  2  4  2  0
  2  5  1  0
  3  6  2  0
 14  3  1  0
  4  9  1  0
  5 10  2  0
  5 19  1  0
  6 15  1  0
  7 11  2  0
 16  7  1  0
  8 12  1  0
 16  8  2  0
  8 18  1  0
  9 13  2  0
 10 13  1  0
 11 17  1  0
 12 17  2  0
 13 20  1  0
 14 16  1  0
M  END
$$$$
