
     RDKit          3D

 20 22  0  0  0  0  0  0  0  0999 V2000
   64.7642   35.2164   23.1022 C   0  0  0  0  0  0  0  0  0  0  0  0
   64.6119   34.3467   24.2459 C   0  0  0  0  0  0  0  0  0  0  0  0
   65.4429   36.7309   21.7252 N   0  0  0  0  0  0  0  0  0  0  0  0
   65.7299   33.8471   24.8944 C   0  0  0  0  0  0  0  0  0  0  0  0
   63.3791   33.9897   24.7358 C   0  0  0  0  0  0  0  0  0  0  0  0
   64.3902   36.1393   21.1396 C   0  0  0  0  0  0  0  0  0  0  0  0
   68.0786   36.3235   23.4783 C   0  0  0  0  0  0  0  0  0  0  0  0
   66.4939   37.4112   24.8381 C   0  0  0  0  0  0  0  0  0  0  0  0
   65.6282   33.0162   25.9982 C   0  0  0  0  0  0  0  0  0  0  0  0
   63.2756   33.1566   25.8423 C   0  0  0  0  0  0  0  0  0  0  0  0
   69.0917   36.7844   24.2838 C   0  0  0  0  0  0  0  0  0  0  0  0
   67.5221   37.8785   25.6551 C   0  0  0  0  0  0  0  0  0  0  0  0
   64.3837   32.6582   26.4891 C   0  0  0  0  0  0  0  0  0  0  0  0
   65.6835   36.1754   22.9288 N   0  0  0  0  0  0  0  0  0  0  0  0
   63.9284   35.1656   21.9885 C   0  0  0  0  0  0  0  0  0  0  0  0
   66.7428   36.6293   23.7397 C   0  0  0  0  0  0  0  0  0  0  0  0
   68.8260   37.5639   25.3770 C   0  0  0  0  0  0  0  0  0  0  0  0
   64.8825   37.8869   25.2937 Cl  0  0  0  0  0  0  0  0  0  0  0  0
   62.1864   34.4232   24.1779 O   0  0  0  0  0  0  0  0  0  0  0  0
   64.2609   31.8251   27.5958 O   0  0  0  0  0  0  0  0  0  0  0  0
  1  2  1  0
 14  1  1  0
  1 15  2  0
  2  4  2  0
  2  5  1  0
  3  6  2  0
 14  3  1  0
  4  9  1  0
  5 10  2  0
  5 19  1  0
  6 15  1  0
  7 11  2  0
 16  7  1  0
  8 12  1  0
 16  8  2  0
  8 18  1  0
  9 13  2  0
 10 13  1  0
 11 17  1  0
 12 17  2  0
 13 20  1  0
 14 16  1  0
M  END
$$$$
