
     RDKit          3D

 20 22  0  0  0  0  0  0  0  0999 V2000
   64.7219   34.8799   23.2415 C   0  0  0  0  0  0  0  0  0  0  0  0
   64.3792   34.0645   24.3840 C   0  0  0  0  0  0  0  0  0  0  0  0
   65.7813   36.0548   21.7760 N   0  0  0  0  0  0  0  0  0  0  0  0
   65.3467   33.7354   25.3197 C   0  0  0  0  0  0  0  0  0  0  0  0
   63.1052   33.5952   24.5934 C   0  0  0  0  0  0  0  0  0  0  0  0
   64.4940   36.0580   21.3966 C   0  0  0  0  0  0  0  0  0  0  0  0
   67.8956   33.9753   23.5103 C   0  0  0  0  0  0  0  0  0  0  0  0
   67.8183   36.2509   24.1091 C   0  0  0  0  0  0  0  0  0  0  0  0
   65.0589   32.9620   26.4325 C   0  0  0  0  0  0  0  0  0  0  0  0
   62.8151   32.8196   25.7086 C   0  0  0  0  0  0  0  0  0  0  0  0
   69.1327   33.8591   24.0965 C   0  0  0  0  0  0  0  0  0  0  0  0
   69.0734   36.1325   24.7039 C   0  0  0  0  0  0  0  0  0  0  0  0
   63.7733   32.4904   26.6402 C   0  0  0  0  0  0  0  0  0  0  0  0
   65.9357   35.3366   22.9053 N   0  0  0  0  0  0  0  0  0  0  0  0
   63.7846   35.3176   22.3080 C   0  0  0  0  0  0  0  0  0  0  0  0
   67.2029   35.1862   23.5031 C   0  0  0  0  0  0  0  0  0  0  0  0
   69.7331   34.9321   24.6976 C   0  0  0  0  0  0  0  0  0  0  0  0
   67.0885   37.8300   24.1772 Cl  0  0  0  0  0  0  0  0  0  0  0  0
   62.0498   33.8552   23.7330 O   0  0  0  0  0  0  0  0  0  0  0  0
   63.4646   31.7126   27.7509 O   0  0  0  0  0  0  0  0  0  0  0  0
  1  2  1  0
 14  1  1  0
  1 15  2  0
  2  4  2  0
  2  5  1  0
  3  6  2  0
 14  3  1  0
  4  9  1  0
  5 10  2  0
  5 19  1  0
  6 15  1  0
  7 11  2  0
 16  7  1  0
  8 12  1  0
 16  8  2  0
  8 18  1  0
  9 13  2  0
 10 13  1  0
 11 17  1  0
 12 17  2  0
 13 20  1  0
 14 16  1  0
M  END
$$$$
