
     RDKit          3D

 20 22  0  0  0  0  0  0  0  0999 V2000
   64.5350   35.3687   23.0707 C   0  0  0  0  0  0  0  0  0  0  0  0
   64.4381   34.4497   24.1814 C   0  0  0  0  0  0  0  0  0  0  0  0
   64.9910   37.0601   21.8131 N   0  0  0  0  0  0  0  0  0  0  0  0
   65.5863   33.9314   24.7584 C   0  0  0  0  0  0  0  0  0  0  0  0
   63.2300   34.0628   24.7088 C   0  0  0  0  0  0  0  0  0  0  0  0
   64.2578   36.2239   21.0619 C   0  0  0  0  0  0  0  0  0  0  0  0
   65.3065   37.9452   25.0695 C   0  0  0  0  0  0  0  0  0  0  0  0
   67.2785   37.2592   23.9815 C   0  0  0  0  0  0  0  0  0  0  0  0
   65.5379   33.0532   25.8288 C   0  0  0  0  0  0  0  0  0  0  0  0
   63.1800   33.1823   25.7819 C   0  0  0  0  0  0  0  0  0  0  0  0
   66.0531   38.6124   26.0102 C   0  0  0  0  0  0  0  0  0  0  0  0
   68.0356   37.9363   24.9362 C   0  0  0  0  0  0  0  0  0  0  0  0
   64.3182   32.6651   26.3577 C   0  0  0  0  0  0  0  0  0  0  0  0
   65.1688   36.5488   23.0468 N   0  0  0  0  0  0  0  0  0  0  0  0
   63.9467   35.1308   21.8302 C   0  0  0  0  0  0  0  0  0  0  0  0
   65.9082   37.2462   24.0228 C   0  0  0  0  0  0  0  0  0  0  0  0
   67.4207   38.6155   25.9544 C   0  0  0  0  0  0  0  0  0  0  0  0
   68.1784   36.4286   22.7442 Cl  0  0  0  0  0  0  0  0  0  0  0  0
   62.0114   34.5106   24.2227 O   0  0  0  0  0  0  0  0  0  0  0  0
   64.2488   31.7846   27.4318 O   0  0  0  0  0  0  0  0  0  0  0  0
  1  2  1  0
 14  1  1  0
  1 15  2  0
  2  4  2  0
  2  5  1  0
  3  6  2  0
 14  3  1  0
  4  9  1  0
  5 10  2  0
  5 19  1  0
  6 15  1  0
  7 11  2  0
 16  7  1  0
  8 12  1  0
 16  8  2  0
  8 18  1  0
  9 13  2  0
 10 13  1  0
 11 17  1  0
 12 17  2  0
 13 20  1  0
 14 16  1  0
M  END
$$$$
