
     RDKit          3D

 20 22  0  0  0  0  0  0  0  0999 V2000
   64.7721   35.2591   22.9928 C   0  0  0  0  0  0  0  0  0  0  0  0
   64.6624   34.3507   24.1109 C   0  0  0  0  0  0  0  0  0  0  0  0
   65.2380   36.9410   21.7261 N   0  0  0  0  0  0  0  0  0  0  0  0
   65.8040   33.8442   24.7111 C   0  0  0  0  0  0  0  0  0  0  0  0
   63.4481   33.9625   24.6230 C   0  0  0  0  0  0  0  0  0  0  0  0
   64.5238   36.0921   20.9709 C   0  0  0  0  0  0  0  0  0  0  0  0
   65.4905   37.9027   24.9482 C   0  0  0  0  0  0  0  0  0  0  0  0
   67.4862   37.1364   23.9618 C   0  0  0  0  0  0  0  0  0  0  0  0
   65.7433   32.9765   25.7893 C   0  0  0  0  0  0  0  0  0  0  0  0
   63.3857   33.0924   25.7039 C   0  0  0  0  0  0  0  0  0  0  0  0
   66.2158   38.5837   25.8957 C   0  0  0  0  0  0  0  0  0  0  0  0
   68.2217   37.8275   24.9233 C   0  0  0  0  0  0  0  0  0  0  0  0
   64.5173   32.5871   26.3027 C   0  0  0  0  0  0  0  0  0  0  0  0
   65.3979   36.4434   22.9678 N   0  0  0  0  0  0  0  0  0  0  0  0
   64.2070   35.0045   21.7448 C   0  0  0  0  0  0  0  0  0  0  0  0
   66.1154   37.1559   23.9492 C   0  0  0  0  0  0  0  0  0  0  0  0
   67.5842   38.5539   25.8940 C   0  0  0  0  0  0  0  0  0  0  0  0
   68.4133   36.2451   22.7885 Cl  0  0  0  0  0  0  0  0  0  0  0  0
   62.2351   34.3989   24.1132 O   0  0  0  0  0  0  0  0  0  0  0  0
   64.4356   31.7168   27.3843 O   0  0  0  0  0  0  0  0  0  0  0  0
  1  2  1  0
 14  1  1  0
  1 15  2  0
  2  4  2  0
  2  5  1  0
  3  6  2  0
 14  3  1  0
  4  9  1  0
  5 10  2  0
  5 19  1  0
  6 15  1  0
  7 11  2  0
 16  7  1  0
  8 12  1  0
 16  8  2  0
  8 18  1  0
  9 13  2  0
 10 13  1  0
 11 17  1  0
 12 17  2  0
 13 20  1  0
 14 16  1  0
M  END
$$$$
