
     RDKit          3D

 20 22  0  0  0  0  0  0  0  0999 V2000
   64.8142   34.9337   22.8447 C   0  0  0  0  0  0  0  0  0  0  0  0
   64.6852   34.0535   23.9832 C   0  0  0  0  0  0  0  0  0  0  0  0
   65.4409   36.4850   21.4841 N   0  0  0  0  0  0  0  0  0  0  0  0
   65.8162   33.5486   24.6045 C   0  0  0  0  0  0  0  0  0  0  0  0
   63.4626   33.6913   24.4943 C   0  0  0  0  0  0  0  0  0  0  0  0
   64.4295   35.8439   20.8782 C   0  0  0  0  0  0  0  0  0  0  0  0
   68.0641   36.2770   23.2355 C   0  0  0  0  0  0  0  0  0  0  0  0
   66.3995   37.1309   24.6649 C   0  0  0  0  0  0  0  0  0  0  0  0
   65.7370   32.7074   25.7024 C   0  0  0  0  0  0  0  0  0  0  0  0
   63.3816   32.8479   25.5950 C   0  0  0  0  0  0  0  0  0  0  0  0
   69.0383   36.7831   24.0616 C   0  0  0  0  0  0  0  0  0  0  0  0
   67.3883   37.6441   25.5027 C   0  0  0  0  0  0  0  0  0  0  0  0
   64.5026   32.3442   26.2149 C   0  0  0  0  0  0  0  0  0  0  0  0
   65.6876   35.9378   22.6903 N   0  0  0  0  0  0  0  0  0  0  0  0
   64.0018   34.8454   21.7162 C   0  0  0  0  0  0  0  0  0  0  0  0
   66.7085   36.4409   23.5212 C   0  0  0  0  0  0  0  0  0  0  0  0
   68.7128   37.4695   25.2000 C   0  0  0  0  0  0  0  0  0  0  0  0
   64.7557   37.4266   25.1558 Cl  0  0  0  0  0  0  0  0  0  0  0  0
   62.2588   34.1292   23.9645 O   0  0  0  0  0  0  0  0  0  0  0  0
   64.4023   31.5009   27.3161 O   0  0  0  0  0  0  0  0  0  0  0  0
  1  2  1  0
 14  1  1  0
  1 15  2  0
  2  4  2  0
  2  5  1  0
  3  6  2  0
 14  3  1  0
  4  9  1  0
  5 10  2  0
  5 19  1  0
  6 15  1  0
  7 11  2  0
 16  7  1  0
  8 12  1  0
 16  8  2  0
  8 18  1  0
  9 13  2  0
 10 13  1  0
 11 17  1  0
 12 17  2  0
 13 20  1  0
 14 16  1  0
M  END
$$$$
