
     RDKit          3D

 20 22  0  0  0  0  0  0  0  0999 V2000
   64.7930   35.3272   22.9560 C   0  0  0  0  0  0  0  0  0  0  0  0
   64.6633   34.3989   24.0556 C   0  0  0  0  0  0  0  0  0  0  0  0
   65.3266   37.0061   21.7121 N   0  0  0  0  0  0  0  0  0  0  0  0
   65.7880   33.9743   24.7445 C   0  0  0  0  0  0  0  0  0  0  0  0
   63.4452   33.9119   24.4634 C   0  0  0  0  0  0  0  0  0  0  0  0
   64.5248   36.2297   20.9667 C   0  0  0  0  0  0  0  0  0  0  0  0
   65.7719   37.8011   24.9836 C   0  0  0  0  0  0  0  0  0  0  0  0
   67.6712   37.0435   23.8166 C   0  0  0  0  0  0  0  0  0  0  0  0
   65.7072   33.0908   25.8085 C   0  0  0  0  0  0  0  0  0  0  0  0
   63.3627   33.0259   25.5300 C   0  0  0  0  0  0  0  0  0  0  0  0
   66.5808   38.4054   25.9153 C   0  0  0  0  0  0  0  0  0  0  0  0
   68.4914   37.6569   24.7621 C   0  0  0  0  0  0  0  0  0  0  0  0
   64.4775   32.6017   26.2168 C   0  0  0  0  0  0  0  0  0  0  0  0
   65.4997   36.4652   22.9339 N   0  0  0  0  0  0  0  0  0  0  0  0
   64.1625   35.1465   21.7266 C   0  0  0  0  0  0  0  0  0  0  0  0
   66.3040   37.0992   23.9017 C   0  0  0  0  0  0  0  0  0  0  0  0
   67.9442   38.3404   25.8155 C   0  0  0  0  0  0  0  0  0  0  0  0
   68.4883   36.2000   22.5315 Cl  0  0  0  0  0  0  0  0  0  0  0  0
   62.2476   34.2601   23.8582 O   0  0  0  0  0  0  0  0  0  0  0  0
   64.3757   31.7140   27.2824 O   0  0  0  0  0  0  0  0  0  0  0  0
  1  2  1  0
 14  1  1  0
  1 15  2  0
  2  4  2  0
  2  5  1  0
  3  6  2  0
 14  3  1  0
  4  9  1  0
  5 10  2  0
  5 19  1  0
  6 15  1  0
  7 11  2  0
 16  7  1  0
  8 12  1  0
 16  8  2  0
  8 18  1  0
  9 13  2  0
 10 13  1  0
 11 17  1  0
 12 17  2  0
 13 20  1  0
 14 16  1  0
M  END
$$$$
