
     RDKit          3D

 14 14  0  0  0  0  0  0  0  0999 V2000
  -22.0712   18.0397  -13.7052 C   0  0  0  0  0  0  0  0  0  0  0  0
  -22.5167   18.5313  -12.3776 C   0  0  0  0  0  0  0  0  0  0  0  0
  -22.2040   12.8042  -17.4472 C   0  0  0  0  0  0  0  0  0  0  0  0
  -21.8016   12.0552  -16.3193 O   0  0  0  0  0  0  0  0  0  0  0  0
  -22.0549   12.5128  -15.0120 C   0  0  0  0  0  0  0  0  0  0  0  0
  -22.2149   11.6051  -13.9873 C   0  0  0  0  0  0  0  0  0  0  0  0
  -22.1214   10.2497  -14.2730 O   0  0  0  0  0  0  0  0  0  0  0  0
  -22.4636   11.9941  -12.6935 C   0  0  0  0  0  0  0  0  0  0  0  0
  -22.5509   13.3677  -12.4450 C   0  0  0  0  0  0  0  0  0  0  0  0
  -22.3971   14.3002  -13.4397 C   0  0  0  0  0  0  0  0  0  0  0  0
  -22.1446   13.8583  -14.7453 C   0  0  0  0  0  0  0  0  0  0  0  0
  -22.4864   15.7142  -13.1866 C   0  0  0  0  0  0  0  0  0  0  0  0
  -22.0162   16.6127  -14.0246 C   0  0  0  0  0  0  0  0  0  0  0  0
  -21.7351   18.8795  -14.5690 O   0  0  0  0  0  0  0  0  0  0  0  0
  1  2  1  0
 13  1  1  0
  1 14  2  0
  4  3  1  0
  5  4  1  0
  5  6  2  0
 11  5  1  0
  6  7  1  0
  8  6  1  0
  9  8  2  0
 10  9  1  0
 10 11  2  0
 12 10  1  0
 12 13  2  0
M  END
$$$$
