
     RDKit          3D

 14 14  0  0  0  0  0  0  0  0999 V2000
  -22.7723   17.8856  -12.6966 C   0  0  0  0  0  0  0  0  0  0  0  0
  -22.6663   19.1055  -13.5352 C   0  0  0  0  0  0  0  0  0  0  0  0
  -20.8677   12.1662  -16.8897 C   0  0  0  0  0  0  0  0  0  0  0  0
  -22.1164   12.5226  -16.3339 O   0  0  0  0  0  0  0  0  0  0  0  0
  -22.2702   12.7096  -14.9468 C   0  0  0  0  0  0  0  0  0  0  0  0
  -22.3315   11.6157  -14.1106 C   0  0  0  0  0  0  0  0  0  0  0  0
  -22.2391   10.3452  -14.6625 O   0  0  0  0  0  0  0  0  0  0  0  0
  -22.4807   11.7383  -12.7505 C   0  0  0  0  0  0  0  0  0  0  0  0
  -22.5702   13.0340  -12.2318 C   0  0  0  0  0  0  0  0  0  0  0  0
  -22.5132   14.1462  -13.0333 C   0  0  0  0  0  0  0  0  0  0  0  0
  -22.3602   13.9742  -14.4157 C   0  0  0  0  0  0  0  0  0  0  0  0
  -22.6050   15.4806  -12.5022 C   0  0  0  0  0  0  0  0  0  0  0  0
  -22.7119   16.5417  -13.2726 C   0  0  0  0  0  0  0  0  0  0  0  0
  -22.9174   18.0226  -11.4620 O   0  0  0  0  0  0  0  0  0  0  0  0
  1  2  1  0
 13  1  1  0
  1 14  2  0
  4  3  1  0
  5  4  1  0
  5  6  2  0
 11  5  1  0
  6  7  1  0
  8  6  1  0
  9  8  2  0
 10  9  1  0
 10 11  2  0
 12 10  1  0
 12 13  2  0
M  END
$$$$
