
     RDKit          3D

 14 14  0  0  0  0  0  0  0  0999 V2000
  -22.2854   12.3930  -14.0075 C   0  0  0  0  0  0  0  0  0  0  0  0
  -22.5290   11.9175  -12.6228 C   0  0  0  0  0  0  0  0  0  0  0  0
  -21.7838   17.3977  -17.7160 C   0  0  0  0  0  0  0  0  0  0  0  0
  -22.0150   18.3228  -16.6741 O   0  0  0  0  0  0  0  0  0  0  0  0
  -22.3012   17.8900  -15.3650 C   0  0  0  0  0  0  0  0  0  0  0  0
  -22.5737   18.8161  -14.3814 C   0  0  0  0  0  0  0  0  0  0  0  0
  -22.5590   20.1650  -14.7094 O   0  0  0  0  0  0  0  0  0  0  0  0
  -22.8593   18.4516  -13.0881 C   0  0  0  0  0  0  0  0  0  0  0  0
  -22.8647   17.0838  -12.7962 C   0  0  0  0  0  0  0  0  0  0  0  0
  -22.5982   16.1334  -13.7493 C   0  0  0  0  0  0  0  0  0  0  0  0
  -22.3118   16.5506  -15.0561 C   0  0  0  0  0  0  0  0  0  0  0  0
  -22.6030   14.7253  -13.4517 C   0  0  0  0  0  0  0  0  0  0  0  0
  -22.3682   13.8092  -14.3662 C   0  0  0  0  0  0  0  0  0  0  0  0
  -22.0015   11.5488  -14.8856 O   0  0  0  0  0  0  0  0  0  0  0  0
  1  2  1  0
 13  1  1  0
  1 14  2  0
  4  3  1  0
  5  4  1  0
  5  6  2  0
 11  5  1  0
  6  7  1  0
  8  6  1  0
  9  8  2  0
 10  9  1  0
 10 11  2  0
 12 10  1  0
 12 13  2  0
M  END
$$$$
