
     RDKit          3D

 14 14  0  0  0  0  0  0  0  0999 V2000
  -22.4219   18.2205  -13.7501 C   0  0  0  0  0  0  0  0  0  0  0  0
  -22.7732   18.7477  -12.4080 C   0  0  0  0  0  0  0  0  0  0  0  0
  -21.8180   13.0637  -17.2495 C   0  0  0  0  0  0  0  0  0  0  0  0
  -22.1173   12.1857  -16.1844 O   0  0  0  0  0  0  0  0  0  0  0  0
  -22.3170   12.6676  -14.8765 C   0  0  0  0  0  0  0  0  0  0  0  0
  -22.4562   11.7786  -13.8326 C   0  0  0  0  0  0  0  0  0  0  0  0
  -22.3953   10.4176  -14.0996 O   0  0  0  0  0  0  0  0  0  0  0  0
  -22.6530   12.1916  -12.5373 C   0  0  0  0  0  0  0  0  0  0  0  0
  -22.7086   13.5702  -12.3077 C   0  0  0  0  0  0  0  0  0  0  0  0
  -22.5742   14.4846  -13.3219 C   0  0  0  0  0  0  0  0  0  0  0  0
  -22.3750   14.0183  -14.6283 C   0  0  0  0  0  0  0  0  0  0  0  0
  -22.6311   15.9036  -13.0885 C   0  0  0  0  0  0  0  0  0  0  0  0
  -22.3799   16.7852  -14.0322 C   0  0  0  0  0  0  0  0  0  0  0  0
  -22.1558   19.0368  -14.6595 O   0  0  0  0  0  0  0  0  0  0  0  0
  1  2  1  0
 13  1  1  0
  1 14  2  0
  4  3  1  0
  5  4  1  0
  5  6  2  0
 11  5  1  0
  6  7  1  0
  8  6  1  0
  9  8  2  0
 10  9  1  0
 10 11  2  0
 12 10  1  0
 12 13  2  0
M  END
$$$$
