
     RDKit          3D

 14 14  0  0  0  0  0  0  0  0999 V2000
  -22.2132   17.9930  -13.6645 C   0  0  0  0  0  0  0  0  0  0  0  0
  -22.5452   18.5094  -12.3133 C   0  0  0  0  0  0  0  0  0  0  0  0
  -21.9889   12.8675  -17.2902 C   0  0  0  0  0  0  0  0  0  0  0  0
  -22.1092   11.9764  -16.2009 O   0  0  0  0  0  0  0  0  0  0  0  0
  -22.2910   12.4508  -14.8876 C   0  0  0  0  0  0  0  0  0  0  0  0
  -22.4143   11.5558  -13.8468 C   0  0  0  0  0  0  0  0  0  0  0  0
  -22.3556   10.1963  -14.1224 O   0  0  0  0  0  0  0  0  0  0  0  0
  -22.5932   11.9613  -12.5466 C   0  0  0  0  0  0  0  0  0  0  0  0
  -22.6472   13.3384  -12.3085 C   0  0  0  0  0  0  0  0  0  0  0  0
  -22.5283   14.2587  -13.3194 C   0  0  0  0  0  0  0  0  0  0  0  0
  -22.3470   13.8000  -14.6311 C   0  0  0  0  0  0  0  0  0  0  0  0
  -22.5835   15.6763  -13.0772 C   0  0  0  0  0  0  0  0  0  0  0  0
  -22.1588   16.5598  -13.9546 C   0  0  0  0  0  0  0  0  0  0  0  0
  -21.9746   18.8170  -14.5747 O   0  0  0  0  0  0  0  0  0  0  0  0
  1  2  1  0
 13  1  1  0
  1 14  2  0
  4  3  1  0
  5  4  1  0
  5  6  2  0
 11  5  1  0
  6  7  1  0
  8  6  1  0
  9  8  2  0
 10  9  1  0
 10 11  2  0
 12 10  1  0
 12 13  2  0
M  END
$$$$
