
     RDKit          3D

 14 14  0  0  0  0  0  0  0  0999 V2000
  -22.5972   18.1751  -13.8448 C   0  0  0  0  0  0  0  0  0  0  0  0
  -22.9431   18.7092  -12.5040 C   0  0  0  0  0  0  0  0  0  0  0  0
  -21.9202   12.9018  -17.3000 C   0  0  0  0  0  0  0  0  0  0  0  0
  -22.5186   12.1205  -16.2869 O   0  0  0  0  0  0  0  0  0  0  0  0
  -22.6649   12.6141  -14.9762 C   0  0  0  0  0  0  0  0  0  0  0  0
  -22.7506   11.7347  -13.9186 C   0  0  0  0  0  0  0  0  0  0  0  0
  -22.6900   10.3715  -14.1747 O   0  0  0  0  0  0  0  0  0  0  0  0
  -22.8939   12.1592  -12.6200 C   0  0  0  0  0  0  0  0  0  0  0  0
  -22.9510   13.5395  -12.4017 C   0  0  0  0  0  0  0  0  0  0  0  0
  -22.8690   14.4446  -13.4298 C   0  0  0  0  0  0  0  0  0  0  0  0
  -22.7233   13.9668  -14.7390 C   0  0  0  0  0  0  0  0  0  0  0  0
  -22.9276   15.8654  -13.2080 C   0  0  0  0  0  0  0  0  0  0  0  0
  -22.5587   16.7385  -14.1204 C   0  0  0  0  0  0  0  0  0  0  0  0
  -22.3324   18.9867  -14.7589 O   0  0  0  0  0  0  0  0  0  0  0  0
  1  2  1  0
 13  1  1  0
  1 14  2  0
  4  3  1  0
  5  4  1  0
  5  6  2  0
 11  5  1  0
  6  7  1  0
  8  6  1  0
  9  8  2  0
 10  9  1  0
 10 11  2  0
 12 10  1  0
 12 13  2  0
M  END
$$$$
