
     RDKit          3D

 14 14  0  0  0  0  0  0  0  0999 V2000
  -22.3533   12.2440  -14.0165 C   0  0  0  0  0  0  0  0  0  0  0  0
  -22.5058   11.6897  -12.6482 C   0  0  0  0  0  0  0  0  0  0  0  0
  -21.6453   17.5118  -17.3830 C   0  0  0  0  0  0  0  0  0  0  0  0
  -22.2459   18.3050  -16.3804 O   0  0  0  0  0  0  0  0  0  0  0  0
  -22.4530   17.8038  -15.0809 C   0  0  0  0  0  0  0  0  0  0  0  0
  -22.6914   18.6755  -14.0403 C   0  0  0  0  0  0  0  0  0  0  0  0
  -22.7214   20.0385  -14.3024 O   0  0  0  0  0  0  0  0  0  0  0  0
  -22.9002   18.2433  -12.7532 C   0  0  0  0  0  0  0  0  0  0  0  0
  -22.8624   16.8634  -12.5285 C   0  0  0  0  0  0  0  0  0  0  0  0
  -22.6279   15.9659  -13.5396 C   0  0  0  0  0  0  0  0  0  0  0  0
  -22.4202   16.4513  -14.8376 C   0  0  0  0  0  0  0  0  0  0  0  0
  -22.5885   14.5455  -13.3112 C   0  0  0  0  0  0  0  0  0  0  0  0
  -22.4873   13.6749  -14.2923 C   0  0  0  0  0  0  0  0  0  0  0  0
  -22.1028   11.4550  -14.9540 O   0  0  0  0  0  0  0  0  0  0  0  0
  1  2  1  0
 13  1  1  0
  1 14  2  0
  4  3  1  0
  5  4  1  0
  5  6  2  0
 11  5  1  0
  6  7  1  0
  8  6  1  0
  9  8  2  0
 10  9  1  0
 10 11  2  0
 12 10  1  0
 12 13  2  0
M  END
$$$$
