
     RDKit          3D

 14 14  0  0  0  0  0  0  0  0999 V2000
  -22.3934   11.8200  -14.0420 C   0  0  0  0  0  0  0  0  0  0  0  0
  -21.7365   11.2569  -12.8362 C   0  0  0  0  0  0  0  0  0  0  0  0
  -20.8660   17.6193  -17.0746 C   0  0  0  0  0  0  0  0  0  0  0  0
  -21.5772   18.2824  -16.0501 O   0  0  0  0  0  0  0  0  0  0  0  0
  -22.0416   17.5868  -14.9172 C   0  0  0  0  0  0  0  0  0  0  0  0
  -22.7408   18.2602  -13.9389 C   0  0  0  0  0  0  0  0  0  0  0  0
  -22.9716   19.6200  -14.0967 O   0  0  0  0  0  0  0  0  0  0  0  0
  -23.2173   17.6333  -12.8132 C   0  0  0  0  0  0  0  0  0  0  0  0
  -22.9651   16.2632  -12.6898 C   0  0  0  0  0  0  0  0  0  0  0  0
  -22.2727   15.5601  -13.6432 C   0  0  0  0  0  0  0  0  0  0  0  0
  -21.8049   16.2402  -14.7756 C   0  0  0  0  0  0  0  0  0  0  0  0
  -22.0117   14.1503  -13.5187 C   0  0  0  0  0  0  0  0  0  0  0  0
  -22.7208   13.2419  -14.1534 C   0  0  0  0  0  0  0  0  0  0  0  0
  -22.6708   11.0466  -14.9850 O   0  0  0  0  0  0  0  0  0  0  0  0
  1  2  1  0
 13  1  1  0
  1 14  2  0
  4  3  1  0
  5  4  1  0
  5  6  2  0
 11  5  1  0
  6  7  1  0
  8  6  1  0
  9  8  2  0
 10  9  1  0
 10 11  2  0
 12 10  1  0
 12 13  2  0
M  END
$$$$
