
     RDKit          3D

 14 14  0  0  0  0  0  0  0  0999 V2000
  -22.3432   18.0891  -13.4960 C   0  0  0  0  0  0  0  0  0  0  0  0
  -22.8602   18.6673  -12.2307 C   0  0  0  0  0  0  0  0  0  0  0  0
  -22.0410   12.7784  -16.9051 C   0  0  0  0  0  0  0  0  0  0  0  0
  -22.4745   11.9774  -15.8256 O   0  0  0  0  0  0  0  0  0  0  0  0
  -22.5878   12.5058  -14.5252 C   0  0  0  0  0  0  0  0  0  0  0  0
  -22.6598   11.6545  -13.4437 C   0  0  0  0  0  0  0  0  0  0  0  0
  -22.6184   10.2847  -13.6660 O   0  0  0  0  0  0  0  0  0  0  0  0
  -22.7710   12.1135  -12.1538 C   0  0  0  0  0  0  0  0  0  0  0  0
  -22.8096   13.4994  -11.9699 C   0  0  0  0  0  0  0  0  0  0  0  0
  -22.7404   14.3772  -13.0223 C   0  0  0  0  0  0  0  0  0  0  0  0
  -22.6275   13.8646  -14.3217 C   0  0  0  0  0  0  0  0  0  0  0  0
  -22.7798   15.8037  -12.8359 C   0  0  0  0  0  0  0  0  0  0  0  0
  -22.3430   16.6473  -13.7460 C   0  0  0  0  0  0  0  0  0  0  0  0
  -21.8968   18.8672  -14.3676 O   0  0  0  0  0  0  0  0  0  0  0  0
  1  2  1  0
 13  1  1  0
  1 14  2  0
  4  3  1  0
  5  4  1  0
  5  6  2  0
 11  5  1  0
  6  7  1  0
  8  6  1  0
  9  8  2  0
 10  9  1  0
 10 11  2  0
 12 10  1  0
 12 13  2  0
M  END
$$$$
