
     RDKit          3D

 14 14  0  0  0  0  0  0  0  0999 V2000
  -22.5752   11.6128  -13.4231 C   0  0  0  0  0  0  0  0  0  0  0  0
  -23.9014   11.1199  -13.8716 C   0  0  0  0  0  0  0  0  0  0  0  0
  -22.9932   18.3848  -15.6249 C   0  0  0  0  0  0  0  0  0  0  0  0
  -22.5460   18.5562  -14.2961 O   0  0  0  0  0  0  0  0  0  0  0  0
  -22.7545   17.5604  -13.3225 C   0  0  0  0  0  0  0  0  0  0  0  0
  -22.7878   17.9033  -11.9881 C   0  0  0  0  0  0  0  0  0  0  0  0
  -22.6132   19.2344  -11.6343 O   0  0  0  0  0  0  0  0  0  0  0  0
  -22.9876   16.9746  -10.9958 C   0  0  0  0  0  0  0  0  0  0  0  0
  -23.1595   15.6441  -11.3913 C   0  0  0  0  0  0  0  0  0  0  0  0
  -23.1324   15.2657  -12.7099 C   0  0  0  0  0  0  0  0  0  0  0  0
  -22.9257   16.2467  -13.6890 C   0  0  0  0  0  0  0  0  0  0  0  0
  -23.3090   13.8974  -13.1196 C   0  0  0  0  0  0  0  0  0  0  0  0
  -22.3770   12.9841  -12.9522 C   0  0  0  0  0  0  0  0  0  0  0  0
  -21.6054   10.8236  -13.4529 O   0  0  0  0  0  0  0  0  0  0  0  0
  1  2  1  0
 13  1  1  0
  1 14  2  0
  4  3  1  0
  5  4  1  0
  5  6  2  0
 11  5  1  0
  6  7  1  0
  8  6  1  0
  9  8  2  0
 10  9  1  0
 10 11  2  0
 12 10  1  0
 12 13  2  0
M  END
$$$$
