
     RDKit          3D

 14 14  0  0  0  0  0  0  0  0999 V2000
  -22.8651   17.4631  -11.9532 C   0  0  0  0  0  0  0  0  0  0  0  0
  -23.1230   18.3421  -13.1209 C   0  0  0  0  0  0  0  0  0  0  0  0
  -21.9265   12.5053  -17.2854 C   0  0  0  0  0  0  0  0  0  0  0  0
  -22.1449   11.6440  -16.1875 O   0  0  0  0  0  0  0  0  0  0  0  0
  -22.4198   12.1541  -14.9041 C   0  0  0  0  0  0  0  0  0  0  0  0
  -22.5391   11.2921  -13.8353 C   0  0  0  0  0  0  0  0  0  0  0  0
  -22.3837    9.9299  -14.0534 O   0  0  0  0  0  0  0  0  0  0  0  0
  -22.8062   11.7333  -12.5621 C   0  0  0  0  0  0  0  0  0  0  0  0
  -22.9562   13.1121  -12.3820 C   0  0  0  0  0  0  0  0  0  0  0  0
  -22.8443   14.0001  -13.4222 C   0  0  0  0  0  0  0  0  0  0  0  0
  -22.5710   13.5057  -14.7046 C   0  0  0  0  0  0  0  0  0  0  0  0
  -22.9981   15.4193  -13.2396 C   0  0  0  0  0  0  0  0  0  0  0  0
  -22.8147   16.0058  -12.0764 C   0  0  0  0  0  0  0  0  0  0  0  0
  -22.6869   17.9951  -10.8354 O   0  0  0  0  0  0  0  0  0  0  0  0
  1  2  1  0
 13  1  1  0
  1 14  2  0
  4  3  1  0
  5  4  1  0
  5  6  2  0
 11  5  1  0
  6  7  1  0
  8  6  1  0
  9  8  2  0
 10  9  1  0
 10 11  2  0
 12 10  1  0
 12 13  2  0
M  END
$$$$
