
     RDKit          3D

 12 11  0  0  0  0  0  0  0  0999 V2000
  -31.8605   71.7472   65.9577 O   0  0  0  0  0  0  0  0  0  0  0  0
  -31.2689   72.8422   65.7136 C   0  0  0  0  0  0  0  0  0  0  0  0
  -29.9133   72.7242   65.3997 O   0  0  0  0  0  0  0  0  0  0  0  0
  -31.9675   74.1561   65.7583 C   0  0  1  0  0  0  0  0  0  0  0  0
  -32.8889   74.2371   64.6786 N   0  0  0  0  0  4  0  0  0  0  0  0
  -32.4730   74.4792   67.1081 C   0  0  0  0  0  0  0  0  0  0  0  0
  -32.5320   75.8667   67.5645 C   0  0  2  0  0  0  0  0  0  0  0  0
  -32.9097   76.8952   66.5446 C   0  0  0  0  0  0  0  0  0  0  0  0
  -31.3635   76.3681   68.3460 C   0  0  0  0  0  0  0  0  0  0  0  0
  -33.6876   75.8755   68.5952 C   0  0  1  0  0  0  0  0  0  0  0  0
  -33.2050   75.5788   69.8502 F   0  0  0  0  0  0  0  0  0  0  0  0
  -34.1839   77.1508   68.6266 F   0  0  0  0  0  0  0  0  0  0  0  0
  1  2  2  0
  2  3  1  0
  2  4  1  0
  4  5  1  6
  4  6  1  0
  6  7  1  0
  7  8  1  6
  7  9  1  0
  7 10  1  0
 10 11  1  1
 10 12  1  0
M  CHG  1   5   1
M  END
$$$$
