
     RDKit          3D

 12 11  0  0  0  0  0  0  0  0999 V2000
  -28.7484   73.4377   66.0001 O   0  0  0  0  0  0  0  0  0  0  0  0
  -28.9097   74.3079   66.9086 C   0  0  0  0  0  0  0  0  0  0  0  0
  -27.9559   74.2813   67.9282 O   0  0  0  0  0  0  0  0  0  0  0  0
  -30.0325   75.2853   66.8896 C   0  0  1  0  0  0  0  0  0  0  0  0
  -30.0394   75.9713   65.6443 N   0  0  0  0  0  4  0  0  0  0  0  0
  -31.3055   74.6892   67.3437 C   0  0  0  0  0  0  0  0  0  0  0  0
  -32.3818   75.5385   67.8509 C   0  0  2  0  0  0  0  0  0  0  0  0
  -33.7016   74.8768   68.0977 C   0  0  0  0  0  0  0  0  0  0  0  0
  -32.6144   76.8282   67.1368 C   0  0  0  0  0  0  0  0  0  0  0  0
  -31.8843   75.9828   69.2483 C   0  0  1  0  0  0  0  0  0  0  0  0
  -32.3219   77.2592   69.5230 F   0  0  0  0  0  0  0  0  0  0  0  0
  -32.4546   75.1375   70.1616 F   0  0  0  0  0  0  0  0  0  0  0  0
  1  2  2  0
  2  3  1  0
  2  4  1  0
  4  5  1  6
  4  6  1  0
  6  7  1  0
  7  8  1  1
  7  9  1  0
  7 10  1  0
 10 11  1  1
 10 12  1  0
M  CHG  1   5   1
M  END
$$$$
