
     RDKit          3D

 12 11  0  0  0  0  0  0  0  0999 V2000
  -27.9172   75.3414   67.4198 O   0  0  0  0  0  0  0  0  0  0  0  0
  -28.7779   74.4356   67.2024 C   0  0  0  0  0  0  0  0  0  0  0  0
  -28.3202   73.3550   66.4457 O   0  0  0  0  0  0  0  0  0  0  0  0
  -30.1729   74.5181   67.7159 C   0  0  1  0  0  0  0  0  0  0  0  0
  -30.1471   74.8256   69.1037 N   0  0  0  0  0  4  0  0  0  0  0  0
  -31.0424   75.3439   66.8534 C   0  0  0  0  0  0  0  0  0  0  0  0
  -32.4969   75.2215   66.9337 C   0  0  2  0  0  0  0  0  0  0  0  0
  -33.0625   73.8393   66.8319 C   0  0  0  0  0  0  0  0  0  0  0  0
  -33.2978   76.1358   66.0677 C   0  0  0  0  0  0  0  0  0  0  0  0
  -32.8359   75.6928   68.3691 C   0  0  1  0  0  0  0  0  0  0  0  0
  -32.6396   77.0512   68.4803 F   0  0  0  0  0  0  0  0  0  0  0  0
  -34.1673   75.4432   68.5665 F   0  0  0  0  0  0  0  0  0  0  0  0
  1  2  2  0
  2  3  1  0
  2  4  1  0
  4  5  1  1
  4  6  1  0
  6  7  1  0
  7  8  1  1
  7  9  1  0
  7 10  1  0
 10 11  1  6
 10 12  1  0
M  CHG  1   5   1
M  END
$$$$
