
     RDKit          3D

 12 11  0  0  0  0  0  0  0  0999 V2000
  -27.5409   75.7992   66.5537 O   0  0  0  0  0  0  0  0  0  0  0  0
  -28.2509   74.7483   66.5664 C   0  0  0  0  0  0  0  0  0  0  0  0
  -27.8144   73.7300   65.7164 O   0  0  0  0  0  0  0  0  0  0  0  0
  -29.4601   74.6104   67.4238 C   0  0  1  0  0  0  0  0  0  0  0  0
  -29.1155   74.8932   68.7739 N   0  0  0  0  0  4  0  0  0  0  0  0
  -30.6323   75.3111   66.8610 C   0  0  0  0  0  0  0  0  0  0  0  0
  -31.9741   75.0397   67.3735 C   0  0  2  0  0  0  0  0  0  0  0  0
  -32.1239   74.9640   68.8609 C   0  0  0  0  0  0  0  0  0  0  0  0
  -32.7124   73.8994   66.7553 C   0  0  0  0  0  0  0  0  0  0  0  0
  -32.7984   76.2789   66.9463 C   0  0  1  0  0  0  0  0  0  0  0  0
  -32.2067   77.4279   67.4216 F   0  0  0  0  0  0  0  0  0  0  0  0
  -32.7681   76.3256   65.5786 F   0  0  0  0  0  0  0  0  0  0  0  0
  1  2  2  0
  2  3  1  0
  2  4  1  0
  4  5  1  1
  4  6  1  0
  6  7  1  0
  7  8  1  1
  7  9  1  0
  7 10  1  0
 10 11  1  1
 10 12  1  0
M  CHG  1   5   1
M  END
$$$$
