
     RDKit          3D

 12 11  0  0  0  0  0  0  0  0999 V2000
  -31.2446   63.0053   50.0595 O   0  0  0  0  0  0  0  0  0  0  0  0
  -31.3359   62.3945   51.1673 C   0  0  0  0  0  0  0  0  0  0  0  0
  -30.1414   61.8477   51.6406 O   0  0  0  0  0  0  0  0  0  0  0  0
  -32.6211   62.2697   51.9082 C   0  0  1  0  0  0  0  0  0  0  0  0
  -32.7813   60.9283   52.3515 N   0  0  0  0  0  4  0  0  0  0  0  0
  -32.8007   63.3415   52.9086 C   0  0  0  0  0  0  0  0  0  0  0  0
  -34.1211   63.6138   53.4737 C   0  0  2  0  0  0  0  0  0  0  0  0
  -34.6901   62.5728   54.3866 C   0  0  0  0  0  0  0  0  0  0  0  0
  -35.1828   64.0533   52.5214 C   0  0  0  0  0  0  0  0  0  0  0  0
  -33.8988   64.8583   54.3678 C   0  0  1  0  0  0  0  0  0  0  0  0
  -33.5567   65.9435   53.5924 F   0  0  0  0  0  0  0  0  0  0  0  0
  -35.0959   65.1341   54.9717 F   0  0  0  0  0  0  0  0  0  0  0  0
  1  2  2  0
  2  3  1  0
  2  4  1  0
  4  5  1  1
  4  6  1  0
  6  7  1  0
  7  8  1  1
  7  9  1  0
  7 10  1  0
 10 11  1  6
 10 12  1  0
M  CHG  1   5   1
M  END
$$$$
