
     RDKit          3D

 12 11  0  0  0  0  0  0  0  0999 V2000
  -32.8100   74.5186   61.6992 O   0  0  0  0  0  0  0  0  0  0  0  0
  -32.7278   73.9101   62.8090 C   0  0  0  0  0  0  0  0  0  0  0  0
  -32.4785   72.5394   62.7143 O   0  0  0  0  0  0  0  0  0  0  0  0
  -32.8855   74.6055   64.1160 C   0  0  1  0  0  0  0  0  0  0  0  0
  -32.9605   76.0083   63.8976 N   0  0  0  0  0  4  0  0  0  0  0  0
  -33.9334   73.9922   64.9572 C   0  0  0  0  0  0  0  0  0  0  0  0
  -33.8914   74.1314   66.4117 C   0  0  2  0  0  0  0  0  0  0  0  0
  -34.0723   75.5120   66.9612 C   0  0  0  0  0  0  0  0  0  0  0  0
  -32.7511   73.4765   67.1177 C   0  0  0  0  0  0  0  0  0  0  0  0
  -35.1259   73.3358   66.9021 C   0  0  1  0  0  0  0  0  0  0  0  0
  -34.8454   71.9877   66.9163 F   0  0  0  0  0  0  0  0  0  0  0  0
  -35.3668   73.7283   68.1912 F   0  0  0  0  0  0  0  0  0  0  0  0
  1  2  2  0
  2  3  1  0
  2  4  1  0
  4  5  1  6
  4  6  1  0
  6  7  1  0
  7  8  1  6
  7  9  1  0
  7 10  1  0
 10 11  1  1
 10 12  1  0
M  CHG  1   5   1
M  END
$$$$
