
     RDKit          3D

 12 11  0  0  0  0  0  0  0  0999 V2000
  -32.1152   76.2351   63.2611 O   0  0  0  0  0  0  0  0  0  0  0  0
  -32.0988   74.9688   63.1920 C   0  0  0  0  0  0  0  0  0  0  0  0
  -31.1222   74.4357   62.3481 O   0  0  0  0  0  0  0  0  0  0  0  0
  -33.0499   74.1138   63.9540 C   0  0  1  0  0  0  0  0  0  0  0  0
  -32.9859   72.7819   63.4606 N   0  0  0  0  0  4  0  0  0  0  0  0
  -32.9319   74.3035   65.4141 C   0  0  0  0  0  0  0  0  0  0  0  0
  -34.0170   73.8948   66.3044 C   0  0  2  0  0  0  0  0  0  0  0  0
  -34.2743   72.4248   66.4209 C   0  0  0  0  0  0  0  0  0  0  0  0
  -35.3214   74.6020   66.1439 C   0  0  0  0  0  0  0  0  0  0  0  0
  -33.5372   74.3343   67.7095 C   0  0  1  0  0  0  0  0  0  0  0  0
  -33.5676   75.7071   67.8123 F   0  0  0  0  0  0  0  0  0  0  0  0
  -34.4309   73.8254   68.6130 F   0  0  0  0  0  0  0  0  0  0  0  0
  1  2  2  0
  2  3  1  0
  2  4  1  0
  4  5  1  1
  4  6  1  0
  6  7  1  0
  7  8  1  1
  7  9  1  0
  7 10  1  0
 10 11  1  6
 10 12  1  0
M  CHG  1   5   1
M  END
$$$$
