
     RDKit          3D

 12 11  0  0  0  0  0  0  0  0999 V2000
  -30.9674   73.0510   63.9830 O   0  0  0  0  0  0  0  0  0  0  0  0
  -31.1913   74.0446   64.7387 C   0  0  0  0  0  0  0  0  0  0  0  0
  -30.0511   74.6547   65.2659 O   0  0  0  0  0  0  0  0  0  0  0  0
  -32.5674   74.5253   65.0415 C   0  0  1  0  0  0  0  0  0  0  0  0
  -33.3785   74.3940   63.8812 N   0  0  0  0  0  4  0  0  0  0  0  0
  -33.0933   73.9680   66.3043 C   0  0  0  0  0  0  0  0  0  0  0  0
  -34.0706   74.7155   67.0937 C   0  0  2  0  0  0  0  0  0  0  0  0
  -35.3812   75.0138   66.4348 C   0  0  0  0  0  0  0  0  0  0  0  0
  -33.5816   75.9491   67.7767 C   0  0  0  0  0  0  0  0  0  0  0  0
  -34.4144   73.7644   68.2662 C   0  0  1  0  0  0  0  0  0  0  0  0
  -33.3546   73.6905   69.1423 F   0  0  0  0  0  0  0  0  0  0  0  0
  -35.4727   74.3203   68.9331 F   0  0  0  0  0  0  0  0  0  0  0  0
  1  2  2  0
  2  3  1  0
  2  4  1  0
  4  5  1  6
  4  6  1  0
  6  7  1  0
  7  8  1  6
  7  9  1  0
  7 10  1  0
 10 11  1  1
 10 12  1  0
M  CHG  1   5   1
M  END
$$$$
