
     RDKit          3D

 12 11  0  0  0  0  0  0  0  0999 V2000
  -29.0501   73.7963   67.5514 O   0  0  0  0  0  0  0  0  0  0  0  0
  -29.8710   74.0705   66.6242 C   0  0  0  0  0  0  0  0  0  0  0  0
  -29.8226   73.2163   65.5206 O   0  0  0  0  0  0  0  0  0  0  0  0
  -30.8161   75.2178   66.7061 C   0  0  1  0  0  0  0  0  0  0  0  0
  -30.8298   75.9070   65.4626 N   0  0  0  0  0  4  0  0  0  0  0  0
  -32.1200   74.8331   67.2838 C   0  0  0  0  0  0  0  0  0  0  0  0
  -32.9602   75.8297   67.9453 C   0  0  2  0  0  0  0  0  0  0  0  0
  -33.1858   77.1143   67.2107 C   0  0  0  0  0  0  0  0  0  0  0  0
  -32.6427   76.1380   69.3707 C   0  0  0  0  0  0  0  0  0  0  0  0
  -34.3529   75.1573   68.0219 C   0  0  1  0  0  0  0  0  0  0  0  0
  -34.3247   74.1099   68.9154 F   0  0  0  0  0  0  0  0  0  0  0  0
  -35.2234   76.0974   68.5039 F   0  0  0  0  0  0  0  0  0  0  0  0
  1  2  2  0
  2  3  1  0
  2  4  1  0
  4  5  1  6
  4  6  1  0
  6  7  1  0
  7  8  1  6
  7  9  1  0
  7 10  1  0
 10 11  1  1
 10 12  1  0
M  CHG  1   5   1
M  END
$$$$
