
     RDKit          3D

 12 11  0  0  0  0  0  0  0  0999 V2000
  -31.8109   73.6759   62.7380 O   0  0  0  0  0  0  0  0  0  0  0  0
  -31.9258   74.6473   63.5453 C   0  0  0  0  0  0  0  0  0  0  0  0
  -30.9153   75.6075   63.4619 O   0  0  0  0  0  0  0  0  0  0  0  0
  -33.0541   74.7561   64.5104 C   0  0  1  0  0  0  0  0  0  0  0  0
  -34.2435   74.2698   63.9018 N   0  0  0  0  0  4  0  0  0  0  0  0
  -32.7075   74.2244   65.8442 C   0  0  0  0  0  0  0  0  0  0  0  0
  -33.0460   74.9753   67.0518 C   0  0  2  0  0  0  0  0  0  0  0  0
  -33.3552   76.4293   66.8757 C   0  0  0  0  0  0  0  0  0  0  0  0
  -32.1339   74.8140   68.2221 C   0  0  0  0  0  0  0  0  0  0  0  0
  -34.3709   74.3354   67.5343 C   0  0  1  0  0  0  0  0  0  0  0  0
  -34.3630   72.9820   67.2805 F   0  0  0  0  0  0  0  0  0  0  0  0
  -34.4259   74.5080   68.8912 F   0  0  0  0  0  0  0  0  0  0  0  0
  1  2  2  0
  2  3  1  0
  2  4  1  0
  4  5  1  6
  4  6  1  0
  6  7  1  0
  7  8  1  6
  7  9  1  0
  7 10  1  0
 10 11  1  1
 10 12  1  0
M  CHG  1   5   1
M  END
$$$$
