
     RDKit          3D

 12 11  0  0  0  0  0  0  0  0999 V2000
  -28.7172   73.9058   67.1177 O   0  0  0  0  0  0  0  0  0  0  0  0
  -28.8991   75.1388   66.8826 C   0  0  0  0  0  0  0  0  0  0  0  0
  -27.7387   75.9156   66.8715 O   0  0  0  0  0  0  0  0  0  0  0  0
  -30.2494   75.7154   66.6367 C   0  0  1  0  0  0  0  0  0  0  0  0
  -30.2622   76.3629   65.3710 N   0  0  0  0  0  4  0  0  0  0  0  0
  -31.3329   74.7515   66.9173 C   0  0  0  0  0  0  0  0  0  0  0  0
  -32.7031   75.2168   67.1243 C   0  0  2  0  0  0  0  0  0  0  0  0
  -33.6105   75.1887   65.9341 C   0  0  0  0  0  0  0  0  0  0  0  0
  -32.8713   76.5217   67.8289 C   0  0  0  0  0  0  0  0  0  0  0  0
  -33.3040   74.1900   68.1155 C   0  0  1  0  0  0  0  0  0  0  0  0
  -32.8172   74.4152   69.3837 F   0  0  0  0  0  0  0  0  0  0  0  0
  -34.6558   74.4039   68.1402 F   0  0  0  0  0  0  0  0  0  0  0  0
  1  2  2  0
  2  3  1  0
  2  4  1  0
  4  5  1  6
  4  6  1  0
  6  7  1  0
  7  8  1  6
  7  9  1  0
  7 10  1  0
 10 11  1  1
 10 12  1  0
M  CHG  1   5   1
M  END
$$$$
