
     RDKit          3D

 12 11  0  0  0  0  0  0  0  0999 V2000
  -28.3477   73.9360   67.4320 O   0  0  0  0  0  0  0  0  0  0  0  0
  -28.5944   75.0079   66.8007 C   0  0  0  0  0  0  0  0  0  0  0  0
  -27.5987   75.4106   65.9082 O   0  0  0  0  0  0  0  0  0  0  0  0
  -29.8523   75.7799   66.9963 C   0  0  1  0  0  0  0  0  0  0  0  0
  -29.8072   76.9623   66.2080 N   0  0  0  0  0  4  0  0  0  0  0  0
  -31.0566   74.9325   66.8813 C   0  0  0  0  0  0  0  0  0  0  0  0
  -32.2763   75.2756   67.6105 C   0  0  2  0  0  0  0  0  0  0  0  0
  -32.1768   75.3241   69.1033 C   0  0  0  0  0  0  0  0  0  0  0  0
  -33.5164   74.5359   67.2330 C   0  0  0  0  0  0  0  0  0  0  0  0
  -32.5770   76.7315   67.1775 C   0  0  1  0  0  0  0  0  0  0  0  0
  -33.4719   76.7391   66.1309 F   0  0  0  0  0  0  0  0  0  0  0  0
  -33.1726   77.3495   68.2439 F   0  0  0  0  0  0  0  0  0  0  0  0
  1  2  2  0
  2  3  1  0
  2  4  1  0
  4  5  1  6
  4  6  1  0
  6  7  1  0
  7  8  1  1
  7  9  1  0
  7 10  1  0
 10 11  1  6
 10 12  1  0
M  CHG  1   5   1
M  END
$$$$
