
     RDKit          3D

 12 11  0  0  0  0  0  0  0  0999 V2000
  -27.5900   75.1117   66.0447 O   0  0  0  0  0  0  0  0  0  0  0  0
  -28.7210   74.6787   66.4214 C   0  0  0  0  0  0  0  0  0  0  0  0
  -28.9763   73.3421   66.1079 O   0  0  0  0  0  0  0  0  0  0  0  0
  -29.7038   75.5320   67.1442 C   0  0  1  0  0  0  0  0  0  0  0  0
  -29.2650   76.8840   67.1158 N   0  0  0  0  0  4  0  0  0  0  0  0
  -31.0959   75.2610   66.7310 C   0  0  0  0  0  0  0  0  0  0  0  0
  -32.1763   75.2716   67.7156 C   0  0  2  0  0  0  0  0  0  0  0  0
  -32.2648   76.4727   68.6046 C   0  0  0  0  0  0  0  0  0  0  0  0
  -32.3416   74.0428   68.5463 C   0  0  0  0  0  0  0  0  0  0  0  0
  -33.4660   75.3061   66.8593 C   0  0  1  0  0  0  0  0  0  0  0  0
  -33.6598   74.0885   66.2460 F   0  0  0  0  0  0  0  0  0  0  0  0
  -34.5102   75.5140   67.7197 F   0  0  0  0  0  0  0  0  0  0  0  0
  1  2  2  0
  2  3  1  0
  2  4  1  0
  4  5  1  6
  4  6  1  0
  6  7  1  0
  7  8  1  1
  7  9  1  0
  7 10  1  0
 10 11  1  1
 10 12  1  0
M  CHG  1   5   1
M  END
$$$$
