
     RDKit          3D

 12 11  0  0  0  0  0  0  0  0999 V2000
  -29.1720   73.7382   66.2990 O   0  0  0  0  0  0  0  0  0  0  0  0
  -29.6605   74.5567   67.1356 C   0  0  0  0  0  0  0  0  0  0  0  0
  -28.9249   74.7079   68.3129 O   0  0  0  0  0  0  0  0  0  0  0  0
  -30.9244   75.3013   66.8815 C   0  0  1  0  0  0  0  0  0  0  0  0
  -30.9099   75.8163   65.5564 N   0  0  0  0  0  4  0  0  0  0  0  0
  -32.1195   74.5418   67.3019 C   0  0  0  0  0  0  0  0  0  0  0  0
  -33.4130   75.2098   67.4343 C   0  0  2  0  0  0  0  0  0  0  0  0
  -34.6135   74.4517   66.9602 C   0  0  0  0  0  0  0  0  0  0  0  0
  -33.4998   76.6132   66.9341 C   0  0  0  0  0  0  0  0  0  0  0  0
  -33.6058   75.3578   68.9635 C   0  0  1  0  0  0  0  0  0  0  0  0
  -33.5610   74.1215   69.5683 F   0  0  0  0  0  0  0  0  0  0  0  0
  -32.5485   76.0919   69.4294 F   0  0  0  0  0  0  0  0  0  0  0  0
  1  2  2  0
  2  3  1  0
  2  4  1  0
  4  5  1  6
  4  6  1  0
  6  7  1  0
  7  8  1  6
  7  9  1  0
  7 10  1  0
 10 11  1  1
 10 12  1  0
M  CHG  1   5   1
M  END
$$$$
