
     RDKit          3D

 12 11  0  0  0  0  0  0  0  0999 V2000
  -29.7500   73.3232   64.8187 O   0  0  0  0  0  0  0  0  0  0  0  0
  -31.0058   73.4999   64.8027 C   0  0  0  0  0  0  0  0  0  0  0  0
  -31.7381   72.4809   64.1901 O   0  0  0  0  0  0  0  0  0  0  0  0
  -31.6516   74.7043   65.3932 C   0  0  1  0  0  0  0  0  0  0  0  0
  -31.6213   75.7664   64.4486 N   0  0  0  0  0  4  0  0  0  0  0  0
  -32.9503   74.3942   66.0250 C   0  0  0  0  0  0  0  0  0  0  0  0
  -33.2775   74.9275   67.3461 C   0  0  2  0  0  0  0  0  0  0  0  0
  -33.1724   76.4107   67.5181 C   0  0  0  0  0  0  0  0  0  0  0  0
  -32.6398   74.2591   68.5183 C   0  0  0  0  0  0  0  0  0  0  0  0
  -34.7821   74.6056   67.5201 C   0  0  1  0  0  0  0  0  0  0  0  0
  -34.9692   73.2436   67.5972 F   0  0  0  0  0  0  0  0  0  0  0  0
  -35.1710   75.1513   68.7138 F   0  0  0  0  0  0  0  0  0  0  0  0
  1  2  2  0
  2  3  1  0
  2  4  1  0
  4  5  1  6
  4  6  1  0
  6  7  1  0
  7  8  1  6
  7  9  1  0
  7 10  1  0
 10 11  1  1
 10 12  1  0
M  CHG  1   5   1
M  END
$$$$
