
     RDKit          3D

 33 36  0  0  0  0  0  0  0  0999 V2000
    0.7458   69.9130  -28.9824 C   0  0  0  0  0  0  0  0  0  0  0  0
    0.5081   70.4939  -30.3589 C   0  0  0  0  0  0  0  0  0  0  0  0
   -0.6276   71.4397  -30.3440 C   0  0  0  0  0  0  0  0  0  0  0  0
   -1.7987   70.8862  -30.4113 O   0  0  0  0  0  0  0  0  0  0  0  0
   -0.5417   72.8472  -30.2649 N   0  0  0  0  0  0  0  0  0  0  0  0
   -1.4817   73.9298  -30.3503 C   0  0  0  0  0  0  0  0  0  0  0  0
   -0.2848   74.8017  -30.8145 C   0  0  1  0  0  0  0  0  0  0  0  0
    0.4931   73.8409  -30.0567 C   0  0  0  0  0  0  0  0  0  0  0  0
   -0.1748   74.8136  -32.2549 N   0  0  0  0  0  0  0  0  0  0  0  0
    0.6727   75.7146  -32.9431 C   0  0  0  0  0  0  0  0  0  0  0  0
    1.4618   76.3769  -32.2110 O   0  0  0  0  0  0  0  0  0  0  0  0
    0.6220   75.8776  -34.4095 C   0  0  0  0  0  0  0  0  0  0  0  0
    0.3174   77.2410  -34.7154 O   0  0  0  0  0  0  0  0  0  0  0  0
    0.0734   77.5005  -36.0780 C   0  0  0  0  0  0  0  0  0  0  0  0
    0.9570   77.0297  -37.0655 C   0  0  0  0  0  0  0  0  0  0  0  0
    0.7445   77.2777  -38.3887 C   0  0  0  0  0  0  0  0  0  0  0  0
   -0.3816   78.0174  -38.7460 C   0  0  0  0  0  0  0  0  0  0  0  0
   -0.7495   78.4090  -40.6031 Br  0  0  0  0  0  0  0  0  0  0  0  0
   -1.2397   78.4729  -37.7920 C   0  0  0  0  0  0  0  0  0  0  0  0
   -1.0312   78.2218  -36.4227 C   0  0  0  0  0  0  0  0  0  0  0  0
   -2.0194   78.7178  -35.4694 C   0  0  0  0  0  0  0  0  0  0  0  0
   -1.9955   79.9343  -35.0884 O   0  0  0  0  0  0  0  0  0  0  0  0
   -3.0083   77.8600  -34.9740 N   0  0  0  0  0  0  0  0  0  0  0  0
   -3.7999   77.9273  -33.7548 C   0  0  0  0  0  0  0  0  0  0  0  0
   -5.1237   77.4359  -34.2767 C   0  0  0  0  0  0  0  0  0  0  0  0
   -4.9532   76.7055  -35.3616 C   0  0  0  0  0  0  0  0  0  0  0  0
   -3.4806   76.6507  -35.6551 C   0  0  0  0  0  0  0  0  0  0  0  0
   -5.9705   76.0647  -36.1847 C   0  0  0  0  0  0  0  0  0  0  0  0
   -5.6063   75.0916  -37.1271 C   0  0  0  0  0  0  0  0  0  0  0  0
   -6.5206   74.4601  -37.9296 C   0  0  0  0  0  0  0  0  0  0  0  0
   -7.8718   74.7587  -37.8412 C   0  0  0  0  0  0  0  0  0  0  0  0
   -8.2642   75.7170  -36.9152 C   0  0  0  0  0  0  0  0  0  0  0  0
   -7.3087   76.3453  -36.1136 C   0  0  0  0  0  0  0  0  0  0  0  0
  1  2  1  0
  2  3  1  0
  3  4  2  0
  3  5  1  0
  5  6  1  0
  5  8  1  0
  6  7  1  0
  7  8  1  0
  7  9  1  6
  9 10  1  0
 10 11  2  0
 10 12  1  0
 12 13  1  0
 13 14  1  0
 14 15  2  0
 14 20  1  0
 15 16  1  0
 16 17  2  0
 17 18  1  0
 17 19  1  0
 19 20  2  0
 20 21  1  0
 21 22  2  0
 21 23  1  0
 23 24  1  0
 23 27  1  0
 24 25  1  0
 25 26  2  0
 26 27  1  0
 26 28  1  0
 28 29  2  0
 28 33  1  0
 29 30  1  0
 30 31  2  0
 31 32  1  0
 32 33  2  0
M  END
$$$$
