
     RDKit          3D

 33 36  0  0  0  0  0  0  0  0999 V2000
    3.8310   69.2592  -30.0791 C   0  0  0  0  0  0  0  0  0  0  0  0
    2.5804   70.0833  -29.8657 C   0  0  0  0  0  0  0  0  0  0  0  0
    2.8386   71.5137  -30.1335 C   0  0  0  0  0  0  0  0  0  0  0  0
    4.0804   71.8098  -30.3629 O   0  0  0  0  0  0  0  0  0  0  0  0
    1.8751   72.5461  -30.1589 N   0  0  0  0  0  0  0  0  0  0  0  0
    0.4428   72.6029  -30.0681 C   0  0  0  0  0  0  0  0  0  0  0  0
    0.5437   73.9302  -30.8659 C   0  0  1  0  0  0  0  0  0  0  0  0
    1.8656   73.9912  -30.2731 C   0  0  0  0  0  0  0  0  0  0  0  0
    0.4216   73.6965  -32.2862 N   0  0  0  0  0  0  0  0  0  0  0  0
   -0.4497   74.4523  -33.1068 C   0  0  0  0  0  0  0  0  0  0  0  0
   -1.2600   75.1984  -32.4873 O   0  0  0  0  0  0  0  0  0  0  0  0
   -0.4212   74.3585  -34.5798 C   0  0  0  0  0  0  0  0  0  0  0  0
   -0.2009   75.6624  -35.1245 O   0  0  0  0  0  0  0  0  0  0  0  0
   -1.1174   76.0487  -36.1216 C   0  0  0  0  0  0  0  0  0  0  0  0
   -1.4927   75.1495  -37.1357 C   0  0  0  0  0  0  0  0  0  0  0  0
   -2.3706   75.5061  -38.1154 C   0  0  0  0  0  0  0  0  0  0  0  0
   -2.8945   76.7975  -38.0898 C   0  0  0  0  0  0  0  0  0  0  0  0
   -4.1455   77.3757  -39.4456 Br  0  0  0  0  0  0  0  0  0  0  0  0
   -2.5342   77.6695  -37.1081 C   0  0  0  0  0  0  0  0  0  0  0  0
   -1.6296   77.3120  -36.0906 C   0  0  0  0  0  0  0  0  0  0  0  0
   -1.3246   78.2973  -35.0574 C   0  0  0  0  0  0  0  0  0  0  0  0
   -0.5835   79.3009  -35.3205 O   0  0  0  0  0  0  0  0  0  0  0  0
   -1.8543   78.1506  -33.7701 N   0  0  0  0  0  0  0  0  0  0  0  0
   -1.3019   78.5017  -32.4704 C   0  0  0  0  0  0  0  0  0  0  0  0
   -2.5472   78.9946  -31.7831 C   0  0  0  0  0  0  0  0  0  0  0  0
   -3.6233   78.4802  -32.3461 C   0  0  0  0  0  0  0  0  0  0  0  0
   -3.1756   77.5903  -33.4710 C   0  0  0  0  0  0  0  0  0  0  0  0
   -5.0195   78.7153  -32.0020 C   0  0  0  0  0  0  0  0  0  0  0  0
   -5.3645   79.7485  -31.1182 C   0  0  0  0  0  0  0  0  0  0  0  0
   -6.6604   80.0114  -30.7573 C   0  0  0  0  0  0  0  0  0  0  0  0
   -7.7074   79.2553  -31.2619 C   0  0  0  0  0  0  0  0  0  0  0  0
   -7.3978   78.2260  -32.1418 C   0  0  0  0  0  0  0  0  0  0  0  0
   -6.0674   77.9806  -32.4883 C   0  0  0  0  0  0  0  0  0  0  0  0
  1  2  1  0
  2  3  1  0
  3  4  2  0
  3  5  1  0
  5  6  1  0
  5  8  1  0
  6  7  1  0
  7  8  1  0
  7  9  1  6
  9 10  1  0
 10 11  2  0
 10 12  1  0
 12 13  1  0
 13 14  1  0
 14 15  2  0
 14 20  1  0
 15 16  1  0
 16 17  2  0
 17 18  1  0
 17 19  1  0
 19 20  2  0
 20 21  1  0
 21 22  2  0
 21 23  1  0
 23 24  1  0
 23 27  1  0
 24 25  1  0
 25 26  2  0
 26 27  1  0
 26 28  1  0
 28 29  2  0
 28 33  1  0
 29 30  1  0
 30 31  2  0
 31 32  1  0
 32 33  2  0
M  END
$$$$
