
     RDKit          3D

 33 36  0  0  0  0  0  0  0  0999 V2000
    1.2592   69.3924  -27.6035 C   0  0  0  0  0  0  0  0  0  0  0  0
    0.9756   70.0905  -28.9153 C   0  0  0  0  0  0  0  0  0  0  0  0
    0.0469   71.2237  -28.7203 C   0  0  0  0  0  0  0  0  0  0  0  0
   -1.0914   70.9095  -28.1837 O   0  0  0  0  0  0  0  0  0  0  0  0
    0.2921   72.5726  -29.0595 N   0  0  0  0  0  0  0  0  0  0  0  0
   -0.4526   73.7970  -28.9630 C   0  0  0  0  0  0  0  0  0  0  0  0
    0.4112   74.3004  -30.1499 C   0  0  1  0  0  0  0  0  0  0  0  0
    1.3743   73.3460  -29.6358 C   0  0  0  0  0  0  0  0  0  0  0  0
   -0.2335   74.0345  -31.4150 N   0  0  0  0  0  0  0  0  0  0  0  0
   -0.3152   75.0043  -32.4428 C   0  0  0  0  0  0  0  0  0  0  0  0
    0.1626   76.1377  -32.1525 O   0  0  0  0  0  0  0  0  0  0  0  0
   -0.9315   74.7124  -33.7522 C   0  0  0  0  0  0  0  0  0  0  0  0
   -1.2186   75.9460  -34.4162 O   0  0  0  0  0  0  0  0  0  0  0  0
   -2.0027   75.8221  -35.5796 C   0  0  0  0  0  0  0  0  0  0  0  0
   -2.6798   74.6223  -35.8618 C   0  0  0  0  0  0  0  0  0  0  0  0
   -3.4360   74.4783  -36.9866 C   0  0  0  0  0  0  0  0  0  0  0  0
   -3.5245   75.5595  -37.8617 C   0  0  0  0  0  0  0  0  0  0  0  0
   -4.5784   75.4305  -39.4772 Br  0  0  0  0  0  0  0  0  0  0  0  0
   -2.8714   76.7230  -37.5899 C   0  0  0  0  0  0  0  0  0  0  0  0
   -2.0887   76.8837  -36.4310 C   0  0  0  0  0  0  0  0  0  0  0  0
   -1.4505   78.1762  -36.2001 C   0  0  0  0  0  0  0  0  0  0  0  0
   -0.4773   78.5559  -36.9311 O   0  0  0  0  0  0  0  0  0  0  0  0
   -1.9116   79.0134  -35.1774 N   0  0  0  0  0  0  0  0  0  0  0  0
   -1.3639   80.2520  -34.6449 C   0  0  0  0  0  0  0  0  0  0  0  0
   -2.6375   81.0184  -34.4069 C   0  0  0  0  0  0  0  0  0  0  0  0
   -3.6574   80.1936  -34.2691 C   0  0  0  0  0  0  0  0  0  0  0  0
   -3.1384   78.7902  -34.4066 C   0  0  0  0  0  0  0  0  0  0  0  0
   -5.0593   80.5239  -34.0490 C   0  0  0  0  0  0  0  0  0  0  0  0
   -5.4155   81.4941  -33.1006 C   0  0  0  0  0  0  0  0  0  0  0  0
   -6.7179   81.8409  -32.8504 C   0  0  0  0  0  0  0  0  0  0  0  0
   -7.7599   81.2389  -33.5391 C   0  0  0  0  0  0  0  0  0  0  0  0
   -7.4388   80.2754  -34.4868 C   0  0  0  0  0  0  0  0  0  0  0  0
   -6.1026   79.9413  -34.7173 C   0  0  0  0  0  0  0  0  0  0  0  0
  1  2  1  0
  2  3  1  0
  3  4  2  0
  3  5  1  0
  5  6  1  0
  5  8  1  0
  6  7  1  0
  7  8  1  0
  7  9  1  6
  9 10  1  0
 10 11  2  0
 10 12  1  0
 12 13  1  0
 13 14  1  0
 14 15  2  0
 14 20  1  0
 15 16  1  0
 16 17  2  0
 17 18  1  0
 17 19  1  0
 19 20  2  0
 20 21  1  0
 21 22  2  0
 21 23  1  0
 23 24  1  0
 23 27  1  0
 24 25  1  0
 25 26  2  0
 26 27  1  0
 26 28  1  0
 28 29  2  0
 28 33  1  0
 29 30  1  0
 30 31  2  0
 31 32  1  0
 32 33  2  0
M  END
$$$$
