
     RDKit          3D

 33 36  0  0  0  0  0  0  0  0999 V2000
    1.5421   72.8112  -24.8321 C   0  0  0  0  0  0  0  0  0  0  0  0
    1.8024   73.5912  -26.1020 C   0  0  0  0  0  0  0  0  0  0  0  0
    2.0464   72.6804  -27.2403 C   0  0  0  0  0  0  0  0  0  0  0  0
    3.2556   72.2176  -27.3185 O   0  0  0  0  0  0  0  0  0  0  0  0
    1.1015   72.2883  -28.2139 N   0  0  0  0  0  0  0  0  0  0  0  0
    1.0195   71.2325  -29.1844 C   0  0  0  0  0  0  0  0  0  0  0  0
    0.0863   72.1772  -29.9874 C   0  0  1  0  0  0  0  0  0  0  0  0
   -0.1961   72.7363  -28.6797 C   0  0  0  0  0  0  0  0  0  0  0  0
    0.8343   72.9643  -30.9403 N   0  0  0  0  0  0  0  0  0  0  0  0
    0.2118   73.8809  -31.8212 C   0  0  0  0  0  0  0  0  0  0  0  0
   -1.0488   73.9287  -31.7453 O   0  0  0  0  0  0  0  0  0  0  0  0
    0.9836   74.7066  -32.7710 C   0  0  0  0  0  0  0  0  0  0  0  0
    0.1235   75.7073  -33.3225 O   0  0  0  0  0  0  0  0  0  0  0  0
    0.5351   76.2185  -34.5686 C   0  0  0  0  0  0  0  0  0  0  0  0
    1.6032   75.6277  -35.2670 C   0  0  0  0  0  0  0  0  0  0  0  0
    2.0234   76.1126  -36.4695 C   0  0  0  0  0  0  0  0  0  0  0  0
    1.3632   77.2205  -36.9981 C   0  0  0  0  0  0  0  0  0  0  0  0
    1.9024   77.9644  -38.6991 Br  0  0  0  0  0  0  0  0  0  0  0  0
    0.3277   77.7934  -36.3247 C   0  0  0  0  0  0  0  0  0  0  0  0
   -0.1158   77.3007  -35.0830 C   0  0  0  0  0  0  0  0  0  0  0  0
   -1.2553   77.9538  -34.4457 C   0  0  0  0  0  0  0  0  0  0  0  0
   -1.1105   79.0751  -33.8563 O   0  0  0  0  0  0  0  0  0  0  0  0
   -2.5200   77.3554  -34.4869 N   0  0  0  0  0  0  0  0  0  0  0  0
   -3.6190   77.3916  -33.5338 C   0  0  0  0  0  0  0  0  0  0  0  0
   -4.7849   77.4608  -34.4837 C   0  0  0  0  0  0  0  0  0  0  0  0
   -4.4528   76.9729  -35.6632 C   0  0  0  0  0  0  0  0  0  0  0  0
   -3.0176   76.5332  -35.5939 C   0  0  0  0  0  0  0  0  0  0  0  0
   -5.2757   76.8761  -36.8617 C   0  0  0  0  0  0  0  0  0  0  0  0
   -4.7518   76.3116  -38.0341 C   0  0  0  0  0  0  0  0  0  0  0  0
   -5.4796   76.1992  -39.1902 C   0  0  0  0  0  0  0  0  0  0  0  0
   -6.7914   76.6439  -39.2519 C   0  0  0  0  0  0  0  0  0  0  0  0
   -7.3394   77.2059  -38.1058 C   0  0  0  0  0  0  0  0  0  0  0  0
   -6.5718   77.3094  -36.9438 C   0  0  0  0  0  0  0  0  0  0  0  0
  1  2  1  0
  2  3  1  0
  3  4  2  0
  3  5  1  0
  5  6  1  0
  5  8  1  0
  6  7  1  0
  7  8  1  0
  7  9  1  6
  9 10  1  0
 10 11  2  0
 10 12  1  0
 12 13  1  0
 13 14  1  0
 14 15  2  0
 14 20  1  0
 15 16  1  0
 16 17  2  0
 17 18  1  0
 17 19  1  0
 19 20  2  0
 20 21  1  0
 21 22  2  0
 21 23  1  0
 23 24  1  0
 23 27  1  0
 24 25  1  0
 25 26  2  0
 26 27  1  0
 26 28  1  0
 28 29  2  0
 28 33  1  0
 29 30  1  0
 30 31  2  0
 31 32  1  0
 32 33  2  0
M  END
$$$$
