
     RDKit          3D

 33 36  0  0  0  0  0  0  0  0999 V2000
    0.1761   71.0024  -25.7333 C   0  0  0  0  0  0  0  0  0  0  0  0
    0.0595   70.8803  -27.2367 C   0  0  0  0  0  0  0  0  0  0  0  0
    0.6624   72.0501  -27.9096 C   0  0  0  0  0  0  0  0  0  0  0  0
    1.1237   72.9612  -27.1099 O   0  0  0  0  0  0  0  0  0  0  0  0
    0.7722   72.2471  -29.3039 N   0  0  0  0  0  0  0  0  0  0  0  0
    1.6980   72.9286  -30.1649 C   0  0  0  0  0  0  0  0  0  0  0  0
    0.5202   73.0544  -31.1675 C   0  0  1  0  0  0  0  0  0  0  0  0
    0.0396   71.8633  -30.4945 C   0  0  0  0  0  0  0  0  0  0  0  0
   -0.1907   74.2987  -30.9847 N   0  0  0  0  0  0  0  0  0  0  0  0
    0.0143   75.4193  -31.8249 C   0  0  0  0  0  0  0  0  0  0  0  0
    0.9898   75.3227  -32.6225 O   0  0  0  0  0  0  0  0  0  0  0  0
   -0.8426   76.6196  -31.7578 C   0  0  0  0  0  0  0  0  0  0  0  0
   -1.2988   76.9394  -33.0749 O   0  0  0  0  0  0  0  0  0  0  0  0
   -1.9187   78.1982  -33.1960 C   0  0  0  0  0  0  0  0  0  0  0  0
   -2.7400   78.6933  -32.1674 C   0  0  0  0  0  0  0  0  0  0  0  0
   -3.3567   79.9045  -32.2685 C   0  0  0  0  0  0  0  0  0  0  0  0
   -3.1532   80.6507  -33.4281 C   0  0  0  0  0  0  0  0  0  0  0  0
   -3.9945   82.3779  -33.6437 Br  0  0  0  0  0  0  0  0  0  0  0  0
   -2.3571   80.1744  -34.4248 C   0  0  0  0  0  0  0  0  0  0  0  0
   -1.7141   78.9257  -34.3310 C   0  0  0  0  0  0  0  0  0  0  0  0
   -0.8507   78.5069  -35.4312 C   0  0  0  0  0  0  0  0  0  0  0  0
    0.4108   78.4223  -35.2662 O   0  0  0  0  0  0  0  0  0  0  0  0
   -1.4059   78.1852  -36.6751 N   0  0  0  0  0  0  0  0  0  0  0  0
   -0.7710   77.8171  -37.9317 C   0  0  0  0  0  0  0  0  0  0  0  0
   -1.7359   76.7665  -38.4127 C   0  0  0  0  0  0  0  0  0  0  0  0
   -2.9226   76.9393  -37.8639 C   0  0  0  0  0  0  0  0  0  0  0  0
   -2.8433   78.1363  -36.9591 C   0  0  0  0  0  0  0  0  0  0  0  0
   -4.1233   76.1334  -38.0424 C   0  0  0  0  0  0  0  0  0  0  0  0
   -4.0907   74.9873  -38.8505 C   0  0  0  0  0  0  0  0  0  0  0  0
   -5.1905   74.1956  -39.0561 C   0  0  0  0  0  0  0  0  0  0  0  0
   -6.4059   74.4965  -38.4605 C   0  0  0  0  0  0  0  0  0  0  0  0
   -6.4695   75.6245  -37.6522 C   0  0  0  0  0  0  0  0  0  0  0  0
   -5.3324   76.4132  -37.4642 C   0  0  0  0  0  0  0  0  0  0  0  0
  1  2  1  0
  2  3  1  0
  3  4  2  0
  3  5  1  0
  5  6  1  0
  5  8  1  0
  6  7  1  0
  7  8  1  0
  7  9  1  1
  9 10  1  0
 10 11  2  0
 10 12  1  0
 12 13  1  0
 13 14  1  0
 14 15  2  0
 14 20  1  0
 15 16  1  0
 16 17  2  0
 17 18  1  0
 17 19  1  0
 19 20  2  0
 20 21  1  0
 21 22  2  0
 21 23  1  0
 23 24  1  0
 23 27  1  0
 24 25  1  0
 25 26  2  0
 26 27  1  0
 26 28  1  0
 28 29  2  0
 28 33  1  0
 29 30  1  0
 30 31  2  0
 31 32  1  0
 32 33  2  0
M  END
$$$$
