
     RDKit          3D

 33 36  0  0  0  0  0  0  0  0999 V2000
   -0.8427   70.0048  -29.2359 C   0  0  0  0  0  0  0  0  0  0  0  0
    0.0746   70.9448  -29.9868 C   0  0  0  0  0  0  0  0  0  0  0  0
   -0.5482   72.2759  -30.1448 C   0  0  0  0  0  0  0  0  0  0  0  0
   -1.8241   72.3116  -29.9139 O   0  0  0  0  0  0  0  0  0  0  0  0
    0.1121   73.4686  -30.5137 N   0  0  0  0  0  0  0  0  0  0  0  0
   -0.2259   74.8645  -30.4987 C   0  0  0  0  0  0  0  0  0  0  0  0
    0.8006   75.0241  -31.6516 C   0  0  1  0  0  0  0  0  0  0  0  0
    1.4027   73.8480  -31.0540 C   0  0  0  0  0  0  0  0  0  0  0  0
    0.1604   74.9061  -32.9412 N   0  0  0  0  0  0  0  0  0  0  0  0
   -1.0323   74.1677  -33.1307 C   0  0  0  0  0  0  0  0  0  0  0  0
   -1.1389   73.1265  -32.4224 O   0  0  0  0  0  0  0  0  0  0  0  0
   -2.0664   74.5795  -34.1006 C   0  0  0  0  0  0  0  0  0  0  0  0
   -1.4275   75.0293  -35.2984 O   0  0  0  0  0  0  0  0  0  0  0  0
   -2.2985   75.5630  -36.2679 C   0  0  0  0  0  0  0  0  0  0  0  0
   -3.2597   74.7483  -36.8924 C   0  0  0  0  0  0  0  0  0  0  0  0
   -4.1058   75.2425  -37.8397 C   0  0  0  0  0  0  0  0  0  0  0  0
   -3.9959   76.5896  -38.1804 C   0  0  0  0  0  0  0  0  0  0  0  0
   -5.1614   77.3623  -39.5153 Br  0  0  0  0  0  0  0  0  0  0  0  0
   -3.0672   77.3811  -37.5760 C   0  0  0  0  0  0  0  0  0  0  0  0
   -2.1891   76.8821  -36.5955 C   0  0  0  0  0  0  0  0  0  0  0  0
   -1.2471   77.8080  -35.9738 C   0  0  0  0  0  0  0  0  0  0  0  0
   -0.2162   78.2051  -36.6105 O   0  0  0  0  0  0  0  0  0  0  0  0
   -1.4763   78.2744  -34.6742 N   0  0  0  0  0  0  0  0  0  0  0  0
   -0.6362   79.0652  -33.7873 C   0  0  0  0  0  0  0  0  0  0  0  0
   -1.6814   79.9446  -33.1545 C   0  0  0  0  0  0  0  0  0  0  0  0
   -2.8695   79.3756  -33.2209 C   0  0  0  0  0  0  0  0  0  0  0  0
   -2.7098   78.0520  -33.9139 C   0  0  0  0  0  0  0  0  0  0  0  0
   -4.1456   79.8979  -32.7501 C   0  0  0  0  0  0  0  0  0  0  0  0
   -5.1304   79.0245  -32.2653 C   0  0  0  0  0  0  0  0  0  0  0  0
   -6.3489   79.4609  -31.8140 C   0  0  0  0  0  0  0  0  0  0  0  0
   -6.6665   80.8106  -31.8137 C   0  0  0  0  0  0  0  0  0  0  0  0
   -5.7105   81.7010  -32.2859 C   0  0  0  0  0  0  0  0  0  0  0  0
   -4.4791   81.2258  -32.7419 C   0  0  0  0  0  0  0  0  0  0  0  0
  1  2  1  0
  2  3  1  0
  3  4  2  0
  3  5  1  0
  5  6  1  0
  5  8  1  0
  6  7  1  0
  7  8  1  0
  7  9  1  6
  9 10  1  0
 10 11  2  0
 10 12  1  0
 12 13  1  0
 13 14  1  0
 14 15  2  0
 14 20  1  0
 15 16  1  0
 16 17  2  0
 17 18  1  0
 17 19  1  0
 19 20  2  0
 20 21  1  0
 21 22  2  0
 21 23  1  0
 23 24  1  0
 23 27  1  0
 24 25  1  0
 25 26  2  0
 26 27  1  0
 26 28  1  0
 28 29  2  0
 28 33  1  0
 29 30  1  0
 30 31  2  0
 31 32  1  0
 32 33  2  0
M  END
$$$$
