
     RDKit          3D

 33 36  0  0  0  0  0  0  0  0999 V2000
    0.7101   69.3720  -28.0573 C   0  0  0  0  0  0  0  0  0  0  0  0
    0.7069   70.4485  -29.1203 C   0  0  0  0  0  0  0  0  0  0  0  0
   -0.5777   70.4650  -29.8511 C   0  0  0  0  0  0  0  0  0  0  0  0
   -0.8276   69.3937  -30.5385 O   0  0  0  0  0  0  0  0  0  0  0  0
   -1.5205   71.5165  -29.8597 N   0  0  0  0  0  0  0  0  0  0  0  0
   -2.9260   71.6200  -30.1371 C   0  0  0  0  0  0  0  0  0  0  0  0
   -2.6433   73.1004  -30.5070 C   0  0  1  0  0  0  0  0  0  0  0  0
   -1.5290   72.9413  -29.5928 C   0  0  0  0  0  0  0  0  0  0  0  0
   -2.3769   73.2443  -31.9195 N   0  0  0  0  0  0  0  0  0  0  0  0
   -2.5756   74.4651  -32.6079 C   0  0  0  0  0  0  0  0  0  0  0  0
   -2.9550   75.4327  -31.8890 O   0  0  0  0  0  0  0  0  0  0  0  0
   -2.3697   74.5889  -34.0646 C   0  0  0  0  0  0  0  0  0  0  0  0
   -2.2890   75.9752  -34.4065 O   0  0  0  0  0  0  0  0  0  0  0  0
   -2.6917   76.2841  -35.7202 C   0  0  0  0  0  0  0  0  0  0  0  0
   -2.2674   75.4937  -36.8033 C   0  0  0  0  0  0  0  0  0  0  0  0
   -2.6378   75.7806  -38.0832 C   0  0  0  0  0  0  0  0  0  0  0  0
   -3.4562   76.8883  -38.2976 C   0  0  0  0  0  0  0  0  0  0  0  0
   -4.0229   77.3580  -40.0853 Br  0  0  0  0  0  0  0  0  0  0  0  0
   -3.8698   77.6542  -37.2506 C   0  0  0  0  0  0  0  0  0  0  0  0
   -3.4949   77.3669  -35.9246 C   0  0  0  0  0  0  0  0  0  0  0  0
   -4.0115   78.2199  -34.8585 C   0  0  0  0  0  0  0  0  0  0  0  0
   -5.2118   78.0872  -34.4494 O   0  0  0  0  0  0  0  0  0  0  0  0
   -3.1859   79.1851  -34.2702 N   0  0  0  0  0  0  0  0  0  0  0  0
   -3.5123   80.4479  -33.6249 C   0  0  0  0  0  0  0  0  0  0  0  0
   -2.5112   80.4317  -32.5006 C   0  0  0  0  0  0  0  0  0  0  0  0
   -1.4872   79.6568  -32.8013 C   0  0  0  0  0  0  0  0  0  0  0  0
   -1.7267   79.0850  -34.1701 C   0  0  0  0  0  0  0  0  0  0  0  0
   -0.3198   79.3502  -31.9852 C   0  0  0  0  0  0  0  0  0  0  0  0
   -0.2783   79.7388  -30.6380 C   0  0  0  0  0  0  0  0  0  0  0  0
    0.7953   79.4799  -29.8261 C   0  0  0  0  0  0  0  0  0  0  0  0
    1.9072   78.8069  -30.3090 C   0  0  0  0  0  0  0  0  0  0  0  0
    1.8952   78.4069  -31.6392 C   0  0  0  0  0  0  0  0  0  0  0  0
    0.7878   78.6878  -32.4423 C   0  0  0  0  0  0  0  0  0  0  0  0
  1  2  1  0
  2  3  1  0
  3  4  2  0
  3  5  1  0
  5  6  1  0
  5  8  1  0
  6  7  1  0
  7  8  1  0
  7  9  1  6
  9 10  1  0
 10 11  2  0
 10 12  1  0
 12 13  1  0
 13 14  1  0
 14 15  2  0
 14 20  1  0
 15 16  1  0
 16 17  2  0
 17 18  1  0
 17 19  1  0
 19 20  2  0
 20 21  1  0
 21 22  2  0
 21 23  1  0
 23 24  1  0
 23 27  1  0
 24 25  1  0
 25 26  2  0
 26 27  1  0
 26 28  1  0
 28 29  2  0
 28 33  1  0
 29 30  1  0
 30 31  2  0
 31 32  1  0
 32 33  2  0
M  END
$$$$
