
     RDKit          3D

 33 36  0  0  0  0  0  0  0  0999 V2000
    0.9137   69.7817  -26.5794 C   0  0  0  0  0  0  0  0  0  0  0  0
    0.6488   71.2609  -26.4039 C   0  0  0  0  0  0  0  0  0  0  0  0
    1.7763   72.0642  -26.9214 C   0  0  0  0  0  0  0  0  0  0  0  0
    2.9266   71.4650  -26.9021 O   0  0  0  0  0  0  0  0  0  0  0  0
    1.7031   73.3845  -27.4175 N   0  0  0  0  0  0  0  0  0  0  0  0
    0.6393   74.3076  -27.6990 C   0  0  0  0  0  0  0  0  0  0  0  0
    1.6056   74.9547  -28.7264 C   0  0  1  0  0  0  0  0  0  0  0  0
    2.6289   74.4106  -27.8549 C   0  0  0  0  0  0  0  0  0  0  0  0
    1.4282   74.3843  -30.0417 N   0  0  0  0  0  0  0  0  0  0  0  0
    0.9278   75.1351  -31.1324 C   0  0  0  0  0  0  0  0  0  0  0  0
    0.2635   76.1633  -30.8183 O   0  0  0  0  0  0  0  0  0  0  0  0
    1.1540   74.7316  -32.5344 C   0  0  0  0  0  0  0  0  0  0  0  0
    0.2394   75.4398  -33.3753 O   0  0  0  0  0  0  0  0  0  0  0  0
    0.7384   75.7603  -34.6527 C   0  0  0  0  0  0  0  0  0  0  0  0
    2.0516   76.2385  -34.8088 C   0  0  0  0  0  0  0  0  0  0  0  0
    2.5508   76.5633  -36.0347 C   0  0  0  0  0  0  0  0  0  0  0  0
    1.7209   76.4094  -37.1439 C   0  0  0  0  0  0  0  0  0  0  0  0
    2.3587   76.8493  -38.9151 Br  0  0  0  0  0  0  0  0  0  0  0  0
    0.4495   75.9449  -36.9958 C   0  0  0  0  0  0  0  0  0  0  0  0
   -0.0763   75.6050  -35.7351 C   0  0  0  0  0  0  0  0  0  0  0  0
   -1.4378   75.0821  -35.6707 C   0  0  0  0  0  0  0  0  0  0  0  0
   -1.6506   73.8261  -35.7264 O   0  0  0  0  0  0  0  0  0  0  0  0
   -2.5204   75.9590  -35.5369 N   0  0  0  0  0  0  0  0  0  0  0  0
   -2.5560   77.3970  -35.3167 C   0  0  0  0  0  0  0  0  0  0  0  0
   -3.7254   77.7652  -36.1903 C   0  0  0  0  0  0  0  0  0  0  0  0
   -4.5165   76.7253  -36.3701 C   0  0  0  0  0  0  0  0  0  0  0  0
   -3.9294   75.5630  -35.6204 C   0  0  0  0  0  0  0  0  0  0  0  0
   -5.7368   76.6487  -37.1626 C   0  0  0  0  0  0  0  0  0  0  0  0
   -6.3654   75.4125  -37.3732 C   0  0  0  0  0  0  0  0  0  0  0  0
   -7.5120   75.2822  -38.1129 C   0  0  0  0  0  0  0  0  0  0  0  0
   -8.1142   76.3879  -38.6937 C   0  0  0  0  0  0  0  0  0  0  0  0
   -7.5165   77.6269  -38.5011 C   0  0  0  0  0  0  0  0  0  0  0  0
   -6.3467   77.7273  -37.7448 C   0  0  0  0  0  0  0  0  0  0  0  0
  1  2  1  0
  2  3  1  0
  3  4  2  0
  3  5  1  0
  5  6  1  0
  5  8  1  0
  6  7  1  0
  7  8  1  0
  7  9  1  6
  9 10  1  0
 10 11  2  0
 10 12  1  0
 12 13  1  0
 13 14  1  0
 14 15  2  0
 14 20  1  0
 15 16  1  0
 16 17  2  0
 17 18  1  0
 17 19  1  0
 19 20  2  0
 20 21  1  0
 21 22  2  0
 21 23  1  0
 23 24  1  0
 23 27  1  0
 24 25  1  0
 25 26  2  0
 26 27  1  0
 26 28  1  0
 28 29  2  0
 28 33  1  0
 29 30  1  0
 30 31  2  0
 31 32  1  0
 32 33  2  0
M  END
$$$$
