
     RDKit          3D

 33 36  0  0  0  0  0  0  0  0999 V2000
    0.3730   70.0882  -27.2259 C   0  0  0  0  0  0  0  0  0  0  0  0
    0.2841   70.3808  -28.7075 C   0  0  0  0  0  0  0  0  0  0  0  0
   -0.4472   71.6414  -28.9537 C   0  0  0  0  0  0  0  0  0  0  0  0
   -1.7314   71.5681  -28.7867 O   0  0  0  0  0  0  0  0  0  0  0  0
    0.1210   72.8747  -29.3420 N   0  0  0  0  0  0  0  0  0  0  0  0
   -0.3477   74.2300  -29.4222 C   0  0  0  0  0  0  0  0  0  0  0  0
    0.7357   74.4358  -30.5140 C   0  0  1  0  0  0  0  0  0  0  0  0
    1.4039   73.3532  -29.8182 C   0  0  0  0  0  0  0  0  0  0  0  0
    0.1993   74.1962  -31.8339 N   0  0  0  0  0  0  0  0  0  0  0  0
   -0.5074   75.1873  -32.5563 C   0  0  0  0  0  0  0  0  0  0  0  0
   -0.8353   76.2089  -31.8885 O   0  0  0  0  0  0  0  0  0  0  0  0
   -0.8496   75.0260  -33.9834 C   0  0  0  0  0  0  0  0  0  0  0  0
   -1.9143   75.9230  -34.3103 O   0  0  0  0  0  0  0  0  0  0  0  0
   -2.3232   75.8885  -35.6576 C   0  0  0  0  0  0  0  0  0  0  0  0
   -2.8380   74.7064  -36.2192 C   0  0  0  0  0  0  0  0  0  0  0  0
   -3.2305   74.6489  -37.5231 C   0  0  0  0  0  0  0  0  0  0  0  0
   -3.1086   75.8015  -38.2974 C   0  0  0  0  0  0  0  0  0  0  0  0
   -3.6448   75.7969  -40.1547 Br  0  0  0  0  0  0  0  0  0  0  0  0
   -2.6121   76.9478  -37.7557 C   0  0  0  0  0  0  0  0  0  0  0  0
   -2.2049   77.0195  -36.4101 C   0  0  0  0  0  0  0  0  0  0  0  0
   -1.7163   78.2977  -35.9015 C   0  0  0  0  0  0  0  0  0  0  0  0
   -0.5135   78.4138  -35.4946 O   0  0  0  0  0  0  0  0  0  0  0  0
   -2.5658   79.4096  -35.8668 N   0  0  0  0  0  0  0  0  0  0  0  0
   -3.9603   79.5517  -36.2577 C   0  0  0  0  0  0  0  0  0  0  0  0
   -4.4429   80.4731  -35.1693 C   0  0  0  0  0  0  0  0  0  0  0  0
   -3.4364   81.1545  -34.6572 C   0  0  0  0  0  0  0  0  0  0  0  0
   -2.1833   80.7359  -35.3729 C   0  0  0  0  0  0  0  0  0  0  0  0
   -3.4672   82.1295  -33.5749 C   0  0  0  0  0  0  0  0  0  0  0  0
   -2.3585   82.9552  -33.3366 C   0  0  0  0  0  0  0  0  0  0  0  0
   -2.3319   83.8860  -32.3308 C   0  0  0  0  0  0  0  0  0  0  0  0
   -3.4216   84.0580  -31.4908 C   0  0  0  0  0  0  0  0  0  0  0  0
   -4.5360   83.2564  -31.7031 C   0  0  0  0  0  0  0  0  0  0  0  0
   -4.5320   82.3147  -32.7344 C   0  0  0  0  0  0  0  0  0  0  0  0
  1  2  1  0
  2  3  1  0
  3  4  2  0
  3  5  1  0
  5  6  1  0
  5  8  1  0
  6  7  1  0
  7  8  1  0
  7  9  1  6
  9 10  1  0
 10 11  2  0
 10 12  1  0
 12 13  1  0
 13 14  1  0
 14 15  2  0
 14 20  1  0
 15 16  1  0
 16 17  2  0
 17 18  1  0
 17 19  1  0
 19 20  2  0
 20 21  1  0
 21 22  2  0
 21 23  1  0
 23 24  1  0
 23 27  1  0
 24 25  1  0
 25 26  2  0
 26 27  1  0
 26 28  1  0
 28 29  2  0
 28 33  1  0
 29 30  1  0
 30 31  2  0
 31 32  1  0
 32 33  2  0
M  END
$$$$
