
     RDKit          3D

 33 36  0  0  0  0  0  0  0  0999 V2000
   -0.5210   70.5649  -27.6333 C   0  0  0  0  0  0  0  0  0  0  0  0
   -0.9673   70.7005  -29.0725 C   0  0  0  0  0  0  0  0  0  0  0  0
    0.0091   71.4860  -29.8562 C   0  0  0  0  0  0  0  0  0  0  0  0
    0.9637   70.7903  -30.3922 O   0  0  0  0  0  0  0  0  0  0  0  0
   -0.0144   72.8833  -30.0606 N   0  0  0  0  0  0  0  0  0  0  0  0
   -0.9490   73.9368  -29.7786 C   0  0  0  0  0  0  0  0  0  0  0  0
   -0.2928   74.7007  -30.9593 C   0  0  1  0  0  0  0  0  0  0  0  0
    0.8626   73.8923  -30.6211 C   0  0  0  0  0  0  0  0  0  0  0  0
   -0.9895   74.4450  -32.1987 N   0  0  0  0  0  0  0  0  0  0  0  0
   -1.5991   75.4765  -32.9524 C   0  0  0  0  0  0  0  0  0  0  0  0
   -1.7804   76.5619  -32.3310 O   0  0  0  0  0  0  0  0  0  0  0  0
   -2.0078   75.2867  -34.3583 C   0  0  0  0  0  0  0  0  0  0  0  0
   -3.4337   75.1958  -34.4197 O   0  0  0  0  0  0  0  0  0  0  0  0
   -4.0338   75.9888  -35.4170 C   0  0  0  0  0  0  0  0  0  0  0  0
   -5.2507   76.6491  -35.1703 C   0  0  0  0  0  0  0  0  0  0  0  0
   -5.8529   77.4135  -36.1245 C   0  0  0  0  0  0  0  0  0  0  0  0
   -5.2287   77.5276  -37.3655 C   0  0  0  0  0  0  0  0  0  0  0  0
   -6.0225   78.5945  -38.7687 Br  0  0  0  0  0  0  0  0  0  0  0  0
   -4.0496   76.8907  -37.6064 C   0  0  0  0  0  0  0  0  0  0  0  0
   -3.4177   76.0998  -36.6283 C   0  0  0  0  0  0  0  0  0  0  0  0
   -2.1380   75.4802  -36.9593 C   0  0  0  0  0  0  0  0  0  0  0  0
   -2.0317   74.2112  -37.0219 O   0  0  0  0  0  0  0  0  0  0  0  0
   -1.0187   76.2791  -37.2206 N   0  0  0  0  0  0  0  0  0  0  0  0
   -0.5982   77.5443  -36.6375 C   0  0  0  0  0  0  0  0  0  0  0  0
    0.8895   77.3220  -36.5785 C   0  0  0  0  0  0  0  0  0  0  0  0
    1.2592   76.4155  -37.4623 C   0  0  0  0  0  0  0  0  0  0  0  0
    0.0297   75.9533  -38.1921 C   0  0  0  0  0  0  0  0  0  0  0  0
    2.5971   75.8958  -37.7135 C   0  0  0  0  0  0  0  0  0  0  0  0
    2.7661   74.6121  -38.2531 C   0  0  0  0  0  0  0  0  0  0  0  0
    4.0005   74.0726  -38.5057 C   0  0  0  0  0  0  0  0  0  0  0  0
    5.1583   74.7866  -38.2370 C   0  0  0  0  0  0  0  0  0  0  0  0
    5.0235   76.0624  -37.7041 C   0  0  0  0  0  0  0  0  0  0  0  0
    3.7522   76.5838  -37.4549 C   0  0  0  0  0  0  0  0  0  0  0  0
  1  2  1  0
  2  3  1  0
  3  4  2  0
  3  5  1  0
  5  6  1  0
  5  8  1  0
  6  7  1  0
  7  8  1  0
  7  9  1  6
  9 10  1  0
 10 11  2  0
 10 12  1  0
 12 13  1  0
 13 14  1  0
 14 15  2  0
 14 20  1  0
 15 16  1  0
 16 17  2  0
 17 18  1  0
 17 19  1  0
 19 20  2  0
 20 21  1  0
 21 22  2  0
 21 23  1  0
 23 24  1  0
 23 27  1  0
 24 25  1  0
 25 26  2  0
 26 27  1  0
 26 28  1  0
 28 29  2  0
 28 33  1  0
 29 30  1  0
 30 31  2  0
 31 32  1  0
 32 33  2  0
M  END
$$$$
