
     RDKit          3D

 33 36  0  0  0  0  0  0  0  0999 V2000
    0.7601   69.7850  -27.9299 C   0  0  0  0  0  0  0  0  0  0  0  0
    0.1410   71.1488  -27.7166 C   0  0  0  0  0  0  0  0  0  0  0  0
   -0.3274   71.7219  -28.9959 C   0  0  0  0  0  0  0  0  0  0  0  0
   -1.1271   70.9588  -29.6747 O   0  0  0  0  0  0  0  0  0  0  0  0
    0.0142   72.9887  -29.5187 N   0  0  0  0  0  0  0  0  0  0  0  0
   -0.5402   74.3104  -29.4256 C   0  0  0  0  0  0  0  0  0  0  0  0
    0.1366   74.5837  -30.7950 C   0  0  1  0  0  0  0  0  0  0  0  0
    1.0539   73.5486  -30.3594 C   0  0  0  0  0  0  0  0  0  0  0  0
   -0.7660   74.3067  -31.8884 N   0  0  0  0  0  0  0  0  0  0  0  0
   -1.3343   75.3328  -32.6809 C   0  0  0  0  0  0  0  0  0  0  0  0
   -1.4788   76.4449  -32.0984 O   0  0  0  0  0  0  0  0  0  0  0  0
   -1.7432   75.1091  -34.0817 C   0  0  0  0  0  0  0  0  0  0  0  0
   -2.5485   76.2097  -34.5122 O   0  0  0  0  0  0  0  0  0  0  0  0
   -2.9330   76.1662  -35.8664 C   0  0  0  0  0  0  0  0  0  0  0  0
   -3.7286   75.1127  -36.3510 C   0  0  0  0  0  0  0  0  0  0  0  0
   -4.1038   75.0466  -37.6596 C   0  0  0  0  0  0  0  0  0  0  0  0
   -3.6762   76.0585  -38.5176 C   0  0  0  0  0  0  0  0  0  0  0  0
   -4.1685   76.0330  -40.3869 Br  0  0  0  0  0  0  0  0  0  0  0  0
   -2.9073   77.0806  -38.0506 C   0  0  0  0  0  0  0  0  0  0  0  0
   -2.5148   77.1601  -36.7011 C   0  0  0  0  0  0  0  0  0  0  0  0
   -1.7189   78.3083  -36.2778 C   0  0  0  0  0  0  0  0  0  0  0  0
   -0.4626   78.1912  -36.0945 O   0  0  0  0  0  0  0  0  0  0  0  0
   -2.3312   79.5513  -36.0795 N   0  0  0  0  0  0  0  0  0  0  0  0
   -3.6425   80.0385  -36.4804 C   0  0  0  0  0  0  0  0  0  0  0  0
   -3.9997   80.8533  -35.2660 C   0  0  0  0  0  0  0  0  0  0  0  0
   -2.9120   81.2216  -34.6173 C   0  0  0  0  0  0  0  0  0  0  0  0
   -1.7247   80.6738  -35.3574 C   0  0  0  0  0  0  0  0  0  0  0  0
   -2.8163   81.9961  -33.3868 C   0  0  0  0  0  0  0  0  0  0  0  0
   -3.9776   82.4689  -32.7580 C   0  0  0  0  0  0  0  0  0  0  0  0
   -3.9456   83.2047  -31.6020 C   0  0  0  0  0  0  0  0  0  0  0  0
   -2.7414   83.5173  -30.9900 C   0  0  0  0  0  0  0  0  0  0  0  0
   -1.5734   83.0611  -31.5877 C   0  0  0  0  0  0  0  0  0  0  0  0
   -1.6381   82.3160  -32.7671 C   0  0  0  0  0  0  0  0  0  0  0  0
  1  2  1  0
  2  3  1  0
  3  4  2  0
  3  5  1  0
  5  6  1  0
  5  8  1  0
  6  7  1  0
  7  8  1  0
  7  9  1  6
  9 10  1  0
 10 11  2  0
 10 12  1  0
 12 13  1  0
 13 14  1  0
 14 15  2  0
 14 20  1  0
 15 16  1  0
 16 17  2  0
 17 18  1  0
 17 19  1  0
 19 20  2  0
 20 21  1  0
 21 22  2  0
 21 23  1  0
 23 24  1  0
 23 27  1  0
 24 25  1  0
 25 26  2  0
 26 27  1  0
 26 28  1  0
 28 29  2  0
 28 33  1  0
 29 30  1  0
 30 31  2  0
 31 32  1  0
 32 33  2  0
M  END
$$$$
