
     RDKit          3D

 33 36  0  0  0  0  0  0  0  0999 V2000
   -3.8095   81.8709  -25.8312 C   0  0  0  0  0  0  0  0  0  0  0  0
   -3.7811   81.5040  -27.2986 C   0  0  0  0  0  0  0  0  0  0  0  0
   -2.5639   82.0305  -27.9510 C   0  0  0  0  0  0  0  0  0  0  0  0
   -2.4101   83.3154  -27.8621 O   0  0  0  0  0  0  0  0  0  0  0  0
   -1.5902   81.2729  -28.6385 N   0  0  0  0  0  0  0  0  0  0  0  0
   -0.2931   81.5460  -29.1916 C   0  0  0  0  0  0  0  0  0  0  0  0
   -0.5677   80.3666  -30.1621 C   0  0  1  0  0  0  0  0  0  0  0  0
   -1.4294   79.9051  -29.0911 C   0  0  0  0  0  0  0  0  0  0  0  0
   -1.1652   80.8310  -31.3927 N   0  0  0  0  0  0  0  0  0  0  0  0
   -1.0908   80.0919  -32.5976 C   0  0  0  0  0  0  0  0  0  0  0  0
   -0.4685   78.9948  -32.5185 O   0  0  0  0  0  0  0  0  0  0  0  0
   -1.6845   80.5808  -33.8578 C   0  0  0  0  0  0  0  0  0  0  0  0
   -1.2209   79.7651  -34.9372 O   0  0  0  0  0  0  0  0  0  0  0  0
   -2.0489   79.7665  -36.0765 C   0  0  0  0  0  0  0  0  0  0  0  0
   -1.8881   80.7418  -37.0768 C   0  0  0  0  0  0  0  0  0  0  0  0
   -2.6847   80.7668  -38.1824 C   0  0  0  0  0  0  0  0  0  0  0  0
   -3.6744   79.7926  -38.3013 C   0  0  0  0  0  0  0  0  0  0  0  0
   -4.8426   79.7636  -39.8413 Br  0  0  0  0  0  0  0  0  0  0  0  0
   -3.8311   78.8461  -37.3350 C   0  0  0  0  0  0  0  0  0  0  0  0
   -3.0136   78.8096  -36.1897 C   0  0  0  0  0  0  0  0  0  0  0  0
   -3.2277   77.7396  -35.2199 C   0  0  0  0  0  0  0  0  0  0  0  0
   -3.9722   77.9294  -34.2024 O   0  0  0  0  0  0  0  0  0  0  0  0
   -2.6225   76.4915  -35.4076 N   0  0  0  0  0  0  0  0  0  0  0  0
   -1.4942   76.0986  -36.2383 C   0  0  0  0  0  0  0  0  0  0  0  0
   -0.8324   75.1025  -35.3240 C   0  0  0  0  0  0  0  0  0  0  0  0
   -1.7021   74.6147  -34.4608 C   0  0  0  0  0  0  0  0  0  0  0  0
   -3.0333   75.2560  -34.7338 C   0  0  0  0  0  0  0  0  0  0  0  0
   -1.4686   73.6480  -33.3959 C   0  0  0  0  0  0  0  0  0  0  0  0
   -2.3510   73.5687  -32.3084 C   0  0  0  0  0  0  0  0  0  0  0  0
   -2.1773   72.6815  -31.2781 C   0  0  0  0  0  0  0  0  0  0  0  0
   -1.1033   71.8046  -31.2669 C   0  0  0  0  0  0  0  0  0  0  0  0
   -0.2129   71.8574  -32.3318 C   0  0  0  0  0  0  0  0  0  0  0  0
   -0.4149   72.7744  -33.3655 C   0  0  0  0  0  0  0  0  0  0  0  0
  1  2  1  0
  2  3  1  0
  3  4  2  0
  3  5  1  0
  5  6  1  0
  5  8  1  0
  6  7  1  0
  7  8  1  0
  7  9  1  6
  9 10  1  0
 10 11  2  0
 10 12  1  0
 12 13  1  0
 13 14  1  0
 14 15  2  0
 14 20  1  0
 15 16  1  0
 16 17  2  0
 17 18  1  0
 17 19  1  0
 19 20  2  0
 20 21  1  0
 21 22  2  0
 21 23  1  0
 23 24  1  0
 23 27  1  0
 24 25  1  0
 25 26  2  0
 26 27  1  0
 26 28  1  0
 28 29  2  0
 28 33  1  0
 29 30  1  0
 30 31  2  0
 31 32  1  0
 32 33  2  0
M  END
$$$$
