
     RDKit          3D

 14 13  0  0  0  0  0  0  0  0999 V2000
   27.7411   38.1667   37.0698 C   0  0  0  0  0  0  0  0  0  0  0  0
   28.0013   37.5446   38.4279 C   0  0  0  0  0  0  0  0  0  0  0  0
   28.9344   36.3505   38.3058 C   0  0  0  0  0  0  0  0  0  0  0  0
   19.5239   41.5753   34.3315 C   0  0  0  0  0  0  0  0  0  0  0  0
   20.5477   40.4246   34.2404 C   0  0  1  0  0  0  0  0  0  0  0  0
   21.7870   40.9262   34.9140 C   0  0  0  0  0  0  0  0  0  0  0  0
   22.9844   40.0516   34.8298 C   0  0  0  0  0  0  0  0  0  0  0  0
   24.2386   40.5974   35.4586 C   0  0  0  0  0  0  0  0  0  0  0  0
   25.2723   39.4823   35.3876 C   0  0  0  0  0  0  0  0  0  0  0  0
   26.6140   39.9378   35.9047 C   0  0  0  0  0  0  0  0  0  0  0  0
   26.9392   39.3733   37.1895 N   0  0  0  0  0  4  0  0  0  0  0  0
   29.6013   36.1233   39.5677 N   0  0  0  0  0  4  0  0  0  0  0  0
   20.0089   39.3575   34.9291 O   0  0  0  0  0  0  0  0  0  0  0  0
   20.7615   40.1431   32.8849 O   0  0  0  0  0  0  0  0  0  0  0  0
  1  2  1  0
 11  1  1  0
  2  3  1  0
  3 12  1  0
  5  4  1  6
  6  5  1  0
  5 13  1  0
  5 14  1  0
  7  6  1  0
  8  7  1  0
  9  8  1  0
 10  9  1  0
 10 11  1  0
M  CHG  2  11   1  12   1
M  END
$$$$
