
     RDKit          3D

 14 13  0  0  0  0  0  0  0  0999 V2000
   15.8264   34.6025   37.2311 C   0  0  0  0  0  0  0  0  0  0  0  0
   15.7134   33.1027   37.0393 C   0  0  0  0  0  0  0  0  0  0  0  0
   14.2920   32.7106   36.6693 C   0  0  0  0  0  0  0  0  0  0  0  0
   21.4628   40.6899   33.7337 C   0  0  0  0  0  0  0  0  0  0  0  0
   20.1631   40.5018   32.9238 C   0  0  1  0  0  0  0  0  0  0  0  0
   19.0802   40.2835   33.9342 C   0  0  0  0  0  0  0  0  0  0  0  0
   19.2107   39.0781   34.7921 C   0  0  0  0  0  0  0  0  0  0  0  0
   17.9269   38.5430   35.3679 C   0  0  0  0  0  0  0  0  0  0  0  0
   18.2418   37.1487   35.8912 C   0  0  0  0  0  0  0  0  0  0  0  0
   17.0783   36.5691   36.6564 C   0  0  0  0  0  0  0  0  0  0  0  0
   16.9496   35.1447   36.4841 N   0  0  0  0  0  4  0  0  0  0  0  0
   14.2105   31.2773   36.5024 N   0  0  0  0  0  4  0  0  0  0  0  0
   19.9571   41.6731   32.2247 O   0  0  0  0  0  0  0  0  0  0  0  0
   20.3334   39.3925   32.0856 O   0  0  0  0  0  0  0  0  0  0  0  0
  1  2  1  0
 11  1  1  0
  2  3  1  0
  3 12  1  0
  5  4  1  1
  6  5  1  0
  5 13  1  0
  5 14  1  0
  7  6  1  0
  8  7  1  0
  9  8  1  0
 10  9  1  0
 10 11  1  0
M  CHG  2  11   1  12   1
M  END
$$$$
