
     RDKit          3D

 14 13  0  0  0  0  0  0  0  0999 V2000
   28.2888   39.0312   36.1823 C   0  0  0  0  0  0  0  0  0  0  0  0
   29.2060   39.5802   37.2575 C   0  0  0  0  0  0  0  0  0  0  0  0
   30.6504   39.5889   36.7833 C   0  0  0  0  0  0  0  0  0  0  0  0
   20.0056   41.3344   34.8340 C   0  0  0  0  0  0  0  0  0  0  0  0
   20.1053   39.9394   34.1823 C   0  0  1  0  0  0  0  0  0  0  0  0
   21.1385   39.1941   34.9686 C   0  0  0  0  0  0  0  0  0  0  0  0
   22.5368   39.6802   34.8493 C   0  0  0  0  0  0  0  0  0  0  0  0
   23.5408   39.0115   35.7499 C   0  0  0  0  0  0  0  0  0  0  0  0
   24.9003   39.5826   35.3724 C   0  0  0  0  0  0  0  0  0  0  0  0
   26.0040   38.5796   35.5986 C   0  0  0  0  0  0  0  0  0  0  0  0
   26.9119   38.9736   36.6453 N   0  0  0  0  0  4  0  0  0  0  0  0
   31.5107   40.0426   37.8523 N   0  0  0  0  0  4  0  0  0  0  0  0
   18.8650   39.3498   34.3133 O   0  0  0  0  0  0  0  0  0  0  0  0
   20.4847   40.1136   32.8452 O   0  0  0  0  0  0  0  0  0  0  0  0
  1  2  1  0
 11  1  1  0
  2  3  1  0
  3 12  1  0
  5  4  1  1
  6  5  1  0
  5 13  1  0
  5 14  1  0
  7  6  1  0
  8  7  1  0
  9  8  1  0
 10  9  1  0
 10 11  1  0
M  CHG  2  11   1  12   1
M  END
$$$$
