
     RDKit          3D

 14 13  0  0  0  0  0  0  0  0999 V2000
   28.2491   38.5833   36.3956 C   0  0  0  0  0  0  0  0  0  0  0  0
   29.6213   39.0634   35.9651 C   0  0  0  0  0  0  0  0  0  0  0  0
   30.7125   38.3657   36.7612 C   0  0  0  0  0  0  0  0  0  0  0  0
   19.9351   41.3792   34.6611 C   0  0  0  0  0  0  0  0  0  0  0  0
   20.0933   39.9501   34.1014 C   0  0  1  0  0  0  0  0  0  0  0  0
   21.1139   39.2822   34.9694 C   0  0  0  0  0  0  0  0  0  0  0  0
   22.4008   40.0016   35.1488 C   0  0  0  0  0  0  0  0  0  0  0  0
   23.4244   39.3069   36.0066 C   0  0  0  0  0  0  0  0  0  0  0  0
   24.7793   39.6023   35.3787 C   0  0  0  0  0  0  0  0  0  0  0  0
   25.8848   38.8379   36.0632 C   0  0  0  0  0  0  0  0  0  0  0  0
   27.1970   39.3164   35.7106 N   0  0  0  0  0  4  0  0  0  0  0  0
   31.6338   39.3471   37.2875 N   0  0  0  0  0  4  0  0  0  0  0  0
   18.8637   39.3367   34.2238 O   0  0  0  0  0  0  0  0  0  0  0  0
   20.5185   40.0521   32.7706 O   0  0  0  0  0  0  0  0  0  0  0  0
  1  2  1  0
 11  1  1  0
  2  3  1  0
  3 12  1  0
  5  4  1  1
  6  5  1  0
  5 13  1  0
  5 14  1  0
  7  6  1  0
  8  7  1  0
  9  8  1  0
 10  9  1  0
 10 11  1  0
M  CHG  2  11   1  12   1
M  END
$$$$
