
     RDKit          3D

 14 13  0  0  0  0  0  0  0  0999 V2000
   27.8386   38.9322   36.6418 C   0  0  0  0  0  0  0  0  0  0  0  0
   28.9212   38.7271   37.6835 C   0  0  0  0  0  0  0  0  0  0  0  0
   30.2412   38.3579   37.0258 C   0  0  0  0  0  0  0  0  0  0  0  0
   19.8927   41.4017   35.2105 C   0  0  0  0  0  0  0  0  0  0  0  0
   20.0024   40.3600   34.0775 C   0  0  1  0  0  0  0  0  0  0  0  0
   21.0122   39.3568   34.5413 C   0  0  0  0  0  0  0  0  0  0  0  0
   22.3571   39.8844   34.8858 C   0  0  0  0  0  0  0  0  0  0  0  0
   23.3806   38.8554   35.2855 C   0  0  0  0  0  0  0  0  0  0  0  0
   24.4282   39.5921   36.1083 C   0  0  0  0  0  0  0  0  0  0  0  0
   25.4552   38.6432   36.6739 C   0  0  0  0  0  0  0  0  0  0  0  0
   26.5821   39.3230   37.2597 N   0  0  0  0  0  4  0  0  0  0  0  0
   31.1255   39.5011   37.0346 N   0  0  0  0  0  4  0  0  0  0  0  0
   18.7565   39.7821   33.9466 O   0  0  0  0  0  0  0  0  0  0  0  0
   20.4159   41.0264   32.9168 O   0  0  0  0  0  0  0  0  0  0  0  0
  1  2  1  0
 11  1  1  0
  2  3  1  0
  3 12  1  0
  5  4  1  1
  6  5  1  0
  5 13  1  0
  5 14  1  0
  7  6  1  0
  8  7  1  0
  9  8  1  0
 10  9  1  0
 10 11  1  0
M  CHG  2  11   1  12   1
M  END
$$$$
