
     RDKit          3D

 14 13  0  0  0  0  0  0  0  0999 V2000
   28.2513   38.7613   36.7520 C   0  0  0  0  0  0  0  0  0  0  0  0
   29.0356   37.5233   37.1409 C   0  0  0  0  0  0  0  0  0  0  0  0
   30.4279   37.8954   37.6250 C   0  0  0  0  0  0  0  0  0  0  0  0
   19.2444   41.3896   34.1708 C   0  0  0  0  0  0  0  0  0  0  0  0
   20.2415   40.2224   34.0157 C   0  0  1  0  0  0  0  0  0  0  0  0
   21.4621   40.6231   34.7844 C   0  0  0  0  0  0  0  0  0  0  0  0
   22.7459   40.0174   34.3476 C   0  0  0  0  0  0  0  0  0  0  0  0
   23.9737   40.4871   35.0811 C   0  0  0  0  0  0  0  0  0  0  0  0
   24.7661   39.2358   35.4326 C   0  0  0  0  0  0  0  0  0  0  0  0
   26.1415   39.5786   35.9482 C   0  0  0  0  0  0  0  0  0  0  0  0
   26.9234   38.4132   36.2732 N   0  0  0  0  0  4  0  0  0  0  0  0
   30.4200   38.0420   39.0628 N   0  0  0  0  0  4  0  0  0  0  0  0
   19.6456   39.1129   34.5788 O   0  0  0  0  0  0  0  0  0  0  0  0
   20.5080   40.0607   32.6501 O   0  0  0  0  0  0  0  0  0  0  0  0
  1  2  1  0
 11  1  1  0
  2  3  1  0
  3 12  1  0
  5  4  1  6
  6  5  1  0
  5 13  1  0
  5 14  1  0
  7  6  1  0
  8  7  1  0
  9  8  1  0
 10  9  1  0
 10 11  1  0
M  CHG  2  11   1  12   1
M  END
$$$$
