
     RDKit          3D

 14 13  0  0  0  0  0  0  0  0999 V2000
   27.6962   38.6066   37.3865 C   0  0  0  0  0  0  0  0  0  0  0  0
   29.1225   38.2160   37.0517 C   0  0  0  0  0  0  0  0  0  0  0  0
   30.0332   38.4129   38.2530 C   0  0  0  0  0  0  0  0  0  0  0  0
   19.6854   41.3509   34.9625 C   0  0  0  0  0  0  0  0  0  0  0  0
   20.1348   40.2263   34.0066 C   0  0  1  0  0  0  0  0  0  0  0  0
   21.5889   40.4687   33.7457 C   0  0  0  0  0  0  0  0  0  0  0  0
   22.4938   40.3834   34.9204 C   0  0  0  0  0  0  0  0  0  0  0  0
   23.5798   39.3444   34.8353 C   0  0  0  0  0  0  0  0  0  0  0  0
   24.7995   39.9441   35.5207 C   0  0  0  0  0  0  0  0  0  0  0  0
   25.6136   38.8877   36.2252 C   0  0  0  0  0  0  0  0  0  0  0  0
   27.0239   39.1807   36.2324 N   0  0  0  0  0  4  0  0  0  0  0  0
   30.9781   37.3221   38.3311 N   0  0  0  0  0  4  0  0  0  0  0  0
   19.9454   39.0354   34.6767 O   0  0  0  0  0  0  0  0  0  0  0  0
   19.3670   40.3197   32.8388 O   0  0  0  0  0  0  0  0  0  0  0  0
  1  2  1  0
 11  1  1  0
  2  3  1  0
  3 12  1  0
  5  4  1  1
  6  5  1  0
  5 13  1  0
  5 14  1  0
  7  6  1  0
  8  7  1  0
  9  8  1  0
 10  9  1  0
 10 11  1  0
M  CHG  2  11   1  12   1
M  END
$$$$
