
     RDKit          3D

 14 13  0  0  0  0  0  0  0  0999 V2000
   28.4622   39.1114   35.7978 C   0  0  0  0  0  0  0  0  0  0  0  0
   29.1307   40.1166   34.8805 C   0  0  0  0  0  0  0  0  0  0  0  0
   30.0045   39.4141   33.8537 C   0  0  0  0  0  0  0  0  0  0  0  0
   20.1896   42.0175   34.4315 C   0  0  0  0  0  0  0  0  0  0  0  0
   20.4079   40.5103   34.1838 C   0  0  1  0  0  0  0  0  0  0  0  0
   21.4233   40.0733   35.1933 C   0  0  0  0  0  0  0  0  0  0  0  0
   22.8431   40.1064   34.7588 C   0  0  0  0  0  0  0  0  0  0  0  0
   23.7461   39.0841   35.3956 C   0  0  0  0  0  0  0  0  0  0  0  0
   25.1623   39.6282   35.2710 C   0  0  0  0  0  0  0  0  0  0  0  0
   26.1058   38.9390   36.2250 C   0  0  0  0  0  0  0  0  0  0  0  0
   27.3091   39.6939   36.4644 N   0  0  0  0  0  4  0  0  0  0  0  0
   29.8653   40.0641   32.5704 N   0  0  0  0  0  4  0  0  0  0  0  0
   19.1948   39.8913   34.4041 O   0  0  0  0  0  0  0  0  0  0  0  0
   20.8677   40.3507   32.8703 O   0  0  0  0  0  0  0  0  0  0  0  0
  1  2  1  0
 11  1  1  0
  2  3  1  0
  3 12  1  0
  5  4  1  1
  6  5  1  0
  5 13  1  0
  5 14  1  0
  7  6  1  0
  8  7  1  0
  9  8  1  0
 10  9  1  0
 10 11  1  0
M  CHG  2  11   1  12   1
M  END
$$$$
