
     RDKit          3D

 14 13  0  0  0  0  0  0  0  0999 V2000
   28.3735   38.6064   37.1917 C   0  0  0  0  0  0  0  0  0  0  0  0
   29.0666   38.6531   38.5394 C   0  0  0  0  0  0  0  0  0  0  0  0
   30.4734   38.0848   38.4439 C   0  0  0  0  0  0  0  0  0  0  0  0
   20.1766   40.7833   32.3548 C   0  0  0  0  0  0  0  0  0  0  0  0
   20.6117   40.4163   33.7889 C   0  0  1  0  0  0  0  0  0  0  0  0
   22.0971   40.5991   33.8245 C   0  0  0  0  0  0  0  0  0  0  0  0
   22.8168   39.9416   34.9450 C   0  0  0  0  0  0  0  0  0  0  0  0
   24.3056   39.8008   34.7732 C   0  0  0  0  0  0  0  0  0  0  0  0
   24.8547   39.3830   36.1301 C   0  0  0  0  0  0  0  0  0  0  0  0
   26.2987   38.9577   36.0355 C   0  0  0  0  0  0  0  0  0  0  0  0
   26.9872   39.0308   37.2987 N   0  0  0  0  0  4  0  0  0  0  0  0
   31.2742   38.9125   37.5706 N   0  0  0  0  0  4  0  0  0  0  0  0
   19.9843   41.3070   34.6351 O   0  0  0  0  0  0  0  0  0  0  0  0
   20.2383   39.0872   34.0266 O   0  0  0  0  0  0  0  0  0  0  0  0
  1  2  1  0
 11  1  1  0
  2  3  1  0
  3 12  1  0
  5  4  1  6
  6  5  1  0
  5 13  1  0
  5 14  1  0
  7  6  1  0
  8  7  1  0
  9  8  1  0
 10  9  1  0
 10 11  1  0
M  CHG  2  11   1  12   1
M  END
$$$$
