
     RDKit          3D

 14 13  0  0  0  0  0  0  0  0999 V2000
   28.3039   40.0069   35.4596 C   0  0  0  0  0  0  0  0  0  0  0  0
   28.9640   38.6952   35.8372 C   0  0  0  0  0  0  0  0  0  0  0  0
   30.4567   38.8840   36.0548 C   0  0  0  0  0  0  0  0  0  0  0  0
   20.0118   41.3725   35.1379 C   0  0  0  0  0  0  0  0  0  0  0  0
   20.1109   40.3736   33.9661 C   0  0  1  0  0  0  0  0  0  0  0  0
   21.1531   39.3763   34.3666 C   0  0  0  0  0  0  0  0  0  0  0  0
   22.5451   39.8829   34.4743 C   0  0  0  0  0  0  0  0  0  0  0  0
   23.5608   38.8994   34.9911 C   0  0  0  0  0  0  0  0  0  0  0  0
   24.5859   39.7129   35.7687 C   0  0  0  0  0  0  0  0  0  0  0  0
   25.9955   39.3526   35.3705 C   0  0  0  0  0  0  0  0  0  0  0  0
   26.9892   40.1279   36.0680 N   0  0  0  0  0  4  0  0  0  0  0  0
   31.1112   37.5957   36.0812 N   0  0  0  0  0  4  0  0  0  0  0  0
   18.8737   39.7746   33.8485 O   0  0  0  0  0  0  0  0  0  0  0  0
   20.4787   41.0887   32.8191 O   0  0  0  0  0  0  0  0  0  0  0  0
  1  2  1  0
 11  1  1  0
  2  3  1  0
  3 12  1  0
  5  4  1  1
  6  5  1  0
  5 13  1  0
  5 14  1  0
  7  6  1  0
  8  7  1  0
  9  8  1  0
 10  9  1  0
 10 11  1  0
M  CHG  2  11   1  12   1
M  END
$$$$
