
     RDKit          3D

 14 13  0  0  0  0  0  0  0  0999 V2000
   27.8713   39.0753   36.6771 C   0  0  0  0  0  0  0  0  0  0  0  0
   29.1871   38.3420   36.5048 C   0  0  0  0  0  0  0  0  0  0  0  0
   30.3199   39.0978   37.1806 C   0  0  0  0  0  0  0  0  0  0  0  0
   19.6864   41.1552   34.7565 C   0  0  0  0  0  0  0  0  0  0  0  0
   20.1826   40.2832   33.5843 C   0  0  1  0  0  0  0  0  0  0  0  0
   21.6518   40.5476   33.4718 C   0  0  0  0  0  0  0  0  0  0  0  0
   22.5270   39.8339   34.4366 C   0  0  0  0  0  0  0  0  0  0  0  0
   23.8992   40.4208   34.6329 C   0  0  0  0  0  0  0  0  0  0  0  0
   24.6359   39.4790   35.5750 C   0  0  0  0  0  0  0  0  0  0  0  0
   26.0525   39.2354   35.1178 C   0  0  0  0  0  0  0  0  0  0  0  0
   26.7873   38.3742   36.0085 N   0  0  0  0  0  4  0  0  0  0  0  0
   31.5507   38.3525   37.0453 N   0  0  0  0  0  4  0  0  0  0  0  0
   19.9426   38.9709   33.9355 O   0  0  0  0  0  0  0  0  0  0  0  0
   19.4873   40.6723   32.4321 O   0  0  0  0  0  0  0  0  0  0  0  0
  1  2  1  0
 11  1  1  0
  2  3  1  0
  3 12  1  0
  5  4  1  1
  6  5  1  0
  5 13  1  0
  5 14  1  0
  7  6  1  0
  8  7  1  0
  9  8  1  0
 10  9  1  0
 10 11  1  0
M  CHG  2  11   1  12   1
M  END
$$$$
