
     RDKit          3D

 14 13  0  0  0  0  0  0  0  0999 V2000
   22.2922   39.3182   35.6051 C   0  0  0  0  0  0  0  0  0  0  0  0
   21.1869   40.3532   35.5283 C   0  0  0  0  0  0  0  0  0  0  0  0
   20.4431   40.2529   34.2062 C   0  0  0  0  0  0  0  0  0  0  0  0
   30.4166   41.3770   32.5359 C   0  0  0  0  0  0  0  0  0  0  0  0
   29.9614   39.9402   32.2061 C   0  0  1  0  0  0  0  0  0  0  0  0
   29.0643   39.5274   33.3313 C   0  0  0  0  0  0  0  0  0  0  0  0
   27.8198   40.3185   33.5079 C   0  0  0  0  0  0  0  0  0  0  0  0
   26.8661   39.8120   34.5567 C   0  0  0  0  0  0  0  0  0  0  0  0
   25.5646   39.4954   33.8336 C   0  0  0  0  0  0  0  0  0  0  0  0
   24.5197   38.9631   34.7824 C   0  0  0  0  0  0  0  0  0  0  0  0
   23.1919   39.4248   34.4682 N   0  0  0  0  0  4  0  0  0  0  0  0
   19.3393   41.1858   34.1970 N   0  0  0  0  0  4  0  0  0  0  0  0
   29.2638   40.0069   31.0177 O   0  0  0  0  0  0  0  0  0  0  0  0
   31.1039   39.1343   32.1200 O   0  0  0  0  0  0  0  0  0  0  0  0
  1  2  1  0
 11  1  1  0
  2  3  1  0
  3 12  1  0
  5  4  1  1
  6  5  1  0
  5 13  1  0
  5 14  1  0
  7  6  1  0
  8  7  1  0
  9  8  1  0
 10  9  1  0
 10 11  1  0
M  CHG  2  11   1  12   1
M  END
$$$$
