
     RDKit          3D

 49 55  0  0  0  0  0  0  0  0999 V2000
   -5.0593   -0.5960   13.8358 C   0  0  0  0  0  0  0  0  0  0  0  0
   -6.0385   -0.2552   12.8163 C   0  0  0  0  0  0  0  0  0  0  0  0
   -4.5384    1.4522   11.8474 C   0  0  0  0  0  0  0  0  0  0  0  0
   -3.6515    1.1431   12.7688 C   0  0  0  0  0  0  0  0  0  0  0  0
   -4.3378    2.4715   10.8102 C   0  0  0  0  0  0  0  0  0  0  0  0
   -2.3747    1.8822   12.7527 C   0  0  0  0  0  0  0  0  0  0  0  0
   -4.7303    3.7868   11.0876 C   0  0  0  0  0  0  0  0  0  0  0  0
   -4.5946    4.7698   10.1308 C   0  0  0  0  0  0  0  0  0  0  0  0
   -4.0682    4.4133    8.9163 C   0  0  0  0  0  0  0  0  0  0  0  0
   -3.6771    3.1258    8.6258 C   0  0  0  0  0  0  0  0  0  0  0  0
   -3.8140    2.1413    9.5856 C   0  0  0  0  0  0  0  0  0  0  0  0
   -1.7758    2.0561   11.5302 C   0  0  0  0  0  0  0  0  0  0  0  0
   -0.5666    2.7138   11.4593 C   0  0  0  0  0  0  0  0  0  0  0  0
    0.0651    3.2035   12.5630 C   0  0  0  0  0  0  0  0  0  0  0  0
   -0.5456    3.0225   13.7849 C   0  0  0  0  0  0  0  0  0  0  0  0
   -1.7600    2.3652   13.8833 C   0  0  0  0  0  0  0  0  0  0  0  0
    1.3625    3.9295   12.5547 C   0  0  0  0  0  0  0  0  0  0  0  0
    3.2538    4.4663   11.2825 C   0  0  0  0  0  0  0  0  0  0  0  0
    4.5986    3.8724   10.9118 C   0  0  0  0  0  0  0  0  0  0  0  0
    5.2795    3.3918   12.1768 C   0  0  1  0  0  0  0  0  0  0  0  0
    4.2207    2.7428   13.0080 C   0  0  0  0  0  0  0  0  0  0  0  0
    3.0629    2.2499   12.1497 C   0  0  0  0  0  0  0  0  0  0  0  0
    6.5815    1.7555   10.7687 C   0  0  0  0  0  0  0  0  0  0  0  0
    8.3574    1.5979   11.9894 C   0  0  0  0  0  0  0  0  0  0  0  0
    7.4917    2.4813   12.6191 C   0  0  0  0  0  0  0  0  0  0  0  0
    9.5638    1.3521   12.6090 C   0  0  0  0  0  0  0  0  0  0  0  0
    9.9148    1.9554   13.8154 C   0  0  0  0  0  0  0  0  0  0  0  0
    9.0755    2.8275   14.4504 C   0  0  0  0  0  0  0  0  0  0  0  0
    7.8573    3.0610   13.8022 C   0  0  0  0  0  0  0  0  0  0  0  0
    8.6917    4.6082   16.1867 C   0  0  0  0  0  0  0  0  0  0  0  0
    9.3040    5.5129   17.2115 C   0  0  0  0  0  0  0  0  0  0  0  0
    8.3021    5.9852   18.2104 C   0  0  0  0  0  0  0  0  0  0  0  0
   -5.2130   -1.4836   14.7904 C   0  0  0  0  0  0  0  0  0  0  0  0
   -4.2735   -1.9295   15.7814 C   0  0  0  0  0  0  0  0  0  0  0  0
   -3.0053   -2.3657   15.4654 C   0  0  0  0  0  0  0  0  0  0  0  0
   -2.0810   -2.7688   16.4241 C   0  0  0  0  0  0  0  0  0  0  0  0
   -2.4388   -2.7360   17.7534 C   0  0  0  0  0  0  0  0  0  0  0  0
   -3.7168   -2.2987   18.0843 C   0  0  0  0  0  0  0  0  0  0  0  0
   -4.6293   -1.9003   17.1431 C   0  0  0  0  0  0  0  0  0  0  0  0
   -5.7961    0.7477   11.8359 N   0  0  0  0  0  0  0  0  0  0  0  0
   -3.8343    0.1529   13.7750 N   0  0  0  0  0  0  0  0  0  0  0  0
    2.3225    3.3907   11.6493 N   0  0  1  0  0  4  0  0  0  0  0  0
    6.3776    2.5647   11.8297 N   0  0  0  0  0  0  0  0  0  0  0  0
    7.7826    1.1588   10.8501 N   0  0  0  0  0  0  0  0  0  0  0  0
    9.3530    3.4916   15.6739 N   0  0  0  0  0  0  0  0  0  0  0  0
    7.5421    4.8967   15.8004 O   0  0  0  0  0  0  0  0  0  0  0  0
    5.7555    1.6017    9.8576 O   0  0  0  0  0  0  0  0  0  0  0  0
   -7.1356   -0.8745   12.8029 O   0  0  0  0  0  0  0  0  0  0  0  0
   -1.5622   -3.1249   18.7553 O   0  0  0  0  0  0  0  0  0  0  0  0
  1  2  1  0
  1 33  2  0
 41  1  1  0
 40  2  1  0
  2 48  2  0
  4  3  2  0
  3  5  1  0
  3 40  1  0
  6  4  1  0
  4 41  1  0
  5  7  2  0
  5 11  1  0
 12  6  2  0
 16  6  1  0
  7  8  1  0
  8  9  2  0
 10  9  1  0
 11 10  2  0
 13 12  1  0
 14 13  2  0
 14 15  1  0
 17 14  1  0
 15 16  2  0
 42 17  1  1
 19 18  1  0
 18 42  1  0
 20 19  1  0
 20 21  1  0
 20 43  1  6
 21 22  1  0
 22 42  1  0
 43 23  1  0
 23 44  1  0
 23 47  2  0
 25 24  2  0
 26 24  1  0
 24 44  1  0
 29 25  1  0
 25 43  1  0
 27 26  2  0
 28 27  1  0
 28 29  2  0
 45 28  1  0
 30 31  1  0
 30 45  1  0
 30 46  2  0
 31 32  1  0
 33 34  1  0
 34 35  2  0
 34 39  1  0
 35 36  1  0
 36 37  2  0
 37 38  1  0
 37 49  1  0
 38 39  2  0
M  CHG  1  42   1
M  END
$$$$
