
     RDKit          3D

 49 55  0  0  0  0  0  0  0  0999 V2000
    4.6732    0.3291   17.0544 C   0  0  0  0  0  0  0  0  0  0  0  0
    6.0415    0.8103   16.9519 C   0  0  0  0  0  0  0  0  0  0  0  0
    5.5443    1.9823   14.8344 C   0  0  0  0  0  0  0  0  0  0  0  0
    4.3058    1.5483   14.9275 C   0  0  0  0  0  0  0  0  0  0  0  0
    6.0493    2.8253   13.7438 C   0  0  0  0  0  0  0  0  0  0  0  0
    3.3712    1.9361   13.8537 C   0  0  0  0  0  0  0  0  0  0  0  0
    7.4176    3.1213   13.7128 C   0  0  0  0  0  0  0  0  0  0  0  0
    7.9306    3.9385   12.7284 C   0  0  0  0  0  0  0  0  0  0  0  0
    7.0608    4.4415   11.7958 C   0  0  0  0  0  0  0  0  0  0  0  0
    5.7130    4.1615   11.8105 C   0  0  0  0  0  0  0  0  0  0  0  0
    5.2001    3.3425   12.7980 C   0  0  0  0  0  0  0  0  0  0  0  0
    2.8592    3.2082   13.9087 C   0  0  0  0  0  0  0  0  0  0  0  0
    1.9587    3.6145   12.9475 C   0  0  0  0  0  0  0  0  0  0  0  0
    1.5518    2.7982   11.9352 C   0  0  0  0  0  0  0  0  0  0  0  0
    2.0724    1.5230   11.8907 C   0  0  0  0  0  0  0  0  0  0  0  0
    2.9781    1.0904   12.8440 C   0  0  0  0  0  0  0  0  0  0  0  0
    0.5934    3.1767   10.8634 C   0  0  0  0  0  0  0  0  0  0  0  0
    0.2688    2.3247    8.7065 C   0  0  0  0  0  0  0  0  0  0  0  0
    0.3878    2.7708    7.2623 C   0  0  0  0  0  0  0  0  0  0  0  0
   -0.3136    4.1048    7.1097 C   0  0  1  0  0  0  0  0  0  0  0  0
    0.0368    4.9091    8.3195 C   0  0  0  0  0  0  0  0  0  0  0  0
    1.3479    4.4420    8.9383 C   0  0  0  0  0  0  0  0  0  0  0  0
    1.2539    4.9925    5.3460 C   0  0  0  0  0  0  0  0  0  0  0  0
   -0.2024    5.5541    3.8518 C   0  0  0  0  0  0  0  0  0  0  0  0
   -0.8931    5.0293    4.9352 C   0  0  0  0  0  0  0  0  0  0  0  0
   -0.9516    5.9792    2.7759 C   0  0  0  0  0  0  0  0  0  0  0  0
   -2.3427    5.8934    2.7602 C   0  0  0  0  0  0  0  0  0  0  0  0
   -3.0401    5.3799    3.8176 C   0  0  0  0  0  0  0  0  0  0  0  0
   -2.2578    4.9551    4.8976 C   0  0  0  0  0  0  0  0  0  0  0  0
   -5.2525    5.4060    5.0165 C   0  0  0  0  0  0  0  0  0  0  0  0
   -6.7436    5.2684    4.9800 C   0  0  0  0  0  0  0  0  0  0  0  0
   -7.2454    4.3402    6.0343 C   0  0  0  0  0  0  0  0  0  0  0  0
    4.1934   -0.4433   18.0010 C   0  0  0  0  0  0  0  0  0  0  0  0
    2.8405   -0.8652   18.2359 C   0  0  0  0  0  0  0  0  0  0  0  0
    1.7600   -0.3000   17.5946 C   0  0  0  0  0  0  0  0  0  0  0  0
    0.4508   -0.7263   17.7953 C   0  0  0  0  0  0  0  0  0  0  0  0
    0.2110   -1.7590   18.6739 C   0  0  0  0  0  0  0  0  0  0  0  0
    1.2939   -2.3366   19.3280 C   0  0  0  0  0  0  0  0  0  0  0  0
    2.5845   -1.9199   19.1323 C   0  0  0  0  0  0  0  0  0  0  0  0
    6.4820    1.6211   15.8682 N   0  0  0  0  0  0  0  0  0  0  0  0
    3.8053    0.7354   15.9835 N   0  0  0  0  0  0  0  0  0  0  0  0
    1.1488    3.1440    9.5511 N   0  0  1  0  0  4  0  0  0  0  0  0
    0.0475    4.6816    5.8658 N   0  0  0  0  0  0  0  0  0  0  0  0
    1.1200    5.5248    4.1197 N   0  0  0  0  0  0  0  0  0  0  0  0
   -4.4519    5.2481    3.8846 N   0  0  0  0  0  0  0  0  0  0  0  0
   -4.7418    5.6736    6.1217 O   0  0  0  0  0  0  0  0  0  0  0  0
    2.3241    4.8026    5.9414 O   0  0  0  0  0  0  0  0  0  0  0  0
    6.8597    0.4990   17.8579 O   0  0  0  0  0  0  0  0  0  0  0  0
   -1.0712   -2.2287   18.9163 O   0  0  0  0  0  0  0  0  0  0  0  0
  1  2  1  0
  1 33  2  0
 41  1  1  0
 40  2  1  0
  2 48  2  0
  4  3  2  0
  3  5  1  0
  3 40  1  0
  6  4  1  0
  4 41  1  0
  5  7  2  0
  5 11  1  0
 12  6  2  0
 16  6  1  0
  7  8  1  0
  8  9  2  0
 10  9  1  0
 11 10  2  0
 13 12  1  0
 14 13  2  0
 14 15  1  0
 17 14  1  0
 15 16  2  0
 42 17  1  1
 19 18  1  0
 18 42  1  0
 20 19  1  0
 20 21  1  0
 20 43  1  6
 21 22  1  0
 22 42  1  0
 43 23  1  0
 23 44  1  0
 23 47  2  0
 25 24  2  0
 26 24  1  0
 24 44  1  0
 29 25  1  0
 25 43  1  0
 27 26  2  0
 28 27  1  0
 28 29  2  0
 45 28  1  0
 30 31  1  0
 30 45  1  0
 30 46  2  0
 31 32  1  0
 33 34  1  0
 34 35  2  0
 34 39  1  0
 35 36  1  0
 36 37  2  0
 37 38  1  0
 37 49  1  0
 38 39  2  0
M  CHG  1  42   1
M  END
$$$$
