
     RDKit          3D

 49 55  0  0  0  0  0  0  0  0999 V2000
   -4.7834   -0.7475   17.8335 C   0  0  0  0  0  0  0  0  0  0  0  0
   -4.5055   -2.1670   17.6852 C   0  0  0  0  0  0  0  0  0  0  0  0
   -2.4890   -1.7021   16.3352 C   0  0  0  0  0  0  0  0  0  0  0  0
   -2.7393   -0.4175   16.4705 C   0  0  0  0  0  0  0  0  0  0  0  0
   -1.3454   -2.2523   15.5975 C   0  0  0  0  0  0  0  0  0  0  0  0
   -1.8037    0.5247   15.8273 C   0  0  0  0  0  0  0  0  0  0  0  0
   -1.5992   -2.9990   14.4403 C   0  0  0  0  0  0  0  0  0  0  0  0
   -0.5587   -3.5655   13.7356 C   0  0  0  0  0  0  0  0  0  0  0  0
    0.7142   -3.3711   14.2059 C   0  0  0  0  0  0  0  0  0  0  0  0
    0.9827   -2.6403   15.3412 C   0  0  0  0  0  0  0  0  0  0  0  0
   -0.0612   -2.0733   16.0469 C   0  0  0  0  0  0  0  0  0  0  0  0
   -2.2371    1.1405   14.6800 C   0  0  0  0  0  0  0  0  0  0  0  0
   -1.3934    2.0085   14.0207 C   0  0  0  0  0  0  0  0  0  0  0  0
   -0.1349    2.2835   14.4650 C   0  0  0  0  0  0  0  0  0  0  0  0
    0.2893    1.6588   15.6177 C   0  0  0  0  0  0  0  0  0  0  0  0
   -0.5386    0.7827   16.2985 C   0  0  0  0  0  0  0  0  0  0  0  0
    0.8198    3.2151   13.8084 C   0  0  0  0  0  0  0  0  0  0  0  0
    1.8932    1.8490   12.2382 C   0  0  0  0  0  0  0  0  0  0  0  0
    3.2106    1.7680   11.4921 C   0  0  0  0  0  0  0  0  0  0  0  0
    3.5046    3.1235   10.8830 C   0  0  1  0  0  0  0  0  0  0  0  0
    3.1267    4.1410   11.9101 C   0  0  0  0  0  0  0  0  0  0  0  0
    3.1687    3.5557   13.3158 C   0  0  0  0  0  0  0  0  0  0  0  0
    5.3982    3.3736    9.2375 C   0  0  0  0  0  0  0  0  0  0  0  0
    7.0590    3.0637   10.5845 C   0  0  0  0  0  0  0  0  0  0  0  0
    5.8910    2.9594   11.3268 C   0  0  0  0  0  0  0  0  0  0  0  0
    8.2490    2.8963   11.2595 C   0  0  0  0  0  0  0  0  0  0  0  0
    8.2953    2.6330   12.6274 C   0  0  0  0  0  0  0  0  0  0  0  0
    7.1559    2.5266   13.3749 C   0  0  0  0  0  0  0  0  0  0  0  0
    5.9608    2.7003   12.6675 C   0  0  0  0  0  0  0  0  0  0  0  0
    5.9984    2.3919   15.6053 C   0  0  0  0  0  0  0  0  0  0  0  0
    6.1155    2.5784   17.0870 C   0  0  0  0  0  0  0  0  0  0  0  0
    4.9187    2.0615   17.8118 C   0  0  0  0  0  0  0  0  0  0  0  0
   -5.8066   -0.2211   18.4652 C   0  0  0  0  0  0  0  0  0  0  0  0
   -6.2077    1.1546   18.5647 C   0  0  0  0  0  0  0  0  0  0  0  0
   -5.4860    2.1853   18.0035 C   0  0  0  0  0  0  0  0  0  0  0  0
   -5.8868    3.5161   18.0702 C   0  0  0  0  0  0  0  0  0  0  0  0
   -7.0562    3.8303   18.7257 C   0  0  0  0  0  0  0  0  0  0  0  0
   -7.7926    2.7981   19.2972 C   0  0  0  0  0  0  0  0  0  0  0  0
   -7.4014    1.4866   19.2329 C   0  0  0  0  0  0  0  0  0  0  0  0
   -3.3843   -2.6486   16.9524 N   0  0  0  0  0  0  0  0  0  0  0  0
   -3.8421    0.1258   17.1882 N   0  0  0  0  0  0  0  0  0  0  0  0
    2.0722    2.6218   13.4750 N   0  0  1  0  0  4  0  0  0  0  0  0
    4.8559    3.1589   10.4549 N   0  0  0  0  0  0  0  0  0  0  0  0
    6.7393    3.3192    9.2984 N   0  0  0  0  0  0  0  0  0  0  0  0
    7.1093    2.2686   14.7699 N   0  0  0  0  0  0  0  0  0  0  0  0
    4.8445    2.3496   15.1357 O   0  0  0  0  0  0  0  0  0  0  0  0
    4.7266    3.5888    8.2184 O   0  0  0  0  0  0  0  0  0  0  0  0
   -5.2849   -2.9942   18.2288 O   0  0  0  0  0  0  0  0  0  0  0  0
   -7.5087    5.1374   18.8259 O   0  0  0  0  0  0  0  0  0  0  0  0
  1  2  1  0
  1 33  2  0
 41  1  1  0
 40  2  1  0
  2 48  2  0
  4  3  2  0
  3  5  1  0
  3 40  1  0
  6  4  1  0
  4 41  1  0
  5  7  2  0
  5 11  1  0
 12  6  2  0
 16  6  1  0
  7  8  1  0
  8  9  2  0
 10  9  1  0
 11 10  2  0
 13 12  1  0
 14 13  2  0
 14 15  1  0
 17 14  1  0
 15 16  2  0
 42 17  1  6
 19 18  1  0
 18 42  1  0
 20 19  1  0
 20 21  1  0
 20 43  1  1
 21 22  1  0
 22 42  1  0
 43 23  1  0
 23 44  1  0
 23 47  2  0
 25 24  2  0
 26 24  1  0
 24 44  1  0
 29 25  1  0
 25 43  1  0
 27 26  2  0
 28 27  1  0
 28 29  2  0
 45 28  1  0
 30 31  1  0
 30 45  1  0
 30 46  2  0
 31 32  1  0
 33 34  1  0
 34 35  2  0
 34 39  1  0
 35 36  1  0
 36 37  2  0
 37 38  1  0
 37 49  1  0
 38 39  2  0
M  CHG  1  42   1
M  END
$$$$
