
     RDKit          3D

 49 55  0  0  0  0  0  0  0  0999 V2000
    1.8928   -0.5352   16.8874 C   0  0  0  0  0  0  0  0  0  0  0  0
    3.1830   -0.5127   17.5576 C   0  0  0  0  0  0  0  0  0  0  0  0
    4.2432    0.6109   15.6294 C   0  0  0  0  0  0  0  0  0  0  0  0
    3.0757    0.5922   15.0232 C   0  0  0  0  0  0  0  0  0  0  0  0
    5.4686    1.1791   15.0545 C   0  0  0  0  0  0  0  0  0  0  0  0
    3.0066    1.1791   13.6713 C   0  0  0  0  0  0  0  0  0  0  0  0
    6.2433    2.0303   15.8522 C   0  0  0  0  0  0  0  0  0  0  0  0
    7.3825    2.6157   15.3426 C   0  0  0  0  0  0  0  0  0  0  0  0
    7.7210    2.3351   14.0442 C   0  0  0  0  0  0  0  0  0  0  0  0
    6.9717    1.5012   13.2453 C   0  0  0  0  0  0  0  0  0  0  0  0
    5.8298    0.9153   13.7572 C   0  0  0  0  0  0  0  0  0  0  0  0
    3.5532    2.4275   13.5102 C   0  0  0  0  0  0  0  0  0  0  0  0
    3.4909    3.0365   12.2753 C   0  0  0  0  0  0  0  0  0  0  0  0
    2.9038    2.4449   11.1972 C   0  0  0  0  0  0  0  0  0  0  0  0
    2.3581    1.1916   11.3713 C   0  0  0  0  0  0  0  0  0  0  0  0
    2.4072    0.5584   12.6013 C   0  0  0  0  0  0  0  0  0  0  0  0
    2.8120    3.0413    9.8384 C   0  0  0  0  0  0  0  0  0  0  0  0
    1.5985    5.0349    9.6475 C   0  0  0  0  0  0  0  0  0  0  0  0
    0.5712    5.6747    8.7342 C   0  0  0  0  0  0  0  0  0  0  0  0
    1.0450    5.5352    7.3021 C   0  0  1  0  0  0  0  0  0  0  0  0
    1.6114    4.1581    7.1750 C   0  0  0  0  0  0  0  0  0  0  0  0
    1.0205    3.2147    8.2146 C   0  0  0  0  0  0  0  0  0  0  0  0
   -1.2474    5.2808    6.2845 C   0  0  0  0  0  0  0  0  0  0  0  0
   -1.1508    6.8771    4.8315 C   0  0  0  0  0  0  0  0  0  0  0  0
    0.0581    6.8554    5.5127 C   0  0  0  0  0  0  0  0  0  0  0  0
   -1.3006    7.8316    3.8485 C   0  0  0  0  0  0  0  0  0  0  0  0
   -0.2920    8.7425    3.5392 C   0  0  0  0  0  0  0  0  0  0  0  0
    0.9051    8.7364    4.1988 C   0  0  0  0  0  0  0  0  0  0  0  0
    1.0332    7.7587    5.1920 C   0  0  0  0  0  0  0  0  0  0  0  0
    3.2967    9.2840    3.6391 C   0  0  0  0  0  0  0  0  0  0  0  0
    4.2409   10.2281    2.9603 C   0  0  0  0  0  0  0  0  0  0  0  0
    5.5713    9.6029    2.7075 C   0  0  0  0  0  0  0  0  0  0  0  0
    0.7839   -1.0540   17.3606 C   0  0  0  0  0  0  0  0  0  0  0  0
   -0.4811   -1.2521   16.7093 C   0  0  0  0  0  0  0  0  0  0  0  0
   -0.6164   -1.2979   15.3390 C   0  0  0  0  0  0  0  0  0  0  0  0
   -1.8343   -1.5208   14.7041 C   0  0  0  0  0  0  0  0  0  0  0  0
   -2.9639   -1.7042   15.4698 C   0  0  0  0  0  0  0  0  0  0  0  0
   -2.8397   -1.6589   16.8543 C   0  0  0  0  0  0  0  0  0  0  0  0
   -1.6420   -1.4404   17.4829 C   0  0  0  0  0  0  0  0  0  0  0  0
    4.3437    0.0455   16.9518 N   0  0  0  0  0  0  0  0  0  0  0  0
    1.8809    0.0487   15.5743 N   0  0  0  0  0  0  0  0  0  0  0  0
    1.5272    3.5726    9.5243 N   0  0  1  0  0  4  0  0  0  0  0  0
   -0.0266    5.8394    6.4249 N   0  0  0  0  0  0  0  0  0  0  0  0
   -1.9454    5.9008    5.3182 N   0  0  0  0  0  0  0  0  0  0  0  0
    1.9820    9.6285    3.9555 N   0  0  0  0  0  0  0  0  0  0  0  0
    3.7396    8.1524    3.9169 O   0  0  0  0  0  0  0  0  0  0  0  0
   -1.6447    4.3257    6.9671 O   0  0  0  0  0  0  0  0  0  0  0  0
    3.2698   -1.0022   18.7153 O   0  0  0  0  0  0  0  0  0  0  0  0
   -4.2061   -1.9304   14.8962 O   0  0  0  0  0  0  0  0  0  0  0  0
  1  2  1  0
  1 33  2  0
 41  1  1  0
 40  2  1  0
  2 48  2  0
  4  3  2  0
  3  5  1  0
  3 40  1  0
  6  4  1  0
  4 41  1  0
  5  7  2  0
  5 11  1  0
 12  6  2  0
 16  6  1  0
  7  8  1  0
  8  9  2  0
 10  9  1  0
 11 10  2  0
 13 12  1  0
 14 13  2  0
 14 15  1  0
 17 14  1  0
 15 16  2  0
 42 17  1  6
 19 18  1  0
 18 42  1  0
 20 19  1  0
 20 21  1  0
 20 43  1  6
 21 22  1  0
 22 42  1  0
 43 23  1  0
 23 44  1  0
 23 47  2  0
 25 24  2  0
 26 24  1  0
 24 44  1  0
 29 25  1  0
 25 43  1  0
 27 26  2  0
 28 27  1  0
 28 29  2  0
 45 28  1  0
 30 31  1  0
 30 45  1  0
 30 46  2  0
 31 32  1  0
 33 34  1  0
 34 35  2  0
 34 39  1  0
 35 36  1  0
 36 37  2  0
 37 38  1  0
 37 49  1  0
 38 39  2  0
M  CHG  1  42   1
M  END
$$$$
