
     RDKit          3D

 49 55  0  0  0  0  0  0  0  0999 V2000
   -2.3482   -1.4299   16.4645 C   0  0  0  0  0  0  0  0  0  0  0  0
   -1.5516   -1.6573   17.6595 C   0  0  0  0  0  0  0  0  0  0  0  0
    0.4469   -0.6620   16.6010 C   0  0  0  0  0  0  0  0  0  0  0  0
   -0.2740   -0.4546   15.5201 C   0  0  0  0  0  0  0  0  0  0  0  0
    1.8611   -0.2937   16.7395 C   0  0  0  0  0  0  0  0  0  0  0  0
    0.3969    0.1866   14.3731 C   0  0  0  0  0  0  0  0  0  0  0  0
    2.1704    0.9601   17.2812 C   0  0  0  0  0  0  0  0  0  0  0  0
    3.4835    1.3634   17.3966 C   0  0  0  0  0  0  0  0  0  0  0  0
    4.4586    0.5011   16.9667 C   0  0  0  0  0  0  0  0  0  0  0  0
    4.1735   -0.7348   16.4318 C   0  0  0  0  0  0  0  0  0  0  0  0
    2.8568   -1.1378   16.3163 C   0  0  0  0  0  0  0  0  0  0  0  0
    1.3997   -0.5264   13.7653 C   0  0  0  0  0  0  0  0  0  0  0  0
    2.0807    0.0360   12.7071 C   0  0  0  0  0  0  0  0  0  0  0  0
    1.7970    1.2822   12.2345 C   0  0  0  0  0  0  0  0  0  0  0  0
    0.7885    1.9886   12.8531 C   0  0  0  0  0  0  0  0  0  0  0  0
    0.0894    1.4466   13.9180 C   0  0  0  0  0  0  0  0  0  0  0  0
    2.4850    1.9416   11.0934 C   0  0  0  0  0  0  0  0  0  0  0  0
    2.3971    4.2280   11.5917 C   0  0  0  0  0  0  0  0  0  0  0  0
    2.3763    5.5631   10.8734 C   0  0  0  0  0  0  0  0  0  0  0  0
    3.4897    5.5761    9.8463 C   0  0  1  0  0  0  0  0  0  0  0  0
    3.4946    4.2246    9.2088 C   0  0  0  0  0  0  0  0  0  0  0  0
    2.1319    3.5528    9.3169 C   0  0  0  0  0  0  0  0  0  0  0  0
    2.1774    7.1661    8.3952 C   0  0  0  0  0  0  0  0  0  0  0  0
    3.8034    8.4059    7.6967 C   0  0  0  0  0  0  0  0  0  0  0  0
    4.3420    7.4393    8.5343 C   0  0  0  0  0  0  0  0  0  0  0  0
    4.6798    9.3101    7.1363 C   0  0  0  0  0  0  0  0  0  0  0  0
    6.0499    9.2695    7.3889 C   0  0  0  0  0  0  0  0  0  0  0  0
    6.5987    8.3251    8.2106 C   0  0  0  0  0  0  0  0  0  0  0  0
    5.6891    7.4187    8.7674 C   0  0  0  0  0  0  0  0  0  0  0  0
    8.5765    7.2275    9.3134 C   0  0  0  0  0  0  0  0  0  0  0  0
   10.0606    7.0356    9.3802 C   0  0  0  0  0  0  0  0  0  0  0  0
   10.5389    6.8591   10.7819 C   0  0  0  0  0  0  0  0  0  0  0  0
   -3.6059   -1.7659   16.2974 C   0  0  0  0  0  0  0  0  0  0  0  0
   -4.5038   -1.4355   15.2258 C   0  0  0  0  0  0  0  0  0  0  0  0
   -5.8371   -1.7829   15.2348 C   0  0  0  0  0  0  0  0  0  0  0  0
   -6.7175   -1.4380   14.2142 C   0  0  0  0  0  0  0  0  0  0  0  0
   -6.2464   -0.7175   13.1395 C   0  0  0  0  0  0  0  0  0  0  0  0
   -4.9020   -0.3622   13.1189 C   0  0  0  0  0  0  0  0  0  0  0  0
   -4.0322   -0.6995   14.1225 C   0  0  0  0  0  0  0  0  0  0  0  0
   -0.1797   -1.2864   17.7394 N   0  0  0  0  0  0  0  0  0  0  0  0
   -1.6469   -0.8030   15.3779 N   0  0  0  0  0  0  0  0  0  0  0  0
    1.8950    3.1769   10.6963 N   0  0  1  0  0  4  0  0  0  0  0  0
    3.2963    6.6684    8.9632 N   0  0  0  0  0  0  0  0  0  0  0  0
    2.4682    8.2248    7.6207 N   0  0  0  0  0  0  0  0  0  0  0  0
    7.9775    8.2139    8.5289 N   0  0  0  0  0  0  0  0  0  0  0  0
    7.8805    6.4548   10.0006 O   0  0  0  0  0  0  0  0  0  0  0  0
    1.0478    6.6910    8.5799 O   0  0  0  0  0  0  0  0  0  0  0  0
   -2.1004   -2.1983   18.6562 O   0  0  0  0  0  0  0  0  0  0  0  0
   -7.0743   -0.3437   12.0915 O   0  0  0  0  0  0  0  0  0  0  0  0
  1  2  1  0
  1 33  2  0
 41  1  1  0
 40  2  1  0
  2 48  2  0
  4  3  2  0
  3  5  1  0
  3 40  1  0
  6  4  1  0
  4 41  1  0
  5  7  2  0
  5 11  1  0
 12  6  2  0
 16  6  1  0
  7  8  1  0
  8  9  2  0
 10  9  1  0
 11 10  2  0
 13 12  1  0
 14 13  2  0
 14 15  1  0
 17 14  1  0
 15 16  2  0
 42 17  1  1
 19 18  1  0
 18 42  1  0
 20 19  1  0
 20 21  1  0
 20 43  1  6
 21 22  1  0
 22 42  1  0
 43 23  1  0
 23 44  1  0
 23 47  2  0
 25 24  2  0
 26 24  1  0
 24 44  1  0
 29 25  1  0
 25 43  1  0
 27 26  2  0
 28 27  1  0
 28 29  2  0
 45 28  1  0
 30 31  1  0
 30 45  1  0
 30 46  2  0
 31 32  1  0
 33 34  1  0
 34 35  2  0
 34 39  1  0
 35 36  1  0
 36 37  2  0
 37 38  1  0
 37 49  1  0
 38 39  2  0
M  CHG  1  42   1
M  END
$$$$
