
     RDKit          3D

 49 55  0  0  0  0  0  0  0  0999 V2000
    4.8167    0.5620   18.9662 C   0  0  0  0  0  0  0  0  0  0  0  0
    4.3195    0.1936   20.2820 C   0  0  0  0  0  0  0  0  0  0  0  0
    2.1762   -0.5849   19.3307 C   0  0  0  0  0  0  0  0  0  0  0  0
    2.6263   -0.2531   18.1398 C   0  0  0  0  0  0  0  0  0  0  0  0
    0.8558   -1.1737   19.5853 C   0  0  0  0  0  0  0  0  0  0  0  0
    1.7320   -0.4873   16.9899 C   0  0  0  0  0  0  0  0  0  0  0  0
   -0.2744   -0.5023   19.1029 C   0  0  0  0  0  0  0  0  0  0  0  0
   -1.5366   -0.9988   19.3494 C   0  0  0  0  0  0  0  0  0  0  0  0
   -1.6387   -2.1580   20.0740 C   0  0  0  0  0  0  0  0  0  0  0  0
   -0.5391   -2.8315   20.5561 C   0  0  0  0  0  0  0  0  0  0  0  0
    0.7254   -2.3326   20.3087 C   0  0  0  0  0  0  0  0  0  0  0  0
    0.3877   -0.3168   17.2070 C   0  0  0  0  0  0  0  0  0  0  0  0
   -0.4967   -0.5506   16.1759 C   0  0  0  0  0  0  0  0  0  0  0  0
   -0.0879   -0.9475   14.9380 C   0  0  0  0  0  0  0  0  0  0  0  0
    1.2642   -1.1158   14.7323 C   0  0  0  0  0  0  0  0  0  0  0  0
    2.1730   -0.8878   15.7513 C   0  0  0  0  0  0  0  0  0  0  0  0
   -0.9867   -1.2063   13.7823 C   0  0  0  0  0  0  0  0  0  0  0  0
   -1.0912    1.0533   13.1766 C   0  0  0  0  0  0  0  0  0  0  0  0
   -1.8836    1.9640   12.2594 C   0  0  0  0  0  0  0  0  0  0  0  0
   -1.9347    1.3359   10.8818 C   0  0  1  0  0  0  0  0  0  0  0  0
   -2.1583   -0.1269   11.0907 C   0  0  0  0  0  0  0  0  0  0  0  0
   -2.8305   -0.4020   12.4296 C   0  0  0  0  0  0  0  0  0  0  0  0
   -4.2555    1.8443   10.0384 C   0  0  0  0  0  0  0  0  0  0  0  0
   -3.7695    3.4195    8.6415 C   0  0  0  0  0  0  0  0  0  0  0  0
   -2.5839    2.9945    9.2246 C   0  0  0  0  0  0  0  0  0  0  0  0
   -3.6832    4.4306    7.7087 C   0  0  0  0  0  0  0  0  0  0  0  0
   -2.4668    5.0115    7.3547 C   0  0  0  0  0  0  0  0  0  0  0  0
   -1.2891    4.6062    7.9178 C   0  0  0  0  0  0  0  0  0  0  0  0
   -1.4024    3.5790    8.8616 C   0  0  0  0  0  0  0  0  0  0  0  0
    1.1917    4.4406    7.5297 C   0  0  0  0  0  0  0  0  0  0  0  0
    2.4125    5.0047    6.8700 C   0  0  0  0  0  0  0  0  0  0  0  0
    3.5594    4.0517    6.9081 C   0  0  0  0  0  0  0  0  0  0  0  0
    5.9801    1.1105   18.7042 C   0  0  0  0  0  0  0  0  0  0  0  0
    6.4531    1.7086   17.4868 C   0  0  0  0  0  0  0  0  0  0  0  0
    7.7400    2.1769   17.3359 C   0  0  0  0  0  0  0  0  0  0  0  0
    8.2121    2.7284   16.1488 C   0  0  0  0  0  0  0  0  0  0  0  0
    7.3631    2.8168   15.0684 C   0  0  0  0  0  0  0  0  0  0  0  0
    6.0613    2.3483   15.2094 C   0  0  0  0  0  0  0  0  0  0  0  0
    5.5932    1.8041   16.3765 C   0  0  0  0  0  0  0  0  0  0  0  0
    3.0263   -0.3689   20.4749 N   0  0  0  0  0  0  0  0  0  0  0  0
    3.9067    0.3132   17.8821 N   0  0  0  0  0  0  0  0  0  0  0  0
   -1.8875   -0.1389   13.4981 N   0  0  1  0  0  4  0  0  0  0  0  0
   -2.9161    1.9997   10.1030 N   0  0  0  0  0  0  0  0  0  0  0  0
   -4.7912    2.7013    9.1531 N   0  0  0  0  0  0  0  0  0  0  0  0
   -0.0093    5.1449    7.6234 N   0  0  0  0  0  0  0  0  0  0  0  0
    1.2912    3.2916    8.0026 O   0  0  0  0  0  0  0  0  0  0  0  0
   -4.8808    1.0152   10.7149 O   0  0  0  0  0  0  0  0  0  0  0  0
    5.0643    0.3775   21.2814 O   0  0  0  0  0  0  0  0  0  0  0  0
    7.7744    3.3561   13.8587 O   0  0  0  0  0  0  0  0  0  0  0  0
  1  2  1  0
  1 33  2  0
 41  1  1  0
 40  2  1  0
  2 48  2  0
  4  3  2  0
  3  5  1  0
  3 40  1  0
  6  4  1  0
  4 41  1  0
  5  7  2  0
  5 11  1  0
 12  6  2  0
 16  6  1  0
  7  8  1  0
  8  9  2  0
 10  9  1  0
 11 10  2  0
 13 12  1  0
 14 13  2  0
 14 15  1  0
 17 14  1  0
 15 16  2  0
 42 17  1  6
 19 18  1  0
 18 42  1  0
 20 19  1  0
 20 21  1  0
 20 43  1  6
 21 22  1  0
 22 42  1  0
 43 23  1  0
 23 44  1  0
 23 47  2  0
 25 24  2  0
 26 24  1  0
 24 44  1  0
 29 25  1  0
 25 43  1  0
 27 26  2  0
 28 27  1  0
 28 29  2  0
 45 28  1  0
 30 31  1  0
 30 45  1  0
 30 46  2  0
 31 32  1  0
 33 34  1  0
 34 35  2  0
 34 39  1  0
 35 36  1  0
 36 37  2  0
 37 38  1  0
 37 49  1  0
 38 39  2  0
M  CHG  1  42   1
M  END
$$$$
