
     RDKit          3D

 49 55  0  0  0  0  0  0  0  0999 V2000
    0.6186   -0.9953   17.5155 C   0  0  0  0  0  0  0  0  0  0  0  0
    1.6495   -0.6860   18.4931 C   0  0  0  0  0  0  0  0  0  0  0  0
    2.9819    0.5316   16.8058 C   0  0  0  0  0  0  0  0  0  0  0  0
    2.0485    0.2532   15.9212 C   0  0  0  0  0  0  0  0  0  0  0  0
    4.1970    1.3028   16.5163 C   0  0  0  0  0  0  0  0  0  0  0  0
    2.2506    0.7495   14.5466 C   0  0  0  0  0  0  0  0  0  0  0  0
    4.2184    2.6606   16.8582 C   0  0  0  0  0  0  0  0  0  0  0  0
    5.3241    3.4326   16.5724 C   0  0  0  0  0  0  0  0  0  0  0  0
    6.3848    2.8269   15.9502 C   0  0  0  0  0  0  0  0  0  0  0  0
    6.3816    1.4938   15.6067 C   0  0  0  0  0  0  0  0  0  0  0  0
    5.2725    0.7211   15.8933 C   0  0  0  0  0  0  0  0  0  0  0  0
    1.4136    1.7503   14.1208 C   0  0  0  0  0  0  0  0  0  0  0  0
    1.5380    2.2320   12.8354 C   0  0  0  0  0  0  0  0  0  0  0  0
    2.4665    1.7515   11.9613 C   0  0  0  0  0  0  0  0  0  0  0  0
    3.3009    0.7464   12.4000 C   0  0  0  0  0  0  0  0  0  0  0  0
    3.1963    0.2450   13.6861 C   0  0  0  0  0  0  0  0  0  0  0  0
    2.6595    2.2327   10.5679 C   0  0  0  0  0  0  0  0  0  0  0  0
    2.6437    4.5725   10.4750 C   0  0  0  0  0  0  0  0  0  0  0  0
    2.1690    5.6854    9.5612 C   0  0  0  0  0  0  0  0  0  0  0  0
    2.6355    5.3848    8.1516 C   0  0  1  0  0  0  0  0  0  0  0  0
    2.4368    3.9185    7.9428 C   0  0  0  0  0  0  0  0  0  0  0  0
    1.3581    3.3656    8.8652 C   0  0  0  0  0  0  0  0  0  0  0  0
    0.6705    6.2224    6.8126 C   0  0  0  0  0  0  0  0  0  0  0  0
    1.6241    7.8878    5.8196 C   0  0  0  0  0  0  0  0  0  0  0  0
    2.5753    7.2793    6.6265 C   0  0  0  0  0  0  0  0  0  0  0  0
    2.0292    8.9842    5.0891 C   0  0  0  0  0  0  0  0  0  0  0  0
    3.3331    9.4732    5.1462 C   0  0  0  0  0  0  0  0  0  0  0  0
    4.2835    8.8872    5.9347 C   0  0  0  0  0  0  0  0  0  0  0  0
    3.8484    7.7764    6.6665 C   0  0  0  0  0  0  0  0  0  0  0  0
    6.1248   10.5957    5.7823 C   0  0  0  0  0  0  0  0  0  0  0  0
    7.5664   10.9612    5.9613 C   0  0  0  0  0  0  0  0  0  0  0  0
    7.7355   12.1550    6.8393 C   0  0  0  0  0  0  0  0  0  0  0  0
   -0.4673   -1.7000   17.7326 C   0  0  0  0  0  0  0  0  0  0  0  0
   -1.5490   -2.0077   16.8389 C   0  0  0  0  0  0  0  0  0  0  0  0
   -2.5988   -2.8275   17.1914 C   0  0  0  0  0  0  0  0  0  0  0  0
   -3.6644   -3.1035   16.3405 C   0  0  0  0  0  0  0  0  0  0  0  0
   -3.6815   -2.5383   15.0849 C   0  0  0  0  0  0  0  0  0  0  0  0
   -2.6264   -1.7100   14.7175 C   0  0  0  0  0  0  0  0  0  0  0  0
   -1.5758   -1.4354   15.5531 C   0  0  0  0  0  0  0  0  0  0  0  0
    2.8138    0.0612   18.1581 N   0  0  0  0  0  0  0  0  0  0  0  0
    0.8645   -0.4888   16.1933 N   0  0  0  0  0  0  0  0  0  0  0  0
    1.8544    3.3584   10.2267 N   0  0  1  0  0  4  0  0  0  0  0  0
    1.9498    6.2306    7.2434 N   0  0  0  0  0  0  0  0  0  0  0  0
    0.4550    7.2253    5.9448 N   0  0  0  0  0  0  0  0  0  0  0  0
    5.6292    9.3210    6.0596 N   0  0  0  0  0  0  0  0  0  0  0  0
    5.3668   11.4939    5.3671 O   0  0  0  0  0  0  0  0  0  0  0  0
   -0.1701    5.3906    7.1831 O   0  0  0  0  0  0  0  0  0  0  0  0
    1.5003   -1.0926   19.6762 O   0  0  0  0  0  0  0  0  0  0  0  0
   -4.7155   -2.7748   14.1916 O   0  0  0  0  0  0  0  0  0  0  0  0
  1  2  1  0
  1 33  2  0
 41  1  1  0
 40  2  1  0
  2 48  2  0
  4  3  2  0
  3  5  1  0
  3 40  1  0
  6  4  1  0
  4 41  1  0
  5  7  2  0
  5 11  1  0
 12  6  2  0
 16  6  1  0
  7  8  1  0
  8  9  2  0
 10  9  1  0
 11 10  2  0
 13 12  1  0
 14 13  2  0
 14 15  1  0
 17 14  1  0
 15 16  2  0
 42 17  1  6
 19 18  1  0
 18 42  1  0
 20 19  1  0
 20 21  1  0
 20 43  1  6
 21 22  1  0
 22 42  1  0
 43 23  1  0
 23 44  1  0
 23 47  2  0
 25 24  2  0
 26 24  1  0
 24 44  1  0
 29 25  1  0
 25 43  1  0
 27 26  2  0
 28 27  1  0
 28 29  2  0
 45 28  1  0
 30 31  1  0
 30 45  1  0
 30 46  2  0
 31 32  1  0
 33 34  1  0
 34 35  2  0
 34 39  1  0
 35 36  1  0
 36 37  2  0
 37 38  1  0
 37 49  1  0
 38 39  2  0
M  CHG  1  42   1
M  END
$$$$
