
     RDKit          3D

 49 55  0  0  0  0  0  0  0  0999 V2000
    2.2480   -0.0889   18.0955 C   0  0  0  0  0  0  0  0  0  0  0  0
    3.5431    0.0103   18.7490 C   0  0  0  0  0  0  0  0  0  0  0  0
    4.5833    0.9248   16.7029 C   0  0  0  0  0  0  0  0  0  0  0  0
    3.4112    0.8367   16.1117 C   0  0  0  0  0  0  0  0  0  0  0  0
    5.8015    1.4328   16.0605 C   0  0  0  0  0  0  0  0  0  0  0  0
    3.3290    1.2750   14.7053 C   0  0  0  0  0  0  0  0  0  0  0  0
    6.1828    0.8813   14.8310 C   0  0  0  0  0  0  0  0  0  0  0  0
    7.3387    1.3015   14.2086 C   0  0  0  0  0  0  0  0  0  0  0  0
    8.0877    2.2658   14.8318 C   0  0  0  0  0  0  0  0  0  0  0  0
    7.7288    2.8191   16.0401 C   0  0  0  0  0  0  0  0  0  0  0  0
    6.5700    2.3968   16.6632 C   0  0  0  0  0  0  0  0  0  0  0  0
    2.6806    0.4370   13.8331 C   0  0  0  0  0  0  0  0  0  0  0  0
    2.5993    0.7823   12.5011 C   0  0  0  0  0  0  0  0  0  0  0  0
    3.1409    1.9321   12.0096 C   0  0  0  0  0  0  0  0  0  0  0  0
    3.7899    2.7652   12.8949 C   0  0  0  0  0  0  0  0  0  0  0  0
    3.8856    2.4414   14.2373 C   0  0  0  0  0  0  0  0  0  0  0  0
    3.0802    2.3676   10.5893 C   0  0  0  0  0  0  0  0  0  0  0  0
    0.9445    3.3273   10.6245 C   0  0  0  0  0  0  0  0  0  0  0  0
   -0.1499    3.7370    9.6584 C   0  0  0  0  0  0  0  0  0  0  0  0
    0.4708    4.5548    8.5445 C   0  0  1  0  0  0  0  0  0  0  0  0
    1.7599    3.8850    8.1942 C   0  0  0  0  0  0  0  0  0  0  0  0
    1.7406    2.4089    8.5694 C   0  0  0  0  0  0  0  0  0  0  0  0
   -1.5378    3.9363    7.1520 C   0  0  0  0  0  0  0  0  0  0  0  0
   -1.4297    5.5170    5.6828 C   0  0  0  0  0  0  0  0  0  0  0  0
   -0.3723    5.6903    6.5649 C   0  0  0  0  0  0  0  0  0  0  0  0
   -1.5464    6.4287    4.6557 C   0  0  0  0  0  0  0  0  0  0  0  0
   -0.6503    7.4841    4.4952 C   0  0  0  0  0  0  0  0  0  0  0  0
    0.3970    7.6708    5.3534 C   0  0  0  0  0  0  0  0  0  0  0  0
    0.4944    6.7328    6.3875 C   0  0  0  0  0  0  0  0  0  0  0  0
    1.2433    9.8878    4.5159 C   0  0  0  0  0  0  0  0  0  0  0  0
    2.3192   10.9292    4.4775 C   0  0  0  0  0  0  0  0  0  0  0  0
    1.8684   12.2210    5.0716 C   0  0  0  0  0  0  0  0  0  0  0  0
    1.1451   -0.5582   18.6306 C   0  0  0  0  0  0  0  0  0  0  0  0
   -0.1185   -0.8465   18.0111 C   0  0  0  0  0  0  0  0  0  0  0  0
   -1.3221   -0.4447   18.5478 C   0  0  0  0  0  0  0  0  0  0  0  0
   -2.5465   -0.6942   17.9356 C   0  0  0  0  0  0  0  0  0  0  0  0
   -2.5694   -1.3743   16.7385 C   0  0  0  0  0  0  0  0  0  0  0  0
   -1.3605   -1.7859   16.1878 C   0  0  0  0  0  0  0  0  0  0  0  0
   -0.1530   -1.5414   16.7874 C   0  0  0  0  0  0  0  0  0  0  0  0
    4.6965    0.5048   18.0774 N   0  0  0  0  0  0  0  0  0  0  0  0
    2.2233    0.3508   16.7275 N   0  0  0  0  0  0  0  0  0  0  0  0
    1.7793    2.2845   10.0127 N   0  0  1  0  0  4  0  0  0  0  0  0
   -0.4615    4.6805    7.4836 N   0  0  0  0  0  0  0  0  0  0  0  0
   -2.1393    4.4319    6.0575 N   0  0  0  0  0  0  0  0  0  0  0  0
    1.3507    8.7189    5.2704 N   0  0  0  0  0  0  0  0  0  0  0  0
    0.2244   10.1099    3.8329 O   0  0  0  0  0  0  0  0  0  0  0  0
   -1.8993    2.9360    7.7881 O   0  0  0  0  0  0  0  0  0  0  0  0
    3.6411   -0.3518   19.9517 O   0  0  0  0  0  0  0  0  0  0  0  0
   -3.7575   -1.6532   16.0797 O   0  0  0  0  0  0  0  0  0  0  0  0
  1  2  1  0
  1 33  2  0
 41  1  1  0
 40  2  1  0
  2 48  2  0
  4  3  2  0
  3  5  1  0
  3 40  1  0
  6  4  1  0
  4 41  1  0
  5  7  2  0
  5 11  1  0
 12  6  2  0
 16  6  1  0
  7  8  1  0
  8  9  2  0
 10  9  1  0
 11 10  2  0
 13 12  1  0
 14 13  2  0
 14 15  1  0
 17 14  1  0
 15 16  2  0
 42 17  1  1
 19 18  1  0
 18 42  1  0
 20 19  1  0
 20 21  1  0
 20 43  1  6
 21 22  1  0
 22 42  1  0
 43 23  1  0
 23 44  1  0
 23 47  2  0
 25 24  2  0
 26 24  1  0
 24 44  1  0
 29 25  1  0
 25 43  1  0
 27 26  2  0
 28 27  1  0
 28 29  2  0
 45 28  1  0
 30 31  1  0
 30 45  1  0
 30 46  2  0
 31 32  1  0
 33 34  1  0
 34 35  2  0
 34 39  1  0
 35 36  1  0
 36 37  2  0
 37 38  1  0
 37 49  1  0
 38 39  2  0
M  CHG  1  42   1
M  END
$$$$
