
     RDKit          3D

 49 55  0  0  0  0  0  0  0  0999 V2000
   -5.2594   -1.2597   16.5383 C   0  0  0  0  0  0  0  0  0  0  0  0
   -4.8748   -1.5155   17.9170 C   0  0  0  0  0  0  0  0  0  0  0  0
   -2.4797   -1.2514   17.3710 C   0  0  0  0  0  0  0  0  0  0  0  0
   -2.8273   -1.0184   16.1236 C   0  0  0  0  0  0  0  0  0  0  0  0
   -1.0957   -1.2563   17.8604 C   0  0  0  0  0  0  0  0  0  0  0  0
   -1.7437   -0.7516   15.1586 C   0  0  0  0  0  0  0  0  0  0  0  0
   -0.5771   -2.4521   18.3724 C   0  0  0  0  0  0  0  0  0  0  0  0
    0.7052   -2.4950   18.8765 C   0  0  0  0  0  0  0  0  0  0  0  0
    1.4404   -1.3381   18.8564 C   0  0  0  0  0  0  0  0  0  0  0  0
    0.9473   -0.1537   18.3573 C   0  0  0  0  0  0  0  0  0  0  0  0
   -0.3383   -0.1120   17.8526 C   0  0  0  0  0  0  0  0  0  0  0  0
   -1.8083    0.4322   14.4674 C   0  0  0  0  0  0  0  0  0  0  0  0
   -0.8382    0.7204   13.5317 C   0  0  0  0  0  0  0  0  0  0  0  0
    0.1925   -0.1291   13.2618 C   0  0  0  0  0  0  0  0  0  0  0  0
    0.2465   -1.3150   13.9616 C   0  0  0  0  0  0  0  0  0  0  0  0
   -0.7155   -1.6283   14.9065 C   0  0  0  0  0  0  0  0  0  0  0  0
    1.2746    0.1250   12.2744 C   0  0  0  0  0  0  0  0  0  0  0  0
    3.5668    0.5993   12.2088 C   0  0  0  0  0  0  0  0  0  0  0  0
    4.4923    1.7909   12.0593 C   0  0  0  0  0  0  0  0  0  0  0  0
    4.0358    2.6105   10.8698 C   0  0  1  0  0  0  0  0  0  0  0  0
    2.5430    2.6470   10.9278 C   0  0  0  0  0  0  0  0  0  0  0  0
    2.0350    2.4256   12.3467 C   0  0  0  0  0  0  0  0  0  0  0  0
    5.5964    4.3851   11.7480 C   0  0  0  0  0  0  0  0  0  0  0  0
    5.2157    5.9253   10.2811 C   0  0  0  0  0  0  0  0  0  0  0  0
    4.4226    4.8329    9.9588 C   0  0  0  0  0  0  0  0  0  0  0  0
    5.1246    7.0306    9.4627 C   0  0  0  0  0  0  0  0  0  0  0  0
    4.2779    7.0666    8.3562 C   0  0  0  0  0  0  0  0  0  0  0  0
    3.4894    6.0010    8.0232 C   0  0  0  0  0  0  0  0  0  0  0  0
    3.5994    4.8911    8.8686 C   0  0  0  0  0  0  0  0  0  0  0  0
    1.8517    7.0008    6.3950 C   0  0  0  0  0  0  0  0  0  0  0  0
    0.6803    6.7881    5.4860 C   0  0  0  0  0  0  0  0  0  0  0  0
    0.1665    8.0718    4.9264 C   0  0  0  0  0  0  0  0  0  0  0  0
   -6.4822   -1.2698   16.0614 C   0  0  0  0  0  0  0  0  0  0  0  0
   -6.9741   -0.7853   14.8017 C   0  0  0  0  0  0  0  0  0  0  0  0
   -8.2288   -1.0920   14.3221 C   0  0  0  0  0  0  0  0  0  0  0  0
   -8.7215   -0.5998   13.1176 C   0  0  0  0  0  0  0  0  0  0  0  0
   -7.9275    0.2320   12.3601 C   0  0  0  0  0  0  0  0  0  0  0  0
   -6.6585    0.5476   12.8336 C   0  0  0  0  0  0  0  0  0  0  0  0
   -6.1703    0.0654   14.0196 C   0  0  0  0  0  0  0  0  0  0  0  0
   -3.5153   -1.5151   18.3386 N   0  0  0  0  0  0  0  0  0  0  0  0
   -4.1663   -1.0060   15.6405 N   0  0  0  0  0  0  0  0  0  0  0  0
    2.2654    1.0456   12.7244 N   0  0  1  0  0  4  0  0  0  0  0  0
    4.6803    3.8731   10.8989 N   0  0  0  0  0  0  0  0  0  0  0  0
    5.9337    5.6343   11.3862 N   0  0  0  0  0  0  0  0  0  0  0  0
    2.6059    5.9475    6.9134 N   0  0  0  0  0  0  0  0  0  0  0  0
    2.1343    8.1817    6.6772 O   0  0  0  0  0  0  0  0  0  0  0  0
    6.0476    3.7651   12.7216 O   0  0  0  0  0  0  0  0  0  0  0  0
   -5.7801   -1.7409   18.7638 O   0  0  0  0  0  0  0  0  0  0  0  0
   -8.3619    0.7546   11.1512 O   0  0  0  0  0  0  0  0  0  0  0  0
  1  2  1  0
  1 33  2  0
 41  1  1  0
 40  2  1  0
  2 48  2  0
  4  3  2  0
  3  5  1  0
  3 40  1  0
  6  4  1  0
  4 41  1  0
  5  7  2  0
  5 11  1  0
 12  6  2  0
 16  6  1  0
  7  8  1  0
  8  9  2  0
 10  9  1  0
 11 10  2  0
 13 12  1  0
 14 13  2  0
 14 15  1  0
 17 14  1  0
 15 16  2  0
 42 17  1  6
 19 18  1  0
 18 42  1  0
 20 19  1  0
 20 21  1  0
 20 43  1  1
 21 22  1  0
 22 42  1  0
 43 23  1  0
 23 44  1  0
 23 47  2  0
 25 24  2  0
 26 24  1  0
 24 44  1  0
 29 25  1  0
 25 43  1  0
 27 26  2  0
 28 27  1  0
 28 29  2  0
 45 28  1  0
 30 31  1  0
 30 45  1  0
 30 46  2  0
 31 32  1  0
 33 34  1  0
 34 35  2  0
 34 39  1  0
 35 36  1  0
 36 37  2  0
 37 38  1  0
 37 49  1  0
 38 39  2  0
M  CHG  1  42   1
M  END
$$$$
