
     RDKit          3D

 49 55  0  0  0  0  0  0  0  0999 V2000
   -3.3375   -1.9284   17.0563 C   0  0  0  0  0  0  0  0  0  0  0  0
   -4.5725   -1.7410   16.3121 C   0  0  0  0  0  0  0  0  0  0  0  0
   -3.4501   -0.2548   14.6885 C   0  0  0  0  0  0  0  0  0  0  0  0
   -2.3321   -0.4253   15.3608 C   0  0  0  0  0  0  0  0  0  0  0  0
   -3.5758    0.5714   13.4816 C   0  0  0  0  0  0  0  0  0  0  0  0
   -1.1307    0.2713   14.8623 C   0  0  0  0  0  0  0  0  0  0  0  0
   -2.7736    0.2591   12.3770 C   0  0  0  0  0  0  0  0  0  0  0  0
   -2.8314    1.0294   11.2353 C   0  0  0  0  0  0  0  0  0  0  0  0
   -3.6923    2.0961   11.2251 C   0  0  0  0  0  0  0  0  0  0  0  0
   -4.4881    2.4182   12.3011 C   0  0  0  0  0  0  0  0  0  0  0  0
   -4.4291    1.6456   13.4452 C   0  0  0  0  0  0  0  0  0  0  0  0
   -1.2818    1.5884   14.5076 C   0  0  0  0  0  0  0  0  0  0  0  0
   -0.1996    2.2803   14.0078 C   0  0  0  0  0  0  0  0  0  0  0  0
    1.0259    1.7058   13.8498 C   0  0  0  0  0  0  0  0  0  0  0  0
    1.1653    0.3827   14.2089 C   0  0  0  0  0  0  0  0  0  0  0  0
    0.0940   -0.3345   14.7132 C   0  0  0  0  0  0  0  0  0  0  0  0
    2.2340    2.3970   13.3271 C   0  0  0  0  0  0  0  0  0  0  0  0
    1.4902    3.0088   11.1927 C   0  0  0  0  0  0  0  0  0  0  0  0
    2.0594    3.3702    9.8347 C   0  0  0  0  0  0  0  0  0  0  0  0
    3.1432    4.4110   10.0269 C   0  0  1  0  0  0  0  0  0  0  0  0
    3.9204    3.9961   11.2339 C   0  0  0  0  0  0  0  0  0  0  0  0
    3.8044    2.4979   11.4832 C   0  0  0  0  0  0  0  0  0  0  0  0
    4.9592    3.8417    8.3735 C   0  0  0  0  0  0  0  0  0  0  0  0
    4.5022    5.3066    6.8523 C   0  0  0  0  0  0  0  0  0  0  0  0
    3.5831    5.4672    7.8798 C   0  0  0  0  0  0  0  0  0  0  0  0
    4.3879    6.1522    5.7699 C   0  0  0  0  0  0  0  0  0  0  0  0
    3.3988    7.1314    5.6946 C   0  0  0  0  0  0  0  0  0  0  0  0
    2.4853    7.3047    6.6965 C   0  0  0  0  0  0  0  0  0  0  0  0
    2.6217    6.4346    7.7842 C   0  0  0  0  0  0  0  0  0  0  0  0
    1.1219    9.1466    7.7362 C   0  0  0  0  0  0  0  0  0  0  0  0
    0.8047   10.5920    7.5037 C   0  0  0  0  0  0  0  0  0  0  0  0
   -0.4199   11.0209    8.2394 C   0  0  0  0  0  0  0  0  0  0  0  0
   -3.1935   -2.6397   18.1500 C   0  0  0  0  0  0  0  0  0  0  0  0
   -2.0424   -2.7885   18.9964 C   0  0  0  0  0  0  0  0  0  0  0  0
   -2.1358   -2.9696   20.3590 C   0  0  0  0  0  0  0  0  0  0  0  0
   -1.0253   -3.1455   21.1786 C   0  0  0  0  0  0  0  0  0  0  0  0
    0.2305   -3.1390   20.6139 C   0  0  0  0  0  0  0  0  0  0  0  0
    0.3372   -2.9558   19.2394 C   0  0  0  0  0  0  0  0  0  0  0  0
   -0.7541   -2.7830   18.4291 C   0  0  0  0  0  0  0  0  0  0  0  0
   -4.6417   -0.9224   15.1497 N   0  0  0  0  0  0  0  0  0  0  0  0
   -2.1988   -1.2284   16.5285 N   0  0  0  0  0  0  0  0  0  0  0  0
    2.4614    2.1935   11.9348 N   0  0  1  0  0  4  0  0  0  0  0  0
    3.8917    4.5312    8.8287 N   0  0  0  0  0  0  0  0  0  0  0  0
    5.3439    4.3009    7.1709 N   0  0  0  0  0  0  0  0  0  0  0  0
    1.4430    8.2683    6.7006 N   0  0  0  0  0  0  0  0  0  0  0  0
    1.0878    8.7488    8.9170 O   0  0  0  0  0  0  0  0  0  0  0  0
    5.4927    2.9155    9.0008 O   0  0  0  0  0  0  0  0  0  0  0  0
   -5.6128   -2.3284   16.7121 O   0  0  0  0  0  0  0  0  0  0  0  0
    1.3755   -3.3094   21.3776 O   0  0  0  0  0  0  0  0  0  0  0  0
  1  2  1  0
  1 33  2  0
 41  1  1  0
 40  2  1  0
  2 48  2  0
  4  3  2  0
  3  5  1  0
  3 40  1  0
  6  4  1  0
  4 41  1  0
  5  7  2  0
  5 11  1  0
 12  6  2  0
 16  6  1  0
  7  8  1  0
  8  9  2  0
 10  9  1  0
 11 10  2  0
 13 12  1  0
 14 13  2  0
 14 15  1  0
 17 14  1  0
 15 16  2  0
 42 17  1  1
 19 18  1  0
 18 42  1  0
 20 19  1  0
 20 21  1  0
 20 43  1  6
 21 22  1  0
 22 42  1  0
 43 23  1  0
 23 44  1  0
 23 47  2  0
 25 24  2  0
 26 24  1  0
 24 44  1  0
 29 25  1  0
 25 43  1  0
 27 26  2  0
 28 27  1  0
 28 29  2  0
 45 28  1  0
 30 31  1  0
 30 45  1  0
 30 46  2  0
 31 32  1  0
 33 34  1  0
 34 35  2  0
 34 39  1  0
 35 36  1  0
 36 37  2  0
 37 38  1  0
 37 49  1  0
 38 39  2  0
M  CHG  1  42   1
M  END
$$$$
