
     RDKit          3D

 49 55  0  0  0  0  0  0  0  0999 V2000
   -1.1425    0.0925   19.8068 C   0  0  0  0  0  0  0  0  0  0  0  0
   -1.8030   -1.1965   19.6782 C   0  0  0  0  0  0  0  0  0  0  0  0
   -0.7966   -1.5683   17.4526 C   0  0  0  0  0  0  0  0  0  0  0  0
   -0.1976   -0.4027   17.5691 C   0  0  0  0  0  0  0  0  0  0  0  0
   -0.6609   -2.4598   16.2942 C   0  0  0  0  0  0  0  0  0  0  0  0
    0.6614    0.0306   16.4506 C   0  0  0  0  0  0  0  0  0  0  0  0
   -0.2098   -3.7674   16.5123 C   0  0  0  0  0  0  0  0  0  0  0  0
   -0.0325   -4.6284   15.4505 C   0  0  0  0  0  0  0  0  0  0  0  0
   -0.3113   -4.1602   14.1926 C   0  0  0  0  0  0  0  0  0  0  0  0
   -0.7554   -2.8783   13.9592 C   0  0  0  0  0  0  0  0  0  0  0  0
   -0.9324   -2.0161   15.0243 C   0  0  0  0  0  0  0  0  0  0  0  0
    1.6949   -0.8037   16.1051 C   0  0  0  0  0  0  0  0  0  0  0  0
    2.5470   -0.4351   15.0863 C   0  0  0  0  0  0  0  0  0  0  0  0
    2.4047    0.7341   14.4012 C   0  0  0  0  0  0  0  0  0  0  0  0
    1.3637    1.5638   14.7574 C   0  0  0  0  0  0  0  0  0  0  0  0
    0.4941    1.2170   15.7770 C   0  0  0  0  0  0  0  0  0  0  0  0
    3.2809    1.1857   13.2881 C   0  0  0  0  0  0  0  0  0  0  0  0
    3.9128    2.8197   11.7343 C   0  0  0  0  0  0  0  0  0  0  0  0
    3.2939    3.6726   10.6443 C   0  0  0  0  0  0  0  0  0  0  0  0
    2.4689    2.7785    9.7416 C   0  0  1  0  0  0  0  0  0  0  0  0
    1.7502    1.8206   10.6355 C   0  0  0  0  0  0  0  0  0  0  0  0
    1.5848    2.3863   12.0400 C   0  0  0  0  0  0  0  0  0  0  0  0
    0.5078    3.2972    8.2445 C   0  0  0  0  0  0  0  0  0  0  0  0
    0.9274    5.3794    7.8479 C   0  0  0  0  0  0  0  0  0  0  0  0
    1.9291    4.9002    8.6805 C   0  0  0  0  0  0  0  0  0  0  0  0
    1.0058    6.7021    7.4683 C   0  0  0  0  0  0  0  0  0  0  0  0
    2.0392    7.5356    7.8925 C   0  0  0  0  0  0  0  0  0  0  0  0
    3.0344    7.0818    8.7121 C   0  0  0  0  0  0  0  0  0  0  0  0
    2.9330    5.7363    9.0837 C   0  0  0  0  0  0  0  0  0  0  0  0
    4.7685    8.8959    8.5267 C   0  0  0  0  0  0  0  0  0  0  0  0
    5.9860    9.5763    9.0730 C   0  0  0  0  0  0  0  0  0  0  0  0
    6.3409   10.7976    8.2937 C   0  0  0  0  0  0  0  0  0  0  0  0
   -1.2585    0.9243   20.8155 C   0  0  0  0  0  0  0  0  0  0  0  0
   -0.8111    2.2843   20.9325 C   0  0  0  0  0  0  0  0  0  0  0  0
   -1.6780    3.3467   21.0672 C   0  0  0  0  0  0  0  0  0  0  0  0
   -1.2487    4.6622   21.2123 C   0  0  0  0  0  0  0  0  0  0  0  0
    0.1024    4.9276   21.2219 C   0  0  0  0  0  0  0  0  0  0  0  0
    0.9871    3.8632   21.0855 C   0  0  0  0  0  0  0  0  0  0  0  0
    0.5680    2.5664   20.9431 C   0  0  0  0  0  0  0  0  0  0  0  0
   -1.6426   -2.0205   18.5288 N   0  0  0  0  0  0  0  0  0  0  0  0
   -0.3184    0.4661   18.6903 N   0  0  0  0  0  0  0  0  0  0  0  0
    2.8768    2.4174   12.6955 N   0  0  1  0  0  4  0  0  0  0  0  0
    1.6426    3.5836    8.9172 N   0  0  0  0  0  0  0  0  0  0  0  0
    0.0586    4.3799    7.5879 N   0  0  0  0  0  0  0  0  0  0  0  0
    4.1179    7.8596    9.1976 N   0  0  0  0  0  0  0  0  0  0  0  0
    4.3483    9.2997    7.4248 O   0  0  0  0  0  0  0  0  0  0  0  0
   -0.0255    2.1785    8.2489 O   0  0  0  0  0  0  0  0  0  0  0  0
   -2.5382   -1.5941   20.6209 O   0  0  0  0  0  0  0  0  0  0  0  0
    0.5923    6.2173   21.3633 O   0  0  0  0  0  0  0  0  0  0  0  0
  1  2  1  0
  1 33  2  0
 41  1  1  0
 40  2  1  0
  2 48  2  0
  4  3  2  0
  3  5  1  0
  3 40  1  0
  6  4  1  0
  4 41  1  0
  5  7  2  0
  5 11  1  0
 12  6  2  0
 16  6  1  0
  7  8  1  0
  8  9  2  0
 10  9  1  0
 11 10  2  0
 13 12  1  0
 14 13  2  0
 14 15  1  0
 17 14  1  0
 15 16  2  0
 42 17  1  6
 19 18  1  0
 18 42  1  0
 20 19  1  0
 20 21  1  0
 20 43  1  1
 21 22  1  0
 22 42  1  0
 43 23  1  0
 23 44  1  0
 23 47  2  0
 25 24  2  0
 26 24  1  0
 24 44  1  0
 29 25  1  0
 25 43  1  0
 27 26  2  0
 28 27  1  0
 28 29  2  0
 45 28  1  0
 30 31  1  0
 30 45  1  0
 30 46  2  0
 31 32  1  0
 33 34  1  0
 34 35  2  0
 34 39  1  0
 35 36  1  0
 36 37  2  0
 37 38  1  0
 37 49  1  0
 38 39  2  0
M  CHG  1  42   1
M  END
$$$$
