
     RDKit          3D

 49 55  0  0  0  0  0  0  0  0999 V2000
    1.2975   -0.5238   18.3547 C   0  0  0  0  0  0  0  0  0  0  0  0
    0.1044   -1.1460   18.9058 C   0  0  0  0  0  0  0  0  0  0  0  0
   -1.1462   -0.7670   16.8089 C   0  0  0  0  0  0  0  0  0  0  0  0
   -0.0664   -0.2053   16.3094 C   0  0  0  0  0  0  0  0  0  0  0  0
   -2.4112   -0.9276   16.0816 C   0  0  0  0  0  0  0  0  0  0  0  0
   -0.1459    0.2996   14.9253 C   0  0  0  0  0  0  0  0  0  0  0  0
   -2.5242   -1.9870   15.1727 C   0  0  0  0  0  0  0  0  0  0  0  0
   -3.6800   -2.1553   14.4406 C   0  0  0  0  0  0  0  0  0  0  0  0
   -4.6980   -1.2581   14.6355 C   0  0  0  0  0  0  0  0  0  0  0  0
   -4.6048   -0.2109   15.5242 C   0  0  0  0  0  0  0  0  0  0  0  0
   -3.4456   -0.0431   16.2571 C   0  0  0  0  0  0  0  0  0  0  0  0
    0.0502   -0.6148   13.9210 C   0  0  0  0  0  0  0  0  0  0  0  0
    0.0162   -0.1930   12.6092 C   0  0  0  0  0  0  0  0  0  0  0  0
   -0.2064    1.1064   12.2646 C   0  0  0  0  0  0  0  0  0  0  0  0
   -0.4014    2.0155   13.2817 C   0  0  0  0  0  0  0  0  0  0  0  0
   -0.3719    1.6176   14.6072 C   0  0  0  0  0  0  0  0  0  0  0  0
   -0.2654    1.6243   10.8722 C   0  0  0  0  0  0  0  0  0  0  0  0
    0.7549    2.0326    8.8044 C   0  0  0  0  0  0  0  0  0  0  0  0
    2.0321    2.6320    8.2490 C   0  0  0  0  0  0  0  0  0  0  0  0
    2.2605    3.9769    8.9076 C   0  0  1  0  0  0  0  0  0  0  0  0
    1.9138    3.8065   10.3512 C   0  0  0  0  0  0  0  0  0  0  0  0
    2.0450    2.3532   10.7878 C   0  0  0  0  0  0  0  0  0  0  0  0
    4.7634    3.7499    8.7088 C   0  0  0  0  0  0  0  0  0  0  0  0
    5.2350    5.7598    8.0707 C   0  0  0  0  0  0  0  0  0  0  0  0
    3.8596    5.6846    8.2403 C   0  0  0  0  0  0  0  0  0  0  0  0
    5.7521    6.9703    7.6620 C   0  0  0  0  0  0  0  0  0  0  0  0
    4.9434    8.0804    7.4252 C   0  0  0  0  0  0  0  0  0  0  0  0
    3.5872    8.0258    7.5870 C   0  0  0  0  0  0  0  0  0  0  0  0
    3.0862    6.7867    8.0022 C   0  0  0  0  0  0  0  0  0  0  0  0
    1.7945    9.6489    8.2828 C   0  0  0  0  0  0  0  0  0  0  0  0
    0.8756   10.7824    7.9444 C   0  0  0  0  0  0  0  0  0  0  0  0
   -0.1390   11.0175    9.0122 C   0  0  0  0  0  0  0  0  0  0  0  0
    2.4361   -0.3429   18.9822 C   0  0  0  0  0  0  0  0  0  0  0  0
    3.5673    0.4589   18.6066 C   0  0  0  0  0  0  0  0  0  0  0  0
    4.6982   -0.0710   18.0249 C   0  0  0  0  0  0  0  0  0  0  0  0
    5.7834    0.7055   17.6309 C   0  0  0  0  0  0  0  0  0  0  0  0
    5.7375    2.0676   17.8273 C   0  0  0  0  0  0  0  0  0  0  0  0
    4.6014    2.6138   18.4148 C   0  0  0  0  0  0  0  0  0  0  0  0
    3.5306    1.8523   18.8034 C   0  0  0  0  0  0  0  0  0  0  0  0
   -1.1007   -1.2709   18.1589 N   0  0  0  0  0  0  0  0  0  0  0  0
    1.1661   -0.0497   17.0044 N   0  0  0  0  0  0  0  0  0  0  0  0
    0.9813    1.5770   10.1828 N   0  0  1  0  0  4  0  0  0  0  0  0
    3.5857    4.4063    8.6432 N   0  0  0  0  0  0  0  0  0  0  0  0
    5.7785    4.5595    8.3632 N   0  0  0  0  0  0  0  0  0  0  0  0
    2.6888    9.1015    7.3621 N   0  0  0  0  0  0  0  0  0  0  0  0
    1.7289    9.2028    9.4450 O   0  0  0  0  0  0  0  0  0  0  0  0
    4.8659    2.5617    9.0458 O   0  0  0  0  0  0  0  0  0  0  0  0
    0.1456   -1.5911   20.0837 O   0  0  0  0  0  0  0  0  0  0  0  0
    6.7869    2.8947   17.4558 O   0  0  0  0  0  0  0  0  0  0  0  0
  1  2  1  0
  1 33  2  0
 41  1  1  0
 40  2  1  0
  2 48  2  0
  4  3  2  0
  3  5  1  0
  3 40  1  0
  6  4  1  0
  4 41  1  0
  5  7  2  0
  5 11  1  0
 12  6  2  0
 16  6  1  0
  7  8  1  0
  8  9  2  0
 10  9  1  0
 11 10  2  0
 13 12  1  0
 14 13  2  0
 14 15  1  0
 17 14  1  0
 15 16  2  0
 42 17  1  1
 19 18  1  0
 18 42  1  0
 20 19  1  0
 20 21  1  0
 20 43  1  1
 21 22  1  0
 22 42  1  0
 43 23  1  0
 23 44  1  0
 23 47  2  0
 25 24  2  0
 26 24  1  0
 24 44  1  0
 29 25  1  0
 25 43  1  0
 27 26  2  0
 28 27  1  0
 28 29  2  0
 45 28  1  0
 30 31  1  0
 30 45  1  0
 30 46  2  0
 31 32  1  0
 33 34  1  0
 34 35  2  0
 34 39  1  0
 35 36  1  0
 36 37  2  0
 37 38  1  0
 37 49  1  0
 38 39  2  0
M  CHG  1  42   1
M  END
$$$$
