
     RDKit          3D

 49 55  0  0  0  0  0  0  0  0999 V2000
    0.4924   -1.3318   17.1642 C   0  0  0  0  0  0  0  0  0  0  0  0
   -0.9374   -1.5666   17.2857 C   0  0  0  0  0  0  0  0  0  0  0  0
   -1.4043   -0.1838   15.2921 C   0  0  0  0  0  0  0  0  0  0  0  0
   -0.1105    0.0276   15.1809 C   0  0  0  0  0  0  0  0  0  0  0  0
   -2.4163    0.3602   14.3784 C   0  0  0  0  0  0  0  0  0  0  0  0
    0.3420    0.8760   14.0618 C   0  0  0  0  0  0  0  0  0  0  0  0
   -3.2576   -0.5375   13.7095 C   0  0  0  0  0  0  0  0  0  0  0  0
   -4.1983   -0.0744   12.8146 C   0  0  0  0  0  0  0  0  0  0  0  0
   -4.2757    1.2788   12.6095 C   0  0  0  0  0  0  0  0  0  0  0  0
   -3.4572    2.1760   13.2578 C   0  0  0  0  0  0  0  0  0  0  0  0
   -2.5144    1.7105   14.1543 C   0  0  0  0  0  0  0  0  0  0  0  0
   -0.1426    0.5666   12.8157 C   0  0  0  0  0  0  0  0  0  0  0  0
    0.2695    1.3076   11.7290 C   0  0  0  0  0  0  0  0  0  0  0  0
    1.1462    2.3447   11.8415 C   0  0  0  0  0  0  0  0  0  0  0  0
    1.6263    2.6457   13.0976 C   0  0  0  0  0  0  0  0  0  0  0  0
    1.2283    1.9167   14.2051 C   0  0  0  0  0  0  0  0  0  0  0  0
    1.6225    3.1886   10.7138 C   0  0  0  0  0  0  0  0  0  0  0  0
   -0.1423    4.2271    9.5777 C   0  0  0  0  0  0  0  0  0  0  0  0
   -0.5407    4.5984    8.1628 C   0  0  0  0  0  0  0  0  0  0  0  0
    0.6271    5.3005    7.5008 C   0  0  1  0  0  0  0  0  0  0  0  0
    1.8568    4.5571    7.9112 C   0  0  0  0  0  0  0  0  0  0  0  0
    1.5363    3.1176    8.2923 C   0  0  0  0  0  0  0  0  0  0  0  0
   -0.4704    4.7109    5.3091 C   0  0  0  0  0  0  0  0  0  0  0  0
    0.6227    6.0505    4.0131 C   0  0  0  0  0  0  0  0  0  0  0  0
    1.1002    6.2317    5.3036 C   0  0  0  0  0  0  0  0  0  0  0  0
    1.1924    6.8171    3.0194 C   0  0  0  0  0  0  0  0  0  0  0  0
    2.2049    7.7384    3.2817 C   0  0  0  0  0  0  0  0  0  0  0  0
    2.6881    7.9305    4.5457 C   0  0  0  0  0  0  0  0  0  0  0  0
    2.0941    7.1411    5.5370 C   0  0  0  0  0  0  0  0  0  0  0  0
    3.6257    9.8561    5.8670 C   0  0  0  0  0  0  0  0  0  0  0  0
    4.6249   10.9676    5.9656 C   0  0  0  0  0  0  0  0  0  0  0  0
    4.5797   11.6439    7.2943 C   0  0  0  0  0  0  0  0  0  0  0  0
    1.4221   -1.7822   17.9740 C   0  0  0  0  0  0  0  0  0  0  0  0
    2.7758   -1.3340   18.1478 C   0  0  0  0  0  0  0  0  0  0  0  0
    3.4362   -0.5714   17.2095 C   0  0  0  0  0  0  0  0  0  0  0  0
    4.7363   -0.1086   17.3870 C   0  0  0  0  0  0  0  0  0  0  0  0
    5.4047   -0.4216   18.5494 C   0  0  0  0  0  0  0  0  0  0  0  0
    4.7485   -1.1920   19.5034 C   0  0  0  0  0  0  0  0  0  0  0  0
    3.4681   -1.6489   19.3323 C   0  0  0  0  0  0  0  0  0  0  0  0
   -1.8784   -1.0090   16.3750 N   0  0  0  0  0  0  0  0  0  0  0  0
    0.8789   -0.4997   16.0582 N   0  0  0  0  0  0  0  0  0  0  0  0
    0.8094    3.1081    9.5459 N   0  0  1  0  0  4  0  0  0  0  0  0
    0.3949    5.3754    6.1041 N   0  0  0  0  0  0  0  0  0  0  0  0
   -0.3451    5.1100    4.0323 N   0  0  0  0  0  0  0  0  0  0  0  0
    3.7089    8.8493    4.9044 N   0  0  0  0  0  0  0  0  0  0  0  0
    2.6955    9.8642    6.6968 O   0  0  0  0  0  0  0  0  0  0  0  0
   -1.2618    3.8534    5.7266 O   0  0  0  0  0  0  0  0  0  0  0  0
   -1.3515   -2.2919   18.2290 O   0  0  0  0  0  0  0  0  0  0  0  0
    6.7014    0.0101   18.7850 O   0  0  0  0  0  0  0  0  0  0  0  0
  1  2  1  0
  1 33  2  0
 41  1  1  0
 40  2  1  0
  2 48  2  0
  4  3  2  0
  3  5  1  0
  3 40  1  0
  6  4  1  0
  4 41  1  0
  5  7  2  0
  5 11  1  0
 12  6  2  0
 16  6  1  0
  7  8  1  0
  8  9  2  0
 10  9  1  0
 11 10  2  0
 13 12  1  0
 14 13  2  0
 14 15  1  0
 17 14  1  0
 15 16  2  0
 42 17  1  1
 19 18  1  0
 18 42  1  0
 20 19  1  0
 20 21  1  0
 20 43  1  6
 21 22  1  0
 22 42  1  0
 43 23  1  0
 23 44  1  0
 23 47  2  0
 25 24  2  0
 26 24  1  0
 24 44  1  0
 29 25  1  0
 25 43  1  0
 27 26  2  0
 28 27  1  0
 28 29  2  0
 45 28  1  0
 30 31  1  0
 30 45  1  0
 30 46  2  0
 31 32  1  0
 33 34  1  0
 34 35  2  0
 34 39  1  0
 35 36  1  0
 36 37  2  0
 37 38  1  0
 37 49  1  0
 38 39  2  0
M  CHG  1  42   1
M  END
$$$$
