
     RDKit          3D

 49 55  0  0  0  0  0  0  0  0999 V2000
    6.8605    2.7412   14.4585 C   0  0  0  0  0  0  0  0  0  0  0  0
    7.4608    3.4246   13.3241 C   0  0  0  0  0  0  0  0  0  0  0  0
    5.3724    3.2368   12.0172 C   0  0  0  0  0  0  0  0  0  0  0  0
    4.8284    2.6197   13.0440 C   0  0  0  0  0  0  0  0  0  0  0  0
    4.6764    3.5246   10.7571 C   0  0  0  0  0  0  0  0  0  0  0  0
    3.4249    2.1863   12.9059 C   0  0  0  0  0  0  0  0  0  0  0  0
    4.0613    2.4635   10.0813 C   0  0  0  0  0  0  0  0  0  0  0  0
    3.4275    2.6801    8.8765 C   0  0  0  0  0  0  0  0  0  0  0  0
    3.4235    3.9560    8.3750 C   0  0  0  0  0  0  0  0  0  0  0  0
    4.0228    5.0111    9.0252 C   0  0  0  0  0  0  0  0  0  0  0  0
    4.6582    4.7926   10.2326 C   0  0  0  0  0  0  0  0  0  0  0  0
    3.1474    0.8791   13.2186 C   0  0  0  0  0  0  0  0  0  0  0  0
    1.8581    0.4119   13.0800 C   0  0  0  0  0  0  0  0  0  0  0  0
    0.8377    1.2012   12.6414 C   0  0  0  0  0  0  0  0  0  0  0  0
    1.1285    2.5117   12.3299 C   0  0  0  0  0  0  0  0  0  0  0  0
    2.4152    3.0055   12.4603 C   0  0  0  0  0  0  0  0  0  0  0  0
   -0.5739    0.7634   12.4793 C   0  0  0  0  0  0  0  0  0  0  0  0
   -2.7075    1.7124   12.3042 C   0  0  0  0  0  0  0  0  0  0  0  0
   -3.9294    1.9654   13.1655 C   0  0  0  0  0  0  0  0  0  0  0  0
   -4.2880    0.6809   13.8840 C   0  0  1  0  0  0  0  0  0  0  0  0
   -2.9989    0.0696   14.3288 C   0  0  0  0  0  0  0  0  0  0  0  0
   -1.9052    1.1198   14.4735 C   0  0  0  0  0  0  0  0  0  0  0  0
   -5.1696    1.8507   15.9359 C   0  0  0  0  0  0  0  0  0  0  0  0
   -7.0672    0.8328   16.1156 C   0  0  0  0  0  0  0  0  0  0  0  0
   -6.4129    0.3095   15.0091 C   0  0  0  0  0  0  0  0  0  0  0  0
   -8.3097    0.3157   16.4129 C   0  0  0  0  0  0  0  0  0  0  0  0
   -8.8979   -0.6890   15.6466 C   0  0  0  0  0  0  0  0  0  0  0  0
   -8.2690   -1.2168   14.5538 C   0  0  0  0  0  0  0  0  0  0  0  0
   -7.0092   -0.6758   14.2723 C   0  0  0  0  0  0  0  0  0  0  0  0
   -9.9624   -2.1673   12.9533 C   0  0  0  0  0  0  0  0  0  0  0  0
  -10.1024   -2.8427   11.6237 C   0  0  0  0  0  0  0  0  0  0  0  0
  -11.4964   -2.7614   11.0993 C   0  0  0  0  0  0  0  0  0  0  0  0
    7.4582    2.4472   15.5896 C   0  0  0  0  0  0  0  0  0  0  0  0
    6.9913    1.6461   16.6867 C   0  0  0  0  0  0  0  0  0  0  0  0
    5.8254    0.9139   16.6336 C   0  0  0  0  0  0  0  0  0  0  0  0
    5.3851    0.1119   17.6819 C   0  0  0  0  0  0  0  0  0  0  0  0
    6.1400    0.0394   18.8312 C   0  0  0  0  0  0  0  0  0  0  0  0
    7.3183    0.7752   18.8968 C   0  0  0  0  0  0  0  0  0  0  0  0
    7.7554    1.5655   17.8663 C   0  0  0  0  0  0  0  0  0  0  0  0
    6.7425    3.6733   12.1207 N   0  0  0  0  0  0  0  0  0  0  0  0
    5.4930    2.3408   14.2716 N   0  0  0  0  0  0  0  0  0  0  0  0
   -1.5181    1.5879   13.1578 N   0  0  1  0  0  4  0  0  0  0  0  0
   -5.2173    0.9678   14.9158 N   0  0  0  0  0  0  0  0  0  0  0  0
   -6.2885    1.7817   16.6765 N   0  0  0  0  0  0  0  0  0  0  0  0
   -8.7947   -2.2336   13.7144 N   0  0  0  0  0  0  0  0  0  0  0  0
  -10.9510   -1.5285   13.3637 O   0  0  0  0  0  0  0  0  0  0  0  0
   -4.2111    2.6096   16.1388 O   0  0  0  0  0  0  0  0  0  0  0  0
    8.6565    3.8107   13.4164 O   0  0  0  0  0  0  0  0  0  0  0  0
    5.7545   -0.7422   19.9100 O   0  0  0  0  0  0  0  0  0  0  0  0
  1  2  1  0
  1 33  2  0
 41  1  1  0
 40  2  1  0
  2 48  2  0
  4  3  2  0
  3  5  1  0
  3 40  1  0
  6  4  1  0
  4 41  1  0
  5  7  2  0
  5 11  1  0
 12  6  2  0
 16  6  1  0
  7  8  1  0
  8  9  2  0
 10  9  1  0
 11 10  2  0
 13 12  1  0
 14 13  2  0
 14 15  1  0
 17 14  1  0
 15 16  2  0
 42 17  1  6
 19 18  1  0
 18 42  1  0
 20 19  1  0
 20 21  1  0
 20 43  1  1
 21 22  1  0
 22 42  1  0
 43 23  1  0
 23 44  1  0
 23 47  2  0
 25 24  2  0
 26 24  1  0
 24 44  1  0
 29 25  1  0
 25 43  1  0
 27 26  2  0
 28 27  1  0
 28 29  2  0
 45 28  1  0
 30 31  1  0
 30 45  1  0
 30 46  2  0
 31 32  1  0
 33 34  1  0
 34 35  2  0
 34 39  1  0
 35 36  1  0
 36 37  2  0
 37 38  1  0
 37 49  1  0
 38 39  2  0
M  CHG  1  42   1
M  END
$$$$
