
     RDKit          3D

 41 44  0  0  0  0  0  0  0  0999 V2000
   71.2951   57.4632   14.9145 C   0  0  1  0  0  0  0  0  0  0  0  0
   71.0360   57.8918   16.2914 C   0  0  2  0  0  0  0  0  0  0  0  0
   72.7048   57.9842   18.1677 C   0  0  0  0  0  0  0  0  0  0  0  0
   74.4982   59.3122   19.1961 C   0  0  1  0  0  0  0  0  0  0  0  0
   75.3048   60.2841   18.4333 C   0  0  0  0  0  0  0  0  0  0  0  0
   74.5608   61.2936   20.3168 C   0  0  1  0  0  0  0  0  0  0  0  0
   72.6289   62.3375   19.8644 C   0  0  0  0  0  0  0  0  0  0  0  0
   69.7779   58.6248   16.5062 C   0  0  0  0  0  0  0  0  0  0  0  0
   67.2242   51.3949   13.5215 C   0  0  0  0  0  0  0  0  0  0  0  0
   68.0173   51.0502   14.6118 C   0  0  0  0  0  0  0  0  0  0  0  0
   68.6432   52.0447   15.3438 C   0  0  0  0  0  0  0  0  0  0  0  0
   68.4983   53.3717   15.0171 C   0  0  0  0  0  0  0  0  0  0  0  0
   67.7233   53.7457   13.9502 C   0  0  0  0  0  0  0  0  0  0  0  0
   67.1006   52.7255   13.2243 C   0  0  0  0  0  0  0  0  0  0  0  0
   71.3472   53.8254   14.6040 C   0  0  0  0  0  0  0  0  0  0  0  0
   70.8444   56.1385   14.4402 C   0  0  0  0  0  0  0  0  0  0  0  0
   73.5359   60.2130   19.9106 C   0  0  1  0  0  0  0  0  0  0  0  0
   72.6938   61.0720   19.0200 C   0  0  0  0  0  0  0  0  0  0  0  0
   69.4556   59.1716   17.8375 C   0  0  0  0  0  0  0  0  0  0  0  0
   68.5997   60.3556   17.9847 C   0  0  0  0  0  0  0  0  0  0  0  0
   68.9893   60.9769   19.3618 C   0  0  0  0  0  0  0  0  0  0  0  0
   68.5228   59.9567   20.3990 C   0  0  0  0  0  0  0  0  0  0  0  0
   69.2449   58.6515   20.2046 C   0  0  0  0  0  0  0  0  0  0  0  0
   68.9366   58.1155   18.8092 C   0  0  0  0  0  0  0  0  0  0  0  0
   67.5734   49.2826   12.2878 C   0  0  0  0  0  0  0  0  0  0  0  0
   72.8166   53.7187   14.4511 C   0  0  1  0  0  0  0  0  0  0  0  0
   73.5072   54.9743   15.0237 C   0  0  0  0  0  0  0  0  0  0  0  0
   66.5559   50.3270   12.7329 C   0  0  2  0  0  0  0  0  0  0  0  0
   73.4215   52.5338   15.1181 C   0  0  0  0  0  0  0  0  0  0  0  0
   70.8666   54.9982   15.3237 N   0  0  0  0  0  0  0  0  0  0  0  0
   72.1416   58.4991   16.9855 N   0  0  0  0  0  0  0  0  0  0  0  0
   68.4560   55.7608   16.2396 O   0  0  0  0  0  0  0  0  0  0  0  0
   69.5763   53.9758   17.3612 O   0  0  0  0  0  0  0  0  0  0  0  0
   70.4359   58.3741   14.1304 O   0  0  0  0  0  0  0  0  0  0  0  0
   71.9896   57.2691   18.9161 O   0  0  0  0  0  0  0  0  0  0  0  0
   73.9798   58.2030   18.5734 O   0  0  0  0  0  0  0  0  0  0  0  0
   75.2057   61.5105   19.1226 O   0  0  0  0  0  0  0  0  0  0  0  0
   73.7645   62.3640   20.6489 O   0  0  0  0  0  0  0  0  0  0  0  0
   66.0059   50.9379   11.6006 O   0  0  0  0  0  0  0  0  0  0  0  0
   66.9516   48.0304   12.3452 O   0  0  0  0  0  0  0  0  0  0  0  0
   69.3340   54.5991   15.9804 S   0  0  1  0  0  6  0  0  0  0  0  0
  1  2  1  0
 16  1  1  0
  1 34  1  6
  2  8  1  6
  2 31  1  0
 31  3  1  0
  3 35  2  0
  3 36  1  0
  4  5  1  0
  4 17  1  0
  4 36  1  6
  5 37  1  0
 17  6  1  0
  6 37  1  6
  6 38  1  0
 18  7  1  0
  7 38  1  0
  8 19  1  0
 10  9  2  0
 14  9  1  0
  9 28  1  0
 11 10  1  0
 12 11  2  0
 12 13  1  0
 41 12  1  0
 13 14  2  0
 15 26  1  0
 30 15  1  0
 30 16  1  0
 17 18  1  6
 19 20  1  0
 19 24  1  0
 20 21  1  0
 21 22  1  0
 23 22  1  0
 24 23  1  0
 28 25  1  0
 25 40  1  0
 26 27  1  1
 26 29  1  0
 28 39  1  6
 41 30  1  6
 41 32  2  0
 41 33  2  0
M  END
$$$$
