
     RDKit          3D

 41 44  0  0  0  0  0  0  0  0999 V2000
   70.5623   56.8642   15.6140 C   0  0  1  0  0  0  0  0  0  0  0  0
   71.8965   56.6355   16.1743 C   0  0  2  0  0  0  0  0  0  0  0  0
   72.5617   58.0864   18.1150 C   0  0  0  0  0  0  0  0  0  0  0  0
   74.1059   59.2729   19.6134 C   0  0  1  0  0  0  0  0  0  0  0  0
   74.7977   60.2848   18.7922 C   0  0  0  0  0  0  0  0  0  0  0  0
   74.2153   61.2372   20.7604 C   0  0  1  0  0  0  0  0  0  0  0  0
   72.2134   62.2192   20.5256 C   0  0  0  0  0  0  0  0  0  0  0  0
   72.5549   55.3840   15.7660 C   0  0  0  0  0  0  0  0  0  0  0  0
   66.8399   50.4390   13.7665 C   0  0  0  0  0  0  0  0  0  0  0  0
   66.2129   51.0554   14.8453 C   0  0  0  0  0  0  0  0  0  0  0  0
   66.8827   52.0366   15.5561 C   0  0  0  0  0  0  0  0  0  0  0  0
   68.1591   52.4183   15.2190 C   0  0  0  0  0  0  0  0  0  0  0  0
   68.8050   51.8326   14.1615 C   0  0  0  0  0  0  0  0  0  0  0  0
   68.1107   50.8437   13.4574 C   0  0  0  0  0  0  0  0  0  0  0  0
   67.1848   55.4640   15.8135 C   0  0  0  0  0  0  0  0  0  0  0  0
   69.3648   56.2878   16.2596 C   0  0  0  0  0  0  0  0  0  0  0  0
   73.1913   60.1277   20.4388 C   0  0  1  0  0  0  0  0  0  0  0  0
   72.2347   60.9704   19.6545 C   0  0  0  0  0  0  0  0  0  0  0  0
   73.8782   55.0292   16.3121 C   0  0  0  0  0  0  0  0  0  0  0  0
   74.1315   55.0459   17.7583 C   0  0  0  0  0  0  0  0  0  0  0  0
   75.6720   55.2453   17.9044 C   0  0  0  0  0  0  0  0  0  0  0  0
   76.2881   53.9585   17.3578 C   0  0  0  0  0  0  0  0  0  0  0  0
   75.9303   53.7872   15.9068 C   0  0  0  0  0  0  0  0  0  0  0  0
   74.4120   53.7041   15.7754 C   0  0  0  0  0  0  0  0  0  0  0  0
   67.1080   48.3372   12.4952 C   0  0  0  0  0  0  0  0  0  0  0  0
   66.8244   56.3420   16.9506 C   0  0  1  0  0  0  0  0  0  0  0  0
   68.0800   56.6904   17.7773 C   0  0  0  0  0  0  0  0  0  0  0  0
   66.1227   49.3825   13.0061 C   0  0  2  0  0  0  0  0  0  0  0  0
   66.1785   57.6242   16.5589 C   0  0  0  0  0  0  0  0  0  0  0  0
   68.6109   55.2457   15.6062 N   0  0  0  0  0  0  0  0  0  0  0  0
   72.0451   56.8904   17.5835 N   0  0  0  0  0  0  0  0  0  0  0  0
   68.7399   53.4683   17.6200 O   0  0  0  0  0  0  0  0  0  0  0  0
   70.4781   53.4477   15.9837 O   0  0  0  0  0  0  0  0  0  0  0  0
   70.3639   58.3101   15.8438 O   0  0  0  0  0  0  0  0  0  0  0  0
   72.0729   59.1798   17.7295 O   0  0  0  0  0  0  0  0  0  0  0  0
   73.5645   58.1562   19.0248 O   0  0  0  0  0  0  0  0  0  0  0  0
   74.7280   61.4958   19.5117 O   0  0  0  0  0  0  0  0  0  0  0  0
   73.4212   62.2733   21.1918 O   0  0  0  0  0  0  0  0  0  0  0  0
   65.5142   50.0073   11.9121 O   0  0  0  0  0  0  0  0  0  0  0  0
   66.3983   47.4416   11.6877 O   0  0  0  0  0  0  0  0  0  0  0  0
   68.9717   53.6684   16.1730 S   0  0  1  0  0  6  0  0  0  0  0  0
  1  2  1  0
 16  1  1  0
  1 34  1  1
  2  8  1  1
  2 31  1  0
 31  3  1  0
  3 35  2  0
  3 36  1  0
  4  5  1  0
  4 17  1  0
  4 36  1  6
  5 37  1  0
 17  6  1  0
  6 37  1  6
  6 38  1  0
 18  7  1  0
  7 38  1  0
  8 19  1  0
 10  9  2  0
 14  9  1  0
  9 28  1  0
 11 10  1  0
 12 11  2  0
 12 13  1  0
 41 12  1  0
 13 14  2  0
 15 26  1  0
 30 15  1  0
 30 16  1  0
 17 18  1  6
 19 20  1  0
 19 24  1  0
 20 21  1  0
 21 22  1  0
 23 22  1  0
 24 23  1  0
 28 25  1  0
 25 40  1  0
 26 27  1  6
 26 29  1  0
 28 39  1  6
 41 30  1  6
 41 32  2  0
 41 33  2  0
M  END
$$$$
