
     RDKit          3D

 41 44  0  0  0  0  0  0  0  0999 V2000
   71.5101   57.1684   15.5422 C   0  0  1  0  0  0  0  0  0  0  0  0
   71.1829   57.6462   16.8879 C   0  0  2  0  0  0  0  0  0  0  0  0
   73.2009   57.7201   18.3833 C   0  0  0  0  0  0  0  0  0  0  0  0
   74.5606   59.3034   19.6802 C   0  0  1  0  0  0  0  0  0  0  0  0
   75.1038   59.9942   18.4950 C   0  0  0  0  0  0  0  0  0  0  0  0
   75.3015   61.3718   20.2792 C   0  0  1  0  0  0  0  0  0  0  0  0
   73.4890   62.6874   20.3828 C   0  0  0  0  0  0  0  0  0  0  0  0
   69.8789   58.3141   17.0292 C   0  0  0  0  0  0  0  0  0  0  0  0
   70.5602   50.6866   13.0899 C   0  0  0  0  0  0  0  0  0  0  0  0
   71.1066   51.1377   14.2877 C   0  0  0  0  0  0  0  0  0  0  0  0
   70.5586   52.2430   14.9158 C   0  0  0  0  0  0  0  0  0  0  0  0
   69.4815   52.9084   14.3812 C   0  0  0  0  0  0  0  0  0  0  0  0
   68.9185   52.4897   13.2038 C   0  0  0  0  0  0  0  0  0  0  0  0
   69.4876   51.3718   12.5857 C   0  0  0  0  0  0  0  0  0  0  0  0
   68.8200   56.8822   15.2840 C   0  0  0  0  0  0  0  0  0  0  0  0
   70.9621   55.8906   15.0422 C   0  0  0  0  0  0  0  0  0  0  0  0
   74.0791   60.4571   20.5080 C   0  0  1  0  0  0  0  0  0  0  0  0
   73.0596   61.3292   19.8446 C   0  0  0  0  0  0  0  0  0  0  0  0
   69.5655   59.0794   18.2504 C   0  0  0  0  0  0  0  0  0  0  0  0
   68.8385   60.3533   18.1819 C   0  0  0  0  0  0  0  0  0  0  0  0
   69.2385   61.1260   19.4769 C   0  0  0  0  0  0  0  0  0  0  0  0
   68.6229   60.3212   20.6204 C   0  0  0  0  0  0  0  0  0  0  0  0
   69.2056   58.9348   20.6520 C   0  0  0  0  0  0  0  0  0  0  0  0
   68.8964   58.2351   19.3313 C   0  0  0  0  0  0  0  0  0  0  0  0
   72.4733   49.8765   11.7520 C   0  0  0  0  0  0  0  0  0  0  0  0
   68.3183   56.6571   16.6592 C   0  0  1  0  0  0  0  0  0  0  0  0
   68.3704   57.9691   17.4699 C   0  0  0  0  0  0  0  0  0  0  0  0
   71.1513   49.5028   12.4130 C   0  0  2  0  0  0  0  0  0  0  0  0
   66.9231   56.1442   16.7303 C   0  0  0  0  0  0  0  0  0  0  0  0
   69.5671   55.7797   14.6916 N   0  0  0  0  0  0  0  0  0  0  0  0
   72.2293   58.3493   17.5834 N   0  0  0  0  0  0  0  0  0  0  0  0
   67.3533   54.3342   15.1824 O   0  0  0  0  0  0  0  0  0  0  0  0
   69.1831   54.1478   16.7043 O   0  0  0  0  0  0  0  0  0  0  0  0
   70.8226   58.1511   14.6794 O   0  0  0  0  0  0  0  0  0  0  0  0
   73.6411   56.5964   18.0276 O   0  0  0  0  0  0  0  0  0  0  0  0
   73.7086   58.2367   19.5295 O   0  0  0  0  0  0  0  0  0  0  0  0
   75.4353   61.2997   18.9132 O   0  0  0  0  0  0  0  0  0  0  0  0
   74.8379   62.6073   20.6648 O   0  0  0  0  0  0  0  0  0  0  0  0
   70.2457   49.1020   11.4247 O   0  0  0  0  0  0  0  0  0  0  0  0
   73.1250   48.6891   11.4013 O   0  0  0  0  0  0  0  0  0  0  0  0
   68.8318   54.3244   15.2214 S   0  0  1  0  0  6  0  0  0  0  0  0
  1  2  1  0
 16  1  1  0
  1 34  1  6
  2  8  1  6
  2 31  1  0
 31  3  1  0
  3 35  2  0
  3 36  1  0
  4  5  1  0
  4 17  1  0
  4 36  1  6
  5 37  1  0
 17  6  1  0
  6 37  1  6
  6 38  1  0
 18  7  1  0
  7 38  1  0
  8 19  1  0
 10  9  2  0
 14  9  1  0
  9 28  1  0
 11 10  1  0
 12 11  2  0
 12 13  1  0
 41 12  1  0
 13 14  2  0
 15 26  1  0
 30 15  1  0
 30 16  1  0
 17 18  1  6
 19 20  1  0
 19 24  1  0
 20 21  1  0
 21 22  1  0
 23 22  1  0
 24 23  1  0
 28 25  1  0
 25 40  1  0
 26 27  1  1
 26 29  1  0
 28 39  1  6
 41 30  1  6
 41 32  2  0
 41 33  2  0
M  END
$$$$
