
     RDKit          3D

 41 44  0  0  0  0  0  0  0  0999 V2000
   71.4987   57.1859   15.5033 C   0  0  1  0  0  0  0  0  0  0  0  0
   71.3843   55.7394   15.3005 C   0  0  2  0  0  0  0  0  0  0  0  0
   69.4411   54.2781   15.9350 C   0  0  0  0  0  0  0  0  0  0  0  0
   67.7179   52.8991   14.8551 C   0  0  1  0  0  0  0  0  0  0  0  0
   67.1851   53.3584   13.5581 C   0  0  0  0  0  0  0  0  0  0  0  0
   67.7362   51.1718   13.3710 C   0  0  1  0  0  0  0  0  0  0  0  0
   69.8380   51.0175   12.6059 C   0  0  0  0  0  0  0  0  0  0  0  0
   72.3510   55.1475   14.3616 C   0  0  0  0  0  0  0  0  0  0  0  0
   74.8122   60.9123   20.4407 C   0  0  0  0  0  0  0  0  0  0  0  0
   75.1112   60.6700   19.1033 C   0  0  0  0  0  0  0  0  0  0  0  0
   74.4615   59.6486   18.4316 C   0  0  0  0  0  0  0  0  0  0  0  0
   73.5229   58.8644   19.0582 C   0  0  0  0  0  0  0  0  0  0  0  0
   73.2039   59.0770   20.3741 C   0  0  0  0  0  0  0  0  0  0  0  0
   73.8721   60.1133   21.0339 C   0  0  0  0  0  0  0  0  0  0  0  0
   70.7732   59.1686   18.5024 C   0  0  0  0  0  0  0  0  0  0  0  0
   70.6724   57.8724   16.5176 C   0  0  0  0  0  0  0  0  0  0  0  0
   68.6607   51.8145   14.4271 C   0  0  1  0  0  0  0  0  0  0  0  0
   69.7450   52.2519   13.4927 C   0  0  0  0  0  0  0  0  0  0  0  0
   72.7779   53.7449   14.5219 C   0  0  0  0  0  0  0  0  0  0  0  0
   73.7009   53.1188   13.5670 C   0  0  0  0  0  0  0  0  0  0  0  0
   73.4246   51.5868   13.6709 C   0  0  0  0  0  0  0  0  0  0  0  0
   73.8971   51.1966   15.0705 C   0  0  0  0  0  0  0  0  0  0  0  0
   73.0985   51.9318   16.1118 C   0  0  0  0  0  0  0  0  0  0  0  0
   73.2971   53.4332   15.9226 C   0  0  0  0  0  0  0  0  0  0  0  0
   74.9322   62.1720   22.5631 C   0  0  0  0  0  0  0  0  0  0  0  0
   69.3599   59.6064   18.4339 C   0  0  1  0  0  0  0  0  0  0  0  0
   68.4233   58.4657   18.8844 C   0  0  0  0  0  0  0  0  0  0  0  0
   75.5129   62.0058   21.1633 C   0  0  2  0  0  0  0  0  0  0  0  0
   69.0427   60.7987   19.2661 C   0  0  0  0  0  0  0  0  0  0  0  0
   71.0665   57.8717   17.9054 N   0  0  0  0  0  0  0  0  0  0  0  0
   70.0527   55.2304   15.0989 N   0  0  0  0  0  0  0  0  0  0  0  0
   73.4882   57.2393   16.9223 O   0  0  0  0  0  0  0  0  0  0  0  0
   72.8431   56.3034   19.0216 O   0  0  0  0  0  0  0  0  0  0  0  0
   72.8544   57.3211   16.0750 O   0  0  0  0  0  0  0  0  0  0  0  0
   70.0962   53.8157   16.9045 O   0  0  0  0  0  0  0  0  0  0  0  0
   68.1793   53.8087   15.7751 O   0  0  0  0  0  0  0  0  0  0  0  0
   67.3318   52.2784   12.6632 O   0  0  0  0  0  0  0  0  0  0  0  0
   68.6025   50.4024   12.6310 O   0  0  0  0  0  0  0  0  0  0  0  0
   75.2941   63.1818   20.4374 O   0  0  0  0  0  0  0  0  0  0  0  0
   75.4730   63.3395   23.1129 O   0  0  0  0  0  0  0  0  0  0  0  0
   72.7347   57.5634   18.1530 S   0  0  1  0  0  6  0  0  0  0  0  0
  1  2  1  0
 16  1  1  0
  1 34  1  1
  2  8  1  6
  2 31  1  0
 31  3  1  0
  3 35  2  0
  3 36  1  0
  4  5  1  0
  4 17  1  0
  4 36  1  6
  5 37  1  0
 17  6  1  0
  6 37  1  6
  6 38  1  0
 18  7  1  0
  7 38  1  0
  8 19  1  0
 10  9  2  0
 14  9  1  0
  9 28  1  0
 11 10  1  0
 12 11  2  0
 12 13  1  0
 41 12  1  0
 13 14  2  0
 15 26  1  0
 30 15  1  0
 30 16  1  0
 17 18  1  6
 19 20  1  0
 19 24  1  0
 20 21  1  0
 21 22  1  0
 23 22  1  0
 24 23  1  0
 28 25  1  0
 25 40  1  0
 26 27  1  1
 26 29  1  0
 28 39  1  6
 41 30  1  6
 41 32  2  0
 41 33  2  0
M  END
$$$$
