
     RDKit          3D

 41 44  0  0  0  0  0  0  0  0999 V2000
   71.1928   57.4596   15.4646 C   0  0  1  0  0  0  0  0  0  0  0  0
   70.9522   58.0392   16.7884 C   0  0  2  0  0  0  0  0  0  0  0  0
   72.9280   58.3799   18.3031 C   0  0  0  0  0  0  0  0  0  0  0  0
   74.6751   59.8909   19.1410 C   0  0  1  0  0  0  0  0  0  0  0  0
   75.3490   61.0053   18.4475 C   0  0  0  0  0  0  0  0  0  0  0  0
   74.6546   61.7382   20.4726 C   0  0  1  0  0  0  0  0  0  0  0  0
   72.6198   62.6538   20.2528 C   0  0  0  0  0  0  0  0  0  0  0  0
   69.6345   58.6661   16.9815 C   0  0  0  0  0  0  0  0  0  0  0  0
   67.3094   51.3655   13.8698 C   0  0  0  0  0  0  0  0  0  0  0  0
   67.0255   52.7268   13.8145 C   0  0  0  0  0  0  0  0  0  0  0  0
   67.6955   53.5998   14.6544 C   0  0  0  0  0  0  0  0  0  0  0  0
   68.6399   53.1508   15.5462 C   0  0  0  0  0  0  0  0  0  0  0  0
   68.9444   51.8168   15.6255 C   0  0  0  0  0  0  0  0  0  0  0  0
   68.2558   50.9524   14.7687 C   0  0  0  0  0  0  0  0  0  0  0  0
   71.4333   53.9463   15.0254 C   0  0  0  0  0  0  0  0  0  0  0  0
   70.5911   56.1636   15.0886 C   0  0  0  0  0  0  0  0  0  0  0  0
   73.6940   60.6231   20.0068 C   0  0  1  0  0  0  0  0  0  0  0  0
   72.7286   61.4969   19.2687 C   0  0  0  0  0  0  0  0  0  0  0  0
   69.1913   59.0610   18.3316 C   0  0  0  0  0  0  0  0  0  0  0  0
   70.1453   59.5703   19.3248 C   0  0  0  0  0  0  0  0  0  0  0  0
   69.4906   59.2808   20.7111 C   0  0  0  0  0  0  0  0  0  0  0  0
   68.2635   60.1895   20.7633 C   0  0  0  0  0  0  0  0  0  0  0  0
   67.3050   59.8314   19.6607 C   0  0  0  0  0  0  0  0  0  0  0  0
   68.0021   60.0173   18.3157 C   0  0  0  0  0  0  0  0  0  0  0  0
   67.1806   49.0276   13.0803 C   0  0  0  0  0  0  0  0  0  0  0  0
   72.8821   54.0779   14.7473 C   0  0  1  0  0  0  0  0  0  0  0  0
   73.6745   54.1744   16.0680 C   0  0  0  0  0  0  0  0  0  0  0  0
   66.5869   50.4276   12.9714 C   0  0  2  0  0  0  0  0  0  0  0  0
   73.4631   52.9569   13.9596 C   0  0  0  0  0  0  0  0  0  0  0  0
   70.8521   54.9806   15.8720 N   0  0  0  0  0  0  0  0  0  0  0  0
   72.0175   58.8396   17.3338 N   0  0  0  0  0  0  0  0  0  0  0  0
   68.5003   55.3108   17.1334 O   0  0  0  0  0  0  0  0  0  0  0  0
   69.9173   53.5234   17.8378 O   0  0  0  0  0  0  0  0  0  0  0  0
   70.4781   58.3956   14.5725 O   0  0  0  0  0  0  0  0  0  0  0  0
   72.5472   57.5045   19.1227 O   0  0  0  0  0  0  0  0  0  0  0  0
   74.2061   58.8146   18.4281 O   0  0  0  0  0  0  0  0  0  0  0  0
   75.1989   62.1372   19.2753 O   0  0  0  0  0  0  0  0  0  0  0  0
   73.7995   62.6937   20.9685 O   0  0  0  0  0  0  0  0  0  0  0  0
   66.7624   50.8958   11.6646 O   0  0  0  0  0  0  0  0  0  0  0  0
   66.4989   48.2043   12.1773 O   0  0  0  0  0  0  0  0  0  0  0  0
   69.4545   54.3115   16.6056 S   0  0  1  0  0  6  0  0  0  0  0  0
  1  2  1  0
 16  1  1  0
  1 34  1  6
  2  8  1  6
  2 31  1  0
 31  3  1  0
  3 35  2  0
  3 36  1  0
  4  5  1  0
  4 17  1  0
  4 36  1  6
  5 37  1  0
 17  6  1  0
  6 37  1  6
  6 38  1  0
 18  7  1  0
  7 38  1  0
  8 19  1  0
 10  9  2  0
 14  9  1  0
  9 28  1  0
 11 10  1  0
 12 11  2  0
 12 13  1  0
 41 12  1  0
 13 14  2  0
 15 26  1  0
 30 15  1  0
 30 16  1  0
 17 18  1  6
 19 20  1  0
 19 24  1  0
 20 21  1  0
 21 22  1  0
 23 22  1  0
 24 23  1  0
 28 25  1  0
 25 40  1  0
 26 27  1  1
 26 29  1  0
 28 39  1  6
 41 30  1  6
 41 32  2  0
 41 33  2  0
M  END
$$$$
