
     RDKit          3D

 41 44  0  0  0  0  0  0  0  0999 V2000
   71.1279   57.3436   15.8532 C   0  0  1  0  0  0  0  0  0  0  0  0
   70.7702   57.8036   17.1974 C   0  0  2  0  0  0  0  0  0  0  0  0
   73.1434   58.0498   17.9857 C   0  0  0  0  0  0  0  0  0  0  0  0
   74.5957   59.2995   19.5240 C   0  0  1  0  0  0  0  0  0  0  0  0
   75.2751   60.2043   18.5771 C   0  0  0  0  0  0  0  0  0  0  0  0
   74.8975   61.3345   20.5008 C   0  0  1  0  0  0  0  0  0  0  0  0
   72.9386   62.4125   20.3350 C   0  0  0  0  0  0  0  0  0  0  0  0
   69.4707   58.4849   17.3148 C   0  0  0  0  0  0  0  0  0  0  0  0
   67.4116   51.2719   13.4245 C   0  0  0  0  0  0  0  0  0  0  0  0
   68.3108   50.8055   14.3789 C   0  0  0  0  0  0  0  0  0  0  0  0
   68.8586   51.6900   15.2922 C   0  0  0  0  0  0  0  0  0  0  0  0
   68.5330   53.0250   15.2784 C   0  0  0  0  0  0  0  0  0  0  0  0
   67.6499   53.5171   14.3529 C   0  0  0  0  0  0  0  0  0  0  0  0
   67.1087   52.6069   13.4395 C   0  0  0  0  0  0  0  0  0  0  0  0
   71.2609   53.9416   14.8565 C   0  0  0  0  0  0  0  0  0  0  0  0
   70.4874   56.1461   15.2713 C   0  0  0  0  0  0  0  0  0  0  0  0
   73.7942   60.2663   20.3434 C   0  0  1  0  0  0  0  0  0  0  0  0
   72.8263   61.1027   19.5664 C   0  0  0  0  0  0  0  0  0  0  0  0
   68.9733   58.9117   18.6361 C   0  0  0  0  0  0  0  0  0  0  0  0
   69.7375   59.8498   19.4678 C   0  0  0  0  0  0  0  0  0  0  0  0
   69.2736   59.5744   20.9318 C   0  0  0  0  0  0  0  0  0  0  0  0
   67.8148   60.0268   20.9731 C   0  0  0  0  0  0  0  0  0  0  0  0
   66.9911   59.2116   20.0141 C   0  0  0  0  0  0  0  0  0  0  0  0
   67.5315   59.4105   18.6006 C   0  0  0  0  0  0  0  0  0  0  0  0
   65.9351   49.3099   13.1494 C   0  0  0  0  0  0  0  0  0  0  0  0
   72.7289   54.0104   14.6730 C   0  0  1  0  0  0  0  0  0  0  0  0
   73.4462   53.8599   16.0310 C   0  0  0  0  0  0  0  0  0  0  0  0
   66.8269   50.3233   12.4411 C   0  0  2  0  0  0  0  0  0  0  0  0
   73.2851   52.9769   13.7580 C   0  0  0  0  0  0  0  0  0  0  0  0
   70.7022   54.8444   15.8551 N   0  0  0  0  0  0  0  0  0  0  0  0
   71.8057   58.4827   17.9320 N   0  0  0  0  0  0  0  0  0  0  0  0
   68.2827   55.0619   17.0083 O   0  0  0  0  0  0  0  0  0  0  0  0
   69.6819   53.2396   17.6566 O   0  0  0  0  0  0  0  0  0  0  0  0
   70.5926   58.4206   14.9951 O   0  0  0  0  0  0  0  0  0  0  0  0
   73.6427   57.5027   16.9686 O   0  0  0  0  0  0  0  0  0  0  0  0
   73.9519   58.1757   19.0667 O   0  0  0  0  0  0  0  0  0  0  0  0
   75.3255   61.4679   19.2015 O   0  0  0  0  0  0  0  0  0  0  0  0
   74.1953   62.4450   20.9053 O   0  0  0  0  0  0  0  0  0  0  0  0
   67.8944   49.6479   11.8395 O   0  0  0  0  0  0  0  0  0  0  0  0
   65.4733   48.4037   12.1885 O   0  0  0  0  0  0  0  0  0  0  0  0
   69.2757   54.1119   16.4617 S   0  0  1  0  0  6  0  0  0  0  0  0
  1  2  1  0
 16  1  1  0
  1 34  1  6
  2  8  1  6
  2 31  1  0
 31  3  1  0
  3 35  2  0
  3 36  1  0
  4  5  1  0
  4 17  1  0
  4 36  1  6
  5 37  1  0
 17  6  1  0
  6 37  1  6
  6 38  1  0
 18  7  1  0
  7 38  1  0
  8 19  1  0
 10  9  2  0
 14  9  1  0
  9 28  1  0
 11 10  1  0
 12 11  2  0
 12 13  1  0
 41 12  1  0
 13 14  2  0
 15 26  1  0
 30 15  1  0
 30 16  1  0
 17 18  1  6
 19 20  1  0
 19 24  1  0
 20 21  1  0
 21 22  1  0
 23 22  1  0
 24 23  1  0
 28 25  1  0
 25 40  1  0
 26 27  1  1
 26 29  1  0
 28 39  1  1
 41 30  1  6
 41 32  2  0
 41 33  2  0
M  END
$$$$
