
     RDKit          3D

 41 44  0  0  0  0  0  0  0  0999 V2000
   71.1582   57.1151   14.9535 C   0  0  1  0  0  0  0  0  0  0  0  0
   70.9882   57.7600   16.2580 C   0  0  2  0  0  0  0  0  0  0  0  0
   72.3713   58.6557   18.1551 C   0  0  0  0  0  0  0  0  0  0  0  0
   73.6573   60.3931   19.3235 C   0  0  1  0  0  0  0  0  0  0  0  0
   74.5041   61.3568   18.5947 C   0  0  0  0  0  0  0  0  0  0  0  0
   74.9462   61.5451   20.8059 C   0  0  1  0  0  0  0  0  0  0  0  0
   73.6367   63.1453   21.6727 C   0  0  0  0  0  0  0  0  0  0  0  0
   69.7554   58.5463   16.4262 C   0  0  0  0  0  0  0  0  0  0  0  0
   67.0417   51.1459   13.2181 C   0  0  0  0  0  0  0  0  0  0  0  0
   66.7219   52.4982   13.1415 C   0  0  0  0  0  0  0  0  0  0  0  0
   67.3279   53.3942   14.0056 C   0  0  0  0  0  0  0  0  0  0  0  0
   68.2432   52.9770   14.9419 C   0  0  0  0  0  0  0  0  0  0  0  0
   68.5817   51.6527   15.0432 C   0  0  0  0  0  0  0  0  0  0  0  0
   67.9577   50.7646   14.1614 C   0  0  0  0  0  0  0  0  0  0  0  0
   71.0951   53.6245   14.7032 C   0  0  0  0  0  0  0  0  0  0  0  0
   70.4023   55.8921   14.6133 C   0  0  0  0  0  0  0  0  0  0  0  0
   73.4824   61.0825   20.6435 C   0  0  1  0  0  0  0  0  0  0  0  0
   72.8586   62.4411   20.5693 C   0  0  0  0  0  0  0  0  0  0  0  0
   69.3805   59.0635   17.7556 C   0  0  0  0  0  0  0  0  0  0  0  0
   68.3816   60.1298   17.9009 C   0  0  0  0  0  0  0  0  0  0  0  0
   68.7037   60.8126   19.2663 C   0  0  0  0  0  0  0  0  0  0  0  0
   68.3834   59.7537   20.3201 C   0  0  0  0  0  0  0  0  0  0  0  0
   69.2646   58.5495   20.1305 C   0  0  0  0  0  0  0  0  0  0  0  0
   69.0121   57.9615   18.7448 C   0  0  0  0  0  0  0  0  0  0  0  0
   65.8528   48.9849   13.0695 C   0  0  0  0  0  0  0  0  0  0  0  0
   72.5691   53.5143   14.7977 C   0  0  1  0  0  0  0  0  0  0  0  0
   73.1763   53.2429   13.4053 C   0  0  0  0  0  0  0  0  0  0  0  0
   66.3878   50.1833   12.2937 C   0  0  2  0  0  0  0  0  0  0  0  0
   73.2433   54.7202   15.3509 C   0  0  0  0  0  0  0  0  0  0  0  0
   70.4905   54.7204   15.4502 N   0  0  0  0  0  0  0  0  0  0  0  0
   72.1417   58.4430   16.7832 N   0  0  0  0  0  0  0  0  0  0  0  0
   68.0164   55.2403   16.3667 O   0  0  0  0  0  0  0  0  0  0  0  0
   69.2312   53.4395   17.3569 O   0  0  0  0  0  0  0  0  0  0  0  0
   70.5658   58.1043   14.0297 O   0  0  0  0  0  0  0  0  0  0  0  0
   72.4323   57.6581   18.9193 O   0  0  0  0  0  0  0  0  0  0  0  0
   72.5330   59.8727   18.7303 O   0  0  0  0  0  0  0  0  0  0  0  0
   75.1852   62.1080   19.5750 O   0  0  0  0  0  0  0  0  0  0  0  0
   74.8577   62.5104   21.7808 O   0  0  0  0  0  0  0  0  0  0  0  0
   67.3694   49.7444   11.3985 O   0  0  0  0  0  0  0  0  0  0  0  0
   65.2811   48.1012   12.1475 O   0  0  0  0  0  0  0  0  0  0  0  0
   68.9754   54.1658   16.0299 S   0  0  1  0  0  6  0  0  0  0  0  0
  1  2  1  0
 16  1  1  0
  1 34  1  6
  2  8  1  6
  2 31  1  0
 31  3  1  0
  3 35  2  0
  3 36  1  0
  4  5  1  0
  4 17  1  0
  4 36  1  6
  5 37  1  0
 17  6  1  0
  6 37  1  6
  6 38  1  0
 18  7  1  0
  7 38  1  0
  8 19  1  0
 10  9  2  0
 14  9  1  0
  9 28  1  0
 11 10  1  0
 12 11  2  0
 12 13  1  0
 41 12  1  0
 13 14  2  0
 15 26  1  0
 30 15  1  0
 30 16  1  0
 17 18  1  6
 19 20  1  0
 19 24  1  0
 20 21  1  0
 21 22  1  0
 23 22  1  0
 24 23  1  0
 28 25  1  0
 25 40  1  0
 26 27  1  6
 26 29  1  0
 28 39  1  6
 41 30  1  6
 41 32  2  0
 41 33  2  0
M  END
$$$$
