
     RDKit          3D

 41 44  0  0  0  0  0  0  0  0999 V2000
   70.8922   57.3424   15.2850 C   0  0  1  0  0  0  0  0  0  0  0  0
   71.0233   57.8187   16.6643 C   0  0  2  0  0  0  0  0  0  0  0  0
   72.7003   58.2092   18.4943 C   0  0  0  0  0  0  0  0  0  0  0  0
   74.4922   59.5728   19.4779 C   0  0  1  0  0  0  0  0  0  0  0  0
   75.3486   60.4378   18.6440 C   0  0  0  0  0  0  0  0  0  0  0  0
   74.5850   61.6571   20.3906 C   0  0  1  0  0  0  0  0  0  0  0  0
   72.6990   62.7016   19.7751 C   0  0  0  0  0  0  0  0  0  0  0  0
   70.1273   58.9220   17.0470 C   0  0  0  0  0  0  0  0  0  0  0  0
   67.5401   51.3352   13.7872 C   0  0  0  0  0  0  0  0  0  0  0  0
   68.3688   51.0296   14.8626 C   0  0  0  0  0  0  0  0  0  0  0  0
   68.9444   52.0539   15.5950 C   0  0  0  0  0  0  0  0  0  0  0  0
   68.7147   53.3724   15.2831 C   0  0  0  0  0  0  0  0  0  0  0  0
   67.9028   53.7081   14.2311 C   0  0  0  0  0  0  0  0  0  0  0  0
   67.3320   52.6584   13.5045 C   0  0  0  0  0  0  0  0  0  0  0  0
   71.5853   53.6399   15.1722 C   0  0  0  0  0  0  0  0  0  0  0  0
   71.3408   55.9855   14.9105 C   0  0  0  0  0  0  0  0  0  0  0  0
   73.5388   60.5691   20.0667 C   0  0  1  0  0  0  0  0  0  0  0  0
   72.7480   61.3542   19.0675 C   0  0  0  0  0  0  0  0  0  0  0  0
   69.8333   59.1800   18.4691 C   0  0  0  0  0  0  0  0  0  0  0  0
   69.1511   60.4095   18.8920 C   0  0  0  0  0  0  0  0  0  0  0  0
   69.5699   60.6221   20.3798 C   0  0  0  0  0  0  0  0  0  0  0  0
   68.9200   59.4667   21.1395 C   0  0  0  0  0  0  0  0  0  0  0  0
   69.4543   58.1519   20.6410 C   0  0  0  0  0  0  0  0  0  0  0  0
   69.1291   58.0136   19.1562 C   0  0  0  0  0  0  0  0  0  0  0  0
   68.0062   49.4204   12.2966 C   0  0  0  0  0  0  0  0  0  0  0  0
   72.9777   53.6499   14.6674 C   0  0  1  0  0  0  0  0  0  0  0  0
   73.9415   54.1493   15.7641 C   0  0  0  0  0  0  0  0  0  0  0  0
   66.9257   50.2357   12.9981 C   0  0  2  0  0  0  0  0  0  0  0  0
   73.4756   52.3258   14.2053 C   0  0  0  0  0  0  0  0  0  0  0  0
   71.1290   54.8721   15.8031 N   0  0  0  0  0  0  0  0  0  0  0  0
   72.3667   58.0225   17.1402 N   0  0  0  0  0  0  0  0  0  0  0  0
   68.6748   55.8743   16.2541 O   0  0  0  0  0  0  0  0  0  0  0  0
   69.4729   54.1505   17.7000 O   0  0  0  0  0  0  0  0  0  0  0  0
   69.4277   57.2325   15.1239 O   0  0  0  0  0  0  0  0  0  0  0  0
   71.7803   58.1843   19.3523 O   0  0  0  0  0  0  0  0  0  0  0  0
   73.9572   58.4199   18.9570 O   0  0  0  0  0  0  0  0  0  0  0  0
   75.2685   61.7312   19.2004 O   0  0  0  0  0  0  0  0  0  0  0  0
   73.8131   62.7777   20.5867 O   0  0  0  0  0  0  0  0  0  0  0  0
   66.1075   50.8326   12.0328 O   0  0  0  0  0  0  0  0  0  0  0  0
   67.3678   48.4691   11.4931 O   0  0  0  0  0  0  0  0  0  0  0  0
   69.4892   54.6397   16.2460 S   0  0  1  0  0  6  0  0  0  0  0  0
  1  2  1  0
 16  1  1  0
  1 34  1  1
  2  8  1  6
  2 31  1  0
 31  3  1  0
  3 35  2  0
  3 36  1  0
  4  5  1  0
  4 17  1  0
  4 36  1  6
  5 37  1  0
 17  6  1  0
  6 37  1  6
  6 38  1  0
 18  7  1  0
  7 38  1  0
  8 19  1  0
 10  9  2  0
 14  9  1  0
  9 28  1  0
 11 10  1  0
 12 11  2  0
 12 13  1  0
 41 12  1  0
 13 14  2  0
 15 26  1  0
 30 15  1  0
 30 16  1  0
 17 18  1  6
 19 20  1  0
 19 24  1  0
 20 21  1  0
 21 22  1  0
 23 22  1  0
 24 23  1  0
 28 25  1  0
 25 40  1  0
 26 27  1  1
 26 29  1  0
 28 39  1  6
 41 30  1  6
 41 32  2  0
 41 33  2  0
M  END
$$$$
