
     RDKit          3D

 41 44  0  0  0  0  0  0  0  0999 V2000
   71.5176   57.1246   15.2933 C   0  0  1  0  0  0  0  0  0  0  0  0
   71.4020   57.8779   16.5445 C   0  0  2  0  0  0  0  0  0  0  0  0
   73.4100   58.2213   18.0155 C   0  0  0  0  0  0  0  0  0  0  0  0
   74.9852   59.7270   19.1511 C   0  0  1  0  0  0  0  0  0  0  0  0
   75.7633   60.8971   18.7010 C   0  0  0  0  0  0  0  0  0  0  0  0
   74.7490   61.4208   20.6548 C   0  0  1  0  0  0  0  0  0  0  0  0
   72.7775   62.3913   20.2100 C   0  0  0  0  0  0  0  0  0  0  0  0
   70.1704   58.6683   16.7029 C   0  0  0  0  0  0  0  0  0  0  0  0
   67.2592   51.3848   13.5328 C   0  0  0  0  0  0  0  0  0  0  0  0
   68.0072   50.8983   14.6007 C   0  0  0  0  0  0  0  0  0  0  0  0
   68.5944   51.7868   15.4853 C   0  0  0  0  0  0  0  0  0  0  0  0
   68.4546   53.1454   15.3325 C   0  0  0  0  0  0  0  0  0  0  0  0
   67.7236   53.6578   14.2925 C   0  0  0  0  0  0  0  0  0  0  0  0
   67.1395   52.7431   13.4106 C   0  0  0  0  0  0  0  0  0  0  0  0
   71.3851   53.6779   15.2076 C   0  0  0  0  0  0  0  0  0  0  0  0
   70.6745   55.9362   15.0485 C   0  0  0  0  0  0  0  0  0  0  0  0
   73.8766   60.3797   19.9214 C   0  0  1  0  0  0  0  0  0  0  0  0
   73.0444   61.3449   19.1365 C   0  0  0  0  0  0  0  0  0  0  0  0
   69.4949   58.7355   18.0123 C   0  0  0  0  0  0  0  0  0  0  0  0
   70.2611   58.6971   19.2642 C   0  0  0  0  0  0  0  0  0  0  0  0
   69.2645   58.1666   20.3411 C   0  0  0  0  0  0  0  0  0  0  0  0
   68.2212   59.2728   20.4894 C   0  0  0  0  0  0  0  0  0  0  0  0
   67.5004   59.4848   19.1862 C   0  0  0  0  0  0  0  0  0  0  0  0
   68.5115   59.8973   18.1200 C   0  0  0  0  0  0  0  0  0  0  0  0
   67.4821   49.1713   12.4574 C   0  0  0  0  0  0  0  0  0  0  0  0
   72.8563   53.5731   15.3425 C   0  0  1  0  0  0  0  0  0  0  0  0
   73.3694   52.2994   14.6383 C   0  0  0  0  0  0  0  0  0  0  0  0
   66.6325   50.4312   12.5805 C   0  0  2  0  0  0  0  0  0  0  0  0
   73.6107   54.7270   14.7820 C   0  0  0  0  0  0  0  0  0  0  0  0
   70.7594   54.7871   15.9166 N   0  0  0  0  0  0  0  0  0  0  0  0
   72.5717   58.6104   16.9545 N   0  0  0  0  0  0  0  0  0  0  0  0
   68.3182   55.3074   16.9172 O   0  0  0  0  0  0  0  0  0  0  0  0
   69.4993   53.4088   17.7535 O   0  0  0  0  0  0  0  0  0  0  0  0
   70.9914   58.0798   14.2967 O   0  0  0  0  0  0  0  0  0  0  0  0
   73.0086   57.3294   18.8070 O   0  0  0  0  0  0  0  0  0  0  0  0
   74.6380   58.7421   18.2589 O   0  0  0  0  0  0  0  0  0  0  0  0
   75.4810   61.9362   19.6119 O   0  0  0  0  0  0  0  0  0  0  0  0
   73.8251   62.3329   21.1070 O   0  0  0  0  0  0  0  0  0  0  0  0
   66.5820   51.0692   11.3363 O   0  0  0  0  0  0  0  0  0  0  0  0
   66.9320   48.3842   11.4398 O   0  0  0  0  0  0  0  0  0  0  0  0
   69.2399   54.2340   16.4864 S   0  0  1  0  0  6  0  0  0  0  0  0
  1  2  1  0
 16  1  1  0
  1 34  1  6
  2  8  1  6
  2 31  1  0
 31  3  1  0
  3 35  2  0
  3 36  1  0
  4  5  1  0
  4 17  1  0
  4 36  1  6
  5 37  1  0
 17  6  1  0
  6 37  1  6
  6 38  1  0
 18  7  1  0
  7 38  1  0
  8 19  1  0
 10  9  2  0
 14  9  1  0
  9 28  1  0
 11 10  1  0
 12 11  2  0
 12 13  1  0
 41 12  1  0
 13 14  2  0
 15 26  1  0
 30 15  1  0
 30 16  1  0
 17 18  1  6
 19 20  1  0
 19 24  1  0
 20 21  1  0
 21 22  1  0
 23 22  1  0
 24 23  1  0
 28 25  1  0
 25 40  1  0
 26 27  1  6
 26 29  1  0
 28 39  1  6
 41 30  1  6
 41 32  2  0
 41 33  2  0
M  END
$$$$
