
     RDKit          3D

 41 44  0  0  0  0  0  0  0  0999 V2000
   71.1455   56.8044   15.8272 C   0  0  1  0  0  0  0  0  0  0  0  0
   70.8691   57.6634   16.9814 C   0  0  2  0  0  0  0  0  0  0  0  0
   72.9600   58.2647   18.2385 C   0  0  0  0  0  0  0  0  0  0  0  0
   74.1675   59.8529   19.6728 C   0  0  1  0  0  0  0  0  0  0  0  0
   74.5041   60.8777   18.6660 C   0  0  0  0  0  0  0  0  0  0  0  0
   75.2143   61.6016   20.6888 C   0  0  1  0  0  0  0  0  0  0  0  0
   73.6013   62.8510   21.6182 C   0  0  0  0  0  0  0  0  0  0  0  0
   69.5410   58.2975   17.0023 C   0  0  0  0  0  0  0  0  0  0  0  0
   67.3378   51.0914   13.3879 C   0  0  0  0  0  0  0  0  0  0  0  0
   68.2724   50.7367   14.3561 C   0  0  0  0  0  0  0  0  0  0  0  0
   68.8950   51.7245   15.0999 C   0  0  0  0  0  0  0  0  0  0  0  0
   68.6096   53.0543   14.9035 C   0  0  0  0  0  0  0  0  0  0  0  0
   67.6933   53.4380   13.9591 C   0  0  0  0  0  0  0  0  0  0  0  0
   67.0765   52.4245   13.2188 C   0  0  0  0  0  0  0  0  0  0  0  0
   71.3268   54.0908   14.1478 C   0  0  0  0  0  0  0  0  0  0  0  0
   71.7983   55.4909   16.0045 C   0  0  0  0  0  0  0  0  0  0  0  0
   73.9892   60.6878   20.9055 C   0  0  1  0  0  0  0  0  0  0  0  0
   72.9379   61.7484   20.8041 C   0  0  0  0  0  0  0  0  0  0  0  0
   69.0441   58.9389   18.2339 C   0  0  0  0  0  0  0  0  0  0  0  0
   69.0876   60.3971   18.4007 C   0  0  0  0  0  0  0  0  0  0  0  0
   69.0963   60.6353   19.9426 C   0  0  0  0  0  0  0  0  0  0  0  0
   67.7207   60.1718   20.4193 C   0  0  0  0  0  0  0  0  0  0  0  0
   67.5371   58.7072   20.1295 C   0  0  0  0  0  0  0  0  0  0  0  0
   67.6415   58.4813   18.6236 C   0  0  0  0  0  0  0  0  0  0  0  0
   65.9880   49.0250   13.5043 C   0  0  0  0  0  0  0  0  0  0  0  0
   72.7197   53.8447   13.7084 C   0  0  1  0  0  0  0  0  0  0  0  0
   73.4306   52.8904   14.6909 C   0  0  0  0  0  0  0  0  0  0  0  0
   66.6726   50.0313   12.5862 C   0  0  2  0  0  0  0  0  0  0  0  0
   72.8418   53.2554   12.3473 C   0  0  0  0  0  0  0  0  0  0  0  0
   71.1365   54.2812   15.5802 N   0  0  0  0  0  0  0  0  0  0  0  0
   71.9135   58.5821   17.3532 N   0  0  0  0  0  0  0  0  0  0  0  0
   68.7967   55.5963   15.7447 O   0  0  0  0  0  0  0  0  0  0  0  0
   69.2401   53.8783   17.3418 O   0  0  0  0  0  0  0  0  0  0  0  0
   69.7898   56.4123   15.3901 O   0  0  0  0  0  0  0  0  0  0  0  0
   73.7331   57.3164   17.9451 O   0  0  0  0  0  0  0  0  0  0  0  0
   73.2053   58.9099   19.4055 O   0  0  0  0  0  0  0  0  0  0  0  0
   75.0413   61.9712   19.3763 O   0  0  0  0  0  0  0  0  0  0  0  0
   74.9653   62.6561   21.5351 O   0  0  0  0  0  0  0  0  0  0  0  0
   67.6746   49.3773   11.8610 O   0  0  0  0  0  0  0  0  0  0  0  0
   64.8415   48.5619   12.8492 O   0  0  0  0  0  0  0  0  0  0  0  0
   69.4475   54.2745   15.8742 S   0  0  1  0  0  6  0  0  0  0  0  0
  1  2  1  0
 16  1  1  0
  1 34  1  1
  2  8  1  6
  2 31  1  0
 31  3  1  0
  3 35  2  0
  3 36  1  0
  4  5  1  0
  4 17  1  0
  4 36  1  6
  5 37  1  0
 17  6  1  0
  6 37  1  6
  6 38  1  0
 18  7  1  0
  7 38  1  0
  8 19  1  0
 10  9  2  0
 14  9  1  0
  9 28  1  0
 11 10  1  0
 12 11  2  0
 12 13  1  0
 41 12  1  0
 13 14  2  0
 15 26  1  0
 30 15  1  0
 30 16  1  0
 17 18  1  6
 19 20  1  0
 19 24  1  0
 20 21  1  0
 21 22  1  0
 23 22  1  0
 24 23  1  0
 28 25  1  0
 25 40  1  0
 26 27  1  1
 26 29  1  0
 28 39  1  1
 41 30  1  6
 41 32  2  0
 41 33  2  0
M  END
$$$$
