
     RDKit          3D

 41 44  0  0  0  0  0  0  0  0999 V2000
   71.4064   57.1354   15.2942 C   0  0  1  0  0  0  0  0  0  0  0  0
   71.1873   57.8547   16.5516 C   0  0  2  0  0  0  0  0  0  0  0  0
   72.6964   58.1531   18.5384 C   0  0  0  0  0  0  0  0  0  0  0  0
   74.1941   59.8996   19.4010 C   0  0  1  0  0  0  0  0  0  0  0  0
   73.9556   60.9550   18.3979 C   0  0  0  0  0  0  0  0  0  0  0  0
   74.2512   61.9382   20.4145 C   0  0  1  0  0  0  0  0  0  0  0  0
   72.2490   62.2190   21.3837 C   0  0  0  0  0  0  0  0  0  0  0  0
   70.0741   58.8177   16.5511 C   0  0  0  0  0  0  0  0  0  0  0  0
   67.5504   50.7510   13.3605 C   0  0  0  0  0  0  0  0  0  0  0  0
   68.4345   50.6117   14.4261 C   0  0  0  0  0  0  0  0  0  0  0  0
   68.7791   51.7217   15.1783 C   0  0  0  0  0  0  0  0  0  0  0  0
   68.2652   52.9645   14.8958 C   0  0  0  0  0  0  0  0  0  0  0  0
   67.3910   53.1364   13.8542 C   0  0  0  0  0  0  0  0  0  0  0  0
   67.0567   52.0025   13.1071 C   0  0  0  0  0  0  0  0  0  0  0  0
   70.9841   53.7810   14.7681 C   0  0  0  0  0  0  0  0  0  0  0  0
   70.4589   56.0936   14.8470 C   0  0  0  0  0  0  0  0  0  0  0  0
   73.6484   60.5357   20.6444 C   0  0  1  0  0  0  0  0  0  0  0  0
   72.2068   60.9318   20.5713 C   0  0  0  0  0  0  0  0  0  0  0  0
   69.4703   59.2546   17.8238 C   0  0  0  0  0  0  0  0  0  0  0  0
   68.4905   60.3476   17.8630 C   0  0  0  0  0  0  0  0  0  0  0  0
   68.5686   60.9189   19.3128 C   0  0  0  0  0  0  0  0  0  0  0  0
   68.0282   59.8022   20.2045 C   0  0  0  0  0  0  0  0  0  0  0  0
   68.8970   58.5796   20.0895 C   0  0  0  0  0  0  0  0  0  0  0  0
   68.8935   58.1015   18.6401 C   0  0  0  0  0  0  0  0  0  0  0  0
   66.9997   49.9518   11.0881 C   0  0  0  0  0  0  0  0  0  0  0  0
   72.4646   53.7909   14.7278 C   0  0  1  0  0  0  0  0  0  0  0  0
   72.9652   53.3774   13.3279 C   0  0  0  0  0  0  0  0  0  0  0  0
   67.1839   49.5603   12.5500 C   0  0  2  0  0  0  0  0  0  0  0  0
   73.0815   55.1060   15.0515 C   0  0  0  0  0  0  0  0  0  0  0  0
   70.3626   54.8397   15.5538 N   0  0  0  0  0  0  0  0  0  0  0  0
   72.3624   58.3861   17.1916 N   0  0  0  0  0  0  0  0  0  0  0  0
   67.7528   55.4374   15.8050 O   0  0  0  0  0  0  0  0  0  0  0  0
   68.7069   53.8805   17.3428 O   0  0  0  0  0  0  0  0  0  0  0  0
   71.1955   58.1911   14.2824 O   0  0  0  0  0  0  0  0  0  0  0  0
   71.9039   57.4837   19.2504 O   0  0  0  0  0  0  0  0  0  0  0  0
   73.8242   58.6024   19.1421 O   0  0  0  0  0  0  0  0  0  0  0  0
   73.8910   62.1714   19.1087 O   0  0  0  0  0  0  0  0  0  0  0  0
   73.5270   62.7292   21.2746 O   0  0  0  0  0  0  0  0  0  0  0  0
   65.9672   49.0836   13.0501 O   0  0  0  0  0  0  0  0  0  0  0  0
   67.8143   49.1151   10.3172 O   0  0  0  0  0  0  0  0  0  0  0  0
   68.7528   54.3504   15.8831 S   0  0  1  0  0  6  0  0  0  0  0  0
  1  2  1  0
 16  1  1  0
  1 34  1  6
  2  8  1  6
  2 31  1  0
 31  3  1  0
  3 35  2  0
  3 36  1  0
  4  5  1  0
  4 17  1  0
  4 36  1  6
  5 37  1  0
 17  6  1  0
  6 37  1  6
  6 38  1  0
 18  7  1  0
  7 38  1  0
  8 19  1  0
 10  9  2  0
 14  9  1  0
  9 28  1  0
 11 10  1  0
 12 11  2  0
 12 13  1  0
 41 12  1  0
 13 14  2  0
 15 26  1  0
 30 15  1  0
 30 16  1  0
 17 18  1  6
 19 20  1  0
 19 24  1  0
 20 21  1  0
 21 22  1  0
 23 22  1  0
 24 23  1  0
 28 25  1  0
 25 40  1  0
 26 27  1  6
 26 29  1  0
 28 39  1  1
 41 30  1  6
 41 32  2  0
 41 33  2  0
M  END
$$$$
