
     RDKit          3D

 41 44  0  0  0  0  0  0  0  0999 V2000
   70.9592   56.6762   16.2125 C   0  0  1  0  0  0  0  0  0  0  0  0
   70.5774   57.5751   17.3045 C   0  0  2  0  0  0  0  0  0  0  0  0
   72.3899   59.3011   17.5280 C   0  0  0  0  0  0  0  0  0  0  0  0
   73.4500   61.1668   18.7250 C   0  0  1  0  0  0  0  0  0  0  0  0
   73.1871   62.1555   19.7881 C   0  0  0  0  0  0  0  0  0  0  0  0
   75.3280   61.4491   19.9816 C   0  0  1  0  0  0  0  0  0  0  0  0
   75.3955   59.7258   21.4143 C   0  0  0  0  0  0  0  0  0  0  0  0
   69.4912   58.5215   17.0028 C   0  0  0  0  0  0  0  0  0  0  0  0
   67.4946   50.4708   13.7713 C   0  0  0  0  0  0  0  0  0  0  0  0
   67.3247   51.7392   13.2245 C   0  0  0  0  0  0  0  0  0  0  0  0
   67.8577   52.8403   13.8726 C   0  0  0  0  0  0  0  0  0  0  0  0
   68.5549   52.7090   15.0496 C   0  0  0  0  0  0  0  0  0  0  0  0
   68.7416   51.4743   15.6145 C   0  0  0  0  0  0  0  0  0  0  0  0
   68.1946   50.3757   14.9439 C   0  0  0  0  0  0  0  0  0  0  0  0
   71.3601   54.1022   14.4683 C   0  0  0  0  0  0  0  0  0  0  0  0
   71.4863   55.3257   16.4975 C   0  0  0  0  0  0  0  0  0  0  0  0
   74.4951   60.3041   19.3665 C   0  0  1  0  0  0  0  0  0  0  0  0
   74.0797   59.6573   20.6508 C   0  0  0  0  0  0  0  0  0  0  0  0
   68.7158   59.1347   18.0973 C   0  0  0  0  0  0  0  0  0  0  0  0
   68.9281   58.7351   19.4942 C   0  0  0  0  0  0  0  0  0  0  0  0
   67.5947   59.0781   20.2280 C   0  0  0  0  0  0  0  0  0  0  0  0
   67.5161   60.6038   20.2068 C   0  0  0  0  0  0  0  0  0  0  0  0
   67.4613   61.1012   18.7882 C   0  0  0  0  0  0  0  0  0  0  0  0
   68.7266   60.6602   18.0573 C   0  0  0  0  0  0  0  0  0  0  0  0
   67.5527   49.1219   11.7018 C   0  0  0  0  0  0  0  0  0  0  0  0
   72.8263   54.1055   14.2589 C   0  0  1  0  0  0  0  0  0  0  0  0
   73.5602   53.9451   15.6069 C   0  0  0  0  0  0  0  0  0  0  0  0
   66.9185   49.2891   13.0781 C   0  0  2  0  0  0  0  0  0  0  0  0
   73.3218   53.0353   13.3513 C   0  0  0  0  0  0  0  0  0  0  0  0
   70.9159   54.1667   15.8551 N   0  0  0  0  0  0  0  0  0  0  0  0
   71.6595   58.2025   18.0176 N   0  0  0  0  0  0  0  0  0  0  0  0
   68.5833   55.3817   15.2951 O   0  0  0  0  0  0  0  0  0  0  0  0
   68.7327   54.0956   17.3008 O   0  0  0  0  0  0  0  0  0  0  0  0
   69.6580   56.3672   15.5847 O   0  0  0  0  0  0  0  0  0  0  0  0
   73.0850   59.1504   16.4902 O   0  0  0  0  0  0  0  0  0  0  0  0
   72.4064   60.5315   18.0973 O   0  0  0  0  0  0  0  0  0  0  0  0
   74.3465   62.1945   20.5900 O   0  0  0  0  0  0  0  0  0  0  0  0
   76.1031   60.7999   20.9132 O   0  0  0  0  0  0  0  0  0  0  0  0
   65.5498   49.5336   12.9216 O   0  0  0  0  0  0  0  0  0  0  0  0
   67.8100   47.7594   11.5139 O   0  0  0  0  0  0  0  0  0  0  0  0
   69.2016   54.1541   15.8412 S   0  0  1  0  0  6  0  0  0  0  0  0
  1  2  1  0
 16  1  1  0
  1 34  1  6
  2  8  1  6
  2 31  1  0
 31  3  1  0
  3 35  2  0
  3 36  1  0
  4  5  1  0
  4 17  1  0
  4 36  1  1
  5 37  1  0
 17  6  1  0
  6 37  1  1
  6 38  1  0
 18  7  1  0
  7 38  1  0
  8 19  1  0
 10  9  2  0
 14  9  1  0
  9 28  1  0
 11 10  1  0
 12 11  2  0
 12 13  1  0
 41 12  1  0
 13 14  2  0
 15 26  1  0
 30 15  1  0
 30 16  1  0
 17 18  1  1
 19 20  1  0
 19 24  1  0
 20 21  1  0
 21 22  1  0
 23 22  1  0
 24 23  1  0
 28 25  1  0
 25 40  1  0
 26 27  1  1
 26 29  1  0
 28 39  1  6
 41 30  1  1
 41 32  2  0
 41 33  2  0
M  END
$$$$
