
     RDKit          3D

 41 44  0  0  0  0  0  0  0  0999 V2000
   72.0554   57.4142   15.4482 C   0  0  1  0  0  0  0  0  0  0  0  0
   72.2418   58.1607   16.6950 C   0  0  2  0  0  0  0  0  0  0  0  0
   70.3382   59.3179   17.8573 C   0  0  0  0  0  0  0  0  0  0  0  0
   68.8232   60.2019   19.5781 C   0  0  1  0  0  0  0  0  0  0  0  0
   68.2342   59.7041   20.8359 C   0  0  0  0  0  0  0  0  0  0  0  0
   69.0004   61.8041   21.1867 C   0  0  1  0  0  0  0  0  0  0  0  0
   71.0994   61.6886   21.9661 C   0  0  0  0  0  0  0  0  0  0  0  0
   73.5140   57.9248   17.3966 C   0  0  0  0  0  0  0  0  0  0  0  0
   66.7146   52.0589   14.2016 C   0  0  0  0  0  0  0  0  0  0  0  0
   66.5488   53.4407   14.2022 C   0  0  0  0  0  0  0  0  0  0  0  0
   67.4081   54.2323   14.9449 C   0  0  0  0  0  0  0  0  0  0  0  0
   68.4269   53.6822   15.6852 C   0  0  0  0  0  0  0  0  0  0  0  0
   68.6190   52.3252   15.7056 C   0  0  0  0  0  0  0  0  0  0  0  0
   67.7397   51.5442   14.9490 C   0  0  0  0  0  0  0  0  0  0  0  0
   71.0212   54.2516   14.6398 C   0  0  0  0  0  0  0  0  0  0  0  0
   70.8812   56.5366   15.2637 C   0  0  0  0  0  0  0  0  0  0  0  0
   69.8660   61.1512   20.0878 C   0  0  1  0  0  0  0  0  0  0  0  0
   70.8916   60.5388   20.9896 C   0  0  0  0  0  0  0  0  0  0  0  0
   74.0979   58.9775   18.2487 C   0  0  0  0  0  0  0  0  0  0  0  0
   74.3581   60.3230   17.7215 C   0  0  0  0  0  0  0  0  0  0  0  0
   75.4846   60.9098   18.6277 C   0  0  0  0  0  0  0  0  0  0  0  0
   74.8340   61.0853   19.9989 C   0  0  0  0  0  0  0  0  0  0  0  0
   74.3879   59.7530   20.5362 C   0  0  0  0  0  0  0  0  0  0  0  0
   73.3668   59.1466   19.5775 C   0  0  0  0  0  0  0  0  0  0  0  0
   66.5360   50.0126   12.8281 C   0  0  0  0  0  0  0  0  0  0  0  0
   72.3475   54.2068   13.9820 C   0  0  1  0  0  0  0  0  0  0  0  0
   73.4525   53.9290   15.0227 C   0  0  0  0  0  0  0  0  0  0  0  0
   65.7894   51.2086   13.4081 C   0  0  2  0  0  0  0  0  0  0  0  0
   72.4717   53.1777   12.9142 C   0  0  0  0  0  0  0  0  0  0  0  0
   70.8963   55.1806   15.7559 N   0  0  0  0  0  0  0  0  0  0  0  0
   71.1207   58.1775   17.5981 N   0  0  0  0  0  0  0  0  0  0  0  0
   68.7324   55.8844   17.1888 O   0  0  0  0  0  0  0  0  0  0  0  0
   69.9364   53.9316   17.8488 O   0  0  0  0  0  0  0  0  0  0  0  0
   71.7868   58.4890   14.4707 O   0  0  0  0  0  0  0  0  0  0  0  0
   70.7055   60.4235   17.3822 O   0  0  0  0  0  0  0  0  0  0  0  0
   69.1999   59.3209   18.5939 O   0  0  0  0  0  0  0  0  0  0  0  0
   68.4799   60.6947   21.8092 O   0  0  0  0  0  0  0  0  0  0  0  0
   69.9323   62.4254   21.9840 O   0  0  0  0  0  0  0  0  0  0  0  0
   65.3081   51.9976   12.3576 O   0  0  0  0  0  0  0  0  0  0  0  0
   65.6331   49.2858   12.0444 O   0  0  0  0  0  0  0  0  0  0  0  0
   69.4861   54.7426   16.6269 S   0  0  1  0  0  6  0  0  0  0  0  0
  1  2  1  0
 16  1  1  0
  1 34  1  6
  2  8  1  1
  2 31  1  0
 31  3  1  0
  3 35  2  0
  3 36  1  0
  4  5  1  0
  4 17  1  0
  4 36  1  1
  5 37  1  0
 17  6  1  0
  6 37  1  1
  6 38  1  0
 18  7  1  0
  7 38  1  0
  8 19  1  0
 10  9  2  0
 14  9  1  0
  9 28  1  0
 11 10  1  0
 12 11  2  0
 12 13  1  0
 41 12  1  0
 13 14  2  0
 15 26  1  0
 30 15  1  0
 30 16  1  0
 17 18  1  1
 19 20  1  0
 19 24  1  0
 20 21  1  0
 21 22  1  0
 23 22  1  0
 24 23  1  0
 28 25  1  0
 25 40  1  0
 26 27  1  1
 26 29  1  0
 28 39  1  6
 41 30  1  6
 41 32  2  0
 41 33  2  0
M  END
$$$$
