
     RDKit          3D

 41 44  0  0  0  0  0  0  0  0999 V2000
   71.6266   56.6729   16.0360 C   0  0  1  0  0  0  0  0  0  0  0  0
   70.9841   57.3869   17.1422 C   0  0  2  0  0  0  0  0  0  0  0  0
   72.6906   58.2667   18.7632 C   0  0  0  0  0  0  0  0  0  0  0  0
   74.3984   59.7433   19.7331 C   0  0  1  0  0  0  0  0  0  0  0  0
   75.0456   60.4444   18.6077 C   0  0  0  0  0  0  0  0  0  0  0  0
   76.1153   61.0172   20.5176 C   0  0  1  0  0  0  0  0  0  0  0  0
   75.1922   62.8916   21.3306 C   0  0  0  0  0  0  0  0  0  0  0  0
   69.5778   57.7648   16.9276 C   0  0  0  0  0  0  0  0  0  0  0  0
   67.5712   50.3936   13.7199 C   0  0  0  0  0  0  0  0  0  0  0  0
   67.2235   51.6737   13.2990 C   0  0  0  0  0  0  0  0  0  0  0  0
   67.6448   52.7717   14.0294 C   0  0  0  0  0  0  0  0  0  0  0  0
   68.4028   52.6260   15.1664 C   0  0  0  0  0  0  0  0  0  0  0  0
   68.7638   51.3797   15.6079 C   0  0  0  0  0  0  0  0  0  0  0  0
   68.3275   50.2844   14.8558 C   0  0  0  0  0  0  0  0  0  0  0  0
   71.1519   53.2692   15.1488 C   0  0  0  0  0  0  0  0  0  0  0  0
   70.8989   55.6241   15.2921 C   0  0  0  0  0  0  0  0  0  0  0  0
   74.6459   60.6956   20.8646 C   0  0  1  0  0  0  0  0  0  0  0  0
   74.0952   62.0727   20.6637 C   0  0  0  0  0  0  0  0  0  0  0  0
   68.7603   58.2529   18.0540 C   0  0  0  0  0  0  0  0  0  0  0  0
   68.3387   57.3504   19.1327 C   0  0  0  0  0  0  0  0  0  0  0  0
   67.0567   58.0022   19.7376 C   0  0  0  0  0  0  0  0  0  0  0  0
   67.5453   59.2903   20.3981 C   0  0  0  0  0  0  0  0  0  0  0  0
   68.1468   60.2063   19.3676 C   0  0  0  0  0  0  0  0  0  0  0  0
   69.3330   59.5056   18.7110 C   0  0  0  0  0  0  0  0  0  0  0  0
   68.2787   48.6165   12.1557 C   0  0  0  0  0  0  0  0  0  0  0  0
   72.5625   53.4384   14.7303 C   0  0  1  0  0  0  0  0  0  0  0  0
   73.3077   52.0889   14.8009 C   0  0  0  0  0  0  0  0  0  0  0  0
   67.1151   49.2146   12.9383 C   0  0  2  0  0  0  0  0  0  0  0  0
   72.7371   53.9726   13.3524 C   0  0  0  0  0  0  0  0  0  0  0  0
   70.5825   54.3655   15.9223 N   0  0  0  0  0  0  0  0  0  0  0  0
   71.7465   58.4537   17.7368 N   0  0  0  0  0  0  0  0  0  0  0  0
   68.0403   55.2229   15.7400 O   0  0  0  0  0  0  0  0  0  0  0  0
   68.6149   53.7717   17.5464 O   0  0  0  0  0  0  0  0  0  0  0  0
   71.7649   57.7295   15.0126 O   0  0  0  0  0  0  0  0  0  0  0  0
   73.1751   57.1186   18.9368 O   0  0  0  0  0  0  0  0  0  0  0  0
   73.1266   59.2428   19.5972 O   0  0  0  0  0  0  0  0  0  0  0  0
   76.0166   61.2953   19.1751 O   0  0  0  0  0  0  0  0  0  0  0  0
   76.3595   62.1602   21.2414 O   0  0  0  0  0  0  0  0  0  0  0  0
   66.1471   49.6707   12.0369 O   0  0  0  0  0  0  0  0  0  0  0  0
   67.7804   47.5488   11.4009 O   0  0  0  0  0  0  0  0  0  0  0  0
   68.9008   54.0655   16.0680 S   0  0  1  0  0  6  0  0  0  0  0  0
  1  2  1  0
 16  1  1  0
  1 34  1  6
  2  8  1  6
  2 31  1  0
 31  3  1  0
  3 35  2  0
  3 36  1  0
  4  5  1  0
  4 17  1  0
  4 36  1  6
  5 37  1  0
 17  6  1  0
  6 37  1  6
  6 38  1  0
 18  7  1  0
  7 38  1  0
  8 19  1  0
 10  9  2  0
 14  9  1  0
  9 28  1  0
 11 10  1  0
 12 11  2  0
 12 13  1  0
 41 12  1  0
 13 14  2  0
 15 26  1  0
 30 15  1  0
 30 16  1  0
 17 18  1  6
 19 20  1  0
 19 24  1  0
 20 21  1  0
 21 22  1  0
 23 22  1  0
 24 23  1  0
 28 25  1  0
 25 40  1  0
 26 27  1  6
 26 29  1  0
 28 39  1  6
 41 30  1  1
 41 32  2  0
 41 33  2  0
M  END
$$$$
