
     RDKit          3D

 41 44  0  0  0  0  0  0  0  0999 V2000
   71.7251   56.2402   16.7212 C   0  0  1  0  0  0  0  0  0  0  0  0
   70.4516   55.6634   16.2830 C   0  0  2  0  0  0  0  0  0  0  0  0
   69.3544   54.3343   14.4545 C   0  0  0  0  0  0  0  0  0  0  0  0
   69.2386   52.1317   13.3715 C   0  0  1  0  0  0  0  0  0  0  0  0
   69.0526   52.5739   11.9762 C   0  0  0  0  0  0  0  0  0  0  0  0
   70.3000   50.6860   11.9681 C   0  0  1  0  0  0  0  0  0  0  0  0
   72.4694   51.2511   12.0001 C   0  0  0  0  0  0  0  0  0  0  0  0
   69.6423   55.0279   17.3354 C   0  0  0  0  0  0  0  0  0  0  0  0
   71.5811   62.1933   21.4446 C   0  0  0  0  0  0  0  0  0  0  0  0
   72.5859   61.2367   21.5541 C   0  0  0  0  0  0  0  0  0  0  0  0
   72.5331   60.0967   20.7703 C   0  0  0  0  0  0  0  0  0  0  0  0
   71.5061   59.8871   19.8816 C   0  0  0  0  0  0  0  0  0  0  0  0
   70.5013   60.8096   19.7480 C   0  0  0  0  0  0  0  0  0  0  0  0
   70.5736   61.9534   20.5493 C   0  0  0  0  0  0  0  0  0  0  0  0
   73.8234   58.2641   17.8907 C   0  0  0  0  0  0  0  0  0  0  0  0
   72.0495   57.6535   16.4379 C   0  0  0  0  0  0  0  0  0  0  0  0
   70.5632   51.4334   13.2930 C   0  0  1  0  0  0  0  0  0  0  0  0
   71.6980   52.2827   12.8123 C   0  0  0  0  0  0  0  0  0  0  0  0
   68.1709   55.0151   17.2341 C   0  0  0  0  0  0  0  0  0  0  0  0
   67.4868   54.1930   16.2281 C   0  0  0  0  0  0  0  0  0  0  0  0
   66.1046   54.8813   16.0044 C   0  0  0  0  0  0  0  0  0  0  0  0
   65.3540   54.6920   17.3217 C   0  0  0  0  0  0  0  0  0  0  0  0
   66.0900   55.3755   18.4414 C   0  0  0  0  0  0  0  0  0  0  0  0
   67.4807   54.7602   18.5710 C   0  0  0  0  0  0  0  0  0  0  0  0
   71.5123   63.0450   23.7631 C   0  0  0  0  0  0  0  0  0  0  0  0
   74.6918   57.7033   16.8300 C   0  0  1  0  0  0  0  0  0  0  0  0
   76.1411   58.2039   17.0040 C   0  0  0  0  0  0  0  0  0  0  0  0
   71.6352   63.4150   22.2892 C   0  0  2  0  0  0  0  0  0  0  0  0
   74.7354   56.2163   16.7909 C   0  0  0  0  0  0  0  0  0  0  0  0
   72.4458   58.5414   17.5036 N   0  0  0  0  0  0  0  0  0  0  0  0
   70.4937   54.8723   15.0807 N   0  0  0  0  0  0  0  0  0  0  0  0
   71.7839   57.2206   19.7505 O   0  0  0  0  0  0  0  0  0  0  0  0
   70.0313   58.2042   18.4620 O   0  0  0  0  0  0  0  0  0  0  0  0
   71.5803   56.2515   18.1915 O   0  0  0  0  0  0  0  0  0  0  0  0
   68.5459   55.1185   13.8939 O   0  0  0  0  0  0  0  0  0  0  0  0
   69.0514   53.0136   14.4078 O   0  0  0  0  0  0  0  0  0  0  0  0
   69.8252   51.7053   11.1777 O   0  0  0  0  0  0  0  0  0  0  0  0
   71.5605   50.3031   11.5750 O   0  0  0  0  0  0  0  0  0  0  0  0
   70.5432   64.2114   21.9274 O   0  0  0  0  0  0  0  0  0  0  0  0
   71.0655   64.1786   24.4511 O   0  0  0  0  0  0  0  0  0  0  0  0
   71.4832   58.4039   18.9157 S   0  0  1  0  0  6  0  0  0  0  0  0
  1  2  1  0
 16  1  1  0
  1 34  1  1
  2  8  1  1
  2 31  1  0
 31  3  1  0
  3 35  2  0
  3 36  1  0
  4  5  1  0
  4 17  1  0
  4 36  1  1
  5 37  1  0
 17  6  1  0
  6 37  1  6
  6 38  1  0
 18  7  1  0
  7 38  1  0
  8 19  1  0
 10  9  2  0
 14  9  1  0
  9 28  1  0
 11 10  1  0
 12 11  2  0
 12 13  1  0
 41 12  1  0
 13 14  2  0
 15 26  1  0
 30 15  1  0
 30 16  1  0
 17 18  1  6
 19 20  1  0
 19 24  1  0
 20 21  1  0
 21 22  1  0
 23 22  1  0
 24 23  1  0
 28 25  1  0
 25 40  1  0
 26 27  1  1
 26 29  1  0
 28 39  1  6
 41 30  1  6
 41 32  2  0
 41 33  2  0
M  END
$$$$
