
     RDKit          3D

 41 44  0  0  0  0  0  0  0  0999 V2000
   71.4790   57.6312   15.2486 C   0  0  1  0  0  0  0  0  0  0  0  0
   71.0566   58.1161   16.5650 C   0  0  2  0  0  0  0  0  0  0  0  0
   72.7933   58.4333   18.3531 C   0  0  0  0  0  0  0  0  0  0  0  0
   74.4823   59.8271   19.4675 C   0  0  1  0  0  0  0  0  0  0  0  0
   75.3251   60.9261   18.9588 C   0  0  0  0  0  0  0  0  0  0  0  0
   74.3738   61.5940   20.9002 C   0  0  1  0  0  0  0  0  0  0  0  0
   72.4602   62.6668   20.4375 C   0  0  0  0  0  0  0  0  0  0  0  0
   69.7008   58.6853   16.6313 C   0  0  0  0  0  0  0  0  0  0  0  0
   67.5946   51.2202   13.3243 C   0  0  0  0  0  0  0  0  0  0  0  0
   67.2573   52.5244   12.9750 C   0  0  0  0  0  0  0  0  0  0  0  0
   67.7424   53.5809   13.7267 C   0  0  0  0  0  0  0  0  0  0  0  0
   68.5541   53.3704   14.8155 C   0  0  0  0  0  0  0  0  0  0  0  0
   68.9066   52.0988   15.1861 C   0  0  0  0  0  0  0  0  0  0  0  0
   68.4054   51.0463   14.4136 C   0  0  0  0  0  0  0  0  0  0  0  0
   71.2555   54.1531   14.4544 C   0  0  0  0  0  0  0  0  0  0  0  0
   70.8053   56.4769   14.6188 C   0  0  0  0  0  0  0  0  0  0  0  0
   73.4277   60.5798   20.2223 C   0  0  1  0  0  0  0  0  0  0  0  0
   72.6460   61.5616   19.4067 C   0  0  0  0  0  0  0  0  0  0  0  0
   69.1557   59.1562   17.9183 C   0  0  0  0  0  0  0  0  0  0  0  0
   68.0169   60.0817   17.9668 C   0  0  0  0  0  0  0  0  0  0  0  0
   68.1357   60.8094   19.3418 C   0  0  0  0  0  0  0  0  0  0  0  0
   67.8740   59.7237   20.3845 C   0  0  0  0  0  0  0  0  0  0  0  0
   68.9183   58.6456   20.2849 C   0  0  0  0  0  0  0  0  0  0  0  0
   68.8573   58.0211   18.8936 C   0  0  0  0  0  0  0  0  0  0  0  0
   66.2231   49.1660   13.3923 C   0  0  0  0  0  0  0  0  0  0  0  0
   72.7135   53.9120   14.5540 C   0  0  1  0  0  0  0  0  0  0  0  0
   73.4955   55.1621   14.0991 C   0  0  0  0  0  0  0  0  0  0  0  0
   67.0702   50.0857   12.5200 C   0  0  2  0  0  0  0  0  0  0  0  0
   73.1885   53.5615   15.9202 C   0  0  0  0  0  0  0  0  0  0  0  0
   70.7266   55.2110   15.3061 N   0  0  0  0  0  0  0  0  0  0  0  0
   72.0146   58.9145   17.2845 N   0  0  0  0  0  0  0  0  0  0  0  0
   68.1514   55.8651   15.7203 O   0  0  0  0  0  0  0  0  0  0  0  0
   69.1748   54.3097   17.2144 O   0  0  0  0  0  0  0  0  0  0  0  0
   71.0780   58.7393   14.3574 O   0  0  0  0  0  0  0  0  0  0  0  0
   72.2941   57.5753   19.1261 O   0  0  0  0  0  0  0  0  0  0  0  0
   74.0617   58.8293   18.6225 O   0  0  0  0  0  0  0  0  0  0  0  0
   75.1213   62.0181   19.8276 O   0  0  0  0  0  0  0  0  0  0  0  0
   73.5150   62.5804   21.3238 O   0  0  0  0  0  0  0  0  0  0  0  0
   68.1774   49.3725   12.0479 O   0  0  0  0  0  0  0  0  0  0  0  0
   65.6693   48.1839   12.5636 O   0  0  0  0  0  0  0  0  0  0  0  0
   69.1329   54.7591   15.7481 S   0  0  1  0  0  6  0  0  0  0  0  0
  1  2  1  0
 16  1  1  0
  1 34  1  6
  2  8  1  6
  2 31  1  0
 31  3  1  0
  3 35  2  0
  3 36  1  0
  4  5  1  0
  4 17  1  0
  4 36  1  6
  5 37  1  0
 17  6  1  0
  6 37  1  6
  6 38  1  0
 18  7  1  0
  7 38  1  0
  8 19  1  0
 10  9  2  0
 14  9  1  0
  9 28  1  0
 11 10  1  0
 12 11  2  0
 12 13  1  0
 41 12  1  0
 13 14  2  0
 15 26  1  0
 30 15  1  0
 30 16  1  0
 17 18  1  6
 19 20  1  0
 19 24  1  0
 20 21  1  0
 21 22  1  0
 23 22  1  0
 24 23  1  0
 28 25  1  0
 25 40  1  0
 26 27  1  1
 26 29  1  0
 28 39  1  1
 41 30  1  6
 41 32  2  0
 41 33  2  0
M  END
$$$$
