
     RDKit          3D

 25 28  0  0  0  0  0  0  0  0999 V2000
  -25.4883   20.9736  -10.0731 C   0  0  0  0  0  0  0  0  0  0  0  0
  -23.5698   20.2613  -10.7359 C   0  0  0  0  0  0  0  0  0  0  0  0
  -21.8147   19.0972  -11.9333 C   0  0  0  0  0  0  0  0  0  0  0  0
  -24.1274   18.8126  -12.5698 C   0  0  0  0  0  0  0  0  0  0  0  0
  -20.5235   16.3886  -12.7417 C   0  0  0  0  0  0  0  0  0  0  0  0
  -18.4340   17.7695  -12.5305 C   0  0  0  0  0  0  0  0  0  0  0  0
  -22.0210   23.9012   -7.4219 O   0  0  0  0  0  0  0  0  0  0  0  0
  -22.3336   24.0784   -8.6207 C   0  0  0  0  0  0  0  0  0  0  0  0
  -21.8949   25.2430   -9.2005 N   0  0  0  0  0  0  0  0  0  0  0  0
  -22.1856   25.5147  -10.4826 C   0  0  0  0  0  0  0  0  0  0  0  0
  -22.9349   24.6151  -11.2317 C   0  0  0  0  0  0  0  0  0  0  0  0
  -23.3645   23.4579  -10.6372 C   0  0  0  0  0  0  0  0  0  0  0  0
  -23.0677   23.1678   -9.3087 C   0  0  0  0  0  0  0  0  0  0  0  0
  -23.5696   21.8998   -8.7822 C   0  0  0  0  0  0  0  0  0  0  0  0
  -24.1404   21.0564   -9.8202 N   0  0  0  0  0  0  0  0  0  0  0  0
  -25.7375   20.1421  -11.1280 C   0  0  0  0  0  0  0  0  0  0  0  0
  -24.5290   19.6814  -11.5604 C   0  0  0  0  0  0  0  0  0  0  0  0
  -22.2484   19.9545  -10.9429 C   0  0  0  0  0  0  0  0  0  0  0  0
  -22.7874   18.5381  -12.7371 C   0  0  0  0  0  0  0  0  0  0  0  0
  -20.4010   18.7989  -12.1151 C   0  0  0  0  0  0  0  0  0  0  0  0
  -19.8080   17.6072  -12.4725 C   0  0  0  0  0  0  0  0  0  0  0  0
  -21.0852   15.4226  -12.9743 N   0  0  0  0  0  0  0  0  0  0  0  0
  -18.2315   19.0717  -12.2026 N   0  0  0  0  0  0  0  0  0  0  0  0
  -19.3888   19.6654  -11.9613 N   0  0  0  0  0  0  0  0  0  0  0  0
  -17.4568   16.7921  -12.8599 N   0  0  0  0  0  0  0  0  0  0  0  0
 15  1  1  0
 16  1  2  0
  2 15  1  0
  2 17  2  0
 18  2  1  0
  3 18  2  0
  3 19  1  0
 20  3  1  0
  4 17  1  0
 19  4  2  0
 21  5  1  0
  5 22  3  0
 21  6  2  0
  6 23  1  0
  6 25  1  0
  8  7  2  0
  8  9  1  0
 13  8  1  0
  9 10  1  0
 11 10  2  0
 12 11  1  0
 13 12  2  0
 14 13  1  0
 15 14  1  0
 17 16  1  0
 20 21  1  0
 20 24  2  0
 23 24  1  0
M  END
$$$$
