
     RDKit          3D

 25 28  0  0  0  0  0  0  0  0999 V2000
  -25.3269   21.0770  -10.7517 C   0  0  0  0  0  0  0  0  0  0  0  0
  -23.4619   20.2581  -11.4435 C   0  0  0  0  0  0  0  0  0  0  0  0
  -21.7752   18.7800  -12.3596 C   0  0  0  0  0  0  0  0  0  0  0  0
  -24.0866   18.0860  -12.2585 C   0  0  0  0  0  0  0  0  0  0  0  0
  -20.3529   16.0287  -12.6133 C   0  0  0  0  0  0  0  0  0  0  0  0
  -18.4115   17.5246  -13.1706 C   0  0  0  0  0  0  0  0  0  0  0  0
  -21.1217   24.0771   -9.4888 O   0  0  0  0  0  0  0  0  0  0  0  0
  -21.7177   23.2795   -8.7305 C   0  0  0  0  0  0  0  0  0  0  0  0
  -21.2270   23.1692   -7.4531 N   0  0  0  0  0  0  0  0  0  0  0  0
  -21.8049   22.3359   -6.5733 C   0  0  0  0  0  0  0  0  0  0  0  0
  -22.9066   21.5783   -6.9530 C   0  0  0  0  0  0  0  0  0  0  0  0
  -23.3830   21.7009   -8.2318 C   0  0  0  0  0  0  0  0  0  0  0  0
  -22.7904   22.5623   -9.1504 C   0  0  0  0  0  0  0  0  0  0  0  0
  -23.3890   22.6190  -10.4829 C   0  0  0  0  0  0  0  0  0  0  0  0
  -23.9867   21.3529  -10.8757 N   0  0  0  0  0  0  0  0  0  0  0  0
  -25.6170   19.8337  -11.2375 C   0  0  0  0  0  0  0  0  0  0  0  0
  -24.4429   19.3002  -11.6809 C   0  0  0  0  0  0  0  0  0  0  0  0
  -22.1641   19.9732  -11.7860 C   0  0  0  0  0  0  0  0  0  0  0  0
  -22.7690   17.8494  -12.5853 C   0  0  0  0  0  0  0  0  0  0  0  0
  -20.3846   18.5202  -12.7051 C   0  0  0  0  0  0  0  0  0  0  0  0
  -19.7347   17.3105  -12.8228 C   0  0  0  0  0  0  0  0  0  0  0  0
  -20.8301   15.0077  -12.4328 N   0  0  0  0  0  0  0  0  0  0  0  0
  -18.2963   18.8751  -13.2548 N   0  0  0  0  0  0  0  0  0  0  0  0
  -19.4565   19.4486  -12.9807 N   0  0  0  0  0  0  0  0  0  0  0  0
  -17.4021   16.5490  -13.3901 N   0  0  0  0  0  0  0  0  0  0  0  0
 15  1  1  0
 16  1  2  0
  2 15  1  0
  2 17  2  0
 18  2  1  0
  3 18  2  0
  3 19  1  0
 20  3  1  0
  4 17  1  0
 19  4  2  0
 21  5  1  0
  5 22  3  0
 21  6  2  0
  6 23  1  0
  6 25  1  0
  8  7  2  0
  8  9  1  0
 13  8  1  0
  9 10  1  0
 11 10  2  0
 12 11  1  0
 13 12  2  0
 14 13  1  0
 15 14  1  0
 17 16  1  0
 20 21  1  0
 20 24  2  0
 23 24  1  0
M  END
$$$$
