
     RDKit          3D

 25 28  0  0  0  0  0  0  0  0999 V2000
  -25.4883   20.4535  -10.0938 C   0  0  0  0  0  0  0  0  0  0  0  0
  -23.5165   19.8467  -10.7030 C   0  0  0  0  0  0  0  0  0  0  0  0
  -21.6674   18.8055  -11.8717 C   0  0  0  0  0  0  0  0  0  0  0  0
  -23.9383   18.4579  -12.6177 C   0  0  0  0  0  0  0  0  0  0  0  0
  -20.2435   16.5107  -13.4090 C   0  0  0  0  0  0  0  0  0  0  0  0
  -18.2157   17.7209  -12.5482 C   0  0  0  0  0  0  0  0  0  0  0  0
  -22.2756   23.4042   -7.1676 O   0  0  0  0  0  0  0  0  0  0  0  0
  -22.5205   23.6111   -8.3773 C   0  0  0  0  0  0  0  0  0  0  0  0
  -22.0900   24.8091   -8.8913 N   0  0  0  0  0  0  0  0  0  0  0  0
  -22.3115   25.1141  -10.1798 C   0  0  0  0  0  0  0  0  0  0  0  0
  -22.9801   24.2151  -11.0024 C   0  0  0  0  0  0  0  0  0  0  0  0
  -23.4028   23.0242  -10.4728 C   0  0  0  0  0  0  0  0  0  0  0  0
  -23.1773   22.6996   -9.1384 C   0  0  0  0  0  0  0  0  0  0  0  0
  -23.6640   21.3979   -8.6847 C   0  0  0  0  0  0  0  0  0  0  0  0
  -24.1564   20.5783   -9.7803 N   0  0  0  0  0  0  0  0  0  0  0  0
  -25.6596   19.6593  -11.1920 C   0  0  0  0  0  0  0  0  0  0  0  0
  -24.4164   19.2657  -11.5912 C   0  0  0  0  0  0  0  0  0  0  0  0
  -22.1763   19.6015  -10.8659 C   0  0  0  0  0  0  0  0  0  0  0  0
  -22.5824   18.2439  -12.7388 C   0  0  0  0  0  0  0  0  0  0  0  0
  -20.2363   18.5714  -12.0052 C   0  0  0  0  0  0  0  0  0  0  0  0
  -19.5849   17.5619  -12.6807 C   0  0  0  0  0  0  0  0  0  0  0  0
  -20.7546   15.6806  -14.0026 N   0  0  0  0  0  0  0  0  0  0  0  0
  -18.0751   18.8363  -11.7866 N   0  0  0  0  0  0  0  0  0  0  0  0
  -19.2634   19.3266  -11.4740 N   0  0  0  0  0  0  0  0  0  0  0  0
  -17.1895   16.9003  -13.0889 N   0  0  0  0  0  0  0  0  0  0  0  0
 15  1  1  0
 16  1  2  0
  2 15  1  0
  2 17  2  0
 18  2  1  0
  3 18  2  0
  3 19  1  0
 20  3  1  0
  4 17  1  0
 19  4  2  0
 21  5  1  0
  5 22  3  0
 21  6  2  0
  6 23  1  0
  6 25  1  0
  8  7  2  0
  8  9  1  0
 13  8  1  0
  9 10  1  0
 11 10  2  0
 12 11  1  0
 13 12  2  0
 14 13  1  0
 15 14  1  0
 17 16  1  0
 20 21  1  0
 20 24  2  0
 23 24  1  0
M  END
$$$$
