
     RDKit          3D

 25 28  0  0  0  0  0  0  0  0999 V2000
  -13.2348   10.0798  -30.4897 C   0  0  0  0  0  0  0  0  0  0  0  0
  -12.9480   10.2736  -28.3666 C   0  0  0  0  0  0  0  0  0  0  0  0
  -13.0552    9.9318  -25.9706 C   0  0  0  0  0  0  0  0  0  0  0  0
  -14.2085    8.4334  -27.4737 C   0  0  0  0  0  0  0  0  0  0  0  0
  -14.5331    9.3052  -23.3098 C   0  0  0  0  0  0  0  0  0  0  0  0
  -12.6320   10.6673  -22.3890 C   0  0  0  0  0  0  0  0  0  0  0  0
   -9.3180   13.4804  -29.8501 O   0  0  0  0  0  0  0  0  0  0  0  0
   -9.3443   12.3382  -30.3610 C   0  0  0  0  0  0  0  0  0  0  0  0
   -8.1644   11.8799  -30.8927 N   0  0  0  0  0  0  0  0  0  0  0  0
   -8.1024   10.6656  -31.4618 C   0  0  0  0  0  0  0  0  0  0  0  0
   -9.2366    9.8639  -31.5157 C   0  0  0  0  0  0  0  0  0  0  0  0
  -10.4056   10.3372  -30.9803 C   0  0  0  0  0  0  0  0  0  0  0  0
  -10.4790   11.5946  -30.3881 C   0  0  0  0  0  0  0  0  0  0  0  0
  -11.7753   11.9916  -29.8414 C   0  0  0  0  0  0  0  0  0  0  0  0
  -12.6193   10.8487  -29.5318 N   0  0  0  0  0  0  0  0  0  0  0  0
  -13.9276    9.0500  -29.9191 C   0  0  0  0  0  0  0  0  0  0  0  0
  -13.7554    9.1589  -28.5707 C   0  0  0  0  0  0  0  0  0  0  0  0
  -12.6233   10.6276  -27.0813 C   0  0  0  0  0  0  0  0  0  0  0  0
  -13.8529    8.8298  -26.2028 C   0  0  0  0  0  0  0  0  0  0  0  0
  -12.6869   10.3455  -24.6238 C   0  0  0  0  0  0  0  0  0  0  0  0
  -13.3269   10.0793  -23.4325 C   0  0  0  0  0  0  0  0  0  0  0  0
  -15.4801    8.6747  -23.2178 N   0  0  0  0  0  0  0  0  0  0  0  0
  -11.5774   11.2805  -22.9857 N   0  0  0  0  0  0  0  0  0  0  0  0
  -11.6186   11.0862  -24.2936 N   0  0  0  0  0  0  0  0  0  0  0  0
  -12.9517   10.6349  -21.0050 N   0  0  0  0  0  0  0  0  0  0  0  0
 15  1  1  0
 16  1  2  0
  2 15  1  0
  2 17  2  0
 18  2  1  0
  3 18  2  0
  3 19  1  0
 20  3  1  0
  4 17  1  0
 19  4  2  0
 21  5  1  0
  5 22  3  0
 21  6  2  0
  6 23  1  0
  6 25  1  0
  8  7  2  0
  8  9  1  0
 13  8  1  0
  9 10  1  0
 11 10  2  0
 12 11  1  0
 13 12  2  0
 14 13  1  0
 15 14  1  0
 17 16  1  0
 20 21  1  0
 20 24  2  0
 23 24  1  0
M  END
$$$$
