
     RDKit          3D

 25 28  0  0  0  0  0  0  0  0999 V2000
  -25.1601   20.1810  -12.3339 C   0  0  0  0  0  0  0  0  0  0  0  0
  -23.1224   19.4929  -12.2936 C   0  0  0  0  0  0  0  0  0  0  0  0
  -21.0457   18.3603  -12.8167 C   0  0  0  0  0  0  0  0  0  0  0  0
  -22.9871   18.0689  -14.2240 C   0  0  0  0  0  0  0  0  0  0  0  0
  -19.4789   15.7198  -13.2964 C   0  0  0  0  0  0  0  0  0  0  0  0
  -17.6427   17.0782  -12.2473 C   0  0  0  0  0  0  0  0  0  0  0  0
  -23.8356   22.1149   -7.7551 O   0  0  0  0  0  0  0  0  0  0  0  0
  -24.3683   21.0080   -7.9948 C   0  0  0  0  0  0  0  0  0  0  0  0
  -24.9315   20.3570   -6.9252 N   0  0  0  0  0  0  0  0  0  0  0  0
  -25.5234   19.1636   -7.0916 C   0  0  0  0  0  0  0  0  0  0  0  0
  -25.5691   18.5795   -8.3521 C   0  0  0  0  0  0  0  0  0  0  0  0
  -25.0021   19.2432   -9.4081 C   0  0  0  0  0  0  0  0  0  0  0  0
  -24.3865   20.4807   -9.2450 C   0  0  0  0  0  0  0  0  0  0  0  0
  -23.8241   21.1009  -10.4433 C   0  0  0  0  0  0  0  0  0  0  0  0
  -23.9863   20.2696  -11.6253 N   0  0  0  0  0  0  0  0  0  0  0  0
  -25.0153   19.3642  -13.4193 C   0  0  0  0  0  0  0  0  0  0  0  0
  -23.7264   18.9190  -13.4080 C   0  0  0  0  0  0  0  0  0  0  0  0
  -21.8082   19.1990  -12.0299 C   0  0  0  0  0  0  0  0  0  0  0  0
  -21.6698   17.8067  -13.9162 C   0  0  0  0  0  0  0  0  0  0  0  0
  -19.6538   18.0751  -12.4971 C   0  0  0  0  0  0  0  0  0  0  0  0
  -18.9407   16.9134  -12.7007 C   0  0  0  0  0  0  0  0  0  0  0  0
  -19.8945   14.7618  -13.7570 N   0  0  0  0  0  0  0  0  0  0  0  0
  -17.6062   18.3513  -11.7761 N   0  0  0  0  0  0  0  0  0  0  0  0
  -18.7881   18.9262  -11.9268 N   0  0  0  0  0  0  0  0  0  0  0  0
  -16.5869   16.1276  -12.2710 N   0  0  0  0  0  0  0  0  0  0  0  0
 15  1  1  0
 16  1  2  0
  2 15  1  0
  2 17  2  0
 18  2  1  0
  3 18  2  0
  3 19  1  0
 20  3  1  0
  4 17  1  0
 19  4  2  0
 21  5  1  0
  5 22  3  0
 21  6  2  0
  6 23  1  0
  6 25  1  0
  8  7  2  0
  8  9  1  0
 13  8  1  0
  9 10  1  0
 11 10  2  0
 12 11  1  0
 13 12  2  0
 14 13  1  0
 15 14  1  0
 17 16  1  0
 20 21  1  0
 20 24  2  0
 23 24  1  0
M  END
$$$$
