
     RDKit          3D

 25 28  0  0  0  0  0  0  0  0999 V2000
  -25.6596   20.2764  -10.0371 C   0  0  0  0  0  0  0  0  0  0  0  0
  -23.6959   19.7060  -10.7048 C   0  0  0  0  0  0  0  0  0  0  0  0
  -21.8635   18.6780  -11.9109 C   0  0  0  0  0  0  0  0  0  0  0  0
  -24.1505   18.2371  -12.5509 C   0  0  0  0  0  0  0  0  0  0  0  0
  -20.3563   16.0147  -12.4515 C   0  0  0  0  0  0  0  0  0  0  0  0
  -18.3907   17.5810  -12.4443 C   0  0  0  0  0  0  0  0  0  0  0  0
  -21.8407   23.0416   -7.5442 O   0  0  0  0  0  0  0  0  0  0  0  0
  -22.3113   23.3359   -8.6659 C   0  0  0  0  0  0  0  0  0  0  0  0
  -21.8306   24.4825   -9.2481 N   0  0  0  0  0  0  0  0  0  0  0  0
  -22.2813   24.8740  -10.4505 C   0  0  0  0  0  0  0  0  0  0  0  0
  -23.2402   24.1175  -11.1140 C   0  0  0  0  0  0  0  0  0  0  0  0
  -23.7088   22.9761  -10.5183 C   0  0  0  0  0  0  0  0  0  0  0  0
  -23.2472   22.5626   -9.2722 C   0  0  0  0  0  0  0  0  0  0  0  0
  -23.8106   21.3242   -8.7375 C   0  0  0  0  0  0  0  0  0  0  0  0
  -24.3208   20.4514   -9.7828 N   0  0  0  0  0  0  0  0  0  0  0  0
  -25.8499   19.4383  -11.0989 C   0  0  0  0  0  0  0  0  0  0  0  0
  -24.6121   19.0671  -11.5346 C   0  0  0  0  0  0  0  0  0  0  0  0
  -22.3563   19.4945  -10.9136 C   0  0  0  0  0  0  0  0  0  0  0  0
  -22.7946   18.0588  -12.7198 C   0  0  0  0  0  0  0  0  0  0  0  0
  -20.4323   18.4812  -12.0944 C   0  0  0  0  0  0  0  0  0  0  0  0
  -19.7445   17.3113  -12.3346 C   0  0  0  0  0  0  0  0  0  0  0  0
  -20.8431   14.9885  -12.5640 N   0  0  0  0  0  0  0  0  0  0  0  0
  -18.2960   18.9239  -12.2653 N   0  0  0  0  0  0  0  0  0  0  0  0
  -19.4963   19.4413  -12.0613 N   0  0  0  0  0  0  0  0  0  0  0  0
  -17.3381   16.6587  -12.6896 N   0  0  0  0  0  0  0  0  0  0  0  0
 15  1  1  0
 16  1  2  0
  2 15  1  0
  2 17  2  0
 18  2  1  0
  3 18  2  0
  3 19  1  0
 20  3  1  0
  4 17  1  0
 19  4  2  0
 21  5  1  0
  5 22  3  0
 21  6  2  0
  6 23  1  0
  6 25  1  0
  8  7  2  0
  8  9  1  0
 13  8  1  0
  9 10  1  0
 11 10  2  0
 12 11  1  0
 13 12  2  0
 14 13  1  0
 15 14  1  0
 17 16  1  0
 20 21  1  0
 20 24  2  0
 23 24  1  0
M  END
$$$$
