
     RDKit          3D

 25 28  0  0  0  0  0  0  0  0999 V2000
  -25.2036   21.0462  -10.6391 C   0  0  0  0  0  0  0  0  0  0  0  0
  -23.3017   20.2424  -11.2425 C   0  0  0  0  0  0  0  0  0  0  0  0
  -21.5545   18.7621  -12.0331 C   0  0  0  0  0  0  0  0  0  0  0  0
  -23.8470   18.0077  -11.9361 C   0  0  0  0  0  0  0  0  0  0  0  0
  -20.1970   16.0740  -12.8001 C   0  0  0  0  0  0  0  0  0  0  0  0
  -18.1770   17.5676  -12.8778 C   0  0  0  0  0  0  0  0  0  0  0  0
  -21.4540   24.5639   -9.3517 O   0  0  0  0  0  0  0  0  0  0  0  0
  -21.8555   23.6247   -8.6284 C   0  0  0  0  0  0  0  0  0  0  0  0
  -21.3620   23.5864   -7.3478 N   0  0  0  0  0  0  0  0  0  0  0  0
  -21.7385   22.6125   -6.5039 C   0  0  0  0  0  0  0  0  0  0  0  0
  -22.6328   21.6350   -6.9243 C   0  0  0  0  0  0  0  0  0  0  0  0
  -23.1153   21.6887   -8.2056 C   0  0  0  0  0  0  0  0  0  0  0  0
  -22.7307   22.6947   -9.0871 C   0  0  0  0  0  0  0  0  0  0  0  0
  -23.3162   22.6580  -10.4261 C   0  0  0  0  0  0  0  0  0  0  0  0
  -23.8694   21.3535  -10.7530 N   0  0  0  0  0  0  0  0  0  0  0  0
  -25.4479   19.7678  -11.0541 C   0  0  0  0  0  0  0  0  0  0  0  0
  -24.2499   19.2435  -11.4406 C   0  0  0  0  0  0  0  0  0  0  0  0
  -21.9892   19.9758  -11.5410 C   0  0  0  0  0  0  0  0  0  0  0  0
  -22.5165   17.7907  -12.2214 C   0  0  0  0  0  0  0  0  0  0  0  0
  -20.1499   18.5231  -12.3343 C   0  0  0  0  0  0  0  0  0  0  0  0
  -19.5281   17.3414  -12.6758 C   0  0  0  0  0  0  0  0  0  0  0  0
  -20.7123   15.0595  -12.8896 N   0  0  0  0  0  0  0  0  0  0  0  0
  -18.0170   18.8968  -12.6501 N   0  0  0  0  0  0  0  0  0  0  0  0
  -19.1775   19.4469  -12.3327 N   0  0  0  0  0  0  0  0  0  0  0  0
  -17.1825   16.6204  -13.2421 N   0  0  0  0  0  0  0  0  0  0  0  0
 15  1  1  0
 16  1  2  0
  2 15  1  0
  2 17  2  0
 18  2  1  0
  3 18  2  0
  3 19  1  0
 20  3  1  0
  4 17  1  0
 19  4  2  0
 21  5  1  0
  5 22  3  0
 21  6  2  0
  6 23  1  0
  6 25  1  0
  8  7  2  0
  8  9  1  0
 13  8  1  0
  9 10  1  0
 11 10  2  0
 12 11  1  0
 13 12  2  0
 14 13  1  0
 15 14  1  0
 17 16  1  0
 20 21  1  0
 20 24  2  0
 23 24  1  0
M  END
$$$$
