
     RDKit          3D

 25 28  0  0  0  0  0  0  0  0999 V2000
  -25.3262   20.9111  -10.8004 C   0  0  0  0  0  0  0  0  0  0  0  0
  -23.3834   20.1313  -11.2953 C   0  0  0  0  0  0  0  0  0  0  0  0
  -21.5765   18.6743  -11.9892 C   0  0  0  0  0  0  0  0  0  0  0  0
  -23.8622   17.8943  -12.0296 C   0  0  0  0  0  0  0  0  0  0  0  0
  -20.2345   16.4942  -13.7508 C   0  0  0  0  0  0  0  0  0  0  0  0
  -18.1644   17.6447  -12.9089 C   0  0  0  0  0  0  0  0  0  0  0  0
  -21.2770   24.1028   -9.4709 O   0  0  0  0  0  0  0  0  0  0  0  0
  -21.8816   23.3286   -8.6953 C   0  0  0  0  0  0  0  0  0  0  0  0
  -21.4351   23.2930   -7.3975 N   0  0  0  0  0  0  0  0  0  0  0  0
  -22.0252   22.4896   -6.4983 C   0  0  0  0  0  0  0  0  0  0  0  0
  -23.0947   21.6873   -6.8784 C   0  0  0  0  0  0  0  0  0  0  0  0
  -23.5272   21.7356   -8.1775 C   0  0  0  0  0  0  0  0  0  0  0  0
  -22.9217   22.5655   -9.1164 C   0  0  0  0  0  0  0  0  0  0  0  0
  -23.4726   22.5423  -10.4703 C   0  0  0  0  0  0  0  0  0  0  0  0
  -23.9910   21.2335  -10.8348 N   0  0  0  0  0  0  0  0  0  0  0  0
  -25.5315   19.6322  -11.2346 C   0  0  0  0  0  0  0  0  0  0  0  0
  -24.3071   19.1230  -11.5529 C   0  0  0  0  0  0  0  0  0  0  0  0
  -22.0528   19.8806  -11.5179 C   0  0  0  0  0  0  0  0  0  0  0  0
  -22.5150   17.6933  -12.2378 C   0  0  0  0  0  0  0  0  0  0  0  0
  -20.1542   18.4522  -12.2090 C   0  0  0  0  0  0  0  0  0  0  0  0
  -19.5388   17.4932  -12.9845 C   0  0  0  0  0  0  0  0  0  0  0  0
  -20.7730   15.6879  -14.3529 N   0  0  0  0  0  0  0  0  0  0  0  0
  -17.9843   18.7047  -12.0793 N   0  0  0  0  0  0  0  0  0  0  0  0
  -19.1549   19.1701  -11.6752 N   0  0  0  0  0  0  0  0  0  0  0  0
  -17.1677   16.8653  -13.5553 N   0  0  0  0  0  0  0  0  0  0  0  0
 15  1  1  0
 16  1  2  0
  2 15  1  0
  2 17  2  0
 18  2  1  0
  3 18  2  0
  3 19  1  0
 20  3  1  0
  4 17  1  0
 19  4  2  0
 21  5  1  0
  5 22  3  0
 21  6  2  0
  6 23  1  0
  6 25  1  0
  8  7  2  0
  8  9  1  0
 13  8  1  0
  9 10  1  0
 11 10  2  0
 12 11  1  0
 13 12  2  0
 14 13  1  0
 15 14  1  0
 17 16  1  0
 20 21  1  0
 20 24  2  0
 23 24  1  0
M  END
$$$$
