
     RDKit          3D

 25 28  0  0  0  0  0  0  0  0999 V2000
  -12.5272    8.6430  -30.4117 C   0  0  0  0  0  0  0  0  0  0  0  0
  -12.8266    8.8230  -28.2891 C   0  0  0  0  0  0  0  0  0  0  0  0
  -13.1079    9.7127  -26.0534 C   0  0  0  0  0  0  0  0  0  0  0  0
  -12.8393   11.1998  -27.9377 C   0  0  0  0  0  0  0  0  0  0  0  0
  -12.1616   11.5095  -23.7012 C   0  0  0  0  0  0  0  0  0  0  0  0
  -13.2761    9.6873  -22.3765 C   0  0  0  0  0  0  0  0  0  0  0  0
  -12.3112    3.8302  -28.1676 O   0  0  0  0  0  0  0  0  0  0  0  0
  -11.3383    4.6001  -28.3316 C   0  0  0  0  0  0  0  0  0  0  0  0
  -10.1052    4.1093  -27.9800 N   0  0  0  0  0  0  0  0  0  0  0  0
   -9.0068    4.8680  -28.1217 C   0  0  0  0  0  0  0  0  0  0  0  0
   -9.1131    6.1585  -28.6267 C   0  0  0  0  0  0  0  0  0  0  0  0
  -10.3514    6.6322  -28.9724 C   0  0  0  0  0  0  0  0  0  0  0  0
  -11.4955    5.8527  -28.8292 C   0  0  0  0  0  0  0  0  0  0  0  0
  -12.7616    6.4577  -29.2391 C   0  0  0  0  0  0  0  0  0  0  0  0
  -12.6994    7.9103  -29.2622 N   0  0  0  0  0  0  0  0  0  0  0  0
  -12.5504    9.9826  -30.1454 C   0  0  0  0  0  0  0  0  0  0  0  0
  -12.7399   10.1139  -28.8014 C   0  0  0  0  0  0  0  0  0  0  0  0
  -13.0059    8.6591  -26.9386 C   0  0  0  0  0  0  0  0  0  0  0  0
  -13.0203   10.9814  -26.5892 C   0  0  0  0  0  0  0  0  0  0  0  0
  -13.2961    9.4911  -24.6264 C   0  0  0  0  0  0  0  0  0  0  0  0
  -12.8852   10.2734  -23.5687 C   0  0  0  0  0  0  0  0  0  0  0  0
  -11.5781   12.4865  -23.7891 N   0  0  0  0  0  0  0  0  0  0  0  0
  -13.9208    8.5523  -22.7510 N   0  0  0  0  0  0  0  0  0  0  0  0
  -13.9271    8.4466  -24.0697 N   0  0  0  0  0  0  0  0  0  0  0  0
  -13.0523   10.1673  -21.0580 N   0  0  0  0  0  0  0  0  0  0  0  0
 15  1  1  0
 16  1  2  0
  2 15  1  0
  2 17  2  0
 18  2  1  0
  3 18  2  0
  3 19  1  0
 20  3  1  0
  4 17  1  0
 19  4  2  0
 21  5  1  0
  5 22  3  0
 21  6  2  0
  6 23  1  0
  6 25  1  0
  8  7  2  0
  8  9  1  0
 13  8  1  0
  9 10  1  0
 11 10  2  0
 12 11  1  0
 13 12  2  0
 14 13  1  0
 15 14  1  0
 17 16  1  0
 20 21  1  0
 20 24  2  0
 23 24  1  0
M  END
$$$$
