
     RDKit          3D

 25 28  0  0  0  0  0  0  0  0999 V2000
  -25.1502   21.1665  -10.5936 C   0  0  0  0  0  0  0  0  0  0  0  0
  -23.3402   20.3118  -11.3817 C   0  0  0  0  0  0  0  0  0  0  0  0
  -21.7412   18.8174  -12.4204 C   0  0  0  0  0  0  0  0  0  0  0  0
  -24.0748   18.2090  -12.2824 C   0  0  0  0  0  0  0  0  0  0  0  0
  -20.3814   16.0334  -12.6602 C   0  0  0  0  0  0  0  0  0  0  0  0
  -18.4410   17.4761  -13.3465 C   0  0  0  0  0  0  0  0  0  0  0  0
  -20.8506   23.9114   -9.1626 O   0  0  0  0  0  0  0  0  0  0  0  0
  -21.5507   23.1592   -8.4481 C   0  0  0  0  0  0  0  0  0  0  0  0
  -21.1549   23.0160   -7.1413 N   0  0  0  0  0  0  0  0  0  0  0  0
  -21.8476   22.2272   -6.3045 C   0  0  0  0  0  0  0  0  0  0  0  0
  -22.9728   21.5494   -6.7589 C   0  0  0  0  0  0  0  0  0  0  0  0
  -23.3535   21.7039   -8.0660 C   0  0  0  0  0  0  0  0  0  0  0  0
  -22.6416   22.5197   -8.9404 C   0  0  0  0  0  0  0  0  0  0  0  0
  -23.1449   22.6170  -10.3095 C   0  0  0  0  0  0  0  0  0  0  0  0
  -23.8041   21.3963  -10.7452 N   0  0  0  0  0  0  0  0  0  0  0  0
  -25.5038   19.9612  -11.1305 C   0  0  0  0  0  0  0  0  0  0  0  0
  -24.3653   19.4057  -11.6354 C   0  0  0  0  0  0  0  0  0  0  0  0
  -22.0652   19.9945  -11.7774 C   0  0  0  0  0  0  0  0  0  0  0  0
  -22.7777   17.9383  -12.6606 C   0  0  0  0  0  0  0  0  0  0  0  0
  -20.3727   18.5217  -12.8208 C   0  0  0  0  0  0  0  0  0  0  0  0
  -19.7505   17.2970  -12.9335 C   0  0  0  0  0  0  0  0  0  0  0  0
  -20.8920   15.0324  -12.4604 N   0  0  0  0  0  0  0  0  0  0  0  0
  -18.3057   18.8213  -13.4739 N   0  0  0  0  0  0  0  0  0  0  0  0
  -19.4417   19.4242  -13.1640 N   0  0  0  0  0  0  0  0  0  0  0  0
  -17.4603   16.4757  -13.5837 N   0  0  0  0  0  0  0  0  0  0  0  0
 15  1  1  0
 16  1  2  0
  2 15  1  0
  2 17  2  0
 18  2  1  0
  3 18  2  0
  3 19  1  0
 20  3  1  0
  4 17  1  0
 19  4  2  0
 21  5  1  0
  5 22  3  0
 21  6  2  0
  6 23  1  0
  6 25  1  0
  8  7  2  0
  8  9  1  0
 13  8  1  0
  9 10  1  0
 11 10  2  0
 12 11  1  0
 13 12  2  0
 14 13  1  0
 15 14  1  0
 17 16  1  0
 20 21  1  0
 20 24  2  0
 23 24  1  0
M  END
$$$$
