
     RDKit          3D

 25 28  0  0  0  0  0  0  0  0999 V2000
  -12.8730    8.6054  -30.8675 C   0  0  0  0  0  0  0  0  0  0  0  0
  -12.7045    9.1354  -28.7896 C   0  0  0  0  0  0  0  0  0  0  0  0
  -13.2186    9.7510  -26.5035 C   0  0  0  0  0  0  0  0  0  0  0  0
  -14.9936    9.3438  -28.0904 C   0  0  0  0  0  0  0  0  0  0  0  0
  -14.9406   10.7053  -24.0991 C   0  0  0  0  0  0  0  0  0  0  0  0
  -12.6783   10.7604  -23.0054 C   0  0  0  0  0  0  0  0  0  0  0  0
   -7.7336    9.4363  -30.0214 O   0  0  0  0  0  0  0  0  0  0  0  0
   -8.5765   10.3115  -30.3211 C   0  0  0  0  0  0  0  0  0  0  0  0
   -8.0831   11.5570  -30.6214 N   0  0  0  0  0  0  0  0  0  0  0  0
   -8.9167   12.5558  -30.9528 C   0  0  0  0  0  0  0  0  0  0  0  0
  -10.2880   12.3328  -30.9934 C   0  0  0  0  0  0  0  0  0  0  0  0
  -10.7630   11.0838  -30.6909 C   0  0  0  0  0  0  0  0  0  0  0  0
   -9.9063   10.0424  -30.3465 C   0  0  0  0  0  0  0  0  0  0  0  0
  -10.5234    8.7501  -30.0528 C   0  0  0  0  0  0  0  0  0  0  0  0
  -11.9622    8.8525  -29.8690 N   0  0  0  0  0  0  0  0  0  0  0  0
  -14.1520    8.7337  -30.4052 C   0  0  0  0  0  0  0  0  0  0  0  0
  -14.0623    9.0701  -29.0867 C   0  0  0  0  0  0  0  0  0  0  0  0
  -12.3227    9.4728  -27.5155 C   0  0  0  0  0  0  0  0  0  0  0  0
  -14.5585    9.6768  -26.8260 C   0  0  0  0  0  0  0  0  0  0  0  0
  -12.7675   10.1069  -25.1654 C   0  0  0  0  0  0  0  0  0  0  0  0
  -13.5127   10.5318  -24.0866 C   0  0  0  0  0  0  0  0  0  0  0  0
  -16.0730   10.8480  -24.0898 N   0  0  0  0  0  0  0  0  0  0  0  0
  -11.4358   10.4635  -23.4660 N   0  0  0  0  0  0  0  0  0  0  0  0
  -11.4988   10.0821  -24.7312 N   0  0  0  0  0  0  0  0  0  0  0  0
  -13.0422   11.2053  -21.7059 N   0  0  0  0  0  0  0  0  0  0  0  0
 15  1  1  0
 16  1  2  0
  2 15  1  0
  2 17  2  0
 18  2  1  0
  3 18  2  0
  3 19  1  0
 20  3  1  0
  4 17  1  0
 19  4  2  0
 21  5  1  0
  5 22  3  0
 21  6  2  0
  6 23  1  0
  6 25  1  0
  8  7  2  0
  8  9  1  0
 13  8  1  0
  9 10  1  0
 11 10  2  0
 12 11  1  0
 13 12  2  0
 14 13  1  0
 15 14  1  0
 17 16  1  0
 20 21  1  0
 20 24  2  0
 23 24  1  0
M  END
$$$$
