
     RDKit          3D

 25 28  0  0  0  0  0  0  0  0999 V2000
  -13.0514   11.0903  -25.8173 C   0  0  0  0  0  0  0  0  0  0  0  0
  -12.3013    9.1822  -26.4682 C   0  0  0  0  0  0  0  0  0  0  0  0
  -11.5867    7.3145  -27.8359 C   0  0  0  0  0  0  0  0  0  0  0  0
  -12.3550    9.3610  -28.8636 C   0  0  0  0  0  0  0  0  0  0  0  0
   -9.2199    6.2930  -29.5715 C   0  0  0  0  0  0  0  0  0  0  0  0
   -9.8826    4.1197  -28.4970 C   0  0  0  0  0  0  0  0  0  0  0  0
  -12.2370   10.0509  -21.1257 O   0  0  0  0  0  0  0  0  0  0  0  0
  -13.1922   10.5420  -21.7682 C   0  0  0  0  0  0  0  0  0  0  0  0
  -14.0873   11.2960  -21.0505 N   0  0  0  0  0  0  0  0  0  0  0  0
  -15.1425   11.8596  -21.6597 C   0  0  0  0  0  0  0  0  0  0  0  0
  -15.3344   11.6818  -23.0247 C   0  0  0  0  0  0  0  0  0  0  0  0
  -14.4313   10.9263  -23.7254 C   0  0  0  0  0  0  0  0  0  0  0  0
  -13.3345   10.3385  -23.1022 C   0  0  0  0  0  0  0  0  0  0  0  0
  -12.4316    9.5621  -23.9503 C   0  0  0  0  0  0  0  0  0  0  0  0
  -12.5852    9.8813  -25.3606 N   0  0  0  0  0  0  0  0  0  0  0  0
  -13.0510   11.1301  -27.1828 C   0  0  0  0  0  0  0  0  0  0  0  0
  -12.5771    9.9254  -27.6118 C   0  0  0  0  0  0  0  0  0  0  0  0
  -11.8181    7.9058  -26.6108 C   0  0  0  0  0  0  0  0  0  0  0  0
  -11.8673    8.0753  -28.9527 C   0  0  0  0  0  0  0  0  0  0  0  0
  -11.0745    5.9553  -27.9394 C   0  0  0  0  0  0  0  0  0  0  0  0
  -10.0283    5.4815  -28.7014 C   0  0  0  0  0  0  0  0  0  0  0  0
   -8.5627    6.9332  -30.2504 N   0  0  0  0  0  0  0  0  0  0  0  0
  -10.8570    3.8035  -27.6055 N   0  0  0  0  0  0  0  0  0  0  0  0
  -11.5490    4.8847  -27.2854 N   0  0  0  0  0  0  0  0  0  0  0  0
   -8.9271    3.2498  -29.0878 N   0  0  0  0  0  0  0  0  0  0  0  0
 15  1  1  0
 16  1  2  0
  2 15  1  0
  2 17  2  0
 18  2  1  0
  3 18  2  0
  3 19  1  0
 20  3  1  0
  4 17  1  0
 19  4  2  0
 21  5  1  0
  5 22  3  0
 21  6  2  0
  6 23  1  0
  6 25  1  0
  8  7  2  0
  8  9  1  0
 13  8  1  0
  9 10  1  0
 11 10  2  0
 12 11  1  0
 13 12  2  0
 14 13  1  0
 15 14  1  0
 17 16  1  0
 20 21  1  0
 20 24  2  0
 23 24  1  0
M  END
$$$$
