
     RDKit          3D

 36 40  0  0  0  0  0  0  0  0999 V2000
  -13.6269   -9.4538  -14.3268 C   0  0  0  0  0  0  0  0  0  0  0  0
  -13.1679   -9.3969  -12.8850 C   0  0  0  0  0  0  0  0  0  0  0  0
  -12.9428   -8.0036  -12.4068 C   0  0  0  0  0  0  0  0  0  0  0  0
  -13.3597   -7.0669  -13.1610 O   0  0  0  0  0  0  0  0  0  0  0  0
  -12.3001   -7.7648  -11.1810 N   0  0  0  0  0  0  0  0  0  0  0  0
  -12.3889   -6.8241  -10.0946 C   0  0  0  0  0  0  0  0  0  0  0  0
  -12.0306   -8.0293   -9.1979 C   0  0  1  0  0  0  0  0  0  0  0  0
  -11.2401   -8.4081  -10.4354 C   0  0  0  0  0  0  0  0  0  0  0  0
  -11.3080   -7.7093   -8.0221 N   0  0  0  0  0  0  0  0  0  0  0  0
   -9.9187   -7.9277   -7.9432 C   0  0  0  0  0  0  0  0  0  0  0  0
   -9.4219   -9.0169   -8.3198 O   0  0  0  0  0  0  0  0  0  0  0  0
   -8.9708   -6.8923   -7.4150 C   0  0  0  0  0  0  0  0  0  0  0  0
   -8.5498   -7.2007   -6.0627 N   0  0  0  0  0  0  0  0  0  0  0  0
   -9.0620   -6.5973   -4.9556 C   0  0  0  0  0  0  0  0  0  0  0  0
   -8.4613   -7.0942   -3.8215 C   0  0  0  0  0  0  0  0  0  0  0  0
   -8.6958   -6.7277   -2.4205 C   0  0  0  0  0  0  0  0  0  0  0  0
   -7.7733   -6.2778   -1.6993 O   0  0  0  0  0  0  0  0  0  0  0  0
   -9.9895   -6.8806   -1.8549 N   0  0  0  0  0  0  0  0  0  0  0  0
  -11.1125   -7.2068   -2.7093 C   0  0  0  0  0  0  0  0  0  0  0  0
  -12.2097   -6.1610   -2.5097 C   0  0  0  0  0  0  0  0  0  0  0  0
  -12.4671   -6.0402   -1.0542 C   0  0  0  0  0  0  0  0  0  0  0  0
  -13.7773   -5.6391   -0.7138 C   0  0  0  0  0  0  0  0  0  0  0  0
  -14.6801   -5.3999   -1.7286 O   0  0  0  0  0  0  0  0  0  0  0  0
  -16.0490   -5.2767   -1.4212 C   0  0  0  0  0  0  0  0  0  0  0  0
  -14.0559   -5.5162    0.6233 C   0  0  0  0  0  0  0  0  0  0  0  0
  -13.1265   -5.7643    1.6063 C   0  0  0  0  0  0  0  0  0  0  0  0
  -11.8653   -6.1509    1.2538 C   0  0  0  0  0  0  0  0  0  0  0  0
  -11.5255   -6.2928   -0.1053 C   0  0  0  0  0  0  0  0  0  0  0  0
  -10.1517   -6.7107   -0.4452 C   0  0  0  0  0  0  0  0  0  0  0  0
   -7.5556   -8.0297   -4.2614 C   0  0  0  0  0  0  0  0  0  0  0  0
   -6.6541   -8.8698   -3.6696 C   0  0  0  0  0  0  0  0  0  0  0  0
   -5.8291   -9.7413   -4.3237 C   0  0  0  0  0  0  0  0  0  0  0  0
   -4.5971  -10.8701   -3.3681 Br  0  0  0  0  0  0  0  0  0  0  0  0
   -5.9066   -9.7825   -5.6994 C   0  0  0  0  0  0  0  0  0  0  0  0
   -6.8052   -8.9520   -6.3645 C   0  0  0  0  0  0  0  0  0  0  0  0
   -7.6258   -8.0806   -5.6589 C   0  0  0  0  0  0  0  0  0  0  0  0
  1  2  1  0
  2  3  1  0
  3  4  2  0
  3  5  1  0
  5  6  1  0
  5  8  1  0
  6  7  1  0
  7  8  1  0
  7  9  1  1
  9 10  1  0
 10 11  2  0
 10 12  1  0
 12 13  1  0
 13 14  1  0
 13 36  1  0
 14 15  2  0
 15 16  1  0
 15 30  1  0
 16 17  2  0
 16 18  1  0
 18 19  1  0
 18 29  1  0
 19 20  1  0
 20 21  1  0
 21 22  2  0
 21 28  1  0
 22 23  1  0
 22 25  1  0
 23 24  1  0
 25 26  2  0
 26 27  1  0
 27 28  2  0
 28 29  1  0
 30 31  1  0
 30 36  2  0
 31 32  2  0
 32 33  1  0
 32 34  1  0
 34 35  2  0
 35 36  1  0
M  END
$$$$
