
     RDKit          3D

 36 40  0  0  0  0  0  0  0  0999 V2000
  -14.6203  -16.3037   -7.4718 C   0  0  0  0  0  0  0  0  0  0  0  0
  -14.0219  -14.9725   -7.0690 C   0  0  0  0  0  0  0  0  0  0  0  0
  -14.9392  -14.1621   -6.2191 C   0  0  0  0  0  0  0  0  0  0  0  0
  -15.9995  -14.7380   -5.8137 O   0  0  0  0  0  0  0  0  0  0  0  0
  -14.6247  -12.8317   -5.8967 N   0  0  0  0  0  0  0  0  0  0  0  0
  -13.4731  -11.9683   -5.9324 C   0  0  0  0  0  0  0  0  0  0  0  0
  -14.4828  -10.8584   -6.2974 C   0  0  1  0  0  0  0  0  0  0  0  0
  -15.3647  -11.6958   -5.3915 C   0  0  0  0  0  0  0  0  0  0  0  0
  -14.1296   -9.5578   -5.8608 N   0  0  0  0  0  0  0  0  0  0  0  0
  -12.8166   -9.2650   -5.4430 C   0  0  0  0  0  0  0  0  0  0  0  0
  -11.8319   -9.6395   -6.1250 O   0  0  0  0  0  0  0  0  0  0  0  0
  -12.5242   -8.5040   -4.1841 C   0  0  0  0  0  0  0  0  0  0  0  0
  -11.1219   -8.1485   -4.0939 N   0  0  0  0  0  0  0  0  0  0  0  0
  -10.1310   -8.8083   -4.7535 C   0  0  0  0  0  0  0  0  0  0  0  0
   -8.9094   -8.2444   -4.4648 C   0  0  0  0  0  0  0  0  0  0  0  0
   -7.5792   -8.6363   -4.9435 C   0  0  0  0  0  0  0  0  0  0  0  0
   -6.6845   -9.0154   -4.1502 O   0  0  0  0  0  0  0  0  0  0  0  0
   -7.2834   -8.5901   -6.3317 N   0  0  0  0  0  0  0  0  0  0  0  0
   -8.3472   -8.3491   -7.2846 C   0  0  0  0  0  0  0  0  0  0  0  0
   -8.3591   -9.4801   -8.3134 C   0  0  0  0  0  0  0  0  0  0  0  0
   -6.9826   -9.6295   -8.8447 C   0  0  0  0  0  0  0  0  0  0  0  0
   -6.9054  -10.1355  -10.1606 C   0  0  0  0  0  0  0  0  0  0  0  0
   -8.0769  -10.4397  -10.8217 O   0  0  0  0  0  0  0  0  0  0  0  0
   -8.6200   -9.5097  -11.7292 C   0  0  0  0  0  0  0  0  0  0  0  0
   -5.6491  -10.2880  -10.6889 C   0  0  0  0  0  0  0  0  0  0  0  0
   -4.5036   -9.9726   -9.9961 C   0  0  0  0  0  0  0  0  0  0  0  0
   -4.6023   -9.4849   -8.7247 C   0  0  0  0  0  0  0  0  0  0  0  0
   -5.8682   -9.3084   -8.1337 C   0  0  0  0  0  0  0  0  0  0  0  0
   -5.9325   -8.7806   -6.7571 C   0  0  0  0  0  0  0  0  0  0  0  0
   -9.1740   -7.2085   -3.6011 C   0  0  0  0  0  0  0  0  0  0  0  0
   -8.4286   -6.2682   -2.9465 C   0  0  0  0  0  0  0  0  0  0  0  0
   -8.9180   -5.3054   -2.1090 C   0  0  0  0  0  0  0  0  0  0  0  0
   -7.7550   -4.0394   -1.2428 Br  0  0  0  0  0  0  0  0  0  0  0  0
  -10.2802   -5.2732   -1.9010 C   0  0  0  0  0  0  0  0  0  0  0  0
  -11.0972   -6.2037   -2.5386 C   0  0  0  0  0  0  0  0  0  0  0  0
  -10.5565   -7.1659   -3.3827 C   0  0  0  0  0  0  0  0  0  0  0  0
  1  2  1  0
  2  3  1  0
  3  4  2  0
  3  5  1  0
  5  6  1  0
  5  8  1  0
  6  7  1  0
  7  8  1  0
  7  9  1  1
  9 10  1  0
 10 11  2  0
 10 12  1  0
 12 13  1  0
 13 14  1  0
 13 36  1  0
 14 15  2  0
 15 16  1  0
 15 30  1  0
 16 17  2  0
 16 18  1  0
 18 19  1  0
 18 29  1  0
 19 20  1  0
 20 21  1  0
 21 22  2  0
 21 28  1  0
 22 23  1  0
 22 25  1  0
 23 24  1  0
 25 26  2  0
 26 27  1  0
 27 28  2  0
 28 29  1  0
 30 31  1  0
 30 36  2  0
 31 32  2  0
 32 33  1  0
 32 34  1  0
 34 35  2  0
 35 36  1  0
M  END
$$$$
