
     RDKit          3D

 36 40  0  0  0  0  0  0  0  0999 V2000
   -4.3454  -15.2957  -11.8273 C   0  0  0  0  0  0  0  0  0  0  0  0
   -5.6192  -14.9475  -11.0866 C   0  0  0  0  0  0  0  0  0  0  0  0
   -5.9366  -13.4925  -11.1390 C   0  0  0  0  0  0  0  0  0  0  0  0
   -5.0269  -12.7258  -11.5916 O   0  0  0  0  0  0  0  0  0  0  0  0
   -7.1851  -13.0181  -10.7044 N   0  0  0  0  0  0  0  0  0  0  0  0
   -8.2547  -13.4581   -9.8469 C   0  0  0  0  0  0  0  0  0  0  0  0
   -8.3926  -11.9655   -9.4760 C   0  0  1  0  0  0  0  0  0  0  0  0
   -7.9575  -11.8139  -10.9208 C   0  0  0  0  0  0  0  0  0  0  0  0
   -9.7026  -11.5507   -9.1314 N   0  0  0  0  0  0  0  0  0  0  0  0
   -9.9394  -10.2717   -8.5908 C   0  0  0  0  0  0  0  0  0  0  0  0
   -9.0180   -9.6408   -8.0181 O   0  0  0  0  0  0  0  0  0  0  0  0
  -11.2794   -9.6023   -8.6664 C   0  0  0  0  0  0  0  0  0  0  0  0
  -11.2962   -8.3644   -7.9126 N   0  0  0  0  0  0  0  0  0  0  0  0
  -11.4391   -8.3048   -6.5605 C   0  0  0  0  0  0  0  0  0  0  0  0
  -11.4228   -6.9955   -6.1372 C   0  0  0  0  0  0  0  0  0  0  0  0
  -11.5538   -6.4675   -4.7748 C   0  0  0  0  0  0  0  0  0  0  0  0
  -12.3122   -5.5017   -4.5181 O   0  0  0  0  0  0  0  0  0  0  0  0
  -10.8123   -7.0517   -3.7138 N   0  0  0  0  0  0  0  0  0  0  0  0
  -11.0489   -6.6219   -2.3511 C   0  0  0  0  0  0  0  0  0  0  0  0
   -9.7245   -6.1707   -1.7347 C   0  0  0  0  0  0  0  0  0  0  0  0
   -8.7286   -7.2480   -1.9516 C   0  0  0  0  0  0  0  0  0  0  0  0
   -7.7037   -7.3134   -0.9826 C   0  0  0  0  0  0  0  0  0  0  0  0
   -7.7119   -6.4004    0.0510 O   0  0  0  0  0  0  0  0  0  0  0  0
   -7.5786   -5.0284   -0.2375 C   0  0  0  0  0  0  0  0  0  0  0  0
   -6.7625   -8.2972   -1.1473 C   0  0  0  0  0  0  0  0  0  0  0  0
   -6.7894   -9.1897   -2.1934 C   0  0  0  0  0  0  0  0  0  0  0  0
   -7.7900   -9.1076   -3.1187 C   0  0  0  0  0  0  0  0  0  0  0  0
   -8.7825   -8.1161   -2.9975 C   0  0  0  0  0  0  0  0  0  0  0  0
   -9.8459   -8.0592   -4.0191 C   0  0  0  0  0  0  0  0  0  0  0  0
  -11.2644   -6.2401   -7.2745 C   0  0  0  0  0  0  0  0  0  0  0  0
  -11.1723   -4.9056   -7.5555 C   0  0  0  0  0  0  0  0  0  0  0  0
  -11.0143   -4.3626   -8.7997 C   0  0  0  0  0  0  0  0  0  0  0  0
  -10.9027   -2.4586   -9.0599 Br  0  0  0  0  0  0  0  0  0  0  0  0
  -10.9408   -5.2291   -9.8692 C   0  0  0  0  0  0  0  0  0  0  0  0
  -11.0277   -6.6020   -9.6515 C   0  0  0  0  0  0  0  0  0  0  0  0
  -11.1881   -7.1108   -8.3685 C   0  0  0  0  0  0  0  0  0  0  0  0
  1  2  1  0
  2  3  1  0
  3  4  2  0
  3  5  1  0
  5  6  1  0
  5  8  1  0
  6  7  1  0
  7  8  1  0
  7  9  1  6
  9 10  1  0
 10 11  2  0
 10 12  1  0
 12 13  1  0
 13 14  1  0
 13 36  1  0
 14 15  2  0
 15 16  1  0
 15 30  1  0
 16 17  2  0
 16 18  1  0
 18 19  1  0
 18 29  1  0
 19 20  1  0
 20 21  1  0
 21 22  2  0
 21 28  1  0
 22 23  1  0
 22 25  1  0
 23 24  1  0
 25 26  2  0
 26 27  1  0
 27 28  2  0
 28 29  1  0
 30 31  1  0
 30 36  2  0
 31 32  2  0
 32 33  1  0
 32 34  1  0
 34 35  2  0
 35 36  1  0
M  END
$$$$
