
     RDKit          3D

 36 40  0  0  0  0  0  0  0  0999 V2000
   -3.4971  -11.6972  -13.4938 C   0  0  0  0  0  0  0  0  0  0  0  0
   -4.3404  -12.0155  -12.2772 C   0  0  0  0  0  0  0  0  0  0  0  0
   -5.7452  -11.5365  -12.4088 C   0  0  0  0  0  0  0  0  0  0  0  0
   -6.4585  -12.0980  -13.3011 O   0  0  0  0  0  0  0  0  0  0  0  0
   -6.2321  -10.5151  -11.5767 N   0  0  0  0  0  0  0  0  0  0  0  0
   -7.4355   -9.7378  -11.4330 C   0  0  0  0  0  0  0  0  0  0  0  0
   -7.1446   -9.8135   -9.9184 C   0  0  1  0  0  0  0  0  0  0  0  0
   -5.7190   -9.7893  -10.4350 C   0  0  0  0  0  0  0  0  0  0  0  0
   -7.5950   -8.7022   -9.1639 N   0  0  0  0  0  0  0  0  0  0  0  0
   -7.7935   -8.8028   -7.7730 C   0  0  0  0  0  0  0  0  0  0  0  0
   -7.7138   -9.9145   -7.1962 O   0  0  0  0  0  0  0  0  0  0  0  0
   -8.1055   -7.6114   -6.9170 C   0  0  0  0  0  0  0  0  0  0  0  0
   -8.5051   -8.0089   -5.5817 N   0  0  0  0  0  0  0  0  0  0  0  0
   -7.6826   -8.6472   -4.7052 C   0  0  0  0  0  0  0  0  0  0  0  0
   -8.3459   -8.8975   -3.5257 C   0  0  0  0  0  0  0  0  0  0  0  0
   -7.8528   -9.5674   -2.3173 C   0  0  0  0  0  0  0  0  0  0  0  0
   -7.3437  -10.7128   -2.3666 O   0  0  0  0  0  0  0  0  0  0  0  0
   -7.9475   -8.9178   -1.0580 N   0  0  0  0  0  0  0  0  0  0  0  0
   -8.3341   -7.5234   -0.9970 C   0  0  0  0  0  0  0  0  0  0  0  0
   -7.2663   -6.7444   -0.2286 C   0  0  0  0  0  0  0  0  0  0  0  0
   -7.0232   -7.4460    1.0551 C   0  0  0  0  0  0  0  0  0  0  0  0
   -6.5844   -6.6178    2.1111 C   0  0  0  0  0  0  0  0  0  0  0  0
   -6.4227   -5.2695    1.8703 O   0  0  0  0  0  0  0  0  0  0  0  0
   -5.1244   -4.7458    1.7159 C   0  0  0  0  0  0  0  0  0  0  0  0
   -6.3489   -7.2290    3.3159 C   0  0  0  0  0  0  0  0  0  0  0  0
   -6.5225   -8.5787    3.5159 C   0  0  0  0  0  0  0  0  0  0  0  0
   -6.9474   -9.3603    2.4802 C   0  0  0  0  0  0  0  0  0  0  0  0
   -7.2041   -8.7840    1.2213 C   0  0  0  0  0  0  0  0  0  0  0  0
   -7.6602   -9.6629    0.1271 C   0  0  0  0  0  0  0  0  0  0  0  0
   -9.6124   -8.3921   -3.6981 C   0  0  0  0  0  0  0  0  0  0  0  0
  -10.7445   -8.3134   -2.9362 C   0  0  0  0  0  0  0  0  0  0  0  0
  -11.9283   -7.7511   -3.3241 C   0  0  0  0  0  0  0  0  0  0  0  0
  -13.4544   -7.7093   -2.1516 Br  0  0  0  0  0  0  0  0  0  0  0  0
  -11.9945   -7.2149   -4.5923 C   0  0  0  0  0  0  0  0  0  0  0  0
  -10.8754   -7.2622   -5.4201 C   0  0  0  0  0  0  0  0  0  0  0  0
   -9.6912   -7.8438   -4.9842 C   0  0  0  0  0  0  0  0  0  0  0  0
  1  2  1  0
  2  3  1  0
  3  4  2  0
  3  5  1  0
  5  6  1  0
  5  8  1  0
  6  7  1  0
  7  8  1  0
  7  9  1  1
  9 10  1  0
 10 11  2  0
 10 12  1  0
 12 13  1  0
 13 14  1  0
 13 36  1  0
 14 15  2  0
 15 16  1  0
 15 30  1  0
 16 17  2  0
 16 18  1  0
 18 19  1  0
 18 29  1  0
 19 20  1  0
 20 21  1  0
 21 22  2  0
 21 28  1  0
 22 23  1  0
 22 25  1  0
 23 24  1  0
 25 26  2  0
 26 27  1  0
 27 28  2  0
 28 29  1  0
 30 31  1  0
 30 36  2  0
 31 32  2  0
 32 33  1  0
 32 34  1  0
 34 35  2  0
 35 36  1  0
M  END
$$$$
