
     RDKit          3D

 36 40  0  0  0  0  0  0  0  0999 V2000
   -1.9999   -8.7139  -13.9129 C   0  0  0  0  0  0  0  0  0  0  0  0
   -3.1903   -9.6339  -14.0840 C   0  0  0  0  0  0  0  0  0  0  0  0
   -3.2084  -10.7433  -13.0893 C   0  0  0  0  0  0  0  0  0  0  0  0
   -2.1471  -11.4392  -12.9911 O   0  0  0  0  0  0  0  0  0  0  0  0
   -4.3527  -10.9866  -12.3122 N   0  0  0  0  0  0  0  0  0  0  0  0
   -4.7530  -11.8717  -11.2494 C   0  0  0  0  0  0  0  0  0  0  0  0
   -5.5685  -10.6665  -10.7328 C   0  0  1  0  0  0  0  0  0  0  0  0
   -5.6753  -10.4067  -12.2231 C   0  0  0  0  0  0  0  0  0  0  0  0
   -6.7537  -10.9993  -10.0316 N   0  0  0  0  0  0  0  0  0  0  0  0
   -7.3197  -10.1070   -9.1002 C   0  0  0  0  0  0  0  0  0  0  0  0
   -6.7259   -9.0452   -8.7921 O   0  0  0  0  0  0  0  0  0  0  0  0
   -8.6386  -10.3682   -8.4354 C   0  0  0  0  0  0  0  0  0  0  0  0
   -8.7564   -9.6393   -7.1882 N   0  0  0  0  0  0  0  0  0  0  0  0
   -7.9647   -9.8634   -6.1041 C   0  0  0  0  0  0  0  0  0  0  0  0
   -8.3196   -9.0234   -5.0735 C   0  0  0  0  0  0  0  0  0  0  0  0
   -7.7454   -8.9259   -3.7270 C   0  0  0  0  0  0  0  0  0  0  0  0
   -6.6183   -9.4078   -3.4606 O   0  0  0  0  0  0  0  0  0  0  0  0
   -8.4697   -8.2754   -2.6930 N   0  0  0  0  0  0  0  0  0  0  0  0
   -9.4019   -7.2180   -3.0254 C   0  0  0  0  0  0  0  0  0  0  0  0
   -9.0360   -5.9643   -2.2305 C   0  0  0  0  0  0  0  0  0  0  0  0
   -8.9132   -6.3474   -0.8031 C   0  0  0  0  0  0  0  0  0  0  0  0
   -9.1934   -5.3128    0.1160 C   0  0  0  0  0  0  0  0  0  0  0  0
   -9.5460   -4.0722   -0.3725 O   0  0  0  0  0  0  0  0  0  0  0  0
   -8.5383   -3.1334   -0.6670 C   0  0  0  0  0  0  0  0  0  0  0  0
   -9.0915   -5.6272    1.4469 C   0  0  0  0  0  0  0  0  0  0  0  0
   -8.7364   -6.8784    1.8943 C   0  0  0  0  0  0  0  0  0  0  0  0
   -8.4697   -7.8636    0.9874 C   0  0  0  0  0  0  0  0  0  0  0  0
   -8.5594   -7.5950   -0.3920 C   0  0  0  0  0  0  0  0  0  0  0  0
   -8.2615   -8.6858   -1.3401 C   0  0  0  0  0  0  0  0  0  0  0  0
   -9.3616   -8.2668   -5.5540 C   0  0  0  0  0  0  0  0  0  0  0  0
  -10.1559   -7.2713   -5.0574 C   0  0  0  0  0  0  0  0  0  0  0  0
  -11.1646   -6.6448   -5.7341 C   0  0  0  0  0  0  0  0  0  0  0  0
  -12.2150   -5.2556   -4.9142 Br  0  0  0  0  0  0  0  0  0  0  0  0
  -11.4086   -7.0460   -7.0300 C   0  0  0  0  0  0  0  0  0  0  0  0
  -10.6347   -8.0559   -7.5965 C   0  0  0  0  0  0  0  0  0  0  0  0
   -9.6183   -8.6657   -6.8714 C   0  0  0  0  0  0  0  0  0  0  0  0
  1  2  1  0
  2  3  1  0
  3  4  2  0
  3  5  1  0
  5  6  1  0
  5  8  1  0
  6  7  1  0
  7  8  1  0
  7  9  1  6
  9 10  1  0
 10 11  2  0
 10 12  1  0
 12 13  1  0
 13 14  1  0
 13 36  1  0
 14 15  2  0
 15 16  1  0
 15 30  1  0
 16 17  2  0
 16 18  1  0
 18 19  1  0
 18 29  1  0
 19 20  1  0
 20 21  1  0
 21 22  2  0
 21 28  1  0
 22 23  1  0
 22 25  1  0
 23 24  1  0
 25 26  2  0
 26 27  1  0
 27 28  2  0
 28 29  1  0
 30 31  1  0
 30 36  2  0
 31 32  2  0
 32 33  1  0
 32 34  1  0
 34 35  2  0
 35 36  1  0
M  END
$$$$
