
     RDKit          3D

 36 40  0  0  0  0  0  0  0  0999 V2000
   -4.1156  -11.7052  -14.7288 C   0  0  0  0  0  0  0  0  0  0  0  0
   -4.8810  -12.6014  -13.7782 C   0  0  0  0  0  0  0  0  0  0  0  0
   -6.1335  -11.9706  -13.2745 C   0  0  0  0  0  0  0  0  0  0  0  0
   -6.9545  -11.5514  -14.1523 O   0  0  0  0  0  0  0  0  0  0  0  0
   -6.3709  -11.8573  -11.8948 N   0  0  0  0  0  0  0  0  0  0  0  0
   -5.6823  -12.1529  -10.6654 C   0  0  0  0  0  0  0  0  0  0  0  0
   -6.3621  -10.8728  -10.1325 C   0  0  1  0  0  0  0  0  0  0  0  0
   -7.4497  -11.3459  -11.0776 C   0  0  0  0  0  0  0  0  0  0  0  0
   -6.6434  -10.8755   -8.7441 N   0  0  0  0  0  0  0  0  0  0  0  0
   -7.1034   -9.7129   -8.0953 C   0  0  0  0  0  0  0  0  0  0  0  0
   -8.3106   -9.3777   -8.1673 O   0  0  0  0  0  0  0  0  0  0  0  0
   -6.1957   -8.8252   -7.2968 C   0  0  0  0  0  0  0  0  0  0  0  0
   -6.8724   -8.2838   -6.1351 N   0  0  0  0  0  0  0  0  0  0  0  0
   -7.5514   -9.0441   -5.2333 C   0  0  0  0  0  0  0  0  0  0  0  0
   -8.0890   -8.2478   -4.2481 C   0  0  0  0  0  0  0  0  0  0  0  0
   -8.8989   -8.6390   -3.0891 C   0  0  0  0  0  0  0  0  0  0  0  0
   -9.9082   -9.3732   -3.2148 O   0  0  0  0  0  0  0  0  0  0  0  0
   -8.5452   -8.1840   -1.7911 N   0  0  0  0  0  0  0  0  0  0  0  0
   -7.1883   -7.7520   -1.5270 C   0  0  0  0  0  0  0  0  0  0  0  0
   -6.6355   -8.5449   -0.3423 C   0  0  0  0  0  0  0  0  0  0  0  0
   -7.6143   -8.4503    0.7678 C   0  0  0  0  0  0  0  0  0  0  0  0
   -7.0580   -8.5583    2.0611 C   0  0  0  0  0  0  0  0  0  0  0  0
   -5.6959   -8.7373    2.1820 O   0  0  0  0  0  0  0  0  0  0  0  0
   -4.8683   -7.6188    2.4000 C   0  0  0  0  0  0  0  0  0  0  0  0
   -7.9307   -8.4752    3.1156 C   0  0  0  0  0  0  0  0  0  0  0  0
   -9.2847   -8.2960    2.9531 C   0  0  0  0  0  0  0  0  0  0  0  0
   -9.8005   -8.1944    1.6930 C   0  0  0  0  0  0  0  0  0  0  0  0
   -8.9491   -8.2729    0.5742 C   0  0  0  0  0  0  0  0  0  0  0  0
   -9.5455   -8.1604   -0.7708 C   0  0  0  0  0  0  0  0  0  0  0  0
   -7.7207   -6.9628   -4.5678 C   0  0  0  0  0  0  0  0  0  0  0  0
   -7.9199   -5.7255   -4.0222 C   0  0  0  0  0  0  0  0  0  0  0  0
   -7.4473   -4.5467   -4.5272 C   0  0  0  0  0  0  0  0  0  0  0  0
   -7.8047   -2.8655   -3.6606 Br  0  0  0  0  0  0  0  0  0  0  0  0
   -6.7046   -4.6019   -5.6871 C   0  0  0  0  0  0  0  0  0  0  0  0
   -6.4644   -5.8322   -6.2942 C   0  0  0  0  0  0  0  0  0  0  0  0
   -6.9646   -7.0067   -5.7455 C   0  0  0  0  0  0  0  0  0  0  0  0
  1  2  1  0
  2  3  1  0
  3  4  2  0
  3  5  1  0
  5  6  1  0
  5  8  1  0
  6  7  1  0
  7  8  1  0
  7  9  1  1
  9 10  1  0
 10 11  2  0
 10 12  1  0
 12 13  1  0
 13 14  1  0
 13 36  1  0
 14 15  2  0
 15 16  1  0
 15 30  1  0
 16 17  2  0
 16 18  1  0
 18 19  1  0
 18 29  1  0
 19 20  1  0
 20 21  1  0
 21 22  2  0
 21 28  1  0
 22 23  1  0
 22 25  1  0
 23 24  1  0
 25 26  2  0
 26 27  1  0
 27 28  2  0
 28 29  1  0
 30 31  1  0
 30 36  2  0
 31 32  2  0
 32 33  1  0
 32 34  1  0
 34 35  2  0
 35 36  1  0
M  END
$$$$
