
     RDKit          3D

 36 40  0  0  0  0  0  0  0  0999 V2000
   -8.3507  -23.7069    3.0925 C   0  0  0  0  0  0  0  0  0  0  0  0
   -7.9986  -22.3740    3.7186 C   0  0  0  0  0  0  0  0  0  0  0  0
   -7.8694  -22.4502    5.2011 C   0  0  0  0  0  0  0  0  0  0  0  0
   -7.7576  -23.6135    5.7053 O   0  0  0  0  0  0  0  0  0  0  0  0
   -7.8737  -21.2807    5.9790 N   0  0  0  0  0  0  0  0  0  0  0  0
   -8.2214  -20.8927    7.3213 C   0  0  0  0  0  0  0  0  0  0  0  0
   -7.0255  -19.9225    7.2081 C   0  0  1  0  0  0  0  0  0  0  0  0
   -7.4868  -19.9033    5.7636 C   0  0  0  0  0  0  0  0  0  0  0  0
   -7.1483  -18.7274    7.9589 N   0  0  0  0  0  0  0  0  0  0  0  0
   -6.1876  -17.7027    7.8529 C   0  0  0  0  0  0  0  0  0  0  0  0
   -5.1948  -17.8351    7.0968 O   0  0  0  0  0  0  0  0  0  0  0  0
   -6.2927  -16.4193    8.6220 C   0  0  0  0  0  0  0  0  0  0  0  0
   -4.9859  -15.8472    8.8783 N   0  0  0  0  0  0  0  0  0  0  0  0
   -4.1544  -16.2747    9.8673 C   0  0  0  0  0  0  0  0  0  0  0  0
   -2.9930  -15.5364    9.8653 C   0  0  0  0  0  0  0  0  0  0  0  0
   -1.8320  -15.6458   10.7554 C   0  0  0  0  0  0  0  0  0  0  0  0
   -1.8540  -15.1773   11.9189 O   0  0  0  0  0  0  0  0  0  0  0  0
   -0.6511  -16.2925   10.3038 N   0  0  0  0  0  0  0  0  0  0  0  0
   -0.6331  -16.9267    9.0018 C   0  0  0  0  0  0  0  0  0  0  0  0
   -0.2077  -18.3861    9.1653 C   0  0  0  0  0  0  0  0  0  0  0  0
    1.0452  -18.4112    9.9583 C   0  0  0  0  0  0  0  0  0  0  0  0
    1.8895  -19.5131    9.7004 C   0  0  0  0  0  0  0  0  0  0  0  0
    1.4931  -20.4448    8.7640 O   0  0  0  0  0  0  0  0  0  0  0  0
    0.8685  -21.6324    9.1920 C   0  0  0  0  0  0  0  0  0  0  0  0
    3.0593  -19.5727   10.4136 C   0  0  0  0  0  0  0  0  0  0  0  0
    3.4191  -18.6220   11.3401 C   0  0  0  0  0  0  0  0  0  0  0  0
    2.5869  -17.5650   11.5733 C   0  0  0  0  0  0  0  0  0  0  0  0
    1.3729  -17.4548   10.8684 C   0  0  0  0  0  0  0  0  0  0  0  0
    0.5002  -16.2987   11.1505 C   0  0  0  0  0  0  0  0  0  0  0  0
   -3.1301  -14.6326    8.8389 C   0  0  0  0  0  0  0  0  0  0  0  0
   -2.3630  -13.6328    8.3092 C   0  0  0  0  0  0  0  0  0  0  0  0
   -2.7115  -12.8344    7.2561 C   0  0  0  0  0  0  0  0  0  0  0  0
   -1.5367  -11.4540    6.6081 Br  0  0  0  0  0  0  0  0  0  0  0  0
   -3.9415  -13.0494    6.6723 C   0  0  0  0  0  0  0  0  0  0  0  0
   -4.7722  -14.0533    7.1642 C   0  0  0  0  0  0  0  0  0  0  0  0
   -4.3771  -14.8421    8.2376 C   0  0  0  0  0  0  0  0  0  0  0  0
  1  2  1  0
  2  3  1  0
  3  4  2  0
  3  5  1  0
  5  6  1  0
  5  8  1  0
  6  7  1  0
  7  8  1  0
  7  9  1  1
  9 10  1  0
 10 11  2  0
 10 12  1  0
 12 13  1  0
 13 14  1  0
 13 36  1  0
 14 15  2  0
 15 16  1  0
 15 30  1  0
 16 17  2  0
 16 18  1  0
 18 19  1  0
 18 29  1  0
 19 20  1  0
 20 21  1  0
 21 22  2  0
 21 28  1  0
 22 23  1  0
 22 25  1  0
 23 24  1  0
 25 26  2  0
 26 27  1  0
 27 28  2  0
 28 29  1  0
 30 31  1  0
 30 36  2  0
 31 32  2  0
 32 33  1  0
 32 34  1  0
 34 35  2  0
 35 36  1  0
M  END
$$$$
