
     RDKit          3D

 36 40  0  0  0  0  0  0  0  0999 V2000
    9.7200  -21.6599    4.9204 C   0  0  0  0  0  0  0  0  0  0  0  0
    8.6355  -21.6605    5.9770 C   0  0  0  0  0  0  0  0  0  0  0  0
    7.2642  -21.6259    5.3950 C   0  0  0  0  0  0  0  0  0  0  0  0
    6.9420  -22.5951    4.6353 O   0  0  0  0  0  0  0  0  0  0  0  0
    6.3913  -20.5650    5.6869 N   0  0  0  0  0  0  0  0  0  0  0  0
    5.0434  -20.1728    5.3672 C   0  0  0  0  0  0  0  0  0  0  0  0
    5.0044  -19.6198    6.8085 C   0  0  1  0  0  0  0  0  0  0  0  0
    6.4663  -19.3668    6.4944 C   0  0  0  0  0  0  0  0  0  0  0  0
    4.1631  -18.4958    6.9980 N   0  0  0  0  0  0  0  0  0  0  0  0
    2.7621  -18.6372    7.0364 C   0  0  0  0  0  0  0  0  0  0  0  0
    2.2273  -19.4865    7.7896 O   0  0  0  0  0  0  0  0  0  0  0  0
    1.8460  -17.7979    6.1962 C   0  0  0  0  0  0  0  0  0  0  0  0
    0.6232  -17.4770    6.9051 N   0  0  0  0  0  0  0  0  0  0  0  0
   -0.4334  -18.3280    7.0130 C   0  0  0  0  0  0  0  0  0  0  0  0
   -1.4461  -17.7406    7.7363 C   0  0  0  0  0  0  0  0  0  0  0  0
   -2.7619  -18.2861    8.0872 C   0  0  0  0  0  0  0  0  0  0  0  0
   -2.9108  -19.4971    8.3788 O   0  0  0  0  0  0  0  0  0  0  0  0
   -3.9004  -17.4374    8.1008 N   0  0  0  0  0  0  0  0  0  0  0  0
   -4.9817  -17.7018    9.0274 C   0  0  0  0  0  0  0  0  0  0  0  0
   -6.2889  -17.8257    8.2441 C   0  0  0  0  0  0  0  0  0  0  0  0
   -6.4116  -16.6356    7.3677 C   0  0  0  0  0  0  0  0  0  0  0  0
   -7.7370  -16.2571    7.0620 C   0  0  0  0  0  0  0  0  0  0  0  0
   -8.7742  -17.0003    7.5852 O   0  0  0  0  0  0  0  0  0  0  0  0
   -9.4611  -17.9081    6.7560 C   0  0  0  0  0  0  0  0  0  0  0  0
   -7.8932  -15.1601    6.2540 C   0  0  0  0  0  0  0  0  0  0  0  0
   -6.8315  -14.4445    5.7516 C   0  0  0  0  0  0  0  0  0  0  0  0
   -5.5583  -14.8290    6.0604 C   0  0  0  0  0  0  0  0  0  0  0  0
   -5.3407  -15.9486    6.8863 C   0  0  0  0  0  0  0  0  0  0  0  0
   -3.9499  -16.3330    7.1952 C   0  0  0  0  0  0  0  0  0  0  0  0
   -0.9829  -16.4919    8.0759 C   0  0  0  0  0  0  0  0  0  0  0  0
   -1.4756  -15.4236    8.7720 C   0  0  0  0  0  0  0  0  0  0  0  0
   -0.8199  -14.2445    8.9906 C   0  0  0  0  0  0  0  0  0  0  0  0
   -1.6315  -12.8118    9.9877 Br  0  0  0  0  0  0  0  0  0  0  0  0
    0.4483  -14.1132    8.4668 C   0  0  0  0  0  0  0  0  0  0  0  0
    1.0093  -15.1652    7.7468 C   0  0  0  0  0  0  0  0  0  0  0  0
    0.3063  -16.3473    7.5489 C   0  0  0  0  0  0  0  0  0  0  0  0
  1  2  1  0
  2  3  1  0
  3  4  2  0
  3  5  1  0
  5  6  1  0
  5  8  1  0
  6  7  1  0
  7  8  1  0
  7  9  1  6
  9 10  1  0
 10 11  2  0
 10 12  1  0
 12 13  1  0
 13 14  1  0
 13 36  1  0
 14 15  2  0
 15 16  1  0
 15 30  1  0
 16 17  2  0
 16 18  1  0
 18 19  1  0
 18 29  1  0
 19 20  1  0
 20 21  1  0
 21 22  2  0
 21 28  1  0
 22 23  1  0
 22 25  1  0
 23 24  1  0
 25 26  2  0
 26 27  1  0
 27 28  2  0
 28 29  1  0
 30 31  1  0
 30 36  2  0
 31 32  2  0
 32 33  1  0
 32 34  1  0
 34 35  2  0
 35 36  1  0
M  END
$$$$
