
     RDKit          3D

 36 40  0  0  0  0  0  0  0  0999 V2000
   -6.7924  -16.9949   -9.0133 C   0  0  0  0  0  0  0  0  0  0  0  0
   -6.9289  -15.4871   -9.0317 C   0  0  0  0  0  0  0  0  0  0  0  0
   -7.9149  -15.0103  -10.0420 C   0  0  0  0  0  0  0  0  0  0  0  0
   -8.1763  -15.8031  -11.0029 O   0  0  0  0  0  0  0  0  0  0  0  0
   -8.5111  -13.7448   -9.9157 N   0  0  0  0  0  0  0  0  0  0  0  0
   -9.5692  -12.9959  -10.5423 C   0  0  0  0  0  0  0  0  0  0  0  0
   -9.8319  -12.4380   -9.1266 C   0  0  1  0  0  0  0  0  0  0  0  0
   -8.3271  -12.6061   -9.0422 C   0  0  0  0  0  0  0  0  0  0  0  0
  -10.3549  -11.1219   -9.0871 N   0  0  0  0  0  0  0  0  0  0  0  0
   -9.8291  -10.1592   -8.2034 C   0  0  0  0  0  0  0  0  0  0  0  0
   -9.4009  -10.4973   -7.0733 O   0  0  0  0  0  0  0  0  0  0  0  0
   -9.7518   -8.7030   -8.5542 C   0  0  0  0  0  0  0  0  0  0  0  0
   -9.5445   -7.8848   -7.3759 N   0  0  0  0  0  0  0  0  0  0  0  0
  -10.5558   -7.4018   -6.6037 C   0  0  0  0  0  0  0  0  0  0  0  0
  -10.0471   -6.6572   -5.5642 C   0  0  0  0  0  0  0  0  0  0  0  0
  -10.7683   -5.9478   -4.5017 C   0  0  0  0  0  0  0  0  0  0  0  0
  -11.7212   -5.1746   -4.7622 O   0  0  0  0  0  0  0  0  0  0  0  0
  -10.3906   -6.1300   -3.1449 N   0  0  0  0  0  0  0  0  0  0  0  0
   -9.4868   -7.2045   -2.7896 C   0  0  0  0  0  0  0  0  0  0  0  0
  -10.1413   -8.0693   -1.7120 C   0  0  0  0  0  0  0  0  0  0  0  0
  -10.6033   -7.1730   -0.6245 C   0  0  0  0  0  0  0  0  0  0  0  0
  -10.6519   -7.7679    0.6552 C   0  0  0  0  0  0  0  0  0  0  0  0
  -10.2790   -9.0893    0.7846 O   0  0  0  0  0  0  0  0  0  0  0  0
  -11.1808  -10.0095    1.3533 C   0  0  0  0  0  0  0  0  0  0  0  0
  -11.0738   -6.9714    1.6887 C   0  0  0  0  0  0  0  0  0  0  0  0
  -11.4376   -5.6560    1.5183 C   0  0  0  0  0  0  0  0  0  0  0  0
  -11.3829   -5.1018    0.2717 C   0  0  0  0  0  0  0  0  0  0  0  0
  -10.9567   -5.8749   -0.8253 C   0  0  0  0  0  0  0  0  0  0  0  0
  -10.9132   -5.2398   -2.1567 C   0  0  0  0  0  0  0  0  0  0  0  0
   -8.6815   -6.6931   -5.7158 C   0  0  0  0  0  0  0  0  0  0  0  0
   -7.6104   -6.1731   -5.0444 C   0  0  0  0  0  0  0  0  0  0  0  0
   -6.2979   -6.3412   -5.3864 C   0  0  0  0  0  0  0  0  0  0  0  0
   -4.8797   -5.5481   -4.3544 Br  0  0  0  0  0  0  0  0  0  0  0  0
   -6.0220   -7.0993   -6.5041 C   0  0  0  0  0  0  0  0  0  0  0  0
   -7.0685   -7.6584   -7.2335 C   0  0  0  0  0  0  0  0  0  0  0  0
   -8.3892   -7.4617   -6.8491 C   0  0  0  0  0  0  0  0  0  0  0  0
  1  2  1  0
  2  3  1  0
  3  4  2  0
  3  5  1  0
  5  6  1  0
  5  8  1  0
  6  7  1  0
  7  8  1  0
  7  9  1  6
  9 10  1  0
 10 11  2  0
 10 12  1  0
 12 13  1  0
 13 14  1  0
 13 36  1  0
 14 15  2  0
 15 16  1  0
 15 30  1  0
 16 17  2  0
 16 18  1  0
 18 19  1  0
 18 29  1  0
 19 20  1  0
 20 21  1  0
 21 22  2  0
 21 28  1  0
 22 23  1  0
 22 25  1  0
 23 24  1  0
 25 26  2  0
 26 27  1  0
 27 28  2  0
 28 29  1  0
 30 31  1  0
 30 36  2  0
 31 32  2  0
 32 33  1  0
 32 34  1  0
 34 35  2  0
 35 36  1  0
M  END
$$$$
