
     RDKit          3D

 36 40  0  0  0  0  0  0  0  0999 V2000
   -2.4294  -10.5196  -10.7132 C   0  0  0  0  0  0  0  0  0  0  0  0
   -3.7871  -10.1233  -11.2537 C   0  0  0  0  0  0  0  0  0  0  0  0
   -4.7967  -11.2123  -11.1297 C   0  0  0  0  0  0  0  0  0  0  0  0
   -4.5490  -12.2940  -11.7531 O   0  0  0  0  0  0  0  0  0  0  0  0
   -5.9547  -11.0274  -10.3567 N   0  0  0  0  0  0  0  0  0  0  0  0
   -7.1229  -11.7832   -9.9863 C   0  0  0  0  0  0  0  0  0  0  0  0
   -7.0009  -11.0543   -8.6304 C   0  0  1  0  0  0  0  0  0  0  0  0
   -6.4833   -9.9566   -9.5398 C   0  0  0  0  0  0  0  0  0  0  0  0
   -8.2264  -10.8326   -7.9552 N   0  0  0  0  0  0  0  0  0  0  0  0
   -8.4072   -9.7030   -7.1333 C   0  0  0  0  0  0  0  0  0  0  0  0
   -7.4180   -9.0536   -6.7154 O   0  0  0  0  0  0  0  0  0  0  0  0
   -9.7649   -9.2200   -6.7178 C   0  0  0  0  0  0  0  0  0  0  0  0
   -9.6792   -8.2842   -5.6143 N   0  0  0  0  0  0  0  0  0  0  0  0
   -9.5350   -8.6600   -4.3142 C   0  0  0  0  0  0  0  0  0  0  0  0
   -9.4903   -7.5513   -3.5002 C   0  0  0  0  0  0  0  0  0  0  0  0
   -9.3541   -7.4863   -2.0410 C   0  0  0  0  0  0  0  0  0  0  0  0
  -10.2754   -7.0370   -1.3178 O   0  0  0  0  0  0  0  0  0  0  0  0
   -8.1594   -7.9377   -1.4198 N   0  0  0  0  0  0  0  0  0  0  0  0
   -7.2326   -8.7660   -2.1633 C   0  0  0  0  0  0  0  0  0  0  0  0
   -6.9777  -10.0538   -1.3797 C   0  0  0  0  0  0  0  0  0  0  0  0
   -6.6045   -9.6799    0.0060 C   0  0  0  0  0  0  0  0  0  0  0  0
   -5.7701  -10.6072    0.6673 C   0  0  0  0  0  0  0  0  0  0  0  0
   -5.3838  -11.7468   -0.0065 O   0  0  0  0  0  0  0  0  0  0  0  0
   -5.8347  -13.0026    0.4441 C   0  0  0  0  0  0  0  0  0  0  0  0
   -5.4017  -10.2974    1.9514 C   0  0  0  0  0  0  0  0  0  0  0  0
   -5.8087   -9.1489    2.5894 C   0  0  0  0  0  0  0  0  0  0  0  0
   -6.6157   -8.2665    1.9304 C   0  0  0  0  0  0  0  0  0  0  0  0
   -7.0240   -8.5353    0.6099 C   0  0  0  0  0  0  0  0  0  0  0  0
   -7.8977   -7.5577   -0.0673 C   0  0  0  0  0  0  0  0  0  0  0  0
   -9.6119   -6.4699   -4.3398 C   0  0  0  0  0  0  0  0  0  0  0  0
   -9.6437   -5.1121   -4.1850 C   0  0  0  0  0  0  0  0  0  0  0  0
   -9.7785   -4.1985   -5.1925 C   0  0  0  0  0  0  0  0  0  0  0  0
   -9.8133   -2.3069   -4.8374 Br  0  0  0  0  0  0  0  0  0  0  0  0
   -9.8930   -4.6799   -6.4790 C   0  0  0  0  0  0  0  0  0  0  0  0
   -9.8677   -6.0538   -6.7059 C   0  0  0  0  0  0  0  0  0  0  0  0
   -9.7287   -6.9473   -5.6509 C   0  0  0  0  0  0  0  0  0  0  0  0
  1  2  1  0
  2  3  1  0
  3  4  2  0
  3  5  1  0
  5  6  1  0
  5  8  1  0
  6  7  1  0
  7  8  1  0
  7  9  1  6
  9 10  1  0
 10 11  2  0
 10 12  1  0
 12 13  1  0
 13 14  1  0
 13 36  1  0
 14 15  2  0
 15 16  1  0
 15 30  1  0
 16 17  2  0
 16 18  1  0
 18 19  1  0
 18 29  1  0
 19 20  1  0
 20 21  1  0
 21 22  2  0
 21 28  1  0
 22 23  1  0
 22 25  1  0
 23 24  1  0
 25 26  2  0
 26 27  1  0
 27 28  2  0
 28 29  1  0
 30 31  1  0
 30 36  2  0
 31 32  2  0
 32 33  1  0
 32 34  1  0
 34 35  2  0
 35 36  1  0
M  END
$$$$
