
     RDKit          3D

 36 40  0  0  0  0  0  0  0  0999 V2000
   -7.8446  -11.6036  -14.5513 C   0  0  0  0  0  0  0  0  0  0  0  0
   -7.6401  -11.7135  -13.0550 C   0  0  0  0  0  0  0  0  0  0  0  0
   -6.3442  -11.1306  -12.6064 C   0  0  0  0  0  0  0  0  0  0  0  0
   -5.4484  -10.9771  -13.4976 O   0  0  0  0  0  0  0  0  0  0  0  0
   -6.1481  -10.7770  -11.2614 N   0  0  0  0  0  0  0  0  0  0  0  0
   -5.3249   -9.8694  -10.5053 C   0  0  0  0  0  0  0  0  0  0  0  0
   -6.5595   -9.7232   -9.5894 C   0  0  1  0  0  0  0  0  0  0  0  0
   -6.7362  -11.1724  -10.0000 C   0  0  0  0  0  0  0  0  0  0  0  0
   -6.2699   -9.4502   -8.2298 N   0  0  0  0  0  0  0  0  0  0  0  0
   -7.3040   -9.2522   -7.2940 C   0  0  0  0  0  0  0  0  0  0  0  0
   -8.4064   -8.7724   -7.6537 O   0  0  0  0  0  0  0  0  0  0  0  0
   -7.1513   -9.5961   -5.8422 C   0  0  0  0  0  0  0  0  0  0  0  0
   -7.8028   -8.6172   -4.9948 N   0  0  0  0  0  0  0  0  0  0  0  0
   -8.4315   -7.5068   -5.4681 C   0  0  0  0  0  0  0  0  0  0  0  0
   -8.9457   -6.7700   -4.4258 C   0  0  0  0  0  0  0  0  0  0  0  0
   -9.6868   -5.5048   -4.4714 C   0  0  0  0  0  0  0  0  0  0  0  0
   -9.4059   -4.6125   -5.3072 O   0  0  0  0  0  0  0  0  0  0  0  0
  -10.7468   -5.2708   -3.5557 N   0  0  0  0  0  0  0  0  0  0  0  0
  -11.3567   -6.3872   -2.8634 C   0  0  0  0  0  0  0  0  0  0  0  0
  -12.8645   -6.3651   -3.1157 C   0  0  0  0  0  0  0  0  0  0  0  0
  -13.3618   -5.0050   -2.7964 C   0  0  0  0  0  0  0  0  0  0  0  0
  -14.7083   -4.9485   -2.3751 C   0  0  0  0  0  0  0  0  0  0  0  0
  -15.4268   -6.1231   -2.2982 O   0  0  0  0  0  0  0  0  0  0  0  0
  -16.6306   -6.2456   -3.0190 C   0  0  0  0  0  0  0  0  0  0  0  0
  -15.2063   -3.7078   -2.0696 C   0  0  0  0  0  0  0  0  0  0  0  0
  -14.4562   -2.5584   -2.1593 C   0  0  0  0  0  0  0  0  0  0  0  0
  -13.1562   -2.6370   -2.5692 C   0  0  0  0  0  0  0  0  0  0  0  0
  -12.5942   -3.8863   -2.8954 C   0  0  0  0  0  0  0  0  0  0  0  0
  -11.1865   -3.9289   -3.3360 C   0  0  0  0  0  0  0  0  0  0  0  0
   -8.6150   -7.4611   -3.2847 C   0  0  0  0  0  0  0  0  0  0  0  0
   -8.8146   -7.2849   -1.9439 C   0  0  0  0  0  0  0  0  0  0  0  0
   -8.3816   -8.1254   -0.9569 C   0  0  0  0  0  0  0  0  0  0  0  0
   -8.7264   -7.7576    0.9008 Br  0  0  0  0  0  0  0  0  0  0  0  0
   -7.6822   -9.2503   -1.3384 C   0  0  0  0  0  0  0  0  0  0  0  0
   -7.4447   -9.4892   -2.6898 C   0  0  0  0  0  0  0  0  0  0  0  0
   -7.9038   -8.6073   -3.6603 C   0  0  0  0  0  0  0  0  0  0  0  0
  1  2  1  0
  2  3  1  0
  3  4  2  0
  3  5  1  0
  5  6  1  0
  5  8  1  0
  6  7  1  0
  7  8  1  0
  7  9  1  1
  9 10  1  0
 10 11  2  0
 10 12  1  0
 12 13  1  0
 13 14  1  0
 13 36  1  0
 14 15  2  0
 15 16  1  0
 15 30  1  0
 16 17  2  0
 16 18  1  0
 18 19  1  0
 18 29  1  0
 19 20  1  0
 20 21  1  0
 21 22  2  0
 21 28  1  0
 22 23  1  0
 22 25  1  0
 23 24  1  0
 25 26  2  0
 26 27  1  0
 27 28  2  0
 28 29  1  0
 30 31  1  0
 30 36  2  0
 31 32  2  0
 32 33  1  0
 32 34  1  0
 34 35  2  0
 35 36  1  0
M  END
$$$$
