
     RDKit          3D

 36 40  0  0  0  0  0  0  0  0999 V2000
   -3.9537  -13.5468  -13.3964 C   0  0  0  0  0  0  0  0  0  0  0  0
   -4.4973  -13.0397  -12.0773 C   0  0  0  0  0  0  0  0  0  0  0  0
   -5.5522  -12.0015  -12.2501 C   0  0  0  0  0  0  0  0  0  0  0  0
   -5.3539  -11.1318  -13.1582 O   0  0  0  0  0  0  0  0  0  0  0  0
   -6.6981  -12.0061  -11.4379 N   0  0  0  0  0  0  0  0  0  0  0  0
   -7.1317  -12.6144  -10.2071 C   0  0  0  0  0  0  0  0  0  0  0  0
   -7.8752  -11.2826   -9.9662 C   0  0  1  0  0  0  0  0  0  0  0  0
   -7.9865  -11.3490  -11.4771 C   0  0  0  0  0  0  0  0  0  0  0  0
   -9.0675  -11.3887   -9.2085 N   0  0  0  0  0  0  0  0  0  0  0  0
   -9.2591  -10.6160   -8.0464 C   0  0  0  0  0  0  0  0  0  0  0  0
   -8.3595   -9.8411   -7.6403 O   0  0  0  0  0  0  0  0  0  0  0  0
  -10.5240  -10.6730   -7.2425 C   0  0  0  0  0  0  0  0  0  0  0  0
  -10.3755   -9.9902   -5.9726 N   0  0  0  0  0  0  0  0  0  0  0  0
   -9.3159   -9.1946   -5.6617 C   0  0  0  0  0  0  0  0  0  0  0  0
   -9.4543   -8.6939   -4.3874 C   0  0  0  0  0  0  0  0  0  0  0  0
   -8.5517   -7.8077   -3.6443 C   0  0  0  0  0  0  0  0  0  0  0  0
   -8.1715   -8.0875   -2.4820 O   0  0  0  0  0  0  0  0  0  0  0  0
   -8.0908   -6.6039   -4.2403 N   0  0  0  0  0  0  0  0  0  0  0  0
   -7.0749   -5.8160   -3.5734 C   0  0  0  0  0  0  0  0  0  0  0  0
   -7.5917   -4.3885   -3.3925 C   0  0  0  0  0  0  0  0  0  0  0  0
   -8.0788   -3.9083   -4.7084 C   0  0  0  0  0  0  0  0  0  0  0  0
   -8.0078   -2.5104   -4.8941 C   0  0  0  0  0  0  0  0  0  0  0  0
   -7.5085   -1.7321   -3.8710 O   0  0  0  0  0  0  0  0  0  0  0  0
   -8.3995   -1.1396   -2.9552 C   0  0  0  0  0  0  0  0  0  0  0  0
   -8.4485   -2.0262   -6.0991 C   0  0  0  0  0  0  0  0  0  0  0  0
   -8.9403   -2.8367   -7.0956 C   0  0  0  0  0  0  0  0  0  0  0  0
   -8.9998   -4.1857   -6.8938 C   0  0  0  0  0  0  0  0  0  0  0  0
   -8.5602   -4.7362   -5.6745 C   0  0  0  0  0  0  0  0  0  0  0  0
   -8.6427   -6.1985   -5.4946 C   0  0  0  0  0  0  0  0  0  0  0  0
  -10.6389   -9.2060   -3.9144 C   0  0  0  0  0  0  0  0  0  0  0  0
  -11.3488   -9.1096   -2.7502 C   0  0  0  0  0  0  0  0  0  0  0  0
  -12.5404   -9.7264   -2.4906 C   0  0  0  0  0  0  0  0  0  0  0  0
  -13.4380   -9.5107   -0.8014 Br  0  0  0  0  0  0  0  0  0  0  0  0
  -13.0796  -10.5160   -3.4835 C   0  0  0  0  0  0  0  0  0  0  0  0
  -12.4064  -10.6564   -4.6946 C   0  0  0  0  0  0  0  0  0  0  0  0
  -11.1964  -10.0103   -4.9158 C   0  0  0  0  0  0  0  0  0  0  0  0
  1  2  1  0
  2  3  1  0
  3  4  2  0
  3  5  1  0
  5  6  1  0
  5  8  1  0
  6  7  1  0
  7  8  1  0
  7  9  1  1
  9 10  1  0
 10 11  2  0
 10 12  1  0
 12 13  1  0
 13 14  1  0
 13 36  1  0
 14 15  2  0
 15 16  1  0
 15 30  1  0
 16 17  2  0
 16 18  1  0
 18 19  1  0
 18 29  1  0
 19 20  1  0
 20 21  1  0
 21 22  2  0
 21 28  1  0
 22 23  1  0
 22 25  1  0
 23 24  1  0
 25 26  2  0
 26 27  1  0
 27 28  2  0
 28 29  1  0
 30 31  1  0
 30 36  2  0
 31 32  2  0
 32 33  1  0
 32 34  1  0
 34 35  2  0
 35 36  1  0
M  END
$$$$
