
     RDKit          3D

 36 40  0  0  0  0  0  0  0  0999 V2000
  -10.0649  -10.2659  -16.2037 C   0  0  0  0  0  0  0  0  0  0  0  0
  -11.1168   -9.5967  -15.3445 C   0  0  0  0  0  0  0  0  0  0  0  0
  -11.7649  -10.5389  -14.3891 C   0  0  0  0  0  0  0  0  0  0  0  0
  -12.8671  -11.0578  -14.7582 O   0  0  0  0  0  0  0  0  0  0  0  0
  -11.1675  -10.8223  -13.1500 N   0  0  0  0  0  0  0  0  0  0  0  0
  -10.0560  -10.3478  -12.3673 C   0  0  0  0  0  0  0  0  0  0  0  0
  -10.9665  -10.6245  -11.1511 C   0  0  1  0  0  0  0  0  0  0  0  0
  -11.4414  -11.7384  -12.0641 C   0  0  0  0  0  0  0  0  0  0  0  0
  -10.2868  -10.9866   -9.9620 N   0  0  0  0  0  0  0  0  0  0  0  0
   -9.8269  -10.0051   -9.0624 C   0  0  0  0  0  0  0  0  0  0  0  0
  -10.3344   -8.8574   -9.0565 O   0  0  0  0  0  0  0  0  0  0  0  0
   -8.7258  -10.2688   -8.0787 C   0  0  0  0  0  0  0  0  0  0  0  0
   -8.6396   -9.2163   -7.0859 N   0  0  0  0  0  0  0  0  0  0  0  0
   -9.6782   -8.8405   -6.2906 C   0  0  0  0  0  0  0  0  0  0  0  0
   -9.2930   -7.8155   -5.4571 C   0  0  0  0  0  0  0  0  0  0  0  0
  -10.0856   -7.1020   -4.4497 C   0  0  0  0  0  0  0  0  0  0  0  0
  -11.2853   -6.7992   -4.6562 O   0  0  0  0  0  0  0  0  0  0  0  0
   -9.4954   -6.7394   -3.2100 N   0  0  0  0  0  0  0  0  0  0  0  0
   -8.2397   -7.3400   -2.8099 C   0  0  0  0  0  0  0  0  0  0  0  0
   -8.4118   -7.9822   -1.4331 C   0  0  0  0  0  0  0  0  0  0  0  0
   -9.0078   -6.9701   -0.5277 C   0  0  0  0  0  0  0  0  0  0  0  0
   -8.6826   -7.1291    0.8371 C   0  0  0  0  0  0  0  0  0  0  0  0
   -7.8654   -8.1776    1.2042 O   0  0  0  0  0  0  0  0  0  0  0  0
   -6.8994   -7.9816    2.2101 C   0  0  0  0  0  0  0  0  0  0  0  0
   -9.2141   -6.2123    1.7075 C   0  0  0  0  0  0  0  0  0  0  0  0
  -10.0261   -5.1792    1.3012 C   0  0  0  0  0  0  0  0  0  0  0  0
  -10.3274   -5.0450   -0.0237 C   0  0  0  0  0  0  0  0  0  0  0  0
   -9.8082   -5.9590   -0.9607 C   0  0  0  0  0  0  0  0  0  0  0  0
  -10.1586   -5.7809   -2.3831 C   0  0  0  0  0  0  0  0  0  0  0  0
   -7.9762   -7.5654   -5.7611 C   0  0  0  0  0  0  0  0  0  0  0  0
   -7.0196   -6.6956   -5.3171 C   0  0  0  0  0  0  0  0  0  0  0  0
   -5.7357   -6.6200   -5.7793 C   0  0  0  0  0  0  0  0  0  0  0  0
   -4.4843   -5.3414   -5.0689 Br  0  0  0  0  0  0  0  0  0  0  0  0
   -5.3654   -7.4927   -6.7800 C   0  0  0  0  0  0  0  0  0  0  0  0
   -6.2929   -8.4051   -7.2771 C   0  0  0  0  0  0  0  0  0  0  0  0
   -7.5886   -8.4473   -6.7773 C   0  0  0  0  0  0  0  0  0  0  0  0
  1  2  1  0
  2  3  1  0
  3  4  2  0
  3  5  1  0
  5  6  1  0
  5  8  1  0
  6  7  1  0
  7  8  1  0
  7  9  1  1
  9 10  1  0
 10 11  2  0
 10 12  1  0
 12 13  1  0
 13 14  1  0
 13 36  1  0
 14 15  2  0
 15 16  1  0
 15 30  1  0
 16 17  2  0
 16 18  1  0
 18 19  1  0
 18 29  1  0
 19 20  1  0
 20 21  1  0
 21 22  2  0
 21 28  1  0
 22 23  1  0
 22 25  1  0
 23 24  1  0
 25 26  2  0
 26 27  1  0
 27 28  2  0
 28 29  1  0
 30 31  1  0
 30 36  2  0
 31 32  2  0
 32 33  1  0
 32 34  1  0
 34 35  2  0
 35 36  1  0
M  END
$$$$
