
     RDKit          3D

 36 40  0  0  0  0  0  0  0  0999 V2000
    6.7336  -21.4510    4.7681 C   0  0  0  0  0  0  0  0  0  0  0  0
    5.3322  -21.1621    5.2632 C   0  0  0  0  0  0  0  0  0  0  0  0
    5.0518  -19.7033    5.3798 C   0  0  0  0  0  0  0  0  0  0  0  0
    5.4233  -18.9711    4.4071 O   0  0  0  0  0  0  0  0  0  0  0  0
    4.4082  -19.1888    6.5172 N   0  0  0  0  0  0  0  0  0  0  0  0
    3.8871  -17.9248    6.9688 C   0  0  0  0  0  0  0  0  0  0  0  0
    2.7865  -18.7713    7.6446 C   0  0  1  0  0  0  0  0  0  0  0  0
    3.9462  -19.7401    7.7726 C   0  0  0  0  0  0  0  0  0  0  0  0
    2.2496  -18.2195    8.8338 N   0  0  0  0  0  0  0  0  0  0  0  0
    0.8695  -17.9656    8.9564 C   0  0  0  0  0  0  0  0  0  0  0  0
    0.0667  -18.3677    8.0796 O   0  0  0  0  0  0  0  0  0  0  0  0
    0.2902  -17.2148   10.1184 C   0  0  0  0  0  0  0  0  0  0  0  0
   -0.8308  -16.3913    9.7109 N   0  0  0  0  0  0  0  0  0  0  0  0
   -2.1321  -16.7678    9.8413 C   0  0  0  0  0  0  0  0  0  0  0  0
   -2.9635  -15.7815    9.3620 C   0  0  0  0  0  0  0  0  0  0  0  0
   -4.4290  -15.7651    9.2969 C   0  0  0  0  0  0  0  0  0  0  0  0
   -5.1168  -15.2150   10.1902 O   0  0  0  0  0  0  0  0  0  0  0  0
   -5.0970  -16.3814    8.2057 N   0  0  0  0  0  0  0  0  0  0  0  0
   -6.5343  -16.2541    8.0796 C   0  0  0  0  0  0  0  0  0  0  0  0
   -7.1511  -17.6500    7.9879 C   0  0  0  0  0  0  0  0  0  0  0  0
   -6.4328  -18.3988    6.9284 C   0  0  0  0  0  0  0  0  0  0  0  0
   -7.1955  -19.3987    6.2865 C   0  0  0  0  0  0  0  0  0  0  0  0
   -8.5019  -19.5912    6.6843 O   0  0  0  0  0  0  0  0  0  0  0  0
   -9.5449  -19.3640    5.7656 C   0  0  0  0  0  0  0  0  0  0  0  0
   -6.5670  -20.1139    5.2994 C   0  0  0  0  0  0  0  0  0  0  0  0
   -5.2606  -19.8911    4.9313 C   0  0  0  0  0  0  0  0  0  0  0  0
   -4.5421  -18.9190    5.5660 C   0  0  0  0  0  0  0  0  0  0  0  0
   -5.1388  -18.1546    6.5871 C   0  0  0  0  0  0  0  0  0  0  0  0
   -4.3283  -17.1147    7.2500 C   0  0  0  0  0  0  0  0  0  0  0  0
   -2.1336  -14.7757    8.9277 C   0  0  0  0  0  0  0  0  0  0  0  0
   -2.3058  -13.5458    8.3566 C   0  0  0  0  0  0  0  0  0  0  0  0
   -1.3048  -12.6887    7.9941 C   0  0  0  0  0  0  0  0  0  0  0  0
   -1.6841  -10.9807    7.1915 Br  0  0  0  0  0  0  0  0  0  0  0  0
   -0.0063  -13.0923    8.2205 C   0  0  0  0  0  0  0  0  0  0  0  0
    0.2384  -14.3349    8.7999 C   0  0  0  0  0  0  0  0  0  0  0  0
   -0.8105  -15.1748    9.1533 C   0  0  0  0  0  0  0  0  0  0  0  0
  1  2  1  0
  2  3  1  0
  3  4  2  0
  3  5  1  0
  5  6  1  0
  5  8  1  0
  6  7  1  0
  7  8  1  0
  7  9  1  1
  9 10  1  0
 10 11  2  0
 10 12  1  0
 12 13  1  0
 13 14  1  0
 13 36  1  0
 14 15  2  0
 15 16  1  0
 15 30  1  0
 16 17  2  0
 16 18  1  0
 18 19  1  0
 18 29  1  0
 19 20  1  0
 20 21  1  0
 21 22  2  0
 21 28  1  0
 22 23  1  0
 22 25  1  0
 23 24  1  0
 25 26  2  0
 26 27  1  0
 27 28  2  0
 28 29  1  0
 30 31  1  0
 30 36  2  0
 31 32  2  0
 32 33  1  0
 32 34  1  0
 34 35  2  0
 35 36  1  0
M  END
$$$$
