
     RDKit          3D

 36 40  0  0  0  0  0  0  0  0999 V2000
   -9.1454  -25.1816   12.9828 C   0  0  0  0  0  0  0  0  0  0  0  0
   -9.2245  -24.1607   11.8674 C   0  0  0  0  0  0  0  0  0  0  0  0
  -10.0301  -22.9633   12.2386 C   0  0  0  0  0  0  0  0  0  0  0  0
  -10.8830  -23.1159   13.1711 O   0  0  0  0  0  0  0  0  0  0  0  0
   -9.8371  -21.7399   11.5764 N   0  0  0  0  0  0  0  0  0  0  0  0
  -10.2601  -20.3709   11.7181 C   0  0  0  0  0  0  0  0  0  0  0  0
   -8.8466  -20.0207   11.2044 C   0  0  1  0  0  0  0  0  0  0  0  0
   -9.0724  -21.3038   10.4282 C   0  0  0  0  0  0  0  0  0  0  0  0
   -8.7560  -18.8108   10.4729 N   0  0  0  0  0  0  0  0  0  0  0  0
   -7.6451  -18.5433    9.6492 C   0  0  0  0  0  0  0  0  0  0  0  0
   -6.4787  -18.6261   10.1047 O   0  0  0  0  0  0  0  0  0  0  0  0
   -7.7883  -18.1516    8.2085 C   0  0  0  0  0  0  0  0  0  0  0  0
   -6.7275  -17.2542    7.7959 N   0  0  0  0  0  0  0  0  0  0  0  0
   -6.8980  -15.9165    7.6118 C   0  0  0  0  0  0  0  0  0  0  0  0
   -5.7148  -15.3357    7.2160 C   0  0  0  0  0  0  0  0  0  0  0  0
   -5.4411  -13.9297    6.8993 C   0  0  0  0  0  0  0  0  0  0  0  0
   -6.0132  -13.3515    5.9443 O   0  0  0  0  0  0  0  0  0  0  0  0
   -4.5108  -13.1951    7.6813 N   0  0  0  0  0  0  0  0  0  0  0  0
   -4.0932  -11.8771    7.2498 C   0  0  0  0  0  0  0  0  0  0  0  0
   -2.5674  -11.8438    7.1584 C   0  0  0  0  0  0  0  0  0  0  0  0
   -2.0213  -12.3513    8.4404 C   0  0  0  0  0  0  0  0  0  0  0  0
   -0.7499  -11.8442    8.7868 C   0  0  0  0  0  0  0  0  0  0  0  0
   -0.1402  -10.9490    7.9331 O   0  0  0  0  0  0  0  0  0  0  0  0
    1.0146  -11.3420    7.2291 C   0  0  0  0  0  0  0  0  0  0  0  0
   -0.2101  -12.2889    9.9664 C   0  0  0  0  0  0  0  0  0  0  0  0
   -0.8510  -13.1836   10.7913 C   0  0  0  0  0  0  0  0  0  0  0  0
   -2.0799  -13.6609   10.4361 C   0  0  0  0  0  0  0  0  0  0  0  0
   -2.6805  -13.2372    9.2350 C   0  0  0  0  0  0  0  0  0  0  0  0
   -4.0085  -13.7775    8.8857 C   0  0  0  0  0  0  0  0  0  0  0  0
   -4.7997  -16.3597    7.1599 C   0  0  0  0  0  0  0  0  0  0  0  0
   -3.4743  -16.4686    6.8440 C   0  0  0  0  0  0  0  0  0  0  0  0
   -2.7452  -17.6246    6.8550 C   0  0  0  0  0  0  0  0  0  0  0  0
   -0.8792  -17.6418    6.3824 Br  0  0  0  0  0  0  0  0  0  0  0  0
   -3.3956  -18.7855    7.2145 C   0  0  0  0  0  0  0  0  0  0  0  0
   -4.7470  -18.7436    7.5485 C   0  0  0  0  0  0  0  0  0  0  0  0
   -5.4498  -17.5453    7.5239 C   0  0  0  0  0  0  0  0  0  0  0  0
  1  2  1  0
  2  3  1  0
  3  4  2  0
  3  5  1  0
  5  6  1  0
  5  8  1  0
  6  7  1  0
  7  8  1  0
  7  9  1  6
  9 10  1  0
 10 11  2  0
 10 12  1  0
 12 13  1  0
 13 14  1  0
 13 36  1  0
 14 15  2  0
 15 16  1  0
 15 30  1  0
 16 17  2  0
 16 18  1  0
 18 19  1  0
 18 29  1  0
 19 20  1  0
 20 21  1  0
 21 22  2  0
 21 28  1  0
 22 23  1  0
 22 25  1  0
 23 24  1  0
 25 26  2  0
 26 27  1  0
 27 28  2  0
 28 29  1  0
 30 31  1  0
 30 36  2  0
 31 32  2  0
 32 33  1  0
 32 34  1  0
 34 35  2  0
 35 36  1  0
M  END
$$$$
