
     RDKit          3D

 26 27  0  0  0  0  0  0  0  0999 V2000
    1.7627   47.4871   60.1758 C   0  0  0  0  0  0  0  0  0  0  0  0
    2.2808   48.6311   59.2395 C   0  0  0  0  0  0  0  0  0  0  0  0
    3.1910   48.0878   58.4436 O   0  0  0  0  0  0  0  0  0  0  0  0
    3.2413   48.1143   57.1232 C   0  0  0  0  0  0  0  0  0  0  0  0
    4.3442   47.4721   56.3530 C   0  0  1  0  0  0  0  0  0  0  0  0
    4.0147   46.1879   55.6485 C   0  0  0  0  0  0  0  0  0  0  0  0
    4.0912   45.0111   56.2480 O   0  0  0  0  0  0  0  0  0  0  0  0
    3.3033   43.9614   55.9897 C   0  0  0  0  0  0  0  0  0  0  0  0
    3.2654   43.7871   54.4570 C   0  0  0  0  0  0  0  0  0  0  0  0
    5.0061   48.4087   55.4253 C   0  0  0  0  0  0  0  0  0  0  0  0
    5.7949   49.5153   56.0473 C   0  0  0  0  0  0  0  0  0  0  0  0
    5.3574   46.9877   57.4372 C   0  0  0  0  0  0  0  0  0  0  0  0
    6.1400   48.0789   58.0057 C   0  0  0  0  0  0  0  0  0  0  0  0
    6.7401   49.0586   57.0767 C   0  0  1  0  0  0  0  0  0  0  0  0
    8.1062   48.6962   56.6181 C   0  0  0  0  0  0  0  0  0  0  0  0
    8.3370   47.7948   55.6300 N   0  0  0  0  0  0  0  0  0  0  0  0
    9.6383   47.6948   55.4659 N   0  0  0  0  0  0  0  0  0  0  0  0
   10.3007   48.4847   56.2954 C   0  0  0  0  0  0  0  0  0  0  0  0
    9.3302   49.1494   57.0585 C   0  0  0  0  0  0  0  0  0  0  0  0
    9.6324   50.1367   58.1242 C   0  0  0  0  0  0  0  0  0  0  0  0
   10.2186   51.3504   57.6843 N   0  0  1  0  0  4  0  0  0  0  0  0
   10.6059   51.3264   56.3232 C   0  0  0  0  0  0  0  0  0  0  0  0
    9.2813   52.4273   57.9943 C   0  0  0  0  0  0  0  0  0  0  0  0
    9.2100   52.6816   59.4813 C   0  0  0  0  0  0  0  0  0  0  0  0
    8.2839   53.7981   59.7131 N   0  0  0  0  0  4  0  0  0  0  0  0
    8.9743   54.7422   60.5632 C   0  0  0  0  0  0  0  0  0  0  0  0
  1  2  1  0
  2  3  1  0
  3  4  1  0
  5  4  1  1
  5  6  1  0
  5 10  1  0
  5 12  1  0
  6  7  1  0
  7  8  1  0
  8  9  1  0
 10 11  1  0
 11 14  1  0
 12 13  1  0
 13 14  1  0
 14 15  1  6
 15 16  1  0
 15 19  2  0
 16 17  1  0
 17 18  2  0
 18 19  1  0
 19 20  1  0
 20 21  1  0
 21 22  1  6
 21 23  1  0
 23 24  1  0
 24 25  1  0
 25 26  1  0
M  CHG  2  21   1  25   1
M  END
$$$$
