
     RDKit          3D

 26 27  0  0  0  0  0  0  0  0999 V2000
    4.7804   46.0289   46.1292 C   0  0  0  0  0  0  0  0  0  0  0  0
    5.3926   46.5975   47.4543 C   0  0  0  0  0  0  0  0  0  0  0  0
    6.3484   45.7564   47.8230 O   0  0  0  0  0  0  0  0  0  0  0  0
    6.2838   44.7910   48.7233 C   0  0  0  0  0  0  0  0  0  0  0  0
    7.4823   44.0121   49.1463 C   0  0  1  0  0  0  0  0  0  0  0  0
    8.1139   43.1311   48.1077 C   0  0  0  0  0  0  0  0  0  0  0  0
    7.5175   42.0463   47.6410 O   0  0  0  0  0  0  0  0  0  0  0  0
    6.1948   41.8813   47.5289 C   0  0  0  0  0  0  0  0  0  0  0  0
    5.9045   41.5192   46.0573 C   0  0  0  0  0  0  0  0  0  0  0  0
    8.5058   44.8554   49.7921 C   0  0  0  0  0  0  0  0  0  0  0  0
    8.1473   45.4363   51.1217 C   0  0  0  0  0  0  0  0  0  0  0  0
    6.9358   42.9613   50.1631 C   0  0  0  0  0  0  0  0  0  0  0  0
    6.6251   43.5433   51.4636 C   0  0  0  0  0  0  0  0  0  0  0  0
    7.6216   44.4474   52.0742 C   0  0  1  0  0  0  0  0  0  0  0  0
    8.6135   43.7561   52.9379 C   0  0  0  0  0  0  0  0  0  0  0  0
    9.0339   42.4864   52.7069 N   0  0  0  0  0  0  0  0  0  0  0  0
    9.9004   42.1677   53.6438 N   0  0  0  0  0  0  0  0  0  0  0  0
   10.0875   43.1600   54.4989 C   0  0  0  0  0  0  0  0  0  0  0  0
    9.2630   44.2080   54.0656 C   0  0  0  0  0  0  0  0  0  0  0  0
    9.1546   45.5245   54.7414 C   0  0  0  0  0  0  0  0  0  0  0  0
   10.2611   45.8895   55.5493 N   0  0  1  0  0  4  0  0  0  0  0  0
   11.3778   46.3372   54.8037 C   0  0  0  0  0  0  0  0  0  0  0  0
    9.7890   46.8736   56.5205 C   0  0  0  0  0  0  0  0  0  0  0  0
   10.0041   48.2830   56.0223 C   0  0  0  0  0  0  0  0  0  0  0  0
    9.6240   49.2127   57.0944 N   0  0  0  0  0  4  0  0  0  0  0  0
    8.2564   49.6063   56.8389 C   0  0  0  0  0  0  0  0  0  0  0  0
  1  2  1  0
  2  3  1  0
  3  4  1  0
  5  4  1  6
  5  6  1  0
  5 10  1  0
  5 12  1  0
  6  7  1  0
  7  8  1  0
  8  9  1  0
 10 11  1  0
 11 14  1  0
 12 13  1  0
 13 14  1  0
 14 15  1  6
 15 16  1  0
 15 19  2  0
 16 17  1  0
 17 18  2  0
 18 19  1  0
 19 20  1  0
 20 21  1  0
 21 22  1  6
 21 23  1  0
 23 24  1  0
 24 25  1  0
 25 26  1  0
M  CHG  2  21   1  25   1
M  END
$$$$
