
     RDKit          3D

 26 27  0  0  0  0  0  0  0  0999 V2000
    3.6592   33.5915   38.3798 C   0  0  0  0  0  0  0  0  0  0  0  0
    4.3160   34.3751   39.5667 C   0  0  0  0  0  0  0  0  0  0  0  0
    3.4933   34.2596   40.5997 O   0  0  0  0  0  0  0  0  0  0  0  0
    3.5921   33.4437   41.6348 C   0  0  0  0  0  0  0  0  0  0  0  0
    4.5439   33.6876   42.7558 C   0  0  1  0  0  0  0  0  0  0  0  0
    4.6580   35.1018   43.2467 C   0  0  0  0  0  0  0  0  0  0  0  0
    3.6056   35.8057   43.6305 O   0  0  0  0  0  0  0  0  0  0  0  0
    3.1283   35.8609   44.8789 C   0  0  0  0  0  0  0  0  0  0  0  0
    1.9412   34.8780   44.9561 C   0  0  0  0  0  0  0  0  0  0  0  0
    4.3297   32.7687   43.8896 C   0  0  0  0  0  0  0  0  0  0  0  0
    4.6474   31.3285   43.6481 C   0  0  0  0  0  0  0  0  0  0  0  0
    5.9573   33.4524   42.1364 C   0  0  0  0  0  0  0  0  0  0  0  0
    6.2597   32.0393   41.9413 C   0  0  0  0  0  0  0  0  0  0  0  0
    5.9742   31.1095   43.0536 C   0  0  1  0  0  0  0  0  0  0  0  0
    7.1090   30.9302   43.9959 C   0  0  0  0  0  0  0  0  0  0  0  0
    7.3338   31.7608   45.0456 N   0  0  0  0  0  0  0  0  0  0  0  0
    8.4075   31.3379   45.6768 N   0  0  0  0  0  0  0  0  0  0  0  0
    8.9216   30.2608   45.1054 C   0  0  0  0  0  0  0  0  0  0  0  0
    8.0980   29.9714   44.0082 C   0  0  0  0  0  0  0  0  0  0  0  0
    8.3106   28.8367   43.0759 C   0  0  0  0  0  0  0  0  0  0  0  0
    9.4600   28.9307   42.2512 N   0  0  1  0  0  4  0  0  0  0  0  0
    9.9795   27.6717   41.8658 C   0  0  0  0  0  0  0  0  0  0  0  0
    9.1153   29.7806   41.1141 C   0  0  0  0  0  0  0  0  0  0  0  0
    9.8870   31.0784   41.1451 C   0  0  0  0  0  0  0  0  0  0  0  0
    9.4824   31.8820   39.9838 N   0  0  0  0  0  4  0  0  0  0  0  0
    9.8395   33.2514   40.2801 C   0  0  0  0  0  0  0  0  0  0  0  0
  1  2  1  0
  2  3  1  0
  3  4  1  0
  5  4  1  6
  5  6  1  0
  5 10  1  0
  5 12  1  0
  6  7  1  0
  7  8  1  0
  8  9  1  0
 10 11  1  0
 11 14  1  0
 12 13  1  0
 13 14  1  0
 14 15  1  1
 15 16  1  0
 15 19  2  0
 16 17  1  0
 17 18  2  0
 18 19  1  0
 19 20  1  0
 20 21  1  0
 21 22  1  6
 21 23  1  0
 23 24  1  0
 24 25  1  0
 25 26  1  0
M  CHG  2  21   1  25   1
M  END
$$$$
