
     RDKit          3D

 26 27  0  0  0  0  0  0  0  0999 V2000
    4.1357   45.1146   58.1543 C   0  0  0  0  0  0  0  0  0  0  0  0
    5.4703   45.7026   57.5824 C   0  0  0  0  0  0  0  0  0  0  0  0
    5.4160   45.5580   56.2659 O   0  0  0  0  0  0  0  0  0  0  0  0
    5.5209   46.4923   55.3369 C   0  0  0  0  0  0  0  0  0  0  0  0
    5.2074   46.2315   53.9032 C   0  0  1  0  0  0  0  0  0  0  0  0
    3.7788   46.4186   53.4814 C   0  0  0  0  0  0  0  0  0  0  0  0
    3.1320   47.5594   53.6560 O   0  0  0  0  0  0  0  0  0  0  0  0
    1.9659   47.8802   53.0844 C   0  0  0  0  0  0  0  0  0  0  0  0
    1.5974   49.2986   53.5674 C   0  0  0  0  0  0  0  0  0  0  0  0
    6.1097   46.9536   52.9865 C   0  0  0  0  0  0  0  0  0  0  0  0
    7.5385   46.5153   52.9768 C   0  0  0  0  0  0  0  0  0  0  0  0
    5.3897   44.6910   53.7296 C   0  0  0  0  0  0  0  0  0  0  0  0
    6.7911   44.2897   53.6883 C   0  0  0  0  0  0  0  0  0  0  0  0
    7.7080   45.0627   52.8253 C   0  0  1  0  0  0  0  0  0  0  0  0
    7.8126   44.5417   51.4376 C   0  0  0  0  0  0  0  0  0  0  0  0
    7.2699   45.1781   50.3686 N   0  0  0  0  0  0  0  0  0  0  0  0
    7.5314   44.4652   49.2946 N   0  0  0  0  0  0  0  0  0  0  0  0
    8.2249   43.3761   49.5840 C   0  0  0  0  0  0  0  0  0  0  0  0
    8.4233   43.3982   50.9719 C   0  0  0  0  0  0  0  0  0  0  0  0
    9.1560   42.3550   51.7313 C   0  0  0  0  0  0  0  0  0  0  0  0
   10.5295   42.2157   51.4086 N   0  0  1  0  0  4  0  0  0  0  0  0
   11.1246   43.4169   50.9543 C   0  0  0  0  0  0  0  0  0  0  0  0
   11.1993   41.6511   52.5778 C   0  0  0  0  0  0  0  0  0  0  0  0
   10.2686   41.5867   53.7655 C   0  0  0  0  0  0  0  0  0  0  0  0
   11.0061   41.0087   54.8969 N   0  0  0  0  0  4  0  0  0  0  0  0
   12.1682   40.3500   54.3436 C   0  0  0  0  0  0  0  0  0  0  0  0
  1  2  1  0
  2  3  1  0
  3  4  1  0
  5  4  1  1
  5  6  1  0
  5 10  1  0
  5 12  1  0
  6  7  1  0
  7  8  1  0
  8  9  1  0
 10 11  1  0
 11 14  1  0
 12 13  1  0
 13 14  1  0
 14 15  1  6
 15 16  1  0
 15 19  2  0
 16 17  1  0
 17 18  2  0
 18 19  1  0
 19 20  1  0
 20 21  1  0
 21 22  1  1
 21 23  1  0
 23 24  1  0
 24 25  1  0
 25 26  1  0
M  CHG  2  21   1  25   1
M  END
$$$$
