
     RDKit          3D

 26 27  0  0  0  0  0  0  0  0999 V2000
   13.3220   45.3476   58.0507 C   0  0  0  0  0  0  0  0  0  0  0  0
   14.7029   46.0822   57.9648 C   0  0  0  0  0  0  0  0  0  0  0  0
   14.6761   46.8135   56.8595 O   0  0  0  0  0  0  0  0  0  0  0  0
   13.8124   47.7564   56.5251 C   0  0  0  0  0  0  0  0  0  0  0  0
   12.4204   47.4467   56.0910 C   0  0  1  0  0  0  0  0  0  0  0  0
   12.2633   46.3901   55.0361 C   0  0  0  0  0  0  0  0  0  0  0  0
   12.9939   46.3758   53.9333 O   0  0  0  0  0  0  0  0  0  0  0  0
   12.8496   45.5100   52.9238 C   0  0  0  0  0  0  0  0  0  0  0  0
   13.6490   44.2429   53.2934 C   0  0  0  0  0  0  0  0  0  0  0  0
   11.5216   47.1715   57.2278 C   0  0  0  0  0  0  0  0  0  0  0  0
   11.2141   48.3247   58.1274 C   0  0  0  0  0  0  0  0  0  0  0  0
   11.9462   48.7254   55.3317 C   0  0  0  0  0  0  0  0  0  0  0  0
   11.6190   49.8263   56.2303 C   0  0  0  0  0  0  0  0  0  0  0  0
   10.7792   49.5320   57.4097 C   0  0  1  0  0  0  0  0  0  0  0  0
    9.3210   49.6753   57.1625 C   0  0  0  0  0  0  0  0  0  0  0  0
    8.7155   49.2164   56.0378 N   0  0  0  0  0  0  0  0  0  0  0  0
    7.4338   49.5000   56.1208 N   0  0  0  0  0  0  0  0  0  0  0  0
    7.1413   50.1294   57.2474 C   0  0  0  0  0  0  0  0  0  0  0  0
    8.3498   50.2582   57.9465 C   0  0  0  0  0  0  0  0  0  0  0  0
    8.4871   50.9126   59.2711 C   0  0  0  0  0  0  0  0  0  0  0  0
    7.8559   52.1759   59.3968 N   0  0  1  0  0  4  0  0  0  0  0  0
    6.6722   52.1380   60.1720 C   0  0  0  0  0  0  0  0  0  0  0  0
    8.8499   53.1129   59.9147 C   0  0  0  0  0  0  0  0  0  0  0  0
    9.5718   53.8221   58.7937 C   0  0  0  0  0  0  0  0  0  0  0  0
   10.5767   54.7151   59.3862 N   0  0  0  0  0  4  0  0  0  0  0  0
    9.9018   55.9567   59.6920 C   0  0  0  0  0  0  0  0  0  0  0  0
  1  2  1  0
  2  3  1  0
  3  4  1  0
  5  4  1  1
  5  6  1  0
  5 10  1  0
  5 12  1  0
  6  7  1  0
  7  8  1  0
  8  9  1  0
 10 11  1  0
 11 14  1  0
 12 13  1  0
 13 14  1  0
 14 15  1  6
 15 16  1  0
 15 19  2  0
 16 17  1  0
 17 18  2  0
 18 19  1  0
 19 20  1  0
 20 21  1  0
 21 22  1  1
 21 23  1  0
 23 24  1  0
 24 25  1  0
 25 26  1  0
M  CHG  2  21   1  25   1
M  END
$$$$
