
     RDKit          3D

 26 27  0  0  0  0  0  0  0  0999 V2000
    3.1244   44.1095   59.1436 C   0  0  0  0  0  0  0  0  0  0  0  0
    3.9087   44.1594   57.7884 C   0  0  0  0  0  0  0  0  0  0  0  0
    4.8265   45.1073   57.9152 O   0  0  0  0  0  0  0  0  0  0  0  0
    4.6452   46.3884   58.1848 C   0  0  0  0  0  0  0  0  0  0  0  0
    4.9596   47.4636   57.2014 C   0  0  1  0  0  0  0  0  0  0  0  0
    4.0815   47.5426   55.9862 C   0  0  0  0  0  0  0  0  0  0  0  0
    2.8005   47.8653   56.0575 O   0  0  0  0  0  0  0  0  0  0  0  0
    1.8885   47.6152   55.1114 C   0  0  0  0  0  0  0  0  0  0  0  0
    1.3967   48.9786   54.5817 C   0  0  0  0  0  0  0  0  0  0  0  0
    5.0780   48.7912   57.8335 C   0  0  0  0  0  0  0  0  0  0  0  0
    6.2423   48.9908   58.7490 C   0  0  0  0  0  0  0  0  0  0  0  0
    6.3275   47.0447   56.5771 C   0  0  0  0  0  0  0  0  0  0  0  0
    7.4528   47.2799   57.4742 C   0  0  0  0  0  0  0  0  0  0  0  0
    7.5284   48.5845   58.1637 C   0  0  1  0  0  0  0  0  0  0  0  0
    8.2790   49.6221   57.4103 C   0  0  0  0  0  0  0  0  0  0  0  0
    8.5768   49.5044   56.0913 N   0  0  0  0  0  0  0  0  0  0  0  0
    9.2451   50.5773   55.7275 N   0  0  0  0  0  0  0  0  0  0  0  0
    9.4150   51.4165   56.7363 C   0  0  0  0  0  0  0  0  0  0  0  0
    8.7969   50.8221   57.8456 C   0  0  0  0  0  0  0  0  0  0  0  0
    8.7504   51.4225   59.2017 C   0  0  0  0  0  0  0  0  0  0  0  0
    8.2231   52.7367   59.2703 N   0  0  1  0  0  4  0  0  0  0  0  0
    7.4524   52.9730   60.4338 C   0  0  0  0  0  0  0  0  0  0  0  0
    9.3413   53.6657   59.1255 C   0  0  0  0  0  0  0  0  0  0  0  0
    8.9621   55.0557   59.5784 C   0  0  0  0  0  0  0  0  0  0  0  0
   10.0653   55.9658   59.2424 N   0  0  0  0  0  4  0  0  0  0  0  0
   10.7949   56.2059   60.4674 C   0  0  0  0  0  0  0  0  0  0  0  0
  1  2  1  0
  2  3  1  0
  3  4  1  0
  5  4  1  1
  5  6  1  0
  5 10  1  0
  5 12  1  0
  6  7  1  0
  7  8  1  0
  8  9  1  0
 10 11  1  0
 11 14  1  0
 12 13  1  0
 13 14  1  0
 14 15  1  6
 15 16  1  0
 15 19  2  0
 16 17  1  0
 17 18  2  0
 18 19  1  0
 19 20  1  0
 20 21  1  0
 21 22  1  1
 21 23  1  0
 23 24  1  0
 24 25  1  0
 25 26  1  0
M  CHG  2  21   1  25   1
M  END
$$$$
