
     RDKit          3D

 26 27  0  0  0  0  0  0  0  0999 V2000
    1.3430   42.1309   46.4333 C   0  0  0  0  0  0  0  0  0  0  0  0
    1.3426   41.3668   45.0658 C   0  0  0  0  0  0  0  0  0  0  0  0
    1.3143   40.0732   45.3534 O   0  0  0  0  0  0  0  0  0  0  0  0
    2.3081   39.2034   45.3014 C   0  0  0  0  0  0  0  0  0  0  0  0
    3.1340   38.8625   46.4946 C   0  0  1  0  0  0  0  0  0  0  0  0
    2.3920   38.4307   47.7262 C   0  0  0  0  0  0  0  0  0  0  0  0
    2.7719   37.3944   48.4555 O   0  0  0  0  0  0  0  0  0  0  0  0
    2.0873   36.8834   49.4849 C   0  0  0  0  0  0  0  0  0  0  0  0
    1.0265   35.9293   48.8972 C   0  0  0  0  0  0  0  0  0  0  0  0
    4.2090   37.9017   46.1825 C   0  0  0  0  0  0  0  0  0  0  0  0
    5.3063   38.3958   45.2962 C   0  0  0  0  0  0  0  0  0  0  0  0
    3.7484   40.2215   46.9551 C   0  0  0  0  0  0  0  0  0  0  0  0
    4.8395   40.6672   46.0963 C   0  0  0  0  0  0  0  0  0  0  0  0
    5.8757   39.6818   45.7245 C   0  0  1  0  0  0  0  0  0  0  0  0
    7.0209   39.6256   46.6696 C   0  0  0  0  0  0  0  0  0  0  0  0
    7.2468   38.5697   47.4920 N   0  0  0  0  0  0  0  0  0  0  0  0
    8.3253   38.8279   48.1993 N   0  0  0  0  0  0  0  0  0  0  0  0
    8.8414   40.0081   47.8962 C   0  0  0  0  0  0  0  0  0  0  0  0
    8.0139   40.5515   46.9032 C   0  0  0  0  0  0  0  0  0  0  0  0
    8.2219   41.8776   46.2710 C   0  0  0  0  0  0  0  0  0  0  0  0
    8.5218   42.9390   47.1619 N   0  0  1  0  0  4  0  0  0  0  0  0
    9.4516   42.5826   48.1677 C   0  0  0  0  0  0  0  0  0  0  0  0
    8.9573   44.0774   46.3565 C   0  0  0  0  0  0  0  0  0  0  0  0
   10.4557   44.0752   46.1683 C   0  0  0  0  0  0  0  0  0  0  0  0
   10.7746   44.9152   45.0061 N   0  0  0  0  0  4  0  0  0  0  0  0
    9.8159   44.5824   43.9761 C   0  0  0  0  0  0  0  0  0  0  0  0
  1  2  1  0
  2  3  1  0
  3  4  1  0
  5  4  1  6
  5  6  1  0
  5 10  1  0
  5 12  1  0
  6  7  1  0
  7  8  1  0
  8  9  1  0
 10 11  1  0
 11 14  1  0
 12 13  1  0
 13 14  1  0
 14 15  1  1
 15 16  1  0
 15 19  2  0
 16 17  1  0
 17 18  2  0
 18 19  1  0
 19 20  1  0
 20 21  1  0
 21 22  1  1
 21 23  1  0
 23 24  1  0
 24 25  1  0
 25 26  1  0
M  CHG  2  21   1  25   1
M  END
$$$$
