
     RDKit          3D

 26 27  0  0  0  0  0  0  0  0999 V2000
    2.1872   47.2273   59.1511 C   0  0  0  0  0  0  0  0  0  0  0  0
    1.8643   46.1832   58.0288 C   0  0  0  0  0  0  0  0  0  0  0  0
    3.0286   45.7405   57.5753 O   0  0  0  0  0  0  0  0  0  0  0  0
    3.9885   46.4285   56.9820 C   0  0  0  0  0  0  0  0  0  0  0  0
    5.4218   46.0255   57.0550 C   0  0  1  0  0  0  0  0  0  0  0  0
    5.7046   44.6223   57.5079 C   0  0  0  0  0  0  0  0  0  0  0  0
    5.6347   43.5857   56.6889 O   0  0  0  0  0  0  0  0  0  0  0  0
    4.7867   42.5589   56.8152 C   0  0  0  0  0  0  0  0  0  0  0  0
    5.6101   41.3450   57.2943 C   0  0  0  0  0  0  0  0  0  0  0  0
    6.1558   46.3181   55.8094 C   0  0  0  0  0  0  0  0  0  0  0  0
    6.3555   47.7617   55.4782 C   0  0  0  0  0  0  0  0  0  0  0  0
    6.0116   46.8633   58.2326 C   0  0  0  0  0  0  0  0  0  0  0  0
    6.2303   48.2605   57.8769 C   0  0  0  0  0  0  0  0  0  0  0  0
    6.8998   48.5518   56.5923 C   0  0  1  0  0  0  0  0  0  0  0  0
    8.3798   48.6405   56.6903 C   0  0  0  0  0  0  0  0  0  0  0  0
    9.1918   47.5584   56.5813 N   0  0  0  0  0  0  0  0  0  0  0  0
   10.4348   47.9669   56.7164 N   0  0  0  0  0  0  0  0  0  0  0  0
   10.5045   49.2737   56.9119 C   0  0  0  0  0  0  0  0  0  0  0  0
    9.1824   49.7402   56.9002 C   0  0  0  0  0  0  0  0  0  0  0  0
    8.7918   51.1593   57.0887 C   0  0  0  0  0  0  0  0  0  0  0  0
    9.6592   51.9285   57.9048 N   0  0  1  0  0  4  0  0  0  0  0  0
   10.8762   52.2685   57.2670 C   0  0  0  0  0  0  0  0  0  0  0  0
    8.9086   53.0942   58.3653 C   0  0  0  0  0  0  0  0  0  0  0  0
    8.3745   52.8860   59.7625 C   0  0  0  0  0  0  0  0  0  0  0  0
    7.1739   53.7170   59.9245 N   0  0  0  0  0  4  0  0  0  0  0  0
    7.6313   55.0694   60.1530 C   0  0  0  0  0  0  0  0  0  0  0  0
  1  2  1  0
  2  3  1  0
  3  4  1  0
  5  4  1  6
  5  6  1  0
  5 10  1  0
  5 12  1  0
  6  7  1  0
  7  8  1  0
  8  9  1  0
 10 11  1  0
 11 14  1  0
 12 13  1  0
 13 14  1  0
 14 15  1  1
 15 16  1  0
 15 19  2  0
 16 17  1  0
 17 18  2  0
 18 19  1  0
 19 20  1  0
 20 21  1  0
 21 22  1  6
 21 23  1  0
 23 24  1  0
 24 25  1  0
 25 26  1  0
M  CHG  2  21   1  25   1
M  END
$$$$
