
     RDKit          3D

 26 27  0  0  0  0  0  0  0  0999 V2000
    1.1394   48.6839   56.4157 C   0  0  0  0  0  0  0  0  0  0  0  0
    1.8838   47.5140   57.1446 C   0  0  0  0  0  0  0  0  0  0  0  0
    2.9971   48.0276   57.6485 O   0  0  0  0  0  0  0  0  0  0  0  0
    3.9706   47.3999   58.2850 C   0  0  0  0  0  0  0  0  0  0  0  0
    5.2713   47.0751   57.6334 C   0  0  1  0  0  0  0  0  0  0  0  0
    5.4117   45.6940   57.0616 C   0  0  0  0  0  0  0  0  0  0  0  0
    5.6401   44.6335   57.8188 O   0  0  0  0  0  0  0  0  0  0  0  0
    4.8448   43.5613   57.9044 C   0  0  0  0  0  0  0  0  0  0  0  0
    5.0083   42.7677   56.5911 C   0  0  0  0  0  0  0  0  0  0  0  0
    5.6714   48.0846   56.6351 C   0  0  0  0  0  0  0  0  0  0  0  0
    6.0275   49.4370   57.1623 C   0  0  0  0  0  0  0  0  0  0  0  0
    6.3048   47.0403   58.8027 C   0  0  0  0  0  0  0  0  0  0  0  0
    6.6636   48.3714   59.2782 C   0  0  0  0  0  0  0  0  0  0  0  0
    6.9919   49.4018   58.2715 C   0  0  1  0  0  0  0  0  0  0  0  0
    8.4319   49.4533   57.9089 C   0  0  0  0  0  0  0  0  0  0  0  0
    9.2930   48.4356   58.1640 N   0  0  0  0  0  0  0  0  0  0  0  0
   10.4827   48.7903   57.7291 N   0  0  0  0  0  0  0  0  0  0  0  0
   10.4696   49.9995   57.1919 C   0  0  0  0  0  0  0  0  0  0  0  0
    9.1481   50.4568   57.2944 C   0  0  0  0  0  0  0  0  0  0  0  0
    8.6792   51.7810   56.8165 C   0  0  0  0  0  0  0  0  0  0  0  0
    9.4621   52.8902   57.2248 N   0  0  1  0  0  4  0  0  0  0  0  0
    9.3661   53.9984   56.3494 C   0  0  0  0  0  0  0  0  0  0  0  0
    9.0842   53.2113   58.5990 C   0  0  0  0  0  0  0  0  0  0  0  0
    9.9444   54.3185   59.1601 C   0  0  0  0  0  0  0  0  0  0  0  0
    9.5936   54.5013   60.5750 N   0  0  0  0  0  4  0  0  0  0  0  0
    8.6166   55.5658   60.6276 C   0  0  0  0  0  0  0  0  0  0  0  0
  1  2  1  0
  2  3  1  0
  3  4  1  0
  5  4  1  1
  5  6  1  0
  5 10  1  0
  5 12  1  0
  6  7  1  0
  7  8  1  0
  8  9  1  0
 10 11  1  0
 11 14  1  0
 12 13  1  0
 13 14  1  0
 14 15  1  6
 15 16  1  0
 15 19  2  0
 16 17  1  0
 17 18  2  0
 18 19  1  0
 19 20  1  0
 20 21  1  0
 21 22  1  6
 21 23  1  0
 23 24  1  0
 24 25  1  0
 25 26  1  0
M  CHG  2  21   1  25   1
M  END
$$$$
