
     RDKit          3D

 26 27  0  0  0  0  0  0  0  0999 V2000
    1.8736   38.2491   49.2317 C   0  0  0  0  0  0  0  0  0  0  0  0
    1.9803   39.1700   47.9689 C   0  0  0  0  0  0  0  0  0  0  0  0
    1.2854   38.5785   47.0074 O   0  0  0  0  0  0  0  0  0  0  0  0
    1.7291   37.7790   46.0531 C   0  0  0  0  0  0  0  0  0  0  0  0
    2.3740   38.2970   44.8131 C   0  0  1  0  0  0  0  0  0  0  0  0
    1.5862   39.2901   44.0087 C   0  0  0  0  0  0  0  0  0  0  0  0
    0.4721   38.9636   43.3744 O   0  0  0  0  0  0  0  0  0  0  0  0
   -0.4607   39.8280   42.9594 C   0  0  0  0  0  0  0  0  0  0  0  0
   -1.6390   38.9968   42.4100 C   0  0  0  0  0  0  0  0  0  0  0  0
    3.7387   38.8024   45.0542 C   0  0  0  0  0  0  0  0  0  0  0  0
    4.7695   37.7850   45.4232 C   0  0  0  0  0  0  0  0  0  0  0  0
    2.4203   37.0721   43.8467 C   0  0  0  0  0  0  0  0  0  0  0  0
    3.4554   36.1095   44.2051 C   0  0  0  0  0  0  0  0  0  0  0  0
    4.8036   36.6262   44.5188 C   0  0  1  0  0  0  0  0  0  0  0  0
    5.7016   36.7236   43.3390 C   0  0  0  0  0  0  0  0  0  0  0  0
    5.2397   36.7819   42.0640 N   0  0  0  0  0  0  0  0  0  0  0  0
    6.2767   36.8576   41.2584 N   0  0  0  0  0  0  0  0  0  0  0  0
    7.4193   36.8532   41.9258 C   0  0  0  0  0  0  0  0  0  0  0  0
    7.0773   36.7666   43.2828 C   0  0  0  0  0  0  0  0  0  0  0  0
    8.0592   36.7281   44.3945 C   0  0  0  0  0  0  0  0  0  0  0  0
    8.7289   35.4916   44.5757 N   0  0  1  0  0  4  0  0  0  0  0  0
    8.8240   34.7251   43.3896 C   0  0  0  0  0  0  0  0  0  0  0  0
   10.0288   35.7811   45.1764 C   0  0  0  0  0  0  0  0  0  0  0  0
    9.8818   36.2401   46.6077 C   0  0  0  0  0  0  0  0  0  0  0  0
   11.1593   36.8251   47.0366 N   0  0  0  0  0  4  0  0  0  0  0  0
   10.8705   38.1658   47.4945 C   0  0  0  0  0  0  0  0  0  0  0  0
  1  2  1  0
  2  3  1  0
  3  4  1  0
  5  4  1  1
  5  6  1  0
  5 10  1  0
  5 12  1  0
  6  7  1  0
  7  8  1  0
  8  9  1  0
 10 11  1  0
 11 14  1  0
 12 13  1  0
 13 14  1  0
 14 15  1  6
 15 16  1  0
 15 19  2  0
 16 17  1  0
 17 18  2  0
 18 19  1  0
 19 20  1  0
 20 21  1  0
 21 22  1  6
 21 23  1  0
 23 24  1  0
 24 25  1  0
 25 26  1  0
M  CHG  2  21   1  25   1
M  END
$$$$
