
     RDKit          3D

 26 27  0  0  0  0  0  0  0  0999 V2000
    3.8908   45.4658   51.8514 C   0  0  0  0  0  0  0  0  0  0  0  0
    3.2000   46.3931   52.9082 C   0  0  0  0  0  0  0  0  0  0  0  0
    3.4998   45.8989   54.1011 O   0  0  0  0  0  0  0  0  0  0  0  0
    4.1946   46.4693   55.0700 C   0  0  0  0  0  0  0  0  0  0  0  0
    5.5127   45.9419   55.5245 C   0  0  1  0  0  0  0  0  0  0  0  0
    5.6036   44.4604   55.7504 C   0  0  0  0  0  0  0  0  0  0  0  0
    4.6515   43.7776   56.3648 O   0  0  0  0  0  0  0  0  0  0  0  0
    4.6396   42.4505   56.5319 C   0  0  0  0  0  0  0  0  0  0  0  0
    5.2417   42.1617   57.9230 C   0  0  0  0  0  0  0  0  0  0  0  0
    6.6282   46.3986   54.6743 C   0  0  0  0  0  0  0  0  0  0  0  0
    6.9511   47.8569   54.7269 C   0  0  0  0  0  0  0  0  0  0  0  0
    5.6842   46.4944   56.9743 C   0  0  0  0  0  0  0  0  0  0  0  0
    6.0325   47.9102   57.0009 C   0  0  0  0  0  0  0  0  0  0  0  0
    7.1005   48.3783   56.0935 C   0  0  1  0  0  0  0  0  0  0  0  0
    8.4620   48.3238   56.6860 C   0  0  0  0  0  0  0  0  0  0  0  0
    9.4163   47.4569   56.2617 N   0  0  0  0  0  0  0  0  0  0  0  0
   10.4972   47.6557   56.9843 N   0  0  0  0  0  0  0  0  0  0  0  0
   10.3216   48.6153   57.8783 C   0  0  0  0  0  0  0  0  0  0  0  0
    9.0060   49.0696   57.7085 C   0  0  0  0  0  0  0  0  0  0  0  0
    8.3803   50.1477   58.5134 C   0  0  0  0  0  0  0  0  0  0  0  0
    8.7737   51.4677   58.1774 N   0  0  1  0  0  4  0  0  0  0  0  0
    9.0329   51.6427   56.7970 C   0  0  0  0  0  0  0  0  0  0  0  0
    7.7474   52.3741   58.6870 C   0  0  0  0  0  0  0  0  0  0  0  0
    8.3470   53.4381   59.5753 C   0  0  0  0  0  0  0  0  0  0  0  0
    7.2507   54.2315   60.1469 N   0  0  0  0  0  4  0  0  0  0  0  0
    7.1503   55.4358   59.3532 C   0  0  0  0  0  0  0  0  0  0  0  0
  1  2  1  0
  2  3  1  0
  3  4  1  0
  5  4  1  6
  5  6  1  0
  5 10  1  0
  5 12  1  0
  6  7  1  0
  7  8  1  0
  8  9  1  0
 10 11  1  0
 11 14  1  0
 12 13  1  0
 13 14  1  0
 14 15  1  1
 15 16  1  0
 15 19  2  0
 16 17  1  0
 17 18  2  0
 18 19  1  0
 19 20  1  0
 20 21  1  0
 21 22  1  6
 21 23  1  0
 23 24  1  0
 24 25  1  0
 25 26  1  0
M  CHG  2  21   1  25   1
M  END
$$$$
