
     RDKit          3D

 26 27  0  0  0  0  0  0  0  0999 V2000
    1.6905   38.7111   47.7879 C   0  0  0  0  0  0  0  0  0  0  0  0
    1.6762   39.7010   49.0020 C   0  0  0  0  0  0  0  0  0  0  0  0
    2.3893   39.1327   49.9640 O   0  0  0  0  0  0  0  0  0  0  0  0
    3.0150   39.7177   50.9706 C   0  0  0  0  0  0  0  0  0  0  0  0
    3.8700   38.9598   51.9280 C   0  0  1  0  0  0  0  0  0  0  0  0
    3.2974   37.6864   52.4799 C   0  0  0  0  0  0  0  0  0  0  0  0
    3.4369   36.5225   51.8666 O   0  0  0  0  0  0  0  0  0  0  0  0
    3.0024   35.3472   52.3348 C   0  0  0  0  0  0  0  0  0  0  0  0
    1.5603   35.1572   51.8197 C   0  0  0  0  0  0  0  0  0  0  0  0
    5.2303   38.7253   51.4081 C   0  0  0  0  0  0  0  0  0  0  0  0
    6.0999   39.9307   51.2517 C   0  0  0  0  0  0  0  0  0  0  0  0
    3.9324   39.8578   53.2032 C   0  0  0  0  0  0  0  0  0  0  0  0
    4.8128   41.0088   53.0403 C   0  0  0  0  0  0  0  0  0  0  0  0
    6.1480   40.7817   52.4497 C   0  0  1  0  0  0  0  0  0  0  0  0
    7.2045   40.4737   53.4481 C   0  0  0  0  0  0  0  0  0  0  0  0
    7.8080   39.2608   53.5322 N   0  0  0  0  0  0  0  0  0  0  0  0
    8.6851   39.3095   54.5112 N   0  0  0  0  0  0  0  0  0  0  0  0
    8.7050   40.4968   55.0951 C   0  0  0  0  0  0  0  0  0  0  0  0
    7.7516   41.2764   54.4249 C   0  0  0  0  0  0  0  0  0  0  0  0
    7.4378   42.6878   54.7580 C   0  0  0  0  0  0  0  0  0  0  0  0
    7.9914   43.1667   55.9722 N   0  0  1  0  0  4  0  0  0  0  0  0
    9.3854   42.9464   56.0796 C   0  0  0  0  0  0  0  0  0  0  0  0
    7.6227   44.5748   56.0967 C   0  0  0  0  0  0  0  0  0  0  0  0
    6.2733   44.7325   56.7563 C   0  0  0  0  0  0  0  0  0  0  0  0
    5.9499   46.1647   56.8055 N   0  0  0  0  0  4  0  0  0  0  0  0
    5.0018   46.4143   55.7428 C   0  0  0  0  0  0  0  0  0  0  0  0
  1  2  1  0
  2  3  1  0
  3  4  1  0
  5  4  1  6
  5  6  1  0
  5 10  1  0
  5 12  1  0
  6  7  1  0
  7  8  1  0
  8  9  1  0
 10 11  1  0
 11 14  1  0
 12 13  1  0
 13 14  1  0
 14 15  1  1
 15 16  1  0
 15 19  2  0
 16 17  1  0
 17 18  2  0
 18 19  1  0
 19 20  1  0
 20 21  1  0
 21 22  1  6
 21 23  1  0
 23 24  1  0
 24 25  1  0
 25 26  1  0
M  CHG  2  21   1  25   1
M  END
$$$$
