
     RDKit          3D

 26 27  0  0  0  0  0  0  0  0999 V2000
    3.6061   44.9075   58.5752 C   0  0  0  0  0  0  0  0  0  0  0  0
    4.8396   45.4578   57.7819 C   0  0  0  0  0  0  0  0  0  0  0  0
    4.6792   46.7707   57.6929 O   0  0  0  0  0  0  0  0  0  0  0  0
    5.3976   47.6357   56.9982 C   0  0  0  0  0  0  0  0  0  0  0  0
    6.8569   47.4504   56.7575 C   0  0  1  0  0  0  0  0  0  0  0  0
    7.3326   46.0408   56.5555 C   0  0  0  0  0  0  0  0  0  0  0  0
    8.5657   45.7577   56.1689 O   0  0  0  0  0  0  0  0  0  0  0  0
    9.0288   44.5305   55.9062 C   0  0  0  0  0  0  0  0  0  0  0  0
    8.7234   44.2369   54.4224 C   0  0  0  0  0  0  0  0  0  0  0  0
    7.3677   48.3212   55.6819 C   0  0  0  0  0  0  0  0  0  0  0  0
    7.3814   49.7888   55.9640 C   0  0  0  0  0  0  0  0  0  0  0  0
    7.5346   47.8221   58.1136 C   0  0  0  0  0  0  0  0  0  0  0  0
    7.5677   49.2604   58.3523 C   0  0  0  0  0  0  0  0  0  0  0  0
    8.0093   50.1362   57.2473 C   0  0  1  0  0  0  0  0  0  0  0  0
    9.4728   50.3925   57.2292 C   0  0  0  0  0  0  0  0  0  0  0  0
   10.3954   49.4083   57.3787 N   0  0  0  0  0  0  0  0  0  0  0  0
   11.5893   49.9572   57.3210 N   0  0  0  0  0  0  0  0  0  0  0  0
   11.5206   51.2661   57.1398 C   0  0  0  0  0  0  0  0  0  0  0  0
   10.1554   51.5793   57.0763 C   0  0  0  0  0  0  0  0  0  0  0  0
    9.6168   52.9485   56.8843 C   0  0  0  0  0  0  0  0  0  0  0  0
    9.4771   53.7212   58.0647 N   0  0  1  0  0  4  0  0  0  0  0  0
    9.2170   55.0896   57.8131 C   0  0  0  0  0  0  0  0  0  0  0  0
    8.4505   53.0847   58.8864 C   0  0  0  0  0  0  0  0  0  0  0  0
    8.5132   53.5690   60.3155 C   0  0  0  0  0  0  0  0  0  0  0  0
    7.6111   52.7369   61.1231 N   0  0  0  0  0  4  0  0  0  0  0  0
    6.4581   53.5524   61.4329 C   0  0  0  0  0  0  0  0  0  0  0  0
  1  2  1  0
  2  3  1  0
  3  4  1  0
  5  4  1  1
  5  6  1  0
  5 10  1  0
  5 12  1  0
  6  7  1  0
  7  8  1  0
  8  9  1  0
 10 11  1  0
 11 14  1  0
 12 13  1  0
 13 14  1  0
 14 15  1  6
 15 16  1  0
 15 19  2  0
 16 17  1  0
 17 18  2  0
 18 19  1  0
 19 20  1  0
 20 21  1  0
 21 22  1  6
 21 23  1  0
 23 24  1  0
 24 25  1  0
 25 26  1  0
M  CHG  2  21   1  25   1
M  END
$$$$
