
     RDKit          3D

 26 27  0  0  0  0  0  0  0  0999 V2000
   12.1542   41.0679   47.2701 C   0  0  0  0  0  0  0  0  0  0  0  0
   11.3273   39.9224   47.9468 C   0  0  0  0  0  0  0  0  0  0  0  0
   10.1132   40.4078   48.1647 O   0  0  0  0  0  0  0  0  0  0  0  0
    9.6832   41.0922   49.2104 C   0  0  0  0  0  0  0  0  0  0  0  0
    8.2781   41.5768   49.3246 C   0  0  1  0  0  0  0  0  0  0  0  0
    7.9417   42.3857   50.5438 C   0  0  0  0  0  0  0  0  0  0  0  0
    8.4750   43.5742   50.7749 O   0  0  0  0  0  0  0  0  0  0  0  0
    9.4236   43.8305   51.6826 C   0  0  0  0  0  0  0  0  0  0  0  0
   10.6388   44.4013   50.9219 C   0  0  0  0  0  0  0  0  0  0  0  0
    7.8190   42.2720   48.1073 C   0  0  0  0  0  0  0  0  0  0  0  0
    7.6571   41.4317   46.8821 C   0  0  0  0  0  0  0  0  0  0  0  0
    7.4297   40.2872   49.5561 C   0  0  0  0  0  0  0  0  0  0  0  0
    7.2556   39.5005   48.3406 C   0  0  0  0  0  0  0  0  0  0  0  0
    6.8678   40.2113   47.1047 C   0  0  1  0  0  0  0  0  0  0  0  0
    5.3991   40.3181   46.9063 C   0  0  0  0  0  0  0  0  0  0  0  0
    4.6680   41.3667   47.3625 N   0  0  0  0  0  0  0  0  0  0  0  0
    3.4114   41.1612   47.0326 N   0  0  0  0  0  0  0  0  0  0  0  0
    3.2554   40.0236   46.3748 C   0  0  0  0  0  0  0  0  0  0  0  0
    4.5320   39.4521   46.2772 C   0  0  0  0  0  0  0  0  0  0  0  0
    4.8228   38.1570   45.6140 C   0  0  0  0  0  0  0  0  0  0  0  0
    3.8358   37.7014   44.7038 N   0  0  1  0  0  4  0  0  0  0  0  0
    3.4568   38.6771   43.7511 C   0  0  0  0  0  0  0  0  0  0  0  0
    4.3352   36.4705   44.0957 C   0  0  0  0  0  0  0  0  0  0  0  0
    3.3050   35.8541   43.1793 C   0  0  0  0  0  0  0  0  0  0  0  0
    3.4671   34.3946   43.2210 N   0  0  0  0  0  4  0  0  0  0  0  0
    4.5552   34.1222   44.1333 C   0  0  0  0  0  0  0  0  0  0  0  0
  1  2  1  0
  2  3  1  0
  3  4  1  0
  5  4  1  6
  5  6  1  0
  5 10  1  0
  5 12  1  0
  6  7  1  0
  7  8  1  0
  8  9  1  0
 10 11  1  0
 11 14  1  0
 12 13  1  0
 13 14  1  0
 14 15  1  1
 15 16  1  0
 15 19  2  0
 16 17  1  0
 17 18  2  0
 18 19  1  0
 19 20  1  0
 20 21  1  0
 21 22  1  6
 21 23  1  0
 23 24  1  0
 24 25  1  0
 25 26  1  0
M  CHG  2  21   1  25   1
M  END
$$$$
