
     RDKit          3D

 26 27  0  0  0  0  0  0  0  0999 V2000
   14.3126   45.0958   57.5729 C   0  0  0  0  0  0  0  0  0  0  0  0
   13.0171   44.5926   58.2957 C   0  0  0  0  0  0  0  0  0  0  0  0
   12.1904   45.6269   58.3573 O   0  0  0  0  0  0  0  0  0  0  0  0
   12.0634   46.6230   57.4979 C   0  0  0  0  0  0  0  0  0  0  0  0
   10.7462   47.0186   56.9230 C   0  0  1  0  0  0  0  0  0  0  0  0
   10.1140   46.0542   55.9616 C   0  0  0  0  0  0  0  0  0  0  0  0
    9.1168   46.4000   55.1640 O   0  0  0  0  0  0  0  0  0  0  0  0
    9.0714   46.1783   53.8456 C   0  0  0  0  0  0  0  0  0  0  0  0
    7.6595   46.5754   53.3659 C   0  0  0  0  0  0  0  0  0  0  0  0
    9.7746   47.4189   57.9583 C   0  0  0  0  0  0  0  0  0  0  0  0
   10.0737   48.6824   58.6985 C   0  0  0  0  0  0  0  0  0  0  0  0
   11.0656   48.2302   55.9923 C   0  0  0  0  0  0  0  0  0  0  0  0
   11.3203   49.4597   56.7340 C   0  0  0  0  0  0  0  0  0  0  0  0
   10.3861   49.8196   57.8206 C   0  0  1  0  0  0  0  0  0  0  0  0
    9.2422   50.6588   57.3789 C   0  0  0  0  0  0  0  0  0  0  0  0
    7.9808   50.1752   57.2475 N   0  0  0  0  0  0  0  0  0  0  0  0
    7.2083   51.1584   56.8392 N   0  0  0  0  0  0  0  0  0  0  0  0
    7.8853   52.2852   56.6873 C   0  0  0  0  0  0  0  0  0  0  0  0
    9.2125   51.9914   57.0310 C   0  0  0  0  0  0  0  0  0  0  0  0
   10.3243   52.9735   56.9995 C   0  0  0  0  0  0  0  0  0  0  0  0
    9.9394   54.3352   57.0879 N   0  0  1  0  0  4  0  0  0  0  0  0
    8.9065   54.6868   56.1864 C   0  0  0  0  0  0  0  0  0  0  0  0
    9.5986   54.6046   58.4828 C   0  0  0  0  0  0  0  0  0  0  0  0
   10.2085   55.9028   58.9557 C   0  0  0  0  0  0  0  0  0  0  0  0
    9.7924   56.1265   60.3468 N   0  0  0  0  0  4  0  0  0  0  0  0
   10.0630   54.9009   61.0646 C   0  0  0  0  0  0  0  0  0  0  0  0
  1  2  1  0
  2  3  1  0
  3  4  1  0
  5  4  1  1
  5  6  1  0
  5 10  1  0
  5 12  1  0
  6  7  1  0
  7  8  1  0
  8  9  1  0
 10 11  1  0
 11 14  1  0
 12 13  1  0
 13 14  1  0
 14 15  1  6
 15 16  1  0
 15 19  2  0
 16 17  1  0
 17 18  2  0
 18 19  1  0
 19 20  1  0
 20 21  1  0
 21 22  1  6
 21 23  1  0
 23 24  1  0
 24 25  1  0
 25 26  1  0
M  CHG  2  21   1  25   1
M  END
$$$$
