
     RDKit          3D

 26 27  0  0  0  0  0  0  0  0999 V2000
    1.9736   47.8426   57.8883 C   0  0  0  0  0  0  0  0  0  0  0  0
    2.4024   46.3379   57.9653 C   0  0  0  0  0  0  0  0  0  0  0  0
    3.5936   46.2523   57.3900 O   0  0  0  0  0  0  0  0  0  0  0  0
    4.4008   45.2072   57.3356 C   0  0  0  0  0  0  0  0  0  0  0  0
    5.7055   45.2427   56.6155 C   0  0  1  0  0  0  0  0  0  0  0  0
    6.1140   43.9877   55.8998 C   0  0  0  0  0  0  0  0  0  0  0  0
    5.6793   42.7919   56.2622 O   0  0  0  0  0  0  0  0  0  0  0  0
    5.0440   41.9276   55.4630 C   0  0  0  0  0  0  0  0  0  0  0  0
    5.9491   41.6934   54.2353 C   0  0  0  0  0  0  0  0  0  0  0  0
    5.8234   46.4056   55.7157 C   0  0  0  0  0  0  0  0  0  0  0  0
    5.9027   47.7473   56.3693 C   0  0  0  0  0  0  0  0  0  0  0  0
    6.7808   45.3283   57.7437 C   0  0  0  0  0  0  0  0  0  0  0  0
    6.8648   46.6547   58.3437 C   0  0  0  0  0  0  0  0  0  0  0  0
    6.9077   47.8227   57.4398 C   0  0  1  0  0  0  0  0  0  0  0  0
    8.2810   48.2270   57.0419 C   0  0  0  0  0  0  0  0  0  0  0  0
    8.9912   47.5800   56.0831 N   0  0  0  0  0  0  0  0  0  0  0  0
   10.1594   48.1739   55.9712 N   0  0  0  0  0  0  0  0  0  0  0  0
   10.2756   49.1922   56.8082 C   0  0  0  0  0  0  0  0  0  0  0  0
    9.0684   49.2518   57.5189 C   0  0  0  0  0  0  0  0  0  0  0  0
    8.7643   50.2501   58.5737 C   0  0  0  0  0  0  0  0  0  0  0  0
    8.9755   51.6046   58.2120 N   0  0  1  0  0  4  0  0  0  0  0  0
    8.2943   51.9836   57.0307 C   0  0  0  0  0  0  0  0  0  0  0  0
    8.6211   52.4268   59.3665 C   0  0  0  0  0  0  0  0  0  0  0  0
    8.8641   53.8919   59.0920 C   0  0  0  0  0  0  0  0  0  0  0  0
    8.1270   54.6757   60.0922 N   0  0  0  0  0  4  0  0  0  0  0  0
    8.6890   54.3396   61.3813 C   0  0  0  0  0  0  0  0  0  0  0  0
  1  2  1  0
  2  3  1  0
  3  4  1  0
  5  4  1  1
  5  6  1  0
  5 10  1  0
  5 12  1  0
  6  7  1  0
  7  8  1  0
  8  9  1  0
 10 11  1  0
 11 14  1  0
 12 13  1  0
 13 14  1  0
 14 15  1  6
 15 16  1  0
 15 19  2  0
 16 17  1  0
 17 18  2  0
 18 19  1  0
 19 20  1  0
 20 21  1  0
 21 22  1  6
 21 23  1  0
 23 24  1  0
 24 25  1  0
 25 26  1  0
M  CHG  2  21   1  25   1
M  END
$$$$
