
     RDKit          3D

 26 27  0  0  0  0  0  0  0  0999 V2000
   -1.0493   37.3745   47.4653 C   0  0  0  0  0  0  0  0  0  0  0  0
    0.0809   38.4460   47.2964 C   0  0  0  0  0  0  0  0  0  0  0  0
    0.8577   38.3508   48.3662 O   0  0  0  0  0  0  0  0  0  0  0  0
    1.9896   37.6810   48.4963 C   0  0  0  0  0  0  0  0  0  0  0  0
    2.9662   37.9672   49.5855 C   0  0  1  0  0  0  0  0  0  0  0  0
    2.4413   37.9155   50.9912 C   0  0  0  0  0  0  0  0  0  0  0  0
    2.2509   36.7756   51.6350 O   0  0  0  0  0  0  0  0  0  0  0  0
    2.4975   36.5731   52.9340 C   0  0  0  0  0  0  0  0  0  0  0  0
    1.1344   36.3794   53.6310 C   0  0  0  0  0  0  0  0  0  0  0  0
    4.1957   37.1606   49.4691 C   0  0  0  0  0  0  0  0  0  0  0  0
    5.0809   37.4613   48.3030 C   0  0  0  0  0  0  0  0  0  0  0  0
    3.3042   39.4830   49.4292 C   0  0  0  0  0  0  0  0  0  0  0  0
    4.1961   39.7494   48.3066 C   0  0  0  0  0  0  0  0  0  0  0  0
    5.3885   38.8909   48.1502 C   0  0  1  0  0  0  0  0  0  0  0  0
    6.5925   39.3965   48.8591 C   0  0  0  0  0  0  0  0  0  0  0  0
    6.8852   39.0660   50.1426 N   0  0  0  0  0  0  0  0  0  0  0  0
    8.0031   39.6742   50.4748 N   0  0  0  0  0  0  0  0  0  0  0  0
    8.4823   40.4013   49.4785 C   0  0  0  0  0  0  0  0  0  0  0  0
    7.5854   40.2407   48.4128 C   0  0  0  0  0  0  0  0  0  0  0  0
    7.7341   40.8886   47.0862 C   0  0  0  0  0  0  0  0  0  0  0  0
    8.8397   40.4519   46.3134 N   0  0  1  0  0  4  0  0  0  0  0  0
    8.8063   39.0683   46.0166 C   0  0  0  0  0  0  0  0  0  0  0  0
    8.8996   41.2925   45.1200 C   0  0  0  0  0  0  0  0  0  0  0  0
   10.1578   41.0303   44.3269 C   0  0  0  0  0  0  0  0  0  0  0  0
   10.0078   41.6564   43.0063 N   0  0  0  0  0  4  0  0  0  0  0  0
   11.2650   41.4770   42.3152 C   0  0  0  0  0  0  0  0  0  0  0  0
  1  2  1  0
  2  3  1  0
  3  4  1  0
  5  4  1  6
  5  6  1  0
  5 10  1  0
  5 12  1  0
  6  7  1  0
  7  8  1  0
  8  9  1  0
 10 11  1  0
 11 14  1  0
 12 13  1  0
 13 14  1  0
 14 15  1  1
 15 16  1  0
 15 19  2  0
 16 17  1  0
 17 18  2  0
 18 19  1  0
 19 20  1  0
 20 21  1  0
 21 22  1  6
 21 23  1  0
 23 24  1  0
 24 25  1  0
 25 26  1  0
M  CHG  2  21   1  25   1
M  END
$$$$
