
     RDKit          3D

 33 37  0  0  0  0  0  0  0  0999 V2000
  -60.6189   26.4730    8.3663 N   0  0  0  0  0  4  0  0  0  0  0  0
  -60.7604   25.3615    9.2841 C   0  0  0  0  0  0  0  0  0  0  0  0
  -59.6337   25.3943   10.2614 C   0  0  0  0  0  0  0  0  0  0  0  0
  -59.5880   26.3992   11.2155 C   0  0  0  0  0  0  0  0  0  0  0  0
  -58.5365   26.4247   12.1213 C   0  0  0  0  0  0  0  0  0  0  0  0
  -57.5409   25.4832   12.0984 C   0  0  0  0  0  0  0  0  0  0  0  0
  -57.6028   24.4943   11.1455 C   0  0  0  0  0  0  0  0  0  0  0  0
  -58.6500   24.4432   10.2203 C   0  0  0  0  0  0  0  0  0  0  0  0
  -56.4599   25.5609   13.0626 C   0  0  0  0  0  0  0  0  0  0  0  0
  -55.2736   26.1527   12.7163 N   0  0  0  0  0  0  0  0  0  0  0  0
  -54.2556   26.2404   13.5834 C   0  0  0  0  0  0  0  0  0  0  0  0
  -54.4338   25.7154   14.8437 C   0  0  0  0  0  0  0  0  0  0  0  0
  -53.3762   25.8122   15.7276 O   0  0  0  0  0  0  0  0  0  0  0  0
  -52.9002   24.7574   16.5066 C   0  0  0  0  0  0  0  0  0  0  0  0
  -53.4046   24.7888   17.9326 C   0  0  1  0  0  0  0  0  0  0  0  0
  -53.1677   23.4887   18.6434 C   0  0  0  0  0  0  0  0  0  0  0  0
  -51.8740   23.3870   19.3644 C   0  0  0  0  0  0  0  0  0  0  0  0
  -51.5422   24.5732   20.1283 N   0  0  0  0  0  4  0  0  0  0  0  0
  -51.4149   25.6697   19.1711 C   0  0  0  0  0  0  0  0  0  0  0  0
  -52.8108   25.9687   18.6695 C   0  0  0  0  0  0  0  0  0  0  0  0
  -55.5975   25.1366   15.1791 N   0  0  0  0  0  0  0  0  0  0  0  0
  -56.6342   25.0364   14.3266 C   0  0  0  0  0  0  0  0  0  0  0  0
  -57.8968   24.4131   14.6999 C   0  0  0  0  0  0  0  0  0  0  0  0
  -59.0592   25.1013   14.9676 C   0  0  0  0  0  0  0  0  0  0  0  0
  -60.1917   24.3972   15.3215 C   0  0  0  0  0  0  0  0  0  0  0  0
  -60.2189   23.0106   15.4221 C   0  0  0  0  0  0  0  0  0  0  0  0
  -59.0505   22.3297   15.1516 C   0  0  0  0  0  0  0  0  0  0  0  0
  -57.9172   23.0244   14.7985 C   0  0  0  0  0  0  0  0  0  0  0  0
  -61.4196   22.2808   15.8014 C   0  0  0  0  0  0  0  0  0  0  0  0
  -61.6102   20.9175   15.8471 C   0  0  0  0  0  0  0  0  0  0  0  0
  -62.8865   20.6796   16.2606 N   0  0  0  0  0  0  0  0  0  0  0  0
  -63.4962   21.8288   16.4733 N   0  0  0  0  0  0  0  0  0  0  0  0
  -62.6145   22.8353   16.1979 C   0  0  0  0  0  0  0  0  0  0  0  0
  1  2  1  0
  2  3  1  0
  3  4  2  0
  3  8  1  0
  4  5  1  0
  5  6  2  0
  6  7  1  0
  6  9  1  0
  7  8  2  0
  9 10  2  0
  9 22  1  0
 10 11  1  0
 11 12  2  0
 12 13  1  0
 12 21  1  0
 13 14  1  0
 15 14  1  6
 15 16  1  0
 15 20  1  0
 16 17  1  0
 17 18  1  0
 18 19  1  0
 19 20  1  0
 21 22  2  0
 22 23  1  0
 23 24  2  0
 23 28  1  0
 24 25  1  0
 25 26  2  0
 26 27  1  0
 26 29  1  0
 27 28  2  0
 29 30  2  0
 29 33  1  0
 30 31  1  0
 31 32  1  0
 32 33  2  0
M  CHG  2   1   1  18   1
M  END
$$$$
