
     RDKit          3D

 33 37  0  0  0  0  0  0  0  0999 V2000
  -63.0181   29.3147   14.1321 N   0  0  0  0  0  4  0  0  0  0  0  0
  -62.2017   29.6718   15.2738 C   0  0  0  0  0  0  0  0  0  0  0  0
  -60.8917   28.9651   15.1723 C   0  0  0  0  0  0  0  0  0  0  0  0
  -60.3811   28.3132   16.2844 C   0  0  0  0  0  0  0  0  0  0  0  0
  -59.1613   27.6583   16.1837 C   0  0  0  0  0  0  0  0  0  0  0  0
  -58.4468   27.6385   15.0143 C   0  0  0  0  0  0  0  0  0  0  0  0
  -58.9688   28.2900   13.9222 C   0  0  0  0  0  0  0  0  0  0  0  0
  -60.1952   28.9578   13.9939 C   0  0  0  0  0  0  0  0  0  0  0  0
  -57.1728   26.9465   14.9656 C   0  0  0  0  0  0  0  0  0  0  0  0
  -56.0576   27.5952   14.5041 N   0  0  0  0  0  0  0  0  0  0  0  0
  -54.8662   26.9843   14.4462 C   0  0  0  0  0  0  0  0  0  0  0  0
  -54.7906   25.6753   14.8662 C   0  0  0  0  0  0  0  0  0  0  0  0
  -53.5563   25.0574   14.8008 O   0  0  0  0  0  0  0  0  0  0  0  0
  -53.1733   23.9748   15.5927 C   0  0  0  0  0  0  0  0  0  0  0  0
  -53.5396   24.1386   17.0515 C   0  0  1  0  0  0  0  0  0  0  0  0
  -53.7948   22.8200   17.7203 C   0  0  0  0  0  0  0  0  0  0  0  0
  -52.6069   22.1857   18.3452 C   0  0  0  0  0  0  0  0  0  0  0  0
  -51.7889   23.1105   19.1042 N   0  0  0  0  0  4  0  0  0  0  0  0
  -51.2948   24.1099   18.1599 C   0  0  0  0  0  0  0  0  0  0  0  0
  -52.4855   24.9559   17.7648 C   0  0  0  0  0  0  0  0  0  0  0  0
  -55.8853   25.0434   15.3177 N   0  0  0  0  0  0  0  0  0  0  0  0
  -57.0923   25.6349   15.3857 C   0  0  0  0  0  0  0  0  0  0  0  0
  -58.2749   24.9451   15.8836 C   0  0  0  0  0  0  0  0  0  0  0  0
  -59.4360   24.7661   15.1651 C   0  0  0  0  0  0  0  0  0  0  0  0
  -60.4942   24.1025   15.7509 C   0  0  0  0  0  0  0  0  0  0  0  0
  -60.4466   23.5987   17.0460 C   0  0  0  0  0  0  0  0  0  0  0  0
  -59.2798   23.7819   17.7579 C   0  0  0  0  0  0  0  0  0  0  0  0
  -58.2205   24.4427   17.1810 C   0  0  0  0  0  0  0  0  0  0  0  0
  -61.5726   22.9048   17.6534 C   0  0  0  0  0  0  0  0  0  0  0  0
  -62.7707   22.5520   17.0729 C   0  0  0  0  0  0  0  0  0  0  0  0
  -63.5270   21.9151   18.0104 N   0  0  0  0  0  0  0  0  0  0  0  0
  -62.8561   21.8561   19.1436 N   0  0  0  0  0  0  0  0  0  0  0  0
  -61.6454   22.4594   18.9530 C   0  0  0  0  0  0  0  0  0  0  0  0
  1  2  1  0
  2  3  1  0
  3  4  2  0
  3  8  1  0
  4  5  1  0
  5  6  2  0
  6  7  1  0
  6  9  1  0
  7  8  2  0
  9 10  2  0
  9 22  1  0
 10 11  1  0
 11 12  2  0
 12 13  1  0
 12 21  1  0
 13 14  1  0
 15 14  1  6
 15 16  1  0
 15 20  1  0
 16 17  1  0
 17 18  1  0
 18 19  1  0
 19 20  1  0
 21 22  2  0
 22 23  1  0
 23 24  2  0
 23 28  1  0
 24 25  1  0
 25 26  2  0
 26 27  1  0
 26 29  1  0
 27 28  2  0
 29 30  2  0
 29 33  1  0
 30 31  1  0
 31 32  1  0
 32 33  2  0
M  CHG  2   1   1  18   1
M  END
$$$$
