
     RDKit          3D

 33 37  0  0  0  0  0  0  0  0999 V2000
  -50.0721   30.9678   19.7067 N   0  0  0  0  0  4  0  0  0  0  0  0
  -50.8575   29.7998   20.0485 C   0  0  0  0  0  0  0  0  0  0  0  0
  -51.4535   29.2356   18.8026 C   0  0  0  0  0  0  0  0  0  0  0  0
  -50.7062   29.2230   17.6348 C   0  0  0  0  0  0  0  0  0  0  0  0
  -51.2668   28.6976   16.4787 C   0  0  0  0  0  0  0  0  0  0  0  0
  -52.5400   28.1908   16.4595 C   0  0  0  0  0  0  0  0  0  0  0  0
  -53.2658   28.2114   17.6267 C   0  0  0  0  0  0  0  0  0  0  0  0
  -52.7272   28.7341   18.8065 C   0  0  0  0  0  0  0  0  0  0  0  0
  -53.0811   27.6613   15.2221 C   0  0  0  0  0  0  0  0  0  0  0  0
  -52.9444   28.3682   14.0563 N   0  0  0  0  0  0  0  0  0  0  0  0
  -53.4330   27.9070   12.8967 C   0  0  0  0  0  0  0  0  0  0  0  0
  -54.0823   26.6930   12.9067 C   0  0  0  0  0  0  0  0  0  0  0  0
  -54.5814   26.2295   11.7045 O   0  0  0  0  0  0  0  0  0  0  0  0
  -55.3281   25.0603   11.5587 C   0  0  0  0  0  0  0  0  0  0  0  0
  -55.9105   24.8886   10.1729 C   0  0  1  0  0  0  0  0  0  0  0  0
  -56.6773   23.6060   10.0384 C   0  0  0  0  0  0  0  0  0  0  0  0
  -58.1225   23.6941   10.3660 C   0  0  0  0  0  0  0  0  0  0  0  0
  -58.7737   24.8602    9.8030 N   0  0  0  0  0  4  0  0  0  0  0  0
  -58.1279   26.0304   10.3932 C   0  0  0  0  0  0  0  0  0  0  0  0
  -56.7370   26.0997    9.8013 C   0  0  0  0  0  0  0  0  0  0  0  0
  -54.2139   26.0035   14.0508 N   0  0  0  0  0  0  0  0  0  0  0  0
  -53.7322   26.4451   15.2274 C   0  0  0  0  0  0  0  0  0  0  0  0
  -53.8726   25.6880   16.4641 C   0  0  0  0  0  0  0  0  0  0  0  0
  -55.0721   25.2538   16.9829 C   0  0  0  0  0  0  0  0  0  0  0  0
  -55.0767   24.5517   18.1706 C   0  0  0  0  0  0  0  0  0  0  0  0
  -53.9169   24.2566   18.8785 C   0  0  0  0  0  0  0  0  0  0  0  0
  -52.7203   24.6948   18.3512 C   0  0  0  0  0  0  0  0  0  0  0  0
  -52.7074   25.3955   17.1679 C   0  0  0  0  0  0  0  0  0  0  0  0
  -53.9369   23.5193   20.1332 C   0  0  0  0  0  0  0  0  0  0  0  0
  -52.8710   23.0004   20.8344 C   0  0  0  0  0  0  0  0  0  0  0  0
  -53.3535   22.3927   21.9545 N   0  0  0  0  0  0  0  0  0  0  0  0
  -54.6663   22.5096   21.9816 N   0  0  0  0  0  0  0  0  0  0  0  0
  -55.0547   23.2009   20.8692 C   0  0  0  0  0  0  0  0  0  0  0  0
  1  2  1  0
  2  3  1  0
  3  4  2  0
  3  8  1  0
  4  5  1  0
  5  6  2  0
  6  7  1  0
  6  9  1  0
  7  8  2  0
  9 10  2  0
  9 22  1  0
 10 11  1  0
 11 12  2  0
 12 13  1  0
 12 21  1  0
 13 14  1  0
 15 14  1  1
 15 16  1  0
 15 20  1  0
 16 17  1  0
 17 18  1  0
 18 19  1  0
 19 20  1  0
 21 22  2  0
 22 23  1  0
 23 24  2  0
 23 28  1  0
 24 25  1  0
 25 26  2  0
 26 27  1  0
 26 29  1  0
 27 28  2  0
 29 30  2  0
 29 33  1  0
 30 31  1  0
 31 32  1  0
 32 33  2  0
M  CHG  2   1   1  18   1
M  END
$$$$
