
     RDKit          3D

 33 37  0  0  0  0  0  0  0  0999 V2000
  -62.8865   28.7984   14.1183 N   0  0  0  0  0  4  0  0  0  0  0  0
  -62.0901   28.7346   12.9103 C   0  0  0  0  0  0  0  0  0  0  0  0
  -60.7644   28.1327   13.2356 C   0  0  0  0  0  0  0  0  0  0  0  0
  -60.0174   27.5437   12.2269 C   0  0  0  0  0  0  0  0  0  0  0  0
  -58.7851   26.9845   12.5364 C   0  0  0  0  0  0  0  0  0  0  0  0
  -58.2861   26.9982   13.8127 C   0  0  0  0  0  0  0  0  0  0  0  0
  -59.0406   27.5866   14.7996 C   0  0  0  0  0  0  0  0  0  0  0  0
  -60.2852   28.1580   14.5176 C   0  0  0  0  0  0  0  0  0  0  0  0
  -56.9964   26.3918   14.0835 C   0  0  0  0  0  0  0  0  0  0  0  0
  -55.8523   26.9681   13.5973 N   0  0  0  0  0  0  0  0  0  0  0  0
  -54.6458   26.4329   13.8294 C   0  0  0  0  0  0  0  0  0  0  0  0
  -54.5845   25.2778   14.5762 C   0  0  0  0  0  0  0  0  0  0  0  0
  -53.3343   24.7366   14.8077 O   0  0  0  0  0  0  0  0  0  0  0  0
  -53.0976   23.6014   15.5830 C   0  0  0  0  0  0  0  0  0  0  0  0
  -53.4171   23.7978   17.0487 C   0  0  1  0  0  0  0  0  0  0  0  0
  -53.3594   22.5098   17.8161 C   0  0  0  0  0  0  0  0  0  0  0  0
  -52.0362   22.1803   18.4029 C   0  0  0  0  0  0  0  0  0  0  0  0
  -51.3916   23.3075   19.0468 N   0  0  0  0  0  4  0  0  0  0  0  0
  -51.1632   24.3116   18.0103 C   0  0  0  0  0  0  0  0  0  0  0  0
  -52.5218   24.8647   17.6388 C   0  0  0  0  0  0  0  0  0  0  0  0
  -55.7075   24.7165   15.0509 N   0  0  0  0  0  0  0  0  0  0  0  0
  -56.9302   25.2345   14.8316 C   0  0  0  0  0  0  0  0  0  0  0  0
  -58.1444   24.6237   15.3559 C   0  0  0  0  0  0  0  0  0  0  0  0
  -58.3842   24.3814   16.6901 C   0  0  0  0  0  0  0  0  0  0  0  0
  -59.5720   23.7866   17.0630 C   0  0  0  0  0  0  0  0  0  0  0  0
  -60.5512   23.4155   16.1483 C   0  0  0  0  0  0  0  0  0  0  0  0
  -60.3028   23.6625   14.8145 C   0  0  0  0  0  0  0  0  0  0  0  0
  -59.1210   24.2548   14.4346 C   0  0  0  0  0  0  0  0  0  0  0  0
  -61.7978   22.7841   16.5553 C   0  0  0  0  0  0  0  0  0  0  0  0
  -62.3093   22.6480   17.8268 C   0  0  0  0  0  0  0  0  0  0  0  0
  -63.5021   21.9951   17.7383 N   0  0  0  0  0  0  0  0  0  0  0  0
  -63.7546   21.7200   16.4741 N   0  0  0  0  0  0  0  0  0  0  0  0
  -62.7192   22.1955   15.7204 C   0  0  0  0  0  0  0  0  0  0  0  0
  1  2  1  0
  2  3  1  0
  3  4  2  0
  3  8  1  0
  4  5  1  0
  5  6  2  0
  6  7  1  0
  6  9  1  0
  7  8  2  0
  9 10  2  0
  9 22  1  0
 10 11  1  0
 11 12  2  0
 12 13  1  0
 12 21  1  0
 13 14  1  0
 15 14  1  6
 15 16  1  0
 15 20  1  0
 16 17  1  0
 17 18  1  0
 18 19  1  0
 19 20  1  0
 21 22  2  0
 22 23  1  0
 23 24  2  0
 23 28  1  0
 24 25  1  0
 25 26  2  0
 26 27  1  0
 26 29  1  0
 27 28  2  0
 29 30  2  0
 29 33  1  0
 30 31  1  0
 31 32  1  0
 32 33  2  0
M  CHG  2   1   1  18   1
M  END
$$$$
