
     RDKit          3D

 33 37  0  0  0  0  0  0  0  0999 V2000
  -63.4303   30.1781   15.0925 N   0  0  0  0  0  4  0  0  0  0  0  0
  -63.1329   28.7802   14.8576 C   0  0  0  0  0  0  0  0  0  0  0  0
  -61.6790   28.5476   15.0980 C   0  0  0  0  0  0  0  0  0  0  0  0
  -61.1588   28.7407   16.3686 C   0  0  0  0  0  0  0  0  0  0  0  0
  -59.8050   28.5235   16.5855 C   0  0  0  0  0  0  0  0  0  0  0  0
  -58.9674   28.1235   15.5773 C   0  0  0  0  0  0  0  0  0  0  0  0
  -59.5008   27.9369   14.3242 C   0  0  0  0  0  0  0  0  0  0  0  0
  -60.8607   28.1477   14.0760 C   0  0  0  0  0  0  0  0  0  0  0  0
  -57.5585   27.9190   15.8559 C   0  0  0  0  0  0  0  0  0  0  0  0
  -56.8406   28.8882   16.5061 N   0  0  0  0  0  0  0  0  0  0  0  0
  -55.5380   28.7302   16.7783 C   0  0  0  0  0  0  0  0  0  0  0  0
  -54.9333   27.5579   16.3839 C   0  0  0  0  0  0  0  0  0  0  0  0
  -53.5898   27.4083   16.6705 O   0  0  0  0  0  0  0  0  0  0  0  0
  -52.9346   26.1801   16.7605 C   0  0  0  0  0  0  0  0  0  0  0  0
  -52.7802   25.6847   18.1816 C   0  0  1  0  0  0  0  0  0  0  0  0
  -52.9874   24.2024   18.2878 C   0  0  0  0  0  0  0  0  0  0  0  0
  -51.7629   23.3782   18.1295 C   0  0  0  0  0  0  0  0  0  0  0  0
  -50.6210   23.8919   18.8595 N   0  0  0  0  0  4  0  0  0  0  0  0
  -50.3248   25.2111   18.3058 C   0  0  0  0  0  0  0  0  0  0  0  0
  -51.4476   26.1254   18.7453 C   0  0  0  0  0  0  0  0  0  0  0  0
  -55.6401   26.6108   15.7473 N   0  0  0  0  0  0  0  0  0  0  0  0
  -56.9486   26.7456   15.4628 C   0  0  0  0  0  0  0  0  0  0  0  0
  -57.7112   25.7105   14.7778 C   0  0  0  0  0  0  0  0  0  0  0  0
  -57.4395   25.2502   13.5087 C   0  0  0  0  0  0  0  0  0  0  0  0
  -58.2424   24.2703   12.9621 C   0  0  0  0  0  0  0  0  0  0  0  0
  -59.3250   23.7171   13.6368 C   0  0  0  0  0  0  0  0  0  0  0  0
  -59.5893   24.1836   14.9074 C   0  0  0  0  0  0  0  0  0  0  0  0
  -58.7937   25.1605   15.4591 C   0  0  0  0  0  0  0  0  0  0  0  0
  -60.1669   22.6872   13.0461 C   0  0  0  0  0  0  0  0  0  0  0  0
  -61.1234   21.9108   13.6619 C   0  0  0  0  0  0  0  0  0  0  0  0
  -61.6666   21.0824   12.7262 N   0  0  0  0  0  0  0  0  0  0  0  0
  -61.0933   21.3076   11.5607 N   0  0  0  0  0  0  0  0  0  0  0  0
  -60.1630   22.2938   11.7278 C   0  0  0  0  0  0  0  0  0  0  0  0
  1  2  1  0
  2  3  1  0
  3  4  2  0
  3  8  1  0
  4  5  1  0
  5  6  2  0
  6  7  1  0
  6  9  1  0
  7  8  2  0
  9 10  2  0
  9 22  1  0
 10 11  1  0
 11 12  2  0
 12 13  1  0
 12 21  1  0
 13 14  1  0
 15 14  1  6
 15 16  1  0
 15 20  1  0
 16 17  1  0
 17 18  1  0
 18 19  1  0
 19 20  1  0
 21 22  2  0
 22 23  1  0
 23 24  2  0
 23 28  1  0
 24 25  1  0
 25 26  2  0
 26 27  1  0
 26 29  1  0
 27 28  2  0
 29 30  2  0
 29 33  1  0
 30 31  1  0
 31 32  1  0
 32 33  2  0
M  CHG  2   1   1  18   1
M  END
$$$$
