
     RDKit          3D

 33 37  0  0  0  0  0  0  0  0999 V2000
  -52.2541   26.2609   22.1850 N   0  0  0  0  0  4  0  0  0  0  0  0
  -52.0295   24.9979   21.5126 C   0  0  0  0  0  0  0  0  0  0  0  0
  -52.6836   25.0401   20.1724 C   0  0  0  0  0  0  0  0  0  0  0  0
  -51.9069   24.9146   19.0307 C   0  0  0  0  0  0  0  0  0  0  0  0
  -52.5214   24.9556   17.7866 C   0  0  0  0  0  0  0  0  0  0  0  0
  -53.8759   25.1173   17.6555 C   0  0  0  0  0  0  0  0  0  0  0  0
  -54.6299   25.2399   18.7983 C   0  0  0  0  0  0  0  0  0  0  0  0
  -54.0386   25.2020   20.0649 C   0  0  0  0  0  0  0  0  0  0  0  0
  -54.4665   25.1621   16.3313 C   0  0  0  0  0  0  0  0  0  0  0  0
  -53.8489   24.5310   15.2835 N   0  0  0  0  0  0  0  0  0  0  0  0
  -54.3683   24.5537   14.0483 C   0  0  0  0  0  0  0  0  0  0  0  0
  -55.5499   25.2341   13.8570 C   0  0  0  0  0  0  0  0  0  0  0  0
  -56.0741   25.2498   12.5786 O   0  0  0  0  0  0  0  0  0  0  0  0
  -55.7054   24.3662   11.5640 C   0  0  0  0  0  0  0  0  0  0  0  0
  -55.1349   25.0565   10.3446 C   0  0  1  0  0  0  0  0  0  0  0  0
  -54.9418   24.1078    9.1982 C   0  0  0  0  0  0  0  0  0  0  0  0
  -56.1002   23.9805    8.2787 C   0  0  0  0  0  0  0  0  0  0  0  0
  -56.7038   25.2509    7.9288 N   0  0  0  0  0  4  0  0  0  0  0  0
  -57.2039   25.8368    9.1703 C   0  0  0  0  0  0  0  0  0  0  0  0
  -55.9890   26.2482    9.9730 C   0  0  0  0  0  0  0  0  0  0  0  0
  -56.1518   25.8508   14.8860 N   0  0  0  0  0  0  0  0  0  0  0  0
  -55.6505   25.8424   16.1350 C   0  0  0  0  0  0  0  0  0  0  0  0
  -56.3131   26.5081   17.2486 C   0  0  0  0  0  0  0  0  0  0  0  0
  -55.7262   27.4618   18.0502 C   0  0  0  0  0  0  0  0  0  0  0  0
  -56.4555   28.0141   19.0829 C   0  0  0  0  0  0  0  0  0  0  0  0
  -57.7695   27.6520   19.3583 C   0  0  0  0  0  0  0  0  0  0  0  0
  -58.3493   26.6967   18.5501 C   0  0  0  0  0  0  0  0  0  0  0  0
  -57.6288   26.1412   17.5187 C   0  0  0  0  0  0  0  0  0  0  0  0
  -58.5256   28.2392   20.4545 C   0  0  0  0  0  0  0  0  0  0  0  0
  -59.8137   27.9548   20.8506 C   0  0  0  0  0  0  0  0  0  0  0  0
  -60.1125   28.7399   21.9234 N   0  0  0  0  0  0  0  0  0  0  0  0
  -59.0725   29.4971   22.2114 N   0  0  0  0  0  0  0  0  0  0  0  0
  -58.0775   29.2095   21.3207 C   0  0  0  0  0  0  0  0  0  0  0  0
  1  2  1  0
  2  3  1  0
  3  4  2  0
  3  8  1  0
  4  5  1  0
  5  6  2  0
  6  7  1  0
  6  9  1  0
  7  8  2  0
  9 10  2  0
  9 22  1  0
 10 11  1  0
 11 12  2  0
 12 13  1  0
 12 21  1  0
 13 14  1  0
 15 14  1  1
 15 16  1  0
 15 20  1  0
 16 17  1  0
 17 18  1  0
 18 19  1  0
 19 20  1  0
 21 22  2  0
 22 23  1  0
 23 24  2  0
 23 28  1  0
 24 25  1  0
 25 26  2  0
 26 27  1  0
 26 29  1  0
 27 28  2  0
 29 30  2  0
 29 33  1  0
 30 31  1  0
 31 32  1  0
 32 33  2  0
M  CHG  2   1   1  18   1
M  END
$$$$
