
     RDKit          3D

 33 37  0  0  0  0  0  0  0  0999 V2000
  -49.1943   31.2356   19.5485 N   0  0  0  0  0  4  0  0  0  0  0  0
  -49.0529   29.7946   19.5848 C   0  0  0  0  0  0  0  0  0  0  0  0
  -50.0576   29.1862   18.6650 C   0  0  0  0  0  0  0  0  0  0  0  0
  -51.4067   29.2805   18.9709 C   0  0  0  0  0  0  0  0  0  0  0  0
  -52.3365   28.7114   18.1115 C   0  0  0  0  0  0  0  0  0  0  0  0
  -51.9575   28.0580   16.9680 C   0  0  0  0  0  0  0  0  0  0  0  0
  -50.6158   27.9746   16.6809 C   0  0  0  0  0  0  0  0  0  0  0  0
  -49.6565   28.5384   17.5278 C   0  0  0  0  0  0  0  0  0  0  0  0
  -52.9696   27.4734   16.1087 C   0  0  0  0  0  0  0  0  0  0  0  0
  -53.3284   28.1029   14.9458 N   0  0  0  0  0  0  0  0  0  0  0  0
  -54.2597   27.5894   14.1305 C   0  0  0  0  0  0  0  0  0  0  0  0
  -54.8529   26.4016   14.4947 C   0  0  0  0  0  0  0  0  0  0  0  0
  -55.8118   25.8835   13.6452 O   0  0  0  0  0  0  0  0  0  0  0  0
  -56.6285   24.7940   13.9484 C   0  0  0  0  0  0  0  0  0  0  0  0
  -57.6682   25.0985   15.0045 C   0  0  1  0  0  0  0  0  0  0  0  0
  -58.6750   26.1052   14.5309 C   0  0  0  0  0  0  0  0  0  0  0  0
  -59.8748   25.5373   13.8661 C   0  0  0  0  0  0  0  0  0  0  0  0
  -60.4313   24.3911   14.5570 N   0  0  0  0  0  4  0  0  0  0  0  0
  -59.4036   23.3526   14.5474 C   0  0  0  0  0  0  0  0  0  0  0  0
  -58.3120   23.8175   15.4865 C   0  0  0  0  0  0  0  0  0  0  0  0
  -54.4986   25.7879   15.6347 N   0  0  0  0  0  0  0  0  0  0  0  0
  -53.5664   26.2831   16.4697 C   0  0  0  0  0  0  0  0  0  0  0  0
  -53.1817   25.6080   17.7019 C   0  0  0  0  0  0  0  0  0  0  0  0
  -51.8951   25.2328   18.0188 C   0  0  0  0  0  0  0  0  0  0  0  0
  -51.6575   24.5888   19.2156 C   0  0  0  0  0  0  0  0  0  0  0  0
  -52.6640   24.2966   20.1294 C   0  0  0  0  0  0  0  0  0  0  0  0
  -53.9492   24.6766   19.8040 C   0  0  0  0  0  0  0  0  0  0  0  0
  -54.1943   25.3186   18.6127 C   0  0  0  0  0  0  0  0  0  0  0  0
  -52.3999   23.6121   21.3863 C   0  0  0  0  0  0  0  0  0  0  0  0
  -51.1861   23.2170   21.9035 C   0  0  0  0  0  0  0  0  0  0  0  0
  -51.4107   22.6158   23.1055 N   0  0  0  0  0  0  0  0  0  0  0  0
  -52.7044   22.6191   23.3584 N   0  0  0  0  0  0  0  0  0  0  0  0
  -53.3404   23.2280   22.3140 C   0  0  0  0  0  0  0  0  0  0  0  0
  1  2  1  0
  2  3  1  0
  3  4  2  0
  3  8  1  0
  4  5  1  0
  5  6  2  0
  6  7  1  0
  6  9  1  0
  7  8  2  0
  9 10  2  0
  9 22  1  0
 10 11  1  0
 11 12  2  0
 12 13  1  0
 12 21  1  0
 13 14  1  0
 15 14  1  6
 15 16  1  0
 15 20  1  0
 16 17  1  0
 17 18  1  0
 18 19  1  0
 19 20  1  0
 21 22  2  0
 22 23  1  0
 23 24  2  0
 23 28  1  0
 24 25  1  0
 25 26  2  0
 26 27  1  0
 26 29  1  0
 27 28  2  0
 29 30  2  0
 29 33  1  0
 30 31  1  0
 31 32  1  0
 32 33  2  0
M  CHG  2   1   1  18   1
M  END
$$$$
