
     RDKit          3D

 33 37  0  0  0  0  0  0  0  0999 V2000
  -50.5497   33.0254   10.5483 N   0  0  0  0  0  4  0  0  0  0  0  0
  -51.9900   32.9157   10.6543 C   0  0  0  0  0  0  0  0  0  0  0  0
  -52.3278   31.6518   11.3713 C   0  0  0  0  0  0  0  0  0  0  0  0
  -53.3663   30.8603   10.9050 C   0  0  0  0  0  0  0  0  0  0  0  0
  -53.6762   29.6860   11.5772 C   0  0  0  0  0  0  0  0  0  0  0  0
  -52.9836   29.2870   12.6903 C   0  0  0  0  0  0  0  0  0  0  0  0
  -51.9571   30.0841   13.1380 C   0  0  0  0  0  0  0  0  0  0  0  0
  -51.6221   31.2723   12.4812 C   0  0  0  0  0  0  0  0  0  0  0  0
  -53.3541   28.0549   13.3604 C   0  0  0  0  0  0  0  0  0  0  0  0
  -53.4434   26.8875   12.6487 N   0  0  0  0  0  0  0  0  0  0  0  0
  -53.7833   25.7328   13.2377 C   0  0  0  0  0  0  0  0  0  0  0  0
  -54.0433   25.7494   14.5897 C   0  0  0  0  0  0  0  0  0  0  0  0
  -54.3929   24.5521   15.1842 O   0  0  0  0  0  0  0  0  0  0  0  0
  -54.2601   24.2792   16.5458 C   0  0  0  0  0  0  0  0  0  0  0  0
  -52.9933   23.5254   16.8863 C   0  0  1  0  0  0  0  0  0  0  0  0
  -52.6436   23.6386   18.3411 C   0  0  0  0  0  0  0  0  0  0  0  0
  -53.2131   22.5815   19.2140 C   0  0  0  0  0  0  0  0  0  0  0  0
  -53.0997   21.2480   18.6576 N   0  0  0  0  0  4  0  0  0  0  0  0
  -53.8711   21.2414   17.4168 C   0  0  0  0  0  0  0  0  0  0  0  0
  -53.1022   22.0886   16.4265 C   0  0  0  0  0  0  0  0  0  0  0  0
  -53.9546   26.8951   15.2834 N   0  0  0  0  0  0  0  0  0  0  0  0
  -53.6152   28.0669   14.7151 C   0  0  0  0  0  0  0  0  0  0  0  0
  -53.5140   29.3053   15.4756 C   0  0  0  0  0  0  0  0  0  0  0  0
  -52.6901   29.4893   16.5636 C   0  0  0  0  0  0  0  0  0  0  0  0
  -52.6900   30.7087   17.2090 C   0  0  0  0  0  0  0  0  0  0  0  0
  -53.4895   31.7744   16.8110 C   0  0  0  0  0  0  0  0  0  0  0  0
  -54.3109   31.5814   15.7201 C   0  0  0  0  0  0  0  0  0  0  0  0
  -54.3169   30.3686   15.0715 C   0  0  0  0  0  0  0  0  0  0  0  0
  -53.4831   33.0541   17.5042 C   0  0  0  0  0  0  0  0  0  0  0  0
  -54.3462   34.1153   17.3436 C   0  0  0  0  0  0  0  0  0  0  0  0
  -53.9686   35.1049   18.2008 N   0  0  0  0  0  0  0  0  0  0  0  0
  -52.9136   34.7087   18.8848 N   0  0  0  0  0  0  0  0  0  0  0  0
  -52.5912   33.4458   18.4757 C   0  0  0  0  0  0  0  0  0  0  0  0
  1  2  1  0
  2  3  1  0
  3  4  2  0
  3  8  1  0
  4  5  1  0
  5  6  2  0
  6  7  1  0
  6  9  1  0
  7  8  2  0
  9 10  2  0
  9 22  1  0
 10 11  1  0
 11 12  2  0
 12 13  1  0
 12 21  1  0
 13 14  1  0
 15 14  1  1
 15 16  1  0
 15 20  1  0
 16 17  1  0
 17 18  1  0
 18 19  1  0
 19 20  1  0
 21 22  2  0
 22 23  1  0
 23 24  2  0
 23 28  1  0
 24 25  1  0
 25 26  2  0
 26 27  1  0
 26 29  1  0
 27 28  2  0
 29 30  2  0
 29 33  1  0
 30 31  1  0
 31 32  1  0
 32 33  2  0
M  CHG  2   1   1  18   1
M  END
$$$$
