
     RDKit          3D

 33 37  0  0  0  0  0  0  0  0999 V2000
  -57.5061   26.1458   14.5327 N   0  0  0  0  0  4  0  0  0  0  0  0
  -56.2067   26.3742   13.9351 C   0  0  0  0  0  0  0  0  0  0  0  0
  -55.1592   26.2430   14.9893 C   0  0  0  0  0  0  0  0  0  0  0  0
  -55.4636   25.5923   16.1752 C   0  0  0  0  0  0  0  0  0  0  0  0
  -54.4848   25.4743   17.1525 C   0  0  0  0  0  0  0  0  0  0  0  0
  -53.2248   25.9841   16.9776 C   0  0  0  0  0  0  0  0  0  0  0  0
  -52.9412   26.6258   15.7955 C   0  0  0  0  0  0  0  0  0  0  0  0
  -53.9068   26.7595   14.7930 C   0  0  0  0  0  0  0  0  0  0  0  0
  -52.2417   25.8410   18.0346 C   0  0  0  0  0  0  0  0  0  0  0  0
  -50.9942   25.3517   17.7489 N   0  0  0  0  0  0  0  0  0  0  0  0
  -50.0637   25.2072   18.7024 C   0  0  0  0  0  0  0  0  0  0  0  0
  -50.3965   25.5662   19.9893 C   0  0  0  0  0  0  0  0  0  0  0  0
  -49.4279   25.4117   20.9626 O   0  0  0  0  0  0  0  0  0  0  0  0
  -49.6891   25.0547   22.2856 C   0  0  0  0  0  0  0  0  0  0  0  0
  -48.8709   23.8745   22.7618 C   0  0  1  0  0  0  0  0  0  0  0  0
  -47.4164   24.2158   22.9003 C   0  0  0  0  0  0  0  0  0  0  0  0
  -47.0082   24.7216   24.2349 C   0  0  0  0  0  0  0  0  0  0  0  0
  -47.5685   23.9651   25.3369 N   0  0  0  0  0  4  0  0  0  0  0  0
  -49.0203   24.1057   25.2503 C   0  0  0  0  0  0  0  0  0  0  0  0
  -49.4587   23.3139   24.0377 C   0  0  0  0  0  0  0  0  0  0  0  0
  -51.6196   26.0453   20.2651 N   0  0  0  0  0  0  0  0  0  0  0  0
  -52.5708   26.1998   19.3255 C   0  0  0  0  0  0  0  0  0  0  0  0
  -53.8940   26.7271   19.6309 C   0  0  0  0  0  0  0  0  0  0  0  0
  -54.6845   26.2988   20.6740 C   0  0  0  0  0  0  0  0  0  0  0  0
  -55.9270   26.8704   20.8554 C   0  0  0  0  0  0  0  0  0  0  0  0
  -56.4272   27.8698   20.0280 C   0  0  0  0  0  0  0  0  0  0  0  0
  -55.6285   28.2929   18.9863 C   0  0  0  0  0  0  0  0  0  0  0  0
  -54.3887   27.7278   18.7987 C   0  0  0  0  0  0  0  0  0  0  0  0
  -57.7422   28.4606   20.2279 C   0  0  0  0  0  0  0  0  0  0  0  0
  -58.7131   28.0938   21.1333 C   0  0  0  0  0  0  0  0  0  0  0  0
  -59.7816   28.9237   20.9714 N   0  0  0  0  0  0  0  0  0  0  0  0
  -59.5202   29.7868   20.0099 N   0  0  0  0  0  0  0  0  0  0  0  0
  -58.2675   29.5248   19.5322 C   0  0  0  0  0  0  0  0  0  0  0  0
  1  2  1  0
  2  3  1  0
  3  4  2  0
  3  8  1  0
  4  5  1  0
  5  6  2  0
  6  7  1  0
  6  9  1  0
  7  8  2  0
  9 10  2  0
  9 22  1  0
 10 11  1  0
 11 12  2  0
 12 13  1  0
 12 21  1  0
 13 14  1  0
 15 14  1  1
 15 16  1  0
 15 20  1  0
 16 17  1  0
 17 18  1  0
 18 19  1  0
 19 20  1  0
 21 22  2  0
 22 23  1  0
 23 24  2  0
 23 28  1  0
 24 25  1  0
 25 26  2  0
 26 27  1  0
 26 29  1  0
 27 28  2  0
 29 30  2  0
 29 33  1  0
 30 31  1  0
 31 32  1  0
 32 33  2  0
M  CHG  2   1   1  18   1
M  END
$$$$
