
     RDKit          3D

 33 37  0  0  0  0  0  0  0  0999 V2000
  -62.8466   29.7753   16.4869 N   0  0  0  0  0  4  0  0  0  0  0  0
  -63.2714   28.5368   15.8678 C   0  0  0  0  0  0  0  0  0  0  0  0
  -62.1334   27.9710   15.0864 C   0  0  0  0  0  0  0  0  0  0  0  0
  -60.9715   28.7132   14.9399 C   0  0  0  0  0  0  0  0  0  0  0  0
  -59.9167   28.1815   14.2108 C   0  0  0  0  0  0  0  0  0  0  0  0
  -59.9922   26.9422   13.6308 C   0  0  0  0  0  0  0  0  0  0  0  0
  -61.1518   26.2207   13.7867 C   0  0  0  0  0  0  0  0  0  0  0  0
  -62.2306   26.7304   14.5159 C   0  0  0  0  0  0  0  0  0  0  0  0
  -58.8638   26.4372   12.8718 C   0  0  0  0  0  0  0  0  0  0  0  0
  -58.1592   27.2773   12.0501 N   0  0  0  0  0  0  0  0  0  0  0  0
  -57.1123   26.8420   11.3356 C   0  0  0  0  0  0  0  0  0  0  0  0
  -56.7593   25.5161   11.4492 C   0  0  0  0  0  0  0  0  0  0  0  0
  -55.6783   25.0806   10.7068 O   0  0  0  0  0  0  0  0  0  0  0  0
  -55.2202   23.7633   10.6785 C   0  0  0  0  0  0  0  0  0  0  0  0
  -56.0022   22.8757    9.7353 C   0  0  1  0  0  0  0  0  0  0  0  0
  -55.9852   23.3952    8.3277 C   0  0  0  0  0  0  0  0  0  0  0  0
  -54.8730   22.8954    7.4810 C   0  0  0  0  0  0  0  0  0  0  0  0
  -54.6408   21.4708    7.6120 N   0  0  0  0  0  4  0  0  0  0  0  0
  -54.2623   21.2311    9.0027 C   0  0  0  0  0  0  0  0  0  0  0  0
  -55.5087   21.4493    9.8326 C   0  0  0  0  0  0  0  0  0  0  0  0
  -57.4520   24.6964   12.2553 N   0  0  0  0  0  0  0  0  0  0  0  0
  -58.5064   25.1093   12.9828 C   0  0  0  0  0  0  0  0  0  0  0  0
  -59.2492   24.2155   13.8612 C   0  0  0  0  0  0  0  0  0  0  0  0
  -60.0084   23.1500   13.4313 C   0  0  0  0  0  0  0  0  0  0  0  0
  -60.6755   22.3803   14.3619 C   0  0  0  0  0  0  0  0  0  0  0  0
  -60.6188   22.6291   15.7288 C   0  0  0  0  0  0  0  0  0  0  0  0
  -59.8556   23.6977   16.1502 C   0  0  0  0  0  0  0  0  0  0  0  0
  -59.1878   24.4700   15.2287 C   0  0  0  0  0  0  0  0  0  0  0  0
  -61.3318   21.8118   16.6993 C   0  0  0  0  0  0  0  0  0  0  0  0
  -62.0396   20.6508   16.4804 C   0  0  0  0  0  0  0  0  0  0  0  0
  -62.5383   20.2244   17.6746 N   0  0  0  0  0  0  0  0  0  0  0  0
  -62.1742   21.0647   18.6228 N   0  0  0  0  0  0  0  0  0  0  0  0
  -61.4280   22.0552   18.0499 C   0  0  0  0  0  0  0  0  0  0  0  0
  1  2  1  0
  2  3  1  0
  3  4  2  0
  3  8  1  0
  4  5  1  0
  5  6  2  0
  6  7  1  0
  6  9  1  0
  7  8  2  0
  9 10  2  0
  9 22  1  0
 10 11  1  0
 11 12  2  0
 12 13  1  0
 12 21  1  0
 13 14  1  0
 15 14  1  1
 15 16  1  0
 15 20  1  0
 16 17  1  0
 17 18  1  0
 18 19  1  0
 19 20  1  0
 21 22  2  0
 22 23  1  0
 23 24  2  0
 23 28  1  0
 24 25  1  0
 25 26  2  0
 26 27  1  0
 26 29  1  0
 27 28  2  0
 29 30  2  0
 29 33  1  0
 30 31  1  0
 31 32  1  0
 32 33  2  0
M  CHG  2   1   1  18   1
M  END
$$$$
