
     RDKit          3D

 33 37  0  0  0  0  0  0  0  0999 V2000
  -51.4163   31.6072   14.7220 N   0  0  0  0  0  4  0  0  0  0  0  0
  -50.7595   30.3633   15.0670 C   0  0  0  0  0  0  0  0  0  0  0  0
  -51.7719   29.2675   15.0760 C   0  0  0  0  0  0  0  0  0  0  0  0
  -52.4259   28.9536   16.2575 C   0  0  0  0  0  0  0  0  0  0  0  0
  -53.3661   27.9323   16.2595 C   0  0  0  0  0  0  0  0  0  0  0  0
  -53.6659   27.2248   15.1247 C   0  0  0  0  0  0  0  0  0  0  0  0
  -53.0077   27.5501   13.9626 C   0  0  0  0  0  0  0  0  0  0  0  0
  -52.0560   28.5741   13.9304 C   0  0  0  0  0  0  0  0  0  0  0  0
  -54.6505   26.1611   15.1836 C   0  0  0  0  0  0  0  0  0  0  0  0
  -55.6161   26.0664   14.2161 N   0  0  0  0  0  0  0  0  0  0  0  0
  -56.5400   25.0960   14.2418 C   0  0  0  0  0  0  0  0  0  0  0  0
  -56.4939   24.1876   15.2755 C   0  0  0  0  0  0  0  0  0  0  0  0
  -57.4525   23.1926   15.2900 O   0  0  0  0  0  0  0  0  0  0  0  0
  -58.4674   23.0889   16.2415 C   0  0  0  0  0  0  0  0  0  0  0  0
  -59.7106   22.4016   15.7209 C   0  0  1  0  0  0  0  0  0  0  0  0
  -59.4650   20.9556   15.4044 C   0  0  0  0  0  0  0  0  0  0  0  0
  -59.7109   20.0112   16.5231 C   0  0  0  0  0  0  0  0  0  0  0  0
  -60.9357   20.2808   17.2496 N   0  0  0  0  0  4  0  0  0  0  0  0
  -60.7948   21.6120   17.8351 C   0  0  0  0  0  0  0  0  0  0  0  0
  -60.8573   22.5966   16.6878 C   0  0  0  0  0  0  0  0  0  0  0  0
  -55.5463   24.2837   16.2212 N   0  0  0  0  0  0  0  0  0  0  0  0
  -54.6079   25.2485   16.2174 C   0  0  0  0  0  0  0  0  0  0  0  0
  -53.5780   25.3425   17.2434 C   0  0  0  0  0  0  0  0  0  0  0  0
  -52.2237   25.3005   16.9977 C   0  0  0  0  0  0  0  0  0  0  0  0
  -51.3445   25.3897   18.0572 C   0  0  0  0  0  0  0  0  0  0  0  0
  -51.7623   25.5221   19.3768 C   0  0  0  0  0  0  0  0  0  0  0  0
  -53.1203   25.5640   19.6135 C   0  0  0  0  0  0  0  0  0  0  0  0
  -54.0032   25.4753   18.5626 C   0  0  0  0  0  0  0  0  0  0  0  0
  -50.8238   25.6101   20.4857 C   0  0  0  0  0  0  0  0  0  0  0  0
  -49.4493   25.6822   20.4358 C   0  0  0  0  0  0  0  0  0  0  0  0
  -48.9800   25.7547   21.7130 N   0  0  0  0  0  0  0  0  0  0  0  0
  -49.9966   25.7310   22.5519 N   0  0  0  0  0  0  0  0  0  0  0  0
  -51.1481   25.6421   21.8223 C   0  0  0  0  0  0  0  0  0  0  0  0
  1  2  1  0
  2  3  1  0
  3  4  2  0
  3  8  1  0
  4  5  1  0
  5  6  2  0
  6  7  1  0
  6  9  1  0
  7  8  2  0
  9 10  2  0
  9 22  1  0
 10 11  1  0
 11 12  2  0
 12 13  1  0
 12 21  1  0
 13 14  1  0
 15 14  1  1
 15 16  1  0
 15 20  1  0
 16 17  1  0
 17 18  1  0
 18 19  1  0
 19 20  1  0
 21 22  2  0
 22 23  1  0
 23 24  2  0
 23 28  1  0
 24 25  1  0
 25 26  2  0
 26 27  1  0
 26 29  1  0
 27 28  2  0
 29 30  2  0
 29 33  1  0
 30 31  1  0
 31 32  1  0
 32 33  2  0
M  CHG  2   1   1  18   1
M  END
$$$$
