
     RDKit          3D

 33 37  0  0  0  0  0  0  0  0999 V2000
  -63.8784   30.7632   17.7721 N   0  0  0  0  0  4  0  0  0  0  0  0
  -63.4685   29.3932   18.0024 C   0  0  0  0  0  0  0  0  0  0  0  0
  -62.5031   28.9913   16.9384 C   0  0  0  0  0  0  0  0  0  0  0  0
  -61.3060   29.6787   16.8094 C   0  0  0  0  0  0  0  0  0  0  0  0
  -60.4124   29.3005   15.8166 C   0  0  0  0  0  0  0  0  0  0  0  0
  -60.6812   28.2656   14.9594 C   0  0  0  0  0  0  0  0  0  0  0  0
  -61.8729   27.5956   15.1024 C   0  0  0  0  0  0  0  0  0  0  0  0
  -62.7922   27.9540   16.0932 C   0  0  0  0  0  0  0  0  0  0  0  0
  -59.7166   27.9168   13.9337 C   0  0  0  0  0  0  0  0  0  0  0  0
  -59.1623   28.8964   13.1523 N   0  0  0  0  0  0  0  0  0  0  0  0
  -58.2687   28.6074   12.1963 C   0  0  0  0  0  0  0  0  0  0  0  0
  -57.9184   27.2879   12.0174 C   0  0  0  0  0  0  0  0  0  0  0  0
  -56.9964   27.0040   11.0281 O   0  0  0  0  0  0  0  0  0  0  0  0
  -56.9147   25.7865   10.3521 C   0  0  0  0  0  0  0  0  0  0  0  0
  -55.5443   25.5122    9.7726 C   0  0  1  0  0  0  0  0  0  0  0  0
  -54.4970   25.3809   10.8390 C   0  0  0  0  0  0  0  0  0  0  0  0
  -54.2838   24.0043   11.3520 C   0  0  0  0  0  0  0  0  0  0  0  0
  -54.2261   23.0001   10.3085 N   0  0  0  0  0  4  0  0  0  0  0  0
  -55.5247   23.0121    9.6389 C   0  0  0  0  0  0  0  0  0  0  0  0
  -55.5962   24.3073    8.8598 C   0  0  0  0  0  0  0  0  0  0  0  0
  -58.4635   26.3312   12.7850 N   0  0  0  0  0  0  0  0  0  0  0  0
  -59.3624   26.5960   13.7511 C   0  0  0  0  0  0  0  0  0  0  0  0
  -59.9447   25.5532   14.5852 C   0  0  0  0  0  0  0  0  0  0  0  0
  -60.7519   24.5394   14.1194 C   0  0  0  0  0  0  0  0  0  0  0  0
  -61.2523   23.6139   15.0119 C   0  0  0  0  0  0  0  0  0  0  0  0
  -60.9789   23.6535   16.3746 C   0  0  0  0  0  0  0  0  0  0  0  0
  -60.1692   24.6718   16.8321 C   0  0  0  0  0  0  0  0  0  0  0  0
  -59.6666   25.5985   15.9487 C   0  0  0  0  0  0  0  0  0  0  0  0
  -61.5177   22.6733   17.3058 C   0  0  0  0  0  0  0  0  0  0  0  0
  -62.4303   21.6723   17.0568 C   0  0  0  0  0  0  0  0  0  0  0  0
  -62.6436   20.9920   18.2180 N   0  0  0  0  0  0  0  0  0  0  0  0
  -61.9078   21.5227   19.1744 N   0  0  0  0  0  0  0  0  0  0  0  0
  -61.2019   22.5630   18.6402 C   0  0  0  0  0  0  0  0  0  0  0  0
  1  2  1  0
  2  3  1  0
  3  4  2  0
  3  8  1  0
  4  5  1  0
  5  6  2  0
  6  7  1  0
  6  9  1  0
  7  8  2  0
  9 10  2  0
  9 22  1  0
 10 11  1  0
 11 12  2  0
 12 13  1  0
 12 21  1  0
 13 14  1  0
 15 14  1  1
 15 16  1  0
 15 20  1  0
 16 17  1  0
 17 18  1  0
 18 19  1  0
 19 20  1  0
 21 22  2  0
 22 23  1  0
 23 24  2  0
 23 28  1  0
 24 25  1  0
 25 26  2  0
 26 27  1  0
 26 29  1  0
 27 28  2  0
 29 30  2  0
 29 33  1  0
 30 31  1  0
 31 32  1  0
 32 33  2  0
M  CHG  2   1   1  18   1
M  END
$$$$
