
     RDKit          3D

 33 37  0  0  0  0  0  0  0  0999 V2000
  -60.6644   24.6947   20.5926 N   0  0  0  0  0  4  0  0  0  0  0  0
  -59.9150   23.5455   20.1285 C   0  0  0  0  0  0  0  0  0  0  0  0
  -59.3449   23.8502   18.7839 C   0  0  0  0  0  0  0  0  0  0  0  0
  -59.3494   22.8697   17.8036 C   0  0  0  0  0  0  0  0  0  0  0  0
  -58.8166   23.1592   16.5549 C   0  0  0  0  0  0  0  0  0  0  0  0
  -58.2854   24.3886   16.2640 C   0  0  0  0  0  0  0  0  0  0  0  0
  -58.2897   25.3483   17.2482 C   0  0  0  0  0  0  0  0  0  0  0  0
  -58.8197   25.0855   18.5151 C   0  0  0  0  0  0  0  0  0  0  0  0
  -57.7334   24.6360   14.9455 C   0  0  0  0  0  0  0  0  0  0  0  0
  -58.5545   24.6416   13.8486 N   0  0  0  0  0  0  0  0  0  0  0  0
  -58.0760   24.8667   12.6172 C   0  0  0  0  0  0  0  0  0  0  0  0
  -56.7249   25.0942   12.4809 C   0  0  0  0  0  0  0  0  0  0  0  0
  -56.2449   25.3245   11.2058 O   0  0  0  0  0  0  0  0  0  0  0  0
  -55.1146   26.0883   10.9146 C   0  0  0  0  0  0  0  0  0  0  0  0
  -54.5178   25.7845    9.5580 C   0  0  1  0  0  0  0  0  0  0  0  0
  -55.5547   25.7820    8.4735 C   0  0  0  0  0  0  0  0  0  0  0  0
  -55.7787   27.0897    7.8075 C   0  0  0  0  0  0  0  0  0  0  0  0
  -54.5528   27.7914    7.4826 N   0  0  0  0  0  4  0  0  0  0  0  0
  -53.8750   28.0647    8.7478 C   0  0  0  0  0  0  0  0  0  0  0  0
  -53.3765   26.7334    9.2664 C   0  0  0  0  0  0  0  0  0  0  0  0
  -55.9240   25.0880   13.5580 N   0  0  0  0  0  0  0  0  0  0  0  0
  -56.3802   24.8648   14.8044 C   0  0  0  0  0  0  0  0  0  0  0  0
  -55.5061   24.8665   15.9697 C   0  0  0  0  0  0  0  0  0  0  0  0
  -54.9441   25.9952   16.5236 C   0  0  0  0  0  0  0  0  0  0  0  0
  -54.1226   25.8668   17.6245 C   0  0  0  0  0  0  0  0  0  0  0  0
  -53.8303   24.6401   18.2104 C   0  0  0  0  0  0  0  0  0  0  0  0
  -54.3979   23.5153   17.6496 C   0  0  0  0  0  0  0  0  0  0  0  0
  -55.2178   23.6350   16.5518 C   0  0  0  0  0  0  0  0  0  0  0  0
  -52.9577   24.5186   19.3689 C   0  0  0  0  0  0  0  0  0  0  0  0
  -52.4312   25.5242   20.1491 C   0  0  0  0  0  0  0  0  0  0  0  0
  -51.6734   24.9523   21.1266 N   0  0  0  0  0  0  0  0  0  0  0  0
  -51.7046   23.6415   20.9902 N   0  0  0  0  0  0  0  0  0  0  0  0
  -52.4902   23.3446   19.9127 C   0  0  0  0  0  0  0  0  0  0  0  0
  1  2  1  0
  2  3  1  0
  3  4  2  0
  3  8  1  0
  4  5  1  0
  5  6  2  0
  6  7  1  0
  6  9  1  0
  7  8  2  0
  9 10  2  0
  9 22  1  0
 10 11  1  0
 11 12  2  0
 12 13  1  0
 12 21  1  0
 13 14  1  0
 15 14  1  1
 15 16  1  0
 15 20  1  0
 16 17  1  0
 17 18  1  0
 18 19  1  0
 19 20  1  0
 21 22  2  0
 22 23  1  0
 23 24  2  0
 23 28  1  0
 24 25  1  0
 25 26  2  0
 26 27  1  0
 26 29  1  0
 27 28  2  0
 29 30  2  0
 29 33  1  0
 30 31  1  0
 31 32  1  0
 32 33  2  0
M  CHG  2   1   1  18   1
M  END
$$$$
