
     RDKit          3D

 33 37  0  0  0  0  0  0  0  0999 V2000
  -53.8268   31.2766   16.9862 N   0  0  0  0  0  4  0  0  0  0  0  0
  -52.9940   30.0919   16.9623 C   0  0  0  0  0  0  0  0  0  0  0  0
  -53.7164   29.0069   16.2365 C   0  0  0  0  0  0  0  0  0  0  0  0
  -54.2229   29.2544   14.9698 C   0  0  0  0  0  0  0  0  0  0  0  0
  -54.8949   28.2411   14.3001 C   0  0  0  0  0  0  0  0  0  0  0  0
  -55.0721   27.0015   14.8571 C   0  0  0  0  0  0  0  0  0  0  0  0
  -54.5629   26.7744   16.1136 C   0  0  0  0  0  0  0  0  0  0  0  0
  -53.8814   27.7759   16.8120 C   0  0  0  0  0  0  0  0  0  0  0  0
  -55.7897   25.9805   14.1177 C   0  0  0  0  0  0  0  0  0  0  0  0
  -55.2827   25.5054   12.9367 N   0  0  0  0  0  0  0  0  0  0  0  0
  -55.9211   24.5628   12.2297 C   0  0  0  0  0  0  0  0  0  0  0  0
  -57.1112   24.0792   12.7249 C   0  0  0  0  0  0  0  0  0  0  0  0
  -57.7591   23.1079   11.9858 O   0  0  0  0  0  0  0  0  0  0  0  0
  -58.5297   22.0826   12.5341 C   0  0  0  0  0  0  0  0  0  0  0  0
  -59.7907   22.5748   13.2098 C   0  0  1  0  0  0  0  0  0  0  0  0
  -60.6938   23.3021   12.2576 C   0  0  0  0  0  0  0  0  0  0  0  0
  -61.6936   22.4551   11.5601 C   0  0  0  0  0  0  0  0  0  0  0  0
  -62.3575   21.5063   12.4318 N   0  0  0  0  0  4  0  0  0  0  0  0
  -61.3235   20.6125   12.9481 C   0  0  0  0  0  0  0  0  0  0  0  0
  -60.4880   21.4294   13.9095 C   0  0  0  0  0  0  0  0  0  0  0  0
  -57.6045   24.5470   13.8823 N   0  0  0  0  0  0  0  0  0  0  0  0
  -56.9825   25.4927   14.6104 C   0  0  0  0  0  0  0  0  0  0  0  0
  -57.5202   25.9908   15.8693 C   0  0  0  0  0  0  0  0  0  0  0  0
  -58.0586   25.1973   16.8578 C   0  0  0  0  0  0  0  0  0  0  0  0
  -58.5461   25.7892   18.0048 C   0  0  0  0  0  0  0  0  0  0  0  0
  -58.5203   27.1633   18.2157 C   0  0  0  0  0  0  0  0  0  0  0  0
  -57.9788   27.9501   17.2209 C   0  0  0  0  0  0  0  0  0  0  0  0
  -57.4910   27.3676   16.0743 C   0  0  0  0  0  0  0  0  0  0  0  0
  -59.0427   27.7748   19.4287 C   0  0  0  0  0  0  0  0  0  0  0  0
  -58.9941   29.0987   19.8054 C   0  0  0  0  0  0  0  0  0  0  0  0
  -59.6101   29.2203   21.0147 N   0  0  0  0  0  0  0  0  0  0  0  0
  -60.0381   28.0364   21.4058 N   0  0  0  0  0  0  0  0  0  0  0  0
  -59.7018   27.1243   20.4460 C   0  0  0  0  0  0  0  0  0  0  0  0
  1  2  1  0
  2  3  1  0
  3  4  2  0
  3  8  1  0
  4  5  1  0
  5  6  2  0
  6  7  1  0
  6  9  1  0
  7  8  2  0
  9 10  2  0
  9 22  1  0
 10 11  1  0
 11 12  2  0
 12 13  1  0
 12 21  1  0
 13 14  1  0
 15 14  1  6
 15 16  1  0
 15 20  1  0
 16 17  1  0
 17 18  1  0
 18 19  1  0
 19 20  1  0
 21 22  2  0
 22 23  1  0
 23 24  2  0
 23 28  1  0
 24 25  1  0
 25 26  2  0
 26 27  1  0
 26 29  1  0
 27 28  2  0
 29 30  2  0
 29 33  1  0
 30 31  1  0
 31 32  1  0
 32 33  2  0
M  CHG  2   1   1  18   1
M  END
$$$$
