
     RDKit          3D

 33 37  0  0  0  0  0  0  0  0999 V2000
  -59.3856   28.3226    9.2906 N   0  0  0  0  0  4  0  0  0  0  0  0
  -59.4097   29.0698   10.5311 C   0  0  0  0  0  0  0  0  0  0  0  0
  -58.3165   28.5734   11.4166 C   0  0  0  0  0  0  0  0  0  0  0  0
  -58.4190   27.3128   11.9847 C   0  0  0  0  0  0  0  0  0  0  0  0
  -57.3988   26.8571   12.8085 C   0  0  0  0  0  0  0  0  0  0  0  0
  -56.2922   27.6198   13.0764 C   0  0  0  0  0  0  0  0  0  0  0  0
  -56.2077   28.8668   12.5044 C   0  0  0  0  0  0  0  0  0  0  0  0
  -57.2196   29.3522   11.6703 C   0  0  0  0  0  0  0  0  0  0  0  0
  -55.2589   27.0991   13.9514 C   0  0  0  0  0  0  0  0  0  0  0  0
  -53.9746   26.9666   13.4925 N   0  0  0  0  0  0  0  0  0  0  0  0
  -52.9974   26.4889   14.2752 C   0  0  0  0  0  0  0  0  0  0  0  0
  -53.3198   26.1309   15.5650 C   0  0  0  0  0  0  0  0  0  0  0  0
  -52.3028   25.6396   16.3610 O   0  0  0  0  0  0  0  0  0  0  0  0
  -52.4610   25.2481   17.6905 C   0  0  0  0  0  0  0  0  0  0  0  0
  -53.0350   23.8566   17.8426 C   0  0  1  0  0  0  0  0  0  0  0  0
  -51.9648   22.8232   18.0374 C   0  0  0  0  0  0  0  0  0  0  0  0
  -51.5914   22.5556   19.4490 C   0  0  0  0  0  0  0  0  0  0  0  0
  -52.7311   22.4334   20.3361 N   0  0  0  0  0  4  0  0  0  0  0  0
  -53.4245   23.7192   20.3120 C   0  0  0  0  0  0  0  0  0  0  0  0
  -54.0678   23.8368   18.9474 C   0  0  0  0  0  0  0  0  0  0  0  0
  -54.5790   26.2624   16.0108 N   0  0  0  0  0  0  0  0  0  0  0  0
  -55.5774   26.7395   15.2446 C   0  0  0  0  0  0  0  0  0  0  0  0
  -56.9404   26.8861   15.7375 C   0  0  0  0  0  0  0  0  0  0  0  0
  -57.7793   25.8367   16.0401 C   0  0  0  0  0  0  0  0  0  0  0  0
  -59.0555   26.1040   16.4910 C   0  0  0  0  0  0  0  0  0  0  0  0
  -59.5431   27.3954   16.6578 C   0  0  0  0  0  0  0  0  0  0  0  0
  -58.6959   28.4401   16.3529 C   0  0  0  0  0  0  0  0  0  0  0  0
  -57.4223   28.1819   15.9026 C   0  0  0  0  0  0  0  0  0  0  0  0
  -60.8937   27.6630   17.1296 C   0  0  0  0  0  0  0  0  0  0  0  0
  -61.4823   28.8819   17.3841 C   0  0  0  0  0  0  0  0  0  0  0  0
  -62.7589   28.6588   17.8049 N   0  0  0  0  0  0  0  0  0  0  0  0
  -62.9901   27.3611   17.8238 N   0  0  0  0  0  0  0  0  0  0  0  0
  -61.8558   26.7210   17.4115 C   0  0  0  0  0  0  0  0  0  0  0  0
  1  2  1  0
  2  3  1  0
  3  4  2  0
  3  8  1  0
  4  5  1  0
  5  6  2  0
  6  7  1  0
  6  9  1  0
  7  8  2  0
  9 10  2  0
  9 22  1  0
 10 11  1  0
 11 12  2  0
 12 13  1  0
 12 21  1  0
 13 14  1  0
 15 14  1  1
 15 16  1  0
 15 20  1  0
 16 17  1  0
 17 18  1  0
 18 19  1  0
 19 20  1  0
 21 22  2  0
 22 23  1  0
 23 24  2  0
 23 28  1  0
 24 25  1  0
 25 26  2  0
 26 27  1  0
 26 29  1  0
 27 28  2  0
 29 30  2  0
 29 33  1  0
 30 31  1  0
 31 32  1  0
 32 33  2  0
M  CHG  2   1   1  18   1
M  END
$$$$
